data_PCOD9530582
_publ_section_title
;
Structure prediction by ZEFSAII (Michael W. Deem and Ramdas Pophale) SiO2 
 PCOD9530582
Probable space group: I B C A 
;
_chemical_formula_sum "Si O2"
_cell_formula_units_Z 88
_cell_length_a 21.387525
_cell_length_b 19.254309
_cell_length_c 11.302505
_cell_angle_alpha 90.000000
_cell_angle_beta 90.000000
_cell_angle_gamma 90.000000
_cell_volume 4654.394335
_symmetry_space_group_name_H-M "I B C A "
_symmetry_group_IT_number 73
_symmetry_cell_setting 'orthorhombic'
loop_
_space_group_symop_operation_xyz
x,y,z
-x,1/2-y,z
x,-y,1/2-z
1/2-x,y,-z
-x,-y,-z
x,1/2+y,-z
-x,y,1/2+z
1/2+x,-y,z
1/2+x,1/2+y,1/2+z
1/2-x,-y,1/2+z
1/2+x,1/2-y,-z
-x,1/2+y,1/2-z
1/2-x,1/2-y,1/2-z
1/2+x,y,1/2-z
1/2-x,1/2+y,z
x,1/2-y,1/2+z
loop_
_atom_site_type_symbol
_atom_site_label
_atom_site_fract_x
_atom_site_fract_y
_atom_site_fract_z
Si Si1 0.488217 0.095520 0.375413
Si Si2 0.854669 0.480361 0.617897
Si Si3 0.516693 0.669547 0.870542
Si Si4 0.653644 0.383280 0.678820
Si Si5 0.874935 0.043375 0.605072
Si Si6 0.250000 0.115391 0.500000
O O1 0.423219 0.054756 0.388113
O O2 0.486406 0.134697 0.247959
O O3 0.497132 0.138730 0.498090
O O4 0.550888 0.048907 0.371411
O O5 0.840357 0.500000 0.750000
O O6 0.859134 0.546757 0.532456
O O7 0.800338 0.430282 0.571597
O O8 0.500000 0.750000 0.870698
O O9 0.590262 0.656332 0.850136
O O10 0.658413 0.396972 0.818666
O O11 0.645073 0.464611 0.638813
O O12 0.709115 0.349869 0.603286
#
# Coordination Sequence:
#
# PCOD9530582 Si02
#       6
#    16  16  16  16  16   8
#     4  11  21  36  57  87 112 145 182 234 288 334
#     4  11  22  30  54  85 115 149 182 222 266 343
#     4  11  22  37  56  83 112 142 189 237 285 322
#     4   9  19  34  56  80 110 154 176 225 277 331
#     4   9  18  32  55  83 117 141 174 224 292 326
#     4  10  20  36  50  80 118 152 190 208 268 346
#
# _framework density 18.906863999999999
#
# number of rings (size 3 to 8) (size 9 to 14) (size 15 to 20)
#    0.000    1.818    3.636    2.182   10.182    0.000 
#    0.000    0.000    0.000    1.091    0.000    0.000 
#    0.000    0.000    0.000    0.000    0.000    0.000 
#
# Total GULP energy -244988.846683 kJ/mol
# GULP energy per Si atom -5567.928334 kJ/mol
# Density = 1.886383 g / cm^3
# Si number density = 18.906864 Si / 1000 Ang^3
#
#
#
# Elastic Constant Matrix: (Units=GPa)
#
#
# Indices 1 2 3 4 5 6 
#
# 1 56.6533 -5.7422 27.8681 0.0000 0.0000 0.0000
# 2 -5.7422 16.7834 16.3720 0.0000 0.0000 0.0000
# 3 27.8681 16.3720 155.7200 0.0000 0.0000 0.0000
# 4 0.0000 0.0000 0.0000 14.3111 0.0000 0.0000
# 5 0.0000 0.0000 0.0000 0.0000 18.7802 0.0000
# 6 0.0000 0.0000 0.0000 0.0000 0.0000 8.3327
#
#
#
# Elastic Compliance Matrix: (Units=1/GPa)
#
#
# Indices 1 2 3 4 5 6 
#
# 1 0.021426 0.012336 -0.005131 0.000000 0.000000 0.000000
# 2 0.012336 0.073494 -0.009935 0.000000 0.000000 0.000000
# 3 -0.005131 -0.009935 0.008385 0.000000 0.000000 0.000000
# 4 0.000000 0.000000 0.000000 0.069876 0.000000 0.000000
# 5 0.000000 0.000000 0.000000 0.000000 0.053248 0.000000
# 6 0.000000 0.000000 0.000000 0.000000 0.000000 0.120010
#
#
# Mechanical properties :
#
#
# Convention : Reuss Voigt Hill
#
# Bulk Modulus (GPa) = 10.22027 34.01694 22.11861
# Shear Modulus (GPa) = 13.00347 20.99539 16.99943
#
# Velocity S-wave (km/s) = 2.62537 3.33598 3.00178
# Velocity P-wave (km/s) = 3.82197 5.73317 4.87220
#
# Compressibility (1/GPa) = 0.09784477
#
# Stress axis : x y z
#
# Youngs Moduli (GPa) = 46.67285 13.60648 119.26591
#
# Poissons Ratio (x) = -0.16785 0.61200
# Poissons Ratio (y) = -0.57576 1.18487
# Poissons Ratio (z) = 0.23950 0.13518
#
# Static dielectric constant tensor:
#      x y z
#    x 1.668780 0.000000 0.000000 
#    y 0.000000 1.633180 0.000000 
#    z 0.000000 0.000000 1.826710 
# 
# From -- ./inp_files/11886.got.cif
#   From: 2010.05.17/outbox.cif.g08.bks.cpg/sg73_6_cif.got.tgz:11886.got - 2010.06.03 17:35:07.
