data_PCOD9530161
_publ_section_title
;
Structure prediction by ZEFSAII (Michael W. Deem and Ramdas Pophale) SiO2 
 PCOD9530161
Probable space group: I B C A 
;
_chemical_formula_sum "Si O2"
_cell_formula_units_Z 112
_cell_length_a 11.211964
_cell_length_b 28.946494
_cell_length_c 14.455330
_cell_angle_alpha 90.000000
_cell_angle_beta 90.000000
_cell_angle_gamma 90.000000
_cell_volume 4691.434689
_symmetry_space_group_name_H-M "I B C A "
_symmetry_group_IT_number 73
_symmetry_cell_setting 'orthorhombic'
loop_
_space_group_symop_operation_xyz
x,y,z
-x,1/2-y,z
x,-y,1/2-z
1/2-x,y,-z
-x,-y,-z
x,1/2+y,-z
-x,y,1/2+z
1/2+x,-y,z
1/2+x,1/2+y,1/2+z
1/2-x,-y,1/2+z
1/2+x,1/2-y,-z
-x,1/2+y,1/2-z
1/2-x,1/2-y,1/2-z
1/2+x,y,1/2-z
1/2-x,1/2+y,z
x,1/2-y,1/2+z
loop_
_atom_site_type_symbol
_atom_site_label
_atom_site_fract_x
_atom_site_fract_y
_atom_site_fract_z
Si Si1 0.750000 0.847210 0.000000
Si Si2 0.246956 0.484346 0.859495
Si Si3 0.886892 0.195864 0.887349
Si Si4 0.818598 0.378819 0.637360
Si Si5 0.500000 0.750000 0.742187
Si Si6 0.500445 0.184514 0.929430
Si Si7 0.007470 0.520044 0.145532
Si Si8 0.586149 0.378986 0.156577
O O1 0.688312 0.876982 0.920293
O O2 0.861430 0.818993 0.956131
O O3 0.243788 0.500000 0.750000
O O4 0.266589 0.429727 0.876528
O O5 0.366651 0.506781 0.897758
O O6 0.116505 0.497413 0.895444
O O7 0.774008 0.162361 0.883350
O O8 0.892102 0.236870 0.812340
O O9 0.999799 0.164188 0.858789
O O10 0.920608 0.209656 0.991732
O O11 0.938012 0.366176 0.579592
O O12 0.852620 0.377617 0.744533
O O13 0.516929 0.791497 0.669497
O O14 0.011373 0.500000 0.250000
O O15 0.007626 0.575144 0.151086
#
# Coordination Sequence:
#
# PCOD9530161 Si02
#       8
#     8  16  16  16   8  16  16  16
#     4  10  26  46  70  98 158 190 246 318 370 450
#     4  10  20  34  64 108 143 184 248 309 361 440
#     4  11  25  45  69 107 147 184 251 312 363 452
#     4  12  22  42  74 103 142 197 249 301 376 452
#     4  12  24  48  74 108 144 194 246 304 386 446
#     4  11  26  48  70 109 142 197 246 305 378 451
#     4  10  19  34  60 103 139 183 249 305 359 435
#     4  11  21  41  68 100 140 196 241 297 377 444
#
# _framework density 23.873293
#
# number of rings (size 3 to 8) (size 9 to 14) (size 15 to 20)
#    0.000    1.143    5.714    1.714    0.000    1.714 
#    7.714    0.000    3.143    2.571    0.000    0.000 
#    0.000    0.000    0.000    0.000    0.000    0.000 
#
# Total GULP energy -312944.948584 kJ/mol
# GULP energy per Si atom -5588.302653 kJ/mol
# Density = 2.381896 g / cm^3
# Si number density = 23.873293 Si / 1000 Ang^3
#
#
#
# Elastic Constant Matrix: (Units=GPa)
#
#
# Indices 1 2 3 4 5 6 
#
# 1 154.5205 23.0947 23.5297 -0.0001 0.0001 0.0000
# 2 23.0947 80.2253 9.0091 0.0000 -0.0001 0.0000
# 3 23.5297 9.0091 127.7227 0.0001 -0.0013 0.0001
# 4 -0.0001 0.0000 0.0001 -1.3043 -0.0004 0.0000
# 5 0.0001 -0.0001 -0.0013 -0.0004 -172.5588 0.0000
# 6 0.0000 0.0000 0.0001 0.0000 0.0000 37.0013
#
#
#
# Elastic Compliance Matrix: (Units=1/GPa)
#
#
# Indices 1 2 3 4 5 6 
#
# 1 0.006925 -0.001865 -0.001144 0.000000 0.000000 0.000000
# 2 -0.001865 0.013067 -0.000578 0.000000 0.000000 0.000000
# 3 -0.001144 -0.000578 0.008081 0.000001 0.000000 0.000000
# 4 0.000000 0.000000 0.000001 -0.766677 0.000002 0.000001
# 5 0.000000 0.000000 0.000000 0.000002 -0.005795 0.000000
# 6 0.000000 0.000000 0.000000 0.000001 0.000000 0.027026
#
#
# Mechanical properties :
#
#
# Convention : Reuss Voigt Hill
#
# Bulk Modulus (GPa) = 47.85157 52.63726 50.24442
# Shear Modulus (GPa) = -7.11001 -6.91670 -7.01335
#
# Velocity S-wave (km/s) = -1.72763 -1.70398 -1.71584
# Velocity P-wave (km/s) = 4.01346 4.26908 4.14325
#
# Compressibility (1/GPa) = 0.02089796
#
# Stress axis : x y z
#
# Youngs Moduli (GPa) = 144.41294 76.53052 123.74675
#
# Poissons Ratio (x) = 0.14272 0.14158
# Poissons Ratio (y) = 0.26932 0.07154
# Poissons Ratio (z) = 0.16523 0.04424
#
# Static dielectric constant tensor:
#      x y z
#    x 1.907320 0.000000 0.000000 
#    y 0.000000 1.925500 0.000000 
#    z 0.000000 0.000000 1.884910 
# 
# From -- ./inp_files/16396.got.cif
#   From: 2010.05.17/outbox.cif.g08.bks.cpg/sg73_9_cif.got.tgz:16396.got - 2010.06.03 17:35:07.
