data_PCOD9530058
_publ_section_title
;
Structure prediction by ZEFSAII (Michael W. Deem and Ramdas Pophale) SiO2 
 PCOD9530058
Probable space group: I B C A 
;
_chemical_formula_sum "Si O2"
_cell_formula_units_Z 96
_cell_length_a 8.781970
_cell_length_b 26.674446
_cell_length_c 21.684274
_cell_angle_alpha 90.000000
_cell_angle_beta 90.000000
_cell_angle_gamma 90.000000
_cell_volume 5079.631923
_symmetry_space_group_name_H-M "I B C A "
_symmetry_group_IT_number 73
_symmetry_cell_setting 'orthorhombic'
loop_
_space_group_symop_operation_xyz
x,y,z
-x,1/2-y,z
x,-y,1/2-z
1/2-x,y,-z
-x,-y,-z
x,1/2+y,-z
-x,y,1/2+z
1/2+x,-y,z
1/2+x,1/2+y,1/2+z
1/2-x,-y,1/2+z
1/2+x,1/2-y,-z
-x,1/2+y,1/2-z
1/2-x,1/2-y,1/2-z
1/2+x,y,1/2-z
1/2-x,1/2+y,z
x,1/2-y,1/2+z
loop_
_atom_site_type_symbol
_atom_site_label
_atom_site_fract_x
_atom_site_fract_y
_atom_site_fract_z
Si Si1 0.505143 0.958300 0.422327
Si Si2 0.363183 0.000000 0.750000
Si Si3 0.250000 0.290465 0.500000
Si Si4 0.600889 0.453766 0.331755
Si Si5 0.027009 0.852706 0.049978
Si Si6 0.250000 0.000041 0.000000
Si Si7 0.000000 0.750000 0.910960
Si Si8 0.864022 0.351432 0.591408
O O1 0.487582 0.900631 0.407657
O O2 0.387412 0.965849 0.478352
O O3 0.457932 0.001776 0.376517
O O4 0.676055 0.966496 0.446882
O O5 0.255617 0.026525 0.699616
O O6 0.471264 0.042789 0.779022
O O7 0.373678 0.320697 0.541205
O O8 0.355886 0.258966 0.455101
O O9 0.617086 0.400686 0.365976
O O10 0.187393 0.835692 0.079839
O O11 0.070290 0.864009 0.977603
O O12 0.958636 0.696180 0.881588
#
# Coordination Sequence:
#
# PCOD9530058 Si02
#       8
#    16   8   8  16  16   8   8  16
#     4  11  19  31  49  78 114 144 175 211 258 325
#     4  10  24  40  56  78 104 138 186 236 290 336
#     4  10  19  32  49  74 118 156 179 210 247 306
#     4  11  22  38  57  77 107 146 184 233 282 328
#     4  10  19  30  51  84 116 149 178 207 258 327
#     4  10  19  26  43  74 116 146 165 204 251 312
#     4  10  20  34  52  76 108 148 188 220 256 314
#     4  10  20  35  54  77 110 147 181 219 267 319
#
# _framework density 18.899007999999998
#
# number of rings (size 3 to 8) (size 9 to 14) (size 15 to 20)
#    0.000    1.667    0.000    8.500    0.000    4.000 
#    0.000    0.000    0.000    1.000    0.000    0.000 
#    0.000    0.000    0.000    0.000    0.000    0.000 
#
# Total GULP energy -267310.399746 kJ/mol
# GULP energy per Si atom -5568.966661 kJ/mol
# Density = 1.885599 g / cm^3
# Si number density = 18.899008 Si / 1000 Ang^3
#
#
#
# Elastic Constant Matrix: (Units=GPa)
#
#
# Indices 1 2 3 4 5 6 
#
# 1 134.8331 52.0001 33.3172 0.0000 0.0000 0.0000
# 2 52.0001 124.4038 29.3457 0.0000 0.0000 0.0000
# 3 33.3172 29.3457 41.4239 0.0000 0.0000 0.0000
# 4 0.0000 0.0000 0.0000 15.9096 0.0000 0.0000
# 5 0.0000 0.0000 0.0000 0.0000 26.0713 0.0000
# 6 0.0000 0.0000 0.0000 0.0000 0.0000 29.3909
#
#
#
# Elastic Compliance Matrix: (Units=1/GPa)
#
#
# Indices 1 2 3 4 5 6 
#
# 1 0.009975 -0.002734 -0.006086 0.000000 0.000000 0.000000
# 2 -0.002734 0.010400 -0.005169 0.000000 0.000000 0.000000
# 3 -0.006086 -0.005169 0.032698 0.000000 0.000000 0.000000
# 4 0.000000 0.000000 0.000000 0.062855 0.000000 0.000000
# 5 0.000000 0.000000 0.000000 0.000000 0.038356 0.000000
# 6 0.000000 0.000000 0.000000 0.000000 0.000000 0.034024
#
#
# Mechanical properties :
#
#
# Convention : Reuss Voigt Hill
#
# Bulk Modulus (GPa) = 39.84873 58.88743 49.36808
# Shear Modulus (GPa) = 22.25674 26.67421 24.46548
#
# Velocity S-wave (km/s) = 3.43544 3.76095 3.60187
# Velocity P-wave (km/s) = 6.07184 7.07717 6.59369
#
# Compressibility (1/GPa) = 0.02509490
#
# Stress axis : x y z
#
# Youngs Moduli (GPa) = 100.25319 96.15036 30.58329
#
# Poissons Ratio (x) = 0.26285 0.18613
# Poissons Ratio (y) = 0.27407 0.15809
# Poissons Ratio (z) = 0.61014 0.49701
#
# Static dielectric constant tensor:
#      x y z
#    x 1.739340 0.000000 0.000000 
#    y 0.000000 1.731660 0.000000 
#    z 0.000000 0.000000 1.711760 
# 
# From -- ./inp_files/7304.got.cif
#   From: 2010.05.17/outbox.cif.g08.bks.cpg/sg73_4_cif.got.tgz:7304.got - 2010.06.03 17:35:07.
