data_PCOD9530828
_publ_section_title
;
Structure prediction by ZEFSAII (Michael W. Deem and Ramdas Pophale) SiO2 
 PCOD9530828
Probable space group: I B C A 
;
_chemical_formula_sum "Si O2"
_cell_formula_units_Z 72
_cell_length_a 5.166213
_cell_length_b 28.973933
_cell_length_c 21.693626
_cell_angle_alpha 90.000000
_cell_angle_beta 90.000000
_cell_angle_gamma 90.000000
_cell_volume 3247.221457
_symmetry_space_group_name_H-M "I B C A "
_symmetry_group_IT_number 73
_symmetry_cell_setting 'orthorhombic'
loop_
_space_group_symop_operation_xyz
x,y,z
-x,1/2-y,z
x,-y,1/2-z
1/2-x,y,-z
-x,-y,-z
x,1/2+y,-z
-x,y,1/2+z
1/2+x,-y,z
1/2+x,1/2+y,1/2+z
1/2-x,-y,1/2+z
1/2+x,1/2-y,-z
-x,1/2+y,1/2-z
1/2-x,1/2-y,1/2-z
1/2+x,y,1/2-z
1/2-x,1/2+y,z
x,1/2-y,1/2+z
loop_
_atom_site_type_symbol
_atom_site_label
_atom_site_fract_x
_atom_site_fract_y
_atom_site_fract_z
Si Si1 0.090471 0.145980 0.063993
Si Si2 0.257597 0.519580 0.679689
Si Si3 0.500000 0.750000 0.043810
Si Si4 0.909602 0.614247 0.124883
Si Si5 0.045146 0.702411 0.706848
O O1 0.051083 0.201106 0.078957
O O2 0.292183 0.115825 0.104083
O O3 0.810205 0.121820 0.072323
O O4 0.250000 0.147402 0.000000
O O5 0.289197 0.500000 0.750000
O O6 0.536226 0.512004 0.650477
O O7 0.162625 0.571302 0.668641
O O8 0.750000 0.741323 0.000000
O O9 0.899773 0.660506 0.163663
O O10 0.783569 0.700944 0.746154
O O11 0.000000 0.750000 0.670284
#
# Coordination Sequence:
#
# PCOD9530828 Si02
#       5
#    16  16   8  16  16
#     4  11  24  41  64  97 138 177 227 270 316 393
#     4  10  23  41  66  94 126 158 214 289 337 398
#     4  10  20  38  62  92 134 180 224 276 310 352
#     4  12  24  39  71  94 128 182 220 270 344 390
#     4  10  23  39  58  90 136 174 215 264 324 408
#
# _framework density 22.172802999999998
#
# number of rings (size 3 to 8) (size 9 to 14) (size 15 to 20)
#    0.000    1.333    0.000    6.000    9.333    0.000 
#    0.000    0.000    0.000   13.333    0.000    0.000 
#    0.000    0.000    0.000    0.000    0.000    0.000 
#
# Total GULP energy -200585.809100 kJ/mol
# GULP energy per Si atom -5571.828031 kJ/mol
# Density = 2.212234 g / cm^3
# Si number density = 22.172803 Si / 1000 Ang^3
#
#
#
# Elastic Constant Matrix: (Units=GPa)
#
#
# Indices 1 2 3 4 5 6 
#
# 1 160.5044 15.8620 12.3514 0.0000 0.0000 0.0000
# 2 15.8620 124.5550 40.0765 0.0000 0.0000 0.0000
# 3 12.3514 40.0765 41.0318 0.0000 0.0000 0.0000
# 4 0.0000 0.0000 0.0000 33.6072 0.0000 0.0000
# 5 0.0000 0.0000 0.0000 0.0000 145.2870 0.0000
# 6 0.0000 0.0000 0.0000 0.0000 0.0000 35.8642
#
#
#
# Elastic Compliance Matrix: (Units=1/GPa)
#
#
# Indices 1 2 3 4 5 6 
#
# 1 0.006385 -0.000284 -0.001645 0.000000 0.000000 0.000000
# 2 -0.000284 0.011721 -0.011362 0.000000 0.000000 0.000000
# 3 -0.001645 -0.011362 0.035964 0.000000 0.000000 0.000000
# 4 0.000000 0.000000 0.000000 0.029756 0.000000 0.000000
# 5 0.000000 0.000000 0.000000 0.000000 0.006883 0.000000
# 6 0.000000 0.000000 0.000000 0.000000 0.000000 0.027883
#
#
# Mechanical properties :
#
#
# Convention : Reuss Voigt Hill
#
# Bulk Modulus (GPa) = 36.37952 51.40790 43.89371
# Shear Modulus (GPa) = 32.39689 60.13843 46.26766
#
# Velocity S-wave (km/s) = 3.82659 5.21359 4.57298
# Velocity P-wave (km/s) = 5.99722 7.71216 6.90811
#
# Compressibility (1/GPa) = 0.02748799
#
# Stress axis : x y z
#
# Youngs Moduli (GPa) = 156.61749 85.31949 27.80541
#
# Poissons Ratio (x) = 0.02422 0.04573
# Poissons Ratio (y) = 0.04447 0.31593
# Poissons Ratio (z) = 0.25759 0.96943
#
# Static dielectric constant tensor:
#      x y z
#    x 1.970450 0.000000 0.000000 
#    y 0.000000 1.831180 0.000000 
#    z 0.000000 0.000000 1.890780 
# 
# From -- ./inp_files/1685.got.cif
#   From: 2010.05.17/outbox.cif.g08.bks.cpg/sg73_1_cif.got.tgz:1685.got - 2010.06.03 17:35:07.
