data_PCOD9530471
_publ_section_title
;
Structure prediction by ZEFSAII (Michael W. Deem and Ramdas Pophale) SiO2 
 PCOD9530471
Probable space group: I B C A 
;
_chemical_formula_sum "Si O2"
_cell_formula_units_Z 88
_cell_length_a 34.936418
_cell_length_b 5.221011
_cell_length_c 27.567856
_cell_angle_alpha 90.000000
_cell_angle_beta 90.000000
_cell_angle_gamma 90.000000
_cell_volume 5028.471290
_symmetry_space_group_name_H-M "I B C A "
_symmetry_group_IT_number 73
_symmetry_cell_setting 'orthorhombic'
loop_
_space_group_symop_operation_xyz
x,y,z
-x,1/2-y,z
x,-y,1/2-z
1/2-x,y,-z
-x,-y,-z
x,1/2+y,-z
-x,y,1/2+z
1/2+x,-y,z
1/2+x,1/2+y,1/2+z
1/2-x,-y,1/2+z
1/2+x,1/2-y,-z
-x,1/2+y,1/2-z
1/2-x,1/2-y,1/2-z
1/2+x,y,1/2-z
1/2-x,1/2+y,z
x,1/2-y,1/2+z
loop_
_atom_site_type_symbol
_atom_site_label
_atom_site_fract_x
_atom_site_fract_y
_atom_site_fract_z
Si Si1 0.434446 0.856159 0.362282
Si Si2 0.045785 0.734196 0.530752
Si Si3 0.394717 0.000000 0.750000
Si Si4 0.642208 0.116503 0.695005
Si Si5 0.539758 0.330481 0.810950
Si Si6 0.227391 0.496036 0.190927
O O1 0.434055 0.778979 0.418035
O O2 0.392721 0.929741 0.341256
O O3 0.453156 0.615229 0.332769
O O4 0.457893 0.116147 0.352857
O O5 0.054717 0.462265 0.506659
O O6 0.000000 0.750000 0.540154
O O7 0.366289 0.086598 0.707715
O O8 0.425380 0.197145 0.772912
O O9 0.683811 0.049227 0.675736
O O10 0.639634 0.000000 0.750000
O O11 0.500000 0.250000 0.785979
O O12 0.226720 0.500000 0.250000
O O13 0.244655 0.225349 0.175618
#
# Coordination Sequence:
#
# PCOD9530471 Si02
#       6
#    16  16   8  16  16  16
#     4  11  22  36  54  76  99 136 172 215 266 305
#     4  10  20  35  55  76  99 127 167 220 268 305
#     4  10  22  32  46  68 100 140 178 206 252 288
#     4  10  20  34  51  70 108 136 169 206 252 302
#     4  11  22  34  49  68  98 135 179 215 244 296
#     4   9  19  30  48  71  95 131 170 203 241 293
#
# _framework density 17.500347000000001
#
# number of rings (size 3 to 8) (size 9 to 14) (size 15 to 20)
#    0.000    1.818    1.818    2.727    6.364    4.364 
#    0.000    0.000    0.000    0.000    0.000    0.000 
#    0.000    4.364    0.000    0.000    0.000    0.000 
#
# Total GULP energy -245079.415306 kJ/mol
# GULP energy per Si atom -5569.986711 kJ/mol
# Density = 1.746052 g / cm^3
# Si number density = 17.500347 Si / 1000 Ang^3
#
#
#
# Elastic Constant Matrix: (Units=GPa)
#
#
# Indices 1 2 3 4 5 6 
#
# 1 118.1895 43.1298 23.0129 0.0000 0.0000 0.0000
# 2 43.1298 78.8448 10.1325 0.0000 0.0000 0.0000
# 3 23.0129 10.1325 63.6965 0.0000 0.0000 0.0000
# 4 0.0000 0.0000 0.0000 21.9998 0.0000 0.0000
# 5 0.0000 0.0000 0.0000 0.0000 12.5886 0.0000
# 6 0.0000 0.0000 0.0000 0.0000 0.0000 18.3714
#
#
#
# Elastic Compliance Matrix: (Units=1/GPa)
#
#
# Indices 1 2 3 4 5 6 
#
# 1 0.011148 -0.005697 -0.003121 0.000000 0.000000 0.000000
# 2 -0.005697 0.015859 -0.000465 0.000000 0.000000 0.000000
# 3 -0.003121 -0.000465 0.016901 0.000000 0.000000 0.000000
# 4 0.000000 0.000000 0.000000 0.045455 0.000000 0.000000
# 5 0.000000 0.000000 0.000000 0.000000 0.079437 0.000000
# 6 0.000000 0.000000 0.000000 0.000000 0.000000 0.054432
#
#
# Mechanical properties :
#
#
# Convention : Reuss Voigt Hill
#
# Bulk Modulus (GPa) = 39.45963 45.92014 42.68988
# Shear Modulus (GPa) = 19.98040 22.88900 21.43470
#
# Velocity S-wave (km/s) = 3.38259 3.62044 3.50353
# Velocity P-wave (km/s) = 6.15246 6.61614 6.38851
#
# Compressibility (1/GPa) = 0.02534236
#
# Stress axis : x y z
#
# Youngs Moduli (GPa) = 89.70497 63.05503 59.16795
#
# Poissons Ratio (x) = 0.35922 0.18468
# Poissons Ratio (y) = 0.51104 0.02749
# Poissons Ratio (z) = 0.28000 0.02929
#
# Static dielectric constant tensor:
#      x y z
#    x 1.612130 0.000000 0.000000 
#    y 0.000000 1.769040 0.000000 
#    z 0.000000 0.000000 1.598660 
# 
# From -- ./inp_files/30963.got.cif
#   From: 2010.05.17/outbox.cif.g08.bks.cpg/sg73_16_cif.got.tgz:30963.got - 2010.06.03 17:35:07.
