data_PCOD9530562
_publ_section_title
;
Structure prediction by ZEFSAII (Michael W. Deem and Ramdas Pophale) SiO2 
 PCOD9530562
Probable space group: I B C A 
;
_chemical_formula_sum "Si O2"
_cell_formula_units_Z 96
_cell_length_a 8.788205
_cell_length_b 22.387024
_cell_length_c 24.206766
_cell_angle_alpha 90.000000
_cell_angle_beta 90.000000
_cell_angle_gamma 90.000000
_cell_volume 4762.481656
_symmetry_space_group_name_H-M "I B C A "
_symmetry_group_IT_number 73
_symmetry_cell_setting 'orthorhombic'
loop_
_space_group_symop_operation_xyz
x,y,z
-x,1/2-y,z
x,-y,1/2-z
1/2-x,y,-z
-x,-y,-z
x,1/2+y,-z
-x,y,1/2+z
1/2+x,-y,z
1/2+x,1/2+y,1/2+z
1/2-x,-y,1/2+z
1/2+x,1/2-y,-z
-x,1/2+y,1/2-z
1/2-x,1/2-y,1/2-z
1/2+x,y,1/2-z
1/2-x,1/2+y,z
x,1/2-y,1/2+z
loop_
_atom_site_type_symbol
_atom_site_label
_atom_site_fract_x
_atom_site_fract_y
_atom_site_fract_z
Si Si1 0.972757 0.902548 0.246733
Si Si2 0.650952 0.548706 0.552637
Si Si3 0.717978 0.410902 0.826669
Si Si4 0.822746 0.231378 0.691518
Si Si5 0.707890 0.580760 0.056821
Si Si6 0.773426 0.348598 0.331038
O O1 0.080604 0.936089 0.289555
O O2 0.076985 0.863056 0.205243
O O3 0.865728 0.936034 0.203875
O O4 0.860846 0.866531 0.287860
O O5 0.750000 0.570708 0.500000
O O6 0.712519 0.574774 0.609784
O O7 0.470784 0.562775 0.552505
O O8 0.686618 0.478269 0.555596
O O9 0.704318 0.338348 0.820327
O O10 0.750000 0.250000 0.750000
O O11 0.738622 0.279179 0.652633
O O12 0.000000 0.250000 0.690020
O O13 0.746231 0.613712 0.113760
O O14 0.750000 0.614769 0.000000
#
# Coordination Sequence:
#
# PCOD9530562 Si02
#       6
#    16  16  16  16  16  16
#     4  10  20  35  59  88 124 154 189 237 290 348
#     4  11  24  43  64  85 111 154 201 245 288 342
#     4  11  21  37  60  89 122 153 196 234 291 346
#     4  12  18  32  57  86 122 157 188 230 284 352
#     4  11  24  43  64  85 111 154 201 245 288 342
#     4  11  21  37  60  89 122 153 196 234 291 346
#
# _framework density 20.157558999999999
#
# number of rings (size 3 to 8) (size 9 to 14) (size 15 to 20)
#    0.000    1.000    6.667    2.000    4.667    0.000 
#    0.000    5.833    0.000    0.000    0.000    0.000 
#    0.000    0.000    0.000    0.000    0.000    0.000 
#
# Total GULP energy -267639.440702 kJ/mol
# GULP energy per Si atom -5575.821681 kJ/mol
# Density = 2.011168 g / cm^3
# Si number density = 20.157559 Si / 1000 Ang^3
#
#
#
# Elastic Constant Matrix: (Units=GPa)
#
#
# Indices 1 2 3 4 5 6 
#
# 1 75.1212 1.9888 46.3258 0.0000 0.0000 0.0000
# 2 1.9888 42.3246 48.8921 0.0000 0.0000 0.0000
# 3 46.3258 48.8921 190.5531 0.0000 0.0000 0.0000
# 4 0.0000 0.0000 0.0000 -15.2333 0.0000 0.0000
# 5 0.0000 0.0000 0.0000 0.0000 26.0080 0.0000
# 6 0.0000 0.0000 0.0000 0.0000 0.0000 10.8240
#
#
#
# Elastic Compliance Matrix: (Units=1/GPa)
#
#
# Indices 1 2 3 4 5 6 
#
# 1 0.016510 0.005487 -0.005422 0.000000 0.000000 0.000000
# 2 0.005487 0.035403 -0.010418 0.000000 0.000000 0.000000
# 3 -0.005422 -0.010418 0.009239 0.000000 0.000000 0.000000
# 4 0.000000 0.000000 0.000000 -0.065646 0.000000 0.000000
# 5 0.000000 0.000000 0.000000 0.000000 0.038450 0.000000
# 6 0.000000 0.000000 0.000000 0.000000 0.000000 0.092387
#
#
# Mechanical properties :
#
#
# Convention : Reuss Voigt Hill
#
# Bulk Modulus (GPa) = 24.72331 55.82359 40.27345
# Shear Modulus (GPa) = 31.14671 18.37257 24.75964
#
# Velocity S-wave (km/s) = 3.93512 3.02229 3.50852
# Velocity P-wave (km/s) = 5.73921 6.31924 6.03620
#
# Compressibility (1/GPa) = 0.04044766
#
# Stress axis : x y z
#
# Youngs Moduli (GPa) = 60.56940 28.24591 108.23745
#
# Poissons Ratio (x) = -0.15499 0.58683
# Poissons Ratio (y) = -0.33235 1.12759
# Poissons Ratio (z) = 0.32839 0.29426
#
# Static dielectric constant tensor:
#      x y z
#    x 1.792520 0.000000 0.000000 
#    y 0.000000 1.785730 0.000000 
#    z 0.000000 0.000000 1.725390 
# 
# From -- ./inp_files/7815.got.cif
#   From: 2010.05.17/outbox.cif.g08.bks.cpg/sg73_4_cif.got.tgz:7815.got - 2010.06.03 17:35:07.
