data_PCOD9530177
_publ_section_title
;
Structure prediction by ZEFSAII (Michael W. Deem and Ramdas Pophale) SiO2 
 PCOD9530177
Probable space group: I B C A 
;
_chemical_formula_sum "Si O2"
_cell_formula_units_Z 88
_cell_length_a 25.173877
_cell_length_b 20.588331
_cell_length_c 8.251600
_cell_angle_alpha 90.000000
_cell_angle_beta 90.000000
_cell_angle_gamma 90.000000
_cell_volume 4276.706187
_symmetry_space_group_name_H-M "I B C A "
_symmetry_group_IT_number 73
_symmetry_cell_setting 'orthorhombic'
loop_
_space_group_symop_operation_xyz
x,y,z
-x,1/2-y,z
x,-y,1/2-z
1/2-x,y,-z
-x,-y,-z
x,1/2+y,-z
-x,y,1/2+z
1/2+x,-y,z
1/2+x,1/2+y,1/2+z
1/2-x,-y,1/2+z
1/2+x,1/2-y,-z
-x,1/2+y,1/2-z
1/2-x,1/2-y,1/2-z
1/2+x,y,1/2-z
1/2-x,1/2+y,z
x,1/2-y,1/2+z
loop_
_atom_site_type_symbol
_atom_site_label
_atom_site_fract_x
_atom_site_fract_y
_atom_site_fract_z
Si Si1 0.920450 0.470134 0.429360
Si Si2 0.460460 0.090116 0.069173
Si Si3 0.982652 0.678817 0.278414
Si Si4 0.612690 0.670195 0.959093
Si Si5 0.173080 0.276604 0.250730
Si Si6 0.250000 0.790800 0.500000
O O1 0.914221 0.500000 0.250000
O O2 0.919849 0.530694 0.553543
O O3 0.883014 0.407965 0.451103
O O4 0.980671 0.442084 0.440337
O O5 0.452621 0.139204 0.918659
O O6 0.467508 0.133876 0.227328
O O7 0.945081 0.684990 0.119796
O O8 0.000000 0.750000 0.327290
O O9 0.650327 0.713167 0.842097
O O10 0.627398 0.692810 0.139553
O O11 0.204050 0.320967 0.383978
O O12 0.216384 0.253249 0.121654
#
# Coordination Sequence:
#
# PCOD9530177 Si02
#       6
#    16  16  16  16  16   8
#     4  10  19  35  52  70 106 160 209 243 275 330
#     4  10  20  36  51  70 102 164 216 234 275 344
#     4  11  23  33  53  77 117 162 197 253 302 328
#     4  10  21  32  52  83 117 143 197 252 286 338
#     4   9  18  34  57  89 113 142 181 240 303 368
#     4   8  16  36  62  80 116 146 166 222 318 392
#
# _framework density 20.576585000000001
#
# number of rings (size 3 to 8) (size 9 to 14) (size 15 to 20)
#    0.000    2.182    3.636    0.545    7.636    0.000 
#    0.000    0.000    8.000    0.000    0.000    7.636 
#    0.000    0.000    0.000    0.000    0.000    0.000 
#
# Total GULP energy -245015.800368 kJ/mol
# GULP energy per Si atom -5568.540917 kJ/mol
# Density = 2.052975 g / cm^3
# Si number density = 20.576585 Si / 1000 Ang^3
#
#
#
# Elastic Constant Matrix: (Units=GPa)
#
#
# Indices 1 2 3 4 5 6 
#
# 1 59.3164 22.3207 28.2613 0.0000 0.0000 0.0000
# 2 22.3207 143.4673 37.4614 0.0000 0.0000 0.0000
# 3 28.2613 37.4614 91.4868 0.0000 0.0000 0.0000
# 4 0.0000 0.0000 0.0000 -59.9980 0.0000 0.0000
# 5 0.0000 0.0000 0.0000 0.0000 38.9107 0.0000
# 6 0.0000 0.0000 0.0000 0.0000 0.0000 -1.3561
#
#
#
# Elastic Compliance Matrix: (Units=1/GPa)
#
#
# Indices 1 2 3 4 5 6 
#
# 1 0.020127 -0.001688 -0.005526 0.000000 0.000000 0.000000
# 2 -0.001688 0.007946 -0.002732 0.000000 0.000000 0.000000
# 3 -0.005526 -0.002732 0.013756 0.000000 0.000000 0.000000
# 4 0.000000 0.000000 0.000000 -0.016667 0.000000 0.000000
# 5 0.000000 0.000000 0.000000 0.000000 0.025700 0.000000
# 6 0.000000 0.000000 0.000000 0.000000 0.000000 -0.737425
#
#
# Mechanical properties :
#
#
# Convention : Reuss Voigt Hill
#
# Bulk Modulus (GPa) = 45.58669 52.26190 48.92429
# Shear Modulus (GPa) = -7.58314 9.25980 0.83833
#
# Velocity S-wave (km/s) = -1.92180 2.12366 0.63899
# Velocity P-wave (km/s) = 4.15672 5.60956 4.93687
#
# Compressibility (1/GPa) = 0.02193623
#
# Stress axis : x y z
#
# Youngs Moduli (GPa) = 49.68450 125.84410 72.69348
#
# Poissons Ratio (x) = 0.21248 0.40171
# Poissons Ratio (y) = 0.08389 0.19862
# Poissons Ratio (z) = 0.27456 0.34384
#
# Static dielectric constant tensor:
#      x y z
#    x 1.796610 0.000000 0.000000 
#    y 0.000000 1.776840 0.000000 
#    z 0.000000 0.000000 1.824990 
# 
# From -- ./inp_files/7057.got.cif
#   From: 2010.05.17/outbox.cif.g08.bks.cpg/sg73_4_cif.got.tgz:7057.got - 2010.06.03 17:35:07.
