data_PCOD9530873
_publ_section_title
;
Structure prediction by ZEFSAII (Michael W. Deem and Ramdas Pophale) SiO2 
 PCOD9530873
Probable space group: I B C A 
;
_chemical_formula_sum "Si O2"
_cell_formula_units_Z 96
_cell_length_a 25.859859
_cell_length_b 8.703844
_cell_length_c 20.915920
_cell_angle_alpha 90.000000
_cell_angle_beta 90.000000
_cell_angle_gamma 90.000000
_cell_volume 4707.759009
_symmetry_space_group_name_H-M "I B C A "
_symmetry_group_IT_number 73
_symmetry_cell_setting 'orthorhombic'
loop_
_space_group_symop_operation_xyz
x,y,z
-x,1/2-y,z
x,-y,1/2-z
1/2-x,y,-z
-x,-y,-z
x,1/2+y,-z
-x,y,1/2+z
1/2+x,-y,z
1/2+x,1/2+y,1/2+z
1/2-x,-y,1/2+z
1/2+x,1/2-y,-z
-x,1/2+y,1/2-z
1/2-x,1/2-y,1/2-z
1/2+x,y,1/2-z
1/2-x,1/2+y,z
x,1/2-y,1/2+z
loop_
_atom_site_type_symbol
_atom_site_label
_atom_site_fract_x
_atom_site_fract_y
_atom_site_fract_z
Si Si1 0.923150 0.000000 0.250000
Si Si2 0.338998 0.604133 0.412139
Si Si3 0.000000 0.750000 0.291396
Si Si4 0.344135 0.616934 0.652601
Si Si5 0.265135 0.383504 0.203086
Si Si6 0.905329 0.074123 0.680199
Si Si7 0.690601 0.779136 0.024689
O O1 0.887529 0.009662 0.186055
O O2 0.960886 0.146285 0.249426
O O3 0.298660 0.655503 0.357791
O O4 0.388419 0.546979 0.373170
O O5 0.343874 0.739147 0.463035
O O6 0.316577 0.450769 0.447571
O O7 0.038145 0.855629 0.332532
O O8 0.289828 0.554857 0.678944
O O9 0.364310 0.784372 0.677496
O O10 0.329296 0.659856 0.579363
O O11 0.293569 0.500000 0.250000
O O12 0.250000 0.250000 0.250000
O O13 0.907927 0.000000 0.750000
O O14 0.750000 0.757680 0.000000
#
# Coordination Sequence:
#
# PCOD9530873 Si02
#       7
#     8  16   8  16  16  16  16
#     4  10  20  40  62  92 120 156 204 276 332 386
#     4  11  24  39  61  86 132 172 216 259 306 384
#     4  10  20  38  68  90 122 156 204 272 356 394
#     4  10  21  36  59  89 127 159 212 258 308 381
#     4  12  23  37  57  89 127 169 202 260 315 372
#     4  10  20  40  62  93 119 159 207 271 332 387
#     4  11  22  40  57  85 127 184 219 245 299 380
#
# _framework density 20.391867999999999
#
# number of rings (size 3 to 8) (size 9 to 14) (size 15 to 20)
#    0.000    1.333    3.333    4.000    0.000    0.000 
#    6.000    0.000    0.000   10.000    0.000    0.000 
#    0.000    0.000    0.000    0.000    0.000    0.000 
#
# Total GULP energy -267651.149606 kJ/mol
# GULP energy per Si atom -5576.065617 kJ/mol
# Density = 2.034546 g / cm^3
# Si number density = 20.391868 Si / 1000 Ang^3
#
#
#
# Elastic Constant Matrix: (Units=GPa)
#
#
# Indices 1 2 3 4 5 6 
#
# 1 110.0787 17.3519 33.1360 0.0000 0.0000 0.0000
# 2 17.3519 47.1063 38.0641 0.0000 0.0000 0.0000
# 3 33.1360 38.0641 128.4165 0.0000 0.0000 0.0000
# 4 0.0000 0.0000 0.0000 34.8007 0.0000 0.0000
# 5 0.0000 0.0000 0.0000 0.0000 -1.1743 0.0000
# 6 0.0000 0.0000 0.0000 0.0000 0.0000 34.1137
#
#
#
# Elastic Compliance Matrix: (Units=1/GPa)
#
#
# Indices 1 2 3 4 5 6 
#
# 1 0.010005 -0.002103 -0.001958 0.000000 0.000000 0.000000
# 2 -0.002103 0.028357 -0.007863 0.000000 0.000000 0.000000
# 3 -0.001958 -0.007863 0.010623 0.000000 0.000000 0.000000
# 4 0.000000 0.000000 0.000000 0.028735 0.000000 0.000000
# 5 0.000000 0.000000 0.000000 0.000000 -0.851570 0.000000
# 6 0.000000 0.000000 0.000000 0.000000 0.000000 0.029314
#
#
# Mechanical properties :
#
#
# Convention : Reuss Voigt Hill
#
# Bulk Modulus (GPa) = 39.78195 51.41169 45.59682
# Shear Modulus (GPa) = -7.01942 26.68465 9.83261
#
# Velocity S-wave (km/s) = -1.85735 3.62137 2.19825
# Velocity P-wave (km/s) = 3.86671 6.53853 5.37140
#
# Compressibility (1/GPa) = 0.02513703
#
# Stress axis : x y z
#
# Youngs Moduli (GPa) = 99.94564 35.26521 94.13513
#
# Poissons Ratio (x) = 0.07417 0.18435
# Poissons Ratio (y) = 0.21020 0.74014
# Poissons Ratio (z) = 0.19573 0.27727
#
# Static dielectric constant tensor:
#      x y z
#    x 1.749140 0.000000 0.000000 
#    y 0.000000 1.973280 0.000000 
#    z 0.000000 0.000000 1.695470 
# 
# From -- ./inp_files/27551.got.cif
#   From: 2010.05.17/outbox.cif.g08.bks.cpg/sg73_14_cif.got.tgz:27551.got - 2010.06.03 17:35:07.
