data_PCOD9530956
_publ_section_title
;
Structure prediction by ZEFSAII (Michael W. Deem and Ramdas Pophale) SiO2 
 PCOD9530956
Probable space group: I B C A 
;
_chemical_formula_sum "Si O2"
_cell_formula_units_Z 96
_cell_length_a 11.691489
_cell_length_b 23.964448
_cell_length_c 15.306628
_cell_angle_alpha 90.000000
_cell_angle_beta 90.000000
_cell_angle_gamma 90.000000
_cell_volume 4288.612260
_symmetry_space_group_name_H-M "I B C A "
_symmetry_group_IT_number 73
_symmetry_cell_setting 'orthorhombic'
loop_
_space_group_symop_operation_xyz
x,y,z
-x,1/2-y,z
x,-y,1/2-z
1/2-x,y,-z
-x,-y,-z
x,1/2+y,-z
-x,y,1/2+z
1/2+x,-y,z
1/2+x,1/2+y,1/2+z
1/2-x,-y,1/2+z
1/2+x,1/2-y,-z
-x,1/2+y,1/2-z
1/2-x,1/2-y,1/2-z
1/2+x,y,1/2-z
1/2-x,1/2+y,z
x,1/2-y,1/2+z
loop_
_atom_site_type_symbol
_atom_site_label
_atom_site_fract_x
_atom_site_fract_y
_atom_site_fract_z
Si Si1 0.867142 0.922029 0.316415
Si Si2 0.901908 0.889609 0.882495
Si Si3 0.980915 0.624663 0.572159
Si Si4 0.813729 0.536576 0.623568
Si Si5 0.222781 0.328734 0.896392
Si Si6 0.227879 0.799425 0.605627
O O1 0.821395 0.942995 0.224006
O O2 0.815128 0.863272 0.342986
O O3 0.004637 0.916591 0.319111
O O4 0.823307 0.970270 0.382417
O O5 0.803331 0.934498 0.908890
O O6 0.829638 0.835689 0.851895
O O7 0.972562 0.869142 0.967470
O O8 0.929037 0.563591 0.585870
O O9 0.889620 0.666863 0.615453
O O10 0.102998 0.638976 0.609900
O O11 0.218542 0.264423 0.867466
O O12 0.250000 0.328252 0.000000
O O13 0.250000 0.800961 0.500000
#
# Coordination Sequence:
#
# PCOD9530956 Si02
#       6
#    16  16  16  16  16  16
#     4  11  25  39  59  91 118 166 205 253 312 370
#     4  10  21  42  62  88 123 157 208 252 316 363
#     4  10  20  40  63  89 118 161 200 252 304 369
#     4  10  25  41  61  81 125 169 201 254 311 370
#     4  11  21  36  61  97 120 149 205 252 300 369
#     4   8  18  36  63  87 121 157 190 246 310 362
#
# _framework density 22.384862999999999
#
# number of rings (size 3 to 8) (size 9 to 14) (size 15 to 20)
#    0.000    2.000    1.667    2.000    4.667    4.000 
#    0.000    3.333    7.333    0.000    0.000    0.000 
#    0.000    0.000    0.000    0.000    0.000    0.000 
#
# Total GULP energy -268116.549691 kJ/mol
# GULP energy per Si atom -5585.761452 kJ/mol
# Density = 2.233391 g / cm^3
# Si number density = 22.384863 Si / 1000 Ang^3
#
#
#
# Elastic Constant Matrix: (Units=GPa)
#
#
# Indices 1 2 3 4 5 6 
#
# 1 104.2370 6.7542 2.6816 0.0000 0.0000 0.0000
# 2 6.7542 83.3916 3.7764 -0.0001 0.0000 0.0000
# 3 2.6816 3.7764 26.0316 -0.0001 0.0000 0.0000
# 4 0.0000 -0.0001 -0.0001 21.7441 0.0000 0.0000
# 5 0.0000 0.0000 0.0000 0.0000 17.4780 0.0000
# 6 0.0000 0.0000 0.0000 0.0000 0.0000 13.3402
#
#
#
# Elastic Compliance Matrix: (Units=1/GPa)
#
#
# Indices 1 2 3 4 5 6 
#
# 1 0.009664 -0.000743 -0.000888 0.000000 0.000000 0.000000
# 2 -0.000743 0.012128 -0.001683 0.000000 0.000000 0.000000
# 3 -0.000888 -0.001683 0.038750 0.000000 0.000000 0.000000
# 4 0.000000 0.000000 0.000000 0.045990 0.000000 0.000000
# 5 0.000000 0.000000 0.000000 0.000000 0.057215 0.000000
# 6 0.000000 0.000000 0.000000 0.000000 0.000000 0.074961
#
#
# Mechanical properties :
#
#
# Convention : Reuss Voigt Hill
#
# Bulk Modulus (GPa) = 18.54729 26.67607 22.61168
# Shear Modulus (GPa) = 18.98920 23.87564 21.43242
#
# Velocity S-wave (km/s) = 2.91573 3.26942 3.09763
# Velocity P-wave (km/s) = 4.43158 5.11811 4.78717
#
# Compressibility (1/GPa) = 0.05391622
#
# Stress axis : x y z
#
# Youngs Moduli (GPa) = 103.47172 82.45400 25.80617
#
# Poissons Ratio (x) = 0.06123 0.02291
# Poissons Ratio (y) = 0.07683 0.04343
# Poissons Ratio (z) = 0.09187 0.13876
#
# Static dielectric constant tensor:
#      x y z
#    x 1.787340 0.000000 0.000000 
#    y 0.000000 1.797280 0.000000 
#    z 0.000000 0.000000 1.919760 
# 
# From -- ./inp_files/12016.got.cif
#   From: 2010.05.17/outbox.cif.g08.bks.cpg/sg73_7_cif.got.tgz:12016.got - 2010.06.03 17:35:07.
