data_PCOD9530259
_publ_section_title
;
Structure prediction by ZEFSAII (Michael W. Deem and Ramdas Pophale) SiO2 
 PCOD9530259
Probable space group: I B C A 
;
_chemical_formula_sum "Si O2"
_cell_formula_units_Z 88
_cell_length_a 20.958000
_cell_length_b 14.405292
_cell_length_c 13.145274
_cell_angle_alpha 90.000000
_cell_angle_beta 90.000000
_cell_angle_gamma 90.000000
_cell_volume 3968.638535
_symmetry_space_group_name_H-M "I B C A "
_symmetry_group_IT_number 73
_symmetry_cell_setting 'orthorhombic'
loop_
_space_group_symop_operation_xyz
x,y,z
-x,1/2-y,z
x,-y,1/2-z
1/2-x,y,-z
-x,-y,-z
x,1/2+y,-z
-x,y,1/2+z
1/2+x,-y,z
1/2+x,1/2+y,1/2+z
1/2-x,-y,1/2+z
1/2+x,1/2-y,-z
-x,1/2+y,1/2-z
1/2-x,1/2-y,1/2-z
1/2+x,y,1/2-z
1/2-x,1/2+y,z
x,1/2-y,1/2+z
loop_
_atom_site_type_symbol
_atom_site_label
_atom_site_fract_x
_atom_site_fract_y
_atom_site_fract_z
Si Si1 0.131157 0.760974 0.913560
Si Si2 0.320679 0.000000 0.750000
Si Si3 0.752345 0.850568 0.119237
Si Si4 0.106939 0.695737 0.199646
Si Si5 0.598181 0.884712 0.405577
Si Si6 0.530364 0.145836 0.520961
O O1 0.201047 0.731877 0.878617
O O2 0.099917 0.814311 0.819308
O O3 0.137457 0.829730 0.008367
O O4 0.089571 0.668062 0.943768
O O5 0.275636 0.924801 0.697188
O O6 0.364620 0.959801 0.840697
O O7 0.821693 0.820170 0.157604
O O8 0.750000 0.881824 0.000000
O O9 0.085405 0.801474 0.175041
O O10 0.063773 0.631570 0.129431
O O11 0.534283 0.914361 0.467040
O O12 0.500000 0.250000 0.514178
#
# Coordination Sequence:
#
# PCOD9530259 Si02
#       6
#    16   8  16  16  16  16
#     4  10  19  36  68  95 119 164 224 263 308 392
#     4  12  28  42  58  96 140 174 210 274 352 396
#     4  12  23  42  64  90 131 169 215 276 324 398
#     4  10  19  37  69  94 122 169 222 266 313 390
#     4  10  22  40  62  94 129 170 213 266 332 383
#     4   8  18  34  60  94 120 156 213 264 313 367
#
# _framework density 22.173852
#
# number of rings (size 3 to 8) (size 9 to 14) (size 15 to 20)
#    0.000    2.182    5.455    0.545    0.000    8.000 
#    0.000    1.818    0.000    0.000    0.000    0.000 
#    0.000    0.000    0.000    0.000    0.000    0.000 
#
# Total GULP energy -244959.463076 kJ/mol
# GULP energy per Si atom -5567.260524 kJ/mol
# Density = 2.212338 g / cm^3
# Si number density = 22.173852 Si / 1000 Ang^3
#
#
#
# Elastic Constant Matrix: (Units=GPa)
#
#
# Indices 1 2 3 4 5 6 
#
# 1 95.9629 21.0229 2.4542 0.0000 0.0000 0.0000
# 2 21.0229 33.9799 18.1350 0.0000 0.0000 0.0000
# 3 2.4542 18.1350 127.1982 0.0000 0.0000 0.0000
# 4 0.0000 0.0000 0.0000 -49.9093 0.0000 0.0000
# 5 0.0000 0.0000 0.0000 0.0000 14.4940 0.0000
# 6 0.0000 0.0000 0.0000 0.0000 0.0000 17.4789
#
#
#
# Elastic Compliance Matrix: (Units=1/GPa)
#
#
# Indices 1 2 3 4 5 6 
#
# 1 0.012150 -0.008001 0.000906 0.000000 0.000000 0.000000
# 2 -0.008001 0.037121 -0.005138 0.000000 0.000000 0.000000
# 3 0.000906 -0.005138 0.008577 0.000000 0.000000 0.000000
# 4 0.000000 0.000000 0.000000 -0.020036 0.000000 0.000000
# 5 0.000000 0.000000 0.000000 0.000000 0.068994 0.000000
# 6 0.000000 0.000000 0.000000 0.000000 0.000000 0.057212
#
#
# Mechanical properties :
#
#
# Convention : Reuss Voigt Hill
#
# Bulk Modulus (GPa) = 29.95535 37.81836 33.88686
# Shear Modulus (GPa) = 25.04867 10.78131 17.91499
#
# Velocity S-wave (km/s) = 3.36467 2.20743 2.84550
# Velocity P-wave (km/s) = 5.35101 4.85689 5.10993
#
# Compressibility (1/GPa) = 0.03338302
#
# Stress axis : x y z
#
# Youngs Moduli (GPa) = 82.30247 26.93862 116.59330
#
# Poissons Ratio (x) = 0.21553 -0.10567
# Poissons Ratio (y) = 0.65849 0.59907
# Poissons Ratio (z) = -0.07459 0.13841
#
# Static dielectric constant tensor:
#      x y z
#    x 1.909540 0.000000 0.000000 
#    y 0.000000 1.859060 0.000000 
#    z 0.000000 0.000000 1.850290 
# 
# From -- ./inp_files/18565.got.cif
#   From: 2010.05.17/outbox.cif.g08.bks.cpg/sg73_10_cif.got.tgz:18565.got - 2010.06.03 17:35:07.
