data_PCOD9530650
_publ_section_title
;
Structure prediction by ZEFSAII (Michael W. Deem and Ramdas Pophale) SiO2 
 PCOD9530650
Probable space group: I B C A 
;
_chemical_formula_sum "Si O2"
_cell_formula_units_Z 88
_cell_length_a 18.254194
_cell_length_b 11.230647
_cell_length_c 19.346164
_cell_angle_alpha 90.000000
_cell_angle_beta 90.000000
_cell_angle_gamma 90.000000
_cell_volume 3966.087611
_symmetry_space_group_name_H-M "I B C A "
_symmetry_group_IT_number 73
_symmetry_cell_setting 'orthorhombic'
loop_
_space_group_symop_operation_xyz
x,y,z
-x,1/2-y,z
x,-y,1/2-z
1/2-x,y,-z
-x,-y,-z
x,1/2+y,-z
-x,y,1/2+z
1/2+x,-y,z
1/2+x,1/2+y,1/2+z
1/2-x,-y,1/2+z
1/2+x,1/2-y,-z
-x,1/2+y,1/2-z
1/2-x,1/2-y,1/2-z
1/2+x,y,1/2-z
1/2-x,1/2+y,z
x,1/2-y,1/2+z
loop_
_atom_site_type_symbol
_atom_site_label
_atom_site_fract_x
_atom_site_fract_y
_atom_site_fract_z
Si Si1 0.852317 0.330497 0.600171
Si Si2 0.080150 0.304889 0.831663
Si Si3 0.313505 0.834255 0.715317
Si Si4 0.815093 0.087273 0.374529
Si Si5 0.250000 0.302063 0.500000
Si Si6 0.539516 0.621897 0.975635
O O1 0.863732 0.236889 0.660572
O O2 0.846779 0.457598 0.635153
O O3 0.780287 0.282351 0.560450
O O4 0.907055 0.345574 0.537667
O O5 0.129360 0.370384 0.774120
O O6 0.129816 0.189660 0.850508
O O7 0.072923 0.389942 0.898840
O O8 0.000000 0.250000 0.811906
O O9 0.250000 0.750000 0.750000
O O10 0.261464 0.915485 0.667586
O O11 0.803524 0.112497 0.456567
O O12 0.500000 0.750000 0.966377
O O13 0.500000 0.500000 0.000000
#
# Coordination Sequence:
#
# PCOD9530650 Si02
#       6
#    16  16  16  16   8  16
#     4  11  21  38  67  94 132 174 227 286 349 417
#     4  10  20  40  65  92 134 180 224 289 351 415
#     4   9  22  40  61  92 132 175 228 275 342 418
#     4  10  20  39  64  95 130 173 229 290 348 413
#     4  10  20  36  60  96 126 164 222 286 358 402
#     4  11  24  43  69 104 140 182 232 293 350 425
#
# _framework density 22.188113999999999
#
# number of rings (size 3 to 8) (size 9 to 14) (size 15 to 20)
#    0.000    1.818    1.818    2.727    0.000    3.636 
#    0.000    1.818    0.000   13.091    0.000    0.000 
#    0.000    0.000    0.000    0.000    0.000    0.000 
#
# Total GULP energy -245223.399442 kJ/mol
# GULP energy per Si atom -5573.259078 kJ/mol
# Density = 2.213761 g / cm^3
# Si number density = 22.188114 Si / 1000 Ang^3
#
#
#
# Elastic Constant Matrix: (Units=GPa)
#
#
# Indices 1 2 3 4 5 6 
#
# 1 81.2236 12.8378 41.4966 0.0000 0.0000 0.0000
# 2 12.8378 58.1947 35.9284 0.0000 0.0000 0.0000
# 3 41.4966 35.9284 101.7346 0.0000 0.0000 0.0000
# 4 0.0000 0.0000 0.0000 -6.7296 0.0000 0.0000
# 5 0.0000 0.0000 0.0000 0.0000 45.5914 0.0000
# 6 0.0000 0.0000 0.0000 0.0000 0.0000 16.4714
#
#
#
# Elastic Compliance Matrix: (Units=1/GPa)
#
#
# Indices 1 2 3 4 5 6 
#
# 1 0.015570 0.000622 -0.006571 0.000000 0.000000 0.000000
# 2 0.000622 0.022000 -0.008023 0.000000 0.000000 0.000000
# 3 -0.006571 -0.008023 0.015343 0.000000 0.000000 0.000000
# 4 0.000000 0.000000 0.000000 -0.148596 0.000000 0.000000
# 5 0.000000 0.000000 0.000000 0.000000 0.021934 0.000000
# 6 0.000000 0.000000 0.000000 0.000000 0.000000 0.060711
#
#
# Mechanical properties :
#
#
# Convention : Reuss Voigt Hill
#
# Bulk Modulus (GPa) = 40.04907 46.85318 43.45113
# Shear Modulus (GPa) = 215.24985 21.12596 118.18790
#
# Velocity S-wave (km/s) = 9.86012 3.08901 7.30630
# Velocity P-wave (km/s) = 12.15394 5.82107 9.52898
#
# Compressibility (1/GPa) = 0.02496937
#
# Stress axis : x y z
#
# Youngs Moduli (GPa) = 64.22498 45.45500 65.17653
#
# Poissons Ratio (x) = -0.02826 0.42824
# Poissons Ratio (y) = -0.03993 0.52291
# Poissons Ratio (z) = 0.42199 0.36469
#
# Static dielectric constant tensor:
#      x y z
#    x 2.785330 0.000000 0.000000 
#    y 0.000000 1.918290 0.000000 
#    z 0.000000 0.000000 1.915510 
# 
# From -- ./inp_files/26432.got.cif
#   From: 2010.05.17/outbox.cif.g08.bks.cpg/sg73_14_cif.got.tgz:26432.got - 2010.06.03 17:35:07.
