data_PCOD9530068
_publ_section_title
;
Structure prediction by ZEFSAII (Michael W. Deem and Ramdas Pophale) SiO2 
 PCOD9530068
Probable space group: I B C A 
;
_chemical_formula_sum "Si O2"
_cell_formula_units_Z 72
_cell_length_a 5.183550
_cell_length_b 31.668807
_cell_length_c 23.814728
_cell_angle_alpha 90.000000
_cell_angle_beta 90.000000
_cell_angle_gamma 90.000000
_cell_volume 3909.350602
_symmetry_space_group_name_H-M "I B C A "
_symmetry_group_IT_number 73
_symmetry_cell_setting 'orthorhombic'
loop_
_space_group_symop_operation_xyz
x,y,z
-x,1/2-y,z
x,-y,1/2-z
1/2-x,y,-z
-x,-y,-z
x,1/2+y,-z
-x,y,1/2+z
1/2+x,-y,z
1/2+x,1/2+y,1/2+z
1/2-x,-y,1/2+z
1/2+x,1/2-y,-z
-x,1/2+y,1/2-z
1/2-x,1/2-y,1/2-z
1/2+x,y,1/2-z
1/2-x,1/2+y,z
x,1/2-y,1/2+z
loop_
_atom_site_type_symbol
_atom_site_label
_atom_site_fract_x
_atom_site_fract_y
_atom_site_fract_z
Si Si1 0.750000 0.221560 0.000000
Si Si2 0.284617 0.842213 0.102830
Si Si3 0.039915 0.517773 0.063682
Si Si4 0.774540 0.114061 0.435161
Si Si5 0.486886 0.800812 0.216813
O O1 0.500000 0.250000 0.011835
O O2 0.808612 0.192294 0.053471
O O3 0.491846 0.879020 0.090048
O O4 0.374551 0.821258 0.160607
O O5 0.993697 0.859619 0.097488
O O6 0.262597 0.489428 0.090692
O O7 0.132278 0.565712 0.063253
O O8 0.000000 0.500000 0.000000
O O9 0.750000 0.128587 0.500000
O O10 0.500000 0.750000 0.210248
O O11 0.776953 0.812418 0.235180
#
# Coordination Sequence:
#
# PCOD9530068 Si02
#       5
#     8  16  16  16  16
#     4  12  24  36  52  76 114 156 184 216 274 356
#     4  12  24  38  56  84 119 151 190 238 293 357
#     4  10  19  30  51  74 110 163 189 224 254 330
#     4  12  21  35  53  82 123 161 182 221 291 341
#     4  10  22  42  65  83 105 146 202 259 299 331
#
# _framework density 18.417380000000001
#
# number of rings (size 3 to 8) (size 9 to 14) (size 15 to 20)
#    0.000    0.889    4.444    4.667    3.111    2.667 
#    0.000    0.000    0.000    0.000    0.000    0.000 
#    0.000   62.222    0.000    0.000    0.000    0.000 
#
# Total GULP energy -200896.092776 kJ/mol
# GULP energy per Si atom -5580.447022 kJ/mol
# Density = 1.837546 g / cm^3
# Si number density = 18.417380 Si / 1000 Ang^3
#
#
#
# Elastic Constant Matrix: (Units=GPa)
#
#
# Indices 1 2 3 4 5 6 
#
# 1 127.4150 25.5608 7.3993 0.0000 0.0000 0.0000
# 2 25.5608 75.2071 24.3114 0.0000 0.0000 0.0000
# 3 7.3993 24.3114 70.5464 0.0000 0.0000 0.0000
# 4 0.0000 0.0000 0.0000 10.6589 0.0000 0.0000
# 5 0.0000 0.0000 0.0000 0.0000 25.2264 0.0000
# 6 0.0000 0.0000 0.0000 0.0000 0.0000 36.7962
#
#
#
# Elastic Compliance Matrix: (Units=1/GPa)
#
#
# Indices 1 2 3 4 5 6 
#
# 1 0.008423 -0.002900 0.000116 0.000000 0.000000 0.000000
# 2 -0.002900 0.015962 -0.005197 0.000000 0.000000 0.000000
# 3 0.000116 -0.005197 0.015954 0.000000 0.000000 0.000000
# 4 0.000000 0.000000 0.000000 0.093818 0.000000 0.000000
# 5 0.000000 0.000000 0.000000 0.000000 0.039641 0.000000
# 6 0.000000 0.000000 0.000000 0.000000 0.000000 0.027177
#
#
# Mechanical properties :
#
#
# Convention : Reuss Voigt Hill
#
# Bulk Modulus (GPa) = 41.02158 43.07909 42.05033
# Shear Modulus (GPa) = 22.21599 28.92944 25.57271
#
# Velocity S-wave (km/s) = 3.47688 3.96759 3.73031
# Velocity P-wave (km/s) = 6.19999 6.66560 6.43701
#
# Compressibility (1/GPa) = 0.02437742
#
# Stress axis : x y z
#
# Youngs Moduli (GPa) = 118.71571 62.64780 62.68125
#
# Poissons Ratio (x) = 0.18170 -0.00727
# Poissons Ratio (y) = 0.34433 0.32573
# Poissons Ratio (z) = -0.01377 0.32556
#
# Static dielectric constant tensor:
#      x y z
#    x 1.631680 0.000000 0.000000 
#    y 0.000000 1.641290 0.000000 
#    z 0.000000 0.000000 1.445840 
# 
# From -- ./inp_files/1687.got.cif
#   From: 2010.05.17/outbox.cif.g08.bks.cpg/sg73_1_cif.got.tgz:1687.got - 2010.06.03 17:35:07.
