data_PCOD9530211
_publ_section_title
;
Structure prediction by ZEFSAII (Michael W. Deem and Ramdas Pophale) SiO2 
 PCOD9530211
Probable space group: I B C A 
;
_chemical_formula_sum "Si O2"
_cell_formula_units_Z 64
_cell_length_a 5.361763
_cell_length_b 29.667163
_cell_length_c 17.546859
_cell_angle_alpha 90.000000
_cell_angle_beta 90.000000
_cell_angle_gamma 90.000000
_cell_volume 2791.148977
_symmetry_space_group_name_H-M "I B C A "
_symmetry_group_IT_number 73
_symmetry_cell_setting 'orthorhombic'
loop_
_space_group_symop_operation_xyz
x,y,z
-x,1/2-y,z
x,-y,1/2-z
1/2-x,y,-z
-x,-y,-z
x,1/2+y,-z
-x,y,1/2+z
1/2+x,-y,z
1/2+x,1/2+y,1/2+z
1/2-x,-y,1/2+z
1/2+x,1/2-y,-z
-x,1/2+y,1/2-z
1/2-x,1/2-y,1/2-z
1/2+x,y,1/2-z
1/2-x,1/2+y,z
x,1/2-y,1/2+z
loop_
_atom_site_type_symbol
_atom_site_label
_atom_site_fract_x
_atom_site_fract_y
_atom_site_fract_z
Si Si1 0.438508 0.388965 0.057234
Si Si2 0.250000 0.309879 0.500000
Si Si3 0.064663 0.982283 0.585491
Si Si4 0.000000 0.250000 0.875354
Si Si5 0.723580 0.664747 0.796359
O O1 0.529712 0.346276 0.007083
O O2 0.624930 0.428914 0.080946
O O3 0.326740 0.368613 0.133754
O O4 0.250000 0.412676 0.000000
O O5 0.192997 0.277788 0.428754
O O6 0.795048 0.991579 0.622974
O O7 0.000000 0.000000 0.500000
O O8 0.837376 0.214941 0.827324
O O9 0.502397 0.658506 0.734507
#
# Coordination Sequence:
#
# PCOD9530211 Si02
#       5
#    16   8  16   8  16
#     4  11  24  40  71  99 135 171 225 287 337 395
#     4  10  24  38  60 106 124 168 222 300 332 380
#     4  10  19  35  62 102 131 162 208 272 331 400
#     4  10  24  40  70  88 138 170 238 274 348 384
#     4  11  27  46  65  93 134 185 223 270 337 410
#
# _framework density 22.929625999999999
#
# number of rings (size 3 to 8) (size 9 to 14) (size 15 to 20)
#    0.000    1.500    2.500    2.250   14.000    0.000 
#    0.000    0.000    0.000    4.500    0.000    0.000 
#    0.000    0.000    0.000    0.000    0.000    0.000 
#
# Total GULP energy -178490.671599 kJ/mol
# GULP energy per Si atom -5577.833487 kJ/mol
# Density = 2.287744 g / cm^3
# Si number density = 22.929626 Si / 1000 Ang^3
#
#
#
# Elastic Constant Matrix: (Units=GPa)
#
#
# Indices 1 2 3 4 5 6 
#
# 1 85.7936 9.1373 3.5286 0.0000 0.0000 0.0000
# 2 9.1373 122.3595 26.6062 0.0000 0.0000 0.0000
# 3 3.5286 26.6062 45.8254 0.0000 0.0000 0.0000
# 4 0.0000 0.0000 0.0000 52.6200 0.0000 0.0000
# 5 0.0000 0.0000 0.0000 0.0000 29.4576 0.0000
# 6 0.0000 0.0000 0.0000 0.0000 0.0000 -13.8338
#
#
#
# Elastic Compliance Matrix: (Units=1/GPa)
#
#
# Indices 1 2 3 4 5 6 
#
# 1 0.011758 -0.000780 -0.000453 0.000000 0.000000 0.000000
# 2 -0.000780 0.009405 -0.005401 0.000000 0.000000 0.000000
# 3 -0.000453 -0.005401 0.024992 0.000000 0.000000 0.000000
# 4 0.000000 0.000000 0.000000 0.019004 0.000000 0.000000
# 5 0.000000 0.000000 0.000000 0.000000 0.033947 0.000000
# 6 0.000000 0.000000 0.000000 0.000000 0.000000 -0.072287
#
#
# Mechanical properties :
#
#
# Convention : Reuss Voigt Hill
#
# Bulk Modulus (GPa) = 30.40504 36.94697 33.67600
# Shear Modulus (GPa) = 97.94639 27.96253 62.95446
#
# Velocity S-wave (km/s) = 6.54285 3.49591 5.24549
# Velocity P-wave (km/s) = 8.38853 5.69591 7.16975
#
# Compressibility (1/GPa) = 0.03288929
#
# Stress axis : x y z
#
# Youngs Moduli (GPa) = 85.05194 106.32444 40.01218
#
# Poissons Ratio (x) = 0.08289 0.01811
# Poissons Ratio (y) = 0.06630 0.21609
# Poissons Ratio (z) = 0.03851 0.57422
#
# Static dielectric constant tensor:
#      x y z
#    x 2.104040 0.000000 0.000000 
#    y 0.000000 1.861050 0.000000 
#    z 0.000000 0.000000 1.813170 
# 
# From -- ./inp_files/2930.got.cif
#   From: 2010.05.17/outbox.cif.g08.bks.cpg/sg73_2_cif.got.tgz:2930.got - 2010.06.03 17:35:07.
