data_PCOD9530710
_publ_section_title
;
Structure prediction by ZEFSAII (Michael W. Deem and Ramdas Pophale) SiO2 
 PCOD9530710
Probable space group: I B C A 
;
_chemical_formula_sum "Si O2"
_cell_formula_units_Z 120
_cell_length_a 24.274513
_cell_length_b 9.380143
_cell_length_c 26.175168
_cell_angle_alpha 90.000000
_cell_angle_beta 90.000000
_cell_angle_gamma 90.000000
_cell_volume 5960.043957
_symmetry_space_group_name_H-M "I B C A "
_symmetry_group_IT_number 73
_symmetry_cell_setting 'orthorhombic'
loop_
_space_group_symop_operation_xyz
x,y,z
-x,1/2-y,z
x,-y,1/2-z
1/2-x,y,-z
-x,-y,-z
x,1/2+y,-z
-x,y,1/2+z
1/2+x,-y,z
1/2+x,1/2+y,1/2+z
1/2-x,-y,1/2+z
1/2+x,1/2-y,-z
-x,1/2+y,1/2-z
1/2-x,1/2-y,1/2-z
1/2+x,y,1/2-z
1/2-x,1/2+y,z
x,1/2-y,1/2+z
loop_
_atom_site_type_symbol
_atom_site_label
_atom_site_fract_x
_atom_site_fract_y
_atom_site_fract_z
Si Si1 0.000000 0.250000 0.530469
Si Si2 0.579315 0.857162 0.114331
Si Si3 0.810480 0.254614 0.495530
Si Si4 0.419239 0.303029 0.645493
Si Si5 0.306774 0.251748 0.388982
Si Si6 0.078603 0.636866 0.546562
Si Si7 0.519177 0.967763 0.309362
Si Si8 0.697008 0.409991 0.111115
O O1 0.050062 0.269467 0.569807
O O2 0.027329 0.136088 0.491674
O O3 0.635526 0.793240 0.135764
O O4 0.586579 0.005746 0.084175
O O5 0.539903 0.894299 0.160826
O O6 0.750000 0.327901 0.500000
O O7 0.816441 0.195432 0.552415
O O8 0.864178 0.346662 0.483657
O O9 0.808436 0.145088 0.447941
O O10 0.430846 0.267673 0.585834
O O11 0.437727 0.162206 0.677726
O O12 0.461079 0.420802 0.666291
O O13 0.355770 0.352915 0.643006
O O14 0.252998 0.334293 0.369826
O O15 0.299276 0.081117 0.388153
O O16 0.515050 0.000000 0.250000
#
# Coordination Sequence:
#
# PCOD9530710 Si02
#       8
#     8  16  16  16  16  16  16  16
#     4  12  22  34  52  92 130 168 206 264 318 382
#     4  11  25  36  59  90 126 161 221 259 323 388
#     4   9  20  33  56  81 124 170 226 256 304 359
#     4   9  21  43  64  96 125 171 210 254 337 394
#     4  11  24  38  59  92 126 179 221 269 318 375
#     4  10  20  37  58  83 131 178 201 256 316 400
#     4  10  22  43  71  93 123 160 211 272 334 400
#     4  10  24  39  62  88 135 173 223 275 316 387
#
# _framework density 20.134079
#
# number of rings (size 3 to 8) (size 9 to 14) (size 15 to 20)
#    0.000    1.867    1.333    2.000   11.200    3.733 
#    0.000    0.000    0.000    1.600    0.000    0.000 
#    0.000    0.000    0.000    0.000    0.000    0.000 
#
# Total GULP energy -334345.567668 kJ/mol
# GULP energy per Si atom -5572.426128 kJ/mol
# Density = 2.008825 g / cm^3
# Si number density = 20.134079 Si / 1000 Ang^3
#
#
#
# Elastic Constant Matrix: (Units=GPa)
#
#
# Indices 1 2 3 4 5 6 
#
# 1 140.1289 65.5331 59.9665 0.0000 0.0000 0.0000
# 2 65.5331 68.6767 19.3384 0.0000 0.0000 0.0000
# 3 59.9665 19.3384 71.7196 0.0000 0.0000 0.0000
# 4 0.0000 0.0000 0.0000 13.0987 0.0000 0.0000
# 5 0.0000 0.0000 0.0000 0.0000 13.1861 0.0000
# 6 0.0000 0.0000 0.0000 0.0000 0.0000 29.1613
#
#
#
# Elastic Compliance Matrix: (Units=1/GPa)
#
#
# Indices 1 2 3 4 5 6 
#
# 1 0.019383 -0.015077 -0.012141 0.000000 0.000000 0.000000
# 2 -0.015077 0.027485 0.005195 0.000000 0.000000 0.000000
# 3 -0.012141 0.005195 0.022694 0.000000 0.000000 0.000000
# 4 0.000000 0.000000 0.000000 0.076343 0.000000 0.000000
# 5 0.000000 0.000000 0.000000 0.000000 0.075837 0.000000
# 6 0.000000 0.000000 0.000000 0.000000 0.000000 0.034292
#
#
# Mechanical properties :
#
#
# Convention : Reuss Voigt Hill
#
# Bulk Modulus (GPa) = 39.19134 63.35567 51.27351
# Shear Modulus (GPa) = 16.20297 20.13502 18.16900
#
# Velocity S-wave (km/s) = 2.83990 3.16578 3.00726
# Velocity P-wave (km/s) = 5.50098 6.70060 6.13021
#
# Compressibility (1/GPa) = 0.02551584
#
# Stress axis : x y z
#
# Youngs Moduli (GPa) = 51.59206 36.38372 44.06471
#
# Poissons Ratio (x) = 0.54855 0.53500
# Poissons Ratio (y) = 0.77784 -0.22892
# Poissons Ratio (z) = 0.62639 -0.18902
#
# Static dielectric constant tensor:
#      x y z
#    x 1.774760 0.000000 0.000000 
#    y 0.000000 1.796930 0.000000 
#    z 0.000000 0.000000 1.695870 
# 
# From -- ./inp_files/32910.got.cif
#   From: 2010.05.17/outbox.cif.g08.bks.cpg/sg73_17_cif.got.tgz:32910.got - 2010.06.03 17:35:07.
