data_PCOD9530347
_publ_section_title
;
Structure prediction by ZEFSAII (Michael W. Deem and Ramdas Pophale) SiO2 
 PCOD9530347
Probable space group: I B C A 
;
_chemical_formula_sum "Si O2"
_cell_formula_units_Z 56
_cell_length_a 13.351443
_cell_length_b 14.304729
_cell_length_c 10.599895
_cell_angle_alpha 90.000000
_cell_angle_beta 90.000000
_cell_angle_gamma 90.000000
_cell_volume 2024.460949
_symmetry_space_group_name_H-M "I B C A "
_symmetry_group_IT_number 73
_symmetry_cell_setting 'orthorhombic'
loop_
_space_group_symop_operation_xyz
x,y,z
-x,1/2-y,z
x,-y,1/2-z
1/2-x,y,-z
-x,-y,-z
x,1/2+y,-z
-x,y,1/2+z
1/2+x,-y,z
1/2+x,1/2+y,1/2+z
1/2-x,-y,1/2+z
1/2+x,1/2-y,-z
-x,1/2+y,1/2-z
1/2-x,1/2-y,1/2-z
1/2+x,y,1/2-z
1/2-x,1/2+y,z
x,1/2-y,1/2+z
loop_
_atom_site_type_symbol
_atom_site_label
_atom_site_fract_x
_atom_site_fract_y
_atom_site_fract_z
Si Si1 0.673518 0.503710 0.392766
Si Si2 0.101282 0.186815 0.288033
Si Si3 0.505141 0.000000 0.250000
Si Si4 0.887224 0.705776 0.491997
O O1 0.719958 0.500000 0.250000
O O2 0.750000 0.472741 0.500000
O O3 0.568239 0.453576 0.355534
O O4 0.632796 0.605056 0.441272
O O5 0.160414 0.223434 0.407804
O O6 0.000000 0.250000 0.282217
O O7 0.148700 0.194291 0.150681
O O8 0.068867 0.081088 0.308758
O O9 0.000000 0.750000 0.479831
#
# Coordination Sequence:
#
# PCOD9530347 Si02
#       4
#    16  16   8  16
#     4  10  21  42  62  94 140 183 225 274 346 425
#     4  10  19  39  64  97 132 167 230 296 340 392
#     4  10  20  40  68  96 130 184 232 282 342 412
#     4  10  19  40  64  93 135 173 226 292 331 405
#
# _framework density 27.661684000000001
#
# number of rings (size 3 to 8) (size 9 to 14) (size 15 to 20)
#    0.857    1.143    5.714    0.000    0.000    1.143 
#    7.714    4.286    0.000    0.000    0.000    0.000 
#    0.000    0.000    0.000    0.000    0.000    0.000 
#
# Total GULP energy -156275.015337 kJ/mol
# GULP energy per Si atom -5581.250548 kJ/mol
# Density = 2.759873 g / cm^3
# Si number density = 27.661684 Si / 1000 Ang^3
#
#
#
# Elastic Constant Matrix: (Units=GPa)
#
#
# Indices 1 2 3 4 5 6 
#
# 1 121.0275 24.0597 31.4300 0.0000 0.0000 0.0000
# 2 24.0597 87.2130 15.9855 0.0000 0.0000 0.0000
# 3 31.4300 15.9855 281.9988 0.0000 0.0000 0.0000
# 4 0.0000 0.0000 0.0000 37.2341 0.0000 0.0000
# 5 0.0000 0.0000 0.0000 0.0000 25.5024 0.0000
# 6 0.0000 0.0000 0.0000 0.0000 0.0000 20.9226
#
#
#
# Elastic Compliance Matrix: (Units=1/GPa)
#
#
# Indices 1 2 3 4 5 6 
#
# 1 0.008947 -0.002309 -0.000866 0.000000 0.000000 0.000000
# 2 -0.002309 0.012183 -0.000433 0.000000 0.000000 0.000000
# 3 -0.000866 -0.000433 0.003667 0.000000 0.000000 0.000000
# 4 0.000000 0.000000 0.000000 0.026857 0.000000 0.000000
# 5 0.000000 0.000000 0.000000 0.000000 0.039212 0.000000
# 6 0.000000 0.000000 0.000000 0.000000 0.000000 0.047795
#
#
# Mechanical properties :
#
#
# Convention : Reuss Voigt Hill
#
# Bulk Modulus (GPa) = 56.88629 70.35442 63.62036
# Shear Modulus (GPa) = 32.95154 44.64943 38.80048
#
# Velocity S-wave (km/s) = 3.45517 4.02198 3.74930
# Velocity P-wave (km/s) = 6.04378 6.85985 6.46470
#
# Compressibility (1/GPa) = 0.01757893
#
# Stress axis : x y z
#
# Youngs Moduli (GPa) = 111.77394 82.08384 272.68637
#
# Poissons Ratio (x) = 0.18956 0.23621
# Poissons Ratio (y) = 0.25813 0.11813
# Poissons Ratio (z) = 0.09682 0.03556
#
# Static dielectric constant tensor:
#      x y z
#    x 2.244640 0.000000 0.000000 
#    y 0.000000 2.101640 0.000000 
#    z 0.000000 0.000000 2.236110 
# 
# From -- ./inp_files/11462.got.cif
#   From: 2010.05.17/outbox.cif.g08.bks.cpg/sg73_6_cif.got.tgz:11462.got - 2010.06.03 17:35:07.
