data_PCOD9530713
_publ_section_title
;
Structure prediction by ZEFSAII (Michael W. Deem and Ramdas Pophale) SiO2 
 PCOD9530713
Probable space group: I B C A 
;
_chemical_formula_sum "Si O2"
_cell_formula_units_Z 104
_cell_length_a 21.941713
_cell_length_b 9.543615
_cell_length_c 24.767351
_cell_angle_alpha 90.000000
_cell_angle_beta 90.000000
_cell_angle_gamma 90.000000
_cell_volume 5186.364073
_symmetry_space_group_name_H-M "I B C A "
_symmetry_group_IT_number 73
_symmetry_cell_setting 'orthorhombic'
loop_
_space_group_symop_operation_xyz
x,y,z
-x,1/2-y,z
x,-y,1/2-z
1/2-x,y,-z
-x,-y,-z
x,1/2+y,-z
-x,y,1/2+z
1/2+x,-y,z
1/2+x,1/2+y,1/2+z
1/2-x,-y,1/2+z
1/2+x,1/2-y,-z
-x,1/2+y,1/2-z
1/2-x,1/2-y,1/2-z
1/2+x,y,1/2-z
1/2-x,1/2+y,z
x,1/2-y,1/2+z
loop_
_atom_site_type_symbol
_atom_site_label
_atom_site_fract_x
_atom_site_fract_y
_atom_site_fract_z
Si Si1 0.524142 0.533132 0.309319
Si Si2 0.837928 0.099889 0.958984
Si Si3 0.126103 0.655838 0.899533
Si Si4 0.000000 0.750000 0.872770
Si Si5 0.884613 0.572691 0.194663
Si Si6 0.368783 0.322274 0.625524
Si Si7 0.199829 0.592308 0.418494
O O1 0.551158 0.500000 0.250000
O O2 0.509424 0.383928 0.335493
O O3 0.457677 0.604866 0.301131
O O4 0.569612 0.608681 0.350819
O O5 0.874824 0.219990 0.926836
O O6 0.771331 0.097355 0.930561
O O7 0.861910 0.943338 0.950149
O O8 0.830368 0.117765 0.022537
O O9 0.061297 0.729587 0.905918
O O10 0.122880 0.544959 0.850946
O O11 0.176439 0.772129 0.886748
O O12 0.865084 0.500000 0.250000
O O13 0.851407 0.712549 0.173438
O O14 0.323439 0.448138 0.608409
#
# Coordination Sequence:
#
# PCOD9530713 Si02
#       7
#    16  16  16   8  16  16  16
#     4  10  21  34  62  89 120 159 205 240 288 364
#     4  10  23  40  63  86 116 156 209 266 300 351
#     4  10  20  37  59  86 124 153 197 247 310 354
#     4  10  20  38  56  92 126 162 188 248 310 360
#     4   9  21  37  60  88 126 160 193 243 296 359
#     4  11  21  35  62  93 115 151 207 251 300 357
#     4  11  21  40  65  88 111 157 215 255 301 359
#
# _framework density 20.052582999999998
#
# number of rings (size 3 to 8) (size 9 to 14) (size 15 to 20)
#    0.000    1.846    1.538    2.308    6.462    2.462 
#    0.000    0.769   10.154   24.000    0.000    0.000 
#    0.000    0.000    0.000    0.000    0.000    0.000 
#
# Total GULP energy -289929.844572 kJ/mol
# GULP energy per Si atom -5575.573934 kJ/mol
# Density = 2.000694 g / cm^3
# Si number density = 20.052583 Si / 1000 Ang^3
#
#
#
# Elastic Constant Matrix: (Units=GPa)
#
#
# Indices 1 2 3 4 5 6 
#
# 1 51.0127 24.2204 29.7587 0.0000 0.0000 0.0000
# 2 24.2204 112.4324 27.0830 0.0000 0.0000 0.0000
# 3 29.7587 27.0830 69.0694 0.0000 0.0000 0.0000
# 4 0.0000 0.0000 0.0000 22.5677 0.0000 0.0000
# 5 0.0000 0.0000 0.0000 0.0000 27.3587 0.0000
# 6 0.0000 0.0000 0.0000 0.0000 0.0000 11.7640
#
#
#
# Elastic Compliance Matrix: (Units=1/GPa)
#
#
# Indices 1 2 3 4 5 6 
#
# 1 0.027290 -0.003364 -0.010439 0.000000 0.000000 0.000000
# 2 -0.003364 0.010237 -0.002564 0.000000 0.000000 0.000000
# 3 -0.010439 -0.002564 0.019981 0.000000 0.000000 0.000000
# 4 0.000000 0.000000 0.000000 0.044311 0.000000 0.000000
# 5 0.000000 0.000000 0.000000 0.000000 0.036551 0.000000
# 6 0.000000 0.000000 0.000000 0.000000 0.000000 0.085005
#
#
# Mechanical properties :
#
#
# Convention : Reuss Voigt Hill
#
# Bulk Modulus (GPa) = 40.36666 43.84877 42.10772
# Shear Modulus (GPa) = 18.91305 22.43491 20.67398
#
# Velocity S-wave (km/s) = 3.07444 3.34848 3.21438
# Velocity P-wave (km/s) = 5.72512 6.07158 5.90090
#
# Compressibility (1/GPa) = 0.02477292
#
# Stress axis : x y z
#
# Youngs Moduli (GPa) = 36.64366 97.68764 50.04686
#
# Poissons Ratio (x) = 0.32865 0.52242
# Poissons Ratio (y) = 0.12328 0.12834
# Poissons Ratio (z) = 0.38251 0.25051
#
# Static dielectric constant tensor:
#      x y z
#    x 1.735740 0.000000 0.000000 
#    y 0.000000 1.788090 0.000000 
#    z 0.000000 0.000000 1.897550 
# 
# From -- ./inp_files/32649.got.cif
#   From: 2010.05.17/outbox.cif.g08.bks.cpg/sg73_17_cif.got.tgz:32649.got - 2010.06.03 17:35:07.
