data_PCOD9530954
_publ_section_title
;
Structure prediction by ZEFSAII (Michael W. Deem and Ramdas Pophale) SiO2 
 PCOD9530954
Probable space group: I B C A 
;
_chemical_formula_sum "Si O2"
_cell_formula_units_Z 96
_cell_length_a 17.336589
_cell_length_b 15.062288
_cell_length_c 19.367537
_cell_angle_alpha 90.000000
_cell_angle_beta 90.000000
_cell_angle_gamma 90.000000
_cell_volume 5057.419690
_symmetry_space_group_name_H-M "I B C A "
_symmetry_group_IT_number 73
_symmetry_cell_setting 'orthorhombic'
loop_
_space_group_symop_operation_xyz
x,y,z
-x,1/2-y,z
x,-y,1/2-z
1/2-x,y,-z
-x,-y,-z
x,1/2+y,-z
-x,y,1/2+z
1/2+x,-y,z
1/2+x,1/2+y,1/2+z
1/2-x,-y,1/2+z
1/2+x,1/2-y,-z
-x,1/2+y,1/2-z
1/2-x,1/2-y,1/2-z
1/2+x,y,1/2-z
1/2-x,1/2+y,z
x,1/2-y,1/2+z
loop_
_atom_site_type_symbol
_atom_site_label
_atom_site_fract_x
_atom_site_fract_y
_atom_site_fract_z
Si Si1 0.435769 0.895064 0.941890
Si Si2 0.879893 0.407638 0.290304
Si Si3 0.180111 0.261116 0.455005
Si Si4 0.757820 0.203281 0.176966
Si Si5 0.085527 0.787764 0.340981
Si Si6 0.403370 0.589531 0.023782
O O1 0.433857 0.901195 0.858196
O O2 0.391830 0.805030 0.961675
O O3 0.392607 0.984972 0.965730
O O4 0.517695 0.897246 0.980190
O O5 0.884238 0.500000 0.250000
O O6 0.791997 0.387073 0.316464
O O7 0.903227 0.334887 0.233088
O O8 0.250000 0.223364 0.500000
O O9 0.208974 0.260385 0.377313
O O10 0.160407 0.358386 0.480927
O O11 0.750000 0.250000 0.250000
O O12 0.847051 0.212651 0.154228
O O13 0.094642 0.859723 0.402483
O O14 0.000000 0.750000 0.346506
#
# Coordination Sequence:
#
# PCOD9530954 Si02
#       6
#    16  16  16  16  16  16
#     4  10  23  39  60  91 121 160 206 255 310 376
#     4  10  20  40  63  87 127 162 201 258 319 369
#     4  11  21  37  61  88 122 159 206 250 311 370
#     4   9  21  38  60  89 117 159 207 245 308 371
#     4  11  21  37  64  89 123 163 207 252 311 371
#     4  11  22  39  63  88 124 163 206 262 312 363
#
# _framework density 18.982011
#
# number of rings (size 3 to 8) (size 9 to 14) (size 15 to 20)
#    0.000    1.667    3.333    1.500    0.000    4.667 
#    0.000    0.833    0.000    0.000    0.000    0.000 
#    0.000    0.000    0.000    0.000    0.000    0.000 
#
# Total GULP energy -267566.679312 kJ/mol
# GULP energy per Si atom -5574.305819 kJ/mol
# Density = 1.893881 g / cm^3
# Si number density = 18.982011 Si / 1000 Ang^3
#
#
#
# Elastic Constant Matrix: (Units=GPa)
#
#
# Indices 1 2 3 4 5 6 
#
# 1 55.0932 -0.8843 5.9250 0.0000 0.0000 0.0000
# 2 -0.8843 33.8393 14.1164 0.0000 0.0000 0.0000
# 3 5.9250 14.1164 109.7214 0.0000 0.0000 0.0000
# 4 0.0000 0.0000 0.0000 20.2251 0.0000 0.0000
# 5 0.0000 0.0000 0.0000 0.0000 27.4141 0.0000
# 6 0.0000 0.0000 0.0000 0.0000 0.0000 15.2754
#
#
#
# Elastic Compliance Matrix: (Units=1/GPa)
#
#
# Indices 1 2 3 4 5 6 
#
# 1 0.018285 0.000940 -0.001108 0.000000 0.000000 0.000000
# 2 0.000940 0.031276 -0.004075 0.000000 0.000000 0.000000
# 3 -0.001108 -0.004075 0.009698 0.000000 0.000000 0.000000
# 4 0.000000 0.000000 0.000000 0.049444 0.000000 0.000000
# 5 0.000000 0.000000 0.000000 0.000000 0.036478 0.000000
# 6 0.000000 0.000000 0.000000 0.000000 0.000000 0.065465
#
#
# Mechanical properties :
#
#
# Convention : Reuss Voigt Hill
#
# Bulk Modulus (GPa) = 19.69525 26.32978 23.01251
# Shear Modulus (GPa) = 21.18148 24.54936 22.86542
#
# Velocity S-wave (km/s) = 3.34409 3.60014 3.47448
# Velocity P-wave (km/s) = 5.03079 5.58412 5.31466
#
# Compressibility (1/GPa) = 0.05077365
#
# Stress axis : x y z
#
# Youngs Moduli (GPa) = 54.68863 31.97366 103.11327
#
# Poissons Ratio (x) = -0.03006 0.11429
# Poissons Ratio (y) = -0.05142 0.42015
# Poissons Ratio (z) = 0.06062 0.13028
#
# Static dielectric constant tensor:
#      x y z
#    x 1.663580 0.000000 0.000000 
#    y 0.000000 1.642340 0.000000 
#    z 0.000000 0.000000 1.596100 
# 
# From -- ./inp_files/17051.got.cif
#   From: 2010.05.17/outbox.cif.g08.bks.cpg/sg73_9_cif.got.tgz:17051.got - 2010.06.03 17:35:07.
