data_PCOD9530045
_publ_section_title
;
Structure prediction by ZEFSAII (Michael W. Deem and Ramdas Pophale) SiO2 
 PCOD9530045
Probable space group: I B C A 
;
_chemical_formula_sum "Si O2"
_cell_formula_units_Z 88
_cell_length_a 9.594805
_cell_length_b 28.285446
_cell_length_c 13.154514
_cell_angle_alpha 90.000000
_cell_angle_beta 90.000000
_cell_angle_gamma 90.000000
_cell_volume 3570.047474
_symmetry_space_group_name_H-M "I B C A "
_symmetry_group_IT_number 73
_symmetry_cell_setting 'orthorhombic'
loop_
_space_group_symop_operation_xyz
x,y,z
-x,1/2-y,z
x,-y,1/2-z
1/2-x,y,-z
-x,-y,-z
x,1/2+y,-z
-x,y,1/2+z
1/2+x,-y,z
1/2+x,1/2+y,1/2+z
1/2-x,-y,1/2+z
1/2+x,1/2-y,-z
-x,1/2+y,1/2-z
1/2-x,1/2-y,1/2-z
1/2+x,y,1/2-z
1/2-x,1/2+y,z
x,1/2-y,1/2+z
loop_
_atom_site_type_symbol
_atom_site_label
_atom_site_fract_x
_atom_site_fract_y
_atom_site_fract_z
Si Si1 0.500000 0.750000 0.276193
Si Si2 0.640180 0.537041 0.090754
Si Si3 0.261657 0.869535 0.188224
Si Si4 0.893905 0.564717 0.557638
Si Si5 0.490239 0.162662 0.086278
Si Si6 0.431584 0.170537 0.851950
O O1 0.447551 0.791236 0.350794
O O2 0.598854 0.778388 0.198495
O O3 0.707269 0.575657 0.163981
O O4 0.605762 0.483503 0.123129
O O5 0.750000 0.530208 0.000000
O O6 0.506106 0.558257 0.033412
O O7 0.409823 0.843753 0.176995
O O8 0.175223 0.862875 0.292208
O O9 0.155781 0.845734 0.104869
O O10 0.750000 0.571752 0.500000
O O11 0.934468 0.611183 0.618940
O O12 0.434010 0.169525 0.972642
#
# Coordination Sequence:
#
# PCOD9530045 Si02
#       6
#     8  16  16  16  16  16
#     4  10  26  44  72 108 142 194 254 320 388 444
#     4  10  18  40  70 110 141 187 235 293 369 441
#     4  11  23  44  73 103 150 195 246 312 384 447
#     4  10  21  35  74 113 137 182 247 295 358 452
#     4  11  22  45  75 104 148 197 248 317 378 454
#     4  11  24  44  71 106 143 195 252 314 379 460
#
# _framework density 24.649533000000002
#
# number of rings (size 3 to 8) (size 9 to 14) (size 15 to 20)
#    0.000    1.455    3.636    1.091    0.000    5.818 
#    0.000    7.273    0.000   34.909    0.000    0.000 
#    0.000    0.000    0.000    0.000    0.000    0.000 
#
# Total GULP energy -245989.015358 kJ/mol
# GULP energy per Si atom -5590.659440 kJ/mol
# Density = 2.459343 g / cm^3
# Si number density = 24.649533 Si / 1000 Ang^3
#
#
#
# Elastic Constant Matrix: (Units=GPa)
#
#
# Indices 1 2 3 4 5 6 
#
# 1 146.9708 35.1578 15.3398 0.0000 -0.0001 0.0000
# 2 35.1578 222.3332 75.0204 -0.0001 -0.0001 0.0000
# 3 15.3398 75.0204 136.7919 -0.0009 0.0004 0.0000
# 4 0.0000 -0.0001 -0.0009 44.0172 0.0000 0.0001
# 5 -0.0001 -0.0001 0.0004 0.0000 39.0297 0.0000
# 6 0.0000 0.0000 0.0000 0.0001 0.0000 56.7978
#
#
#
# Elastic Compliance Matrix: (Units=1/GPa)
#
#
# Indices 1 2 3 4 5 6 
#
# 1 0.007077 -0.001045 -0.000221 0.000000 0.000000 0.000000
# 2 -0.001045 0.005673 -0.002994 0.000000 0.000000 0.000000
# 3 -0.000221 -0.002994 0.008977 0.000000 0.000000 0.000000
# 4 0.000000 0.000000 0.000000 0.022718 0.000000 0.000000
# 5 0.000000 0.000000 0.000000 0.000000 0.025621 0.000000
# 6 0.000000 0.000000 0.000000 0.000000 0.000000 0.017606
#
#
# Mechanical properties :
#
#
# Convention : Reuss Voigt Hill
#
# Bulk Modulus (GPa) = 75.70952 84.12577 79.91765
# Shear Modulus (GPa) = 49.70395 53.34080 51.52238
#
# Velocity S-wave (km/s) = 4.49533 4.65689 4.57683
# Velocity P-wave (km/s) = 7.59770 7.94471 7.77314
#
# Compressibility (1/GPa) = 0.01320838
#
# Stress axis : x y z
#
# Youngs Moduli (GPa) = 141.30278 176.26533 111.39272
#
# Poissons Ratio (x) = 0.18413 0.02459
# Poissons Ratio (y) = 0.14761 0.33354
# Poissons Ratio (z) = 0.03119 0.52778
#
# Static dielectric constant tensor:
#      x y z
#    x 2.015640 0.000000 0.000000 
#    y 0.000000 2.010430 0.000000 
#    z 0.000000 0.000000 1.988530 
# 
# From -- ./inp_files/28354.got.cif
#   From: 2010.05.17/outbox.cif.g08.bks.cpg/sg73_15_cif.got.tgz:28354.got - 2010.06.03 17:35:07.
