data_PCOD9530354
_publ_section_title
;
Structure prediction by ZEFSAII (Michael W. Deem and Ramdas Pophale) SiO2 
 PCOD9530354
Probable space group: I B C A 
;
_chemical_formula_sum "Si O2"
_cell_formula_units_Z 112
_cell_length_a 29.059289
_cell_length_b 14.298492
_cell_length_c 12.363195
_cell_angle_alpha 90.000000
_cell_angle_beta 90.000000
_cell_angle_gamma 90.000000
_cell_volume 5136.957115
_symmetry_space_group_name_H-M "I B C A "
_symmetry_group_IT_number 73
_symmetry_cell_setting 'orthorhombic'
loop_
_space_group_symop_operation_xyz
x,y,z
-x,1/2-y,z
x,-y,1/2-z
1/2-x,y,-z
-x,-y,-z
x,1/2+y,-z
-x,y,1/2+z
1/2+x,-y,z
1/2+x,1/2+y,1/2+z
1/2-x,-y,1/2+z
1/2+x,1/2-y,-z
-x,1/2+y,1/2-z
1/2-x,1/2-y,1/2-z
1/2+x,y,1/2-z
1/2-x,1/2+y,z
x,1/2-y,1/2+z
loop_
_atom_site_type_symbol
_atom_site_label
_atom_site_fract_x
_atom_site_fract_y
_atom_site_fract_z
Si Si1 0.733761 0.167952 0.331269
Si Si2 0.081172 0.909725 0.505306
Si Si3 0.930276 0.611750 0.081181
Si Si4 0.425405 0.738283 0.626657
Si Si5 0.978635 0.108172 0.287723
Si Si6 0.319258 0.666036 0.951977
Si Si7 0.148102 0.177271 0.284842
O O1 0.750000 0.250000 0.250000
O O2 0.779617 0.117929 0.376721
O O3 0.707143 0.199765 0.440291
O O4 0.691798 0.123949 0.264576
O O5 0.060525 0.840756 0.414761
O O6 0.061002 0.886783 0.621945
O O7 0.136337 0.894412 0.513817
O O8 0.065071 0.012291 0.474644
O O9 0.888743 0.608017 0.165129
O O10 0.975125 0.638170 0.150011
O O11 0.918420 0.684034 0.986092
O O12 0.461073 0.676470 0.693928
O O13 0.379693 0.758656 0.697681
O O14 0.983542 0.000000 0.250000
O O15 0.335951 0.752790 0.879819
#
# Coordination Sequence:
#
# PCOD9530354 Si02
#       7
#    16  16  16  16  16  16  16
#     4   9  19  35  67 101 140 180 229 291 360 433
#     4  12  25  46  71 105 140 184 246 300 356 432
#     4  12  28  45  69 105 145 186 241 303 354 428
#     4  12  25  47  72  99 139 186 242 290 363 427
#     4  12  28  48  67  97 143 192 237 292 365 424
#     4  10  19  39  67 103 135 182 236 291 356 436
#     4  11  21  41  70 105 136 190 234 287 365 425
#
# _framework density 21.802790000000002
#
# number of rings (size 3 to 8) (size 9 to 14) (size 15 to 20)
#    0.000    0.857    5.714    0.429    2.000    3.429 
#    0.000    0.000    0.000   27.429    0.000    0.000 
#    0.000    0.000    0.000    0.000    0.000    0.000 
#
# Total GULP energy -312714.016432 kJ/mol
# GULP energy per Si atom -5584.178865 kJ/mol
# Density = 2.175317 g / cm^3
# Si number density = 21.802790 Si / 1000 Ang^3
#
#
#
# Elastic Constant Matrix: (Units=GPa)
#
#
# Indices 1 2 3 4 5 6 
#
# 1 109.0286 -15.4467 39.2571 0.0000 0.0000 0.0000
# 2 -15.4467 21.4458 -8.0071 0.0000 0.0000 0.0000
# 3 39.2571 -8.0071 95.0798 0.0000 0.0000 0.0000
# 4 0.0000 0.0000 0.0000 32.5522 0.0000 0.0000
# 5 0.0000 0.0000 0.0000 0.0000 49.8445 0.0000
# 6 0.0000 0.0000 0.0000 0.0000 0.0000 5.1781
#
#
#
# Elastic Compliance Matrix: (Units=1/GPa)
#
#
# Indices 1 2 3 4 5 6 
#
# 1 0.011665 0.006818 -0.004242 0.000000 0.000000 0.000000
# 2 0.006818 0.052128 0.001575 0.000000 0.000000 0.000000
# 3 -0.004242 0.001575 0.012402 0.000000 0.000000 0.000000
# 4 0.000000 0.000000 0.000000 0.030720 0.000000 0.000000
# 5 0.000000 0.000000 0.000000 0.000000 0.020062 0.000000
# 6 0.000000 0.000000 0.000000 0.000000 0.000000 0.193122
#
#
# Mechanical properties :
#
#
# Convention : Reuss Voigt Hill
#
# Bulk Modulus (GPa) = 11.83479 28.57342 20.20410
# Shear Modulus (GPa) = 14.70744 31.49835 23.10289
#
# Velocity S-wave (km/s) = 2.60006 3.80504 3.25873
# Velocity P-wave (km/s) = 3.80179 5.69546 4.84210
#
# Compressibility (1/GPa) = 0.08449668
#
# Stress axis : x y z
#
# Youngs Moduli (GPa) = 85.72386 19.18351 80.63433
#
# Poissons Ratio (x) = -0.13080 0.34207
# Poissons Ratio (y) = -0.58449 -0.12698
# Poissons Ratio (z) = 0.36366 -0.03021
#
# Static dielectric constant tensor:
#      x y z
#    x 1.875680 0.000000 0.000000 
#    y 0.000000 1.750560 0.000000 
#    z 0.000000 0.000000 1.817860 
# 
# From -- ./inp_files/14819.got.cif
#   From: 2010.05.17/outbox.cif.g08.bks.cpg/sg73_8_cif.got.tgz:14819.got - 2010.06.03 17:35:07.
