data_PCOD9530437
_publ_section_title
;
Structure prediction by ZEFSAII (Michael W. Deem and Ramdas Pophale) SiO2 
 PCOD9530437
Probable space group: I B C A 
;
_chemical_formula_sum "Si O2"
_cell_formula_units_Z 104
_cell_length_a 20.280044
_cell_length_b 25.487638
_cell_length_c 9.792474
_cell_angle_alpha 90.000000
_cell_angle_beta 90.000000
_cell_angle_gamma 90.000000
_cell_volume 5061.636000
_symmetry_space_group_name_H-M "I B C A "
_symmetry_group_IT_number 73
_symmetry_cell_setting 'orthorhombic'
loop_
_space_group_symop_operation_xyz
x,y,z
-x,1/2-y,z
x,-y,1/2-z
1/2-x,y,-z
-x,-y,-z
x,1/2+y,-z
-x,y,1/2+z
1/2+x,-y,z
1/2+x,1/2+y,1/2+z
1/2-x,-y,1/2+z
1/2+x,1/2-y,-z
-x,1/2+y,1/2-z
1/2-x,1/2-y,1/2-z
1/2+x,y,1/2-z
1/2-x,1/2+y,z
x,1/2-y,1/2+z
loop_
_atom_site_type_symbol
_atom_site_label
_atom_site_fract_x
_atom_site_fract_y
_atom_site_fract_z
Si Si1 0.705851 0.509785 0.113348
Si Si2 0.883877 0.632630 0.173175
Si Si3 0.352494 0.385033 0.859113
Si Si4 0.532730 0.610636 0.330498
Si Si5 0.761416 0.300439 0.341146
Si Si6 0.973667 0.500000 0.250000
Si Si7 0.385505 0.438217 0.435265
O O1 0.747975 0.500000 0.250000
O O2 0.656600 0.553293 0.172197
O O3 0.750000 0.537489 0.000000
O O4 0.671995 0.462100 0.030870
O O5 0.835587 0.681370 0.190895
O O6 0.867334 0.592164 0.295896
O O7 0.962814 0.639952 0.170407
O O8 0.865964 0.614990 0.020152
O O9 0.414940 0.365376 0.773971
O O10 0.289203 0.349611 0.820354
O O11 0.514388 0.551975 0.279483
O O12 0.568948 0.600631 0.474696
O O13 0.750000 0.286927 0.500000
O O14 0.750000 0.250000 0.250000
O O15 0.928640 0.512766 0.381513
#
# Coordination Sequence:
#
# PCOD9530437 Si02
#       7
#    16  16  16  16  16   8  16
#     4  12  25  37  56  88 135 178 225 264 322 381
#     4  10  22  39  66  91 129 166 216 262 331 383
#     4  11  23  42  63  90 132 169 210 274 326 385
#     4  11  20  37  59  93 126 176 216 268 315 389
#     4  10  24  47  72  95 121 166 214 278 339 393
#     4  10  20  32  56  80 130 170 224 250 314 368
#     4  11  22  35  56  89 131 178 221 263 308 388
#
# _framework density 20.546717999999998
#
# number of rings (size 3 to 8) (size 9 to 14) (size 15 to 20)
#    0.000    1.231    1.538    6.462    5.385    1.231 
#    0.000    0.769    0.000    3.692    0.000    0.000 
#    0.000    0.000    0.000    0.000    0.000    0.000 
#
# Total GULP energy -290113.091367 kJ/mol
# GULP energy per Si atom -5579.097911 kJ/mol
# Density = 2.049995 g / cm^3
# Si number density = 20.546718 Si / 1000 Ang^3
#
#
#
# Elastic Constant Matrix: (Units=GPa)
#
#
# Indices 1 2 3 4 5 6 
#
# 1 119.7734 38.0609 48.0025 0.0000 0.0000 0.0000
# 2 38.0609 60.4009 36.5055 0.0000 0.0000 0.0000
# 3 48.0025 36.5055 113.0477 0.0000 0.0000 0.0000
# 4 0.0000 0.0000 0.0000 28.0417 0.0000 0.0000
# 5 0.0000 0.0000 0.0000 0.0000 31.3562 0.0000
# 6 0.0000 0.0000 0.0000 0.0000 0.0000 16.9626
#
#
#
# Elastic Compliance Matrix: (Units=1/GPa)
#
#
# Indices 1 2 3 4 5 6 
#
# 1 0.011246 -0.005219 -0.003090 0.000000 0.000000 0.000000
# 2 -0.005219 0.022993 -0.005209 0.000000 0.000000 0.000000
# 3 -0.003090 -0.005209 0.011840 0.000000 0.000000 0.000000
# 4 0.000000 0.000000 0.000000 0.035661 0.000000 0.000000
# 5 0.000000 0.000000 0.000000 0.000000 0.031892 0.000000
# 6 0.000000 0.000000 0.000000 0.000000 0.000000 0.058953
#
#
# Mechanical properties :
#
#
# Convention : Reuss Voigt Hill
#
# Bulk Modulus (GPa) = 52.51198 59.81775 56.16487
# Shear Modulus (GPa) = 24.27562 26.64896 25.46229
#
# Velocity S-wave (km/s) = 3.44100 3.60529 3.52410
# Velocity P-wave (km/s) = 6.43430 6.81961 6.62975
#
# Compressibility (1/GPa) = 0.01904327
#
# Stress axis : x y z
#
# Youngs Moduli (GPa) = 88.92094 43.49181 84.46015
#
# Poissons Ratio (x) = 0.22698 0.26098
# Poissons Ratio (y) = 0.46408 0.43993
# Poissons Ratio (z) = 0.27476 0.22654
#
# Static dielectric constant tensor:
#      x y z
#    x 1.776240 0.000000 0.000000 
#    y 0.000000 1.739040 0.000000 
#    z 0.000000 0.000000 1.798890 
# 
# From -- ./inp_files/6691.got.cif
#   From: 2010.05.17/outbox.cif.g08.bks.cpg/sg73_4_cif.got.tgz:6691.got - 2010.06.03 17:35:07.
