data_PCOD9530999
_publ_section_title
;
Structure prediction by ZEFSAII (Michael W. Deem and Ramdas Pophale) SiO2 
 PCOD9530999
Probable space group: I B C A 
;
_chemical_formula_sum "Si O2"
_cell_formula_units_Z 88
_cell_length_a 10.822062
_cell_length_b 29.281624
_cell_length_c 12.002871
_cell_angle_alpha 90.000000
_cell_angle_beta 90.000000
_cell_angle_gamma 90.000000
_cell_volume 3803.560389
_symmetry_space_group_name_H-M "I B C A "
_symmetry_group_IT_number 73
_symmetry_cell_setting 'orthorhombic'
loop_
_space_group_symop_operation_xyz
x,y,z
-x,1/2-y,z
x,-y,1/2-z
1/2-x,y,-z
-x,-y,-z
x,1/2+y,-z
-x,y,1/2+z
1/2+x,-y,z
1/2+x,1/2+y,1/2+z
1/2-x,-y,1/2+z
1/2+x,1/2-y,-z
-x,1/2+y,1/2-z
1/2-x,1/2-y,1/2-z
1/2+x,y,1/2-z
1/2-x,1/2+y,z
x,1/2-y,1/2+z
loop_
_atom_site_type_symbol
_atom_site_label
_atom_site_fract_x
_atom_site_fract_y
_atom_site_fract_z
Si Si1 0.388531 0.065750 0.992100
Si Si2 0.637334 0.248066 0.165652
Si Si3 0.250000 0.078191 0.500000
Si Si4 0.865952 0.651276 0.644735
Si Si5 0.141663 0.853314 0.176912
Si Si6 0.940083 0.016957 0.131057
O O1 0.381403 0.116077 0.042610
O O2 0.466243 0.031409 0.070115
O O3 0.250000 0.048558 0.000000
O O4 0.443599 0.051855 0.872931
O O5 0.500000 0.250000 0.219434
O O6 0.750000 0.250000 0.250000
O O7 0.642088 0.296305 0.101638
O O8 0.650181 0.197120 0.118660
O O9 0.171620 0.109975 0.417152
O O10 0.166343 0.046655 0.576560
O O11 0.745518 0.643108 0.724246
O O12 0.996330 0.644726 0.711484
O O13 0.901542 0.000000 0.250000
#
# Coordination Sequence:
#
# PCOD9530999 Si02
#       6
#    16  16   8  16  16  16
#     4  11  24  43  64  99 132 171 228 281 346 428
#     4   8  16  33  60  93 133 178 226 278 339 405
#     4  12  22  44  66 100 134 172 244 280 356 426
#     4  10  20  40  66  98 139 182 231 287 347 414
#     4  10  21  38  68  98 136 184 231 289 345 415
#     4  11  25  45  68  94 133 176 226 296 357 420
#
# _framework density 23.136216999999998
#
# number of rings (size 3 to 8) (size 9 to 14) (size 15 to 20)
#    0.000    1.818    2.727    1.091    0.000    3.636 
#    1.636    0.000    0.000    3.273    0.000    0.000 
#    0.000    0.000    0.000    0.000    0.000    0.000 
#
# Total GULP energy -245093.019617 kJ/mol
# GULP energy per Si atom -5570.295900 kJ/mol
# Density = 2.308356 g / cm^3
# Si number density = 23.136217 Si / 1000 Ang^3
#
#
#
# Elastic Constant Matrix: (Units=GPa)
#
#
# Indices 1 2 3 4 5 6 
#
# 1 165.4323 45.4830 35.2895 -0.0007 -0.0002 0.0000
# 2 45.4830 203.7313 50.9136 -0.0001 0.0001 0.0000
# 3 35.2895 50.9136 51.4413 -0.0034 -0.0004 0.0000
# 4 -0.0007 -0.0001 -0.0034 44.3109 -0.0007 -0.0003
# 5 -0.0002 0.0001 -0.0004 -0.0007 22.8067 -0.0001
# 6 0.0000 0.0000 0.0000 -0.0003 -0.0001 37.0415
#
#
#
# Elastic Compliance Matrix: (Units=1/GPa)
#
#
# Indices 1 2 3 4 5 6 
#
# 1 0.007118 -0.000490 -0.004398 0.000000 0.000000 0.000000
# 2 -0.000490 0.006555 -0.006152 0.000000 0.000000 0.000000
# 3 -0.004398 -0.006152 0.028545 0.000002 0.000001 0.000000
# 4 0.000000 0.000000 0.000002 0.022568 0.000001 0.000000
# 5 0.000000 0.000000 0.000001 0.000001 0.043847 0.000000
# 6 0.000000 0.000000 0.000000 0.000000 0.000000 0.026997
#
#
# Mechanical properties :
#
#
# Convention : Reuss Voigt Hill
#
# Bulk Modulus (GPa) = 49.65520 75.99748 62.82634
# Shear Modulus (GPa) = 30.40959 40.09307 35.25133
#
# Velocity S-wave (km/s) = 3.62936 4.16734 3.90762
# Velocity P-wave (km/s) = 6.25074 7.48831 6.89734
#
# Compressibility (1/GPa) = 0.02013888
#
# Stress axis : x y z
#
# Youngs Moduli (GPa) = 140.49657 152.55093 35.03192
#
# Poissons Ratio (x) = 0.07474 0.15407
# Poissons Ratio (y) = 0.06884 0.21551
# Poissons Ratio (z) = 0.61788 0.93847
#
# Static dielectric constant tensor:
#      x y z
#    x 4.528480 0.001440 0.000100 
#    y 0.001440 1.822400 0.000010 
#    z 0.000100 0.000010 2.023100 
# 
# From -- ./inp_files/9895.got.cif
#   From: 2010.05.17/outbox.cif.g08.bks.cpg/sg73_5_cif.got.tgz:9895.got - 2010.06.03 17:35:07.
