data_PCOD9530128
_publ_section_title
;
Structure prediction by ZEFSAII (Michael W. Deem and Ramdas Pophale) SiO2 
 PCOD9530128
Probable space group: I B C A 
;
_chemical_formula_sum "Si O2"
_cell_formula_units_Z 88
_cell_length_a 8.793134
_cell_length_b 31.634427
_cell_length_c 15.926109
_cell_angle_alpha 90.000000
_cell_angle_beta 90.000000
_cell_angle_gamma 90.000000
_cell_volume 4430.098144
_symmetry_space_group_name_H-M "I B C A "
_symmetry_group_IT_number 73
_symmetry_cell_setting 'orthorhombic'
loop_
_space_group_symop_operation_xyz
x,y,z
-x,1/2-y,z
x,-y,1/2-z
1/2-x,y,-z
-x,-y,-z
x,1/2+y,-z
-x,y,1/2+z
1/2+x,-y,z
1/2+x,1/2+y,1/2+z
1/2-x,-y,1/2+z
1/2+x,1/2-y,-z
-x,1/2+y,1/2-z
1/2-x,1/2-y,1/2-z
1/2+x,y,1/2-z
1/2-x,1/2+y,z
x,1/2-y,1/2+z
loop_
_atom_site_type_symbol
_atom_site_label
_atom_site_fract_x
_atom_site_fract_y
_atom_site_fract_z
Si Si1 0.364971 0.875541 0.815827
Si Si2 0.940918 0.794794 0.177098
Si Si3 0.750000 0.010360 0.500000
Si Si4 0.112859 0.635024 0.446492
Si Si5 0.024357 0.441892 0.930743
Si Si6 0.896988 0.822108 0.836568
O O1 0.463892 0.835858 0.852877
O O2 0.358278 0.864385 0.718099
O O3 0.199432 0.876241 0.859161
O O4 0.447918 0.917917 0.843791
O O5 0.762901 0.798612 0.159997
O O6 0.981296 0.797974 0.277154
O O7 0.642682 0.979800 0.445324
O O8 0.641462 0.039452 0.555808
O O9 0.250000 0.654914 0.500000
O O10 0.974126 0.664926 0.422893
O O11 0.061053 0.593600 0.497732
O O12 0.000000 0.750000 0.645542
#
# Coordination Sequence:
#
# PCOD9530128 Si02
#       6
#    16  16   8  16  16  16
#     4   9  18  35  54  84 120 153 203 253 297 368
#     4  10  20  33  57  90 123 156 214 251 300 374
#     4  10  20  34  58  88 108 158 210 248 318 384
#     4  10  19  37  57  85 119 165 205 252 310 375
#     4  10  20  35  59  84 116 155 206 251 310 377
#     4  10  19  33  58  87 118 163 205 256 307 356
#
# _framework density 19.864121000000001
#
# number of rings (size 3 to 8) (size 9 to 14) (size 15 to 20)
#    1.091    1.091    4.545    0.545    2.545    0.000 
#    0.000    0.000    0.000   24.000    0.000    0.000 
#    0.000    0.000    0.000    0.000    0.000    2.182 
#
# Total GULP energy -245036.796131 kJ/mol
# GULP energy per Si atom -5569.018094 kJ/mol
# Density = 1.981891 g / cm^3
# Si number density = 19.864121 Si / 1000 Ang^3
#
#
#
# Elastic Constant Matrix: (Units=GPa)
#
#
# Indices 1 2 3 4 5 6 
#
# 1 133.8165 46.3146 22.0803 0.0001 0.0000 0.0000
# 2 46.3146 74.8409 12.6943 0.0001 0.0000 0.0000
# 3 22.0803 12.6943 35.1344 0.0003 0.0001 0.0001
# 4 0.0001 0.0001 0.0003 12.4273 0.0000 0.0000
# 5 0.0000 0.0000 0.0001 0.0000 29.8279 0.0000
# 6 0.0000 0.0000 0.0001 0.0000 0.0000 32.2006
#
#
#
# Elastic Compliance Matrix: (Units=1/GPa)
#
#
# Indices 1 2 3 4 5 6 
#
# 1 0.010099 -0.005511 -0.004356 0.000000 0.000000 0.000000
# 2 -0.005511 0.017241 -0.002766 0.000000 0.000000 0.000000
# 3 -0.004356 -0.002766 0.032199 -0.000001 0.000000 0.000000
# 4 0.000000 0.000000 -0.000001 0.080468 0.000000 0.000000
# 5 0.000000 0.000000 0.000000 0.000000 0.033526 0.000000
# 6 0.000000 0.000000 0.000000 0.000000 0.000000 0.031055
#
#
# Mechanical properties :
#
#
# Convention : Reuss Voigt Hill
#
# Bulk Modulus (GPa) = 29.17671 45.10781 37.14226
# Shear Modulus (GPa) = 20.72301 25.73801 23.23051
#
# Velocity S-wave (km/s) = 3.23342 3.60349 3.42346
# Velocity P-wave (km/s) = 5.35351 6.33017 5.86221
#
# Compressibility (1/GPa) = 0.03427391
#
# Stress axis : x y z
#
# Youngs Moduli (GPa) = 99.02019 58.00062 31.05705
#
# Poissons Ratio (x) = 0.31963 0.13527
# Poissons Ratio (y) = 0.54569 0.08591
# Poissons Ratio (z) = 0.43129 0.16043
#
# Static dielectric constant tensor:
#      x y z
#    x 1.721380 0.000000 0.000000 
#    y 0.000000 1.700300 0.000000 
#    z 0.000000 0.000000 1.743240 
# 
# From -- ./inp_files/20853.got.cif
#   From: 2010.05.17/outbox.cif.g08.bks.cpg/sg73_11_cif.got.tgz:20853.got - 2010.06.03 17:35:07.
