data_PCOD9530321
_publ_section_title
;
Structure prediction by ZEFSAII (Michael W. Deem and Ramdas Pophale) SiO2 
 PCOD9530321
Probable space group: I B C A 
;
_chemical_formula_sum "Si O2"
_cell_formula_units_Z 88
_cell_length_a 8.288671
_cell_length_b 21.496444
_cell_length_c 22.907063
_cell_angle_alpha 90.000000
_cell_angle_beta 90.000000
_cell_angle_gamma 90.000000
_cell_volume 4081.510664
_symmetry_space_group_name_H-M "I B C A "
_symmetry_group_IT_number 73
_symmetry_cell_setting 'orthorhombic'
loop_
_space_group_symop_operation_xyz
x,y,z
-x,1/2-y,z
x,-y,1/2-z
1/2-x,y,-z
-x,-y,-z
x,1/2+y,-z
-x,y,1/2+z
1/2+x,-y,z
1/2+x,1/2+y,1/2+z
1/2-x,-y,1/2+z
1/2+x,1/2-y,-z
-x,1/2+y,1/2-z
1/2-x,1/2-y,1/2-z
1/2+x,y,1/2-z
1/2-x,1/2+y,z
x,1/2-y,1/2+z
loop_
_atom_site_type_symbol
_atom_site_label
_atom_site_fract_x
_atom_site_fract_y
_atom_site_fract_z
Si Si1 0.250000 0.824970 0.000000
Si Si2 0.569707 0.090554 0.907987
Si Si3 0.057530 0.851480 0.671774
Si Si4 0.500000 0.750000 0.420864
Si Si5 0.739484 0.533093 0.626825
Si Si6 0.225502 0.500000 0.750000
Si Si7 0.686290 0.131179 0.791433
O O1 0.360927 0.868843 0.040099
O O2 0.134466 0.783242 0.040048
O O3 0.390505 0.064186 0.915352
O O4 0.576325 0.132584 0.848807
O O5 0.683201 0.030096 0.897140
O O6 0.128563 0.915561 0.645258
O O7 0.140681 0.831994 0.733088
O O8 0.078492 0.800466 0.622162
O O9 0.868753 0.858619 0.687500
O O10 0.646435 0.517071 0.688072
O O11 0.325300 0.439313 0.767121
#
# Coordination Sequence:
#
# PCOD9530321 Si02
#       7
#     8  16  16   8  16   8  16
#     4  12  30  54  72  92 138 196 254 294 346 420
#     4  11  23  43  70 108 141 185 230 290 359 424
#     4  11  23  43  70 106 142 186 229 293 357 424
#     4  12  30  54  70  94 138 196 250 300 346 416
#     4  10  21  38  71 108 149 177 225 284 364 429
#     4   8  16  30  60 100 142 176 190 266 358 432
#     4  10  19  38  66 106 142 175 228 282 360 425
#
# _framework density 21.560642999999999
#
# number of rings (size 3 to 8) (size 9 to 14) (size 15 to 20)
#    0.000    1.455    1.818    4.364    2.545    7.273 
#    0.000    0.000    0.000    0.000    0.000    0.000 
#    0.000    0.000    0.000    0.000    0.000    0.000 
#
# Total GULP energy -245748.308644 kJ/mol
# GULP energy per Si atom -5585.188833 kJ/mol
# Density = 2.151157 g / cm^3
# Si number density = 21.560643 Si / 1000 Ang^3
#
#
#
# Elastic Constant Matrix: (Units=GPa)
#
#
# Indices 1 2 3 4 5 6 
#
# 1 76.7767 31.0565 18.8907 0.0000 0.0000 0.0000
# 2 31.0565 91.4986 68.2028 0.0000 0.0000 0.0000
# 3 18.8907 68.2028 110.1167 0.0000 0.0000 0.0000
# 4 0.0000 0.0000 0.0000 35.8852 0.0000 0.0000
# 5 0.0000 0.0000 0.0000 0.0000 26.8260 0.0000
# 6 0.0000 0.0000 0.0000 0.0000 0.0000 10.5178
#
#
#
# Elastic Compliance Matrix: (Units=1/GPa)
#
#
# Indices 1 2 3 4 5 6 
#
# 1 0.015168 -0.005960 0.001090 0.000000 0.000000 0.000000
# 2 -0.005960 0.022644 -0.013003 0.000000 0.000000 0.000000
# 3 0.001090 -0.013003 0.016948 0.000000 0.000000 0.000000
# 4 0.000000 0.000000 0.000000 0.027867 0.000000 0.000000
# 5 0.000000 0.000000 0.000000 0.000000 0.037277 0.000000
# 6 0.000000 0.000000 0.000000 0.000000 0.000000 0.095077
#
#
# Mechanical properties :
#
#
# Convention : Reuss Voigt Hill
#
# Bulk Modulus (GPa) = 52.59577 57.18800 54.89188
# Shear Modulus (GPa) = 19.45028 25.32860 22.38944
#
# Velocity S-wave (km/s) = 3.00679 3.43120 3.22598
# Velocity P-wave (km/s) = 6.04166 6.50225 6.27618
#
# Compressibility (1/GPa) = 0.01901294
#
# Stress axis : x y z
#
# Youngs Moduli (GPa) = 65.92955 44.16103 59.00473
#
# Poissons Ratio (x) = 0.26322 -0.06430
# Poissons Ratio (y) = 0.39297 0.76722
# Poissons Ratio (z) = -0.07184 0.57421
#
# Static dielectric constant tensor:
#      x y z
#    x 1.808520 0.000000 0.000000 
#    y 0.000000 1.805120 0.000000 
#    z 0.000000 0.000000 1.811240 
# 
# From -- ./inp_files/24814.got.cif
#   From: 2010.05.17/outbox.cif.g08.bks.cpg/sg73_13_cif.got.tgz:24814.got - 2010.06.03 17:35:07.
