data_PCOD9530019
_publ_section_title
;
Structure prediction by ZEFSAII (Michael W. Deem and Ramdas Pophale) SiO2 
 PCOD9530019
Probable space group: I B C A 
;
_chemical_formula_sum "Si O2"
_cell_formula_units_Z 96
_cell_length_a 10.321591
_cell_length_b 20.990390
_cell_length_c 25.529656
_cell_angle_alpha 90.000000
_cell_angle_beta 90.000000
_cell_angle_gamma 90.000000
_cell_volume 5531.107721
_symmetry_space_group_name_H-M "I B C A "
_symmetry_group_IT_number 73
_symmetry_cell_setting 'orthorhombic'
loop_
_space_group_symop_operation_xyz
x,y,z
-x,1/2-y,z
x,-y,1/2-z
1/2-x,y,-z
-x,-y,-z
x,1/2+y,-z
-x,y,1/2+z
1/2+x,-y,z
1/2+x,1/2+y,1/2+z
1/2-x,-y,1/2+z
1/2+x,1/2-y,-z
-x,1/2+y,1/2-z
1/2-x,1/2-y,1/2-z
1/2+x,y,1/2-z
1/2-x,1/2+y,z
x,1/2-y,1/2+z
loop_
_atom_site_type_symbol
_atom_site_label
_atom_site_fract_x
_atom_site_fract_y
_atom_site_fract_z
Si Si1 0.875603 0.988988 0.962576
Si Si2 0.516554 0.380069 0.889713
Si Si3 0.219864 0.889273 0.099023
Si Si4 0.121954 0.797878 0.303997
Si Si5 0.365812 0.287884 0.181295
Si Si6 0.500000 0.250000 0.454861
Si Si7 0.750000 0.703326 0.000000
O O1 0.905646 0.928464 0.926238
O O2 0.849864 0.048450 0.923694
O O3 0.750000 0.982082 0.000000
O O4 0.000000 0.000000 0.000000
O O5 0.368156 0.403527 0.883532
O O6 0.586125 0.361440 0.835586
O O7 0.507202 0.312604 0.919639
O O8 0.149723 0.849050 0.144307
O O9 0.229443 0.841774 0.049653
O O10 0.245900 0.760845 0.327587
O O11 0.144117 0.808210 0.242260
O O12 0.000000 0.750000 0.307873
O O13 0.500000 0.250000 0.173295
O O14 0.625717 0.254267 0.490306
#
# Coordination Sequence:
#
# PCOD9530019 Si02
#       7
#    16  16  16  16  16   8   8
#     4  12  24  42  61  88 122 171 208 246 307 373
#     4  11  21  39  65  83 119 165 207 246 310 377
#     4  11  21  42  58  84 123 168 202 249 308 361
#     4  10  18  39  63  92 122 162 197 247 325 366
#     4  10  22  35  64  96 127 153 202 263 305 371
#     4  10  20  34  54  86 110 152 190 252 302 354
#     4  10  20  34  54  80 120 150 192 248 298 352
#
# _framework density 17.356379
#
# number of rings (size 3 to 8) (size 9 to 14) (size 15 to 20)
#    0.000    1.333    5.000    2.000    2.333    1.333 
#    0.000    0.833    0.000    2.000    0.000    0.000 
#    0.000    0.000    0.000    0.000    0.000    0.000 
#
# Total GULP energy -267899.994656 kJ/mol
# GULP energy per Si atom -5581.249889 kJ/mol
# Density = 1.731688 g / cm^3
# Si number density = 17.356379 Si / 1000 Ang^3
#
#
#
# Elastic Constant Matrix: (Units=GPa)
#
#
# Indices 1 2 3 4 5 6 
#
# 1 117.8876 46.9119 39.2538 0.0000 0.0000 0.0000
# 2 46.9119 101.3156 55.6702 0.0000 0.0000 0.0000
# 3 39.2538 55.6702 95.4033 0.0000 0.0000 0.0000
# 4 0.0000 0.0000 0.0000 63.9321 0.0000 0.0000
# 5 0.0000 0.0000 0.0000 0.0000 20.8754 0.0000
# 6 0.0000 0.0000 0.0000 0.0000 0.0000 11.2156
#
#
#
# Elastic Compliance Matrix: (Units=1/GPa)
#
#
# Indices 1 2 3 4 5 6 
#
# 1 0.010711 -0.003736 -0.002227 0.000000 0.000000 0.000000
# 2 -0.003736 0.015831 -0.007701 0.000000 0.000000 0.000000
# 3 -0.002227 -0.007701 0.015892 0.000000 0.000000 0.000000
# 4 0.000000 0.000000 0.000000 0.015642 0.000000 0.000000
# 5 0.000000 0.000000 0.000000 0.000000 0.047903 0.000000
# 6 0.000000 0.000000 0.000000 0.000000 0.000000 0.089162
#
#
# Mechanical properties :
#
#
# Convention : Reuss Voigt Hill
#
# Bulk Modulus (GPa) = 66.19642 66.47537 66.33589
# Shear Modulus (GPa) = 21.97771 30.72267 26.35019
#
# Velocity S-wave (km/s) = 3.56232 4.21183 3.90062
# Velocity P-wave (km/s) = 7.42580 7.87630 7.65436
#
# Compressibility (1/GPa) = 0.01510656
#
# Stress axis : x y z
#
# Youngs Moduli (GPa) = 93.36381 63.16599 62.92530
#
# Poissons Ratio (x) = 0.23597 0.14014
# Poissons Ratio (y) = 0.34877 0.48458
# Poissons Ratio (z) = 0.20793 0.48644
#
# Static dielectric constant tensor:
#      x y z
#    x 1.610630 0.000000 0.000000 
#    y 0.000000 1.570690 0.000000 
#    z 0.000000 0.000000 1.609950 
# 
# From -- ./inp_files/6474.got.cif
#   From: 2010.05.17/outbox.cif.g08.bks.cpg/sg73_4_cif.got.tgz:6474.got - 2010.06.03 17:35:07.
