data_PCOD9530003
_publ_section_title
;
Structure prediction by ZEFSAII (Michael W. Deem and Ramdas Pophale) SiO2 
 PCOD9530003
Probable space group: I B C A 
;
_chemical_formula_sum "Si O2"
_cell_formula_units_Z 96
_cell_length_a 9.262191
_cell_length_b 14.485458
_cell_length_c 32.050981
_cell_angle_alpha 90.000000
_cell_angle_beta 90.000000
_cell_angle_gamma 90.000000
_cell_volume 4300.186491
_symmetry_space_group_name_H-M "I B C A "
_symmetry_group_IT_number 73
_symmetry_cell_setting 'orthorhombic'
loop_
_space_group_symop_operation_xyz
x,y,z
-x,1/2-y,z
x,-y,1/2-z
1/2-x,y,-z
-x,-y,-z
x,1/2+y,-z
-x,y,1/2+z
1/2+x,-y,z
1/2+x,1/2+y,1/2+z
1/2-x,-y,1/2+z
1/2+x,1/2-y,-z
-x,1/2+y,1/2-z
1/2-x,1/2-y,1/2-z
1/2+x,y,1/2-z
1/2-x,1/2+y,z
x,1/2-y,1/2+z
loop_
_atom_site_type_symbol
_atom_site_label
_atom_site_fract_x
_atom_site_fract_y
_atom_site_fract_z
Si Si1 0.124454 0.568983 0.656506
Si Si2 0.924314 0.341159 0.547281
Si Si3 0.000000 0.750000 0.321357
Si Si4 0.250000 0.477679 0.000000
Si Si5 0.090059 0.552825 0.293588
Si Si6 0.774318 0.740667 0.116294
Si Si7 0.801479 0.574172 0.413537
O O1 0.244527 0.568107 0.692977
O O2 0.114782 0.672574 0.638883
O O3 0.189429 0.507566 0.619166
O O4 0.985865 0.515503 0.673273
O O5 0.882739 0.410227 0.510738
O O6 0.787199 0.309988 0.574729
O O7 0.000000 0.250000 0.529885
O O8 0.037859 0.384423 0.579843
O O9 0.012888 0.653671 0.295896
O O10 0.140648 0.751136 0.351088
O O11 0.262863 0.538061 0.041022
O O12 0.080623 0.500000 0.250000
O O13 0.803559 0.844767 0.101879
#
# Coordination Sequence:
#
# PCOD9530003 Si02
#       7
#    16  16   8   8  16  16  16
#     4  11  22  42  72  93 140 176 228 273 344 416
#     4  10  21  39  62  89 130 174 230 271 336 401
#     4  10  18  40  72  86 126 188 218 250 354 430
#     4  12  24  36  64  96 132 178 228 294 330 388
#     4  11  24  44  70 104 131 173 224 288 344 418
#     4  10  18  38  65  91 120 187 226 259 328 422
#     4  11  21  39  63  91 131 173 226 267 338 399
#
# _framework density 22.324611999999998
#
# number of rings (size 3 to 8) (size 9 to 14) (size 15 to 20)
#    0.000    1.333    5.833    2.000    0.000    2.667 
#    3.000    2.500    0.000    0.000    0.000    0.000 
#    0.000    0.000    0.000    0.000    0.000    0.000 
#
# Total GULP energy -268314.435825 kJ/mol
# GULP energy per Si atom -5589.884080 kJ/mol
# Density = 2.227380 g / cm^3
# Si number density = 22.324612 Si / 1000 Ang^3
#
#
#
# Elastic Constant Matrix: (Units=GPa)
#
#
# Indices 1 2 3 4 5 6 
#
# 1 47.9633 18.0721 7.3438 0.0000 0.0000 0.0000
# 2 18.0721 158.6221 70.3733 0.0000 0.0000 0.0000
# 3 7.3438 70.3733 121.2904 0.0000 0.0000 0.0000
# 4 0.0000 0.0000 0.0000 47.8112 0.0000 0.0000
# 5 0.0000 0.0000 0.0000 0.0000 17.5014 0.0000
# 6 0.0000 0.0000 0.0000 0.0000 0.0000 28.8479
#
#
#
# Elastic Compliance Matrix: (Units=1/GPa)
#
#
# Indices 1 2 3 4 5 6 
#
# 1 0.021787 -0.002555 0.000163 0.000000 0.000000 0.000000
# 2 -0.002555 0.008789 -0.004945 0.000000 0.000000 0.000000
# 3 0.000163 -0.004945 0.011104 0.000000 0.000000 0.000000
# 4 0.000000 0.000000 0.000000 0.020916 0.000000 0.000000
# 5 0.000000 0.000000 0.000000 0.000000 0.057138 0.000000
# 6 0.000000 0.000000 0.000000 0.000000 0.000000 0.034665
#
#
# Mechanical properties :
#
#
# Convention : Reuss Voigt Hill
#
# Bulk Modulus (GPa) = 37.02732 57.71714 47.37223
# Shear Modulus (GPa) = 28.07833 34.30453 31.19143
#
# Velocity S-wave (km/s) = 3.55030 3.92423 3.74194
# Velocity P-wave (km/s) = 5.78170 6.81487 6.31944
#
# Compressibility (1/GPa) = 0.02700709
#
# Stress axis : x y z
#
# Youngs Moduli (GPa) = 45.89930 113.77696 90.05910
#
# Poissons Ratio (x) = 0.29065 -0.01468
# Poissons Ratio (y) = 0.11725 0.44533
# Poissons Ratio (z) = -0.00748 0.56261
#
# Static dielectric constant tensor:
#      x y z
#    x 1.886550 0.000000 0.000000 
#    y 0.000000 1.863970 0.000000 
#    z 0.000000 0.000000 1.772560 
# 
# From -- ./inp_files/33989.got.cif
#   From: 2010.05.17/outbox.cif.g08.bks.cpg/sg73_17_cif.got.tgz:33989.got - 2010.06.03 17:35:07.
