data_PCOD9530762
_publ_section_title
;
Structure prediction by ZEFSAII (Michael W. Deem and Ramdas Pophale) SiO2 
 PCOD9530762
Probable space group: I B C A 
;
_chemical_formula_sum "Si O2"
_cell_formula_units_Z 64
_cell_length_a 15.746777
_cell_length_b 10.132371
_cell_length_c 17.076686
_cell_angle_alpha 90.000000
_cell_angle_beta 90.000000
_cell_angle_gamma 90.000000
_cell_volume 2724.622591
_symmetry_space_group_name_H-M "I B C A "
_symmetry_group_IT_number 73
_symmetry_cell_setting 'orthorhombic'
loop_
_space_group_symop_operation_xyz
x,y,z
-x,1/2-y,z
x,-y,1/2-z
1/2-x,y,-z
-x,-y,-z
x,1/2+y,-z
-x,y,1/2+z
1/2+x,-y,z
1/2+x,1/2+y,1/2+z
1/2-x,-y,1/2+z
1/2+x,1/2-y,-z
-x,1/2+y,1/2-z
1/2-x,1/2-y,1/2-z
1/2+x,y,1/2-z
1/2-x,1/2+y,z
x,1/2-y,1/2+z
loop_
_atom_site_type_symbol
_atom_site_label
_atom_site_fract_x
_atom_site_fract_y
_atom_site_fract_z
Si Si1 0.514265 0.899024 0.685950
Si Si2 0.791419 0.279933 0.912549
Si Si3 0.166056 0.995791 0.120856
Si Si4 0.089323 0.506676 0.042929
O O1 0.500000 0.750000 0.712587
O O2 0.579494 0.903376 0.612995
O O3 0.547596 0.000000 0.750000
O O4 0.423467 0.960359 0.657838
O O5 0.801382 0.149849 0.860149
O O6 0.733997 0.389363 0.869740
O O7 0.883062 0.350184 0.925605
O O8 0.750000 0.261435 0.000000
O O9 0.153094 0.978502 0.027020
O O10 0.000000 0.500000 0.000000
#
# Coordination Sequence:
#
# PCOD9530762 Si02
#       4
#    16  16  16  16
#     4  11  27  45  65  92 132 177 229 274 329 389
#     4  10  20  37  65 101 136 165 210 268 335 392
#     4  10  23  40  68 100 131 168 217 272 335 399
#     4   9  21  37  67  97 129 163 217 274 328 384
#
# _framework density 23.489491000000001
#
# number of rings (size 3 to 8) (size 9 to 14) (size 15 to 20)
#    0.000    2.000    0.000    2.250   17.500    2.000 
#    0.000    2.500    0.000    0.000    0.000    0.000 
#    0.000    0.000    0.000    0.000    0.000    0.000 
#
# Total GULP energy -178726.632847 kJ/mol
# GULP energy per Si atom -5585.207276 kJ/mol
# Density = 2.343603 g / cm^3
# Si number density = 23.489491 Si / 1000 Ang^3
#
#
#
# Elastic Constant Matrix: (Units=GPa)
#
#
# Indices 1 2 3 4 5 6 
#
# 1 81.3128 20.8772 -10.1740 0.0000 0.0000 0.0000
# 2 20.8772 127.5532 -2.3553 0.0000 0.0000 0.0000
# 3 -10.1740 -2.3553 45.6269 0.0000 0.0000 0.0000
# 4 0.0000 0.0000 0.0000 15.7455 0.0000 0.0000
# 5 0.0000 0.0000 0.0000 0.0000 2.3928 0.0000
# 6 0.0000 0.0000 0.0000 0.0000 0.0000 33.7666
#
#
#
# Elastic Compliance Matrix: (Units=1/GPa)
#
#
# Indices 1 2 3 4 5 6 
#
# 1 0.013194 -0.002107 0.002833 0.000000 0.000000 0.000000
# 2 -0.002107 0.008184 -0.000047 0.000000 0.000000 0.000000
# 3 0.002833 -0.000047 0.022546 0.000000 0.000000 0.000000
# 4 0.000000 0.000000 0.000000 0.063510 0.000000 0.000000
# 5 0.000000 0.000000 0.000000 0.000000 0.417922 0.000000
# 6 0.000000 0.000000 0.000000 0.000000 0.000000 0.029615
#
#
# Mechanical properties :
#
#
# Convention : Reuss Voigt Hill
#
# Bulk Modulus (GPa) = 22.08429 30.13207 26.10818
# Shear Modulus (GPa) = 8.79186 26.79064 17.79125
#
# Velocity S-wave (km/s) = 1.93675 3.38085 2.75510
# Velocity P-wave (km/s) = 3.79783 5.30056 4.61083
#
# Compressibility (1/GPa) = 0.04528105
#
# Stress axis : x y z
#
# Youngs Moduli (GPa) = 75.79376 122.19140 44.35340
#
# Poissons Ratio (x) = 0.25748 -0.12566
# Poissons Ratio (y) = 0.15971 0.00210
# Poissons Ratio (z) = -0.21474 0.00579
#
# Static dielectric constant tensor:
#      x y z
#    x 1.902880 0.000000 0.000000 
#    y 0.000000 1.916280 0.000000 
#    z 0.000000 0.000000 1.965100 
# 
# From -- ./inp_files/5191.got.cif
#   From: 2010.05.17/outbox.cif.g08.bks.cpg/sg73_3_cif.got.tgz:5191.got - 2010.06.03 17:35:07.
