data_PCOD9530078
_publ_section_title
;
Structure prediction by ZEFSAII (Michael W. Deem and Ramdas Pophale) SiO2 
 PCOD9530078
Probable space group: I B C A 
;
_chemical_formula_sum "Si O2"
_cell_formula_units_Z 120
_cell_length_a 10.465654
_cell_length_b 24.079017
_cell_length_c 25.905393
_cell_angle_alpha 90.000000
_cell_angle_beta 90.000000
_cell_angle_gamma 90.000000
_cell_volume 6528.227959
_symmetry_space_group_name_H-M "I B C A "
_symmetry_group_IT_number 73
_symmetry_cell_setting 'orthorhombic'
loop_
_space_group_symop_operation_xyz
x,y,z
-x,1/2-y,z
x,-y,1/2-z
1/2-x,y,-z
-x,-y,-z
x,1/2+y,-z
-x,y,1/2+z
1/2+x,-y,z
1/2+x,1/2+y,1/2+z
1/2-x,-y,1/2+z
1/2+x,1/2-y,-z
-x,1/2+y,1/2-z
1/2-x,1/2-y,1/2-z
1/2+x,y,1/2-z
1/2-x,1/2+y,z
x,1/2-y,1/2+z
loop_
_atom_site_type_symbol
_atom_site_label
_atom_site_fract_x
_atom_site_fract_y
_atom_site_fract_z
Si Si1 0.668251 0.319377 0.793189
Si Si2 0.000000 0.750000 0.870922
Si Si3 0.186982 0.658676 0.387334
Si Si4 0.591841 0.106945 0.689251
Si Si5 0.543245 0.413701 0.302517
Si Si6 0.103368 0.201418 0.320218
Si Si7 0.747229 0.452456 0.560821
Si Si8 0.482564 0.510368 0.881874
O O1 0.605679 0.276390 0.832796
O O2 0.800956 0.345528 0.810563
O O3 0.573140 0.371800 0.794050
O O4 0.669953 0.294656 0.735663
O O5 0.931321 0.699421 0.900838
O O6 0.142080 0.620929 0.338181
O O7 0.300570 0.697625 0.367554
O O8 0.234341 0.613342 0.427989
O O9 0.598439 0.077065 0.745222
O O10 0.462838 0.141499 0.682404
O O11 0.587988 0.063078 0.643572
O O12 0.496958 0.467087 0.334421
O O13 0.000000 0.250000 0.324757
O O14 0.750000 0.463063 0.500000
O O15 0.616057 0.473730 0.589349
O O16 0.875288 0.481519 0.582844
#
# Coordination Sequence:
#
# PCOD9530078 Si02
#       8
#    16   8  16  16  16  16  16  16
#     4  10  19  31  50  83 120 165 202 229 268 339
#     4  10  20  34  58  80 116 162 204 242 282 350
#     4  10  20  38  55  84 114 153 200 238 297 343
#     4  11  20  32  52  85 127 157 195 232 281 356
#     4   9  20  32  52  83 124 158 187 227 278 354
#     4  11  20  31  52  80 120 161 199 237 277 336
#     4  11  24  44  67  86 115 149 201 263 312 358
#     4  11  22  39  62  91 116 157 195 242 307 364
#
# _framework density 18.381710999999999
#
# number of rings (size 3 to 8) (size 9 to 14) (size 15 to 20)
#    0.000    1.600    3.333    2.400    0.000    1.067 
#    0.000    2.667    1.467    0.000    0.000    0.000 
#    0.000    0.000    0.000    0.000    0.000    0.000 
#
# Total GULP energy -334514.276706 kJ/mol
# GULP energy per Si atom -5575.237945 kJ/mol
# Density = 1.833987 g / cm^3
# Si number density = 18.381711 Si / 1000 Ang^3
#
#
#
# Elastic Constant Matrix: (Units=GPa)
#
#
# Indices 1 2 3 4 5 6 
#
# 1 67.6581 27.5482 27.8018 0.0000 0.0000 0.0000
# 2 27.5482 92.1256 33.0441 0.0000 0.0000 0.0000
# 3 27.8018 33.0441 64.7734 0.0000 0.0000 0.0000
# 4 0.0000 0.0000 0.0000 16.4919 0.0000 0.0000
# 5 0.0000 0.0000 0.0000 0.0000 17.9368 0.0000
# 6 0.0000 0.0000 0.0000 0.0000 0.0000 30.0466
#
#
#
# Elastic Compliance Matrix: (Units=1/GPa)
#
#
# Indices 1 2 3 4 5 6 
#
# 1 0.018743 -0.003328 -0.006347 0.000000 0.000000 0.000000
# 2 -0.003328 0.013877 -0.005651 0.000000 0.000000 0.000000
# 3 -0.006347 -0.005651 0.021045 0.000000 0.000000 0.000000
# 4 0.000000 0.000000 0.000000 0.060636 0.000000 0.000000
# 5 0.000000 0.000000 0.000000 0.000000 0.055751 0.000000
# 6 0.000000 0.000000 0.000000 0.000000 0.000000 0.033282
#
#
# Mechanical properties :
#
#
# Convention : Reuss Voigt Hill
#
# Bulk Modulus (GPa) = 43.45253 44.59390 44.02321
# Shear Modulus (GPa) = 20.69040 21.97257 21.33148
#
# Velocity S-wave (km/s) = 3.35863 3.46113 3.41027
# Velocity P-wave (km/s) = 6.22341 6.34706 6.28554
#
# Compressibility (1/GPa) = 0.02301362
#
# Stress axis : x y z
#
# Youngs Moduli (GPa) = 53.35191 72.06263 47.51622
#
# Poissons Ratio (x) = 0.23984 0.30159
# Poissons Ratio (y) = 0.17757 0.26850
# Poissons Ratio (z) = 0.33863 0.40721
#
# Static dielectric constant tensor:
#      x y z
#    x 1.686150 0.000000 0.000000 
#    y 0.000000 1.656950 0.000000 
#    z 0.000000 0.000000 1.614630 
# 
# From -- ./inp_files/31906.got.cif
#   From: 2010.05.17/outbox.cif.g08.bks.cpg/sg73_16_cif.got.tgz:31906.got - 2010.06.03 17:35:07.
