data_PCOD9530202
_publ_section_title
;
Structure prediction by ZEFSAII (Michael W. Deem and Ramdas Pophale) SiO2 
 PCOD9530202
Probable space group: I B C A 
;
_chemical_formula_sum "Si O2"
_cell_formula_units_Z 80
_cell_length_a 20.840949
_cell_length_b 10.562116
_cell_length_c 16.419048
_cell_angle_alpha 90.000000
_cell_angle_beta 90.000000
_cell_angle_gamma 90.000000
_cell_volume 3614.235074
_symmetry_space_group_name_H-M "I B C A "
_symmetry_group_IT_number 73
_symmetry_cell_setting 'orthorhombic'
loop_
_space_group_symop_operation_xyz
x,y,z
-x,1/2-y,z
x,-y,1/2-z
1/2-x,y,-z
-x,-y,-z
x,1/2+y,-z
-x,y,1/2+z
1/2+x,-y,z
1/2+x,1/2+y,1/2+z
1/2-x,-y,1/2+z
1/2+x,1/2-y,-z
-x,1/2+y,1/2-z
1/2-x,1/2-y,1/2-z
1/2+x,y,1/2-z
1/2-x,1/2+y,z
x,1/2-y,1/2+z
loop_
_atom_site_type_symbol
_atom_site_label
_atom_site_fract_x
_atom_site_fract_y
_atom_site_fract_z
Si Si1 0.000000 0.250000 0.371254
Si Si2 0.194990 0.288039 0.634447
Si Si3 0.394326 0.716227 0.485779
Si Si4 0.414664 0.137220 0.765562
Si Si5 0.216179 0.563364 0.587634
Si Si6 0.000000 0.750000 0.399392
O O1 0.940408 0.200585 0.426711
O O2 0.961416 0.338790 0.309852
O O3 0.157024 0.279747 0.546754
O O4 0.144694 0.273457 0.708771
O O5 0.220729 0.430900 0.633945
O O6 0.247349 0.178374 0.631993
O O7 0.355320 0.613080 0.434127
O O8 0.449439 0.670015 0.547566
O O9 0.460418 0.154077 0.843536
O O10 0.386921 0.000000 0.750000
O O11 0.250000 0.545190 0.500000
#
# Coordination Sequence:
#
# PCOD9530202 Si02
#       6
#     8  16  16  16  16   8
#     4  10  20  36  56  84 116 150 190 234 292 350
#     4  10  21  37  59  86 118 153 194 240 288 341
#     4   9  18  34  58  85 114 147 191 243 291 341
#     4  10  20  36  56  80 117 158 190 234 289 348
#     4  10  19  35  59  87 115 150 194 244 290 337
#     4   8  18  34  54  84 114 148 190 234 292 348
#
# _framework density 22.134699000000001
#
# number of rings (size 3 to 8) (size 9 to 14) (size 15 to 20)
#    0.000    2.400    0.000    3.000    0.000    1.600 
#    0.000   14.000    0.000    0.000    0.000    0.000 
#    0.000    0.000    0.000    0.000    0.000    0.000 
#
# Total GULP energy -222673.715866 kJ/mol
# GULP energy per Si atom -5566.842897 kJ/mol
# Density = 2.208432 g / cm^3
# Si number density = 22.134699 Si / 1000 Ang^3
#
#
#
# Elastic Constant Matrix: (Units=GPa)
#
#
# Indices 1 2 3 4 5 6 
#
# 1 87.4761 28.4109 21.2213 0.0000 0.0000 0.0000
# 2 28.4109 86.1269 5.6165 0.0000 0.0000 0.0000
# 3 21.2213 5.6165 36.6172 0.0000 0.0000 0.0000
# 4 0.0000 0.0000 0.0000 -2.2097 0.0000 0.0000
# 5 0.0000 0.0000 0.0000 0.0000 22.8275 0.0000
# 6 0.0000 0.0000 0.0000 0.0000 0.0000 17.9330
#
#
#
# Elastic Compliance Matrix: (Units=1/GPa)
#
#
# Indices 1 2 3 4 5 6 
#
# 1 0.014759 -0.004354 -0.007886 0.000000 0.000000 0.000000
# 2 -0.004354 0.013013 0.000528 0.000000 0.000000 0.000000
# 3 -0.007886 0.000528 0.031799 0.000000 0.000000 0.000000
# 4 0.000000 0.000000 0.000000 -0.452555 0.000000 0.000000
# 5 0.000000 0.000000 0.000000 0.000000 0.043807 0.000000
# 6 0.000000 0.000000 0.000000 0.000000 0.000000 0.055763
#
#
# Mechanical properties :
#
#
# Convention : Reuss Voigt Hill
#
# Bulk Modulus (GPa) = 27.66579 35.63526 31.65052
# Shear Modulus (GPa) = -19.38420 18.04161 -0.67130
#
# Velocity S-wave (km/s) = -2.96250 2.85806 -0.55130
# Velocity P-wave (km/s) = 0.90780 5.19861 3.73160
#
# Compressibility (1/GPa) = 0.03614573
#
# Stress axis : x y z
#
# Youngs Moduli (GPa) = 67.75567 76.84776 31.44788
#
# Poissons Ratio (x) = 0.33462 0.24798
# Poissons Ratio (y) = 0.29503 -0.01659
# Poissons Ratio (z) = 0.53429 -0.04054
#
# Static dielectric constant tensor:
#      x y z
#    x 1.829230 0.000000 0.000000 
#    y 0.000000 1.776330 0.000000 
#    z 0.000000 0.000000 1.928320 
# 
# From -- ./inp_files/11800.got.cif
#   From: 2010.05.17/outbox.cif.g08.bks.cpg/sg73_6_cif.got.tgz:11800.got - 2010.06.03 17:35:07.
