data_PCOD9530982
_publ_section_title
;
Structure prediction by ZEFSAII (Michael W. Deem and Ramdas Pophale) SiO2 
 PCOD9530982
Probable space group: I B C A 
;
_chemical_formula_sum "Si O2"
_cell_formula_units_Z 120
_cell_length_a 26.593951
_cell_length_b 25.315428
_cell_length_c 8.819280
_cell_angle_alpha 90.000000
_cell_angle_beta 90.000000
_cell_angle_gamma 90.000000
_cell_volume 5937.467830
_symmetry_space_group_name_H-M "I B C A "
_symmetry_group_IT_number 73
_symmetry_cell_setting 'orthorhombic'
loop_
_space_group_symop_operation_xyz
x,y,z
-x,1/2-y,z
x,-y,1/2-z
1/2-x,y,-z
-x,-y,-z
x,1/2+y,-z
-x,y,1/2+z
1/2+x,-y,z
1/2+x,1/2+y,1/2+z
1/2-x,-y,1/2+z
1/2+x,1/2-y,-z
-x,1/2+y,1/2-z
1/2-x,1/2-y,1/2-z
1/2+x,y,1/2-z
1/2-x,1/2+y,z
x,1/2-y,1/2+z
loop_
_atom_site_type_symbol
_atom_site_label
_atom_site_fract_x
_atom_site_fract_y
_atom_site_fract_z
Si Si1 0.755292 0.441993 0.677589
Si Si2 0.154136 0.093472 0.244583
Si Si3 0.402183 0.500000 0.250000
Si Si4 0.891497 0.703226 0.607117
Si Si5 0.306303 0.880179 0.429059
Si Si6 0.921135 0.312073 0.242201
Si Si7 0.020220 0.942874 0.458626
Si Si8 0.028673 0.132399 0.763362
O O1 0.746997 0.500000 0.750000
O O2 0.750000 0.451492 0.500000
O O3 0.710535 0.399726 0.701807
O O4 0.800203 0.414906 0.775610
O O5 0.134512 0.041096 0.330024
O O6 0.116323 0.140057 0.275898
O O7 0.161918 0.089295 0.061026
O O8 0.436238 0.540989 0.157903
O O9 0.837017 0.674584 0.596785
O O10 0.916351 0.698360 0.439186
O O11 0.899850 0.762567 0.664551
O O12 0.923809 0.669731 0.728172
O O13 0.250000 0.872544 0.500000
O O14 0.977961 0.331738 0.278214
O O15 0.979988 0.904777 0.380164
O O16 0.036606 0.909424 0.601684
O O17 0.000000 0.000000 0.500000
#
# Coordination Sequence:
#
# PCOD9530982 Si02
#       8
#    16  16   8  16  16  16  16  16
#     4  11  22  39  64  97 130 167 211 265 328 395
#     4  10  20  40  66  89 122 171 214 261 327 398
#     4  12  20  38  66  88 130 174 212 256 332 388
#     4  11  25  43  66  97 125 174 228 275 332 396
#     4   9  21  45  67  90 129 172 220 279 331 387
#     4  11  24  43  64  91 129 171 218 276 333 388
#     4  12  22  39  60  91 130 175 215 262 325 389
#     4  12  23  42  62  91 135 172 222 265 326 400
#
# _framework density 20.210635
#
# number of rings (size 3 to 8) (size 9 to 14) (size 15 to 20)
#    0.000    1.067    4.667    2.400    1.867    2.133 
#    2.400    6.667    0.000    0.000    0.000    0.000 
#    0.000    0.000    0.000    0.000    0.000    0.000 
#
# Total GULP energy -334137.720465 kJ/mol
# GULP energy per Si atom -5568.962008 kJ/mol
# Density = 2.016464 g / cm^3
# Si number density = 20.210635 Si / 1000 Ang^3
#
#
#
# Elastic Constant Matrix: (Units=GPa)
#
#
# Indices 1 2 3 4 5 6 
#
# 1 77.2437 31.6844 5.5685 0.0000 0.0000 0.0000
# 2 31.6844 128.5766 17.5396 0.0000 0.0000 0.0000
# 3 5.5685 17.5396 57.9692 0.0000 0.0000 0.0000
# 4 0.0000 0.0000 0.0000 42.1486 0.0000 0.0000
# 5 0.0000 0.0000 0.0000 0.0000 7.9291 0.0000
# 6 0.0000 0.0000 0.0000 0.0000 0.0000 21.9486
#
#
#
# Elastic Compliance Matrix: (Units=1/GPa)
#
#
# Indices 1 2 3 4 5 6 
#
# 1 0.014408 -0.003506 -0.000323 0.000000 0.000000 0.000000
# 2 -0.003506 0.008966 -0.002376 0.000000 0.000000 0.000000
# 3 -0.000323 -0.002376 0.018000 0.000000 0.000000 0.000000
# 4 0.000000 0.000000 0.000000 0.023726 0.000000 0.000000
# 5 0.000000 0.000000 0.000000 0.000000 0.126118 0.000000
# 6 0.000000 0.000000 0.000000 0.000000 0.000000 0.045561
#
#
# Mechanical properties :
#
#
# Convention : Reuss Voigt Hill
#
# Bulk Modulus (GPa) = 34.52672 41.48603 38.00638
# Shear Modulus (GPa) = 19.31669 28.33838 23.82754
#
# Velocity S-wave (km/s) = 3.09490 3.74859 3.43732
# Velocity P-wave (km/s) = 5.46734 6.26956 5.88214
#
# Compressibility (1/GPa) = 0.02896307
#
# Stress axis : x y z
#
# Youngs Moduli (GPa) = 69.40792 111.53737 55.55419
#
# Poissons Ratio (x) = 0.39108 0.01795
# Poissons Ratio (y) = 0.24336 0.13199
# Poissons Ratio (z) = 0.02243 0.26500
#
# Static dielectric constant tensor:
#      x y z
#    x 1.776680 0.000000 0.000000 
#    y 0.000000 1.676640 0.000000 
#    z 0.000000 0.000000 1.597080 
# 
# From -- ./inp_files/8044.got.cif
#   From: 2010.05.17/outbox.cif.g08.bks.cpg/sg73_5_cif.got.tgz:8044.got - 2010.06.03 17:35:07.
