data_PCOD9530675
_publ_section_title
;
Structure prediction by ZEFSAII (Michael W. Deem and Ramdas Pophale) SiO2 
 PCOD9530675
Probable space group: I B C A 
;
_chemical_formula_sum "Si O2"
_cell_formula_units_Z 56
_cell_length_a 12.402773
_cell_length_b 14.527355
_cell_length_c 11.152072
_cell_angle_alpha 90.000000
_cell_angle_beta 90.000000
_cell_angle_gamma 90.000000
_cell_volume 2009.374605
_symmetry_space_group_name_H-M "I B C A "
_symmetry_group_IT_number 73
_symmetry_cell_setting 'orthorhombic'
loop_
_space_group_symop_operation_xyz
x,y,z
-x,1/2-y,z
x,-y,1/2-z
1/2-x,y,-z
-x,-y,-z
x,1/2+y,-z
-x,y,1/2+z
1/2+x,-y,z
1/2+x,1/2+y,1/2+z
1/2-x,-y,1/2+z
1/2+x,1/2-y,-z
-x,1/2+y,1/2-z
1/2-x,1/2-y,1/2-z
1/2+x,y,1/2-z
1/2-x,1/2+y,z
x,1/2-y,1/2+z
loop_
_atom_site_type_symbol
_atom_site_label
_atom_site_fract_x
_atom_site_fract_y
_atom_site_fract_z
Si Si1 0.811162 0.870482 0.136732
Si Si2 0.571848 0.096107 0.326873
Si Si3 0.000000 0.250000 0.858057
Si Si4 0.655270 0.085236 0.905521
O O1 0.684164 0.877159 0.112361
O O2 0.847964 0.975182 0.114071
O O3 0.890146 0.791843 0.087887
O O4 0.972287 0.896918 0.420914
O O5 0.542983 0.168046 0.224676
O O6 0.581777 0.000000 0.250000
O O7 0.815116 0.136804 0.217314
O O8 0.750000 0.103783 0.000000
#
# Coordination Sequence:
#
# PCOD9530675 Si02
#       4
#    16  16   8  16
#     4  10  20  38  61  98 133 184 245 292 365 439
#     4  11  19  38  63  97 132 187 244 287 369 441
#     4  10  20  36  64  92 134 184 234 304 348 428
#     4  10  20  36  63  96 134 181 242 301 360 435
#
# _framework density 27.869367
#
# number of rings (size 3 to 8) (size 9 to 14) (size 15 to 20)
#    0.000    1.714    8.571    0.857    0.000    1.143 
#    0.000    0.000    0.000   24.000    0.000    0.000 
#    0.000    0.000    0.000    2.857    0.000    1.143 
#
# Total GULP energy -156760.478587 kJ/mol
# GULP energy per Si atom -5598.588521 kJ/mol
# Density = 2.780593 g / cm^3
# Si number density = 27.869367 Si / 1000 Ang^3
#
#
#
# Elastic Constant Matrix: (Units=GPa)
#
#
# Indices 1 2 3 4 5 6 
#
# 1 341.3950 75.8027 66.8732 0.0000 0.0000 0.0000
# 2 75.8027 135.4987 40.1678 0.0000 0.0000 0.0000
# 3 66.8732 40.1678 82.3784 0.0000 0.0000 0.0000
# 4 0.0000 0.0000 0.0000 27.2086 0.0000 0.0000
# 5 0.0000 0.0000 0.0000 0.0000 37.9752 0.0000
# 6 0.0000 0.0000 0.0000 0.0000 0.0000 62.9269
#
#
#
# Elastic Compliance Matrix: (Units=1/GPa)
#
#
# Indices 1 2 3 4 5 6 
#
# 1 0.003690 -0.001375 -0.002325 0.000000 0.000000 0.000000
# 2 -0.001375 0.009140 -0.003340 0.000000 0.000000 0.000000
# 3 -0.002325 -0.003340 0.015655 0.000000 0.000000 0.000000
# 4 0.000000 0.000000 0.000000 0.036753 0.000000 0.000000
# 5 0.000000 0.000000 0.000000 0.000000 0.026333 0.000000
# 6 0.000000 0.000000 0.000000 0.000000 0.000000 0.015891
#
#
# Mechanical properties :
#
#
# Convention : Reuss Voigt Hill
#
# Bulk Modulus (GPa) = 69.42411 102.77329 86.09870
# Shear Modulus (GPa) = 39.57454 50.71737 45.14595
#
# Velocity S-wave (km/s) = 3.77238 4.27057 4.02918
# Velocity P-wave (km/s) = 6.62866 7.82776 7.25303
#
# Compressibility (1/GPa) = 0.01440422
#
# Stress axis : x y z
#
# Youngs Moduli (GPa) = 271.01172 109.41411 63.87683
#
# Poissons Ratio (x) = 0.15045 0.14851
# Poissons Ratio (y) = 0.37265 0.21336
# Poissons Ratio (z) = 0.63008 0.36547
#
# Static dielectric constant tensor:
#      x y z
#    x 2.262300 0.000000 0.000000 
#    y 0.000000 2.083840 0.000000 
#    z 0.000000 0.000000 2.300850 
# 
# From -- ./inp_files/16586.got.cif
#   From: 2010.05.17/outbox.cif.g08.bks.cpg/sg73_9_cif.got.tgz:16586.got - 2010.06.03 17:35:07.
