data_PCOD9530952
_publ_section_title
;
Structure prediction by ZEFSAII (Michael W. Deem and Ramdas Pophale) SiO2 
 PCOD9530952
Probable space group: I B C A 
;
_chemical_formula_sum "Si O2"
_cell_formula_units_Z 120
_cell_length_a 29.294412
_cell_length_b 13.951708
_cell_length_c 15.166240
_cell_angle_alpha 90.000000
_cell_angle_beta 90.000000
_cell_angle_gamma 90.000000
_cell_volume 6198.549699
_symmetry_space_group_name_H-M "I B C A "
_symmetry_group_IT_number 73
_symmetry_cell_setting 'orthorhombic'
loop_
_space_group_symop_operation_xyz
x,y,z
-x,1/2-y,z
x,-y,1/2-z
1/2-x,y,-z
-x,-y,-z
x,1/2+y,-z
-x,y,1/2+z
1/2+x,-y,z
1/2+x,1/2+y,1/2+z
1/2-x,-y,1/2+z
1/2+x,1/2-y,-z
-x,1/2+y,1/2-z
1/2-x,1/2-y,1/2-z
1/2+x,y,1/2-z
1/2-x,1/2+y,z
x,1/2-y,1/2+z
loop_
_atom_site_type_symbol
_atom_site_label
_atom_site_fract_x
_atom_site_fract_y
_atom_site_fract_z
Si Si1 0.698554 0.370841 0.909300
Si Si2 0.199776 0.397660 0.391822
Si Si3 0.381030 0.537621 0.650776
Si Si4 0.500000 0.750000 0.866310
Si Si5 0.458986 0.061521 0.040616
Si Si6 0.164461 0.782528 0.775658
Si Si7 0.897554 0.959968 0.882077
Si Si8 0.413248 0.149645 0.705269
O O1 0.746712 0.423417 0.893596
O O2 0.694395 0.281286 0.842375
O O3 0.655895 0.438412 0.886994
O O4 0.694207 0.344068 0.013406
O O5 0.162386 0.482483 0.392016
O O6 0.190831 0.341759 0.300045
O O7 0.384912 0.500000 0.750000
O O8 0.427823 0.505198 0.604304
O O9 0.366775 0.647902 0.663371
O O10 0.520264 0.841520 0.918845
O O11 0.457909 0.788958 0.810241
O O12 0.423406 0.085869 0.963690
O O13 0.500000 0.000000 0.000000
O O14 0.130643 0.715358 0.719667
O O15 0.916831 0.910154 0.794955
O O16 0.906749 0.072991 0.873127
#
# Coordination Sequence:
#
# PCOD9530952 Si02
#       8
#    16  16  16   8  16  16  16  16
#     4  10  21  39  65  93 127 174 212 262 324 388
#     4  10  20  40  62  93 132 165 213 265 315 389
#     4  10  22  42  64  90 130 168 207 272 327 381
#     4  12  24  40  66  96 124 170 222 260 324 388
#     4  12  25  41  66  96 128 168 218 274 324 387
#     4  10  22  41  64  95 128 169 217 266 326 389
#     4  10  22  44  61  89 131 167 208 266 327 379
#     4  10  23  42  63  89 127 170 208 268 320 384
#
# _framework density 19.359366999999999
#
# number of rings (size 3 to 8) (size 9 to 14) (size 15 to 20)
#    0.000    1.600    2.667    2.000    0.000    5.867 
#   16.800    1.333    0.000    0.000    0.000    0.000 
#    0.000    0.000    0.000    0.000    0.000    0.000 
#
# Total GULP energy -334471.695043 kJ/mol
# GULP energy per Si atom -5574.528251 kJ/mol
# Density = 1.931530 g / cm^3
# Si number density = 19.359367 Si / 1000 Ang^3
#
#
#
# Elastic Constant Matrix: (Units=GPa)
#
#
# Indices 1 2 3 4 5 6 
#
# 1 121.6268 41.9362 38.2479 0.0000 0.0000 0.0000
# 2 41.9362 59.4263 13.8582 0.0000 0.0000 0.0000
# 3 38.2479 13.8582 77.8575 0.0000 0.0000 0.0000
# 4 0.0000 0.0000 0.0000 21.6953 0.0000 0.0000
# 5 0.0000 0.0000 0.0000 0.0000 31.6289 0.0000
# 6 0.0000 0.0000 0.0000 0.0000 0.0000 7.2802
#
#
#
# Elastic Compliance Matrix: (Units=1/GPa)
#
#
# Indices 1 2 3 4 5 6 
#
# 1 0.012319 -0.007598 -0.004700 0.000000 0.000000 0.000000
# 2 -0.007598 0.022242 -0.000227 0.000000 0.000000 0.000000
# 3 -0.004700 -0.000227 0.015193 0.000000 0.000000 0.000000
# 4 0.000000 0.000000 0.000000 0.046093 0.000000 0.000000
# 5 0.000000 0.000000 0.000000 0.000000 0.031617 0.000000
# 6 0.000000 0.000000 0.000000 0.000000 0.000000 0.137358
#
#
# Mechanical properties :
#
#
# Convention : Reuss Voigt Hill
#
# Bulk Modulus (GPa) = 40.47488 49.66614 45.07051
# Shear Modulus (GPa) = 16.77260 23.11210 19.94235
#
# Velocity S-wave (km/s) = 2.94663 3.45896 3.21302
# Velocity P-wave (km/s) = 5.70345 6.45469 6.09066
#
# Compressibility (1/GPa) = 0.02470668
#
# Stress axis : x y z
#
# Youngs Moduli (GPa) = 81.17286 44.96008 65.81968
#
# Poissons Ratio (x) = 0.34159 0.30933
# Poissons Ratio (y) = 0.61672 0.01491
# Poissons Ratio (z) = 0.38148 0.01019
#
# Static dielectric constant tensor:
#      x y z
#    x 1.664020 0.000000 0.000000 
#    y 0.000000 1.709650 0.000000 
#    z 0.000000 0.000000 1.712220 
# 
# From -- ./inp_files/20143.got.cif
#   From: 2010.05.17/outbox.cif.g08.bks.cpg/sg73_11_cif.got.tgz:20143.got - 2010.06.03 17:35:07.
