data_PCOD9530176
_publ_section_title
;
Structure prediction by ZEFSAII (Michael W. Deem and Ramdas Pophale) SiO2 
 PCOD9530176
Probable space group: I B C A 
;
_chemical_formula_sum "Si O2"
_cell_formula_units_Z 120
_cell_length_a 14.135962
_cell_length_b 17.493534
_cell_length_c 26.201638
_cell_angle_alpha 90.000000
_cell_angle_beta 90.000000
_cell_angle_gamma 90.000000
_cell_volume 6479.348873
_symmetry_space_group_name_H-M "I B C A "
_symmetry_group_IT_number 73
_symmetry_cell_setting 'orthorhombic'
loop_
_space_group_symop_operation_xyz
x,y,z
-x,1/2-y,z
x,-y,1/2-z
1/2-x,y,-z
-x,-y,-z
x,1/2+y,-z
-x,y,1/2+z
1/2+x,-y,z
1/2+x,1/2+y,1/2+z
1/2-x,-y,1/2+z
1/2+x,1/2-y,-z
-x,1/2+y,1/2-z
1/2-x,1/2-y,1/2-z
1/2+x,y,1/2-z
1/2-x,1/2+y,z
x,1/2-y,1/2+z
loop_
_atom_site_type_symbol
_atom_site_label
_atom_site_fract_x
_atom_site_fract_y
_atom_site_fract_z
Si Si1 0.116309 0.555047 0.291703
Si Si2 0.500000 0.250000 0.659083
Si Si3 0.472005 0.417312 0.976304
Si Si4 0.964340 0.450954 0.124562
Si Si5 0.320694 0.691846 0.778271
Si Si6 0.244822 0.440593 0.654550
Si Si7 0.571087 0.383640 0.584422
Si Si8 0.730833 0.964972 0.557633
O O1 0.066280 0.500000 0.250000
O O2 0.147931 0.631260 0.264366
O O3 0.205032 0.505142 0.311071
O O4 0.049261 0.571252 0.339034
O O5 0.413471 0.273141 0.695723
O O6 0.542743 0.316535 0.622656
O O7 0.540562 0.403745 0.928483
O O8 0.369147 0.422855 0.949454
O O9 0.500000 0.500000 0.000000
O O10 0.465925 0.366685 0.027010
O O11 0.867465 0.445637 0.154933
O O12 0.976015 0.539211 0.107177
O O13 0.250000 0.750000 0.750000
O O14 0.274175 0.641051 0.823457
O O15 0.274958 0.465375 0.597331
O O16 0.681840 0.410394 0.576299
O O17 0.750000 0.992684 0.500000
#
# Coordination Sequence:
#
# PCOD9530176 Si02
#       8
#    16   8  16  16  16  16  16  16
#     4  10  21  38  60  89 116 158 209 258 301 368
#     4  12  26  44  66  82 132 172 210 254 326 414
#     4   9  17  31  60  96 123 150 199 254 310 368
#     4  10  19  34  67  90 121 150 205 264 312 351
#     4  11  28  43  61  86 123 166 211 262 325 384
#     4  10  21  39  62  94 119 155 209 263 308 368
#     4   9  20  36  62  95 120 165 202 250 315 383
#     4   9  17  33  62  95 125 152 203 260 311 365
#
# _framework density 18.520379999999999
#
# number of rings (size 3 to 8) (size 9 to 14) (size 15 to 20)
#    0.000    2.133    1.333    2.400    7.467    1.600 
#    0.000    0.000   11.733    0.000    0.000    0.000 
#    0.000    0.000    0.000    0.000    0.000    0.000 
#
# Total GULP energy -334205.358804 kJ/mol
# GULP energy per Si atom -5570.089313 kJ/mol
# Density = 1.847823 g / cm^3
# Si number density = 18.520380 Si / 1000 Ang^3
#
#
#
# Elastic Constant Matrix: (Units=GPa)
#
#
# Indices 1 2 3 4 5 6 
#
# 1 94.3126 44.5996 59.9254 0.0000 0.0000 0.0000
# 2 44.5996 87.8323 59.1992 0.0000 0.0000 0.0000
# 3 59.9254 59.1992 131.3389 0.0000 0.0000 0.0000
# 4 0.0000 0.0000 0.0000 21.1610 0.0000 0.0000
# 5 0.0000 0.0000 0.0000 0.0000 32.4355 0.0000
# 6 0.0000 0.0000 0.0000 0.0000 0.0000 12.5167
#
#
#
# Elastic Compliance Matrix: (Units=1/GPa)
#
#
# Indices 1 2 3 4 5 6 
#
# 1 0.016152 -0.004646 -0.005276 0.000000 0.000000 0.000000
# 2 -0.004646 0.017690 -0.005854 0.000000 0.000000 0.000000
# 3 -0.005276 -0.005854 0.012659 0.000000 0.000000 0.000000
# 4 0.000000 0.000000 0.000000 0.047257 0.000000 0.000000
# 5 0.000000 0.000000 0.000000 0.000000 0.030830 0.000000
# 6 0.000000 0.000000 0.000000 0.000000 0.000000 0.079893
#
#
# Mechanical properties :
#
#
# Convention : Reuss Voigt Hill
#
# Bulk Modulus (GPa) = 66.88522 71.21467 69.04994
# Shear Modulus (GPa) = 20.74552 23.20662 21.97607
#
# Velocity S-wave (km/s) = 3.35049 3.54366 3.44843
# Velocity P-wave (km/s) = 7.15266 7.43498 7.29518
#
# Compressibility (1/GPa) = 0.01495099
#
# Stress axis : x y z
#
# Youngs Moduli (GPa) = 61.91145 56.52956 78.99294
#
# Poissons Ratio (x) = 0.26264 0.41673
# Poissons Ratio (y) = 0.28764 0.46240
# Poissons Ratio (z) = 0.32661 0.33090
#
# Static dielectric constant tensor:
#      x y z
#    x 1.687100 0.000000 0.000000 
#    y 0.000000 1.626810 0.000000 
#    z 0.000000 0.000000 1.692120 
# 
# From -- ./inp_files/29639.got.cif
#   From: 2010.05.17/outbox.cif.g08.bks.cpg/sg73_15_cif.got.tgz:29639.got - 2010.06.03 17:35:07.
