data_PCOD9530235
_publ_section_title
;
Structure prediction by ZEFSAII (Michael W. Deem and Ramdas Pophale) SiO2 
 PCOD9530235
Probable space group: I B C A 
;
_chemical_formula_sum "Si O2"
_cell_formula_units_Z 80
_cell_length_a 7.980993
_cell_length_b 27.467331
_cell_length_c 16.836439
_cell_angle_alpha 90.000000
_cell_angle_beta 90.000000
_cell_angle_gamma 90.000000
_cell_volume 3690.826517
_symmetry_space_group_name_H-M "I B C A "
_symmetry_group_IT_number 73
_symmetry_cell_setting 'orthorhombic'
loop_
_space_group_symop_operation_xyz
x,y,z
-x,1/2-y,z
x,-y,1/2-z
1/2-x,y,-z
-x,-y,-z
x,1/2+y,-z
-x,y,1/2+z
1/2+x,-y,z
1/2+x,1/2+y,1/2+z
1/2-x,-y,1/2+z
1/2+x,1/2-y,-z
-x,1/2+y,1/2-z
1/2-x,1/2-y,1/2-z
1/2+x,y,1/2-z
1/2-x,1/2+y,z
x,1/2-y,1/2+z
loop_
_atom_site_type_symbol
_atom_site_label
_atom_site_fract_x
_atom_site_fract_y
_atom_site_fract_z
Si Si1 0.000000 0.250000 0.393207
Si Si2 0.250000 0.813035 0.000000
Si Si3 0.932339 0.655672 0.690919
Si Si4 0.805963 0.428735 0.910475
Si Si5 0.817677 0.528932 0.090102
Si Si6 0.690391 0.373979 0.355724
O O1 0.127276 0.220756 0.449306
O O2 0.094219 0.289276 0.337869
O O3 0.150824 0.848724 0.939805
O O4 0.810931 0.618205 0.645125
O O5 0.917623 0.646149 0.783974
O O6 0.119992 0.642291 0.664434
O O7 0.694158 0.473740 0.879605
O O8 0.994227 0.450796 0.911908
O O9 0.750000 0.416245 0.000000
O O10 0.702375 0.567938 0.135662
O O11 0.750000 0.526997 0.000000
#
# Coordination Sequence:
#
# PCOD9530235 Si02
#       6
#     8   8  16  16  16  16
#     4  10  24  42  62  92 120 160 216 258 320 372
#     4  10  22  42  64  86 116 162 206 256 310 386
#     4  10  24  40  60  92 123 160 209 261 307 369
#     4  10  21  36  59  93 126 161 207 247 308 377
#     4  10  19  36  59  88 125 163 200 245 304 374
#     4  10  22  41  61  88 125 158 204 250 314 371
#
# _framework density 21.675360999999999
#
# number of rings (size 3 to 8) (size 9 to 14) (size 15 to 20)
#    0.000    2.000    1.000    2.400    1.400    9.600 
#    0.000    4.000    0.000    0.000    0.000    0.000 
#    0.000    0.000    0.000    0.000    0.000    0.000 
#
# Total GULP energy -223564.349884 kJ/mol
# GULP energy per Si atom -5589.108747 kJ/mol
# Density = 2.162603 g / cm^3
# Si number density = 21.675361 Si / 1000 Ang^3
#
#
#
# Elastic Constant Matrix: (Units=GPa)
#
#
# Indices 1 2 3 4 5 6 
#
# 1 48.6909 23.0833 12.6334 0.0000 0.0000 0.0000
# 2 23.0833 145.2140 72.0368 0.0000 0.0000 0.0000
# 3 12.6334 72.0368 99.0274 0.0003 0.0000 0.0000
# 4 0.0000 0.0000 0.0003 -6.9017 0.0000 0.0000
# 5 0.0000 0.0000 0.0000 0.0000 30.5260 0.0000
# 6 0.0000 0.0000 0.0000 0.0000 0.0000 18.2943
#
#
#
# Elastic Compliance Matrix: (Units=1/GPa)
#
#
# Indices 1 2 3 4 5 6 
#
# 1 0.022222 -0.003327 -0.000415 0.000000 0.000000 0.000000
# 2 -0.003327 0.011273 -0.007776 0.000000 0.000000 0.000000
# 3 -0.000415 -0.007776 0.015808 0.000001 0.000000 0.000000
# 4 0.000000 0.000000 0.000001 -0.144893 0.000000 0.000000
# 5 0.000000 0.000000 0.000000 0.000000 0.032759 0.000000
# 6 0.000000 0.000000 0.000000 0.000000 0.000000 0.054662
#
#
# Mechanical properties :
#
#
# Convention : Reuss Voigt Hill
#
# Bulk Modulus (GPa) = 38.06956 56.49327 47.28142
# Shear Modulus (GPa) = 211.67028 20.72898 116.19963
#
# Velocity S-wave (km/s) = 9.89276 3.09583 7.32977
# Velocity P-wave (km/s) = 12.16925 6.23689 9.66927
#
# Compressibility (1/GPa) = 0.02626770
#
# Stress axis : x y z
#
# Youngs Moduli (GPa) = 44.99948 88.71135 63.26082
#
# Poissons Ratio (x) = 0.29510 0.02626
# Poissons Ratio (y) = 0.14969 0.49190
# Poissons Ratio (z) = 0.01868 0.68980
#
# Static dielectric constant tensor:
#      x y z
#    x 1.769970 0.000000 0.000000 
#    y 0.000000 1.830870 0.000000 
#    z 0.000000 0.000000 1.801650 
# 
# From -- ./inp_files/20765.got.cif
#   From: 2010.05.17/outbox.cif.g08.bks.cpg/sg73_11_cif.got.tgz:20765.got - 2010.06.03 17:35:07.
