data_PCOD9530540
_publ_section_title
;
Structure prediction by ZEFSAII (Michael W. Deem and Ramdas Pophale) SiO2 
 PCOD9530540
Probable space group: I B C A 
;
_chemical_formula_sum "Si O2"
_cell_formula_units_Z 120
_cell_length_a 28.531897
_cell_length_b 16.356032
_cell_length_c 13.591506
_cell_angle_alpha 90.000000
_cell_angle_beta 90.000000
_cell_angle_gamma 90.000000
_cell_volume 6342.729354
_symmetry_space_group_name_H-M "I B C A "
_symmetry_group_IT_number 73
_symmetry_cell_setting 'orthorhombic'
loop_
_space_group_symop_operation_xyz
x,y,z
-x,1/2-y,z
x,-y,1/2-z
1/2-x,y,-z
-x,-y,-z
x,1/2+y,-z
-x,y,1/2+z
1/2+x,-y,z
1/2+x,1/2+y,1/2+z
1/2-x,-y,1/2+z
1/2+x,1/2-y,-z
-x,1/2+y,1/2-z
1/2-x,1/2-y,1/2-z
1/2+x,y,1/2-z
1/2-x,1/2+y,z
x,1/2-y,1/2+z
loop_
_atom_site_type_symbol
_atom_site_label
_atom_site_fract_x
_atom_site_fract_y
_atom_site_fract_z
Si Si1 0.000000 0.750000 0.505534
Si Si2 0.842140 0.259902 0.489838
Si Si3 0.418639 0.323129 0.638589
Si Si4 0.779341 0.814691 0.858967
Si Si5 0.380236 0.497004 0.632391
Si Si6 0.078620 0.331263 0.124827
Si Si7 0.229256 0.481417 0.393030
Si Si8 0.779879 0.648484 0.153177
O O1 0.035927 0.795381 0.578407
O O2 0.032358 0.696086 0.433152
O O3 0.874150 0.228034 0.400778
O O4 0.808903 0.191757 0.540624
O O5 0.877020 0.284363 0.577712
O O6 0.811745 0.333704 0.442667
O O7 0.406310 0.414577 0.605691
O O8 0.424257 0.319030 0.757049
O O9 0.741941 0.889027 0.858745
O O10 0.757205 0.723866 0.851401
O O11 0.806208 0.834618 0.756972
O O12 0.378874 0.500000 0.750000
O O13 0.409108 0.575345 0.600193
O O14 0.325995 0.495900 0.603768
O O15 0.250000 0.484744 0.500000
O O16 0.255104 0.560015 0.343704
#
# Coordination Sequence:
#
# PCOD9530540 Si02
#       8
#     8  16  16  16  16  16  16  16
#     4  10  22  38  62  86 106 134 168 220 288 350
#     4  11  21  35  55  80 112 154 191 229 277 323
#     4  10  21  38  59  83 110 139 178 225 278 340
#     4  11  22  35  52  77 113 154 197 241 279 319
#     4  10  20  35  55  78 107 143 181 223 267 317
#     4  10  21  38  59  83 110 139 178 225 278 340
#     4  12  22  34  55  82 115 155 198 236 272 321
#     4  11  22  35  52  77 113 154 197 241 279 319
#
# _framework density 18.9193
#
# number of rings (size 3 to 8) (size 9 to 14) (size 15 to 20)
#    0.000    1.333    0.000    7.600    0.000    4.800 
#    0.000    0.000    0.000    0.000    0.000   14.933 
#    0.000    0.000    0.000    0.000    0.000    0.000 
#
# Total GULP energy -334541.615789 kJ/mol
# GULP energy per Si atom -5575.693596 kJ/mol
# Density = 1.887624 g / cm^3
# Si number density = 18.919300 Si / 1000 Ang^3
#
#
#
# Elastic Constant Matrix: (Units=GPa)
#
#
# Indices 1 2 3 4 5 6 
#
# 1 106.6615 55.8114 35.6468 0.0000 0.0000 0.0000
# 2 55.8114 126.7546 31.3577 0.0000 0.0000 0.0000
# 3 35.6468 31.3577 78.1675 0.0000 0.0000 0.0000
# 4 0.0000 0.0000 0.0000 18.7651 0.0000 0.0000
# 5 0.0000 0.0000 0.0000 0.0000 8.3200 0.0000
# 6 0.0000 0.0000 0.0000 0.0000 0.0000 23.2479
#
#
#
# Elastic Compliance Matrix: (Units=1/GPa)
#
#
# Indices 1 2 3 4 5 6 
#
# 1 0.013278 -0.004828 -0.004119 0.000000 0.000000 0.000000
# 2 -0.004828 0.010514 -0.002016 0.000000 0.000000 0.000000
# 3 -0.004119 -0.002016 0.015480 0.000000 0.000000 0.000000
# 4 0.000000 0.000000 0.000000 0.053290 0.000000 0.000000
# 5 0.000000 0.000000 0.000000 0.000000 0.120192 0.000000
# 6 0.000000 0.000000 0.000000 0.000000 0.000000 0.043015
#
#
# Mechanical properties :
#
#
# Convention : Reuss Voigt Hill
#
# Bulk Modulus (GPa) = 57.64634 61.91283 59.77958
# Shear Modulus (GPa) = 17.63821 22.65112 20.14467
#
# Velocity S-wave (km/s) = 3.05665 3.46388 3.26662
# Velocity P-wave (km/s) = 6.55692 6.98525 6.77447
#
# Compressibility (1/GPa) = 0.01734716
#
# Stress axis : x y z
#
# Youngs Moduli (GPa) = 75.31291 95.11448 64.59941
#
# Poissons Ratio (x) = 0.45917 0.26606
# Poissons Ratio (y) = 0.36358 0.13024
# Poissons Ratio (z) = 0.31018 0.19177
#
# Static dielectric constant tensor:
#      x y z
#    x 1.621500 0.000000 0.000000 
#    y 0.000000 1.717280 0.000000 
#    z 0.000000 0.000000 2.023140 
# 
# From -- ./inp_files/20146.got.cif
#   From: 2010.05.17/outbox.cif.g08.bks.cpg/sg73_11_cif.got.tgz:20146.got - 2010.06.03 17:35:07.
