data_PCOD9530447
_publ_section_title
;
Structure prediction by ZEFSAII (Michael W. Deem and Ramdas Pophale) SiO2 
 PCOD9530447
Probable space group: I B C A 
;
_chemical_formula_sum "Si O2"
_cell_formula_units_Z 104
_cell_length_a 8.745108
_cell_length_b 19.416424
_cell_length_c 25.926237
_cell_angle_alpha 90.000000
_cell_angle_beta 90.000000
_cell_angle_gamma 90.000000
_cell_volume 4402.241983
_symmetry_space_group_name_H-M "I B C A "
_symmetry_group_IT_number 73
_symmetry_cell_setting 'orthorhombic'
loop_
_space_group_symop_operation_xyz
x,y,z
-x,1/2-y,z
x,-y,1/2-z
1/2-x,y,-z
-x,-y,-z
x,1/2+y,-z
-x,y,1/2+z
1/2+x,-y,z
1/2+x,1/2+y,1/2+z
1/2-x,-y,1/2+z
1/2+x,1/2-y,-z
-x,1/2+y,1/2-z
1/2-x,1/2-y,1/2-z
1/2+x,y,1/2-z
1/2-x,1/2+y,z
x,1/2-y,1/2+z
loop_
_atom_site_type_symbol
_atom_site_label
_atom_site_fract_x
_atom_site_fract_y
_atom_site_fract_z
Si Si1 0.750000 0.712528 0.000000
Si Si2 0.500000 0.250000 0.770843
Si Si3 0.554904 0.521508 0.810893
Si Si4 0.040461 0.099039 0.468669
Si Si5 0.750000 0.990435 0.000000
Si Si6 0.739066 0.096588 0.669640
Si Si7 0.242150 0.348253 0.782942
Si Si8 0.869989 0.203263 0.401258
O O1 0.607506 0.659337 0.006061
O O2 0.709391 0.758300 0.949773
O O3 0.385980 0.302203 0.801317
O O4 0.392183 0.203431 0.734545
O O5 0.533168 0.500000 0.750000
O O6 0.403370 0.546186 0.838925
O O7 0.615723 0.451558 0.835585
O O8 0.672692 0.586366 0.812929
O O9 0.892589 0.057458 0.487204
O O10 0.976910 0.142234 0.421985
O O11 0.176205 0.044389 0.459183
O O12 0.709366 0.119102 0.728302
O O13 0.744766 0.165403 0.636458
O O14 0.000000 0.250000 0.375326
#
# Coordination Sequence:
#
# PCOD9530447 Si02
#       8
#     8   8  16  16   8  16  16  16
#     4   9  19  40  62  84 117 161 214 246 320 386
#     4  10  20  32  60  88 122 162 212 254 312 370
#     4  10  21  39  62  90 125 174 216 258 314 386
#     4   9  18  34  59  90 114 156 195 253 304 376
#     4   9  17  32  62  88 117 139 204 250 300 366
#     4  11  23  37  63  89 128 164 215 264 318 367
#     4  10  20  36  59  90 123 168 211 257 306 386
#     4  10  22  38  63  90 126 164 211 264 325 383
#
# _framework density 23.624324999999999
#
# number of rings (size 3 to 8) (size 9 to 14) (size 15 to 20)
#    0.000    2.154    1.538    1.846    3.231    1.231 
#    0.000    0.000    8.462    5.538    0.000    0.000 
#    0.000    0.000    0.000    0.000    0.000    0.000 
#
# Total GULP energy -290081.832649 kJ/mol
# GULP energy per Si atom -5578.496782 kJ/mol
# Density = 2.357056 g / cm^3
# Si number density = 23.624325 Si / 1000 Ang^3
#
#
#
# Elastic Constant Matrix: (Units=GPa)
#
#
# Indices 1 2 3 4 5 6 
#
# 1 89.6450 43.9980 11.9395 0.0000 0.0000 0.0000
# 2 43.9980 139.9250 28.3704 0.0000 0.0000 0.0000
# 3 11.9395 28.3704 24.7010 0.0000 0.0000 0.0000
# 4 0.0000 0.0000 0.0000 20.3445 0.0000 0.0000
# 5 0.0000 0.0000 0.0000 0.0000 7.7907 0.0000
# 6 0.0000 0.0000 0.0000 0.0000 0.0000 62.6002
#
#
#
# Elastic Compliance Matrix: (Units=1/GPa)
#
#
# Indices 1 2 3 4 5 6 
#
# 1 0.013275 -0.003745 -0.002115 0.000000 0.000000 0.000000
# 2 -0.003745 0.010373 -0.010103 0.000000 0.000000 0.000000
# 3 -0.002115 -0.010103 0.053111 0.000000 0.000000 0.000000
# 4 0.000000 0.000000 0.000000 0.049153 0.000000 0.000000
# 5 0.000000 0.000000 0.000000 0.000000 0.128359 0.000000
# 6 0.000000 0.000000 0.000000 0.000000 0.000000 0.015974
#
#
# Mechanical properties :
#
#
# Convention : Reuss Voigt Hill
#
# Bulk Modulus (GPa) = 22.30585 46.98744 34.64664
# Shear Modulus (GPa) = 15.76708 29.47793 22.62251
#
# Velocity S-wave (km/s) = 2.58623 3.53622 3.09786
# Velocity P-wave (km/s) = 4.28725 6.05027 5.24339
#
# Compressibility (1/GPa) = 0.04483128
#
# Stress axis : x y z
#
# Youngs Moduli (GPa) = 75.32933 96.40493 18.82859
#
# Poissons Ratio (x) = 0.36108 0.03982
# Poissons Ratio (y) = 0.28214 0.19023
# Poissons Ratio (z) = 0.15931 0.97402
#
# Static dielectric constant tensor:
#      x y z
#    x 1.945030 0.000000 0.000000 
#    y 0.000000 2.031130 0.000000 
#    z 0.000000 0.000000 1.968700 
# 
# From -- ./inp_files/33617.got.cif
#   From: 2010.05.17/outbox.cif.g08.bks.cpg/sg73_17_cif.got.tgz:33617.got - 2010.06.03 17:35:07.
