data_PCOD9530280
_publ_section_title
;
Structure prediction by ZEFSAII (Michael W. Deem and Ramdas Pophale) SiO2 
 PCOD9530280
Probable space group: I B C A 
;
_chemical_formula_sum "Si O2"
_cell_formula_units_Z 72
_cell_length_a 16.584829
_cell_length_b 19.972141
_cell_length_c 10.969417
_cell_angle_alpha 90.000000
_cell_angle_beta 90.000000
_cell_angle_gamma 90.000000
_cell_volume 3633.449830
_symmetry_space_group_name_H-M "I B C A "
_symmetry_group_IT_number 73
_symmetry_cell_setting 'orthorhombic'
loop_
_space_group_symop_operation_xyz
x,y,z
-x,1/2-y,z
x,-y,1/2-z
1/2-x,y,-z
-x,-y,-z
x,1/2+y,-z
-x,y,1/2+z
1/2+x,-y,z
1/2+x,1/2+y,1/2+z
1/2-x,-y,1/2+z
1/2+x,1/2-y,-z
-x,1/2+y,1/2-z
1/2-x,1/2-y,1/2-z
1/2+x,y,1/2-z
1/2-x,1/2+y,z
x,1/2-y,1/2+z
loop_
_atom_site_type_symbol
_atom_site_label
_atom_site_fract_x
_atom_site_fract_y
_atom_site_fract_z
Si Si1 0.460183 0.318466 0.688758
Si Si2 0.203226 0.249903 0.879846
Si Si3 0.577948 0.947528 0.654666
Si Si4 0.883367 0.112713 0.909715
Si Si5 0.576461 0.500000 0.750000
O O1 0.500000 0.250000 0.741053
O O2 0.378001 0.293660 0.628667
O O3 0.436606 0.375287 0.784556
O O4 0.527357 0.353128 0.602384
O O5 0.250000 0.250000 0.750000
O O6 0.177481 0.326416 0.904486
O O7 0.250000 0.226507 0.000000
O O8 0.621755 0.932414 0.529690
O O9 0.487600 0.978909 0.644417
O O10 0.617752 0.000000 0.750000
O O11 0.875210 0.063516 0.794867
#
# Coordination Sequence:
#
# PCOD9530280 Si02
#       5
#    16  16  16  16   8
#     4   9  20  35  59  91 115 160 206 252 302 368
#     4  11  24  41  61  85 126 167 205 256 309 367
#     4   9  18  32  58  94 124 146 194 262 312 354
#     4  10  19  37  62  89 120 156 203 256 306 366
#     4   8  18  30  58  90 116 150 200 252 314 356
#
# _framework density 19.81588
#
# number of rings (size 3 to 8) (size 9 to 14) (size 15 to 20)
#    0.667    1.778    0.000    2.000    0.000    8.000 
#    0.000    0.000    9.778    0.000    0.000    0.000 
#    0.000    0.000    0.000    0.000    0.000    0.000 
#
# Total GULP energy -200478.488977 kJ/mol
# GULP energy per Si atom -5568.846916 kJ/mol
# Density = 1.977078 g / cm^3
# Si number density = 19.815880 Si / 1000 Ang^3
#
#
#
# Elastic Constant Matrix: (Units=GPa)
#
#
# Indices 1 2 3 4 5 6 
#
# 1 59.7283 16.7869 29.0915 0.0000 0.0000 0.0000
# 2 16.7869 99.9247 18.5821 0.0000 0.0000 0.0000
# 3 29.0915 18.5821 87.9291 0.0000 0.0000 0.0000
# 4 0.0000 0.0000 0.0000 27.5139 0.0000 0.0000
# 5 0.0000 0.0000 0.0000 0.0000 10.2959 0.0000
# 6 0.0000 0.0000 0.0000 0.0000 0.0000 15.9328
#
#
#
# Elastic Compliance Matrix: (Units=1/GPa)
#
#
# Indices 1 2 3 4 5 6 
#
# 1 0.020440 -0.002265 -0.006284 0.000000 0.000000 0.000000
# 2 -0.002265 0.010668 -0.001505 0.000000 0.000000 0.000000
# 3 -0.006284 -0.001505 0.013770 0.000000 0.000000 0.000000
# 4 0.000000 0.000000 0.000000 0.036345 0.000000 0.000000
# 5 0.000000 0.000000 0.000000 0.000000 0.097126 0.000000
# 6 0.000000 0.000000 0.000000 0.000000 0.000000 0.062764
#
#
# Mechanical properties :
#
#
# Convention : Reuss Voigt Hill
#
# Bulk Modulus (GPa) = 40.37233 41.83371 41.10302
# Shear Modulus (GPa) = 18.55444 22.95663 20.75554
#
# Velocity S-wave (km/s) = 3.06329 3.40736 3.23990
# Velocity P-wave (km/s) = 5.73843 6.05287 5.89775
#
# Compressibility (1/GPa) = 0.02476944
#
# Stress axis : x y z
#
# Youngs Moduli (GPa) = 48.92422 93.73868 72.62236
#
# Poissons Ratio (x) = 0.21234 0.45635
# Poissons Ratio (y) = 0.11083 0.10930
# Poissons Ratio (z) = 0.30743 0.14108
#
# Static dielectric constant tensor:
#      x y z
#    x 1.718450 0.000000 0.000000 
#    y 0.000000 1.698020 0.000000 
#    z 0.000000 0.000000 1.736900 
# 
# From -- ./inp_files/11679.got.cif
#   From: 2010.05.17/outbox.cif.g08.bks.cpg/sg73_6_cif.got.tgz:11679.got - 2010.06.03 17:35:07.
