data_PCOD9530245
_publ_section_title
;
Structure prediction by ZEFSAII (Michael W. Deem and Ramdas Pophale) SiO2 
 PCOD9530245
Probable space group: I B C A 
;
_chemical_formula_sum "Si O2"
_cell_formula_units_Z 80
_cell_length_a 25.218143
_cell_length_b 14.300993
_cell_length_c 8.661516
_cell_angle_alpha 90.000000
_cell_angle_beta 90.000000
_cell_angle_gamma 90.000000
_cell_volume 3123.727990
_symmetry_space_group_name_H-M "I B C A "
_symmetry_group_IT_number 73
_symmetry_cell_setting 'orthorhombic'
loop_
_space_group_symop_operation_xyz
x,y,z
-x,1/2-y,z
x,-y,1/2-z
1/2-x,y,-z
-x,-y,-z
x,1/2+y,-z
-x,y,1/2+z
1/2+x,-y,z
1/2+x,1/2+y,1/2+z
1/2-x,-y,1/2+z
1/2+x,1/2-y,-z
-x,1/2+y,1/2-z
1/2-x,1/2-y,1/2-z
1/2+x,y,1/2-z
1/2-x,1/2+y,z
x,1/2-y,1/2+z
loop_
_atom_site_type_symbol
_atom_site_label
_atom_site_fract_x
_atom_site_fract_y
_atom_site_fract_z
Si Si1 0.263893 0.399687 0.828037
Si Si2 0.304387 0.708273 0.095778
Si Si3 0.950659 0.445488 0.422551
Si Si4 0.619307 0.571066 0.399329
Si Si5 0.977537 0.349887 0.711820
O O1 0.272875 0.500000 0.750000
O O2 0.309389 0.316971 0.844276
O O3 0.213446 0.352253 0.743613
O O4 0.250000 0.425766 0.000000
O O5 0.250000 0.714402 0.000000
O O6 0.343331 0.648593 0.984183
O O7 0.897602 0.500831 0.462218
O O8 0.951721 0.358836 0.543472
O O9 0.000000 0.500000 0.500000
O O10 0.969918 0.410766 0.256842
O O11 0.628863 0.500000 0.250000
O O12 0.567581 0.624173 0.334493
O O13 0.000000 0.250000 0.733080
#
# Coordination Sequence:
#
# PCOD9530245 Si02
#       5
#    16  16  16  16  16
#     4  10  22  43  70  98 134 182 232 295 370 436
#     4  10  22  43  69 100 138 184 244 305 364 441
#     4   9  18  36  61  91 132 181 228 282 348 418
#     4   9  20  40  69 102 141 190 241 300 369 436
#     4  10  19  36  62  99 144 185 232 291 353 428
#
# _framework density 25.610424999999999
#
# number of rings (size 3 to 8) (size 9 to 14) (size 15 to 20)
#    0.000    2.400    0.000    3.000    0.000    3.200 
#    0.000   34.000    0.000    0.000    0.000    2.800 
#    0.000    0.000    0.000    5.600    0.000    0.000 
#
# Total GULP energy -222795.292081 kJ/mol
# GULP energy per Si atom -5569.882302 kJ/mol
# Density = 2.555213 g / cm^3
# Si number density = 25.610425 Si / 1000 Ang^3
#
#
#
# Elastic Constant Matrix: (Units=GPa)
#
#
# Indices 1 2 3 4 5 6 
#
# 1 80.8120 63.3455 39.7115 0.0000 0.0000 0.0000
# 2 63.3455 228.3891 49.8685 0.0000 0.0000 0.0000
# 3 39.7115 49.8685 168.9090 0.0000 0.0000 0.0000
# 4 0.0000 0.0000 0.0000 37.8132 0.0000 0.0000
# 5 0.0000 0.0000 0.0000 0.0000 22.2713 0.0000
# 6 0.0000 0.0000 0.0000 0.0000 0.0000 27.7436
#
#
#
# Elastic Compliance Matrix: (Units=1/GPa)
#
#
# Indices 1 2 3 4 5 6 
#
# 1 0.016948 -0.004095 -0.002776 0.000000 0.000000 0.000000
# 2 -0.004095 0.005669 -0.000711 0.000000 0.000000 0.000000
# 3 -0.002776 -0.000711 0.006783 0.000000 0.000000 0.000000
# 4 0.000000 0.000000 0.000000 0.026446 0.000000 0.000000
# 5 0.000000 0.000000 0.000000 0.000000 0.044901 0.000000
# 6 0.000000 0.000000 0.000000 0.000000 0.000000 0.036044
#
#
# Mechanical properties :
#
#
# Convention : Reuss Voigt Hill
#
# Bulk Modulus (GPa) = 70.23745 87.10678 78.67212
# Shear Modulus (GPa) = 31.90812 39.24461 35.57637
#
# Velocity S-wave (km/s) = 3.53357 3.91879 3.73116
# Velocity P-wave (km/s) = 6.64327 7.38661 7.02478
#
# Compressibility (1/GPa) = 0.01423742
#
# Stress axis : x y z
#
# Youngs Moduli (GPa) = 59.00402 176.38408 147.42967
#
# Poissons Ratio (x) = 0.72222 0.40922
# Poissons Ratio (y) = 0.24160 0.10485
# Poissons Ratio (z) = 0.16378 0.12544
#
# Static dielectric constant tensor:
#      x y z
#    x 2.200640 0.000000 0.000000 
#    y 0.000000 2.468170 0.000000 
#    z 0.000000 0.000000 2.226420 
# 
# From -- ./inp_files/8353.got.cif
#   From: 2010.05.17/outbox.cif.g08.bks.cpg/sg73_5_cif.got.tgz:8353.got - 2010.06.03 17:35:07.
