data_PCOD9530129
_publ_section_title
;
Structure prediction by ZEFSAII (Michael W. Deem and Ramdas Pophale) SiO2 
 PCOD9530129
Probable space group: I B C A 
;
_chemical_formula_sum "Si O2"
_cell_formula_units_Z 112
_cell_length_a 19.480534
_cell_length_b 12.766989
_cell_length_c 23.092588
_cell_angle_alpha 90.000000
_cell_angle_beta 90.000000
_cell_angle_gamma 90.000000
_cell_volume 5743.305910
_symmetry_space_group_name_H-M "I B C A "
_symmetry_group_IT_number 73
_symmetry_cell_setting 'orthorhombic'
loop_
_space_group_symop_operation_xyz
x,y,z
-x,1/2-y,z
x,-y,1/2-z
1/2-x,y,-z
-x,-y,-z
x,1/2+y,-z
-x,y,1/2+z
1/2+x,-y,z
1/2+x,1/2+y,1/2+z
1/2-x,-y,1/2+z
1/2+x,1/2-y,-z
-x,1/2+y,1/2-z
1/2-x,1/2-y,1/2-z
1/2+x,y,1/2-z
1/2-x,1/2+y,z
x,1/2-y,1/2+z
loop_
_atom_site_type_symbol
_atom_site_label
_atom_site_fract_x
_atom_site_fract_y
_atom_site_fract_z
Si Si1 0.727113 0.620322 0.869850
Si Si2 0.919100 0.386888 0.578380
Si Si3 0.125948 0.976524 0.311751
Si Si4 0.754695 0.681995 0.691032
Si Si5 0.679053 0.493414 0.516728
Si Si6 0.642604 0.994354 0.817622
Si Si7 0.073338 0.138707 0.082132
O O1 0.658533 0.584167 0.835916
O O2 0.748515 0.739284 0.862465
O O3 0.708549 0.585627 0.934385
O O4 0.789769 0.560734 0.837585
O O5 0.864026 0.432815 0.532636
O O6 0.910795 0.459411 0.635901
O O7 0.909841 0.261896 0.589100
O O8 0.997906 0.385673 0.557006
O O9 0.192111 0.899419 0.306223
O O10 0.076897 0.917922 0.355774
O O11 0.094531 0.000000 0.250000
O O12 0.750000 0.750000 0.750000
O O13 0.826322 0.622340 0.680874
O O14 0.750000 0.549107 0.500000
O O15 0.629415 0.578722 0.544522
O O16 0.622611 0.000000 0.750000
#
# Coordination Sequence:
#
# PCOD9530129 Si02
#       7
#    16  16  16  16  16  16  16
#     4  10  19  35  53  93 127 156 199 262 328 378
#     4  11  24  45  62  92 129 173 222 264 331 403
#     4  10  19  33  58  87 123 164 207 251 315 386
#     4  11  18  31  59  93 131 160 198 268 330 370
#     4  11  23  41  67  95 123 158 221 276 327 396
#     4  11  21  34  58  92 128 165 209 258 313 385
#     4  10  25  43  66  86 130 178 211 272 336 390
#
# _framework density 19.500962000000001
#
# number of rings (size 3 to 8) (size 9 to 14) (size 15 to 20)
#    0.000    1.429    4.286    2.143    0.000    2.286 
#    0.000    0.000    0.000    2.571    0.000    0.000 
#    0.000    0.000    0.000    0.000    0.000    0.000 
#
# Total GULP energy -311808.685938 kJ/mol
# GULP energy per Si atom -5568.012249 kJ/mol
# Density = 1.945658 g / cm^3
# Si number density = 19.500962 Si / 1000 Ang^3
#
#
#
# Elastic Constant Matrix: (Units=GPa)
#
#
# Indices 1 2 3 4 5 6 
#
# 1 100.3048 40.6782 37.5870 0.0000 0.0000 0.0000
# 2 40.6782 83.4503 29.1964 0.0000 0.0000 0.0000
# 3 37.5870 29.1964 104.8908 0.0000 0.0000 0.0000
# 4 0.0000 0.0000 0.0000 14.9827 0.0000 0.0000
# 5 0.0000 0.0000 0.0000 0.0000 14.2003 0.0000
# 6 0.0000 0.0000 0.0000 0.0000 0.0000 22.8492
#
#
#
# Elastic Compliance Matrix: (Units=1/GPa)
#
#
# Indices 1 2 3 4 5 6 
#
# 1 0.013384 -0.005369 -0.003302 0.000000 0.000000 0.000000
# 2 -0.005369 0.015430 -0.002371 0.000000 0.000000 0.000000
# 3 -0.003302 -0.002371 0.011377 0.000000 0.000000 0.000000
# 4 0.000000 0.000000 0.000000 0.066744 0.000000 0.000000
# 5 0.000000 0.000000 0.000000 0.000000 0.070421 0.000000
# 6 0.000000 0.000000 0.000000 0.000000 0.000000 0.043765
#
#
# Mechanical properties :
#
#
# Convention : Reuss Voigt Hill
#
# Bulk Modulus (GPa) = 55.22556 55.95212 55.58884
# Shear Modulus (GPa) = 20.06097 22.48539 21.27318
#
# Velocity S-wave (km/s) = 3.21084 3.39933 3.30643
# Velocity P-wave (km/s) = 6.49052 6.64541 6.56842
#
# Compressibility (1/GPa) = 0.01810756
#
# Stress axis : x y z
#
# Youngs Moduli (GPa) = 74.71473 64.80936 87.89808
#
# Poissons Ratio (x) = 0.34797 0.29021
# Poissons Ratio (y) = 0.40115 0.20840
# Poissons Ratio (z) = 0.24668 0.15366
#
# Static dielectric constant tensor:
#      x y z
#    x 1.699700 0.000000 0.000000 
#    y 0.000000 1.695450 0.000000 
#    z 0.000000 0.000000 1.802170 
# 
# From -- ./inp_files/30143.got.cif
#   From: 2010.05.17/outbox.cif.g08.bks.cpg/sg73_16_cif.got.tgz:30143.got - 2010.06.03 17:35:07.
