data_PCOD9530056
_publ_section_title
;
Structure prediction by ZEFSAII (Michael W. Deem and Ramdas Pophale) SiO2 
 PCOD9530056
Probable space group: I B C A 
;
_chemical_formula_sum "Si O2"
_cell_formula_units_Z 120
_cell_length_a 22.549281
_cell_length_b 10.779731
_cell_length_c 20.402343
_cell_angle_alpha 90.000000
_cell_angle_beta 90.000000
_cell_angle_gamma 90.000000
_cell_volume 4959.303267
_symmetry_space_group_name_H-M "I B C A "
_symmetry_group_IT_number 73
_symmetry_cell_setting 'orthorhombic'
loop_
_space_group_symop_operation_xyz
x,y,z
-x,1/2-y,z
x,-y,1/2-z
1/2-x,y,-z
-x,-y,-z
x,1/2+y,-z
-x,y,1/2+z
1/2+x,-y,z
1/2+x,1/2+y,1/2+z
1/2-x,-y,1/2+z
1/2+x,1/2-y,-z
-x,1/2+y,1/2-z
1/2-x,1/2-y,1/2-z
1/2+x,y,1/2-z
1/2-x,1/2+y,z
x,1/2-y,1/2+z
loop_
_atom_site_type_symbol
_atom_site_label
_atom_site_fract_x
_atom_site_fract_y
_atom_site_fract_z
Si Si1 0.616626 0.107135 0.046273
Si Si2 0.297139 0.698258 0.552471
Si Si3 0.620402 0.696458 0.237424
Si Si4 0.659914 0.908045 0.148062
Si Si5 0.125566 0.356084 0.384785
Si Si6 0.722848 0.536158 0.166288
Si Si7 0.983045 0.500000 0.750000
Si Si8 0.497527 0.601055 0.385812
O O1 0.626117 0.252951 0.060453
O O2 0.546200 0.080901 0.052957
O O3 0.636862 0.025002 0.107752
O O4 0.657462 0.100159 0.981885
O O5 0.250000 0.743072 0.500000
O O6 0.328692 0.809603 0.589532
O O7 0.259708 0.633711 0.610399
O O8 0.622119 0.825606 0.198877
O O9 0.621418 0.714834 0.314937
O O10 0.678822 0.615055 0.214595
O O11 0.562015 0.611279 0.228211
O O12 0.719643 0.955802 0.184097
O O13 0.181279 0.440284 0.371997
O O14 0.065958 0.435460 0.395779
O O15 0.018093 0.542116 0.685096
O O16 0.500000 0.750000 0.376861
#
# Coordination Sequence:
#
# PCOD9530056 Si02
#       8
#    16  16  16  16  16  16   8  16
#     4  11  24  41  63  99 124 167 227 281 314 382
#     4  11  24  42  66  88 129 178 217 267 334 390
#     4  10  21  42  64  96 134 175 212 259 335 409
#     4  11  26  39  64 100 129 170 222 275 325 387
#     4  10  21  41  68  90 131 179 209 262 339 398
#     4  11  21  40  66  94 129 175 221 264 323 400
#     4  10  18  42  70  88 132 188 210 252 340 406
#     4   9  20  38  65  92 124 169 220 263 320 386
#
# _framework density 24.196947999999999
#
# number of rings (size 3 to 8) (size 9 to 14) (size 15 to 20)
#    0.000    1.600    4.000    0.800    5.600    4.267 
#    2.400    0.667    2.933    0.000    0.000    0.000 
#    0.000    0.000    0.000    0.000    0.000    0.000 
#
# Total GULP energy -334776.879029 kJ/mol
# GULP energy per Si atom -5579.614650 kJ/mol
# Density = 2.414187 g / cm^3
# Si number density = 24.196948 Si / 1000 Ang^3
#
#
#
# Elastic Constant Matrix: (Units=GPa)
#
#
# Indices 1 2 3 4 5 6 
#
# 1 76.1022 18.8553 31.2527 0.0000 0.0000 0.0000
# 2 18.8553 42.9688 -0.5308 0.0000 0.0000 0.0000
# 3 31.2527 -0.5308 86.6286 0.0000 0.0000 0.0000
# 4 0.0000 0.0000 0.0000 49.3696 0.0000 0.0000
# 5 0.0000 0.0000 0.0000 0.0000 27.2787 0.0000
# 6 0.0000 0.0000 0.0000 0.0000 0.0000 19.0919
#
#
#
# Elastic Compliance Matrix: (Units=1/GPa)
#
#
# Indices 1 2 3 4 5 6 
#
# 1 0.017736 -0.007862 -0.006447 0.000000 0.000000 0.000000
# 2 -0.007862 0.026760 0.003000 0.000000 0.000000 0.000000
# 3 -0.006447 0.003000 0.013888 0.000000 0.000000 0.000000
# 4 0.000000 0.000000 0.000000 0.020255 0.000000 0.000000
# 5 0.000000 0.000000 0.000000 0.000000 0.036659 0.000000
# 6 0.000000 0.000000 0.000000 0.000000 0.000000 0.052378
#
#
# Mechanical properties :
#
#
# Convention : Reuss Voigt Hill
#
# Bulk Modulus (GPa) = 27.95937 33.87267 30.91602
# Shear Modulus (GPa) = 24.72623 29.55620 27.14121
#
# Velocity S-wave (km/s) = 3.20014 3.49877 3.35278
# Velocity P-wave (km/s) = 5.02340 5.50917 5.27188
#
# Compressibility (1/GPa) = 0.03576618
#
# Stress axis : x y z
#
# Youngs Moduli (GPa) = 56.38372 37.36945 72.00652
#
# Poissons Ratio (x) = 0.29381 0.46420
# Poissons Ratio (y) = 0.44330 -0.21605
# Poissons Ratio (z) = 0.36348 -0.11212
#
# Static dielectric constant tensor:
#      x y z
#    x 2.029050 0.000000 0.000000 
#    y 0.000000 1.930610 0.000000 
#    z 0.000000 0.000000 1.960860 
# 
# From -- ./inp_files/27341.got.cif
#   From: 2010.05.17/outbox.cif.g08.bks.cpg/sg73_14_cif.got.tgz:27341.got - 2010.06.03 17:35:07.
