data_PCOD9530137
_publ_section_title
;
Structure prediction by ZEFSAII (Michael W. Deem and Ramdas Pophale) SiO2 
 PCOD9530137
Probable space group: I B C A 
;
_chemical_formula_sum "Si O2"
_cell_formula_units_Z 104
_cell_length_a 8.316776
_cell_length_b 27.616764
_cell_length_c 20.135672
_cell_angle_alpha 90.000000
_cell_angle_beta 90.000000
_cell_angle_gamma 90.000000
_cell_volume 4624.810277
_symmetry_space_group_name_H-M "I B C A "
_symmetry_group_IT_number 73
_symmetry_cell_setting 'orthorhombic'
loop_
_space_group_symop_operation_xyz
x,y,z
-x,1/2-y,z
x,-y,1/2-z
1/2-x,y,-z
-x,-y,-z
x,1/2+y,-z
-x,y,1/2+z
1/2+x,-y,z
1/2+x,1/2+y,1/2+z
1/2-x,-y,1/2+z
1/2+x,1/2-y,-z
-x,1/2+y,1/2-z
1/2-x,1/2-y,1/2-z
1/2+x,y,1/2-z
1/2-x,1/2+y,z
x,1/2-y,1/2+z
loop_
_atom_site_type_symbol
_atom_site_label
_atom_site_fract_x
_atom_site_fract_y
_atom_site_fract_z
Si Si1 0.676853 0.555139 0.401124
Si Si2 0.750000 0.019333 0.000000
Si Si3 0.737678 0.412870 0.375150
Si Si4 0.752876 0.730290 0.420074
Si Si5 0.985926 0.983251 0.821649
Si Si6 0.568318 0.325739 0.430443
Si Si7 0.512479 0.347483 0.084517
O O1 0.638832 0.520498 0.463946
O O2 0.547720 0.534528 0.349592
O O3 0.650055 0.610637 0.420050
O O4 0.848984 0.540968 0.368281
O O5 0.787051 0.054921 0.939177
O O6 0.644807 0.448301 0.324059
O O7 0.597690 0.377013 0.398761
O O8 0.883098 0.374160 0.367956
O O9 0.750000 0.725680 0.500000
O O10 0.792726 0.786723 0.411083
O O11 0.597785 0.702257 0.393073
O O12 0.909426 0.699412 0.402420
O O13 0.926156 0.000000 0.750000
O O14 0.553693 0.335901 0.509965
#
# Coordination Sequence:
#
# PCOD9530137 Si02
#       7
#    16   8  16  16  16  16  16
#     4  11  24  37  62  85 122 167 217 274 326 386
#     4  10  22  34  52  88 120 158 204 266 320 384
#     4  11  21  35  58  85 124 169 213 264 325 390
#     4   9  19  31  50  79 125 175 207 250 305 390
#     4  11  25  43  60  85 122 174 227 276 332 388
#     4  10  19  34  52  83 127 171 211 253 319 391
#     4  11  21  34  55  91 124 170 220 255 321 400
#
# _framework density 22.487411000000002
#
# number of rings (size 3 to 8) (size 9 to 14) (size 15 to 20)
#    0.000    1.538    1.538    4.154    5.385    3.692 
#    0.000    0.769    0.000    0.000    0.000    1.077 
#    0.000   14.769    0.000    4.462    4.308    0.154 
#
# Total GULP energy -289655.533094 kJ/mol
# GULP energy per Si atom -5570.298713 kJ/mol
# Density = 2.243623 g / cm^3
# Si number density = 22.487411 Si / 1000 Ang^3
#
#
#
# Elastic Constant Matrix: (Units=GPa)
#
#
# Indices 1 2 3 4 5 6 
#
# 1 93.8641 60.7037 30.1883 0.0000 0.0000 0.0000
# 2 60.7037 177.0082 32.8062 0.0000 0.0000 0.0000
# 3 30.1883 32.8062 42.9566 0.0000 0.0000 0.0000
# 4 0.0000 0.0000 0.0000 1.7003 0.0000 0.0000
# 5 0.0000 0.0000 0.0000 0.0000 18.2176 0.0000
# 6 0.0000 0.0000 0.0000 0.0000 0.0000 62.9017
#
#
#
# Elastic Compliance Matrix: (Units=1/GPa)
#
#
# Indices 1 2 3 4 5 6 
#
# 1 0.015793 -0.003913 -0.008110 0.000000 0.000000 0.000000
# 2 -0.003913 0.007550 -0.003016 0.000000 0.000000 0.000000
# 3 -0.008110 -0.003016 0.031283 -0.000001 0.000000 0.000000
# 4 0.000000 0.000000 -0.000001 0.588119 0.000000 0.000000
# 5 0.000000 0.000000 0.000000 0.000000 0.054892 0.000000
# 6 0.000000 0.000000 0.000000 0.000000 0.000000 0.015898
#
#
# Mechanical properties :
#
#
# Convention : Reuss Voigt Hill
#
# Bulk Modulus (GPa) = 40.73900 62.35836 51.54868
# Shear Modulus (GPa) = 6.65075 29.23931 17.94503
#
# Velocity S-wave (km/s) = 1.72162 3.60981 2.82796
# Velocity P-wave (km/s) = 4.70188 6.72048 5.79968
#
# Compressibility (1/GPa) = 0.02454650
#
# Stress axis : x y z
#
# Youngs Moduli (GPa) = 63.32092 132.44334 31.96673
#
# Poissons Ratio (x) = 0.51823 0.25926
# Poissons Ratio (y) = 0.24776 0.09643
# Poissons Ratio (z) = 0.51354 0.39951
#
# Static dielectric constant tensor:
#      x y z
#    x 2.070220 0.000000 0.000000 
#    y 0.000000 1.839690 0.000000 
#    z 0.000000 0.000000 1.855560 
# 
# From -- ./inp_files/28507.got.cif
#   From: 2010.05.17/outbox.cif.g08.bks.cpg/sg73_15_cif.got.tgz:28507.got - 2010.06.03 17:35:07.
