data_PCOD9530425
_publ_section_title
;
Structure prediction by ZEFSAII (Michael W. Deem and Ramdas Pophale) SiO2 
 PCOD9530425
Probable space group: I B C A 
;
_chemical_formula_sum "Si O2"
_cell_formula_units_Z 80
_cell_length_a 29.598895
_cell_length_b 5.281670
_cell_length_c 28.733281
_cell_angle_alpha 90.000000
_cell_angle_beta 90.000000
_cell_angle_gamma 90.000000
_cell_volume 4491.919670
_symmetry_space_group_name_H-M "I B C A "
_symmetry_group_IT_number 73
_symmetry_cell_setting 'orthorhombic'
loop_
_space_group_symop_operation_xyz
x,y,z
-x,1/2-y,z
x,-y,1/2-z
1/2-x,y,-z
-x,-y,-z
x,1/2+y,-z
-x,y,1/2+z
1/2+x,-y,z
1/2+x,1/2+y,1/2+z
1/2-x,-y,1/2+z
1/2+x,1/2-y,-z
-x,1/2+y,1/2-z
1/2-x,1/2-y,1/2-z
1/2+x,y,1/2-z
1/2-x,1/2+y,z
x,1/2-y,1/2+z
loop_
_atom_site_type_symbol
_atom_site_label
_atom_site_fract_x
_atom_site_fract_y
_atom_site_fract_z
Si Si1 0.091207 0.335674 0.629224
Si Si2 0.126021 0.822073 0.679865
Si Si3 0.269241 0.773907 0.302793
Si Si4 0.438937 0.000000 0.250000
Si Si5 0.500000 0.250000 0.825187
Si Si6 0.946420 0.259979 0.530144
O O1 0.117350 0.585644 0.645805
O O2 0.039199 0.379907 0.645449
O O3 0.085448 0.281581 0.574678
O O4 0.111704 0.087200 0.655118
O O5 0.177809 0.826290 0.695709
O O6 0.094714 0.798256 0.726108
O O7 0.250000 0.750000 0.250000
O O8 0.257205 0.506577 0.325381
O O9 0.472145 0.070673 0.291345
O O10 0.938982 0.531166 0.506088
O O11 0.000000 0.250000 0.543294
#
# Coordination Sequence:
#
# PCOD9530425 Si02
#       6
#    16  16  16   8   8  16
#     4  11  22  37  53  80 115 142 190 232 275 325
#     4  11  23  35  55  79 110 149 187 238 274 320
#     4  10  20  35  55  76 104 142 183 229 278 331
#     4  10  20  34  48  72 104 154 202 222 258 320
#     4  10  20  32  48  70 104 156 186 228 256 300
#     4  10  20  36  58  82 108 147 189 229 285 344
#
# _framework density 17.809757999999999
#
# number of rings (size 3 to 8) (size 9 to 14) (size 15 to 20)
#    0.000    1.600    1.000    4.800    0.000    9.600 
#    0.000    0.000    0.000    0.000    0.000    0.000 
#    0.000   56.000    0.000    0.000    0.000    0.000 
#
# Total GULP energy -223005.045031 kJ/mol
# GULP energy per Si atom -5575.126126 kJ/mol
# Density = 1.776922 g / cm^3
# Si number density = 17.809758 Si / 1000 Ang^3
#
#
#
# Elastic Constant Matrix: (Units=GPa)
#
#
# Indices 1 2 3 4 5 6 
#
# 1 123.5869 28.3678 28.5471 0.0000 0.0000 0.0000
# 2 28.3678 114.3235 18.1579 0.0000 0.0000 0.0000
# 3 28.5471 18.1579 68.3516 0.0000 0.0000 0.0000
# 4 0.0000 0.0000 0.0000 23.9610 0.0000 0.0000
# 5 0.0000 0.0000 0.0000 0.0000 18.8249 0.0000
# 6 0.0000 0.0000 0.0000 0.0000 0.0000 22.9039
#
#
#
# Elastic Compliance Matrix: (Units=1/GPa)
#
#
# Indices 1 2 3 4 5 6 
#
# 1 0.009283 -0.001762 -0.003409 0.000000 0.000000 0.000000
# 2 -0.001762 0.009467 -0.001779 0.000000 0.000000 0.000000
# 3 -0.003409 -0.001779 0.016527 0.000000 0.000000 0.000000
# 4 0.000000 0.000000 0.000000 0.041734 0.000000 0.000000
# 5 0.000000 0.000000 0.000000 0.000000 0.053121 0.000000
# 6 0.000000 0.000000 0.000000 0.000000 0.000000 0.043661
#
#
# Mechanical properties :
#
#
# Convention : Reuss Voigt Hill
#
# Bulk Modulus (GPa) = 46.78017 50.71197 48.74607
# Shear Modulus (GPa) = 25.66484 28.55059 27.10771
#
# Velocity S-wave (km/s) = 3.80024 4.00820 3.90561
# Velocity P-wave (km/s) = 6.75125 7.06802 6.91145
#
# Compressibility (1/GPa) = 0.02137658
#
# Stress axis : x y z
#
# Youngs Moduli (GPa) = 107.71921 105.63120 60.50836
#
# Poissons Ratio (x) = 0.18613 0.20628
# Poissons Ratio (y) = 0.18981 0.10764
# Poissons Ratio (z) = 0.36723 0.18792
#
# Static dielectric constant tensor:
#      x y z
#    x 1.626660 0.000000 0.000000 
#    y 0.000000 1.654990 0.000000 
#    z 0.000000 0.000000 1.606590 
# 
# From -- ./inp_files/2669.got.cif
#   From: 2010.05.17/outbox.cif.g08.bks.cpg/sg73_2_cif.got.tgz:2669.got - 2010.06.03 17:35:07.
