data_PCOD9530416
_publ_section_title
;
Structure prediction by ZEFSAII (Michael W. Deem and Ramdas Pophale) SiO2 
 PCOD9530416
Probable space group: I B C A 
;
_chemical_formula_sum "Si O2"
_cell_formula_units_Z 96
_cell_length_a 29.925959
_cell_length_b 10.295086
_cell_length_c 13.881208
_cell_angle_alpha 90.000000
_cell_angle_beta 90.000000
_cell_angle_gamma 90.000000
_cell_volume 4276.665836
_symmetry_space_group_name_H-M "I B C A "
_symmetry_group_IT_number 73
_symmetry_cell_setting 'orthorhombic'
loop_
_space_group_symop_operation_xyz
x,y,z
-x,1/2-y,z
x,-y,1/2-z
1/2-x,y,-z
-x,-y,-z
x,1/2+y,-z
-x,y,1/2+z
1/2+x,-y,z
1/2+x,1/2+y,1/2+z
1/2-x,-y,1/2+z
1/2+x,1/2-y,-z
-x,1/2+y,1/2-z
1/2-x,1/2-y,1/2-z
1/2+x,y,1/2-z
1/2-x,1/2+y,z
x,1/2-y,1/2+z
loop_
_atom_site_type_symbol
_atom_site_label
_atom_site_fract_x
_atom_site_fract_y
_atom_site_fract_z
Si Si1 0.530246 0.370632 0.382172
Si Si2 0.720998 0.237282 0.847890
Si Si3 0.122515 0.772499 0.898897
Si Si4 0.526251 0.379709 0.616861
Si Si5 0.779010 0.515752 0.137525
Si Si6 0.121208 0.459308 0.913196
O O1 0.500000 0.250000 0.355864
O O2 0.579495 0.334033 0.346977
O O3 0.530938 0.376345 0.499698
O O4 0.505925 0.502493 0.354879
O O5 0.750000 0.250000 0.750000
O O6 0.667941 0.218854 0.837606
O O7 0.724674 0.372201 0.904316
O O8 0.743228 0.116525 0.899986
O O9 0.114725 0.618032 0.926370
O O10 0.126500 0.868108 0.991797
O O11 0.500000 0.250000 0.644034
O O12 0.577821 0.407044 0.645017
O O13 0.768095 0.500000 0.250000
O O14 0.830529 0.557495 0.134802
#
# Coordination Sequence:
#
# PCOD9530416 Si02
#       6
#    16  16  16  16  16  16
#     4   9  15  27  44  69 109 146 178 207 267 338
#     4   9  19  37  56  75 101 138 187 223 269 336
#     4  10  20  31  50  80 114 141 181 229 280 328
#     4   9  17  27  44  71 110 149 179 209 269 341
#     4   9  19  37  57  75  97 142 184 223 272 338
#     4  10  20  32  49  80 112 143 179 225 284 327
#
# _framework density 22.447393999999999
#
# number of rings (size 3 to 8) (size 9 to 14) (size 15 to 20)
#    0.000    2.667    1.667    0.000    7.000    2.000 
#    0.000    3.333    0.000    0.000   13.000    0.000 
#    0.000    0.000    0.000    0.000    0.000    0.000 
#
# Total GULP energy -267439.091048 kJ/mol
# GULP energy per Si atom -5571.647730 kJ/mol
# Density = 2.239630 g / cm^3
# Si number density = 22.447394 Si / 1000 Ang^3
#
#
#
# Elastic Constant Matrix: (Units=GPa)
#
#
# Indices 1 2 3 4 5 6 
#
# 1 203.9964 105.1722 10.4474 0.0000 0.0000 0.0000
# 2 105.1722 162.2238 -20.0406 0.0000 0.0000 0.0000
# 3 10.4474 -20.0406 50.8081 0.0000 0.0000 0.0000
# 4 0.0000 0.0000 0.0000 -192.2553 0.0000 0.0000
# 5 0.0000 0.0000 0.0000 0.0000 33.3240 0.0000
# 6 0.0000 0.0000 0.0000 0.0000 0.0000 41.9990
#
#
#
# Elastic Compliance Matrix: (Units=1/GPa)
#
#
# Indices 1 2 3 4 5 6 
#
# 1 0.008036 -0.005691 -0.003897 0.000000 0.000000 0.000000
# 2 -0.005691 0.010511 0.005316 0.000000 0.000000 0.000000
# 3 -0.003897 0.005316 0.022580 0.000000 0.000000 0.000000
# 4 0.000000 0.000000 0.000000 -0.005201 0.000000 0.000000
# 5 0.000000 0.000000 0.000000 0.000000 0.030008 0.000000
# 6 0.000000 0.000000 0.000000 0.000000 0.000000 0.023810
#
#
# Mechanical properties :
#
#
# Convention : Reuss Voigt Hill
#
# Bulk Modulus (GPa) = 30.69170 67.57624 49.13397
# Shear Modulus (GPa) = 45.80899 -1.95652 21.92624
#
# Velocity S-wave (km/s) = 4.52234 -0.93461 3.12874
# Velocity P-wave (km/s) = 6.40087 5.38563 5.91507
#
# Compressibility (1/GPa) = 0.03258210
#
# Stress axis : x y z
#
# Youngs Moduli (GPa) = 124.44375 95.14102 44.28675
#
# Poissons Ratio (x) = 0.54146 0.17259
# Poissons Ratio (y) = 0.70823 -0.23543
# Poissons Ratio (z) = 0.48498 -0.50578
#
# Static dielectric constant tensor:
#      x y z
#    x 1.836750 0.000000 0.000000 
#    y 0.000000 0.647670 0.000000 
#    z 0.000000 0.000000 1.874970 
# 
# From -- ./inp_files/7258.got.cif
#   From: 2010.05.17/outbox.cif.g08.bks.cpg/sg73_4_cif.got.tgz:7258.got - 2010.06.03 17:35:07.
