data_PCOD9530118
_publ_section_title
;
Structure prediction by ZEFSAII (Michael W. Deem and Ramdas Pophale) SiO2 
 PCOD9530118
Probable space group: I B C A 
;
_chemical_formula_sum "Si O2"
_cell_formula_units_Z 96
_cell_length_a 20.491632
_cell_length_b 8.854576
_cell_length_c 22.991930
_cell_angle_alpha 90.000000
_cell_angle_beta 90.000000
_cell_angle_gamma 90.000000
_cell_volume 4171.764138
_symmetry_space_group_name_H-M "I B C A "
_symmetry_group_IT_number 73
_symmetry_cell_setting 'orthorhombic'
loop_
_space_group_symop_operation_xyz
x,y,z
-x,1/2-y,z
x,-y,1/2-z
1/2-x,y,-z
-x,-y,-z
x,1/2+y,-z
-x,y,1/2+z
1/2+x,-y,z
1/2+x,1/2+y,1/2+z
1/2-x,-y,1/2+z
1/2+x,1/2-y,-z
-x,1/2+y,1/2-z
1/2-x,1/2-y,1/2-z
1/2+x,y,1/2-z
1/2-x,1/2+y,z
x,1/2-y,1/2+z
loop_
_atom_site_type_symbol
_atom_site_label
_atom_site_fract_x
_atom_site_fract_y
_atom_site_fract_z
Si Si1 0.685419 0.670448 0.225461
Si Si2 0.435433 0.151132 0.094220
Si Si3 0.119701 0.125620 0.309519
Si Si4 0.490494 0.069150 0.311498
Si Si5 0.698002 0.812894 0.949539
Si Si6 0.754908 0.938905 0.625433
O O1 0.681233 0.500000 0.250000
O O2 0.750000 0.750000 0.250000
O O3 0.630032 0.778470 0.250971
O O4 0.697112 0.654451 0.156861
O O5 0.500000 0.250000 0.077389
O O6 0.398857 0.250654 0.142693
O O7 0.378739 0.143798 0.044575
O O8 0.455031 0.999894 0.130559
O O9 0.186981 0.046646 0.328188
O O10 0.060617 0.011700 0.312159
O O11 0.500000 0.250000 0.311911
O O12 0.462333 0.000000 0.250000
O O13 0.712051 0.641921 0.929698
O O14 0.722695 0.908560 0.894588
O O15 0.750000 0.844650 0.000000
#
# Coordination Sequence:
#
# PCOD9530118 Si02
#       6
#    16  16  16  16  16  16
#     4  10  19  33  55  91 133 170 205 252 323 400
#     4   9  20  41  63  87 124 171 216 264 327 392
#     4   9  20  36  57  87 128 172 209 255 320 394
#     4  11  23  37  57  89 130 177 224 264 313 394
#     4  11  23  40  64  90 121 164 218 279 333 380
#     4  10  21  37  59  92 128 161 206 266 327 387
#
# _framework density 23.011846999999999
#
# number of rings (size 3 to 8) (size 9 to 14) (size 15 to 20)
#    0.000    2.000    0.000    5.000    0.000   10.000 
#    0.000    0.000    0.000   17.000    0.000    3.500 
#    0.000    1.333    0.000    0.000    0.000    0.000 
#
# Total GULP energy -267786.503689 kJ/mol
# GULP energy per Si atom -5578.885494 kJ/mol
# Density = 2.295947 g / cm^3
# Si number density = 23.011847 Si / 1000 Ang^3
#
#
#
# Elastic Constant Matrix: (Units=GPa)
#
#
# Indices 1 2 3 4 5 6 
#
# 1 166.5899 55.0607 39.8333 0.0000 0.0000 0.0000
# 2 55.0607 138.7045 17.7042 0.0000 0.0000 0.0000
# 3 39.8333 17.7042 57.4178 0.0000 0.0000 0.0000
# 4 0.0000 0.0000 0.0000 19.7074 0.0000 0.0000
# 5 0.0000 0.0000 0.0000 0.0000 36.1630 0.0000
# 6 0.0000 0.0000 0.0000 0.0000 0.0000 33.6527
#
#
#
# Elastic Compliance Matrix: (Units=1/GPa)
#
#
# Indices 1 2 3 4 5 6 
#
# 1 0.007986 -0.002564 -0.004750 0.000000 0.000000 0.000000
# 2 -0.002564 0.008328 -0.000789 0.000000 0.000000 0.000000
# 3 -0.004750 -0.000789 0.020955 0.000000 0.000000 0.000000
# 4 0.000000 0.000000 0.000000 0.050742 0.000000 0.000000
# 5 0.000000 0.000000 0.000000 0.000000 0.027653 0.000000
# 6 0.000000 0.000000 0.000000 0.000000 0.000000 0.029715
#
#
# Mechanical properties :
#
#
# Convention : Reuss Voigt Hill
#
# Bulk Modulus (GPa) = 47.47630 65.32316 56.39973
# Shear Modulus (GPa) = 29.65511 34.57890 32.11700
#
# Velocity S-wave (km/s) = 3.59373 3.88062 3.73992
# Velocity P-wave (km/s) = 6.15596 6.96615 6.57355
#
# Compressibility (1/GPa) = 0.02106314
#
# Stress axis : x y z
#
# Youngs Moduli (GPa) = 125.22182 120.07591 47.72229
#
# Poissons Ratio (x) = 0.30786 0.22666
# Poissons Ratio (y) = 0.32105 0.03766
# Poissons Ratio (z) = 0.59475 0.09477
#
# Static dielectric constant tensor:
#      x y z
#    x 1.965450 0.000000 0.000000 
#    y 0.000000 1.888820 0.000000 
#    z 0.000000 0.000000 1.925470 
# 
# From -- ./inp_files/32607.got.cif
#   From: 2010.05.17/outbox.cif.g08.bks.cpg/sg73_17_cif.got.tgz:32607.got - 2010.06.03 17:35:07.
