data_PCOD9530132
_publ_section_title
;
Structure prediction by ZEFSAII (Michael W. Deem and Ramdas Pophale) SiO2 
 PCOD9530132
Probable space group: I B C A 
;
_chemical_formula_sum "Si O2"
_cell_formula_units_Z 104
_cell_length_a 26.152176
_cell_length_b 23.812718
_cell_length_c 8.064490
_cell_angle_alpha 90.000000
_cell_angle_beta 90.000000
_cell_angle_gamma 90.000000
_cell_volume 5022.196568
_symmetry_space_group_name_H-M "I B C A "
_symmetry_group_IT_number 73
_symmetry_cell_setting 'orthorhombic'
loop_
_space_group_symop_operation_xyz
x,y,z
-x,1/2-y,z
x,-y,1/2-z
1/2-x,y,-z
-x,-y,-z
x,1/2+y,-z
-x,y,1/2+z
1/2+x,-y,z
1/2+x,1/2+y,1/2+z
1/2-x,-y,1/2+z
1/2+x,1/2-y,-z
-x,1/2+y,1/2-z
1/2-x,1/2-y,1/2-z
1/2+x,y,1/2-z
1/2-x,1/2+y,z
x,1/2-y,1/2+z
loop_
_atom_site_type_symbol
_atom_site_label
_atom_site_fract_x
_atom_site_fract_y
_atom_site_fract_z
Si Si1 0.000000 0.250000 0.984825
Si Si2 0.527466 0.131088 0.104292
Si Si3 0.795108 0.566335 0.288372
Si Si4 0.631569 0.339856 0.714424
Si Si5 0.109163 0.228550 0.982783
Si Si6 0.075851 0.874323 0.738752
Si Si7 0.180243 0.062653 0.822286
O O1 0.010139 0.304625 0.877422
O O2 0.054102 0.239279 0.069731
O O3 0.576522 0.127900 0.223416
O O4 0.472840 0.101631 0.132529
O O5 0.550859 0.126015 0.921134
O O6 0.798961 0.500000 0.250000
O O7 0.828623 0.610450 0.185314
O O8 0.736059 0.584553 0.266611
O O9 0.814824 0.568263 0.478555
O O10 0.628930 0.288794 0.581136
O O11 0.641917 0.306511 0.885687
O O12 0.095800 0.185409 0.834168
O O13 0.127651 0.909648 0.734980
O O14 0.178834 0.000000 0.750000
#
# Coordination Sequence:
#
# PCOD9530132 Si02
#       7
#     8  16  16  16  16  16  16
#     4   8  16  30  48  82 116 168 210 236 276 374
#     4  10  21  33  60  92 133 173 212 256 321 379
#     4  10  23  45  73  93 122 167 228 274 320 378
#     4  11  21  38  62  99 130 175 212 264 320 386
#     4  10  19  33  58  92 134 167 211 255 318 380
#     4  11  21  38  60  95 133 170 212 263 320 392
#     4  10  23  45  70  93 120 166 223 280 319 376
#
# _framework density 20.708069999999999
#
# number of rings (size 3 to 8) (size 9 to 14) (size 15 to 20)
#    0.000    1.846    1.538    3.692    2.154    4.923 
#    0.000    2.308    0.000    0.000    0.000    0.000 
#    0.000    0.000    0.000    0.000    0.000    0.000 
#
# Total GULP energy -289496.359911 kJ/mol
# GULP energy per Si atom -5567.237691 kJ/mol
# Density = 2.066094 g / cm^3
# Si number density = 20.708070 Si / 1000 Ang^3
#
#
#
# Elastic Constant Matrix: (Units=GPa)
#
#
# Indices 1 2 3 4 5 6 
#
# 1 160.3257 70.8287 38.5759 0.0000 0.0000 0.0000
# 2 70.8287 59.7441 27.5572 0.0000 0.0000 0.0000
# 3 38.5759 27.5572 71.9008 0.0000 0.0000 0.0000
# 4 0.0000 0.0000 0.0000 18.2272 0.0000 0.0000
# 5 0.0000 0.0000 0.0000 0.0000 12.7287 0.0000
# 6 0.0000 0.0000 0.0000 0.0000 0.0000 38.2113
#
#
#
# Elastic Compliance Matrix: (Units=1/GPa)
#
#
# Indices 1 2 3 4 5 6 
#
# 1 0.013198 -0.015040 -0.001317 0.000000 0.000000 0.000000
# 2 -0.015040 0.037470 -0.006292 0.000000 0.000000 0.000000
# 3 -0.001317 -0.006292 0.017026 0.000000 0.000000 0.000000
# 4 0.000000 0.000000 0.000000 0.054863 0.000000 0.000000
# 5 0.000000 0.000000 0.000000 0.000000 0.078563 0.000000
# 6 0.000000 0.000000 0.000000 0.000000 0.000000 0.026170
#
#
# Mechanical properties :
#
#
# Convention : Reuss Voigt Hill
#
# Bulk Modulus (GPa) = 44.64799 62.87716 53.76257
# Shear Modulus (GPa) = 17.85367 24.16735 21.01051
#
# Velocity S-wave (km/s) = 2.93944 3.41992 3.18874
# Velocity P-wave (km/s) = 5.75568 6.78410 6.29094
#
# Compressibility (1/GPa) = 0.02239743
#
# Stress axis : x y z
#
# Youngs Moduli (GPa) = 75.76658 26.68768 58.73315
#
# Poissons Ratio (x) = 0.40138 0.07735
# Poissons Ratio (y) = 1.13951 0.36956
# Poissons Ratio (z) = 0.09978 0.16792
#
# Static dielectric constant tensor:
#      x y z
#    x 1.786550 0.000000 0.000000 
#    y 0.000000 1.744650 0.000000 
#    z 0.000000 0.000000 1.854090 
# 
# From -- ./inp_files/7989.got.cif
#   From: 2010.05.17/outbox.cif.g08.bks.cpg/sg73_4_cif.got.tgz:7989.got - 2010.06.03 17:35:07.
