data_PCOD9530220
_publ_section_title
;
Structure prediction by ZEFSAII (Michael W. Deem and Ramdas Pophale) SiO2 
 PCOD9530220
Probable space group: I B C A 
;
_chemical_formula_sum "Si O2"
_cell_formula_units_Z 88
_cell_length_a 15.487687
_cell_length_b 8.115440
_cell_length_c 28.765580
_cell_angle_alpha 90.000000
_cell_angle_beta 90.000000
_cell_angle_gamma 90.000000
_cell_volume 3615.528335
_symmetry_space_group_name_H-M "I B C A "
_symmetry_group_IT_number 73
_symmetry_cell_setting 'orthorhombic'
loop_
_space_group_symop_operation_xyz
x,y,z
-x,1/2-y,z
x,-y,1/2-z
1/2-x,y,-z
-x,-y,-z
x,1/2+y,-z
-x,y,1/2+z
1/2+x,-y,z
1/2+x,1/2+y,1/2+z
1/2-x,-y,1/2+z
1/2+x,1/2-y,-z
-x,1/2+y,1/2-z
1/2-x,1/2-y,1/2-z
1/2+x,y,1/2-z
1/2-x,1/2+y,z
x,1/2-y,1/2+z
loop_
_atom_site_type_symbol
_atom_site_label
_atom_site_fract_x
_atom_site_fract_y
_atom_site_fract_z
Si Si1 0.414927 0.188290 0.738255
Si Si2 0.688886 0.415212 0.656448
Si Si3 0.500000 0.750000 0.086911
Si Si4 0.097150 0.053181 0.012500
Si Si5 0.626053 0.797529 0.660723
Si Si6 0.894175 0.750706 0.570514
O O1 0.500000 0.250000 0.712058
O O2 0.332381 0.169457 0.705922
O O3 0.401634 0.293298 0.785173
O O4 0.434937 0.000000 0.750000
O O5 0.651307 0.602050 0.652304
O O6 0.791080 0.408556 0.651934
O O7 0.644898 0.293972 0.619489
O O8 0.575220 0.813141 0.052497
O O9 0.448131 0.858207 0.125064
O O10 0.138266 0.902791 0.038624
O O11 0.134943 0.102499 0.962877
O O12 0.000000 0.000000 0.000000
O O13 0.000000 0.750000 0.572779
#
# Coordination Sequence:
#
# PCOD9530220 Si02
#       6
#    16  16   8  16  16  16
#     4  10  22  42  66  98 127 164 210 255 312 384
#     4  11  24  42  63  95 132 163 207 266 317 372
#     4  12  20  40  70  84 124 174 212 252 312 384
#     4  10  19  35  64  90 121 162 212 264 305 368
#     4  11  25  42  65  94 133 166 211 254 319 378
#     4  10  20  37  63  92 123 164 214 259 317 375
#
# _framework density 24.339459000000002
#
# number of rings (size 3 to 8) (size 9 to 14) (size 15 to 20)
#    0.000    1.455    5.455    1.091    0.000    4.364 
#    0.000    0.909    4.000    0.000    0.000    0.000 
#    0.000    0.000    0.000    0.000    0.000    0.000 
#
# Total GULP energy -245436.859759 kJ/mol
# GULP energy per Si atom -5578.110449 kJ/mol
# Density = 2.428406 g / cm^3
# Si number density = 24.339459 Si / 1000 Ang^3
#
#
#
# Elastic Constant Matrix: (Units=GPa)
#
#
# Indices 1 2 3 4 5 6 
#
# 1 65.4402 -0.9597 -3.1257 0.0000 0.0000 0.0000
# 2 -0.9597 40.3034 25.2336 0.0000 0.0000 0.0000
# 3 -3.1257 25.2336 84.1173 0.0000 0.0000 0.0000
# 4 0.0000 0.0000 0.0000 8.3752 0.0000 0.0000
# 5 0.0000 0.0000 0.0000 0.0000 -18.9958 0.0000
# 6 0.0000 0.0000 0.0000 0.0000 0.0000 23.0697
#
#
#
# Elastic Compliance Matrix: (Units=1/GPa)
#
#
# Indices 1 2 3 4 5 6 
#
# 1 0.015308 0.000010 0.000566 0.000000 0.000000 0.000000
# 2 0.000010 0.030549 -0.009164 0.000000 0.000000 0.000000
# 3 0.000566 -0.009164 0.014658 0.000000 0.000000 0.000000
# 4 0.000000 0.000000 0.000000 0.119400 0.000000 0.000000
# 5 0.000000 0.000000 0.000000 0.000000 -0.052643 0.000000
# 6 0.000000 0.000000 0.000000 0.000000 0.000000 0.043347
#
#
# Mechanical properties :
#
#
# Convention : Reuss Voigt Hill
#
# Bulk Modulus (GPa) = 23.07320 25.79525 24.43423
# Shear Modulus (GPa) = 24.72285 13.73734 19.23010
#
# Velocity S-wave (km/s) = 3.19054 2.37830 2.81388
# Velocity P-wave (km/s) = 4.80345 4.26179 4.54070
#
# Compressibility (1/GPa) = 0.04334033
#
# Stress axis : x y z
#
# Youngs Moduli (GPa) = 65.32401 32.73379 68.22132
#
# Poissons Ratio (x) = -0.00034 -0.03859
# Poissons Ratio (y) = -0.00068 0.62517
# Poissons Ratio (z) = -0.03696 0.29997
#
# Static dielectric constant tensor:
#      x y z
#    x 2.086820 0.000000 0.000000 
#    y 0.000000 2.346350 0.000000 
#    z 0.000000 0.000000 2.033120 
# 
# From -- ./inp_files/34508.got.cif
#   From: 2010.05.17/outbox.cif.g08.bks.cpg/sg73_18_cif.got.tgz:34508.got - 2010.06.03 17:35:07.
