data_PCOD9530393
_publ_section_title
;
Structure prediction by ZEFSAII (Michael W. Deem and Ramdas Pophale) SiO2 
 PCOD9530393
Probable space group: I B C A 
;
_chemical_formula_sum "Si O2"
_cell_formula_units_Z 88
_cell_length_a 11.704576
_cell_length_b 23.271859
_cell_length_c 14.600111
_cell_angle_alpha 90.000000
_cell_angle_beta 90.000000
_cell_angle_gamma 90.000000
_cell_volume 3976.883973
_symmetry_space_group_name_H-M "I B C A "
_symmetry_group_IT_number 73
_symmetry_cell_setting 'orthorhombic'
loop_
_space_group_symop_operation_xyz
x,y,z
-x,1/2-y,z
x,-y,1/2-z
1/2-x,y,-z
-x,-y,-z
x,1/2+y,-z
-x,y,1/2+z
1/2+x,-y,z
1/2+x,1/2+y,1/2+z
1/2-x,-y,1/2+z
1/2+x,1/2-y,-z
-x,1/2+y,1/2-z
1/2-x,1/2-y,1/2-z
1/2+x,y,1/2-z
1/2-x,1/2+y,z
x,1/2-y,1/2+z
loop_
_atom_site_type_symbol
_atom_site_label
_atom_site_fract_x
_atom_site_fract_y
_atom_site_fract_z
Si Si1 0.500000 0.250000 0.709136
Si Si2 0.867567 0.350205 0.732246
Si Si3 0.906499 0.411152 0.445074
Si Si4 0.198808 0.209390 0.411981
Si Si5 0.190812 0.458122 0.132833
Si Si6 0.824261 0.087646 0.406853
O O1 0.520069 0.189573 0.760057
O O2 0.389937 0.244623 0.646345
O O3 0.789698 0.316059 0.659748
O O4 0.883526 0.414899 0.694609
O O5 0.809278 0.362707 0.830802
O O6 0.868376 0.345104 0.455376
O O7 0.866395 0.446602 0.533425
O O8 0.821411 0.434736 0.366527
O O9 0.040339 0.413643 0.429242
O O10 0.250000 0.241017 0.500000
O O11 0.199162 0.526087 0.141294
O O12 0.750000 0.092716 0.500000
#
# Coordination Sequence:
#
# PCOD9530393 Si02
#       6
#     8  16  16  16  16  16
#     4  12  26  46  70 100 134 186 240 298 346 426
#     4  11  25  44  67 101 141 173 237 287 349 416
#     4  10  19  43  67  93 135 178 221 277 340 413
#     4  11  23  49  72  94 137 181 234 296 347 411
#     4  10  21  42  68  97 136 185 222 279 353 419
#     4  12  24  40  68 108 143 178 229 285 352 437
#
# _framework density 22.127877999999999
#
# number of rings (size 3 to 8) (size 9 to 14) (size 15 to 20)
#    0.000    1.091    7.273    1.636    0.000    2.909 
#    0.000    1.818    0.000    0.000    0.000    0.000 
#    0.000    0.000    0.000    0.000    0.000    0.000 
#
# Total GULP energy -245463.794497 kJ/mol
# GULP energy per Si atom -5578.722602 kJ/mol
# Density = 2.207751 g / cm^3
# Si number density = 22.127878 Si / 1000 Ang^3
#
#
#
# Elastic Constant Matrix: (Units=GPa)
#
#
# Indices 1 2 3 4 5 6 
#
# 1 101.9269 9.4545 37.6578 0.0000 0.0000 0.0000
# 2 9.4545 86.2672 42.9196 0.0000 0.0000 0.0000
# 3 37.6578 42.9196 93.3616 0.0001 0.0000 0.0000
# 4 0.0000 0.0000 0.0001 76.3252 0.0000 0.0000
# 5 0.0000 0.0000 0.0000 0.0000 34.9014 0.0000
# 6 0.0000 0.0000 0.0000 0.0000 0.0000 16.3613
#
#
#
# Elastic Compliance Matrix: (Units=1/GPa)
#
#
# Indices 1 2 3 4 5 6 
#
# 1 0.011654 0.001376 -0.005333 0.000000 0.000000 0.000000
# 2 0.001376 0.015192 -0.007539 0.000000 0.000000 0.000000
# 3 -0.005333 -0.007539 0.016328 0.000000 0.000000 0.000000
# 4 0.000000 0.000000 0.000000 0.013102 0.000000 0.000000
# 5 0.000000 0.000000 0.000000 0.000000 0.028652 0.000000
# 6 0.000000 0.000000 0.000000 0.000000 0.000000 0.061120
#
#
# Mechanical properties :
#
#
# Convention : Reuss Voigt Hill
#
# Bulk Modulus (GPa) = 49.55034 51.29107 50.42070
# Shear Modulus (GPa) = 28.44682 38.28582 33.36632
#
# Velocity S-wave (km/s) = 3.58937 4.16409 3.88736
# Velocity P-wave (km/s) = 6.29439 6.80803 6.55624
#
# Compressibility (1/GPa) = 0.02018150
#
# Stress axis : x y z
#
# Youngs Moduli (GPa) = 85.80956 65.82472 61.24452
#
# Poissons Ratio (x) = -0.09059 0.32663
# Poissons Ratio (y) = -0.11809 0.46172
# Poissons Ratio (z) = 0.45764 0.49625
#
# Static dielectric constant tensor:
#      x y z
#    x 1.805810 0.000000 0.000000 
#    y 0.000000 1.865210 0.000000 
#    z 0.000000 0.000000 1.914170 
# 
# From -- ./inp_files/16127.got.cif
#   From: 2010.05.17/outbox.cif.g08.bks.cpg/sg73_9_cif.got.tgz:16127.got - 2010.06.03 17:35:07.
