data_PCOD9530044
_publ_section_title
;
Structure prediction by ZEFSAII (Michael W. Deem and Ramdas Pophale) SiO2 
 PCOD9530044
Probable space group: I B C A 
;
_chemical_formula_sum "Si O2"
_cell_formula_units_Z 120
_cell_length_a 11.504991
_cell_length_b 18.401157
_cell_length_c 26.849552
_cell_angle_alpha 90.000000
_cell_angle_beta 90.000000
_cell_angle_gamma 90.000000
_cell_volume 5684.188317
_symmetry_space_group_name_H-M "I B C A "
_symmetry_group_IT_number 73
_symmetry_cell_setting 'orthorhombic'
loop_
_space_group_symop_operation_xyz
x,y,z
-x,1/2-y,z
x,-y,1/2-z
1/2-x,y,-z
-x,-y,-z
x,1/2+y,-z
-x,y,1/2+z
1/2+x,-y,z
1/2+x,1/2+y,1/2+z
1/2-x,-y,1/2+z
1/2+x,1/2-y,-z
-x,1/2+y,1/2-z
1/2-x,1/2-y,1/2-z
1/2+x,y,1/2-z
1/2-x,1/2+y,z
x,1/2-y,1/2+z
loop_
_atom_site_type_symbol
_atom_site_label
_atom_site_fract_x
_atom_site_fract_y
_atom_site_fract_z
Si Si1 0.825999 0.074103 0.117378
Si Si2 0.899746 0.152151 0.460987
Si Si3 0.000000 0.750000 0.885077
Si Si4 0.826309 0.680698 0.048632
Si Si5 0.381234 0.783237 0.304755
Si Si6 0.045435 0.893815 0.431876
Si Si7 0.772459 0.087042 0.370528
Si Si8 0.155561 0.694856 0.307377
O O1 0.733381 0.129644 0.091032
O O2 0.870079 0.120321 0.164575
O O3 0.932619 0.057429 0.078962
O O4 0.780979 0.998662 0.139555
O O5 0.834358 0.230179 0.450788
O O6 0.890771 0.114943 0.515454
O O7 0.849406 0.101072 0.419232
O O8 0.038264 0.161178 0.454981
O O9 0.987746 0.684181 0.922106
O O10 0.105444 0.746674 0.846626
O O11 0.750000 0.663432 0.000000
O O12 0.500000 0.750000 0.327365
O O13 0.324175 0.853427 0.331814
O O14 0.289534 0.716968 0.303109
O O15 0.399871 0.803670 0.246941
O O16 0.140499 0.902679 0.388953
#
# Coordination Sequence:
#
# PCOD9530044 Si02
#       8
#    16  16   8  16  16  16  16  16
#     4  11  27  42  66  95 139 183 217 274 343 420
#     4  11  25  40  67  98 129 177 228 283 325 388
#     4  10  18  40  68  94 120 162 222 278 316 386
#     4  11  22  42  66  96 127 171 230 284 327 384
#     4  11  24  43  71 101 129 166 223 290 337 394
#     4  11  23  43  67  92 132 178 228 268 331 400
#     4  12  27  42  63  99 142 177 219 272 345 411
#     4  10  22  42  70  97 123 169 223 280 331 393
#
# _framework density 21.111194000000001
#
# number of rings (size 3 to 8) (size 9 to 14) (size 15 to 20)
#    0.000    1.067    3.333    2.800    9.333    2.133 
#    0.000    0.000    0.000    3.200    0.000    0.000 
#    0.000    0.000    0.000    0.000    0.000    0.000 
#
# Total GULP energy -334314.320165 kJ/mol
# GULP energy per Si atom -5571.905336 kJ/mol
# Density = 2.106314 g / cm^3
# Si number density = 21.111194 Si / 1000 Ang^3
#
#
#
# Elastic Constant Matrix: (Units=GPa)
#
#
# Indices 1 2 3 4 5 6 
#
# 1 79.3180 24.3673 5.0051 0.0000 0.0000 0.0000
# 2 24.3673 91.5724 21.0659 0.0000 0.0000 0.0000
# 3 5.0051 21.0659 87.7152 0.0000 0.0000 0.0000
# 4 0.0000 0.0000 0.0000 11.0746 0.0000 0.0000
# 5 0.0000 0.0000 0.0000 0.0000 23.3791 0.0000
# 6 0.0000 0.0000 0.0000 0.0000 0.0000 17.9764
#
#
#
# Elastic Compliance Matrix: (Units=1/GPa)
#
#
# Indices 1 2 3 4 5 6 
#
# 1 0.013731 -0.003677 0.000099 0.000000 0.000000 0.000000
# 2 -0.003677 0.012543 -0.002803 0.000000 0.000000 0.000000
# 3 0.000099 -0.002803 0.012068 0.000000 0.000000 0.000000
# 4 0.000000 0.000000 0.000000 0.090296 0.000000 0.000000
# 5 0.000000 0.000000 0.000000 0.000000 0.042773 0.000000
# 6 0.000000 0.000000 0.000000 0.000000 0.000000 0.055629
#
#
# Mechanical properties :
#
#
# Convention : Reuss Voigt Hill
#
# Bulk Modulus (GPa) = 39.08925 39.94249 39.51587
# Shear Modulus (GPa) = 20.13472 24.36385 22.24928
#
# Velocity S-wave (km/s) = 3.09163 3.40085 3.24992
# Velocity P-wave (km/s) = 5.59467 5.86363 5.73073
#
# Compressibility (1/GPa) = 0.02558248
#
# Stress axis : x y z
#
# Youngs Moduli (GPa) = 72.82953 79.72319 82.86413
#
# Poissons Ratio (x) = 0.29311 -0.00824
# Poissons Ratio (y) = 0.26777 0.23224
# Poissons Ratio (z) = -0.00725 0.22344
#
# Static dielectric constant tensor:
#      x y z
#    x 1.878330 0.000000 0.000000 
#    y 0.000000 1.838120 0.000000 
#    z 0.000000 0.000000 1.783590 
# 
# From -- ./inp_files/31845.got.cif
#   From: 2010.05.17/outbox.cif.g08.bks.cpg/sg73_16_cif.got.tgz:31845.got - 2010.06.03 17:35:07.
