data_PCOD9530414
_publ_section_title
;
Structure prediction by ZEFSAII (Michael W. Deem and Ramdas Pophale) SiO2 
 PCOD9530414
Probable space group: I B C A 
;
_chemical_formula_sum "Si O2"
_cell_formula_units_Z 96
_cell_length_a 9.443728
_cell_length_b 23.129745
_cell_length_c 24.172294
_cell_angle_alpha 90.000000
_cell_angle_beta 90.000000
_cell_angle_gamma 90.000000
_cell_volume 5279.978846
_symmetry_space_group_name_H-M "I B C A "
_symmetry_group_IT_number 73
_symmetry_cell_setting 'orthorhombic'
loop_
_space_group_symop_operation_xyz
x,y,z
-x,1/2-y,z
x,-y,1/2-z
1/2-x,y,-z
-x,-y,-z
x,1/2+y,-z
-x,y,1/2+z
1/2+x,-y,z
1/2+x,1/2+y,1/2+z
1/2-x,-y,1/2+z
1/2+x,1/2-y,-z
-x,1/2+y,1/2-z
1/2-x,1/2-y,1/2-z
1/2+x,y,1/2-z
1/2-x,1/2+y,z
x,1/2-y,1/2+z
loop_
_atom_site_type_symbol
_atom_site_label
_atom_site_fract_x
_atom_site_fract_y
_atom_site_fract_z
Si Si1 0.639189 0.500000 0.250000
Si Si2 0.518813 0.122686 0.904620
Si Si3 0.827704 0.430994 0.402293
Si Si4 0.750000 0.216597 0.500000
Si Si5 0.062188 0.882671 0.534064
Si Si6 0.000000 0.750000 0.423816
Si Si7 0.112886 0.464726 0.675594
Si Si8 0.250000 0.014619 0.000000
O O1 0.530080 0.464298 0.288072
O O2 0.746159 0.538617 0.287051
O O3 0.674137 0.096631 0.893856
O O4 0.501587 0.190175 0.890653
O O5 0.407339 0.083091 0.871759
O O6 0.494867 0.119815 0.970916
O O7 0.875178 0.472008 0.352571
O O8 0.823230 0.473250 0.455816
O O9 0.941872 0.383721 0.420198
O O10 0.835900 0.172236 0.460760
O O11 0.637514 0.251283 0.463961
O O12 0.148365 0.942744 0.534327
#
# Coordination Sequence:
#
# PCOD9530414 Si02
#       8
#     8  16  16   8  16   8  16   8
#     4  10  24  40  58  88 116 140 188 246 320 360
#     4  11  21  36  56  84 119 161 195 236 278 349
#     4  12  20  30  56  86 122 153 191 233 296 353
#     4   9  22  35  52  72 116 169 209 236 260 326
#     4  10  20  31  48  83 124 158 193 227 283 344
#     4  10  24  38  54  80 118 168 210 232 276 338
#     4  11  22  39  60  87 113 150 187 247 305 356
#     4  11  18  27  46  84 124 151 181 236 284 352
#
# _framework density 18.181891
#
# number of rings (size 3 to 8) (size 9 to 14) (size 15 to 20)
#    0.000    1.333    5.000    1.500    4.667    0.000 
#    0.000    0.000    0.000    1.000    0.000    0.000 
#    0.000    0.000    0.000    0.000    0.000    0.000 
#
# Total GULP energy -267919.498802 kJ/mol
# GULP energy per Si atom -5581.656225 kJ/mol
# Density = 1.814051 g / cm^3
# Si number density = 18.181891 Si / 1000 Ang^3
#
#
#
# Elastic Constant Matrix: (Units=GPa)
#
#
# Indices 1 2 3 4 5 6 
#
# 1 94.7629 21.0650 27.1315 0.0000 0.0000 0.0000
# 2 21.0650 75.1630 15.4590 0.0000 0.0000 0.0000
# 3 27.1315 15.4590 53.6317 0.0000 0.0000 0.0000
# 4 0.0000 0.0000 0.0000 -18.6348 0.0000 0.0000
# 5 0.0000 0.0000 0.0000 0.0000 35.2058 0.0000
# 6 0.0000 0.0000 0.0000 0.0000 0.0000 8.7276
#
#
#
# Elastic Compliance Matrix: (Units=1/GPa)
#
#
# Indices 1 2 3 4 5 6 
#
# 1 0.012730 -0.002384 -0.005752 0.000000 0.000000 0.000000
# 2 -0.002384 0.014590 -0.002999 0.000000 0.000000 0.000000
# 3 -0.005752 -0.002999 0.022420 0.000000 0.000000 0.000000
# 4 0.000000 0.000000 0.000000 -0.053663 0.000000 0.000000
# 5 0.000000 0.000000 0.000000 0.000000 0.028404 0.000000
# 6 0.000000 0.000000 0.000000 0.000000 0.000000 0.114579
#
#
# Mechanical properties :
#
#
# Convention : Reuss Voigt Hill
#
# Bulk Modulus (GPa) = 36.40674 38.98541 37.69608
# Shear Modulus (GPa) = 29.32774 15.71986 22.52380
#
# Velocity S-wave (km/s) = 4.02060 2.94358 3.52348
# Velocity P-wave (km/s) = 6.45141 5.74816 6.10991
#
# Compressibility (1/GPa) = 0.02746744
#
# Stress axis : x y z
#
# Youngs Moduli (GPa) = 78.55654 68.54236 44.60257
#
# Poissons Ratio (x) = 0.16344 0.25657
# Poissons Ratio (y) = 0.18732 0.13377
# Poissons Ratio (z) = 0.45189 0.20556
#
# Static dielectric constant tensor:
#      x y z
#    x 1.683200 0.000000 0.000000 
#    y 0.000000 1.639230 0.000000 
#    z 0.000000 0.000000 1.639020 
# 
# From -- ./inp_files/7228.got.cif
#   From: 2010.05.17/outbox.cif.g08.bks.cpg/sg73_4_cif.got.tgz:7228.got - 2010.06.03 17:35:07.
