data_PCOD9530363
_publ_section_title
;
Structure prediction by ZEFSAII (Michael W. Deem and Ramdas Pophale) SiO2 
 PCOD9530363
Probable space group: I B C A 
;
_chemical_formula_sum "Si O2"
_cell_formula_units_Z 96
_cell_length_a 27.777649
_cell_length_b 15.352959
_cell_length_c 10.263578
_cell_angle_alpha 90.000000
_cell_angle_beta 90.000000
_cell_angle_gamma 90.000000
_cell_volume 4377.098936
_symmetry_space_group_name_H-M "I B C A "
_symmetry_group_IT_number 73
_symmetry_cell_setting 'orthorhombic'
loop_
_space_group_symop_operation_xyz
x,y,z
-x,1/2-y,z
x,-y,1/2-z
1/2-x,y,-z
-x,-y,-z
x,1/2+y,-z
-x,y,1/2+z
1/2+x,-y,z
1/2+x,1/2+y,1/2+z
1/2-x,-y,1/2+z
1/2+x,1/2-y,-z
-x,1/2+y,1/2-z
1/2-x,1/2-y,1/2-z
1/2+x,y,1/2-z
1/2-x,1/2+y,z
x,1/2-y,1/2+z
loop_
_atom_site_type_symbol
_atom_site_label
_atom_site_fract_x
_atom_site_fract_y
_atom_site_fract_z
Si Si1 0.613254 0.128329 0.855527
Si Si2 0.146465 0.557764 0.077291
Si Si3 0.331988 0.213693 0.782744
Si Si4 0.762587 0.344302 0.867045
Si Si5 0.989708 0.062292 0.125074
Si Si6 0.093635 0.095767 0.189123
O O1 0.619818 0.103181 0.700918
O O2 0.640252 0.219294 0.880851
O O3 0.557203 0.121774 0.892347
O O4 0.637571 0.044948 0.922316
O O5 0.203235 0.575567 0.096294
O O6 0.123862 0.595366 0.945457
O O7 0.290234 0.141632 0.809906
O O8 0.298016 0.282522 0.710847
O O9 0.377217 0.163388 0.721535
O O10 0.750000 0.294532 0.000000
O O11 0.038326 0.114764 0.157184
O O12 0.980262 0.000000 0.250000
O O13 0.000000 0.000000 0.000000
O O14 0.094344 0.000000 0.250000
#
# Coordination Sequence:
#
# PCOD9530363 Si02
#       6
#    16  16  16  16  16  16
#     4  10  20  39  67  90 122 169 223 253 322 390
#     4  10  19  40  64  88 116 177 209 254 316 392
#     4  10  23  40  59  97 126 161 212 273 323 381
#     4  10  20  40  64  82 126 165 207 267 318 380
#     4  11  20  38  65  94 129 173 217 265 319 385
#     4  11  23  38  60  92 135 163 208 266 322 381
#
# _framework density 21.932335999999999
#
# number of rings (size 3 to 8) (size 9 to 14) (size 15 to 20)
#    0.000    1.667    5.000    0.000    0.000    2.000 
#    9.000    0.833    0.000    4.000    0.000    0.000 
#    0.000    0.000    0.000    0.000    0.000    0.000 
#
# Total GULP energy -267206.481283 kJ/mol
# GULP energy per Si atom -5566.801693 kJ/mol
# Density = 2.188242 g / cm^3
# Si number density = 21.932336 Si / 1000 Ang^3
#
#
#
# Elastic Constant Matrix: (Units=GPa)
#
#
# Indices 1 2 3 4 5 6 
#
# 1 243.5841 67.6490 8.4467 0.0000 0.0000 0.0000
# 2 67.6490 76.5755 -9.7109 0.0000 0.0000 0.0000
# 3 8.4467 -9.7109 42.9472 0.0000 0.0000 0.0000
# 4 0.0000 0.0000 0.0000 2.0654 0.0000 0.0000
# 5 0.0000 0.0000 0.0000 0.0000 18.7973 0.0000
# 6 0.0000 0.0000 0.0000 0.0000 0.0000 39.4706
#
#
#
# Elastic Compliance Matrix: (Units=1/GPa)
#
#
# Indices 1 2 3 4 5 6 
#
# 1 0.005654 -0.005287 -0.002308 0.000000 0.000000 0.000000
# 2 -0.005287 0.018389 0.005198 0.000000 0.000000 0.000000
# 3 -0.002308 0.005198 0.024914 0.000000 0.000000 0.000000
# 4 0.000000 0.000000 0.000000 0.484168 0.000000 0.000000
# 5 0.000000 0.000000 0.000000 0.000000 0.053199 0.000000
# 6 0.000000 0.000000 0.000000 0.000000 0.000000 0.025335
#
#
# Mechanical properties :
#
#
# Convention : Reuss Voigt Hill
#
# Bulk Modulus (GPa) = 22.64358 55.09739 38.87049
# Shear Modulus (GPa) = 7.92174 31.84812 19.88493
#
# Velocity S-wave (km/s) = 1.90256 3.81479 3.01433
# Velocity P-wave (km/s) = 3.89526 6.67679 5.46592
#
# Compressibility (1/GPa) = 0.04416262
#
# Stress axis : x y z
#
# Youngs Moduli (GPa) = 176.87225 54.37980 40.13882
#
# Poissons Ratio (x) = 0.28753 0.09262
# Poissons Ratio (y) = 0.93519 -0.20864
# Poissons Ratio (z) = 0.40813 -0.28266
#
# Static dielectric constant tensor:
#      x y z
#    x 1.841470 0.000000 0.000000 
#    y 0.000000 1.891860 0.000000 
#    z 0.000000 0.000000 2.051850 
# 
# From -- ./inp_files/13634.got.cif
#   From: 2010.05.17/outbox.cif.g08.bks.cpg/sg73_7_cif.got.tgz:13634.got - 2010.06.03 17:35:07.
