data_PCOD9530513
_publ_section_title
;
Structure prediction by ZEFSAII (Michael W. Deem and Ramdas Pophale) SiO2 
 PCOD9530513
Probable space group: I B C A 
;
_chemical_formula_sum "Si O2"
_cell_formula_units_Z 96
_cell_length_a 10.526049
_cell_length_b 16.436276
_cell_length_c 24.031530
_cell_angle_alpha 90.000000
_cell_angle_beta 90.000000
_cell_angle_gamma 90.000000
_cell_volume 4157.672093
_symmetry_space_group_name_H-M "I B C A "
_symmetry_group_IT_number 73
_symmetry_cell_setting 'orthorhombic'
loop_
_space_group_symop_operation_xyz
x,y,z
-x,1/2-y,z
x,-y,1/2-z
1/2-x,y,-z
-x,-y,-z
x,1/2+y,-z
-x,y,1/2+z
1/2+x,-y,z
1/2+x,1/2+y,1/2+z
1/2-x,-y,1/2+z
1/2+x,1/2-y,-z
-x,1/2+y,1/2-z
1/2-x,1/2-y,1/2-z
1/2+x,y,1/2-z
1/2-x,1/2+y,z
x,1/2-y,1/2+z
loop_
_atom_site_type_symbol
_atom_site_label
_atom_site_fract_x
_atom_site_fract_y
_atom_site_fract_z
Si Si1 0.529246 0.846170 0.953028
Si Si2 0.693569 0.901437 0.249194
Si Si3 0.728596 0.942357 0.440067
Si Si4 0.555031 0.410502 0.308333
Si Si5 0.670457 0.068686 0.644558
Si Si6 0.515821 0.345272 0.426646
O O1 0.500000 0.750000 0.952099
O O2 0.404253 0.897953 0.938988
O O3 0.621042 0.873312 0.904027
O O4 0.561039 0.868812 0.017403
O O5 0.544571 0.882715 0.239676
O O6 0.800981 0.878202 0.295048
O O7 0.760315 0.879502 0.191148
O O8 0.693693 0.000000 0.250000
O O9 0.750000 0.983564 0.500000
O O10 0.840428 0.875133 0.438250
O O11 0.744940 0.003438 0.389244
O O12 0.574559 0.507526 0.321442
O O13 0.493937 0.381407 0.366128
O O14 0.500000 0.250000 0.421800
#
# Coordination Sequence:
#
# PCOD9530513 Si02
#       6
#    16  16  16  16  16  16
#     4  10  21  38  59  90 129 165 201 247 310 377
#     4  10  20  35  55  84 115 150 201 260 316 360
#     4   9  19  34  54  84 118 155 203 250 294 362
#     4  10  21  37  59  85 116 157 208 260 310 365
#     4  10  20  34  59  88 118 157 200 254 306 368
#     4   9  20  38  58  81 121 164 200 251 315 371
#
# _framework density 23.089843999999999
#
# number of rings (size 3 to 8) (size 9 to 14) (size 15 to 20)
#    0.000    2.333    0.000    2.500    0.000   11.333 
#    0.000    5.833    0.000    0.000    0.000    7.000 
#    0.000    0.000    0.000    0.000    0.000    0.000 
#
# Total GULP energy -267427.915766 kJ/mol
# GULP energy per Si atom -5571.414912 kJ/mol
# Density = 2.303729 g / cm^3
# Si number density = 23.089844 Si / 1000 Ang^3
#
#
#
# Elastic Constant Matrix: (Units=GPa)
#
#
# Indices 1 2 3 4 5 6 
#
# 1 59.1978 22.0063 43.2663 0.0000 0.0000 0.0000
# 2 22.0063 41.3158 9.7546 0.0000 0.0000 0.0000
# 3 43.2663 9.7546 114.4072 0.0000 0.0000 0.0000
# 4 0.0000 0.0000 0.0000 15.9279 0.0000 0.0000
# 5 0.0000 0.0000 0.0000 0.0000 39.3792 0.0000
# 6 0.0000 0.0000 0.0000 0.0000 0.0000 -10.5359
#
#
#
# Elastic Compliance Matrix: (Units=1/GPa)
#
#
# Indices 1 2 3 4 5 6 
#
# 1 0.028946 -0.013097 -0.009830 0.000000 0.000000 0.000000
# 2 -0.013097 0.030627 0.002342 0.000000 0.000000 0.000000
# 3 -0.009830 0.002342 0.012259 0.000000 0.000000 0.000000
# 4 0.000000 0.000000 0.000000 0.062783 0.000000 0.000000
# 5 0.000000 0.000000 0.000000 0.000000 0.025394 0.000000
# 6 0.000000 0.000000 0.000000 0.000000 0.000000 -0.094913
#
#
# Mechanical properties :
#
#
# Convention : Reuss Voigt Hill
#
# Bulk Modulus (GPa) = 32.61491 40.55277 36.58384
# Shear Modulus (GPa) = 42.92407 18.28048 30.60228
#
# Velocity S-wave (km/s) = 4.31629 2.81679 3.64449
# Velocity P-wave (km/s) = 6.24471 5.30850 5.79554
#
# Compressibility (1/GPa) = 0.03066083
#
# Stress axis : x y z
#
# Youngs Moduli (GPa) = 34.54768 32.65124 81.57592
#
# Poissons Ratio (x) = 0.42762 0.80188
# Poissons Ratio (y) = 0.45246 -0.19101
# Poissons Ratio (z) = 0.33960 -0.07645
#
# Static dielectric constant tensor:
#      x y z
#    x 1.947320 0.000000 0.000000 
#    y 0.000000 1.829160 0.000000 
#    z 0.000000 0.000000 1.963730 
# 
# From -- ./inp_files/28929.got.cif
#   From: 2010.05.17/outbox.cif.g08.bks.cpg/sg73_15_cif.got.tgz:28929.got - 2010.06.03 17:35:07.
