data_PCOD9530149
_publ_section_title
;
Structure prediction by ZEFSAII (Michael W. Deem and Ramdas Pophale) SiO2 
 PCOD9530149
Probable space group: I B C A 
;
_chemical_formula_sum "Si O2"
_cell_formula_units_Z 120
_cell_length_a 14.385071
_cell_length_b 24.351922
_cell_length_c 16.223915
_cell_angle_alpha 90.000000
_cell_angle_beta 90.000000
_cell_angle_gamma 90.000000
_cell_volume 5683.304380
_symmetry_space_group_name_H-M "I B C A "
_symmetry_group_IT_number 73
_symmetry_cell_setting 'orthorhombic'
loop_
_space_group_symop_operation_xyz
x,y,z
-x,1/2-y,z
x,-y,1/2-z
1/2-x,y,-z
-x,-y,-z
x,1/2+y,-z
-x,y,1/2+z
1/2+x,-y,z
1/2+x,1/2+y,1/2+z
1/2-x,-y,1/2+z
1/2+x,1/2-y,-z
-x,1/2+y,1/2-z
1/2-x,1/2-y,1/2-z
1/2+x,y,1/2-z
1/2-x,1/2+y,z
x,1/2-y,1/2+z
loop_
_atom_site_type_symbol
_atom_site_label
_atom_site_fract_x
_atom_site_fract_y
_atom_site_fract_z
Si Si1 0.240631 0.544776 0.813188
Si Si2 0.079992 0.560413 0.928286
Si Si3 0.947676 0.469755 0.880546
Si Si4 0.000000 0.250000 0.250037
Si Si5 0.224908 0.659688 0.251675
Si Si6 0.817928 0.252227 0.639669
Si Si7 0.462030 0.146517 0.161599
Si Si8 0.642878 0.831845 0.009987
O O1 0.207053 0.500000 0.750000
O O2 0.179102 0.542297 0.894247
O O3 0.347666 0.532349 0.836620
O O4 0.224356 0.603527 0.769647
O O5 0.085777 0.626840 0.930195
O O6 0.002293 0.527283 0.876449
O O7 0.069266 0.542363 0.022823
O O8 0.001268 0.414737 0.849512
O O9 0.087985 0.256622 0.191615
O O10 0.977935 0.302665 0.307135
O O11 0.230933 0.689518 0.340339
O O12 0.256785 0.705237 0.184672
O O13 0.119233 0.643645 0.229785
O O14 0.844305 0.228061 0.550733
O O15 0.410275 0.164291 0.076639
O O16 0.750000 0.852572 0.000000
#
# Coordination Sequence:
#
# PCOD9530149 Si02
#       8
#    16  16  16   8  16  16  16  16
#     4  11  21  35  57  88 115 153 195 239 290 362
#     4  10  19  36  60  84 110 149 202 242 291 345
#     4   9  20  37  57  83 115 151 188 252 293 337
#     4  10  22  34  50  84 120 150 172 232 292 356
#     4   9  18  36  56  82 110 147 190 233 294 340
#     4  10  19  34  57  82 114 149 182 239 292 336
#     4   9  18  35  58  81 109 145 191 234 283 336
#     4  11  18  34  64  89 103 149 210 244 268 352
#
# _framework density 21.114477000000001
#
# number of rings (size 3 to 8) (size 9 to 14) (size 15 to 20)
#    0.000    2.133    2.667    2.000    0.000    2.133 
#    7.200    0.000    2.933    0.000    0.000    0.000 
#    0.000    0.000    0.000    0.000    0.000    0.000 
#
# Total GULP energy -334233.691424 kJ/mol
# GULP energy per Si atom -5570.561524 kJ/mol
# Density = 2.106642 g / cm^3
# Si number density = 21.114477 Si / 1000 Ang^3
#
#
#
# Elastic Constant Matrix: (Units=GPa)
#
#
# Indices 1 2 3 4 5 6 
#
# 1 46.7012 17.1348 0.3380 0.0000 0.0000 0.0000
# 2 17.1348 97.3225 27.4214 0.0000 0.0000 0.0000
# 3 0.3380 27.4214 30.8500 0.0001 0.0000 0.0000
# 4 0.0000 0.0000 0.0001 31.0384 0.0000 0.0000
# 5 0.0000 0.0000 0.0000 0.0000 -0.3820 0.0000
# 6 0.0000 0.0000 0.0000 0.0000 0.0000 13.5309
#
#
#
# Elastic Compliance Matrix: (Units=1/GPa)
#
#
# Indices 1 2 3 4 5 6 
#
# 1 0.023358 -0.005390 0.004535 0.000000 0.000001 0.000000
# 2 -0.005390 0.014952 -0.013231 0.000000 -0.000001 0.000000
# 3 0.004535 -0.013231 0.044126 0.000000 0.000002 0.000000
# 4 0.000000 0.000000 0.000000 0.032218 -0.000001 0.000000
# 5 0.000001 -0.000001 0.000002 -0.000001 -2.617892 0.000000
# 6 0.000000 0.000000 0.000000 0.000000 0.000000 0.073905
#
#
# Mechanical properties :
#
#
# Convention : Reuss Voigt Hill
#
# Bulk Modulus (GPa) = 18.42870 29.40690 23.91780
# Shear Modulus (GPa) = -2.09813 17.50276 7.70231
#
# Velocity S-wave (km/s) = -0.99792 2.88227 1.91201
# Velocity P-wave (km/s) = 2.72381 5.00342 4.02823
#
# Compressibility (1/GPa) = 0.05426317
#
# Stress axis : x y z
#
# Youngs Moduli (GPa) = 42.81260 66.87988 22.66233
#
# Poissons Ratio (x) = 0.36050 -0.10278
# Poissons Ratio (y) = 0.23077 0.29985
# Poissons Ratio (z) = -0.19417 0.88491
#
# Static dielectric constant tensor:
#      x y z
#    x 1.830460 0.000000 0.000000 
#    y 0.000000 1.859710 0.000000 
#    z 0.000000 0.000000 1.722590 
# 
# From -- ./inp_files/22818.got.cif
#   From: 2010.05.17/outbox.cif.g08.bks.cpg/sg73_12_cif.got.tgz:22818.got - 2010.06.03 17:35:07.
