data_PCOD9530103
_publ_section_title
;
Structure prediction by ZEFSAII (Michael W. Deem and Ramdas Pophale) SiO2 
 PCOD9530103
Probable space group: I B C A 
;
_chemical_formula_sum "Si O2"
_cell_formula_units_Z 64
_cell_length_a 37.734448
_cell_length_b 5.096396
_cell_length_c 14.183640
_cell_angle_alpha 90.000000
_cell_angle_beta 90.000000
_cell_angle_gamma 90.000000
_cell_volume 2727.651409
_symmetry_space_group_name_H-M "I B C A "
_symmetry_group_IT_number 73
_symmetry_cell_setting 'orthorhombic'
loop_
_space_group_symop_operation_xyz
x,y,z
-x,1/2-y,z
x,-y,1/2-z
1/2-x,y,-z
-x,-y,-z
x,1/2+y,-z
-x,y,1/2+z
1/2+x,-y,z
1/2+x,1/2+y,1/2+z
1/2-x,-y,1/2+z
1/2+x,1/2-y,-z
-x,1/2+y,1/2-z
1/2-x,1/2-y,1/2-z
1/2+x,y,1/2-z
1/2-x,1/2+y,z
x,1/2-y,1/2+z
loop_
_atom_site_type_symbol
_atom_site_label
_atom_site_fract_x
_atom_site_fract_y
_atom_site_fract_z
Si Si1 0.229029 0.489838 0.135076
Si Si2 0.390542 0.974460 0.861683
Si Si3 0.350616 0.020886 0.365310
Si Si4 0.960856 0.723049 0.561472
O O1 0.228476 0.500000 0.250000
O O2 0.257858 0.275654 0.105807
O O3 0.189345 0.415088 0.105905
O O4 0.361722 0.767236 0.897699
O O5 0.428251 0.837799 0.880346
O O6 0.387370 0.000000 0.750000
O O7 0.379713 0.263799 0.895965
O O8 0.351011 0.000000 0.250000
O O9 0.959264 0.420927 0.528817
O O10 0.000000 0.750000 0.605553
#
# Coordination Sequence:
#
# PCOD9530103 Si02
#       4
#    16  16  16  16
#     4   9  15  23  37  60  94 135 169 198 244 303
#     4  10  19  33  52  76 105 136 169 210 259 307
#     4   9  17  28  44  69 103 136 167 209 257 300
#     4  10  21  38  57  77 104 136 170 212 258 304
#
# _framework density 23.463408999999999
#
# number of rings (size 3 to 8) (size 9 to 14) (size 15 to 20)
#    0.000    2.500    0.000    3.000    0.000    6.000 
#    0.000    7.500    0.000    0.000    0.000    0.000 
#    0.000   70.000    0.000    0.000    0.000    0.000 
#
# Total GULP energy -178662.614541 kJ/mol
# GULP energy per Si atom -5583.206704 kJ/mol
# Density = 2.341001 g / cm^3
# Si number density = 23.463409 Si / 1000 Ang^3
#
#
#
# Elastic Constant Matrix: (Units=GPa)
#
#
# Indices 1 2 3 4 5 6 
#
# 1 145.1150 39.6090 -3.0772 0.0000 0.0000 0.0000
# 2 39.6090 107.9508 -14.9060 0.0000 0.0000 0.0000
# 3 -3.0772 -14.9060 58.7838 0.0000 0.0000 0.0000
# 4 0.0000 0.0000 0.0000 -1.5293 0.0000 0.0000
# 5 0.0000 0.0000 0.0000 0.0000 26.1375 0.0000
# 6 0.0000 0.0000 0.0000 0.0000 0.0000 38.5889
#
#
#
# Elastic Compliance Matrix: (Units=1/GPa)
#
#
# Indices 1 2 3 4 5 6 
#
# 1 0.007664 -0.002857 -0.000323 0.000000 0.000000 0.000000
# 2 -0.002857 0.010664 0.002555 0.000000 0.000000 0.000000
# 3 -0.000323 0.002555 0.017642 0.000000 0.000000 0.000000
# 4 0.000000 0.000000 0.000000 -0.653898 0.000000 0.000000
# 5 0.000000 0.000000 0.000000 0.000000 0.038259 0.000000
# 6 0.000000 0.000000 0.000000 0.000000 0.000000 0.025914
#
#
# Mechanical properties :
#
#
# Convention : Reuss Voigt Hill
#
# Bulk Modulus (GPa) = 28.80158 39.45571 34.12865
# Shear Modulus (GPa) = -9.24334 31.98769 11.37218
#
# Velocity S-wave (km/s) = -1.98696 3.69630 2.20393
# Velocity P-wave (km/s) = 2.65287 5.92192 4.58840
#
# Compressibility (1/GPa) = 0.03472032
#
# Stress axis : x y z
#
# Youngs Moduli (GPa) = 130.48096 93.77008 56.68178
#
# Poissons Ratio (x) = 0.26787 0.01832
# Poissons Ratio (y) = 0.37274 -0.14480
# Poissons Ratio (z) = 0.04217 -0.23955
#
# Static dielectric constant tensor:
#      x y z
#    x 1.865160 0.000000 0.000000 
#    y 0.000000 1.827560 0.000000 
#    z 0.000000 0.000000 1.927590 
# 
# From -- ./inp_files/1628.got.cif
#   From: 2010.05.17/outbox.cif.g08.bks.cpg/sg73_1_cif.got.tgz:1628.got - 2010.06.03 17:35:07.
