data_PCOD9530480
_publ_section_title
;
Structure prediction by ZEFSAII (Michael W. Deem and Ramdas Pophale) SiO2 
 PCOD9530480
Probable space group: I B C A 
;
_chemical_formula_sum "Si O2"
_cell_formula_units_Z 64
_cell_length_a 5.619882
_cell_length_b 24.388630
_cell_length_c 19.289549
_cell_angle_alpha 90.000000
_cell_angle_beta 90.000000
_cell_angle_gamma 90.000000
_cell_volume 2643.849172
_symmetry_space_group_name_H-M "I B C A "
_symmetry_group_IT_number 73
_symmetry_cell_setting 'orthorhombic'
loop_
_space_group_symop_operation_xyz
x,y,z
-x,1/2-y,z
x,-y,1/2-z
1/2-x,y,-z
-x,-y,-z
x,1/2+y,-z
-x,y,1/2+z
1/2+x,-y,z
1/2+x,1/2+y,1/2+z
1/2-x,-y,1/2+z
1/2+x,1/2-y,-z
-x,1/2+y,1/2-z
1/2-x,1/2-y,1/2-z
1/2+x,y,1/2-z
1/2-x,1/2+y,z
x,1/2-y,1/2+z
loop_
_atom_site_type_symbol
_atom_site_label
_atom_site_fract_x
_atom_site_fract_y
_atom_site_fract_z
Si Si1 0.250000 0.810877 0.500000
Si Si2 0.240539 0.234790 0.638545
Si Si3 0.404685 0.379333 0.097251
Si Si4 0.113721 0.477547 0.328762
Si Si5 0.750000 0.967306 0.500000
O O1 0.221642 0.769535 0.434230
O O2 0.443351 0.851522 0.465221
O O3 0.500000 0.250000 0.666541
O O4 0.252044 0.170010 0.627372
O O5 0.000000 0.250000 0.677466
O O6 0.559501 0.413578 0.153648
O O7 0.243571 0.425308 0.063644
O O8 0.128250 0.500000 0.250000
O O9 0.878107 0.509419 0.355786
O O10 0.500000 0.000000 0.500000
#
# Coordination Sequence:
#
# PCOD9530480 Si02
#       5
#     8  16  16  16   8
#     4  10  20  36  56  90 128 162 202 246 312 398
#     4  10  20  34  53  83 122 161 201 240 299 385
#     4  11  22  38  62  89 131 177 206 263 332 382
#     4  10  23  44  66  91 122 168 233 283 318 377
#     4  12  24  34  48  80 122 158 200 246 304 388
#
# _framework density 24.207131
#
# number of rings (size 3 to 8) (size 9 to 14) (size 15 to 20)
#    0.000    1.500    0.000    6.750    0.000    8.000 
#    0.000    0.000    0.000    0.000    0.000   91.000 
#    0.000    0.000    0.000    0.000    0.000    0.000 
#
# Total GULP energy -178272.087993 kJ/mol
# GULP energy per Si atom -5571.002750 kJ/mol
# Density = 2.415203 g / cm^3
# Si number density = 24.207131 Si / 1000 Ang^3
#
#
#
# Elastic Constant Matrix: (Units=GPa)
#
#
# Indices 1 2 3 4 5 6 
#
# 1 228.3822 88.1831 30.6571 0.0000 0.0000 0.0000
# 2 88.1831 181.2770 50.0818 0.0000 0.0000 0.0000
# 3 30.6571 50.0818 107.2445 0.0000 0.0000 0.0000
# 4 0.0000 0.0000 0.0000 8.0880 0.0000 0.0000
# 5 0.0000 0.0000 0.0000 0.0000 27.9790 0.0000
# 6 0.0000 0.0000 0.0000 0.0000 0.0000 45.3099
#
#
#
# Elastic Compliance Matrix: (Units=1/GPa)
#
#
# Indices 1 2 3 4 5 6 
#
# 1 0.005404 -0.002528 -0.000364 0.000000 0.000000 0.000000
# 2 -0.002528 0.007516 -0.002787 0.000000 0.000000 0.000000
# 3 -0.000364 -0.002787 0.010730 0.000000 0.000000 0.000000
# 4 0.000000 0.000000 0.000000 0.123640 0.000000 0.000000
# 5 0.000000 0.000000 0.000000 0.000000 0.035741 0.000000
# 6 0.000000 0.000000 0.000000 0.000000 0.000000 0.022070
#
#
# Mechanical properties :
#
#
# Convention : Reuss Voigt Hill
#
# Bulk Modulus (GPa) = 81.35945 94.97195 88.16570
# Shear Modulus (GPa) = 22.66986 39.47416 31.07201
#
# Velocity S-wave (km/s) = 3.06354 4.04255 3.58661
# Velocity P-wave (km/s) = 6.79679 7.81715 7.32476
#
# Compressibility (1/GPa) = 0.01229114
#
# Stress axis : x y z
#
# Youngs Moduli (GPa) = 185.06092 133.04510 93.19470
#
# Poissons Ratio (x) = 0.33634 0.03394
# Poissons Ratio (y) = 0.46784 0.25976
# Poissons Ratio (z) = 0.06739 0.37084
#
# Static dielectric constant tensor:
#      x y z
#    x 1.968000 0.000000 0.000000 
#    y 0.000000 2.005060 0.000000 
#    z 0.000000 0.000000 1.983020 
# 
# From -- ./inp_files/24364.got.cif
#   From: 2010.05.17/outbox.cif.g08.bks.cpg/sg73_13_cif.got.tgz:24364.got - 2010.06.03 17:35:07.
