data_PCOD9530025
_publ_section_title
;
Structure prediction by ZEFSAII (Michael W. Deem and Ramdas Pophale) SiO2 
 PCOD9530025
Probable space group: I B C A 
;
_chemical_formula_sum "Si O2"
_cell_formula_units_Z 112
_cell_length_a 11.453536
_cell_length_b 15.043177
_cell_length_c 31.516078
_cell_angle_alpha 90.000000
_cell_angle_beta 90.000000
_cell_angle_gamma 90.000000
_cell_volume 5430.143634
_symmetry_space_group_name_H-M "I B C A "
_symmetry_group_IT_number 73
_symmetry_cell_setting 'orthorhombic'
loop_
_space_group_symop_operation_xyz
x,y,z
-x,1/2-y,z
x,-y,1/2-z
1/2-x,y,-z
-x,-y,-z
x,1/2+y,-z
-x,y,1/2+z
1/2+x,-y,z
1/2+x,1/2+y,1/2+z
1/2-x,-y,1/2+z
1/2+x,1/2-y,-z
-x,1/2+y,1/2-z
1/2-x,1/2-y,1/2-z
1/2+x,y,1/2-z
1/2-x,1/2+y,z
x,1/2-y,1/2+z
loop_
_atom_site_type_symbol
_atom_site_label
_atom_site_fract_x
_atom_site_fract_y
_atom_site_fract_z
Si Si1 0.926146 0.008959 0.124559
Si Si2 0.126829 0.195996 0.253320
Si Si3 0.574291 0.159630 0.336672
Si Si4 0.918331 0.521843 0.460620
Si Si5 0.274879 0.884489 0.917677
Si Si6 0.951880 0.848169 0.657739
Si Si7 0.630984 0.209058 0.427246
O O1 0.804239 0.046917 0.109279
O O2 0.984885 0.081711 0.154313
O O3 0.002709 0.011423 0.081553
O O4 0.943187 0.916935 0.148836
O O5 0.250000 0.250000 0.250000
O O6 0.130306 0.143902 0.208817
O O7 0.116645 0.141633 0.297468
O O8 0.000000 0.250000 0.252665
O O9 0.500000 0.250000 0.334646
O O10 0.651821 0.172804 0.379058
O O11 0.824090 0.444207 0.455529
O O12 0.866593 0.622264 0.457549
O O13 0.000000 0.500000 0.500000
O O14 0.369984 0.856084 0.883148
O O15 0.211945 0.794931 0.933646
O O16 0.000000 0.750000 0.658406
O O17 0.500000 0.250000 0.428920
#
# Coordination Sequence:
#
# PCOD9530025 Si02
#       7
#    16  16  16  16  16  16  16
#     4  10  21  41  65  95 125 180 232 279 347 423
#     4  10  21  37  61  96 137 186 232 295 351 406
#     4   9  16  33  64  92 130 171 232 281 330 407
#     4  10  23  41  66  98 137 159 220 295 338 431
#     4  11  21  40  74  93 129 187 226 277 365 427
#     4  10  24  41  60  97 143 175 237 293 348 416
#     4  10  18  39  69  98 124 173 230 270 337 423
#
# _framework density 20.625603999999999
#
# number of rings (size 3 to 8) (size 9 to 14) (size 15 to 20)
#    0.000    2.000    4.286    0.857    4.000    1.143 
#    7.714    2.857    3.143    0.000    0.000    0.000 
#    0.000    0.000    0.000    0.000    0.000    0.000 
#
# Total GULP energy -311977.600809 kJ/mol
# GULP energy per Si atom -5571.028586 kJ/mol
# Density = 2.057866 g / cm^3
# Si number density = 20.625604 Si / 1000 Ang^3
#
#
#
# Elastic Constant Matrix: (Units=GPa)
#
#
# Indices 1 2 3 4 5 6 
#
# 1 76.3149 43.0550 42.4273 0.0000 0.0000 0.0000
# 2 43.0550 157.3460 69.4265 0.0000 0.0000 0.0000
# 3 42.4273 69.4265 108.2231 0.0000 0.0000 0.0000
# 4 0.0000 0.0000 0.0000 17.8689 0.0000 0.0000
# 5 0.0000 0.0000 0.0000 0.0000 31.4633 0.0000
# 6 0.0000 0.0000 0.0000 0.0000 0.0000 31.9019
#
#
#
# Elastic Compliance Matrix: (Units=1/GPa)
#
#
# Indices 1 2 3 4 5 6 
#
# 1 0.017404 -0.002443 -0.005255 0.000000 0.000000 0.000000
# 2 -0.002443 0.009208 -0.004949 0.000000 0.000000 0.000000
# 3 -0.005255 -0.004949 0.014475 0.000000 0.000000 0.000000
# 4 0.000000 0.000000 0.000000 0.055963 0.000000 0.000000
# 5 0.000000 0.000000 0.000000 0.000000 0.031783 0.000000
# 6 0.000000 0.000000 0.000000 0.000000 0.000000 0.031346
#
#
# Mechanical properties :
#
#
# Convention : Reuss Voigt Hill
#
# Bulk Modulus (GPa) = 63.32615 72.41127 67.86871
# Shear Modulus (GPa) = 26.21389 28.71183 27.46286
#
# Velocity S-wave (km/s) = 3.56889 3.73506 3.65292
# Velocity P-wave (km/s) = 6.91028 7.33380 7.12519
#
# Compressibility (1/GPa) = 0.01579126
#
# Stress axis : x y z
#
# Youngs Moduli (GPa) = 57.45850 108.60538 69.08317
#
# Poissons Ratio (x) = 0.26536 0.36306
# Poissons Ratio (y) = 0.14039 0.34189
# Poissons Ratio (z) = 0.30197 0.53748
#
# Static dielectric constant tensor:
#      x y z
#    x 1.819360 0.000000 0.000000 
#    y 0.000000 1.725000 0.000000 
#    z 0.000000 0.000000 1.763810 
# 
# From -- ./inp_files/34031.got.cif
#   From: 2010.05.17/outbox.cif.g08.bks.cpg/sg73_18_cif.got.tgz:34031.got - 2010.06.03 17:35:07.
