data_PCOD9530489
_publ_section_title
;
Structure prediction by ZEFSAII (Michael W. Deem and Ramdas Pophale) SiO2 
 PCOD9530489
Probable space group: I B C A 
;
_chemical_formula_sum "Si O2"
_cell_formula_units_Z 120
_cell_length_a 25.326939
_cell_length_b 17.861110
_cell_length_c 13.414834
_cell_angle_alpha 90.000000
_cell_angle_beta 90.000000
_cell_angle_gamma 90.000000
_cell_volume 6068.431478
_symmetry_space_group_name_H-M "I B C A "
_symmetry_group_IT_number 73
_symmetry_cell_setting 'orthorhombic'
loop_
_space_group_symop_operation_xyz
x,y,z
-x,1/2-y,z
x,-y,1/2-z
1/2-x,y,-z
-x,-y,-z
x,1/2+y,-z
-x,y,1/2+z
1/2+x,-y,z
1/2+x,1/2+y,1/2+z
1/2-x,-y,1/2+z
1/2+x,1/2-y,-z
-x,1/2+y,1/2-z
1/2-x,1/2-y,1/2-z
1/2+x,y,1/2-z
1/2-x,1/2+y,z
x,1/2-y,1/2+z
loop_
_atom_site_type_symbol
_atom_site_label
_atom_site_fract_x
_atom_site_fract_y
_atom_site_fract_z
Si Si1 0.750000 0.875362 0.000000
Si Si2 0.890907 0.136791 0.367476
Si Si3 0.635008 0.869929 0.387309
Si Si4 0.472274 0.821959 0.211451
Si Si5 0.353018 0.029074 0.977947
Si Si6 0.061743 0.762566 0.994780
Si Si7 0.794269 0.767426 0.168598
Si Si8 0.570008 0.424227 0.802045
O O1 0.701935 0.927313 0.035656
O O2 0.768124 0.819940 0.086200
O O3 0.939689 0.133361 0.293058
O O4 0.872400 0.058132 0.413686
O O5 0.906521 0.190807 0.461747
O O6 0.845767 0.181901 0.306142
O O7 0.586901 0.830622 0.444688
O O8 0.681648 0.810003 0.372938
O O9 0.610962 0.890484 0.279097
O O10 0.652686 0.941847 0.451268
O O11 0.500000 0.750000 0.260971
O O12 0.437326 0.787227 0.121589
O O13 0.520618 0.871982 0.172484
O O14 0.396724 0.055938 0.899089
O O15 0.000000 0.750000 0.013303
O O16 0.750000 0.750000 0.250000
O O17 0.549791 0.500000 0.750000
#
# Coordination Sequence:
#
# PCOD9530489 Si02
#       8
#     8  16  16  16  16  16  16  16
#     4  10  22  38  60  84 112 148 190 244 300 352
#     4  10  21  36  56  83 117 151 190 242 296 352
#     4  10  21  37  59  84 114 150 192 240 291 354
#     4  11  21  34  55  82 115 153 194 238 285 347
#     4  10  21  39  58  83 116 152 193 242 298 358
#     4  10  20  34  55  84 114 152 194 236 285 344
#     4  10  21  37  60  86 109 145 193 241 295 352
#     4  10  21  35  55  82 113 150 189 233 287 350
#
# _framework density 19.774467000000001
#
# number of rings (size 3 to 8) (size 9 to 14) (size 15 to 20)
#    0.000    1.867    0.000    5.200    0.000    4.800 
#    0.000    3.333    0.000    3.200    0.000    0.000 
#    0.000    0.000    0.000    0.000    0.000    0.000 
#
# Total GULP energy -334661.014182 kJ/mol
# GULP energy per Si atom -5577.683570 kJ/mol
# Density = 1.972946 g / cm^3
# Si number density = 19.774467 Si / 1000 Ang^3
#
#
#
# Elastic Constant Matrix: (Units=GPa)
#
#
# Indices 1 2 3 4 5 6 
#
# 1 97.8173 47.8977 25.3152 0.0000 0.0000 0.0000
# 2 47.8977 104.9340 29.6824 0.0000 0.0000 0.0000
# 3 25.3152 29.6824 53.8096 0.0000 0.0000 0.0000
# 4 0.0000 0.0000 0.0000 11.3948 0.0000 0.0000
# 5 0.0000 0.0000 0.0000 0.0000 33.1329 0.0000
# 6 0.0000 0.0000 0.0000 0.0000 0.0000 22.9429
#
#
#
# Elastic Compliance Matrix: (Units=1/GPa)
#
#
# Indices 1 2 3 4 5 6 
#
# 1 0.013716 -0.005256 -0.003554 0.000000 0.000000 0.000000
# 2 -0.005256 0.013305 -0.004867 0.000000 0.000000 0.000000
# 3 -0.003554 -0.004867 0.022941 0.000000 0.000000 0.000000
# 4 0.000000 0.000000 0.000000 0.087759 0.000000 0.000000
# 5 0.000000 0.000000 0.000000 0.000000 0.030181 0.000000
# 6 0.000000 0.000000 0.000000 0.000000 0.000000 0.043586
#
#
# Mechanical properties :
#
#
# Convention : Reuss Voigt Hill
#
# Bulk Modulus (GPa) = 44.22911 51.37240 47.80075
# Shear Modulus (GPa) = 20.29391 23.73850 22.01620
#
# Velocity S-wave (km/s) = 3.20702 3.46853 3.34033
# Velocity P-wave (km/s) = 6.01071 6.48664 6.25320
#
# Compressibility (1/GPa) = 0.02260955
#
# Stress axis : x y z
#
# Youngs Moduli (GPa) = 72.90546 75.15705 43.59065
#
# Poissons Ratio (x) = 0.39500 0.15492
# Poissons Ratio (y) = 0.38316 0.21215
# Poissons Ratio (z) = 0.25910 0.36579
#
# Static dielectric constant tensor:
#      x y z
#    x 1.722270 0.000000 0.000000 
#    y 0.000000 1.716450 0.000000 
#    z 0.000000 0.000000 1.558250 
# 
# From -- ./inp_files/19526.got.cif
#   From: 2010.05.17/outbox.cif.g08.bks.cpg/sg73_10_cif.got.tgz:19526.got - 2010.06.03 17:35:07.
