data_PCOD9530726
_publ_section_title
;
Structure prediction by ZEFSAII (Michael W. Deem and Ramdas Pophale) SiO2 
 PCOD9530726
Probable space group: I B C A 
;
_chemical_formula_sum "Si O2"
_cell_formula_units_Z 80
_cell_length_a 15.175452
_cell_length_b 18.955685
_cell_length_c 12.518218
_cell_angle_alpha 90.000000
_cell_angle_beta 90.000000
_cell_angle_gamma 90.000000
_cell_volume 3601.004208
_symmetry_space_group_name_H-M "I B C A "
_symmetry_group_IT_number 73
_symmetry_cell_setting 'orthorhombic'
loop_
_space_group_symop_operation_xyz
x,y,z
-x,1/2-y,z
x,-y,1/2-z
1/2-x,y,-z
-x,-y,-z
x,1/2+y,-z
-x,y,1/2+z
1/2+x,-y,z
1/2+x,1/2+y,1/2+z
1/2-x,-y,1/2+z
1/2+x,1/2-y,-z
-x,1/2+y,1/2-z
1/2-x,1/2-y,1/2-z
1/2+x,y,1/2-z
1/2-x,1/2+y,z
x,1/2-y,1/2+z
loop_
_atom_site_type_symbol
_atom_site_label
_atom_site_fract_x
_atom_site_fract_y
_atom_site_fract_z
Si Si1 0.500000 0.250000 0.621441
Si Si2 0.750000 0.544282 0.000000
Si Si3 0.310173 0.795139 0.406602
Si Si4 0.928957 0.486634 0.087654
Si Si5 0.268304 0.347606 0.813537
Si Si6 0.428958 0.382827 0.244390
O O1 0.591441 0.230859 0.560215
O O2 0.524167 0.315298 0.697414
O O3 0.670491 0.498327 0.953056
O O4 0.788903 0.595212 0.905658
O O5 0.250000 0.828732 0.500000
O O6 0.324135 0.837999 0.295019
O O7 0.250873 0.727306 0.370584
O O8 0.945958 0.549884 0.170414
O O9 0.946215 0.410001 0.137442
O O10 0.000000 0.500000 0.000000
O O11 0.174424 0.369711 0.766259
#
# Coordination Sequence:
#
# PCOD9530726 Si02
#       6
#     8   8  16  16  16  16
#     4  10  22  40  68  98 138 186 220 292 350 408
#     4  10  20  40  68  92 128 186 224 274 358 392
#     4  10  20  37  61 100 132 175 225 274 340 410
#     4  10  22  41  66  94 132 175 224 288 337 417
#     4   9  19  38  64  86 133 173 220 281 333 405
#     4   9  21  43  59  96 135 168 232 277 344 410
#
# _framework density 22.216024999999998
#
# number of rings (size 3 to 8) (size 9 to 14) (size 15 to 20)
#    0.000    2.400    1.000    0.000    2.800    1.600 
#    5.400   12.000    0.000    0.000    0.000    0.000 
#    0.000    0.000    0.000    0.000    0.000    0.000 
#
# Total GULP energy -223117.774149 kJ/mol
# GULP energy per Si atom -5577.944354 kJ/mol
# Density = 2.216546 g / cm^3
# Si number density = 22.216025 Si / 1000 Ang^3
#
#
#
# Elastic Constant Matrix: (Units=GPa)
#
#
# Indices 1 2 3 4 5 6 
#
# 1 87.7378 22.3918 40.1273 0.0000 0.0000 0.0000
# 2 22.3918 69.2193 18.4048 0.0000 0.0000 0.0000
# 3 40.1273 18.4048 87.3569 0.0000 0.0000 0.0000
# 4 0.0000 0.0000 0.0000 13.7872 0.0000 0.0000
# 5 0.0000 0.0000 0.0000 0.0000 17.8610 0.0000
# 6 0.0000 0.0000 0.0000 0.0000 0.0000 -80.4701
#
#
#
# Elastic Compliance Matrix: (Units=1/GPa)
#
#
# Indices 1 2 3 4 5 6 
#
# 1 0.015076 -0.003216 -0.006247 0.000000 0.000000 0.000000
# 2 -0.003216 0.015990 -0.001892 0.000000 0.000000 0.000000
# 3 -0.006247 -0.001892 0.014716 0.000000 0.000000 0.000000
# 4 0.000000 0.000000 0.000000 0.072531 0.000000 0.000000
# 5 0.000000 0.000000 0.000000 0.000000 0.055988 0.000000
# 6 0.000000 0.000000 0.000000 0.000000 0.000000 -0.012427
#
#
# Mechanical properties :
#
#
# Convention : Reuss Voigt Hill
#
# Bulk Modulus (GPa) = 43.34348 45.12908 44.23628
# Shear Modulus (GPa) = 26.00458 1.12829 13.56644
#
# Velocity S-wave (km/s) = 3.42502 0.71342 2.47383
# Velocity P-wave (km/s) = 5.93240 4.58655 5.30235
#
# Compressibility (1/GPa) = 0.02307152
#
# Stress axis : x y z
#
# Youngs Moduli (GPa) = 66.33246 62.53874 67.95508
#
# Poissons Ratio (x) = 0.20110 0.42455
# Poissons Ratio (y) = 0.21330 0.12855
# Poissons Ratio (z) = 0.41441 0.11831
#
# Static dielectric constant tensor:
#      x y z
#    x 1.817710 0.000000 0.000000 
#    y 0.000000 1.868420 0.000000 
#    z 0.000000 0.000000 1.756630 
# 
# From -- ./inp_files/10884.got.cif
#   From: 2010.05.17/outbox.cif.g08.bks.cpg/sg73_6_cif.got.tgz:10884.got - 2010.06.03 17:35:07.
