data_PCOD9530164
_publ_section_title
;
Structure prediction by ZEFSAII (Michael W. Deem and Ramdas Pophale) SiO2 
 PCOD9530164
Probable space group: I B C A 
;
_chemical_formula_sum "Si O2"
_cell_formula_units_Z 120
_cell_length_a 27.786408
_cell_length_b 10.562093
_cell_length_c 19.840067
_cell_angle_alpha 90.000000
_cell_angle_beta 90.000000
_cell_angle_gamma 90.000000
_cell_volume 5822.714952
_symmetry_space_group_name_H-M "I B C A "
_symmetry_group_IT_number 73
_symmetry_cell_setting 'orthorhombic'
loop_
_space_group_symop_operation_xyz
x,y,z
-x,1/2-y,z
x,-y,1/2-z
1/2-x,y,-z
-x,-y,-z
x,1/2+y,-z
-x,y,1/2+z
1/2+x,-y,z
1/2+x,1/2+y,1/2+z
1/2-x,-y,1/2+z
1/2+x,1/2-y,-z
-x,1/2+y,1/2-z
1/2-x,1/2-y,1/2-z
1/2+x,y,1/2-z
1/2-x,1/2+y,z
x,1/2-y,1/2+z
loop_
_atom_site_type_symbol
_atom_site_label
_atom_site_fract_x
_atom_site_fract_y
_atom_site_fract_z
Si Si1 0.295894 0.352717 0.091796
Si Si2 0.559254 0.967490 0.323587
Si Si3 0.475037 0.611239 0.625197
Si Si4 0.084831 0.500000 0.250000
Si Si5 0.686873 0.842439 0.566673
Si Si6 0.360801 0.912634 0.601811
Si Si7 0.897460 0.019490 0.457042
Si Si8 0.615503 0.787596 0.848019
O O1 0.238864 0.347462 0.101098
O O2 0.314799 0.495472 0.101919
O O3 0.331594 0.267575 0.136318
O O4 0.305289 0.317176 0.013304
O O5 0.579861 0.827134 0.329769
O O6 0.540331 0.000000 0.250000
O O7 0.517438 0.006949 0.374643
O O8 0.604835 0.058582 0.336241
O O9 0.500000 0.750000 0.624921
O O10 0.445288 0.579110 0.693695
O O11 0.438146 0.581089 0.564474
O O12 0.114348 0.395792 0.291721
O O13 0.655826 0.729539 0.596610
O O14 0.654279 0.967094 0.568821
O O15 0.390851 0.954631 0.535601
O O16 0.905048 0.147897 0.415903
#
# Coordination Sequence:
#
# PCOD9530164 Si02
#       8
#    16  16  16   8  16  16  16  16
#     4   9  20  33  60  91 121 163 200 249 305 373
#     4  11  23  41  66  86 122 167 213 248 298 367
#     4  11  22  39  62  90 119 165 212 251 303 375
#     4  10  22  34  64  84 122 166 208 262 304 358
#     4  10  19  34  61  91 126 158 200 250 308 373
#     4  10  21  38  61  90 126 159 197 256 311 358
#     4  10  22  37  60  95 126 155 199 261 316 352
#     4  10  21  40  60  93 126 158 211 257 305 363
#
# _framework density 20.608943
#
# number of rings (size 3 to 8) (size 9 to 14) (size 15 to 20)
#    0.000    1.867    2.000    1.600    1.867    4.267 
#    0.000    0.000    1.467    4.800    0.000    0.000 
#    0.000    0.000    0.000    0.000    0.000    0.000 
#
# Total GULP energy -334999.526446 kJ/mol
# GULP energy per Si atom -5583.325441 kJ/mol
# Density = 2.056204 g / cm^3
# Si number density = 20.608943 Si / 1000 Ang^3
#
#
#
# Elastic Constant Matrix: (Units=GPa)
#
#
# Indices 1 2 3 4 5 6 
#
# 1 92.3107 30.1682 27.4368 0.0000 0.0000 0.0000
# 2 30.1682 73.9118 18.9187 0.0000 0.0000 0.0000
# 3 27.4368 18.9187 31.7134 0.0000 0.0000 0.0000
# 4 0.0000 0.0000 0.0000 17.5273 0.0000 0.0000
# 5 0.0000 0.0000 0.0000 0.0000 21.5611 0.0000
# 6 0.0000 0.0000 0.0000 0.0000 0.0000 9.3250
#
#
#
# Elastic Compliance Matrix: (Units=1/GPa)
#
#
# Indices 1 2 3 4 5 6 
#
# 1 0.015260 -0.003363 -0.011196 0.000000 0.000000 0.000000
# 2 -0.003363 0.016709 -0.007058 0.000000 0.000000 0.000000
# 3 -0.011196 -0.007058 0.045429 0.000000 0.000000 0.000000
# 4 0.000000 0.000000 0.000000 0.057054 0.000000 0.000000
# 5 0.000000 0.000000 0.000000 0.000000 0.046380 0.000000
# 6 0.000000 0.000000 0.000000 0.000000 0.000000 0.107239
#
#
# Mechanical properties :
#
#
# Convention : Reuss Voigt Hill
#
# Bulk Modulus (GPa) = 29.27084 38.99817 34.13450
# Shear Modulus (GPa) = 14.59035 17.77681 16.18358
#
# Velocity S-wave (km/s) = 2.66364 2.94015 2.80531
# Velocity P-wave (km/s) = 4.86763 5.52178 5.20499
#
# Compressibility (1/GPa) = 0.03416369
#
# Stress axis : x y z
#
# Youngs Moduli (GPa) = 65.53262 59.84830 22.01230
#
# Poissons Ratio (x) = 0.20125 0.24644
# Poissons Ratio (y) = 0.22037 0.15537
# Poissons Ratio (z) = 0.73369 0.42244
#
# Static dielectric constant tensor:
#      x y z
#    x 1.733660 0.000000 0.000000 
#    y 0.000000 1.735520 0.000000 
#    z 0.000000 0.000000 1.748050 
# 
# From -- ./inp_files/30190.got.cif
#   From: 2010.05.17/outbox.cif.g08.bks.cpg/sg73_16_cif.got.tgz:30190.got - 2010.06.03 17:35:07.
