data_PCOD9530608
_publ_section_title
;
Structure prediction by ZEFSAII (Michael W. Deem and Ramdas Pophale) SiO2 
 PCOD9530608
Probable space group: I B C A 
;
_chemical_formula_sum "Si O2"
_cell_formula_units_Z 112
_cell_length_a 22.740021
_cell_length_b 19.871964
_cell_length_c 12.530562
_cell_angle_alpha 90.000000
_cell_angle_beta 90.000000
_cell_angle_gamma 90.000000
_cell_volume 5662.421611
_symmetry_space_group_name_H-M "I B C A "
_symmetry_group_IT_number 73
_symmetry_cell_setting 'orthorhombic'
loop_
_space_group_symop_operation_xyz
x,y,z
-x,1/2-y,z
x,-y,1/2-z
1/2-x,y,-z
-x,-y,-z
x,1/2+y,-z
-x,y,1/2+z
1/2+x,-y,z
1/2+x,1/2+y,1/2+z
1/2-x,-y,1/2+z
1/2+x,1/2-y,-z
-x,1/2+y,1/2-z
1/2-x,1/2-y,1/2-z
1/2+x,y,1/2-z
1/2-x,1/2+y,z
x,1/2-y,1/2+z
loop_
_atom_site_type_symbol
_atom_site_label
_atom_site_fract_x
_atom_site_fract_y
_atom_site_fract_z
Si Si1 0.469212 0.500000 0.750000
Si Si2 0.937378 0.215663 0.500471
Si Si3 0.901568 0.368198 0.802722
Si Si4 0.299907 0.500000 0.250000
Si Si5 0.412444 0.354369 0.945663
Si Si6 0.963642 0.416076 0.075577
Si Si7 0.281657 0.411422 0.602554
Si Si8 0.140145 0.485111 0.972497
O O1 0.427615 0.555778 0.804458
O O2 0.510685 0.454651 0.823403
O O3 0.934414 0.179678 0.386290
O O4 0.897984 0.282221 0.504344
O O5 0.927388 0.154064 0.583086
O O6 0.000000 0.250000 0.525101
O O7 0.911496 0.345036 0.681840
O O8 0.834223 0.370793 0.841631
O O9 0.260317 0.441738 0.305434
O O10 0.339531 0.477377 0.149970
O O11 0.476066 0.387710 0.978721
O O12 0.368269 0.412824 0.976312
O O13 0.919544 0.470342 0.026061
O O14 0.250000 0.376432 0.500000
O O15 0.312910 0.473928 0.541893
#
# Coordination Sequence:
#
# PCOD9530608 Si02
#       8
#     8  16  16   8  16  16  16  16
#     4  10  22  30  62  92 122 158 200 254 302 382
#     4  10  23  38  58  87 131 166 200 240 296 386
#     4  11  21  39  61  87 121 168 204 245 319 365
#     4  10  22  36  58 100 116 146 208 276 314 342
#     4  10  23  38  59  88 130 165 198 240 308 392
#     4  10  20  36  57  92 125 156 199 246 303 372
#     4  10  20  36  62  90 118 152 208 271 310 352
#     4  11  20  37  62  91 121 158 202 265 307 362
#
# _framework density 19.779523000000001
#
# number of rings (size 3 to 8) (size 9 to 14) (size 15 to 20)
#    0.000    1.714    1.429    3.857    4.000    2.857 
#    2.571    0.000    0.000    6.000    0.000    0.000 
#    0.000    0.000    0.000    0.000    0.000    0.000 
#
# Total GULP energy -311902.047951 kJ/mol
# GULP energy per Si atom -5569.679428 kJ/mol
# Density = 1.973450 g / cm^3
# Si number density = 19.779523 Si / 1000 Ang^3
#
#
#
# Elastic Constant Matrix: (Units=GPa)
#
#
# Indices 1 2 3 4 5 6 
#
# 1 33.3013 1.4279 18.6797 0.0000 0.0000 0.0000
# 2 1.4279 124.9042 31.4918 0.0000 0.0000 0.0000
# 3 18.6797 31.4918 98.2226 0.0000 0.0000 0.0000
# 4 0.0000 0.0000 0.0000 88.7305 0.0000 0.0000
# 5 0.0000 0.0000 0.0000 0.0000 19.6768 0.0000
# 6 0.0000 0.0000 0.0000 0.0000 0.0000 -13.5263
#
#
#
# Elastic Compliance Matrix: (Units=1/GPa)
#
#
# Indices 1 2 3 4 5 6 
#
# 1 0.033821 0.001344 -0.006863 0.000000 0.000000 0.000000
# 2 0.001344 0.008764 -0.003065 0.000000 0.000000 0.000000
# 3 -0.006863 -0.003065 0.012469 0.000000 0.000000 0.000000
# 4 0.000000 0.000000 0.000000 0.011270 0.000000 0.000000
# 5 0.000000 0.000000 0.000000 0.000000 0.050821 0.000000
# 6 0.000000 0.000000 0.000000 0.000000 0.000000 -0.073930
#
#
# Mechanical properties :
#
#
# Convention : Reuss Voigt Hill
#
# Bulk Modulus (GPa) = 26.39605 39.95854 33.17729
# Shear Modulus (GPa) = 68.48228 32.63145 50.55687
#
# Velocity S-wave (km/s) = 5.89050 4.06613 5.06119
# Velocity P-wave (km/s) = 7.72257 6.50310 7.13892
#
# Compressibility (1/GPa) = 0.03788446
#
# Stress axis : x y z
#
# Youngs Moduli (GPa) = 29.56768 114.10810 80.19970
#
# Poissons Ratio (x) = -0.15332 0.55039
# Poissons Ratio (y) = -0.03973 0.24584
# Poissons Ratio (z) = 0.20291 0.34977
#
# Static dielectric constant tensor:
#      x y z
#    x 1.771650 0.000000 0.000000 
#    y 0.000000 1.727270 0.000000 
#    z 0.000000 0.000000 1.730930 
# 
# From -- ./inp_files/13810.got.cif
#   From: 2010.05.17/outbox.cif.g08.bks.cpg/sg73_7_cif.got.tgz:13810.got - 2010.06.03 17:35:07.
