data_PCOD9530997
_publ_section_title
;
Structure prediction by ZEFSAII (Michael W. Deem and Ramdas Pophale) SiO2 
 PCOD9530997
Probable space group: I B C A 
;
_chemical_formula_sum "Si O2"
_cell_formula_units_Z 120
_cell_length_a 21.816427
_cell_length_b 28.045316
_cell_length_c 9.727136
_cell_angle_alpha 90.000000
_cell_angle_beta 90.000000
_cell_angle_gamma 90.000000
_cell_volume 5951.534439
_symmetry_space_group_name_H-M "I B C A "
_symmetry_group_IT_number 73
_symmetry_cell_setting 'orthorhombic'
loop_
_space_group_symop_operation_xyz
x,y,z
-x,1/2-y,z
x,-y,1/2-z
1/2-x,y,-z
-x,-y,-z
x,1/2+y,-z
-x,y,1/2+z
1/2+x,-y,z
1/2+x,1/2+y,1/2+z
1/2-x,-y,1/2+z
1/2+x,1/2-y,-z
-x,1/2+y,1/2-z
1/2-x,1/2-y,1/2-z
1/2+x,y,1/2-z
1/2-x,1/2+y,z
x,1/2-y,1/2+z
loop_
_atom_site_type_symbol
_atom_site_label
_atom_site_fract_x
_atom_site_fract_y
_atom_site_fract_z
Si Si1 0.000000 0.250000 0.338790
Si Si2 0.895250 0.394184 0.478981
Si Si3 0.492074 0.466217 0.133454
Si Si4 0.872085 0.446859 0.748523
Si Si5 0.320890 0.261821 0.540294
Si Si6 0.209932 0.665722 0.639159
Si Si7 0.925076 0.706542 0.909699
Si Si8 0.700853 0.362132 0.117092
O O1 0.960915 0.280524 0.448194
O O2 0.959526 0.219691 0.230647
O O3 0.950982 0.420564 0.403569
O O4 0.869777 0.431180 0.589862
O O5 0.844391 0.372484 0.376919
O O6 0.913186 0.349196 0.574632
O O7 0.462402 0.500000 0.250000
O O8 0.558017 0.450796 0.194960
O O9 0.500000 0.500000 0.000000
O O10 0.845504 0.500000 0.750000
O O11 0.837709 0.407662 0.838758
O O12 0.250000 0.268191 0.500000
O O13 0.318172 0.218833 0.650841
O O14 0.363778 0.238238 0.424847
O O15 0.339981 0.315447 0.578710
O O16 0.250000 0.664646 0.500000
O O17 0.257049 0.654863 0.757510
O O18 0.750000 0.374234 0.000000
#
# Coordination Sequence:
#
# PCOD9530997 Si02
#       8
#     8  16  16  16  16  16  16  16
#     4  10  24  42  54  96 140 168 214 258 324 392
#     4  11  23  42  69  96 126 175 220 267 332 391
#     4  11  23  43  68  95 126 168 224 277 327 385
#     4  11  24  45  68  92 130 167 218 274 329 382
#     4   9  21  39  66  95 131 168 214 262 311 386
#     4  10  20  40  66  96 129 172 211 254 324 396
#     4  10  24  39  66  94 133 176 213 265 326 390
#     4  11  24  42  66  99 129 169 213 270 324 380
#
# _framework density 20.162866999999999
#
# number of rings (size 3 to 8) (size 9 to 14) (size 15 to 20)
#    0.000    1.600    4.000    0.400    3.733    6.400 
#    2.400    0.000    0.000    0.000    0.000    0.000 
#    0.000    0.000    0.000    0.000    0.000    0.000 
#
# Total GULP energy -334903.825823 kJ/mol
# GULP energy per Si atom -5581.730430 kJ/mol
# Density = 2.011698 g / cm^3
# Si number density = 20.162867 Si / 1000 Ang^3
#
#
#
# Elastic Constant Matrix: (Units=GPa)
#
#
# Indices 1 2 3 4 5 6 
#
# 1 59.0078 33.8282 12.0263 0.0000 0.0000 0.0000
# 2 33.8282 142.3979 22.8180 0.0000 0.0000 0.0000
# 3 12.0263 22.8180 89.2120 0.0000 0.0000 0.0000
# 4 0.0000 0.0000 0.0000 8.4845 0.0000 0.0000
# 5 0.0000 0.0000 0.0000 0.0000 27.9430 0.0000
# 6 0.0000 0.0000 0.0000 0.0000 0.0000 55.2419
#
#
#
# Elastic Compliance Matrix: (Units=1/GPa)
#
#
# Indices 1 2 3 4 5 6 
#
# 1 0.019817 -0.004463 -0.001530 0.000000 0.000000 0.000000
# 2 -0.004463 0.008328 -0.001528 0.000000 0.000000 0.000000
# 3 -0.001530 -0.001528 0.011806 0.000000 0.000000 0.000000
# 4 0.000000 0.000000 0.000000 0.117863 0.000000 0.000000
# 5 0.000000 0.000000 0.000000 0.000000 0.035787 0.000000
# 6 0.000000 0.000000 0.000000 0.000000 0.000000 0.018102
#
#
# Mechanical properties :
#
#
# Convention : Reuss Voigt Hill
#
# Bulk Modulus (GPa) = 40.14603 47.55141 43.84872
# Shear Modulus (GPa) = 21.27224 33.13022 27.20123
#
# Velocity S-wave (km/s) = 3.25163 4.05795 3.67696
# Velocity P-wave (km/s) = 5.83537 6.75210 6.31040
#
# Compressibility (1/GPa) = 0.02490906
#
# Stress axis : x y z
#
# Youngs Moduli (GPa) = 50.46155 120.08228 84.69951
#
# Poissons Ratio (x) = 0.53588 0.12959
# Poissons Ratio (y) = 0.22519 0.12945
# Poissons Ratio (z) = 0.07721 0.18353
#
# Static dielectric constant tensor:
#      x y z
#    x 1.750350 0.000000 0.000000 
#    y 0.000000 1.740720 0.000000 
#    z 0.000000 0.000000 1.667950 
# 
# From -- ./inp_files/7361.got.cif
#   From: 2010.05.17/outbox.cif.g08.bks.cpg/sg73_4_cif.got.tgz:7361.got - 2010.06.03 17:35:07.
