data_PCOD9530863
_publ_section_title
;
Structure prediction by ZEFSAII (Michael W. Deem and Ramdas Pophale) SiO2 
 PCOD9530863
Probable space group: I B C A 
;
_chemical_formula_sum "Si O2"
_cell_formula_units_Z 96
_cell_length_a 8.800969
_cell_length_b 20.492033
_cell_length_c 24.533963
_cell_angle_alpha 90.000000
_cell_angle_beta 90.000000
_cell_angle_gamma 90.000000
_cell_volume 4424.694024
_symmetry_space_group_name_H-M "I B C A "
_symmetry_group_IT_number 73
_symmetry_cell_setting 'orthorhombic'
loop_
_space_group_symop_operation_xyz
x,y,z
-x,1/2-y,z
x,-y,1/2-z
1/2-x,y,-z
-x,-y,-z
x,1/2+y,-z
-x,y,1/2+z
1/2+x,-y,z
1/2+x,1/2+y,1/2+z
1/2-x,-y,1/2+z
1/2+x,1/2-y,-z
-x,1/2+y,1/2-z
1/2-x,1/2-y,1/2-z
1/2+x,y,1/2-z
1/2-x,1/2+y,z
x,1/2-y,1/2+z
loop_
_atom_site_type_symbol
_atom_site_label
_atom_site_fract_x
_atom_site_fract_y
_atom_site_fract_z
Si Si1 0.982436 0.415680 0.446562
Si Si2 0.616889 0.000000 0.250000
Si Si3 0.265089 0.789640 0.838038
Si Si4 0.750000 0.996673 0.000000
Si Si5 0.648477 0.212305 0.044741
Si Si6 0.090954 0.347744 0.334351
Si Si7 0.135675 0.092704 0.721592
O O1 0.119815 0.452928 0.473988
O O2 0.046588 0.386386 0.389629
O O3 0.834358 0.461702 0.452356
O O4 0.924040 0.352613 0.480149
O O5 0.719981 0.953851 0.288316
O O6 0.512242 0.951759 0.213994
O O7 0.254526 0.804614 0.902303
O O8 0.429368 0.815468 0.817859
O O9 0.283910 0.710962 0.836156
O O10 0.147354 0.836365 0.806668
O O11 0.500000 0.250000 0.065212
O O12 0.750000 0.247503 0.000000
O O13 0.139749 0.394946 0.286392
#
# Coordination Sequence:
#
# PCOD9530863 Si02
#       7
#    16   8  16   8  16  16  16
#     4  10  21  40  62  95 128 167 225 257 344 398
#     4  10  24  38  60  92 128 172 218 268 324 392
#     4  10  20  40  64  94 126 172 217 271 347 387
#     4  10  22  40  64  94 136 178 210 280 328 418
#     4  11  22  41  68  94 132 170 218 284 342 404
#     4  10  20  38  66  92 124 172 213 278 327 391
#     4  11  21  42  62  91 129 172 223 269 333 398
#
# _framework density 21.696415999999999
#
# number of rings (size 3 to 8) (size 9 to 14) (size 15 to 20)
#    0.000    1.667    5.833    0.500    1.167    1.333 
#    3.000    3.333    0.000    0.000    0.000    0.000 
#    0.000    0.000    0.000    0.000    0.000    0.000 
#
# Total GULP energy -267287.600120 kJ/mol
# GULP energy per Si atom -5568.491669 kJ/mol
# Density = 2.164703 g / cm^3
# Si number density = 21.696416 Si / 1000 Ang^3
#
#
#
# Elastic Constant Matrix: (Units=GPa)
#
#
# Indices 1 2 3 4 5 6 
#
# 1 62.7194 17.3802 25.7696 0.0000 0.0000 0.0000
# 2 17.3802 89.8517 34.3053 0.0000 0.0000 0.0000
# 3 25.7696 34.3053 79.8152 0.0000 0.0000 0.0000
# 4 0.0000 0.0000 0.0000 36.9432 0.0000 0.0000
# 5 0.0000 0.0000 0.0000 0.0000 19.4714 0.0000
# 6 0.0000 0.0000 0.0000 0.0000 0.0000 23.6007
#
#
#
# Elastic Compliance Matrix: (Units=1/GPa)
#
#
# Indices 1 2 3 4 5 6 
#
# 1 0.018563 -0.001558 -0.005324 0.000000 0.000000 0.000000
# 2 -0.001558 0.013445 -0.005276 0.000000 0.000000 0.000000
# 3 -0.005324 -0.005276 0.016515 0.000000 0.000000 0.000000
# 4 0.000000 0.000000 0.000000 0.027069 0.000000 0.000000
# 5 0.000000 0.000000 0.000000 0.000000 0.051357 0.000000
# 6 0.000000 0.000000 0.000000 0.000000 0.000000 0.042372
#
#
# Mechanical properties :
#
#
# Convention : Reuss Voigt Hill
#
# Bulk Modulus (GPa) = 41.30794 43.03295 42.17044
# Shear Modulus (GPa) = 24.78855 26.33179 25.56017
#
# Velocity S-wave (km/s) = 3.38378 3.48752 3.43604
# Velocity P-wave (km/s) = 5.86063 6.00785 5.93470
#
# Compressibility (1/GPa) = 0.02420842
#
# Stress axis : x y z
#
# Youngs Moduli (GPa) = 53.87016 74.37634 60.54967
#
# Poissons Ratio (x) = 0.11589 0.32235
# Poissons Ratio (y) = 0.08394 0.31945
# Poissons Ratio (z) = 0.28679 0.39239
#
# Static dielectric constant tensor:
#      x y z
#    x 1.831550 0.000000 0.000000 
#    y 0.000000 1.873440 0.000000 
#    z 0.000000 0.000000 1.797730 
# 
# From -- ./inp_files/31221.got.cif
#   From: 2010.05.17/outbox.cif.g08.bks.cpg/sg73_16_cif.got.tgz:31221.got - 2010.06.03 17:35:07.
