data_PCOD9530282
_publ_section_title
;
Structure prediction by ZEFSAII (Michael W. Deem and Ramdas Pophale) SiO2 
 PCOD9530282
Probable space group: I B C A 
;
_chemical_formula_sum "Si O2"
_cell_formula_units_Z 104
_cell_length_a 23.921933
_cell_length_b 24.184777
_cell_length_c 9.264741
_cell_angle_alpha 90.000000
_cell_angle_beta 90.000000
_cell_angle_gamma 90.000000
_cell_volume 5360.084545
_symmetry_space_group_name_H-M "I B C A "
_symmetry_group_IT_number 73
_symmetry_cell_setting 'orthorhombic'
loop_
_space_group_symop_operation_xyz
x,y,z
-x,1/2-y,z
x,-y,1/2-z
1/2-x,y,-z
-x,-y,-z
x,1/2+y,-z
-x,y,1/2+z
1/2+x,-y,z
1/2+x,1/2+y,1/2+z
1/2-x,-y,1/2+z
1/2+x,1/2-y,-z
-x,1/2+y,1/2-z
1/2-x,1/2-y,1/2-z
1/2+x,y,1/2-z
1/2-x,1/2+y,z
x,1/2-y,1/2+z
loop_
_atom_site_type_symbol
_atom_site_label
_atom_site_fract_x
_atom_site_fract_y
_atom_site_fract_z
Si Si1 0.000000 0.250000 0.276411
Si Si2 0.426506 0.442725 0.991378
Si Si3 0.201328 0.467008 0.101461
Si Si4 0.059105 0.811803 0.967291
Si Si5 0.260507 0.852804 0.806679
Si Si6 0.822064 0.216063 0.014235
Si Si7 0.250000 0.317394 0.500000
Si Si8 0.494890 0.500000 0.250000
O O1 0.958389 0.280272 0.387087
O O2 0.980486 0.202363 0.166453
O O3 0.360311 0.458472 0.970096
O O4 0.463517 0.465684 0.856244
O O5 0.433302 0.376681 0.989805
O O6 0.454597 0.466628 0.138367
O O7 0.193422 0.500000 0.250000
O O8 0.230576 0.408553 0.143426
O O9 0.250000 0.493511 0.000000
O O10 0.117212 0.784208 0.924006
O O11 0.315492 0.831444 0.890868
O O12 0.266664 0.852396 0.637467
O O13 0.219259 0.804190 0.860102
O O14 0.801237 0.275877 0.965918
#
# Coordination Sequence:
#
# PCOD9530282 Si02
#       8
#     8  16  16  16  16  16   8   8
#     4  10  26  38  58  96 122 166 206 250 310 364
#     4  11  22  45  68  95 124 169 211 275 314 377
#     4  12  25  43  64  92 130 168 205 261 328 383
#     4  11  22  41  62  86 128 161 201 253 309 365
#     4  10  20  40  56  93 117 158 199 246 300 370
#     4  10  19  37  63  80 126 160 196 245 304 359
#     4  10  22  32  60  98 114 152 212 242 282 380
#     4  10  24  42  72  94 120 160 230 266 318 372
#
# _framework density 19.40268
#
# number of rings (size 3 to 8) (size 9 to 14) (size 15 to 20)
#    0.000    1.538    3.846    2.769    6.462    0.000 
#    0.000    0.000    0.000    0.000    0.000    0.000 
#    0.000    0.000    0.000    0.000    0.000    0.000 
#
# Total GULP energy -289596.433797 kJ/mol
# GULP energy per Si atom -5569.162188 kJ/mol
# Density = 1.935852 g / cm^3
# Si number density = 19.402680 Si / 1000 Ang^3
#
#
#
# Elastic Constant Matrix: (Units=GPa)
#
#
# Indices 1 2 3 4 5 6 
#
# 1 69.7499 29.0730 18.5966 0.0000 0.0000 0.0000
# 2 29.0730 64.5313 28.0804 0.0000 0.0000 0.0000
# 3 18.5966 28.0804 119.9830 0.0000 0.0000 0.0000
# 4 0.0000 0.0000 0.0000 20.2743 0.0000 0.0000
# 5 0.0000 0.0000 0.0000 0.0000 -7.7117 0.0000
# 6 0.0000 0.0000 0.0000 0.0000 0.0000 15.0727
#
#
#
# Elastic Compliance Matrix: (Units=1/GPa)
#
#
# Indices 1 2 3 4 5 6 
#
# 1 0.017755 -0.007573 -0.000980 0.000000 0.000000 0.000000
# 2 -0.007573 0.020483 -0.003620 0.000000 0.000000 0.000000
# 3 -0.000980 -0.003620 0.009334 0.000000 0.000000 0.000000
# 4 0.000000 0.000000 0.000000 0.049324 0.000000 0.000000
# 5 0.000000 0.000000 0.000000 0.000000 -0.129673 0.000000
# 6 0.000000 0.000000 0.000000 0.000000 0.000000 0.066345
#
#
# Mechanical properties :
#
#
# Convention : Reuss Voigt Hill
#
# Bulk Modulus (GPa) = 43.05378 45.08491 44.06934
# Shear Modulus (GPa) = 76.15703 17.42800 46.79252
#
# Velocity S-wave (km/s) = 6.27184 3.00029 4.91619
# Velocity P-wave (km/s) = 8.64209 5.94047 7.41536
#
# Compressibility (1/GPa) = 0.02322677
#
# Stress axis : x y z
#
# Youngs Moduli (GPa) = 56.32370 48.82029 107.14003
#
# Poissons Ratio (x) = 0.36970 0.10495
# Poissons Ratio (y) = 0.42652 0.38786
# Poissons Ratio (z) = 0.05517 0.17674
#
# Static dielectric constant tensor:
#      x y z
#    x 1.727580 0.000000 0.000000 
#    y 0.000000 1.680930 0.000000 
#    z 0.000000 0.000000 1.742520 
# 
# From -- ./inp_files/8025.got.cif
#   From: 2010.05.17/outbox.cif.g08.bks.cpg/sg73_5_cif.got.tgz:8025.got - 2010.06.03 17:35:07.
