data_PCOD9530308
_publ_section_title
;
Structure prediction by ZEFSAII (Michael W. Deem and Ramdas Pophale) SiO2 
 PCOD9530308
Probable space group: I B C A 
;
_chemical_formula_sum "Si O2"
_cell_formula_units_Z 96
_cell_length_a 16.907429
_cell_length_b 9.005365
_cell_length_c 26.164871
_cell_angle_alpha 90.000000
_cell_angle_beta 90.000000
_cell_angle_gamma 90.000000
_cell_volume 3983.799661
_symmetry_space_group_name_H-M "I B C A "
_symmetry_group_IT_number 73
_symmetry_cell_setting 'orthorhombic'
loop_
_space_group_symop_operation_xyz
x,y,z
-x,1/2-y,z
x,-y,1/2-z
1/2-x,y,-z
-x,-y,-z
x,1/2+y,-z
-x,y,1/2+z
1/2+x,-y,z
1/2+x,1/2+y,1/2+z
1/2-x,-y,1/2+z
1/2+x,1/2-y,-z
-x,1/2+y,1/2-z
1/2-x,1/2-y,1/2-z
1/2+x,y,1/2-z
1/2-x,1/2+y,z
x,1/2-y,1/2+z
loop_
_atom_site_type_symbol
_atom_site_label
_atom_site_fract_x
_atom_site_fract_y
_atom_site_fract_z
Si Si1 0.444813 0.455972 0.068352
Si Si2 0.382397 0.975892 0.464340
Si Si3 0.598786 0.257061 0.387488
Si Si4 0.327096 0.247906 0.111312
Si Si5 0.000000 0.250000 0.207154
Si Si6 0.613550 0.500000 0.750000
Si Si7 0.227621 0.464882 0.654200
O O1 0.528348 0.412318 0.044011
O O2 0.455708 0.620291 0.091747
O O3 0.410505 0.337160 0.108223
O O4 0.380290 0.478476 0.023230
O O5 0.381566 0.122928 0.430010
O O6 0.325640 0.851187 0.440376
O O7 0.564170 0.317268 0.333492
O O8 0.674316 0.156426 0.373959
O O9 0.270368 0.387511 0.120932
O O10 0.310436 0.124487 0.155483
O O11 0.053469 0.136482 0.239461
O O12 0.675773 0.491314 0.703224
#
# Coordination Sequence:
#
# PCOD9530308 Si02
#       7
#    16  16  16  16   8   8  16
#     4  10  21  37  62 100 133 172 225 275 328 399
#     4  11  20  36  65  99 133 171 226 278 328 391
#     4  10  19  38  62  89 128 170 208 279 342 398
#     4  11  23  41  62  91 133 183 218 271 333 401
#     4  10  20  40  64  92 124 162 212 296 354 392
#     4  10  24  44  70 100 130 166 232 294 354 426
#     4  10  24  44  63  92 134 177 229 272 341 419
#
# _framework density 24.097597
#
# number of rings (size 3 to 8) (size 9 to 14) (size 15 to 20)
#    0.000    1.667    1.667    2.500    0.000    4.667 
#    0.000   14.167    0.000    0.000    0.000    0.000 
#    0.000    0.000    0.000    0.000    0.000    0.000 
#
# Total GULP energy -267409.957042 kJ/mol
# GULP energy per Si atom -5571.040772 kJ/mol
# Density = 2.404275 g / cm^3
# Si number density = 24.097597 Si / 1000 Ang^3
#
#
#
# Elastic Constant Matrix: (Units=GPa)
#
#
# Indices 1 2 3 4 5 6 
#
# 1 62.7766 55.9126 54.4460 0.0000 0.0000 0.0000
# 2 55.9126 128.0544 66.6136 0.0000 0.0000 0.0000
# 3 54.4460 66.6136 112.7352 0.0000 0.0000 0.0000
# 4 0.0000 0.0000 0.0000 35.3469 0.0000 0.0000
# 5 0.0000 0.0000 0.0000 0.0000 17.4929 0.0000
# 6 0.0000 0.0000 0.0000 0.0000 0.0000 48.9825
#
#
#
# Elastic Compliance Matrix: (Units=1/GPa)
#
#
# Indices 1 2 3 4 5 6 
#
# 1 0.033193 -0.008885 -0.010781 0.000000 0.000000 0.000000
# 2 -0.008885 0.013653 -0.003776 0.000000 0.000000 0.000000
# 3 -0.010781 -0.003776 0.016308 0.000000 0.000000 0.000000
# 4 0.000000 0.000000 0.000000 0.028291 0.000000 0.000000
# 5 0.000000 0.000000 0.000000 0.000000 0.057166 0.000000
# 6 0.000000 0.000000 0.000000 0.000000 0.000000 0.020415
#
#
# Mechanical properties :
#
#
# Convention : Reuss Voigt Hill
#
# Bulk Modulus (GPa) = 61.46153 73.05673 67.25913
# Shear Modulus (GPa) = 22.59019 28.80406 25.69712
#
# Velocity S-wave (km/s) = 3.06510 3.46107 3.26909
# Velocity P-wave (km/s) = 6.17147 6.80844 6.49777
#
# Compressibility (1/GPa) = 0.01627034
#
# Stress axis : x y z
#
# Youngs Moduli (GPa) = 30.12660 73.24324 61.31833
#
# Poissons Ratio (x) = 0.65077 0.66106
# Poissons Ratio (y) = 0.26768 0.23156
# Poissons Ratio (z) = 0.32479 0.27659
#
# Static dielectric constant tensor:
#      x y z
#    x 2.102310 0.000000 0.000000 
#    y 0.000000 1.957820 0.000000 
#    z 0.000000 0.000000 1.941960 
# 
# From -- ./inp_files/32632.got.cif
#   From: 2010.05.17/outbox.cif.g08.bks.cpg/sg73_17_cif.got.tgz:32632.got - 2010.06.03 17:35:07.
