data_PCOD9530825
_publ_section_title
;
Structure prediction by ZEFSAII (Michael W. Deem and Ramdas Pophale) SiO2 
 PCOD9530825
Probable space group: I B C A 
;
_chemical_formula_sum "Si O2"
_cell_formula_units_Z 72
_cell_length_a 12.724604
_cell_length_b 10.485731
_cell_length_c 21.247718
_cell_angle_alpha 90.000000
_cell_angle_beta 90.000000
_cell_angle_gamma 90.000000
_cell_volume 2835.014481
_symmetry_space_group_name_H-M "I B C A "
_symmetry_group_IT_number 73
_symmetry_cell_setting 'orthorhombic'
loop_
_space_group_symop_operation_xyz
x,y,z
-x,1/2-y,z
x,-y,1/2-z
1/2-x,y,-z
-x,-y,-z
x,1/2+y,-z
-x,y,1/2+z
1/2+x,-y,z
1/2+x,1/2+y,1/2+z
1/2-x,-y,1/2+z
1/2+x,1/2-y,-z
-x,1/2+y,1/2-z
1/2-x,1/2-y,1/2-z
1/2+x,y,1/2-z
1/2-x,1/2+y,z
x,1/2-y,1/2+z
loop_
_atom_site_type_symbol
_atom_site_label
_atom_site_fract_x
_atom_site_fract_y
_atom_site_fract_z
Si Si1 0.054478 0.569119 0.903466
Si Si2 0.412259 0.341231 0.183559
Si Si3 0.714854 0.870545 0.877447
Si Si4 0.142996 0.576348 0.476897
Si Si5 0.748162 0.000000 0.750000
O O1 0.039128 0.469309 0.846105
O O2 0.159414 0.646357 0.884205
O O3 0.948428 0.630650 0.931508
O O4 0.089905 0.475912 0.960231
O O5 0.500000 0.250000 0.212098
O O6 0.352524 0.256673 0.130910
O O7 0.323165 0.383031 0.231271
O O8 0.694642 0.954378 0.814076
O O9 0.680900 0.954096 0.936703
O O10 0.250000 0.647448 0.500000
#
# Coordination Sequence:
#
# PCOD9530825 Si02
#       5
#    16  16  16  16   8
#     4   9  19  36  61  94 129 168 216 275 340 400
#     4  11  21  39  65  94 127 180 227 278 343 407
#     4  10  20  38  62  91 129 173 220 272 341 404
#     4   9  17  35  63  90 126 172 206 274 339 401
#     4  10  24  40  62  92 132 174 224 292 332 400
#
# _framework density 25.396695000000001
#
# number of rings (size 3 to 8) (size 9 to 14) (size 15 to 20)
#    0.000    2.222    2.222    0.667    0.000    0.889 
#    0.000   16.667    0.000    0.000    0.000    0.000 
#    0.000    0.000    0.000    0.000    0.000    0.000 
#
# Total GULP energy -201092.770228 kJ/mol
# GULP energy per Si atom -5585.910284 kJ/mol
# Density = 2.533889 g / cm^3
# Si number density = 25.396695 Si / 1000 Ang^3
#
#
#
# Elastic Constant Matrix: (Units=GPa)
#
#
# Indices 1 2 3 4 5 6 
#
# 1 140.5550 34.3559 -17.4189 0.0000 0.0000 0.0000
# 2 34.3559 71.0248 2.8732 0.0000 0.0000 0.0000
# 3 -17.4189 2.8732 65.8699 0.0000 0.0000 0.0000
# 4 0.0000 0.0000 0.0000 17.7040 0.0000 0.0000
# 5 0.0000 0.0000 0.0000 0.0000 2.0908 0.0000
# 6 0.0000 0.0000 0.0000 0.0000 0.0000 19.9184
#
#
#
# Elastic Compliance Matrix: (Units=1/GPa)
#
#
# Indices 1 2 3 4 5 6 
#
# 1 0.008435 -0.004178 0.002413 0.000000 0.000000 0.000000
# 2 -0.004178 0.016174 -0.001810 0.000000 0.000000 0.000000
# 3 0.002413 -0.001810 0.015898 0.000000 0.000000 0.000000
# 4 0.000000 0.000000 0.000000 0.056484 0.000000 0.000000
# 5 0.000000 0.000000 0.000000 0.000000 0.478285 0.000000
# 6 0.000000 0.000000 0.000000 0.000000 0.000000 0.050205
#
#
# Mechanical properties :
#
#
# Convention : Reuss Voigt Hill
#
# Bulk Modulus (GPa) = 29.97911 35.23003 32.60457
# Shear Modulus (GPa) = 7.76699 25.11862 16.44280
#
# Velocity S-wave (km/s) = 1.75069 3.14833 2.54724
# Velocity P-wave (km/s) = 3.98955 5.20749 4.63867
#
# Compressibility (1/GPa) = 0.03335657
#
# Stress axis : x y z
#
# Youngs Moduli (GPa) = 118.55626 61.82901 62.89926
#
# Poissons Ratio (x) = 0.25830 -0.15176
# Poissons Ratio (y) = 0.49529 0.11386
# Poissons Ratio (z) = -0.28605 0.11193
#
# Static dielectric constant tensor:
#      x y z
#    x 2.086430 0.000000 0.000000 
#    y 0.000000 1.997630 0.000000 
#    z 0.000000 0.000000 1.961180 
# 
# From -- ./inp_files/29310.got.cif
#   From: 2010.05.17/outbox.cif.g08.bks.cpg/sg73_15_cif.got.tgz:29310.got - 2010.06.03 17:35:07.
