data_PCOD9530698
_publ_section_title
;
Structure prediction by ZEFSAII (Michael W. Deem and Ramdas Pophale) SiO2 
 PCOD9530698
Probable space group: I B C A 
;
_chemical_formula_sum "Si O2"
_cell_formula_units_Z 120
_cell_length_a 31.563642
_cell_length_b 15.941870
_cell_length_c 11.582905
_cell_angle_alpha 90.000000
_cell_angle_beta 90.000000
_cell_angle_gamma 90.000000
_cell_volume 5828.326417
_symmetry_space_group_name_H-M "I B C A "
_symmetry_group_IT_number 73
_symmetry_cell_setting 'orthorhombic'
loop_
_space_group_symop_operation_xyz
x,y,z
-x,1/2-y,z
x,-y,1/2-z
1/2-x,y,-z
-x,-y,-z
x,1/2+y,-z
-x,y,1/2+z
1/2+x,-y,z
1/2+x,1/2+y,1/2+z
1/2-x,-y,1/2+z
1/2+x,1/2-y,-z
-x,1/2+y,1/2-z
1/2-x,1/2-y,1/2-z
1/2+x,y,1/2-z
1/2-x,1/2+y,z
x,1/2-y,1/2+z
loop_
_atom_site_type_symbol
_atom_site_label
_atom_site_fract_x
_atom_site_fract_y
_atom_site_fract_z
Si Si1 0.228567 0.027832 0.620416
Si Si2 0.738309 0.282955 0.622802
Si Si3 0.937023 0.700129 0.221351
Si Si4 0.432955 0.000000 0.250000
Si Si5 0.906762 0.144611 0.543195
Si Si6 0.976973 0.352134 0.856413
Si Si7 0.859014 0.794437 0.560946
Si Si8 0.368496 0.027432 0.438300
O O1 0.250000 0.994612 0.500000
O O2 0.238048 0.127251 0.617287
O O3 0.178685 0.009217 0.608335
O O4 0.243053 0.000000 0.750000
O O5 0.750000 0.237986 0.500000
O O6 0.750000 0.250000 0.750000
O O7 0.687854 0.288961 0.611366
O O8 0.925829 0.643498 0.329520
O O9 0.958756 0.790494 0.243988
O O10 0.892862 0.717122 0.161321
O O11 0.972938 0.659390 0.139087
O O12 0.463548 0.944143 0.325078
O O13 0.400872 0.952686 0.165121
O O14 0.947954 0.168287 0.466011
O O15 0.872166 0.219522 0.527311
O O16 0.886526 0.056321 0.501578
O O17 0.864923 0.888098 0.512285
#
# Coordination Sequence:
#
# PCOD9530698 Si02
#       8
#    16  16  16   8  16  16  16  16
#     4  11  24  45  68  98 136 177 226 285 348 412
#     4  11  26  45  70 101 138 179 232 286 349 414
#     4  10  22  40  64  91 136 169 214 279 327 402
#     4  10  20  36  68  92 122 170 218 268 322 400
#     4  10  24  40  66  97 127 177 222 264 346 399
#     4   9  21  39  60  95 123 172 216 261 334 394
#     4  11  24  43  65  97 133 171 225 279 332 398
#     4  11  22  42  65  95 130 171 221 275 330 403
#
# _framework density 20.589100999999999
#
# number of rings (size 3 to 8) (size 9 to 14) (size 15 to 20)
#    0.000    1.600    3.333    0.800    3.733    9.600 
#    0.000    2.667    0.000    0.000    0.000    0.000 
#    0.000    0.000    0.000    0.000    0.000    0.000 
#
# Total GULP energy -334151.793848 kJ/mol
# GULP energy per Si atom -5569.196564 kJ/mol
# Density = 2.054224 g / cm^3
# Si number density = 20.589101 Si / 1000 Ang^3
#
#
#
# Elastic Constant Matrix: (Units=GPa)
#
#
# Indices 1 2 3 4 5 6 
#
# 1 117.3911 15.2825 8.1169 0.0000 0.0000 0.0000
# 2 15.2825 48.3784 17.1010 0.0000 0.0000 0.0000
# 3 8.1169 17.1010 79.3532 0.0000 0.0000 0.0000
# 4 0.0000 0.0000 0.0000 -25.8278 0.0000 0.0000
# 5 0.0000 0.0000 0.0000 0.0000 18.7962 0.0000
# 6 0.0000 0.0000 0.0000 0.0000 0.0000 26.3788
#
#
#
# Elastic Compliance Matrix: (Units=1/GPa)
#
#
# Indices 1 2 3 4 5 6 
#
# 1 0.008892 -0.002692 -0.000329 0.000000 0.000000 0.000000
# 2 -0.002692 0.023190 -0.004722 0.000000 0.000000 0.000000
# 3 -0.000329 -0.004722 0.013653 0.000000 0.000000 0.000000
# 4 0.000000 0.000000 0.000000 -0.038718 0.000000 0.000000
# 5 0.000000 0.000000 0.000000 0.000000 0.053202 0.000000
# 6 0.000000 0.000000 0.000000 0.000000 0.000000 0.037909
#
#
# Mechanical properties :
#
#
# Convention : Reuss Voigt Hill
#
# Bulk Modulus (GPa) = 33.06082 36.23595 34.64839
# Shear Modulus (GPa) = 40.42069 17.51092 28.96581
#
# Velocity S-wave (km/s) = 4.43562 2.91949 3.75487
# Velocity P-wave (km/s) = 6.50578 5.38538 5.97192
#
# Compressibility (1/GPa) = 0.03024728
#
# Stress axis : x y z
#
# Youngs Moduli (GPa) = 112.46283 43.12176 73.24280
#
# Poissons Ratio (x) = 0.11611 0.02412
# Poissons Ratio (y) = 0.30281 0.34587
# Poissons Ratio (z) = 0.03703 0.20363
#
# Static dielectric constant tensor:
#      x y z
#    x 1.713050 0.000000 0.000000 
#    y 0.000000 0.168160 0.000000 
#    z 0.000000 0.000000 1.801700 
# 
# From -- ./inp_files/14900.got.cif
#   From: 2010.05.17/outbox.cif.g08.bks.cpg/sg73_8_cif.got.tgz:14900.got - 2010.06.03 17:35:07.
