data_PCOD9530444
_publ_section_title
;
Structure prediction by ZEFSAII (Michael W. Deem and Ramdas Pophale) SiO2 
 PCOD9530444
Probable space group: I B C A 
;
_chemical_formula_sum "Si O2"
_cell_formula_units_Z 80
_cell_length_a 17.636826
_cell_length_b 20.485678
_cell_length_c 9.101802
_cell_angle_alpha 90.000000
_cell_angle_beta 90.000000
_cell_angle_gamma 90.000000
_cell_volume 3288.502346
_symmetry_space_group_name_H-M "I B C A "
_symmetry_group_IT_number 73
_symmetry_cell_setting 'orthorhombic'
loop_
_space_group_symop_operation_xyz
x,y,z
-x,1/2-y,z
x,-y,1/2-z
1/2-x,y,-z
-x,-y,-z
x,1/2+y,-z
-x,y,1/2+z
1/2+x,-y,z
1/2+x,1/2+y,1/2+z
1/2-x,-y,1/2+z
1/2+x,1/2-y,-z
-x,1/2+y,1/2-z
1/2-x,1/2-y,1/2-z
1/2+x,y,1/2-z
1/2-x,1/2+y,z
x,1/2-y,1/2+z
loop_
_atom_site_type_symbol
_atom_site_label
_atom_site_fract_x
_atom_site_fract_y
_atom_site_fract_z
Si Si1 0.576430 0.500000 0.250000
Si Si2 0.434215 0.444619 0.097484
Si Si3 0.081509 0.321544 0.104303
Si Si4 0.351179 0.421395 0.384694
Si Si5 0.500000 0.750000 0.359463
Si Si6 0.682326 0.382934 0.198774
O O1 0.515704 0.523549 0.370268
O O2 0.633856 0.441240 0.266977
O O3 0.408056 0.410339 0.250418
O O4 0.370635 0.502294 0.076277
O O5 0.441023 0.388377 0.978145
O O6 0.163930 0.326466 0.183213
O O7 0.029555 0.304465 0.245211
O O8 0.066478 0.270545 0.972974
O O9 0.352114 0.378521 0.533152
O O10 0.267816 0.406715 0.321156
#
# Coordination Sequence:
#
# PCOD9530444 Si02
#       6
#     8  16  16  16   8  16
#     4  10  20  32  58 100 138 168 218 258 334 444
#     4  10  22  37  62 102 143 182 216 278 349 423
#     4  11  24  42  71  93 133 182 231 295 358 389
#     4   9  22  39  59  99 146 178 222 260 340 457
#     4  10  26  48  66 104 134 174 254 314 342 390
#     4  11  21  37  64  96 138 187 219 274 345 417
#
# _framework density 24.327182000000001
#
# number of rings (size 3 to 8) (size 9 to 14) (size 15 to 20)
#    0.000    2.000    0.000    3.600    0.000   19.200 
#    0.000    0.000    0.000   14.400    0.000    0.000 
#    0.000    0.000    0.000    0.000    0.000    0.000 
#
# Total GULP energy -222983.264601 kJ/mol
# GULP energy per Si atom -5574.581615 kJ/mol
# Density = 2.427181 g / cm^3
# Si number density = 24.327182 Si / 1000 Ang^3
#
#
#
# Elastic Constant Matrix: (Units=GPa)
#
#
# Indices 1 2 3 4 5 6 
#
# 1 107.2523 46.7981 64.6291 0.0000 0.0000 0.0000
# 2 46.7981 74.0035 69.9125 0.0000 0.0000 0.0000
# 3 64.6291 69.9125 195.4601 0.0000 0.0000 0.0000
# 4 0.0000 0.0000 0.0000 40.8391 0.0000 0.0000
# 5 0.0000 0.0000 0.0000 0.0000 13.3803 0.0000
# 6 0.0000 0.0000 0.0000 0.0000 0.0000 25.1530
#
#
#
# Elastic Compliance Matrix: (Units=1/GPa)
#
#
# Indices 1 2 3 4 5 6 
#
# 1 0.013434 -0.006493 -0.002120 0.000000 0.000000 0.000000
# 2 -0.006493 0.023548 -0.006276 0.000000 0.000000 0.000000
# 3 -0.002120 -0.006276 0.008062 0.000000 0.000000 0.000000
# 4 0.000000 0.000000 0.000000 0.024486 0.000000 0.000000
# 5 0.000000 0.000000 0.000000 0.000000 0.074737 0.000000
# 6 0.000000 0.000000 0.000000 0.000000 0.000000 0.039757
#
#
# Mechanical properties :
#
#
# Convention : Reuss Voigt Hill
#
# Bulk Modulus (GPa) = 65.50095 82.15501 73.82798
# Shear Modulus (GPa) = 22.84263 28.89955 25.87109
#
# Velocity S-wave (km/s) = 3.06759 3.45041 3.26462
# Velocity P-wave (km/s) = 6.28731 7.05110 6.68013
#
# Compressibility (1/GPa) = 0.01526695
#
# Stress axis : x y z
#
# Youngs Moduli (GPa) = 74.43678 42.46711 124.04415
#
# Poissons Ratio (x) = 0.27574 0.26292
# Poissons Ratio (y) = 0.48332 0.77845
# Poissons Ratio (z) = 0.15777 0.26651
#
# Static dielectric constant tensor:
#      x y z
#    x 1.913440 0.000000 0.000000 
#    y 0.000000 2.099540 0.000000 
#    z 0.000000 0.000000 2.128880 
# 
# From -- ./inp_files/7007.got.cif
#   From: 2010.05.17/outbox.cif.g08.bks.cpg/sg73_4_cif.got.tgz:7007.got - 2010.06.03 17:35:07.
