data_PCOD9530242
_publ_section_title
;
Structure prediction by ZEFSAII (Michael W. Deem and Ramdas Pophale) SiO2 
 PCOD9530242
Probable space group: I B C A 
;
_chemical_formula_sum "Si O2"
_cell_formula_units_Z 88
_cell_length_a 14.595887
_cell_length_b 28.561131
_cell_length_c 9.538261
_cell_angle_alpha 90.000000
_cell_angle_beta 90.000000
_cell_angle_gamma 90.000000
_cell_volume 3976.262942
_symmetry_space_group_name_H-M "I B C A "
_symmetry_group_IT_number 73
_symmetry_cell_setting 'orthorhombic'
loop_
_space_group_symop_operation_xyz
x,y,z
-x,1/2-y,z
x,-y,1/2-z
1/2-x,y,-z
-x,-y,-z
x,1/2+y,-z
-x,y,1/2+z
1/2+x,-y,z
1/2+x,1/2+y,1/2+z
1/2-x,-y,1/2+z
1/2+x,1/2-y,-z
-x,1/2+y,1/2-z
1/2-x,1/2-y,1/2-z
1/2+x,y,1/2-z
1/2-x,1/2+y,z
x,1/2-y,1/2+z
loop_
_atom_site_type_symbol
_atom_site_label
_atom_site_fract_x
_atom_site_fract_y
_atom_site_fract_z
Si Si1 0.139356 0.176285 0.502025
Si Si2 0.884303 0.447745 0.751867
Si Si3 0.692752 0.650963 0.295511
Si Si4 0.500000 0.750000 0.538591
Si Si5 0.016169 0.089884 0.492670
Si Si6 0.385156 0.665086 0.103847
O O1 0.250000 0.177862 0.500000
O O2 0.131062 0.171162 0.672020
O O3 0.086586 0.130659 0.441999
O O4 0.080402 0.221356 0.458886
O O5 0.845826 0.500000 0.750000
O O6 0.813860 0.405318 0.779123
O O7 0.927470 0.442055 0.597988
O O8 0.962230 0.436963 0.870071
O O9 0.653588 0.666819 0.444272
O O10 0.798770 0.665118 0.294255
O O11 0.553120 0.710223 0.623542
O O12 0.944074 0.117879 0.592079
#
# Coordination Sequence:
#
# PCOD9530242 Si02
#       6
#    16  16  16   8  16  16
#     4  10  22  38  57  85 120 154 200 248 303 358
#     4  10  19  36  61  88 116 150 203 243 297 368
#     4   9  20  37  59  79 119 160 184 253 306 354
#     4  10  22  38  56  92 114 156 210 248 290 374
#     4   9  20  36  59  84 120 159 189 249 308 355
#     4   9  19  38  57  82 117 157 198 234 308 357
#
# _framework density 22.131333999999999
#
# number of rings (size 3 to 8) (size 9 to 14) (size 15 to 20)
#    0.000    2.545    0.000    0.545    5.091    1.455 
#    3.273    0.909   32.000    0.000    0.000    0.000 
#    0.000    0.000    0.000    0.000    0.000    0.000 
#
# Total GULP energy -245370.669605 kJ/mol
# GULP energy per Si atom -5576.606127 kJ/mol
# Density = 2.208096 g / cm^3
# Si number density = 22.131334 Si / 1000 Ang^3
#
#
#
# Elastic Constant Matrix: (Units=GPa)
#
#
# Indices 1 2 3 4 5 6 
#
# 1 110.0478 30.7999 -1.5864 -0.0009 -0.0002 -0.0001
# 2 30.7999 109.6113 4.4878 0.0012 0.0001 0.0001
# 3 -1.5864 4.4878 50.9490 0.0081 -0.0028 0.0016
# 4 -0.0009 0.0012 0.0081 2.1371 0.0002 0.0011
# 5 -0.0002 0.0001 -0.0028 0.0002 30.3268 0.0003
# 6 -0.0001 0.0001 0.0016 0.0011 0.0003 9.1729
#
#
#
# Elastic Compliance Matrix: (Units=1/GPa)
#
#
# Indices 1 2 3 4 5 6 
#
# 1 0.009878 -0.002798 0.000554 0.000004 0.000000 0.000000
# 2 -0.002798 0.009949 -0.000963 -0.000003 0.000000 0.000000
# 3 0.000554 -0.000963 0.019730 -0.000074 0.000002 -0.000003
# 4 0.000004 -0.000003 -0.000074 0.467921 -0.000003 -0.000057
# 5 0.000000 0.000000 0.000002 -0.000003 0.032974 -0.000001
# 6 0.000000 0.000000 -0.000003 -0.000057 -0.000001 0.109017
#
#
# Mechanical properties :
#
#
# Convention : Reuss Voigt Hill
#
# Bulk Modulus (GPa) = 30.17398 37.55673 33.86535
# Shear Modulus (GPa) = 7.49702 24.12115 15.80909
#
# Velocity S-wave (km/s) = 1.84252 3.30496 2.67560
# Velocity P-wave (km/s) = 4.26499 5.61876 4.98802
#
# Compressibility (1/GPa) = 0.03314114
#
# Stress axis : x y z
#
# Youngs Moduli (GPa) = 101.23356 100.51354 50.68522
#
# Poissons Ratio (x) = 0.28127 -0.02808
# Poissons Ratio (y) = 0.28329 0.04883
# Poissons Ratio (z) = -0.05609 0.09684
#
# Static dielectric constant tensor:
#      x y z
#    x 1.843190 0.000000 0.000000 
#    y 0.000000 1.787320 0.000000 
#    z 0.000000 0.000000 1.847580 
# 
# From -- ./inp_files/11085.got.cif
#   From: 2010.05.17/outbox.cif.g08.bks.cpg/sg73_6_cif.got.tgz:11085.got - 2010.06.03 17:35:07.
