data_PCOD9530868
_publ_section_title
;
Structure prediction by ZEFSAII (Michael W. Deem and Ramdas Pophale) SiO2 
 PCOD9530868
Probable space group: I B C A 
;
_chemical_formula_sum "Si O2"
_cell_formula_units_Z 56
_cell_length_a 20.568076
_cell_length_b 9.125340
_cell_length_c 13.198042
_cell_angle_alpha 90.000000
_cell_angle_beta 90.000000
_cell_angle_gamma 90.000000
_cell_volume 2477.149565
_symmetry_space_group_name_H-M "I B C A "
_symmetry_group_IT_number 73
_symmetry_cell_setting 'orthorhombic'
loop_
_space_group_symop_operation_xyz
x,y,z
-x,1/2-y,z
x,-y,1/2-z
1/2-x,y,-z
-x,-y,-z
x,1/2+y,-z
-x,y,1/2+z
1/2+x,-y,z
1/2+x,1/2+y,1/2+z
1/2-x,-y,1/2+z
1/2+x,1/2-y,-z
-x,1/2+y,1/2-z
1/2-x,1/2-y,1/2-z
1/2+x,y,1/2-z
1/2-x,1/2+y,z
x,1/2-y,1/2+z
loop_
_atom_site_type_symbol
_atom_site_label
_atom_site_fract_x
_atom_site_fract_y
_atom_site_fract_z
Si Si1 0.838634 0.158078 0.528452
Si Si2 0.750000 0.086203 0.000000
Si Si3 0.684193 0.332562 0.213920
Si Si4 0.935590 0.153413 0.691839
O O1 0.801813 0.309237 0.554729
O O2 0.830993 0.159961 0.407165
O O3 0.908879 0.137838 0.576454
O O4 0.794532 0.022017 0.566217
O O5 0.684881 0.500000 0.250000
O O6 0.750000 0.250000 0.250000
O O7 0.623711 0.240643 0.257109
O O8 0.000000 0.250000 0.695176
O O9 0.944575 0.000000 0.750000
#
# Coordination Sequence:
#
# PCOD9530868 Si02
#       4
#    16   8  16  16
#     4  11  22  42  69 102 142 183 228 295 367 429
#     4  10  20  38  68 102 134 170 224 284 352 426
#     4  12  24  43  75 111 144 185 238 299 362 437
#     4  12  28  48  69 100 142 193 249 306 366 435
#
# _framework density 22.606627
#
# number of rings (size 3 to 8) (size 9 to 14) (size 15 to 20)
#    0.000    0.571    0.000   10.286    0.000    1.143 
#    0.000    8.571    0.000    0.000    0.000    0.000 
#    0.000    0.000    0.000    0.000    0.000    0.000 
#
# Total GULP energy -156560.420104 kJ/mol
# GULP energy per Si atom -5591.443575 kJ/mol
# Density = 2.255517 g / cm^3
# Si number density = 22.606627 Si / 1000 Ang^3
#
#
#
# Elastic Constant Matrix: (Units=GPa)
#
#
# Indices 1 2 3 4 5 6 
#
# 1 210.3547 99.4180 65.9339 0.0000 0.0000 0.0000
# 2 99.4180 212.0841 49.7175 0.0000 0.0000 0.0000
# 3 65.9339 49.7175 157.8926 0.0000 0.0000 0.0000
# 4 0.0000 0.0000 0.0000 26.2905 0.0000 0.0000
# 5 0.0000 0.0000 0.0000 0.0000 31.4838 0.0000
# 6 0.0000 0.0000 0.0000 0.0000 0.0000 46.4241
#
#
#
# Elastic Compliance Matrix: (Units=1/GPa)
#
#
# Indices 1 2 3 4 5 6 
#
# 1 0.006608 -0.002646 -0.001926 0.000000 0.000000 0.000000
# 2 -0.002646 0.006151 -0.000832 0.000000 0.000000 0.000000
# 3 -0.001926 -0.000832 0.007400 0.000000 0.000000 0.000000
# 4 0.000000 0.000000 0.000000 0.038036 0.000000 0.000000
# 5 0.000000 0.000000 0.000000 0.000000 0.031762 0.000000
# 6 0.000000 0.000000 0.000000 0.000000 0.000000 0.021541
#
#
# Mechanical properties :
#
#
# Convention : Reuss Voigt Hill
#
# Bulk Modulus (GPa) = 106.94968 112.27447 109.61208
# Shear Modulus (GPa) = 39.86511 45.19049 42.52780
#
# Velocity S-wave (km/s) = 4.20387 4.47586 4.34200
# Velocity P-wave (km/s) = 8.42467 8.74547 8.58657
#
# Compressibility (1/GPa) = 0.00935019
#
# Stress axis : x y z
#
# Youngs Moduli (GPa) = 151.32482 162.58791 135.14063
#
# Poissons Ratio (x) = 0.43024 0.26032
# Poissons Ratio (y) = 0.40043 0.11239
# Poissons Ratio (z) = 0.29150 0.13522
#
# Static dielectric constant tensor:
#      x y z
#    x 1.778220 0.000000 0.000000 
#    y 0.000000 1.869380 0.000000 
#    z 0.000000 0.000000 2.067390 
# 
# From -- ./inp_files/18412.got.cif
#   From: 2010.05.17/outbox.cif.g08.bks.cpg/sg73_10_cif.got.tgz:18412.got - 2010.06.03 17:35:07.
