data_PCOD9530020
_publ_section_title
;
Structure prediction by ZEFSAII (Michael W. Deem and Ramdas Pophale) SiO2 
 PCOD9530020
Probable space group: I B C A 
;
_chemical_formula_sum "Si O2"
_cell_formula_units_Z 112
_cell_length_a 12.243420
_cell_length_b 14.975796
_cell_length_c 29.514616
_cell_angle_alpha 90.000000
_cell_angle_beta 90.000000
_cell_angle_gamma 90.000000
_cell_volume 5411.651244
_symmetry_space_group_name_H-M "I B C A "
_symmetry_group_IT_number 73
_symmetry_cell_setting 'orthorhombic'
loop_
_space_group_symop_operation_xyz
x,y,z
-x,1/2-y,z
x,-y,1/2-z
1/2-x,y,-z
-x,-y,-z
x,1/2+y,-z
-x,y,1/2+z
1/2+x,-y,z
1/2+x,1/2+y,1/2+z
1/2-x,-y,1/2+z
1/2+x,1/2-y,-z
-x,1/2+y,1/2-z
1/2-x,1/2-y,1/2-z
1/2+x,y,1/2-z
1/2-x,1/2+y,z
x,1/2-y,1/2+z
loop_
_atom_site_type_symbol
_atom_site_label
_atom_site_fract_x
_atom_site_fract_y
_atom_site_fract_z
Si Si1 0.912339 0.929480 0.018627
Si Si2 0.936975 0.402921 0.230670
Si Si3 0.482822 0.937795 0.893616
Si Si4 0.361511 0.036217 0.324713
Si Si5 0.748491 0.856953 0.164279
Si Si6 0.302318 0.569492 0.067666
Si Si7 0.650040 0.165233 0.178512
O O1 0.804261 0.969815 0.042671
O O2 0.968190 0.887033 0.062707
O O3 0.868038 0.881603 0.973290
O O4 0.000000 0.000000 0.000000
O O5 0.900605 0.500000 0.250000
O O6 0.867830 0.366820 0.188477
O O7 0.907306 0.340989 0.272666
O O8 0.057967 0.419882 0.211829
O O9 0.440195 0.869323 0.856571
O O10 0.564952 0.009456 0.869225
O O11 0.380344 0.994246 0.911905
O O12 0.255101 0.099072 0.328245
O O13 0.317057 0.937674 0.313407
O O14 0.734396 0.873473 0.110671
O O15 0.805746 0.763725 0.171626
#
# Coordination Sequence:
#
# PCOD9530020 Si02
#       7
#    16  16  16  16  16  16  16
#     4   9  19  32  68  99 125 179 227 273 345 423
#     4  12  24  45  65  95 132 183 234 275 343 407
#     4  11  19  40  65  99 130 178 229 275 349 413
#     4  12  23  44  71  89 138 182 222 288 350 409
#     4  12  25  44  68 101 138 177 233 290 346 411
#     4  10  18  39  63  96 136 172 224 285 342 415
#     4  12  27  43  67 102 137 179 234 290 344 409
#
# _framework density 20.696086000000001
#
# number of rings (size 3 to 8) (size 9 to 14) (size 15 to 20)
#    0.000    0.857    7.143    0.429    2.000    1.143 
#    2.571    0.000    0.000   24.000    0.000    0.000 
#    0.000    0.000    0.000    0.000    0.000    0.000 
#
# Total GULP energy -312167.618323 kJ/mol
# GULP energy per Si atom -5574.421756 kJ/mol
# Density = 2.064898 g / cm^3
# Si number density = 20.696086 Si / 1000 Ang^3
#
#
#
# Elastic Constant Matrix: (Units=GPa)
#
#
# Indices 1 2 3 4 5 6 
#
# 1 100.7862 37.6192 66.3754 0.0000 0.0000 0.0000
# 2 37.6192 75.6142 25.8983 0.0000 0.0000 0.0000
# 3 66.3754 25.8983 156.7486 0.0000 0.0000 0.0000
# 4 0.0000 0.0000 0.0000 2.2395 0.0000 0.0000
# 5 0.0000 0.0000 0.0000 0.0000 54.7608 0.0000
# 6 0.0000 0.0000 0.0000 0.0000 0.0000 3.0032
#
#
#
# Elastic Compliance Matrix: (Units=1/GPa)
#
#
# Indices 1 2 3 4 5 6 
#
# 1 0.015944 -0.005957 -0.005767 0.000000 0.000000 0.000000
# 2 -0.005957 0.016244 -0.000161 0.000000 0.000000 0.000000
# 3 -0.005767 -0.000161 0.008848 0.000000 0.000000 0.000000
# 4 0.000000 0.000000 0.000000 0.446527 0.000000 0.000000
# 5 0.000000 0.000000 0.000000 0.000000 0.018261 0.000000
# 6 0.000000 0.000000 0.000000 0.000000 0.000000 0.332976
#
#
# Mechanical properties :
#
#
# Convention : Reuss Voigt Hill
#
# Bulk Modulus (GPa) = 57.92032 65.88165 61.90099
# Shear Modulus (GPa) = 5.75821 25.55111 15.65466
#
# Velocity S-wave (km/s) = 1.66982 3.51748 2.75327
# Velocity P-wave (km/s) = 5.63601 6.95693 6.33102
#
# Compressibility (1/GPa) = 0.01726510
#
# Stress axis : x y z
#
# Youngs Moduli (GPa) = 62.72146 61.56138 113.01485
#
# Poissons Ratio (x) = 0.36671 0.65177
# Poissons Ratio (y) = 0.37362 0.01824
# Poissons Ratio (z) = 0.36172 0.00994
#
# Static dielectric constant tensor:
#      x y z
#    x 1.807530 0.000000 0.000000 
#    y 0.000000 1.716790 0.000000 
#    z 0.000000 0.000000 1.805320 
# 
# From -- ./inp_files/34013.got.cif
#   From: 2010.05.17/outbox.cif.g08.bks.cpg/sg73_18_cif.got.tgz:34013.got - 2010.06.03 17:35:07.
