data_PCOD9530388
_publ_section_title
;
Structure prediction by ZEFSAII (Michael W. Deem and Ramdas Pophale) SiO2 
 PCOD9530388
Probable space group: I B C A 
;
_chemical_formula_sum "Si O2"
_cell_formula_units_Z 72
_cell_length_a 17.849016
_cell_length_b 13.428006
_cell_length_c 13.407911
_cell_angle_alpha 90.000000
_cell_angle_beta 90.000000
_cell_angle_gamma 90.000000
_cell_volume 3213.563781
_symmetry_space_group_name_H-M "I B C A "
_symmetry_group_IT_number 73
_symmetry_cell_setting 'orthorhombic'
loop_
_space_group_symop_operation_xyz
x,y,z
-x,1/2-y,z
x,-y,1/2-z
1/2-x,y,-z
-x,-y,-z
x,1/2+y,-z
-x,y,1/2+z
1/2+x,-y,z
1/2+x,1/2+y,1/2+z
1/2-x,-y,1/2+z
1/2+x,1/2-y,-z
-x,1/2+y,1/2-z
1/2-x,1/2-y,1/2-z
1/2+x,y,1/2-z
1/2-x,1/2+y,z
x,1/2-y,1/2+z
loop_
_atom_site_type_symbol
_atom_site_label
_atom_site_fract_x
_atom_site_fract_y
_atom_site_fract_z
Si Si1 0.981923 0.958552 0.361479
Si Si2 0.756387 0.000000 0.750000
Si Si3 0.435326 0.330222 0.579727
Si Si4 0.353486 0.623505 0.108437
Si Si5 0.640131 0.326602 0.293707
O O1 0.917111 0.876661 0.373231
O O2 0.061290 0.905593 0.364593
O O3 0.969994 0.000000 0.250000
O O4 0.973425 0.060434 0.422398
O O5 0.804602 0.033755 0.653389
O O6 0.703745 0.092462 0.776170
O O7 0.500000 0.250000 0.553943
O O8 0.363611 0.344955 0.506936
O O9 0.404687 0.307897 0.690457
O O10 0.330452 0.722623 0.166386
#
# Coordination Sequence:
#
# PCOD9530388 Si02
#       5
#    16   8  16  16  16
#     4  10  19  42  71  97 132 174 230 298 349 404
#     4  12  26  46  66  94 146 192 226 280 356 438
#     4  11  23  41  75 106 134 172 239 298 351 412
#     4  12  25  42  70 103 136 182 237 293 358 415
#     4  11  23  48  67  99 142 185 234 292 354 422
#
# _framework density 22.405033
#
# number of rings (size 3 to 8) (size 9 to 14) (size 15 to 20)
#    0.000    0.889    4.444    6.000    0.000    0.889 
#    0.000    0.000    0.000    0.000    0.000    0.000 
#    0.000    0.000    0.000    0.000    0.000    0.000 
#
# Total GULP energy -201114.409421 kJ/mol
# GULP energy per Si atom -5586.511373 kJ/mol
# Density = 2.235404 g / cm^3
# Si number density = 22.405033 Si / 1000 Ang^3
#
#
#
# Elastic Constant Matrix: (Units=GPa)
#
#
# Indices 1 2 3 4 5 6 
#
# 1 88.0409 26.5875 15.9286 0.0000 0.0000 0.0000
# 2 26.5875 98.5875 46.5535 0.0000 0.0000 0.0000
# 3 15.9286 46.5535 65.6760 0.0000 0.0000 0.0000
# 4 0.0000 0.0000 0.0000 25.2058 0.0000 0.0000
# 5 0.0000 0.0000 0.0000 0.0000 1.8892 0.0000
# 6 0.0000 0.0000 0.0000 0.0000 0.0000 30.0454
#
#
#
# Elastic Compliance Matrix: (Units=1/GPa)
#
#
# Indices 1 2 3 4 5 6 
#
# 1 0.012405 -0.002893 -0.000958 0.000000 0.000000 0.000000
# 2 -0.002893 0.015921 -0.010584 0.000000 0.000000 0.000000
# 3 -0.000958 -0.010584 0.022961 0.000000 0.000000 0.000000
# 4 0.000000 0.000000 0.000000 0.039673 0.000000 0.000000
# 5 0.000000 0.000000 0.000000 0.000000 0.529317 0.000000
# 6 0.000000 0.000000 0.000000 0.000000 0.000000 0.033283
#
#
# Mechanical properties :
#
#
# Convention : Reuss Voigt Hill
#
# Bulk Modulus (GPa) = 44.60801 47.82706 46.21754
# Shear Modulus (GPa) = 7.24739 22.31040 14.77889
#
# Velocity S-wave (km/s) = 1.80048 3.15902 2.57110
# Velocity P-wave (km/s) = 4.92700 5.89056 5.43020
#
# Compressibility (1/GPa) = 0.02241750
#
# Stress axis : x y z
#
# Youngs Moduli (GPa) = 80.61017 62.80905 43.55254
#
# Poissons Ratio (x) = 0.18172 0.04172
# Poissons Ratio (y) = 0.23322 0.46095
# Poissons Ratio (z) = 0.07722 0.66476
#
# Static dielectric constant tensor:
#      x y z
#    x 1.799910 0.000000 0.000000 
#    y 0.000000 1.633710 0.000000 
#    z 0.000000 0.000000 1.944230 
# 
# From -- ./inp_files/18453.got.cif
#   From: 2010.05.17/outbox.cif.g08.bks.cpg/sg73_10_cif.got.tgz:18453.got - 2010.06.03 17:35:07.
