data_PCOD9530592
_publ_section_title
;
Structure prediction by ZEFSAII (Michael W. Deem and Ramdas Pophale) SiO2 
 PCOD9530592
Probable space group: I B C A 
;
_chemical_formula_sum "Si O2"
_cell_formula_units_Z 72
_cell_length_a 9.507724
_cell_length_b 21.711813
_cell_length_c 12.981068
_cell_angle_alpha 90.000000
_cell_angle_beta 90.000000
_cell_angle_gamma 90.000000
_cell_volume 2679.680901
_symmetry_space_group_name_H-M "I B C A "
_symmetry_group_IT_number 73
_symmetry_cell_setting 'orthorhombic'
loop_
_space_group_symop_operation_xyz
x,y,z
-x,1/2-y,z
x,-y,1/2-z
1/2-x,y,-z
-x,-y,-z
x,1/2+y,-z
-x,y,1/2+z
1/2+x,-y,z
1/2+x,1/2+y,1/2+z
1/2-x,-y,1/2+z
1/2+x,1/2-y,-z
-x,1/2+y,1/2-z
1/2-x,1/2-y,1/2-z
1/2+x,y,1/2-z
1/2-x,1/2+y,z
x,1/2-y,1/2+z
loop_
_atom_site_type_symbol
_atom_site_label
_atom_site_fract_x
_atom_site_fract_y
_atom_site_fract_z
Si Si1 0.500000 0.750000 0.268875
Si Si2 0.179568 0.202063 0.101100
Si Si3 0.445621 0.127552 0.168561
Si Si4 0.476620 0.084789 0.898680
Si Si5 0.808837 0.989233 0.125841
O O1 0.623423 0.749699 0.183225
O O2 0.530539 0.808881 0.339097
O O3 0.289989 0.157452 0.159587
O O4 0.065214 0.152171 0.058198
O O5 0.250000 0.229631 0.000000
O O6 0.498882 0.102803 0.278207
O O7 0.425075 0.064946 0.105819
O O8 0.342280 0.038568 0.904261
O O9 0.622839 0.050275 0.922244
O O10 0.800315 0.000000 0.250000
#
# Coordination Sequence:
#
# PCOD9530592 Si02
#       5
#     8  16  16  16  16
#     4  10  20  36  56  80 110 156 206 248 296 362
#     4  10  21  37  55  83 119 155 198 252 312 366
#     4   9  18  32  53  79 109 146 192 241 292 357
#     4   9  18  32  54  81 111 148 192 237 290 355
#     4   9  15  28  51  81 108 140 188 239 283 342
#
# _framework density 26.868870999999999
#
# number of rings (size 3 to 8) (size 9 to 14) (size 15 to 20)
#    0.000    2.667    0.000    2.667    0.000    2.667 
#    0.000    4.444    0.000    0.000    0.000    9.333 
#    0.000    0.000    0.000    0.000    0.000    0.000 
#
# Total GULP energy -200588.600779 kJ/mol
# GULP energy per Si atom -5571.905577 kJ/mol
# Density = 2.680772 g / cm^3
# Si number density = 26.868871 Si / 1000 Ang^3
#
#
#
# Elastic Constant Matrix: (Units=GPa)
#
#
# Indices 1 2 3 4 5 6 
#
# 1 86.4808 16.1504 52.2668 0.0000 0.0000 0.0000
# 2 16.1504 82.1730 37.3161 -0.0001 0.0000 0.0000
# 3 52.2668 37.3161 99.9647 -0.0001 0.0000 0.0000
# 4 0.0000 -0.0001 -0.0001 35.6353 0.0000 0.0000
# 5 0.0000 0.0000 0.0000 0.0000 45.2325 0.0000
# 6 0.0000 0.0000 0.0000 0.0000 0.0000 46.8429
#
#
#
# Elastic Compliance Matrix: (Units=1/GPa)
#
#
# Indices 1 2 3 4 5 6 
#
# 1 0.016953 0.000835 -0.009175 0.000000 0.000000 0.000000
# 2 0.000835 0.014695 -0.005922 0.000000 0.000000 0.000000
# 3 -0.009175 -0.005922 0.017012 0.000000 0.000000 0.000000
# 4 0.000000 0.000000 0.000000 0.028062 0.000000 0.000000
# 5 0.000000 0.000000 0.000000 0.000000 0.022108 0.000000
# 6 0.000000 0.000000 0.000000 0.000000 0.000000 0.021348
#
#
# Mechanical properties :
#
#
# Convention : Reuss Voigt Hill
#
# Bulk Modulus (GPa) = 49.66753 53.34281 51.50517
# Shear Modulus (GPa) = 32.17232 36.40115 34.28673
#
# Velocity S-wave (km/s) = 3.46408 3.68471 3.57610
# Velocity P-wave (km/s) = 5.87580 6.16433 6.02179
#
# Compressibility (1/GPa) = 0.02013388
#
# Stress axis : x y z
#
# Youngs Moduli (GPa) = 58.98751 68.05227 58.78369
#
# Poissons Ratio (x) = -0.05681 0.53936
# Poissons Ratio (y) = -0.04924 0.34811
# Poissons Ratio (z) = 0.54123 0.40300
#
# Static dielectric constant tensor:
#      x y z
#    x 2.151150 0.000000 0.000000 
#    y 0.000000 2.136780 0.000000 
#    z 0.000000 0.000000 2.311230 
# 
# From -- ./inp_files/5319.got.cif
#   From: 2010.05.17/outbox.cif.g08.bks.cpg/sg73_3_cif.got.tgz:5319.got - 2010.06.03 17:35:07.
