data_PCOD9530172
_publ_section_title
;
Structure prediction by ZEFSAII (Michael W. Deem and Ramdas Pophale) SiO2 
 PCOD9530172
Probable space group: I B C A 
;
_chemical_formula_sum "Si O2"
_cell_formula_units_Z 80
_cell_length_a 10.434406
_cell_length_b 18.991478
_cell_length_c 19.295148
_cell_angle_alpha 90.000000
_cell_angle_beta 90.000000
_cell_angle_gamma 90.000000
_cell_volume 3823.618990
_symmetry_space_group_name_H-M "I B C A "
_symmetry_group_IT_number 73
_symmetry_cell_setting 'orthorhombic'
loop_
_space_group_symop_operation_xyz
x,y,z
-x,1/2-y,z
x,-y,1/2-z
1/2-x,y,-z
-x,-y,-z
x,1/2+y,-z
-x,y,1/2+z
1/2+x,-y,z
1/2+x,1/2+y,1/2+z
1/2-x,-y,1/2+z
1/2+x,1/2-y,-z
-x,1/2+y,1/2-z
1/2-x,1/2-y,1/2-z
1/2+x,y,1/2-z
1/2-x,1/2+y,z
x,1/2-y,1/2+z
loop_
_atom_site_type_symbol
_atom_site_label
_atom_site_fract_x
_atom_site_fract_y
_atom_site_fract_z
Si Si1 0.399763 0.449579 0.102719
Si Si2 0.250000 0.775303 0.000000
Si Si3 0.876596 0.461321 0.676778
Si Si4 0.550417 0.672129 0.105559
Si Si5 0.421872 0.351416 0.536494
Si Si6 0.250000 0.534911 0.000000
O O1 0.267098 0.455607 0.145157
O O2 0.513378 0.494297 0.137216
O O3 0.458563 0.373112 0.083838
O O4 0.358606 0.485456 0.030629
O O5 0.178943 0.817586 0.940071
O O6 0.354875 0.724197 0.963348
O O7 0.865913 0.500000 0.750000
O O8 0.928939 0.381162 0.668380
O O9 0.500000 0.750000 0.124681
O O10 0.458456 0.641270 0.045123
O O11 0.316029 0.410734 0.552724
#
# Coordination Sequence:
#
# PCOD9530172 Si02
#       6
#    16   8  16  16  16   8
#     4  12  22  39  64  95 137 166 225 288 348 398
#     4   9  20  35  60 102 141 170 217 264 360 432
#     4  12  26  42  63  93 131 187 238 282 324 398
#     4  10  20  38  63  95 137 177 211 275 344 417
#     4  10  19  34  62 101 135 166 208 276 360 417
#     4  11  18  33  60 102 129 162 201 284 360 410
#
# _framework density 20.922585999999999
#
# number of rings (size 3 to 8) (size 9 to 14) (size 15 to 20)
#    0.000    1.200    4.000    3.600    0.000    0.000 
#    0.000    0.000    0.000   14.400    0.000    0.000 
#    0.000    0.000    0.000    0.000    0.000    0.000 
#
# Total GULP energy -223001.918513 kJ/mol
# GULP energy per Si atom -5575.047963 kJ/mol
# Density = 2.087497 g / cm^3
# Si number density = 20.922586 Si / 1000 Ang^3
#
#
#
# Elastic Constant Matrix: (Units=GPa)
#
#
# Indices 1 2 3 4 5 6 
#
# 1 151.9804 47.9582 39.2322 0.0000 0.0000 0.0000
# 2 47.9582 128.8467 51.7372 0.0000 0.0000 0.0000
# 3 39.2322 51.7372 65.8017 0.0000 0.0000 0.0000
# 4 0.0000 0.0000 0.0000 31.4754 0.0000 0.0000
# 5 0.0000 0.0000 0.0000 0.0000 24.6829 0.0000
# 6 0.0000 0.0000 0.0000 0.0000 0.0000 41.0604
#
#
#
# Elastic Compliance Matrix: (Units=1/GPa)
#
#
# Indices 1 2 3 4 5 6 
#
# 1 0.007983 -0.001549 -0.003541 0.000000 0.000000 0.000000
# 2 -0.001549 0.011643 -0.008230 0.000000 0.000000 0.000000
# 3 -0.003541 -0.008230 0.023780 0.000000 0.000000 0.000000
# 4 0.000000 0.000000 0.000000 0.031771 0.000000 0.000000
# 5 0.000000 0.000000 0.000000 0.000000 0.040514 0.000000
# 6 0.000000 0.000000 0.000000 0.000000 0.000000 0.024354
#
#
# Mechanical properties :
#
#
# Convention : Reuss Voigt Hill
#
# Bulk Modulus (GPa) = 59.65457 69.38711 64.52084
# Shear Modulus (GPa) = 29.02345 33.29050 31.15697
#
# Velocity S-wave (km/s) = 3.72853 3.99322 3.86314
# Velocity P-wave (km/s) = 6.86366 7.38220 7.12765
#
# Compressibility (1/GPa) = 0.01676318
#
# Stress axis : x y z
#
# Youngs Moduli (GPa) = 125.26849 85.89068 42.05229
#
# Poissons Ratio (x) = 0.13307 0.14892
# Poissons Ratio (y) = 0.19408 0.34611
# Poissons Ratio (z) = 0.44362 0.70692
#
# Static dielectric constant tensor:
#      x y z
#    x 1.842610 0.000000 0.000000 
#    y 0.000000 1.789560 0.000000 
#    z 0.000000 0.000000 1.755710 
# 
# From -- ./inp_files/12677.got.cif
#   From: 2010.05.17/outbox.cif.g08.bks.cpg/sg73_7_cif.got.tgz:12677.got - 2010.06.03 17:35:07.
