data_PCOD9530647
_publ_section_title
;
Structure prediction by ZEFSAII (Michael W. Deem and Ramdas Pophale) SiO2 
 PCOD9530647
Probable space group: I B C A 
;
_chemical_formula_sum "Si O2"
_cell_formula_units_Z 56
_cell_length_a 8.624593
_cell_length_b 9.942599
_cell_length_c 28.308299
_cell_angle_alpha 90.000000
_cell_angle_beta 90.000000
_cell_angle_gamma 90.000000
_cell_volume 2427.461260
_symmetry_space_group_name_H-M "I B C A "
_symmetry_group_IT_number 73
_symmetry_cell_setting 'orthorhombic'
loop_
_space_group_symop_operation_xyz
x,y,z
-x,1/2-y,z
x,-y,1/2-z
1/2-x,y,-z
-x,-y,-z
x,1/2+y,-z
-x,y,1/2+z
1/2+x,-y,z
1/2+x,1/2+y,1/2+z
1/2-x,-y,1/2+z
1/2+x,1/2-y,-z
-x,1/2+y,1/2-z
1/2-x,1/2-y,1/2-z
1/2+x,y,1/2-z
1/2-x,1/2+y,z
x,1/2-y,1/2+z
loop_
_atom_site_type_symbol
_atom_site_label
_atom_site_fract_x
_atom_site_fract_y
_atom_site_fract_z
Si Si1 0.384736 0.000000 0.250000
Si Si2 0.057258 0.402369 0.042815
Si Si3 0.877796 0.866055 0.697350
Si Si4 0.614317 0.375629 0.589277
O O1 0.503458 0.988566 0.293692
O O2 0.265231 0.887285 0.231846
O O3 0.979188 0.484570 0.085877
O O4 0.000000 0.250000 0.036697
O O5 0.239035 0.389251 0.054641
O O6 0.000000 0.500000 0.000000
O O7 0.831092 0.852832 0.642983
O O8 0.000000 0.750000 0.709350
O O9 0.500000 0.250000 0.577528
#
# Coordination Sequence:
#
# PCOD9530647 Si02
#       4
#     8  16  16  16
#     4  10  20  36  60  92 128 168 216 266 318 376
#     4  12  26  45  69  99 132 171 218 273 335 402
#     4  10  21  38  61  91 128 170 216 265 320 379
#     4  11  24  44  68  98 135 177 222 272 330 395
#
# _framework density 23.069369999999999
#
# number of rings (size 3 to 8) (size 9 to 14) (size 15 to 20)
#    0.000    1.143    0.000    6.000    0.000    4.571 
#    0.000    7.143    0.000    0.000    0.000    0.000 
#    0.000    0.000    0.000    0.000    0.000    0.000 
#
# Total GULP energy -156058.743829 kJ/mol
# GULP energy per Si atom -5573.526565 kJ/mol
# Density = 2.301686 g / cm^3
# Si number density = 23.069370 Si / 1000 Ang^3
#
#
#
# Elastic Constant Matrix: (Units=GPa)
#
#
# Indices 1 2 3 4 5 6 
#
# 1 169.8872 58.3326 62.8689 0.0000 0.0000 0.0000
# 2 58.3326 136.0181 25.6791 0.0000 0.0000 0.0000
# 3 62.8689 25.6791 104.1794 0.0000 0.0000 0.0000
# 4 0.0000 0.0000 0.0000 20.8898 0.0000 0.0000
# 5 0.0000 0.0000 0.0000 0.0000 36.5068 0.0000
# 6 0.0000 0.0000 0.0000 0.0000 0.0000 37.5178
#
#
#
# Elastic Compliance Matrix: (Units=1/GPa)
#
#
# Indices 1 2 3 4 5 6 
#
# 1 0.008489 -0.002804 -0.004432 0.000000 0.000000 0.000000
# 2 -0.002804 0.008637 -0.000437 0.000000 0.000000 0.000000
# 3 -0.004432 -0.000437 0.012381 0.000000 0.000000 0.000000
# 4 0.000000 0.000000 0.000000 0.047870 0.000000 0.000000
# 5 0.000000 0.000000 0.000000 0.000000 0.027392 0.000000
# 6 0.000000 0.000000 0.000000 0.000000 0.000000 0.026654
#
#
# Mechanical properties :
#
#
# Convention : Reuss Voigt Hill
#
# Bulk Modulus (GPa) = 70.61199 78.20512 74.40856
# Shear Modulus (GPa) = 33.00573 36.52981 34.76777
#
# Velocity S-wave (km/s) = 3.78659 3.98361 3.88635
# Velocity P-wave (km/s) = 7.05639 7.42512 7.24310
#
# Compressibility (1/GPa) = 0.01416190
#
# Stress axis : x y z
#
# Youngs Moduli (GPa) = 117.79909 115.78194 80.76960
#
# Poissons Ratio (x) = 0.32464 0.35795
# Poissons Ratio (y) = 0.33030 0.03528
# Poissons Ratio (z) = 0.52205 0.05058
#
# Static dielectric constant tensor:
#      x y z
#    x 1.933010 0.000000 0.000000 
#    y 0.000000 2.096940 0.000000 
#    z 0.000000 0.000000 1.893530 
# 
# From -- ./inp_files/30990.got.cif
#   From: 2010.05.17/outbox.cif.g08.bks.cpg/sg73_16_cif.got.tgz:30990.got - 2010.06.03 17:35:07.
