data_PCOD9530866
_publ_section_title
;
Structure prediction by ZEFSAII (Michael W. Deem and Ramdas Pophale) SiO2 
 PCOD9530866
Probable space group: I B C A 
;
_chemical_formula_sum "Si O2"
_cell_formula_units_Z 72
_cell_length_a 8.262128
_cell_length_b 18.903449
_cell_length_c 19.092295
_cell_angle_alpha 90.000000
_cell_angle_beta 90.000000
_cell_angle_gamma 90.000000
_cell_volume 2981.886474
_symmetry_space_group_name_H-M "I B C A "
_symmetry_group_IT_number 73
_symmetry_cell_setting 'orthorhombic'
loop_
_space_group_symop_operation_xyz
x,y,z
-x,1/2-y,z
x,-y,1/2-z
1/2-x,y,-z
-x,-y,-z
x,1/2+y,-z
-x,y,1/2+z
1/2+x,-y,z
1/2+x,1/2+y,1/2+z
1/2-x,-y,1/2+z
1/2+x,1/2-y,-z
-x,1/2+y,1/2-z
1/2-x,1/2-y,1/2-z
1/2+x,y,1/2-z
1/2-x,1/2+y,z
x,1/2-y,1/2+z
loop_
_atom_site_type_symbol
_atom_site_label
_atom_site_fract_x
_atom_site_fract_y
_atom_site_fract_z
Si Si1 0.440328 0.921997 0.517724
Si Si2 0.677723 0.888195 0.164455
Si Si3 0.226734 0.218484 0.657252
Si Si4 0.981284 0.863252 0.220251
Si Si5 0.250000 0.330053 0.000000
O O1 0.250000 0.908359 0.500000
O O2 0.431177 0.911454 0.601041
O O3 0.582436 0.872771 0.487210
O O4 0.500000 0.000000 0.500000
O O5 0.698550 0.802103 0.165971
O O6 0.866312 0.906779 0.168405
O O7 0.600286 0.912792 0.236496
O O8 0.113985 0.176878 0.714573
O O9 0.403301 0.189541 0.677888
O O10 0.209882 0.207803 0.573722
#
# Coordination Sequence:
#
# PCOD9530866 Si02
#       5
#    16  16  16  16   8
#     4  12  27  48  70  93 136 195 245 291 356 412
#     4  11  21  39  69 104 140 183 231 283 359 443
#     4  11  21  38  67 107 152 178 225 287 369 439
#     4  10  20  38  67 106 150 188 217 288 374 452
#     4  12  26  44  70 108 146 180 238 304 358 442
#
# _framework density 24.145788
#
# number of rings (size 3 to 8) (size 9 to 14) (size 15 to 20)
#    0.000    0.889    3.333    6.667    1.556    0.000 
#    0.000    0.000    0.000   22.667    0.000    0.000 
#    0.000    0.000    0.000    0.000    0.000    0.000 
#
# Total GULP energy -200705.388316 kJ/mol
# GULP energy per Si atom -5575.149675 kJ/mol
# Density = 2.409083 g / cm^3
# Si number density = 24.145788 Si / 1000 Ang^3
#
#
#
# Elastic Constant Matrix: (Units=GPa)
#
#
# Indices 1 2 3 4 5 6 
#
# 1 136.1324 11.9062 15.7163 0.0000 0.0000 0.0000
# 2 11.9062 38.8824 33.6084 0.0000 0.0000 0.0000
# 3 15.7163 33.6084 125.2676 0.0000 0.0000 0.0000
# 4 0.0000 0.0000 0.0000 13.7262 0.0000 0.0000
# 5 0.0000 0.0000 0.0000 0.0000 56.7768 0.0000
# 6 0.0000 0.0000 0.0000 0.0000 0.0000 20.2670
#
#
#
# Elastic Compliance Matrix: (Units=1/GPa)
#
#
# Indices 1 2 3 4 5 6 
#
# 1 0.007565 -0.001948 -0.000427 0.000000 0.000000 0.000000
# 2 -0.001948 0.033985 -0.008874 0.000000 0.000000 0.000000
# 3 -0.000427 -0.008874 0.010417 0.000000 0.000000 0.000000
# 4 0.000000 0.000000 0.000000 0.072853 0.000000 0.000000
# 5 0.000000 0.000000 0.000000 0.000000 0.017613 0.000000
# 6 0.000000 0.000000 0.000000 0.000000 0.000000 0.049341
#
#
# Mechanical properties :
#
#
# Convention : Reuss Voigt Hill
#
# Bulk Modulus (GPa) = 33.93107 46.97157 40.45132
# Shear Modulus (GPa) = 22.31200 34.09077 28.20138
#
# Velocity S-wave (km/s) = 3.04312 3.76157 3.42125
# Velocity P-wave (km/s) = 5.14106 6.19366 5.69175
#
# Compressibility (1/GPa) = 0.02947151
#
# Stress axis : x y z
#
# Youngs Moduli (GPa) = 132.18070 29.42478 95.99575
#
# Poissons Ratio (x) = 0.05732 0.04095
# Poissons Ratio (y) = 0.25747 0.85182
# Poissons Ratio (z) = 0.05638 0.26110
#
# Static dielectric constant tensor:
#      x y z
#    x 2.204740 0.000000 0.000000 
#    y 0.000000 1.943610 0.000000 
#    z 0.000000 0.000000 1.981620 
# 
# From -- ./inp_files/20595.got.cif
#   From: 2010.05.17/outbox.cif.g08.bks.cpg/sg73_11_cif.got.tgz:20595.got - 2010.06.03 17:35:07.
