data_PCOD9530660
_publ_section_title
;
Structure prediction by ZEFSAII (Michael W. Deem and Ramdas Pophale) SiO2 
 PCOD9530660
Probable space group: I B C A 
;
_chemical_formula_sum "Si O2"
_cell_formula_units_Z 104
_cell_length_a 21.935418
_cell_length_b 10.305814
_cell_length_c 22.013625
_cell_angle_alpha 90.000000
_cell_angle_beta 90.000000
_cell_angle_gamma 90.000000
_cell_volume 4976.451534
_symmetry_space_group_name_H-M "I B C A "
_symmetry_group_IT_number 73
_symmetry_cell_setting 'orthorhombic'
loop_
_space_group_symop_operation_xyz
x,y,z
-x,1/2-y,z
x,-y,1/2-z
1/2-x,y,-z
-x,-y,-z
x,1/2+y,-z
-x,y,1/2+z
1/2+x,-y,z
1/2+x,1/2+y,1/2+z
1/2-x,-y,1/2+z
1/2+x,1/2-y,-z
-x,1/2+y,1/2-z
1/2-x,1/2-y,1/2-z
1/2+x,y,1/2-z
1/2-x,1/2+y,z
x,1/2-y,1/2+z
loop_
_atom_site_type_symbol
_atom_site_label
_atom_site_fract_x
_atom_site_fract_y
_atom_site_fract_z
Si Si1 0.123868 0.642734 0.959836
Si Si2 0.501871 0.105415 0.203452
Si Si3 0.669515 0.605499 0.096610
Si Si4 0.246741 0.376654 0.209089
Si Si5 0.125526 0.419054 0.859866
Si Si6 0.587378 0.358953 0.091249
Si Si7 0.250000 0.977620 0.500000
O O1 0.126427 0.788072 0.934309
O O2 0.116011 0.536221 0.907284
O O3 0.079464 0.631174 0.018174
O O4 0.192372 0.610060 0.983048
O O5 0.500000 0.250000 0.230722
O O6 0.571378 0.071416 0.188620
O O7 0.467761 0.116473 0.138120
O O8 0.475514 0.000000 0.250000
O O9 0.696074 0.654656 0.159166
O O10 0.635068 0.471241 0.106814
O O11 0.726475 0.569767 0.053589
O O12 0.229827 0.500000 0.250000
O O13 0.250000 0.250000 0.250000
O O14 0.309671 0.412346 0.174131
O O15 0.114938 0.282514 0.894640
#
# Coordination Sequence:
#
# PCOD9530660 Si02
#       7
#    16  16  16  16  16  16   8
#     4  11  22  37  65  97 129 168 216 270 331 403
#     4  10  24  45  69  90 125 176 226 277 333 395
#     4  11  23  38  63  96 127 171 211 267 327 402
#     4  12  25  39  59  92 134 171 211 263 321 398
#     4  11  23  43  63  91 130 175 219 270 338 391
#     4  10  23  41  64  94 124 166 220 278 329 386
#     4  10  20  36  62  88 132 164 214 258 330 390
#
# _framework density 20.898426000000001
#
# number of rings (size 3 to 8) (size 9 to 14) (size 15 to 20)
#    0.000    1.231    1.538    4.615    4.308    4.923 
#    0.000    1.538    0.000    0.000    0.000    0.000 
#    0.000    0.000    0.000    0.000    0.000    0.000 
#
# Total GULP energy -290521.055658 kJ/mol
# GULP energy per Si atom -5586.943378 kJ/mol
# Density = 2.085086 g / cm^3
# Si number density = 20.898426 Si / 1000 Ang^3
#
#
#
# Elastic Constant Matrix: (Units=GPa)
#
#
# Indices 1 2 3 4 5 6 
#
# 1 33.6674 1.5781 19.2184 0.0000 0.0000 0.0000
# 2 1.5781 98.1982 44.5299 0.0000 0.0000 0.0000
# 3 19.2184 44.5299 97.0383 0.0000 0.0000 0.0000
# 4 0.0000 0.0000 0.0000 7.4514 0.0000 0.0000
# 5 0.0000 0.0000 0.0000 0.0000 -0.4924 0.0000
# 6 0.0000 0.0000 0.0000 0.0000 0.0000 19.4439
#
#
#
# Elastic Compliance Matrix: (Units=1/GPa)
#
#
# Indices 1 2 3 4 5 6 
#
# 1 0.034262 0.003190 -0.008250 0.000000 0.000000 0.000000
# 2 0.003190 0.013157 -0.006669 0.000000 0.000000 0.000000
# 3 -0.008250 -0.006669 0.014999 0.000000 0.000000 0.000000
# 4 0.000000 0.000000 0.000000 0.134202 0.000000 0.000000
# 5 0.000000 0.000000 0.000000 0.000000 -2.030751 0.000000
# 6 0.000000 0.000000 0.000000 0.000000 0.000000 0.051430
#
#
# Mechanical properties :
#
#
# Convention : Reuss Voigt Hill
#
# Bulk Modulus (GPa) = 25.66673 39.95073 32.80873
# Shear Modulus (GPa) = -2.86327 16.18576 6.66125
#
# Velocity S-wave (km/s) = -1.17178 2.78600 1.78728
# Velocity P-wave (km/s) = 3.23691 5.43205 4.47128
#
# Compressibility (1/GPa) = 0.03896095
#
# Stress axis : x y z
#
# Youngs Moduli (GPa) = 29.18692 76.00805 66.66900
#
# Poissons Ratio (x) = -0.24249 0.54999
# Poissons Ratio (y) = -0.09312 0.44463
# Poissons Ratio (z) = 0.24078 0.50691
#
# Static dielectric constant tensor:
#      x y z
#    x 1.749260 0.000000 0.000000 
#    y 0.000000 1.719830 0.000000 
#    z 0.000000 0.000000 1.791380 
# 
# From -- ./inp_files/27602.got.cif
#   From: 2010.05.17/outbox.cif.g08.bks.cpg/sg73_14_cif.got.tgz:27602.got - 2010.06.03 17:35:07.
