data_PCOD9530998
_publ_section_title
;
Structure prediction by ZEFSAII (Michael W. Deem and Ramdas Pophale) SiO2 
 PCOD9530998
Probable space group: I B C A 
;
_chemical_formula_sum "Si O2"
_cell_formula_units_Z 104
_cell_length_a 16.119264
_cell_length_b 26.281462
_cell_length_c 10.560364
_cell_angle_alpha 90.000000
_cell_angle_beta 90.000000
_cell_angle_gamma 90.000000
_cell_volume 4473.769629
_symmetry_space_group_name_H-M "I B C A "
_symmetry_group_IT_number 73
_symmetry_cell_setting 'orthorhombic'
loop_
_space_group_symop_operation_xyz
x,y,z
-x,1/2-y,z
x,-y,1/2-z
1/2-x,y,-z
-x,-y,-z
x,1/2+y,-z
-x,y,1/2+z
1/2+x,-y,z
1/2+x,1/2+y,1/2+z
1/2-x,-y,1/2+z
1/2+x,1/2-y,-z
-x,1/2+y,1/2-z
1/2-x,1/2-y,1/2-z
1/2+x,y,1/2-z
1/2-x,1/2+y,z
x,1/2-y,1/2+z
loop_
_atom_site_type_symbol
_atom_site_label
_atom_site_fract_x
_atom_site_fract_y
_atom_site_fract_z
Si Si1 0.622940 0.050682 0.700767
Si Si2 0.750000 0.548857 0.500000
Si Si3 0.741494 0.886197 0.353997
Si Si4 0.089709 0.223140 0.586463
Si Si5 0.882053 0.558362 0.289810
Si Si6 0.985069 0.366255 0.737756
Si Si7 0.139829 0.204550 0.308292
O O1 0.681297 0.026174 0.592706
O O2 0.685049 0.079472 0.798011
O O3 0.566387 0.098939 0.663025
O O4 0.578027 0.000000 0.750000
O O5 0.812261 0.571938 0.395217
O O6 0.750000 0.875501 0.500000
O O7 0.656800 0.917812 0.336677
O O8 0.717876 0.832867 0.287960
O O9 0.136843 0.223790 0.452822
O O10 0.134683 0.253747 0.698820
O O11 0.000000 0.250000 0.565602
O O12 0.070640 0.167023 0.642714
O O13 0.889928 0.500000 0.250000
O O14 0.963280 0.588803 0.329758
O O15 0.053099 0.327565 0.793923
#
# Coordination Sequence:
#
# PCOD9530998 Si02
#       7
#    16   8  16  16  16  16  16
#     4  11  24  40  64  93 133 177 221 272 328 389
#     4  10  22  40  60  88 130 180 218 268 330 390
#     4  10  21  40  64  90 128 171 215 260 334 399
#     4  10  20  40  66  97 127 169 213 274 345 402
#     4  10  22  38  63  95 133 175 223 267 321 396
#     4  10  22  40  62 100 129 167 226 275 326 393
#     4  10  22  41  68  95 128 167 219 272 341 409
#
# _framework density 23.246614999999998
#
# number of rings (size 3 to 8) (size 9 to 14) (size 15 to 20)
#    0.000    1.846    0.000    4.615    6.462    0.000 
#    5.538    4.615    0.000    0.000    0.000    0.000 
#    0.000    0.000    0.000    0.000    0.000    0.000 
#
# Total GULP energy -289567.409195 kJ/mol
# GULP energy per Si atom -5568.604023 kJ/mol
# Density = 2.319370 g / cm^3
# Si number density = 23.246615 Si / 1000 Ang^3
#
#
#
# Elastic Constant Matrix: (Units=GPa)
#
#
# Indices 1 2 3 4 5 6 
#
# 1 41.4043 28.4922 18.6694 0.0000 0.0000 -0.0039
# 2 28.4922 124.4076 42.1097 0.0000 0.0000 0.0173
# 3 18.6694 42.1097 100.1518 0.0004 0.0003 0.0585
# 4 0.0000 0.0000 0.0004 1.6866 0.0001 0.0073
# 5 0.0000 0.0000 0.0003 0.0001 14.4782 -0.0124
# 6 -0.0039 0.0173 0.0585 0.0073 -0.0124 2209.1772
#
#
#
# Elastic Compliance Matrix: (Units=1/GPa)
#
#
# Indices 1 2 3 4 5 6 
#
# 1 0.029472 -0.005702 -0.003097 0.000000 0.000000 0.000000
# 2 -0.005702 0.010475 -0.003341 0.000001 0.000000 0.000000
# 3 -0.003097 -0.003341 0.011967 -0.000003 0.000000 0.000000
# 4 0.000000 0.000001 -0.000003 0.592909 -0.000004 -0.000002
# 5 0.000000 0.000000 0.000000 -0.000004 0.069069 0.000000
# 6 0.000000 0.000000 0.000000 -0.000002 0.000000 0.000453
#
#
# Mechanical properties :
#
#
# Convention : Reuss Voigt Hill
#
# Bulk Modulus (GPa) = 36.18656 49.38957 42.78806
# Shear Modulus (GPa) = 6.68596 456.84790 231.76693
#
# Velocity S-wave (km/s) = 1.69775 14.03385 9.99578
# Velocity P-wave (km/s) = 4.40946 16.84906 12.31531
#
# Compressibility (1/GPa) = 0.02763457
#
# Stress axis : x y z
#
# Youngs Moduli (GPa) = 33.93068 95.46638 83.56308
#
# Poissons Ratio (x) = 0.54431 0.25876
# Poissons Ratio (y) = 0.19346 0.27922
# Poissons Ratio (z) = 0.10507 0.31899
#
# Static dielectric constant tensor:
#      x y z
#    x 1.981390 0.000000 0.000000 
#    y 0.000000 1.936860 0.000000 
#    z 0.000000 0.000000 1.788310 
# 
# From -- ./inp_files/12181.got.cif
#   From: 2010.05.17/outbox.cif.g08.bks.cpg/sg73_7_cif.got.tgz:12181.got - 2010.06.03 17:35:07.
