data_PCOD9530928
_publ_section_title
;
Structure prediction by ZEFSAII (Michael W. Deem and Ramdas Pophale) SiO2 
 PCOD9530928
Probable space group: I B C A 
;
_chemical_formula_sum "Si O2"
_cell_formula_units_Z 120
_cell_length_a 26.624486
_cell_length_b 11.416944
_cell_length_c 19.612893
_cell_angle_alpha 90.000000
_cell_angle_beta 90.000000
_cell_angle_gamma 90.000000
_cell_volume 5961.736296
_symmetry_space_group_name_H-M "I B C A "
_symmetry_group_IT_number 73
_symmetry_cell_setting 'orthorhombic'
loop_
_space_group_symop_operation_xyz
x,y,z
-x,1/2-y,z
x,-y,1/2-z
1/2-x,y,-z
-x,-y,-z
x,1/2+y,-z
-x,y,1/2+z
1/2+x,-y,z
1/2+x,1/2+y,1/2+z
1/2-x,-y,1/2+z
1/2+x,1/2-y,-z
-x,1/2+y,1/2-z
1/2-x,1/2-y,1/2-z
1/2+x,y,1/2-z
1/2-x,1/2+y,z
x,1/2-y,1/2+z
loop_
_atom_site_type_symbol
_atom_site_label
_atom_site_fract_x
_atom_site_fract_y
_atom_site_fract_z
Si Si1 0.446823 0.988241 0.417126
Si Si2 0.466817 0.132828 0.940417
Si Si3 0.260465 0.590369 0.634863
Si Si4 0.309643 0.500000 0.250000
Si Si5 0.829642 0.736372 0.778231
Si Si6 0.619004 0.790250 0.585491
Si Si7 0.201935 0.259727 0.972584
Si Si8 0.652955 0.899710 0.860851
O O1 0.501352 0.039172 0.396255
O O2 0.415033 0.102629 0.440339
O O3 0.460139 0.910050 0.482212
O O4 0.406376 0.928226 0.367568
O O5 0.500000 0.250000 0.937860
O O6 0.411279 0.169039 0.919297
O O7 0.224198 0.515640 0.682945
O O8 0.278327 0.702327 0.680893
O O9 0.229158 0.635701 0.569815
O O10 0.309801 0.509503 0.624962
O O11 0.335375 0.372953 0.259361
O O12 0.870390 0.699486 0.834468
O O13 0.834303 0.655590 0.712064
O O14 0.667834 0.787770 0.537797
O O15 0.167457 0.192053 0.919425
O O16 0.250000 0.187003 0.000000
#
# Coordination Sequence:
#
# PCOD9530928 Si02
#       8
#    16  16  16   8  16  16  16  16
#     4  10  20  39  68  97 120 168 210 270 340 397
#     4   9  20  40  67  98 128 158 210 274 344 403
#     4  12  23  39  61  88 134 178 227 265 320 384
#     4  12  24  40  62  84 130 188 222 264 310 392
#     4  12  24  42  61  91 127 182 224 266 330 393
#     4  11  23  40  64  96 135 169 218 275 337 391
#     4  12  24  38  57  98 139 171 221 276 315 380
#     4  12  23  40  66  92 130 177 226 268 324 401
#
# _framework density 20.128364000000001
#
# number of rings (size 3 to 8) (size 9 to 14) (size 15 to 20)
#    0.000    0.800    6.667    1.200    0.000    2.667 
#    0.000    0.000    0.000    8.800    0.000    0.000 
#    0.000    0.000    0.000    0.000    0.000    0.000 
#
# Total GULP energy -334373.627050 kJ/mol
# GULP energy per Si atom -5572.893784 kJ/mol
# Density = 2.008255 g / cm^3
# Si number density = 20.128364 Si / 1000 Ang^3
#
#
#
# Elastic Constant Matrix: (Units=GPa)
#
#
# Indices 1 2 3 4 5 6 
#
# 1 64.5459 11.5746 29.1846 0.0000 0.0000 0.0000
# 2 11.5746 69.7256 30.5773 0.0000 0.0000 0.0000
# 3 29.1846 30.5773 102.7710 0.0000 0.0000 0.0000
# 4 0.0000 0.0000 0.0000 14.9717 0.0000 0.0000
# 5 0.0000 0.0000 0.0000 0.0000 20.6531 0.0000
# 6 0.0000 0.0000 0.0000 0.0000 0.0000 22.8501
#
#
#
# Elastic Compliance Matrix: (Units=1/GPa)
#
#
# Indices 1 2 3 4 5 6 
#
# 1 0.017819 -0.000850 -0.004807 0.000000 0.000000 0.000000
# 2 -0.000850 0.016535 -0.004678 0.000000 0.000000 0.000000
# 3 -0.004807 -0.004678 0.012487 0.000000 0.000000 0.000000
# 4 0.000000 0.000000 0.000000 0.066793 0.000000 0.000000
# 5 0.000000 0.000000 0.000000 0.000000 0.048419 0.000000
# 6 0.000000 0.000000 0.000000 0.000000 0.000000 0.043763
#
#
# Mechanical properties :
#
#
# Convention : Reuss Voigt Hill
#
# Bulk Modulus (GPa) = 38.21124 42.19060 40.20092
# Shear Modulus (GPa) = 21.25759 22.74205 21.99982
#
# Velocity S-wave (km/s) = 3.25330 3.36497 3.30961
# Velocity P-wave (km/s) = 5.75647 6.00863 5.88390
#
# Compressibility (1/GPa) = 0.02617031
#
# Stress axis : x y z
#
# Youngs Moduli (GPa) = 56.12030 60.47938 80.08055
#
# Poissons Ratio (x) = 0.05139 0.38497
# Poissons Ratio (y) = 0.04769 0.37463
# Poissons Ratio (z) = 0.26979 0.28293
#
# Static dielectric constant tensor:
#      x y z
#    x 1.769160 0.000000 0.000000 
#    y 0.000000 1.785120 0.000000 
#    z 0.000000 0.000000 1.683210 
# 
# From -- ./inp_files/23968.got.cif
#   From: 2010.05.17/outbox.cif.g08.bks.cpg/sg73_12_cif.got.tgz:23968.got - 2010.06.03 17:35:07.
