data_PCOD9530349
_publ_section_title
;
Structure prediction by ZEFSAII (Michael W. Deem and Ramdas Pophale) SiO2 
 PCOD9530349
Probable space group: I B C A 
;
_chemical_formula_sum "Si O2"
_cell_formula_units_Z 88
_cell_length_a 18.193617
_cell_length_b 15.488585
_cell_length_c 14.272541
_cell_angle_alpha 90.000000
_cell_angle_beta 90.000000
_cell_angle_gamma 90.000000
_cell_volume 4021.907618
_symmetry_space_group_name_H-M "I B C A "
_symmetry_group_IT_number 73
_symmetry_cell_setting 'orthorhombic'
loop_
_space_group_symop_operation_xyz
x,y,z
-x,1/2-y,z
x,-y,1/2-z
1/2-x,y,-z
-x,-y,-z
x,1/2+y,-z
-x,y,1/2+z
1/2+x,-y,z
1/2+x,1/2+y,1/2+z
1/2-x,-y,1/2+z
1/2+x,1/2-y,-z
-x,1/2+y,1/2-z
1/2-x,1/2-y,1/2-z
1/2+x,y,1/2-z
1/2-x,1/2+y,z
x,1/2-y,1/2+z
loop_
_atom_site_type_symbol
_atom_site_label
_atom_site_fract_x
_atom_site_fract_y
_atom_site_fract_z
Si Si1 0.865147 0.294798 0.824050
Si Si2 0.992539 0.074301 0.356094
Si Si3 0.122617 0.500000 0.750000
Si Si4 0.207257 0.151788 0.188897
Si Si5 0.022590 0.887396 0.926301
Si Si6 0.882982 0.269971 0.046404
O O1 0.938787 0.353896 0.810941
O O2 0.837721 0.210266 0.765443
O O3 0.794437 0.353808 0.801086
O O4 0.876263 0.271879 0.934296
O O5 0.013631 0.095511 0.462818
O O6 0.965187 0.974683 0.367810
O O7 0.068133 0.064666 0.301912
O O8 0.173554 0.557013 0.815519
O O9 0.192114 0.201841 0.092922
O O10 0.089650 0.821970 0.917076
O O11 0.945569 0.835898 0.912185
#
# Coordination Sequence:
#
# PCOD9530349 Si02
#       6
#    16  16   8  16  16  16
#     4  10  24  43  63  89 131 165 211 255 319 382
#     4  10  21  38  62  94 124 160 207 271 312 368
#     4  12  24  38  64  94 126 158 220 264 314 370
#     4  11  24  42  63  91 128 172 206 258 318 386
#     4   9  19  36  62  95 123 156 212 260 308 371
#     4  10  19  39  65  90 125 168 204 256 314 376
#
# _framework density 21.880165000000002
#
# number of rings (size 3 to 8) (size 9 to 14) (size 15 to 20)
#    0.000    1.818    1.818    1.636    2.545    2.909 
#    3.273    0.000    0.000    0.000    0.000    0.000 
#    0.000    0.000    0.000    0.000    0.000    0.000 
#
# Total GULP energy -245143.212683 kJ/mol
# GULP energy per Si atom -5571.436652 kJ/mol
# Density = 2.183036 g / cm^3
# Si number density = 21.880165 Si / 1000 Ang^3
#
#
#
# Elastic Constant Matrix: (Units=GPa)
#
#
# Indices 1 2 3 4 5 6 
#
# 1 89.5050 39.1274 -4.4112 0.0000 0.0000 0.0000
# 2 39.1274 58.2394 6.8712 0.0000 0.0000 0.0000
# 3 -4.4112 6.8712 50.0024 0.0000 0.0000 0.0000
# 4 0.0000 0.0000 0.0000 26.7031 0.0000 0.0000
# 5 0.0000 0.0000 0.0000 0.0000 18.8817 0.0000
# 6 0.0000 0.0000 0.0000 0.0000 0.0000 20.8249
#
#
#
# Elastic Compliance Matrix: (Units=1/GPa)
#
#
# Indices 1 2 3 4 5 6 
#
# 1 0.016244 -0.011265 0.002981 0.000000 0.000000 0.000000
# 2 -0.011265 0.025266 -0.004466 0.000000 0.000000 0.000000
# 3 0.002981 -0.004466 0.020876 0.000000 0.000000 0.000000
# 4 0.000000 0.000000 0.000000 0.037449 0.000000 0.000000
# 5 0.000000 0.000000 0.000000 0.000000 0.052961 0.000000
# 6 0.000000 0.000000 0.000000 0.000000 0.000000 0.048019
#
#
# Mechanical properties :
#
#
# Convention : Reuss Voigt Hill
#
# Bulk Modulus (GPa) = 27.11061 31.21351 29.16206
# Shear Modulus (GPa) = 20.95470 23.69255 22.32362
#
# Velocity S-wave (km/s) = 3.09803 3.29421 3.19763
# Velocity P-wave (km/s) = 5.02140 5.36337 5.19520
#
# Compressibility (1/GPa) = 0.03688592
#
# Stress axis : x y z
#
# Youngs Moduli (GPa) = 61.56106 39.57941 47.90255
#
# Poissons Ratio (x) = 0.44586 -0.14280
# Poissons Ratio (y) = 0.69349 0.21392
# Poissons Ratio (z) = -0.18352 0.17675
#
# Static dielectric constant tensor:
#      x y z
#    x 1.801880 0.000000 0.000000 
#    y 0.000000 1.833540 0.000000 
#    z 0.000000 0.000000 1.727590 
# 
# From -- ./inp_files/18740.got.cif
#   From: 2010.05.17/outbox.cif.g08.bks.cpg/sg73_10_cif.got.tgz:18740.got - 2010.06.03 17:35:07.
