data_PCOD9530609
_publ_section_title
;
Structure prediction by ZEFSAII (Michael W. Deem and Ramdas Pophale) SiO2 
 PCOD9530609
Probable space group: I B C A 
;
_chemical_formula_sum "Si O2"
_cell_formula_units_Z 88
_cell_length_a 9.046571
_cell_length_b 19.682631
_cell_length_c 23.331509
_cell_angle_alpha 90.000000
_cell_angle_beta 90.000000
_cell_angle_gamma 90.000000
_cell_volume 4154.415931
_symmetry_space_group_name_H-M "I B C A "
_symmetry_group_IT_number 73
_symmetry_cell_setting 'orthorhombic'
loop_
_space_group_symop_operation_xyz
x,y,z
-x,1/2-y,z
x,-y,1/2-z
1/2-x,y,-z
-x,-y,-z
x,1/2+y,-z
-x,y,1/2+z
1/2+x,-y,z
1/2+x,1/2+y,1/2+z
1/2-x,-y,1/2+z
1/2+x,1/2-y,-z
-x,1/2+y,1/2-z
1/2-x,1/2-y,1/2-z
1/2+x,y,1/2-z
1/2-x,1/2+y,z
x,1/2-y,1/2+z
loop_
_atom_site_type_symbol
_atom_site_label
_atom_site_fract_x
_atom_site_fract_y
_atom_site_fract_z
Si Si1 0.008452 0.961127 0.923218
Si Si2 0.083653 0.500000 0.750000
Si Si3 0.250000 0.994771 0.500000
Si Si4 0.500000 0.250000 0.824201
Si Si5 0.188522 0.360138 0.153689
Si Si6 0.984437 0.406758 0.852860
Si Si7 0.727513 0.135507 0.285897
O O1 0.073255 0.914385 0.872354
O O2 0.845409 0.954167 0.951192
O O3 0.030141 0.038556 0.902465
O O4 0.128256 0.955999 0.972871
O O5 0.172004 0.556962 0.786137
O O6 0.000556 0.453672 0.795628
O O7 0.380709 0.288770 0.862172
O O8 0.401644 0.192397 0.791030
O O9 0.357171 0.372454 0.137116
O O10 0.198445 0.358455 0.223202
O O11 0.848356 0.358654 0.836340
#
# Coordination Sequence:
#
# PCOD9530609 Si02
#       7
#    16   8   8   8  16  16  16
#     4  11  21  42  63 101 120 164 204 285 349 403
#     4  10  20  36  58 100 126 166 204 270 308 400
#     4  10  24  38  68  96 130 148 212 286 362 386
#     4  12  26  40  58  90 138 186 220 258 318 402
#     4  11  23  38  59  88 129 170 217 252 320 403
#     4  11  20  35  62  91 127 162 211 263 326 395
#     4  11  23  38  61  94 138 179 218 266 319 403
#
# _framework density 21.182278
#
# number of rings (size 3 to 8) (size 9 to 14) (size 15 to 20)
#    0.000    1.091    1.818    7.636    2.545    0.727 
#    0.000    0.000    0.000    1.091    0.000    0.000 
#    0.000    0.000    0.000    0.000    0.000    0.000 
#
# Total GULP energy -245144.646994 kJ/mol
# GULP energy per Si atom -5571.469250 kJ/mol
# Density = 2.113407 g / cm^3
# Si number density = 21.182278 Si / 1000 Ang^3
#
#
#
# Elastic Constant Matrix: (Units=GPa)
#
#
# Indices 1 2 3 4 5 6 
#
# 1 166.1898 66.5339 44.4294 0.0000 0.0000 0.0000
# 2 66.5339 94.3198 10.2548 0.0000 0.0000 0.0000
# 3 44.4294 10.2548 46.3568 0.0000 0.0000 0.0000
# 4 0.0000 0.0000 0.0000 7.1589 0.0000 0.0000
# 5 0.0000 0.0000 0.0000 0.0000 39.1327 0.0000
# 6 0.0000 0.0000 0.0000 0.0000 0.0000 10.5908
#
#
#
# Elastic Compliance Matrix: (Units=1/GPa)
#
#
# Indices 1 2 3 4 5 6 
#
# 1 0.011277 -0.006947 -0.009271 0.000000 0.000000 0.000000
# 2 -0.006947 0.015143 0.003308 0.000000 0.000000 0.000000
# 3 -0.009271 0.003308 0.029726 0.000000 0.000000 0.000000
# 4 0.000000 0.000000 0.000000 0.139687 0.000000 0.000000
# 5 0.000000 0.000000 0.000000 0.000000 0.025554 0.000000
# 6 0.000000 0.000000 0.000000 0.000000 0.000000 0.094422
#
#
# Mechanical properties :
#
#
# Convention : Reuss Voigt Hill
#
# Bulk Modulus (GPa) = 32.97534 61.03361 47.00447
# Shear Modulus (GPa) = 14.21515 23.75302 18.98408
#
# Velocity S-wave (km/s) = 2.59334 3.35231 2.99695
# Velocity P-wave (km/s) = 4.95666 6.62269 5.84929
#
# Compressibility (1/GPa) = 0.03032569
#
# Stress axis : x y z
#
# Youngs Moduli (GPa) = 88.67605 66.03752 33.64072
#
# Poissons Ratio (x) = 0.45875 0.31190
# Poissons Ratio (y) = 0.61602 -0.11129
# Poissons Ratio (z) = 0.82215 -0.21846
#
# Static dielectric constant tensor:
#      x y z
#    x 1.874180 0.000000 0.000000 
#    y 0.000000 1.813840 0.000000 
#    z 0.000000 0.000000 1.881440 
# 
# From -- ./inp_files/28363.got.cif
#   From: 2010.05.17/outbox.cif.g08.bks.cpg/sg73_15_cif.got.tgz:28363.got - 2010.06.03 17:35:07.
