data_PCOD9530468
_publ_section_title
;
Structure prediction by ZEFSAII (Michael W. Deem and Ramdas Pophale) SiO2 
 PCOD9530468
Probable space group: I B C A 
;
_chemical_formula_sum "Si O2"
_cell_formula_units_Z 72
_cell_length_a 21.798395
_cell_length_b 4.975891
_cell_length_c 29.721120
_cell_angle_alpha 90.000000
_cell_angle_beta 90.000000
_cell_angle_gamma 90.000000
_cell_volume 3223.744005
_symmetry_space_group_name_H-M "I B C A "
_symmetry_group_IT_number 73
_symmetry_cell_setting 'orthorhombic'
loop_
_space_group_symop_operation_xyz
x,y,z
-x,1/2-y,z
x,-y,1/2-z
1/2-x,y,-z
-x,-y,-z
x,1/2+y,-z
-x,y,1/2+z
1/2+x,-y,z
1/2+x,1/2+y,1/2+z
1/2-x,-y,1/2+z
1/2+x,1/2-y,-z
-x,1/2+y,1/2-z
1/2-x,1/2-y,1/2-z
1/2+x,y,1/2-z
1/2-x,1/2+y,z
x,1/2-y,1/2+z
loop_
_atom_site_type_symbol
_atom_site_label
_atom_site_fract_x
_atom_site_fract_y
_atom_site_fract_z
Si Si1 0.207253 0.591397 0.703421
Si Si2 0.044776 0.000000 0.750000
Si Si3 0.382189 0.939548 0.880837
Si Si4 0.938955 0.069167 0.153890
Si Si5 0.572001 0.725985 0.469785
O O1 0.173213 0.500000 0.750000
O O2 0.264590 0.387417 0.703987
O O3 0.170629 0.575547 0.656682
O O4 0.082629 0.068292 0.705676
O O5 0.000000 0.250000 0.761250
O O6 0.434006 0.738500 0.860395
O O7 0.381456 0.827422 0.931395
O O8 0.398927 0.253101 0.879948
O O9 0.000000 0.250000 0.155278
O O10 0.500000 0.750000 0.454506
O O11 0.579065 0.425746 0.487849
#
# Coordination Sequence:
#
# PCOD9530468 Si02
#       5
#    16   8  16  16  16
#     4  10  23  43  64  88 120 159 212 273 320 366
#     4  10  20  34  46  70 118 164 188 226 286 348
#     4  12  23  37  65  89 116 166 216 251 308 378
#     4  11  22  34  53  85 126 159 197 243 291 371
#     4  10  21  38  60  89 126 162 201 251 305 371
#
# _framework density 22.334282000000002
#
# number of rings (size 3 to 8) (size 9 to 14) (size 15 to 20)
#    0.000    1.333    0.000    7.333    3.111    1.778 
#    0.000    0.000    0.000    4.000    0.000    0.000 
#    0.000    0.000    0.000    0.000    0.000    0.000 
#
# Total GULP energy -200736.432470 kJ/mol
# GULP energy per Si atom -5576.012013 kJ/mol
# Density = 2.228345 g / cm^3
# Si number density = 22.334282 Si / 1000 Ang^3
#
#
#
# Elastic Constant Matrix: (Units=GPa)
#
#
# Indices 1 2 3 4 5 6 
#
# 1 37.6205 12.6205 31.8914 0.0000 0.0000 0.0000
# 2 12.6205 112.6985 3.8163 0.0000 0.0000 0.0000
# 3 31.8914 3.8163 132.3213 0.0000 0.0000 0.0000
# 4 0.0000 0.0000 0.0000 33.1801 0.0000 0.0000
# 5 0.0000 0.0000 0.0000 0.0000 26.9519 0.0000
# 6 0.0000 0.0000 0.0000 0.0000 0.0000 12.3486
#
#
#
# Elastic Compliance Matrix: (Units=1/GPa)
#
#
# Indices 1 2 3 4 5 6 
#
# 1 0.034821 -0.003619 -0.008288 0.000000 0.000000 0.000000
# 2 -0.003619 0.009258 0.000605 0.000000 0.000000 0.000000
# 3 -0.008288 0.000605 0.009537 0.000000 0.000000 0.000000
# 4 0.000000 0.000000 0.000000 0.030139 0.000000 0.000000
# 5 0.000000 0.000000 0.000000 0.000000 0.037103 0.000000
# 6 0.000000 0.000000 0.000000 0.000000 0.000000 0.080981
#
#
# Mechanical properties :
#
#
# Convention : Reuss Voigt Hill
#
# Bulk Modulus (GPa) = 32.24429 42.14407 37.19418
# Shear Modulus (GPa) = 21.29654 30.11694 25.70674
#
# Velocity S-wave (km/s) = 3.09129 3.67613 3.39632
# Velocity P-wave (km/s) = 5.21631 6.07694 5.66300
#
# Compressibility (1/GPa) = 0.03101324
#
# Stress axis : x y z
#
# Youngs Moduli (GPa) = 28.71826 108.01480 104.84992
#
# Poissons Ratio (x) = 0.39088 0.86900
# Poissons Ratio (y) = 0.10392 -0.06345
# Poissons Ratio (z) = 0.23802 -0.06537
#
# Static dielectric constant tensor:
#      x y z
#    x 1.868740 0.000000 0.000000 
#    y 0.000000 1.791050 0.000000 
#    z 0.000000 0.000000 1.885440 
# 
# From -- ./inp_files/24415.got.cif
#   From: 2010.05.17/outbox.cif.g08.bks.cpg/sg73_13_cif.got.tgz:24415.got - 2010.06.03 17:35:07.
