data_PCOD9530778
_publ_section_title
;
Structure prediction by ZEFSAII (Michael W. Deem and Ramdas Pophale) SiO2 
 PCOD9530778
Probable space group: I B C A 
;
_chemical_formula_sum "Si O2"
_cell_formula_units_Z 104
_cell_length_a 20.314408
_cell_length_b 10.037256
_cell_length_c 19.807542
_cell_angle_alpha 90.000000
_cell_angle_beta 90.000000
_cell_angle_gamma 90.000000
_cell_volume 4038.775910
_symmetry_space_group_name_H-M "I B C A "
_symmetry_group_IT_number 73
_symmetry_cell_setting 'orthorhombic'
loop_
_space_group_symop_operation_xyz
x,y,z
-x,1/2-y,z
x,-y,1/2-z
1/2-x,y,-z
-x,-y,-z
x,1/2+y,-z
-x,y,1/2+z
1/2+x,-y,z
1/2+x,1/2+y,1/2+z
1/2-x,-y,1/2+z
1/2+x,1/2-y,-z
-x,1/2+y,1/2-z
1/2-x,1/2-y,1/2-z
1/2+x,y,1/2-z
1/2-x,1/2+y,z
x,1/2-y,1/2+z
loop_
_atom_site_type_symbol
_atom_site_label
_atom_site_fract_x
_atom_site_fract_y
_atom_site_fract_z
Si Si1 0.277200 0.500000 0.250000
Si Si2 0.320912 0.884285 0.617518
Si Si3 0.976221 0.895389 0.295743
Si Si4 0.708921 0.824640 0.404655
Si Si5 0.394575 0.750514 0.010749
Si Si6 0.346167 0.345928 0.703096
Si Si7 0.918879 0.525461 0.581963
O O1 0.323721 0.432707 0.306111
O O2 0.218434 0.385951 0.254895
O O3 0.274901 0.755219 0.610063
O O4 0.384935 0.838746 0.577454
O O5 0.288110 0.017239 0.585204
O O6 0.908746 0.864052 0.251800
O O7 0.971303 0.972231 0.365722
O O8 0.000000 0.750000 0.308933
O O9 0.015146 0.000000 0.250000
O O10 0.673747 0.762010 0.469319
O O11 0.665452 0.791844 0.337149
O O12 0.408898 0.901439 0.031774
O O13 0.435739 0.658889 0.959069
O O14 0.359676 0.441207 0.636376
#
# Coordination Sequence:
#
# PCOD9530778 Si02
#       7
#     8  16  16  16  16  16  16
#     4  10  20  38  56  84 120 172 202 260 318 364
#     4  11  24  35  56  85 123 168 227 258 293 361
#     4  10  21  44  73 101 122 157 204 262 329 400
#     4  10  23  37  55  85 123 170 214 262 300 358
#     4  11  22  39  58  88 127 171 220 258 302 368
#     4   9  19  40  65  83 128 161 199 262 339 370
#     4  10  21  40  66  88 125 170 208 261 329 369
#
# _framework density 25.750375999999999
#
# number of rings (size 3 to 8) (size 9 to 14) (size 15 to 20)
#    0.000    1.846    3.846    0.462    6.462    4.923 
#    2.769    0.769    0.000    3.692    0.000    0.000 
#    0.000    0.000    0.000    0.000    0.000    0.000 
#
# Total GULP energy -289796.848419 kJ/mol
# GULP energy per Si atom -5573.016316 kJ/mol
# Density = 2.569177 g / cm^3
# Si number density = 25.750376 Si / 1000 Ang^3
#
#
#
# Elastic Constant Matrix: (Units=GPa)
#
#
# Indices 1 2 3 4 5 6 
#
# 1 26.5773 10.2783 24.4708 0.0000 0.0000 0.0000
# 2 10.2783 141.9900 21.3264 0.0000 0.0000 0.0000
# 3 24.4708 21.3264 133.5121 0.0000 0.0000 0.0000
# 4 0.0000 0.0000 0.0000 41.4296 0.0000 0.0000
# 5 0.0000 0.0000 0.0000 0.0000 -27.3203 0.0000
# 6 0.0000 0.0000 0.0000 0.0000 0.0000 18.6173
#
#
#
# Elastic Compliance Matrix: (Units=1/GPa)
#
#
# Indices 1 2 3 4 5 6 
#
# 1 0.045873 -0.002108 -0.008071 0.000000 0.000000 0.000000
# 2 -0.002108 0.007313 -0.000782 0.000000 0.000000 0.000000
# 3 -0.008071 -0.000782 0.009094 0.000000 0.000000 0.000000
# 4 0.000000 0.000000 0.000000 0.024137 0.000000 0.000000
# 5 0.000000 0.000000 0.000000 0.000000 -0.036603 0.000000
# 6 0.000000 0.000000 0.000000 0.000000 0.000000 0.053713
#
#
# Mechanical properties :
#
#
# Convention : Reuss Voigt Hill
#
# Bulk Modulus (GPa) = 24.77851 46.02558 35.40205
# Shear Modulus (GPa) = 35.99655 22.94557 29.47106
#
# Velocity S-wave (km/s) = 3.74291 2.98833 3.38670
# Velocity P-wave (km/s) = 5.32190 5.46071 5.39175
#
# Compressibility (1/GPa) = 0.04035755
#
# Stress axis : x y z
#
# Youngs Moduli (GPa) = 21.79944 136.74701 109.96125
#
# Poissons Ratio (x) = 0.28831 0.88750
# Poissons Ratio (y) = 0.04596 0.08595
# Poissons Ratio (z) = 0.17594 0.10689
#
# Static dielectric constant tensor:
#      x y z
#    x 2.139720 0.000000 0.000000 
#    y 0.000000 2.101720 0.000000 
#    z 0.000000 0.000000 2.167080 
# 
# From -- ./inp_files/27596.got.cif
#   From: 2010.05.17/outbox.cif.g08.bks.cpg/sg73_14_cif.got.tgz:27596.got - 2010.06.03 17:35:07.
