data_PCOD9530261
_publ_section_title
;
Structure prediction by ZEFSAII (Michael W. Deem and Ramdas Pophale) SiO2 
 PCOD9530261
Probable space group: I B C A 
;
_chemical_formula_sum "Si O2"
_cell_formula_units_Z 64
_cell_length_a 13.369326
_cell_length_b 11.498826
_cell_length_c 18.116553
_cell_angle_alpha 90.000000
_cell_angle_beta 90.000000
_cell_angle_gamma 90.000000
_cell_volume 2785.085835
_symmetry_space_group_name_H-M "I B C A "
_symmetry_group_IT_number 73
_symmetry_cell_setting 'orthorhombic'
loop_
_space_group_symop_operation_xyz
x,y,z
-x,1/2-y,z
x,-y,1/2-z
1/2-x,y,-z
-x,-y,-z
x,1/2+y,-z
-x,y,1/2+z
1/2+x,-y,z
1/2+x,1/2+y,1/2+z
1/2-x,-y,1/2+z
1/2+x,1/2-y,-z
-x,1/2+y,1/2-z
1/2-x,1/2-y,1/2-z
1/2+x,y,1/2-z
1/2-x,1/2+y,z
x,1/2-y,1/2+z
loop_
_atom_site_type_symbol
_atom_site_label
_atom_site_fract_x
_atom_site_fract_y
_atom_site_fract_z
Si Si1 0.881026 0.740490 0.191372
Si Si2 0.866380 0.930653 0.475411
Si Si3 0.638449 0.816144 0.967916
Si Si4 0.301960 0.400710 0.810691
O O1 0.850727 0.817482 0.120572
O O2 0.817121 0.622664 0.177710
O O3 0.845669 0.786983 0.270375
O O4 0.000000 0.750000 0.190543
O O5 0.750000 0.935724 0.500000
O O6 0.906282 0.810285 0.510577
O O7 0.859398 0.917663 0.386965
O O8 0.906368 0.060262 0.493891
O O9 0.750000 0.812449 0.000000
O O10 0.316449 0.500000 0.750000
#
# Coordination Sequence:
#
# PCOD9530261 Si02
#       4
#    16  16  16  16
#     4  11  24  41  65 102 137 171 230 290 335 401
#     4  10  19  36  69  94 122 177 230 263 337 407
#     4  10  19  38  66  90 129 173 222 274 332 402
#     4  11  22  42  70  91 131 189 221 277 344 409
#
# _framework density 22.979545000000002
#
# number of rings (size 3 to 8) (size 9 to 14) (size 15 to 20)
#    0.000    1.500    7.500    0.000    0.000    1.000 
#    0.000    2.500    0.000    0.000    0.000    0.000 
#    0.000    0.000    0.000    0.000    0.000    0.000 
#
# Total GULP energy -178387.595965 kJ/mol
# GULP energy per Si atom -5574.612374 kJ/mol
# Density = 2.292724 g / cm^3
# Si number density = 22.979545 Si / 1000 Ang^3
#
#
#
# Elastic Constant Matrix: (Units=GPa)
#
#
# Indices 1 2 3 4 5 6 
#
# 1 70.3933 0.7340 -3.6919 0.0000 0.0000 0.0000
# 2 0.7340 175.3725 22.0818 0.0000 0.0000 0.0000
# 3 -3.6919 22.0818 105.8041 0.0000 0.0000 0.0000
# 4 0.0000 0.0000 0.0000 33.4218 0.0000 0.0000
# 5 0.0000 0.0000 0.0000 0.0000 -3.3140 0.0000
# 6 0.0000 0.0000 0.0000 0.0000 0.0000 37.1569
#
#
#
# Elastic Compliance Matrix: (Units=1/GPa)
#
#
# Indices 1 2 3 4 5 6 
#
# 1 0.014235 -0.000125 0.000523 0.000000 0.000000 0.000000
# 2 -0.000125 0.005857 -0.001227 0.000000 0.000000 0.000000
# 3 0.000523 -0.001227 0.009726 0.000000 0.000000 0.000000
# 4 0.000000 0.000000 0.000000 0.029921 0.000000 0.000000
# 5 0.000000 0.000000 0.000000 0.000000 -0.301753 0.000000
# 6 0.000000 0.000000 0.000000 0.000000 0.000000 0.026913
#
#
# Mechanical properties :
#
#
# Convention : Reuss Voigt Hill
#
# Bulk Modulus (GPa) = 35.51282 43.31305 39.41293
# Shear Modulus (GPa) = -24.50291 35.61602 5.55656
#
# Velocity S-wave (km/s) = -3.26896 3.94115 1.55669
# Velocity P-wave (km/s) = 1.11335 6.29283 4.51881
#
# Compressibility (1/GPa) = 0.02815885
#
# Stress axis : x y z
#
# Youngs Moduli (GPa) = 70.25121 170.73175 102.82026
#
# Poissons Ratio (x) = 0.02141 -0.05376
# Poissons Ratio (y) = 0.00881 0.12614
# Poissons Ratio (z) = -0.03673 0.20945
#
# Static dielectric constant tensor:
#      x y z
#    x 1.893330 0.000000 0.000000 
#    y 0.000000 1.959270 0.000000 
#    z 0.000000 0.000000 1.805040 
# 
# From -- ./inp_files/10441.got.cif
#   From: 2010.05.17/outbox.cif.g08.bks.cpg/sg73_6_cif.got.tgz:10441.got - 2010.06.03 17:35:07.
