data_PCOD9530169
_publ_section_title
;
Structure prediction by ZEFSAII (Michael W. Deem and Ramdas Pophale) SiO2 
 PCOD9530169
Probable space group: I B C A 
;
_chemical_formula_sum "Si O2"
_cell_formula_units_Z 80
_cell_length_a 23.925336
_cell_length_b 8.207505
_cell_length_c 15.673956
_cell_angle_alpha 90.000000
_cell_angle_beta 90.000000
_cell_angle_gamma 90.000000
_cell_volume 3077.852653
_symmetry_space_group_name_H-M "I B C A "
_symmetry_group_IT_number 73
_symmetry_cell_setting 'orthorhombic'
loop_
_space_group_symop_operation_xyz
x,y,z
-x,1/2-y,z
x,-y,1/2-z
1/2-x,y,-z
-x,-y,-z
x,1/2+y,-z
-x,y,1/2+z
1/2+x,-y,z
1/2+x,1/2+y,1/2+z
1/2-x,-y,1/2+z
1/2+x,1/2-y,-z
-x,1/2+y,1/2-z
1/2-x,1/2-y,1/2-z
1/2+x,y,1/2-z
1/2-x,1/2+y,z
x,1/2-y,1/2+z
loop_
_atom_site_type_symbol
_atom_site_label
_atom_site_fract_x
_atom_site_fract_y
_atom_site_fract_z
Si Si1 0.119894 0.713511 0.443269
Si Si2 0.093399 0.577108 0.627414
Si Si3 0.804469 0.714807 0.191567
Si Si4 0.225413 0.510017 0.414224
Si Si5 0.985149 0.059070 0.096025
O O1 0.102095 0.691440 0.542882
O O2 0.111232 0.895678 0.407177
O O3 0.183416 0.657276 0.432628
O O4 0.081237 0.577986 0.395122
O O5 0.131941 0.653143 0.702506
O O6 0.027856 0.552360 0.649329
O O7 0.750000 0.750000 0.250000
O O8 0.779373 0.569818 0.135642
O O9 0.807620 0.879999 0.139603
O O10 0.250000 0.438545 0.500000
O O11 0.000000 0.250000 0.103360
O O12 0.000000 0.000000 0.000000
#
# Coordination Sequence:
#
# PCOD9530169 Si02
#       5
#    16  16  16  16  16
#     4  10  19  34  61  95 129 165 217 283 338 403
#     4  10  19  35  58  92 134 169 216 273 344 408
#     4  12  26  42  60  90 131 178 228 279 346 420
#     4  12  24  40  63  91 126 169 224 280 338 406
#     4   8  16  30  53  89 131 160 201 271 340 397
#
# _framework density 25.992148
#
# number of rings (size 3 to 8) (size 9 to 14) (size 15 to 20)
#    0.000    1.600    2.000    3.600    0.000    1.600 
#    0.000    0.000    0.000    0.000    0.000   28.000 
#    0.000    0.000    0.000    0.000    0.000    2.400 
#
# Total GULP energy -223265.601619 kJ/mol
# GULP energy per Si atom -5581.640040 kJ/mol
# Density = 2.593299 g / cm^3
# Si number density = 25.992148 Si / 1000 Ang^3
#
#
#
# Elastic Constant Matrix: (Units=GPa)
#
#
# Indices 1 2 3 4 5 6 
#
# 1 142.1464 18.3219 13.0480 0.0000 0.0000 0.0000
# 2 18.3219 99.6628 17.0662 0.0000 0.0000 0.0000
# 3 13.0480 17.0662 58.4195 0.0000 0.0000 0.0000
# 4 0.0000 0.0000 0.0000 35.0293 0.0000 0.0000
# 5 0.0000 0.0000 0.0000 0.0000 28.0007 0.0000
# 6 0.0000 0.0000 0.0000 0.0000 0.0000 57.6222
#
#
#
# Elastic Compliance Matrix: (Units=1/GPa)
#
#
# Indices 1 2 3 4 5 6 
#
# 1 0.007299 -0.001119 -0.001303 0.000000 0.000000 0.000000
# 2 -0.001119 0.010734 -0.002886 0.000000 0.000000 0.000000
# 3 -0.001303 -0.002886 0.018252 0.000000 0.000000 0.000000
# 4 0.000000 0.000000 0.000000 0.028547 0.000000 0.000000
# 5 0.000000 0.000000 0.000000 0.000000 0.035713 0.000000
# 6 0.000000 0.000000 0.000000 0.000000 0.000000 0.017354
#
#
# Mechanical properties :
#
#
# Convention : Reuss Voigt Hill
#
# Bulk Modulus (GPa) = 38.95818 44.12233 41.54026
# Shear Modulus (GPa) = 36.47734 40.91661 38.69698
#
# Velocity S-wave (km/s) = 3.75026 3.97191 3.86268
# Velocity P-wave (km/s) = 5.81150 6.16822 5.99251
#
# Compressibility (1/GPa) = 0.02566855
#
# Stress axis : x y z
#
# Youngs Moduli (GPa) = 137.00832 93.16501 54.78934
#
# Poissons Ratio (x) = 0.10422 0.07141
# Poissons Ratio (y) = 0.15326 0.15811
# Poissons Ratio (z) = 0.17858 0.26886
#
# Static dielectric constant tensor:
#      x y z
#    x 2.182190 0.000000 0.000000 
#    y 0.000000 2.002950 0.000000 
#    z 0.000000 0.000000 2.043740 
# 
# From -- ./inp_files/23824.got.cif
#   From: 2010.05.17/outbox.cif.g08.bks.cpg/sg73_12_cif.got.tgz:23824.got - 2010.06.03 17:35:07.
