data_PCOD9530687
_publ_section_title
;
Structure prediction by ZEFSAII (Michael W. Deem and Ramdas Pophale) SiO2 
 PCOD9530687
Probable space group: I B C A 
;
_chemical_formula_sum "Si O2"
_cell_formula_units_Z 88
_cell_length_a 23.673939
_cell_length_b 8.290383
_cell_length_c 16.999184
_cell_angle_alpha 90.000000
_cell_angle_beta 90.000000
_cell_angle_gamma 90.000000
_cell_volume 3336.362211
_symmetry_space_group_name_H-M "I B C A "
_symmetry_group_IT_number 73
_symmetry_cell_setting 'orthorhombic'
loop_
_space_group_symop_operation_xyz
x,y,z
-x,1/2-y,z
x,-y,1/2-z
1/2-x,y,-z
-x,-y,-z
x,1/2+y,-z
-x,y,1/2+z
1/2+x,-y,z
1/2+x,1/2+y,1/2+z
1/2-x,-y,1/2+z
1/2+x,1/2-y,-z
-x,1/2+y,1/2-z
1/2-x,1/2-y,1/2-z
1/2+x,y,1/2-z
1/2-x,1/2+y,z
x,1/2-y,1/2+z
loop_
_atom_site_type_symbol
_atom_site_label
_atom_site_fract_x
_atom_site_fract_y
_atom_site_fract_z
Si Si1 0.377821 0.107026 0.525596
Si Si2 0.495729 0.945697 0.166988
Si Si3 0.825503 0.108571 0.140821
Si Si4 0.500000 0.750000 0.938313
Si Si5 0.874501 0.586666 0.323399
Si Si6 0.723737 0.170658 0.582008
O O1 0.361587 0.068945 0.436982
O O2 0.441673 0.180196 0.523936
O O3 0.331370 0.231561 0.557198
O O4 0.364177 0.958684 0.585336
O O5 0.500000 0.750000 0.151008
O O6 0.562211 0.979401 0.176113
O O7 0.468876 0.000000 0.250000
O O8 0.478545 0.087685 0.106831
O O9 0.865821 0.223641 0.190391
O O10 0.773121 0.218989 0.115154
O O11 0.795368 0.940676 0.155271
O O12 0.844401 0.500000 0.250000
O O13 0.750000 0.095331 0.500000
#
# Coordination Sequence:
#
# PCOD9530687 Si02
#       6
#    16  16  16   8  16  16
#     4  10  21  40  62  92 129 170 213 270 326 396
#     4  10  20  38  63  90 129 184 225 261 328 417
#     4  11  21  40  66  93 123 169 220 270 327 396
#     4  10  22  38  60  94 138 162 218 288 334 384
#     4  10  23  42  62  95 134 167 215 277 332 392
#     4  10  20  36  65  92 121 169 220 260 320 408
#
# _framework density 26.376034000000001
#
# number of rings (size 3 to 8) (size 9 to 14) (size 15 to 20)
#    0.000    1.818    0.909    4.909    2.545    0.000 
#    1.636    7.273    0.000    0.000    0.000    0.000 
#    0.000    0.000    0.000    0.000    0.000    0.000 
#
# Total GULP energy -245066.228806 kJ/mol
# GULP energy per Si atom -5569.687018 kJ/mol
# Density = 2.631600 g / cm^3
# Si number density = 26.376034 Si / 1000 Ang^3
#
#
#
# Elastic Constant Matrix: (Units=GPa)
#
#
# Indices 1 2 3 4 5 6 
#
# 1 112.0489 -0.2778 0.9983 0.0000 0.0000 0.0000
# 2 -0.2778 99.7176 15.5648 0.0000 0.0000 0.0000
# 3 0.9983 15.5648 36.9461 0.0000 0.0000 0.0000
# 4 0.0000 0.0000 0.0000 53.8422 0.0000 0.0000
# 5 0.0000 0.0000 0.0000 0.0000 8.5147 0.0000
# 6 0.0000 0.0000 0.0000 0.0000 0.0000 40.9365
#
#
#
# Elastic Compliance Matrix: (Units=1/GPa)
#
#
# Indices 1 2 3 4 5 6 
#
# 1 0.008927 0.000067 -0.000269 0.000000 0.000000 0.000000
# 2 0.000067 0.010735 -0.004524 0.000000 0.000000 0.000000
# 3 -0.000269 -0.004524 0.028980 0.000000 0.000000 0.000000
# 4 0.000000 0.000000 0.000000 0.018573 0.000000 0.000000
# 5 0.000000 0.000000 0.000000 0.000000 0.117444 0.000000
# 6 0.000000 0.000000 0.000000 0.000000 0.000000 0.024428
#
#
# Mechanical properties :
#
#
# Convention : Reuss Voigt Hill
#
# Bulk Modulus (GPa) = 25.51782 31.25370 28.38576
# Shear Modulus (GPa) = 21.58875 36.15385 28.87130
#
# Velocity S-wave (km/s) = 2.86405 3.70632 3.31207
# Velocity P-wave (km/s) = 4.54232 5.49461 5.04100
#
# Compressibility (1/GPa) = 0.03918829
#
# Stress axis : x y z
#
# Youngs Moduli (GPa) = 112.01671 93.15608 34.50694
#
# Poissons Ratio (x) = -0.00623 0.00930
# Poissons Ratio (y) = -0.00750 0.15611
# Poissons Ratio (z) = 0.03018 0.42145
#
# Static dielectric constant tensor:
#      x y z
#    x 2.084530 0.000000 0.000000 
#    y 0.000000 2.109140 0.000000 
#    z 0.000000 0.000000 2.274310 
# 
# From -- ./inp_files/27219.got.cif
#   From: 2010.05.17/outbox.cif.g08.bks.cpg/sg73_14_cif.got.tgz:27219.got - 2010.06.03 17:35:07.
