data_PCOD9530117
_publ_section_title
;
Structure prediction by ZEFSAII (Michael W. Deem and Ramdas Pophale) SiO2 
 PCOD9530117
Probable space group: I B C A 
;
_chemical_formula_sum "Si O2"
_cell_formula_units_Z 80
_cell_length_a 15.833676
_cell_length_b 22.629878
_cell_length_c 9.967906
_cell_angle_alpha 90.000000
_cell_angle_beta 90.000000
_cell_angle_gamma 90.000000
_cell_volume 3571.641827
_symmetry_space_group_name_H-M "I B C A "
_symmetry_group_IT_number 73
_symmetry_cell_setting 'orthorhombic'
loop_
_space_group_symop_operation_xyz
x,y,z
-x,1/2-y,z
x,-y,1/2-z
1/2-x,y,-z
-x,-y,-z
x,1/2+y,-z
-x,y,1/2+z
1/2+x,-y,z
1/2+x,1/2+y,1/2+z
1/2-x,-y,1/2+z
1/2+x,1/2-y,-z
-x,1/2+y,1/2-z
1/2-x,1/2-y,1/2-z
1/2+x,y,1/2-z
1/2-x,1/2+y,z
x,1/2-y,1/2+z
loop_
_atom_site_type_symbol
_atom_site_label
_atom_site_fract_x
_atom_site_fract_y
_atom_site_fract_z
Si Si1 0.500000 0.250000 0.641009
Si Si2 0.750000 0.574787 0.000000
Si Si3 0.323038 0.765587 0.398833
Si Si4 0.940922 0.556638 0.010988
Si Si5 0.215677 0.348242 0.735457
Si Si6 0.465085 0.372379 0.287235
O O1 0.582532 0.240634 0.550463
O O2 0.506873 0.308322 0.732752
O O3 0.840927 0.542615 0.993676
O O4 0.759935 0.614336 0.134315
O O5 0.250000 0.748490 0.500000
O O6 0.297758 0.830572 0.348565
O O7 0.317830 0.715970 0.284218
O O8 0.957743 0.586711 0.154796
O O9 0.000000 0.500000 0.000000
O O10 0.971123 0.602301 0.896453
O O11 0.132886 0.372942 0.661525
#
# Coordination Sequence:
#
# PCOD9530117 Si02
#       6
#     8   8  16  16  16  16
#     4  10  22  38  60 104 130 184 208 272 340 396
#     4  10  20  42  66  86 126 172 216 266 348 386
#     4  10  19  33  55  88 136 165 215 256 311 401
#     4  11  24  45  69  96 130 177 225 279 329 397
#     4   9  19  36  58  90 123 176 205 263 325 389
#     4  10  23  41  67  97 136 169 223 270 332 406
#
# _framework density 22.398662999999999
#
# number of rings (size 3 to 8) (size 9 to 14) (size 15 to 20)
#    0.000    2.000    1.000    1.800    2.800    0.800 
#    0.000   10.000    0.000    0.000    0.000    0.000 
#    0.000    0.000    0.000    0.000    0.000    0.000 
#
# Total GULP energy -223267.815853 kJ/mol
# GULP energy per Si atom -5581.695396 kJ/mol
# Density = 2.234768 g / cm^3
# Si number density = 22.398663 Si / 1000 Ang^3
#
#
#
# Elastic Constant Matrix: (Units=GPa)
#
#
# Indices 1 2 3 4 5 6 
#
# 1 210.8176 40.0996 37.2283 0.0000 0.0000 0.0000
# 2 40.0996 79.0399 3.1155 0.0000 0.0000 0.0000
# 3 37.2283 3.1155 58.1330 0.0000 0.0000 0.0000
# 4 0.0000 0.0000 0.0000 0.9318 0.0000 0.0000
# 5 0.0000 0.0000 0.0000 0.0000 22.7259 0.0000
# 6 0.0000 0.0000 0.0000 0.0000 0.0000 19.9026
#
#
#
# Elastic Compliance Matrix: (Units=1/GPa)
#
#
# Indices 1 2 3 4 5 6 
#
# 1 0.005932 -0.002866 -0.003645 0.000000 0.000000 0.000000
# 2 -0.002866 0.014063 0.001082 0.000000 0.000000 0.000000
# 3 -0.003645 0.001082 0.019479 0.000000 0.000000 0.000000
# 4 0.000000 0.000000 0.000000 1.073182 0.000000 0.000000
# 5 0.000000 0.000000 0.000000 0.000000 0.044003 0.000000
# 6 0.000000 0.000000 0.000000 0.000000 0.000000 0.050245
#
#
# Mechanical properties :
#
#
# Convention : Reuss Voigt Hill
#
# Bulk Modulus (GPa) = 34.94725 56.54191 45.74458
# Shear Modulus (GPa) = 4.07398 26.54853 15.31125
#
# Velocity S-wave (km/s) = 1.35011 3.44651 2.61737
# Velocity P-wave (km/s) = 4.25049 6.41375 5.44072
#
# Compressibility (1/GPa) = 0.02861455
#
# Stress axis : x y z
#
# Youngs Moduli (GPa) = 168.56787 71.10750 51.33857
#
# Poissons Ratio (x) = 0.20379 0.18715
# Poissons Ratio (y) = 0.48311 -0.05553
# Poissons Ratio (z) = 0.61451 -0.07692
#
# Static dielectric constant tensor:
#      x y z
#    x 1.959210 0.000000 0.000000 
#    y 0.000000 1.820700 0.000000 
#    z 0.000000 0.000000 1.836110 
# 
# From -- ./inp_files/10883.got.cif
#   From: 2010.05.17/outbox.cif.g08.bks.cpg/sg73_6_cif.got.tgz:10883.got - 2010.06.03 17:35:07.
