data_PCOD9530689
_publ_section_title
;
Structure prediction by ZEFSAII (Michael W. Deem and Ramdas Pophale) SiO2 
 PCOD9530689
Probable space group: I B C A 
;
_chemical_formula_sum "Si O2"
_cell_formula_units_Z 64
_cell_length_a 8.101245
_cell_length_b 17.133847
_cell_length_c 20.293950
_cell_angle_alpha 90.000000
_cell_angle_beta 90.000000
_cell_angle_gamma 90.000000
_cell_volume 2816.911721
_symmetry_space_group_name_H-M "I B C A "
_symmetry_group_IT_number 73
_symmetry_cell_setting 'orthorhombic'
loop_
_space_group_symop_operation_xyz
x,y,z
-x,1/2-y,z
x,-y,1/2-z
1/2-x,y,-z
-x,-y,-z
x,1/2+y,-z
-x,y,1/2+z
1/2+x,-y,z
1/2+x,1/2+y,1/2+z
1/2-x,-y,1/2+z
1/2+x,1/2-y,-z
-x,1/2+y,1/2-z
1/2-x,1/2-y,1/2-z
1/2+x,y,1/2-z
1/2-x,1/2+y,z
x,1/2-y,1/2+z
loop_
_atom_site_type_symbol
_atom_site_label
_atom_site_fract_x
_atom_site_fract_y
_atom_site_fract_z
Si Si1 0.051927 0.091509 0.001408
Si Si2 0.108095 0.689809 0.232849
Si Si3 0.465002 0.076687 0.641543
Si Si4 0.922591 0.898201 0.358775
O O1 0.968541 0.127636 0.066669
O O2 0.250000 0.097243 0.000000
O O3 0.989562 0.115713 0.929893
O O4 0.000000 0.000000 0.000000
O O5 0.250000 0.750000 0.250000
O O6 0.023967 0.660209 0.301047
O O7 0.000000 0.750000 0.190383
O O8 0.104526 0.612742 0.189255
O O9 0.272778 0.091962 0.656646
O O10 0.494262 0.983661 0.644435
#
# Coordination Sequence:
#
# PCOD9530689 Si02
#       4
#    16  16  16  16
#     4  10  20  36  65  96 127 161 213 272 323 379
#     4  12  27  44  65  92 135 177 218 268 330 394
#     4  11  23  41  68  97 129 169 221 271 332 390
#     4  11  23  41  68  97 129 170 219 275 326 395
#
# _framework density 22.719916000000001
#
# number of rings (size 3 to 8) (size 9 to 14) (size 15 to 20)
#    0.000    1.000    2.500    7.500    7.000    2.000 
#    0.000    1.250    0.000    0.000    0.000    0.000 
#    0.000    0.000    0.000    0.000    0.000    0.000 
#
# Total GULP energy -178151.422513 kJ/mol
# GULP energy per Si atom -5567.231954 kJ/mol
# Density = 2.266820 g / cm^3
# Si number density = 22.719916 Si / 1000 Ang^3
#
#
#
# Elastic Constant Matrix: (Units=GPa)
#
#
# Indices 1 2 3 4 5 6 
#
# 1 92.6995 22.4519 -0.1123 0.0000 0.0000 0.0000
# 2 22.4519 67.5497 48.5940 0.0000 0.0000 0.0000
# 3 -0.1123 48.5940 150.9905 0.0000 0.0000 0.0000
# 4 0.0000 0.0000 0.0000 5.5669 0.0000 0.0000
# 5 0.0000 0.0000 0.0000 0.0000 31.5543 0.0000
# 6 0.0000 0.0000 0.0000 0.0000 0.0000 44.0527
#
#
#
# Elastic Compliance Matrix: (Units=1/GPa)
#
#
# Indices 1 2 3 4 5 6 
#
# 1 0.012054 -0.005222 0.001690 0.000000 0.000000 0.000000
# 2 -0.005222 0.021526 -0.006932 0.000000 0.000000 0.000000
# 3 0.001690 -0.006932 0.008855 0.000000 0.000000 0.000000
# 4 0.000000 0.000000 0.000000 0.179632 0.000000 0.000000
# 5 0.000000 0.000000 0.000000 0.000000 0.031691 0.000000
# 6 0.000000 0.000000 0.000000 0.000000 0.000000 0.022700
#
#
# Mechanical properties :
#
#
# Convention : Reuss Voigt Hill
#
# Bulk Modulus (GPa) = 46.49606 50.34523 48.42064
# Shear Modulus (GPa) = 16.41731 32.25519 24.33625
#
# Velocity S-wave (km/s) = 2.69103 3.77196 3.27638
# Velocity P-wave (km/s) = 5.49225 6.41697 5.97253
#
# Compressibility (1/GPa) = 0.02150720
#
# Stress axis : x y z
#
# Youngs Moduli (GPa) = 82.95736 46.45504 112.92964
#
# Poissons Ratio (x) = 0.24259 -0.19081
# Poissons Ratio (y) = 0.43321 0.78280
# Poissons Ratio (z) = -0.14017 0.32202
#
# Static dielectric constant tensor:
#      x y z
#    x 2.097800 0.000000 0.000000 
#    y 0.000000 1.821360 0.000000 
#    z 0.000000 0.000000 1.915080 
# 
# From -- ./inp_files/5216.got.cif
#   From: 2010.05.17/outbox.cif.g08.bks.cpg/sg73_3_cif.got.tgz:5216.got - 2010.06.03 17:35:07.
