data_PCOD9530483
_publ_section_title
;
Structure prediction by ZEFSAII (Michael W. Deem and Ramdas Pophale) SiO2 
 PCOD9530483
Probable space group: I B C A 
;
_chemical_formula_sum "Si O2"
_cell_formula_units_Z 96
_cell_length_a 7.581058
_cell_length_b 22.600657
_cell_length_c 25.430954
_cell_angle_alpha 90.000000
_cell_angle_beta 90.000000
_cell_angle_gamma 90.000000
_cell_volume 4357.260608
_symmetry_space_group_name_H-M "I B C A "
_symmetry_group_IT_number 73
_symmetry_cell_setting 'orthorhombic'
loop_
_space_group_symop_operation_xyz
x,y,z
-x,1/2-y,z
x,-y,1/2-z
1/2-x,y,-z
-x,-y,-z
x,1/2+y,-z
-x,y,1/2+z
1/2+x,-y,z
1/2+x,1/2+y,1/2+z
1/2-x,-y,1/2+z
1/2+x,1/2-y,-z
-x,1/2+y,1/2-z
1/2-x,1/2-y,1/2-z
1/2+x,y,1/2-z
1/2-x,1/2+y,z
x,1/2-y,1/2+z
loop_
_atom_site_type_symbol
_atom_site_label
_atom_site_fract_x
_atom_site_fract_y
_atom_site_fract_z
Si Si1 0.500000 0.750000 0.481547
Si Si2 0.684315 0.687605 0.684596
Si Si3 0.656035 0.500000 0.750000
Si Si4 0.921084 0.931845 0.063684
Si Si5 0.094500 0.431473 0.315519
Si Si6 0.500000 0.750000 0.770202
Si Si7 0.250000 0.462535 0.000000
Si Si8 0.319521 0.685338 0.066206
O O1 0.527557 0.696495 0.523616
O O2 0.329047 0.763509 0.445644
O O3 0.799576 0.628889 0.689325
O O4 0.540788 0.696723 0.729729
O O5 0.828715 0.738963 0.694982
O O6 0.613813 0.689626 0.625527
O O7 0.546240 0.443746 0.730103
O O8 0.767228 0.517246 0.698999
O O9 0.971780 0.936128 0.125026
O O10 0.783090 0.877175 0.059977
O O11 0.094323 0.926039 0.027561
O O12 0.830668 0.992331 0.043456
#
# Coordination Sequence:
#
# PCOD9530483 Si02
#       8
#     8  16   8  16  16   8   8  16
#     4  10  20  36  56  76 106 142 182 230 280 332
#     4  10  20  35  54  79 109 144 183 227 275 327
#     4  10  20  34  56  84 114 150 188 226 278 330
#     4  10  21  37  57  83 114 149 190 234 282 335
#     4  10  20  35  55  81 113 147 185 231 277 330
#     4  10  20  34  54  78 108 144 184 224 272 328
#     4  10  20  36  58  82 112 150 190 232 280 334
#     4  10  21  36  56  81 110 145 186 233 283 334
#
# _framework density 22.032191000000001
#
# number of rings (size 3 to 8) (size 9 to 14) (size 15 to 20)
#    0.000    2.000    0.000    4.000    0.000    1.333 
#    0.000    0.000    0.000   32.000    0.000    0.000 
#    0.000    0.000    0.000    0.000    0.000    0.000 
#
# Total GULP energy -267524.160955 kJ/mol
# GULP energy per Si atom -5573.420020 kJ/mol
# Density = 2.198204 g / cm^3
# Si number density = 22.032191 Si / 1000 Ang^3
#
#
#
# Elastic Constant Matrix: (Units=GPa)
#
#
# Indices 1 2 3 4 5 6 
#
# 1 42.6351 24.0075 3.2610 0.0000 0.0000 0.0000
# 2 24.0075 71.2024 35.9541 0.0000 0.0000 0.0000
# 3 3.2610 35.9541 104.1068 0.0000 0.0000 0.0000
# 4 0.0000 0.0000 0.0000 21.5986 0.0000 0.0000
# 5 0.0000 0.0000 0.0000 0.0000 24.8545 0.0000
# 6 0.0000 0.0000 0.0000 0.0000 0.0000 27.5731
#
#
#
# Elastic Compliance Matrix: (Units=1/GPa)
#
#
# Indices 1 2 3 4 5 6 
#
# 1 0.029738 -0.011575 0.003066 0.000000 0.000000 0.000000
# 2 -0.011575 0.021517 -0.007068 0.000000 0.000000 0.000000
# 3 0.003066 -0.007068 0.011951 0.000000 0.000000 0.000000
# 4 0.000000 0.000000 0.000000 0.046299 0.000000 0.000000
# 5 0.000000 0.000000 0.000000 0.000000 0.040234 0.000000
# 6 0.000000 0.000000 0.000000 0.000000 0.000000 0.036267
#
#
# Mechanical properties :
#
#
# Convention : Reuss Voigt Hill
#
# Bulk Modulus (GPa) = 31.20078 38.26550 34.73314
# Shear Modulus (GPa) = 21.94482 25.12004 23.53243
#
# Velocity S-wave (km/s) = 3.15943 3.38028 3.27171
# Velocity P-wave (km/s) = 5.24419 5.71321 5.48371
#
# Compressibility (1/GPa) = 0.03205048
#
# Stress axis : x y z
#
# Youngs Moduli (GPa) = 33.62674 46.47596 83.67802
#
# Poissons Ratio (x) = 0.53797 -0.25656
# Poissons Ratio (y) = 0.38924 0.59146
# Poissons Ratio (z) = -0.10310 0.32851
#
# Static dielectric constant tensor:
#      x y z
#    x 1.866530 0.000000 0.000000 
#    y 0.000000 1.839940 0.000000 
#    z 0.000000 0.000000 1.796430 
# 
# From -- ./inp_files/7302.got.cif
#   From: 2010.05.17/outbox.cif.g08.bks.cpg/sg73_4_cif.got.tgz:7302.got - 2010.06.03 17:35:07.
