data_PCOD9530469
_publ_section_title
;
Structure prediction by ZEFSAII (Michael W. Deem and Ramdas Pophale) SiO2 
 PCOD9530469
Probable space group: I B C A 
;
_chemical_formula_sum "Si O2"
_cell_formula_units_Z 80
_cell_length_a 28.964056
_cell_length_b 28.960863
_cell_length_c 5.095866
_cell_angle_alpha 90.000000
_cell_angle_beta 90.000000
_cell_angle_gamma 90.000000
_cell_volume 4274.534996
_symmetry_space_group_name_H-M "I B C A "
_symmetry_group_IT_number 73
_symmetry_cell_setting 'orthorhombic'
loop_
_space_group_symop_operation_xyz
x,y,z
-x,1/2-y,z
x,-y,1/2-z
1/2-x,y,-z
-x,-y,-z
x,1/2+y,-z
-x,y,1/2+z
1/2+x,-y,z
1/2+x,1/2+y,1/2+z
1/2-x,-y,1/2+z
1/2+x,1/2-y,-z
-x,1/2+y,1/2-z
1/2-x,1/2-y,1/2-z
1/2+x,y,1/2-z
1/2-x,1/2+y,z
x,1/2-y,1/2+z
loop_
_atom_site_type_symbol
_atom_site_label
_atom_site_fract_x
_atom_site_fract_y
_atom_site_fract_z
Si Si1 0.520338 0.446499 0.664708
Si Si2 0.804243 0.219166 0.465093
Si Si3 0.250000 0.425399 0.500000
Si Si4 0.342556 0.622035 0.089722
Si Si5 0.119611 0.928380 0.927937
Si Si6 0.685597 0.000000 0.750000
O O1 0.512751 0.500000 0.750000
O O2 0.483635 0.425520 0.456878
O O3 0.567968 0.442501 0.506282
O O4 0.750000 0.205846 0.500000
O O5 0.811624 0.240850 0.179731
O O6 0.836619 0.175242 0.514220
O O7 0.289727 0.395336 0.369314
O O8 0.279838 0.459161 0.678414
O O9 0.366806 0.610190 0.361027
O O10 0.367938 0.592508 0.858891
O O11 0.151045 0.974770 0.953122
#
# Coordination Sequence:
#
# PCOD9530469 Si02
#       6
#    16  16   8  16  16   8
#     4  10  22  37  57  78 108 146 187 228 283 339
#     4  10  20  36  57  79 110 147 186 225 282 339
#     4  10  20  34  48  72 106 156 192 226 258 304
#     4  11  22  37  54  82 110 146 189 238 266 321
#     4  11  24  35  57  78 113 142 194 236 271 318
#     4  10  22  34  52  74 108 162 196 236 262 310
#
# _framework density 18.715485000000001
#
# number of rings (size 3 to 8) (size 9 to 14) (size 15 to 20)
#    0.000    1.600    1.000    3.600    9.800    2.400 
#    0.000    0.000    0.000    0.000    0.000    0.000 
#    0.000   56.000    0.000    0.000    0.000    0.000 
#
# Total GULP energy -222800.758544 kJ/mol
# GULP energy per Si atom -5570.018964 kJ/mol
# Density = 1.867289 g / cm^3
# Si number density = 18.715485 Si / 1000 Ang^3
#
#
#
# Elastic Constant Matrix: (Units=GPa)
#
#
# Indices 1 2 3 4 5 6 
#
# 1 86.9362 8.5558 29.4679 0.0000 0.0000 0.0000
# 2 8.5558 54.0627 0.3354 0.0000 0.0000 0.0000
# 3 29.4679 0.3354 75.0112 0.0000 0.0000 0.0000
# 4 0.0000 0.0000 0.0000 15.6340 0.0000 0.0000
# 5 0.0000 0.0000 0.0000 0.0000 18.0982 0.0000
# 6 0.0000 0.0000 0.0000 0.0000 0.0000 8.2850
#
#
#
# Elastic Compliance Matrix: (Units=1/GPa)
#
#
# Indices 1 2 3 4 5 6 
#
# 1 0.013505 -0.002104 -0.005296 0.000000 0.000000 0.000000
# 2 -0.002104 0.018825 0.000743 0.000000 0.000000 0.000000
# 3 -0.005296 0.000743 0.015409 0.000000 0.000000 0.000000
# 4 0.000000 0.000000 0.000000 0.063963 0.000000 0.000000
# 5 0.000000 0.000000 0.000000 0.000000 0.055254 0.000000
# 6 0.000000 0.000000 0.000000 0.000000 0.000000 0.120700
#
#
# Mechanical properties :
#
#
# Convention : Reuss Voigt Hill
#
# Bulk Modulus (GPa) = 29.05011 32.52536 30.78773
# Shear Modulus (GPa) = 16.00276 20.24685 18.12480
#
# Velocity S-wave (km/s) = 2.92730 3.29268 3.11535
# Velocity P-wave (km/s) = 5.19434 5.64555 5.42464
#
# Compressibility (1/GPa) = 0.03442328
#
# Stress axis : x y z
#
# Youngs Moduli (GPa) = 74.04724 53.11954 64.89920
#
# Poissons Ratio (x) = 0.11178 0.34370
# Poissons Ratio (y) = 0.15582 -0.04819
# Poissons Ratio (z) = 0.39215 -0.03944
#
# Static dielectric constant tensor:
#      x y z
#    x 1.826970 0.000000 0.000000 
#    y 0.000000 1.655200 0.000000 
#    z 0.000000 0.000000 1.714150 
# 
# From -- ./inp_files/2681.got.cif
#   From: 2010.05.17/outbox.cif.g08.bks.cpg/sg73_2_cif.got.tgz:2681.got - 2010.06.03 17:35:07.
