data_PCOD9530558
_publ_section_title
;
Structure prediction by ZEFSAII (Michael W. Deem and Ramdas Pophale) SiO2 
 PCOD9530558
Probable space group: I B C A 
;
_chemical_formula_sum "Si O2"
_cell_formula_units_Z 80
_cell_length_a 12.222723
_cell_length_b 9.066902
_cell_length_c 27.606671
_cell_angle_alpha 90.000000
_cell_angle_beta 90.000000
_cell_angle_gamma 90.000000
_cell_volume 3059.432888
_symmetry_space_group_name_H-M "I B C A "
_symmetry_group_IT_number 73
_symmetry_cell_setting 'orthorhombic'
loop_
_space_group_symop_operation_xyz
x,y,z
-x,1/2-y,z
x,-y,1/2-z
1/2-x,y,-z
-x,-y,-z
x,1/2+y,-z
-x,y,1/2+z
1/2+x,-y,z
1/2+x,1/2+y,1/2+z
1/2-x,-y,1/2+z
1/2+x,1/2-y,-z
-x,1/2+y,1/2-z
1/2-x,1/2-y,1/2-z
1/2+x,y,1/2-z
1/2-x,1/2+y,z
x,1/2-y,1/2+z
loop_
_atom_site_type_symbol
_atom_site_label
_atom_site_fract_x
_atom_site_fract_y
_atom_site_fract_z
Si Si1 0.691014 0.277919 0.947784
Si Si2 0.498138 0.530916 0.556566
Si Si3 0.252489 0.195063 0.653481
Si Si4 0.075956 0.380817 0.714107
Si Si5 0.093915 0.576112 0.152838
O O1 0.624142 0.425270 0.934855
O O2 0.593449 0.159384 0.943321
O O3 0.765395 0.237705 0.902964
O O4 0.750000 0.282409 0.000000
O O5 0.500000 0.500000 0.500000
O O6 0.456218 0.424141 0.598447
O O7 0.159536 0.291983 0.680290
O O8 0.365936 0.265365 0.672282
O O9 0.202205 0.031588 0.654752
O O10 0.131138 0.500000 0.750000
O O11 0.000000 0.250000 0.735305
O O12 0.994323 0.484390 0.683351
#
# Coordination Sequence:
#
# PCOD9530558 Si02
#       5
#    16  16  16  16  16
#     4  10  20  36  57  85 124 166 208 253 314 381
#     4  10  20  35  58  85 122 166 209 256 311 375
#     4  10  21  39  63  90 124 166 209 262 319 380
#     4  10  22  42  66  90 126 170 214 271 331 384
#     4  10  21  40  63  92 127 166 210 267 324 380
#
# _framework density 26.148636
#
# number of rings (size 3 to 8) (size 9 to 14) (size 15 to 20)
#    0.000    2.000    2.000    1.200    0.000    6.400 
#    0.000    4.000    4.400    0.000    0.000    0.000 
#    0.000    0.000    0.000    0.000    0.000    0.000 
#
# Total GULP energy -223346.648632 kJ/mol
# GULP energy per Si atom -5583.666216 kJ/mol
# Density = 2.608912 g / cm^3
# Si number density = 26.148636 Si / 1000 Ang^3
#
#
#
# Elastic Constant Matrix: (Units=GPa)
#
#
# Indices 1 2 3 4 5 6 
#
# 1 84.3128 36.0922 29.2129 0.0000 0.0000 0.0000
# 2 36.0922 114.8124 39.6515 0.0000 0.0000 0.0000
# 3 29.2129 39.6515 95.4937 0.0000 0.0000 0.0000
# 4 0.0000 0.0000 0.0000 10.1003 0.0000 0.0000
# 5 0.0000 0.0000 0.0000 0.0000 44.9915 0.0000
# 6 0.0000 0.0000 0.0000 0.0000 0.0000 54.7856
#
#
#
# Elastic Compliance Matrix: (Units=1/GPa)
#
#
# Indices 1 2 3 4 5 6 
#
# 1 0.014381 -0.003504 -0.002944 0.000000 0.000000 0.000000
# 2 -0.003504 0.011022 -0.003505 0.000000 0.000000 0.000000
# 3 -0.002944 -0.003505 0.012828 0.000000 0.000000 0.000000
# 4 0.000000 0.000000 0.000000 0.099007 0.000000 0.000000
# 5 0.000000 0.000000 0.000000 0.000000 0.022226 0.000000
# 6 0.000000 0.000000 0.000000 0.000000 0.000000 0.018253
#
#
# Mechanical properties :
#
#
# Convention : Reuss Voigt Hill
#
# Bulk Modulus (GPa) = 54.57164 56.05915 55.31540
# Shear Modulus (GPa) = 24.54222 34.61962 29.58092
#
# Velocity S-wave (km/s) = 3.06693 3.64257 3.36707
# Velocity P-wave (km/s) = 5.78416 6.25909 6.02631
#
# Compressibility (1/GPa) = 0.01832454
#
# Stress axis : x y z
#
# Youngs Moduli (GPa) = 69.53785 90.73037 77.95546
#
# Poissons Ratio (x) = 0.31790 0.22953
# Poissons Ratio (y) = 0.24365 0.27320
# Poissons Ratio (z) = 0.20475 0.31798
#
# Static dielectric constant tensor:
#      x y z
#    x 2.113720 0.000000 0.000000 
#    y 0.000000 1.753360 0.000000 
#    z 0.000000 0.000000 1.878450 
# 
# From -- ./inp_files/9784.got.cif
#   From: 2010.05.17/outbox.cif.g08.bks.cpg/sg73_5_cif.got.tgz:9784.got - 2010.06.03 17:35:07.
