data_PCOD9530076
_publ_section_title
;
Structure prediction by ZEFSAII (Michael W. Deem and Ramdas Pophale) SiO2 
 PCOD9530076
Probable space group: I B C A 
;
_chemical_formula_sum "Si O2"
_cell_formula_units_Z 96
_cell_length_a 8.079291
_cell_length_b 23.661781
_cell_length_c 24.224985
_cell_angle_alpha 90.000000
_cell_angle_beta 90.000000
_cell_angle_gamma 90.000000
_cell_volume 4631.100418
_symmetry_space_group_name_H-M "I B C A "
_symmetry_group_IT_number 73
_symmetry_cell_setting 'orthorhombic'
loop_
_space_group_symop_operation_xyz
x,y,z
-x,1/2-y,z
x,-y,1/2-z
1/2-x,y,-z
-x,-y,-z
x,1/2+y,-z
-x,y,1/2+z
1/2+x,-y,z
1/2+x,1/2+y,1/2+z
1/2-x,-y,1/2+z
1/2+x,1/2-y,-z
-x,1/2+y,1/2-z
1/2-x,1/2-y,1/2-z
1/2+x,y,1/2-z
1/2-x,1/2+y,z
x,1/2-y,1/2+z
loop_
_atom_site_type_symbol
_atom_site_label
_atom_site_fract_x
_atom_site_fract_y
_atom_site_fract_z
Si Si1 0.882109 0.596565 0.331132
Si Si2 0.630365 0.613641 0.092285
Si Si3 0.059936 0.583879 0.017394
Si Si4 0.403917 0.059279 0.228250
Si Si5 0.887865 0.025031 0.878420
Si Si6 0.109392 0.304222 0.951677
O O1 0.714372 0.605855 0.298825
O O2 0.852596 0.540920 0.369382
O O3 0.974514 0.636741 0.373506
O O4 0.003979 0.582910 0.280912
O O5 0.718321 0.560163 0.120320
O O6 0.769499 0.661593 0.089150
O O7 0.565430 0.587734 0.034669
O O8 0.987158 0.543399 0.065850
O O9 0.032554 0.648558 0.036521
O O10 0.250000 0.571515 0.000000
O O11 0.519607 0.042799 0.177305
O O12 0.321715 0.000000 0.250000
O O13 0.000000 0.250000 0.937333
O O14 0.250000 0.292290 0.000000
#
# Coordination Sequence:
#
# PCOD9530076 Si02
#       6
#    16  16  16  16  16  16
#     4  11  20  33  50  72 103 138 180 227 268 313
#     4  10  21  34  51  79 110 142 183 222 272 339
#     4  10  20  34  51  76 108 141 180 220 269 335
#     4  10  19  31  50  72  97 138 189 230 265 307
#     4  10  19  32  48  70 103 141 179 221 263 313
#     4   9  18  34  56  80 106 137 176 228 278 325
#
# _framework density 20.729413999999998
#
# number of rings (size 3 to 8) (size 9 to 14) (size 15 to 20)
#    0.000    2.000    0.000    7.500    0.000    0.667 
#    0.000    4.167    0.000    0.000    0.000   10.500 
#    0.000   12.000    0.000   28.667    0.000   21.000 
#
# Total GULP energy -267363.768671 kJ/mol
# GULP energy per Si atom -5570.078514 kJ/mol
# Density = 2.068223 g / cm^3
# Si number density = 20.729414 Si / 1000 Ang^3
#
#
#
# Elastic Constant Matrix: (Units=GPa)
#
#
# Indices 1 2 3 4 5 6 
#
# 1 64.1070 2.5683 7.4667 0.0000 0.0000 0.0000
# 2 2.5683 53.8994 1.7345 0.0000 0.0000 0.0000
# 3 7.4667 1.7345 78.5129 0.0000 0.0000 0.0000
# 4 0.0000 0.0000 0.0000 3.2685 0.0000 0.0000
# 5 0.0000 0.0000 0.0000 0.0000 32.6163 0.0000
# 6 0.0000 0.0000 0.0000 0.0000 0.0000 23.8358
#
#
#
# Elastic Compliance Matrix: (Units=1/GPa)
#
#
# Indices 1 2 3 4 5 6 
#
# 1 0.015800 -0.000705 -0.001487 0.000000 0.000000 0.000000
# 2 -0.000705 0.018598 -0.000344 0.000000 0.000000 0.000000
# 3 -0.001487 -0.000344 0.012886 0.000000 0.000000 0.000000
# 4 0.000000 0.000000 0.000000 0.305949 0.000000 0.000000
# 5 0.000000 0.000000 0.000000 0.000000 0.030660 0.000000
# 6 0.000000 0.000000 0.000000 0.000000 0.000000 0.041954
#
#
# Mechanical properties :
#
#
# Convention : Reuss Voigt Hill
#
# Bulk Modulus (GPa) = 23.68991 24.45093 24.07042
# Shear Modulus (GPa) = 11.23624 24.26077 17.74851
#
# Velocity S-wave (km/s) = 2.33071 3.42476 2.92926
# Velocity P-wave (km/s) = 4.32388 5.24018 4.80393
#
# Compressibility (1/GPa) = 0.04221207
#
# Stress axis : x y z
#
# Youngs Moduli (GPa) = 63.28964 53.76994 77.60492
#
# Poissons Ratio (x) = 0.03791 0.11540
# Poissons Ratio (y) = 0.04462 0.02668
# Poissons Ratio (z) = 0.09412 0.01849
#
# Static dielectric constant tensor:
#      x y z
#    x 1.843410 0.000000 0.000000 
#    y 0.000000 1.743830 0.000000 
#    z 0.000000 0.000000 1.797850 
# 
# From -- ./inp_files/28453.got.cif
#   From: 2010.05.17/outbox.cif.g08.bks.cpg/sg73_15_cif.got.tgz:28453.got - 2010.06.03 17:35:07.
