data_PCOD9530753
_publ_section_title
;
Structure prediction by ZEFSAII (Michael W. Deem and Ramdas Pophale) SiO2 
 PCOD9530753
Probable space group: I B C A 
;
_chemical_formula_sum "Si O2"
_cell_formula_units_Z 64
_cell_length_a 14.501379
_cell_length_b 9.310750
_cell_length_c 17.193108
_cell_angle_alpha 90.000000
_cell_angle_beta 90.000000
_cell_angle_gamma 90.000000
_cell_volume 2321.391341
_symmetry_space_group_name_H-M "I B C A "
_symmetry_group_IT_number 73
_symmetry_cell_setting 'orthorhombic'
loop_
_space_group_symop_operation_xyz
x,y,z
-x,1/2-y,z
x,-y,1/2-z
1/2-x,y,-z
-x,-y,-z
x,1/2+y,-z
-x,y,1/2+z
1/2+x,-y,z
1/2+x,1/2+y,1/2+z
1/2-x,-y,1/2+z
1/2+x,1/2-y,-z
-x,1/2+y,1/2-z
1/2-x,1/2-y,1/2-z
1/2+x,y,1/2-z
1/2-x,1/2+y,z
x,1/2-y,1/2+z
loop_
_atom_site_type_symbol
_atom_site_label
_atom_site_fract_x
_atom_site_fract_y
_atom_site_fract_z
Si Si1 0.337365 0.025106 0.839628
Si Si2 0.039967 0.109565 0.839681
Si Si3 0.665912 0.207003 0.044243
Si Si4 0.400237 0.823686 0.119815
O O1 0.333373 0.194380 0.853654
O O2 0.313917 0.000000 0.750000
O O3 0.442669 0.969800 0.853739
O O4 0.291080 0.918387 0.901484
O O5 0.900879 0.309796 0.906486
O O6 0.000000 0.250000 0.792392
O O7 0.100854 0.965908 0.827272
O O8 0.750000 0.284914 0.000000
O O9 0.610820 0.139904 0.971606
O O10 0.500000 0.750000 0.123792
#
# Coordination Sequence:
#
# PCOD9530753 Si02
#       4
#    16  16  16  16
#     4  10  22  41  67 100 136 178 236 308 371 429
#     4   9  20  36  60  93 130 169 227 296 360 424
#     4  11  23  39  62  94 135 185 232 287 363 448
#     4  10  20  37  63  93 126 174 236 297 360 431
#
# _framework density 27.569672000000001
#
# number of rings (size 3 to 8) (size 9 to 14) (size 15 to 20)
#    0.000    2.000    0.000    3.750    0.000   20.000 
#    0.000    1.250    0.000    7.500    0.000    0.000 
#    0.000    0.000    0.000    0.000    0.000    0.000 
#
# Total GULP energy -178459.338175 kJ/mol
# GULP energy per Si atom -5576.854318 kJ/mol
# Density = 2.750692 g / cm^3
# Si number density = 27.569672 Si / 1000 Ang^3
#
#
#
# Elastic Constant Matrix: (Units=GPa)
#
#
# Indices 1 2 3 4 5 6 
#
# 1 78.5762 15.3324 33.7700 0.0000 0.0000 0.0000
# 2 15.3324 280.9745 86.9852 0.0000 0.0000 0.0000
# 3 33.7700 86.9852 200.1819 0.0000 0.0000 0.0000
# 4 0.0000 0.0000 0.0000 18.4695 0.0000 0.0000
# 5 0.0000 0.0000 0.0000 0.0000 -728.0934 0.0000
# 6 0.0000 0.0000 0.0000 0.0000 0.0000 50.2509
#
#
#
# Elastic Compliance Matrix: (Units=1/GPa)
#
#
# Indices 1 2 3 4 5 6 
#
# 1 0.013722 -0.000037 -0.002299 0.000000 0.000000 0.000000
# 2 -0.000037 0.004112 -0.001781 0.000000 0.000000 0.000000
# 3 -0.002299 -0.001781 0.006157 0.000000 0.000000 0.000000
# 4 0.000000 0.000000 0.000000 0.054143 0.000000 0.000000
# 5 0.000000 0.000000 0.000000 0.000000 -0.001373 0.000000
# 6 0.000000 0.000000 0.000000 0.000000 0.000000 0.019900
#
#
# Mechanical properties :
#
#
# Convention : Reuss Voigt Hill
#
# Bulk Modulus (GPa) = 63.45971 92.43421 77.94696
# Shear Modulus (GPa) = 45.39405 -103.63161 -29.11878
#
# Velocity S-wave (km/s) = 4.06214 -6.13764 -3.25343
# Velocity P-wave (km/s) = 6.71336 4.07764 3.77108
#
# Compressibility (1/GPa) = 0.01575803
#
# Stress axis : x y z
#
# Youngs Moduli (GPa) = 72.87757 243.17078 162.41704
#
# Poissons Ratio (x) = 0.00903 0.37334
# Poissons Ratio (y) = 0.00271 0.28921
# Poissons Ratio (z) = 0.16752 0.43301
#
# Static dielectric constant tensor:
#      x y z
#    x 2.294590 0.000000 0.000000 
#    y 0.000000 2.174260 0.000000 
#    z 0.000000 0.000000 2.187870 
# 
# From -- ./inp_files/29271.got.cif
#   From: 2010.05.17/outbox.cif.g08.bks.cpg/sg73_15_cif.got.tgz:29271.got - 2010.06.03 17:35:07.
