data_PCOD9530631
_publ_section_title
;
Structure prediction by ZEFSAII (Michael W. Deem and Ramdas Pophale) SiO2 
 PCOD9530631
Probable space group: I B C A 
;
_chemical_formula_sum "Si O2"
_cell_formula_units_Z 96
_cell_length_a 15.589404
_cell_length_b 11.915097
_cell_length_c 19.634650
_cell_angle_alpha 90.000000
_cell_angle_beta 90.000000
_cell_angle_gamma 90.000000
_cell_volume 3647.121724
_symmetry_space_group_name_H-M "I B C A "
_symmetry_group_IT_number 73
_symmetry_cell_setting 'orthorhombic'
loop_
_space_group_symop_operation_xyz
x,y,z
-x,1/2-y,z
x,-y,1/2-z
1/2-x,y,-z
-x,-y,-z
x,1/2+y,-z
-x,y,1/2+z
1/2+x,-y,z
1/2+x,1/2+y,1/2+z
1/2-x,-y,1/2+z
1/2+x,1/2-y,-z
-x,1/2+y,1/2-z
1/2-x,1/2-y,1/2-z
1/2+x,y,1/2-z
1/2-x,1/2+y,z
x,1/2-y,1/2+z
loop_
_atom_site_type_symbol
_atom_site_label
_atom_site_fract_x
_atom_site_fract_y
_atom_site_fract_z
Si Si1 0.667314 0.142514 0.916445
Si Si2 0.857052 0.305123 0.428856
Si Si3 0.107211 0.068431 0.942834
Si Si4 0.927017 0.963400 0.905587
Si Si5 0.595905 0.125536 0.262772
Si Si6 0.394212 0.629396 0.736016
O O1 0.756114 0.208209 0.917812
O O2 0.620741 0.147776 0.844531
O O3 0.687395 0.008182 0.923053
O O4 0.625240 0.170013 0.990350
O O5 0.900030 0.188952 0.410128
O O6 0.886897 0.415042 0.390011
O O7 0.025337 0.995610 0.920948
O O8 0.108451 0.082404 0.023621
O O9 0.910992 0.878836 0.845232
O O10 0.635933 0.244757 0.238530
O O11 0.494625 0.123697 0.242803
O O12 0.633613 0.000000 0.250000
O O13 0.361258 0.500000 0.750000
#
# Coordination Sequence:
#
# PCOD9530631 Si02
#       6
#    16  16  16  16  16  16
#     4  10  21  38  58  87 127 169 210 255 330 386
#     4  10  22  35  59  93 125 168 206 264 329 398
#     4  10  20  36  59  89 125 164 207 265 324 394
#     4  10  20  37  60  92 123 159 210 270 325 385
#     4  10  21  38  62  93 122 162 213 274 323 376
#     4  10  21  39  62  90 122 172 217 262 322 384
#
# _framework density 26.322125
#
# number of rings (size 3 to 8) (size 9 to 14) (size 15 to 20)
#    0.000    2.000    1.667    1.500    0.000    8.000 
#    6.000    0.833    0.000    3.000    0.000    0.000 
#    0.000    0.000    0.000    0.000    0.000    0.000 
#
# Total GULP energy -267840.785496 kJ/mol
# GULP energy per Si atom -5580.016364 kJ/mol
# Density = 2.626222 g / cm^3
# Si number density = 26.322125 Si / 1000 Ang^3
#
#
#
# Elastic Constant Matrix: (Units=GPa)
#
#
# Indices 1 2 3 4 5 6 
#
# 1 31.3423 10.7591 -1.8014 0.0000 0.0000 0.0000
# 2 10.7591 253.5894 35.0457 0.0000 0.0000 0.0000
# 3 -1.8014 35.0457 106.2055 0.0000 0.0000 0.0000
# 4 0.0000 0.0000 0.0000 5.7672 0.0000 0.0000
# 5 0.0000 0.0000 0.0000 0.0000 10.1160 0.0000
# 6 0.0000 0.0000 0.0000 0.0000 0.0000 14.6475
#
#
#
# Elastic Compliance Matrix: (Units=1/GPa)
#
#
# Indices 1 2 3 4 5 6 
#
# 1 0.032490 -0.001524 0.001054 0.000000 0.000000 0.000000
# 2 -0.001524 0.004203 -0.001413 0.000000 0.000000 0.000000
# 3 0.001054 -0.001413 0.009900 0.000000 0.000000 0.000000
# 4 0.000000 0.000000 0.000000 0.173393 0.000000 0.000000
# 5 0.000000 0.000000 0.000000 0.000000 0.098853 0.000000
# 6 0.000000 0.000000 0.000000 0.000000 0.000000 0.068271
#
#
# Mechanical properties :
#
#
# Convention : Reuss Voigt Hill
#
# Bulk Modulus (GPa) = 23.34992 53.23823 38.29407
# Shear Modulus (GPa) = 12.34107 29.24842 20.79474
#
# Velocity S-wave (km/s) = 2.16764 3.33704 2.81376
# Velocity P-wave (km/s) = 3.89294 5.92599 5.01360
#
# Compressibility (1/GPa) = 0.04282670
#
# Stress axis : x y z
#
# Youngs Moduli (GPa) = 30.77917 237.90827 101.01216
#
# Poissons Ratio (x) = 0.36260 -0.10647
# Poissons Ratio (y) = 0.04691 0.14272
# Poissons Ratio (z) = -0.03244 0.33613
#
# Static dielectric constant tensor:
#      x y z
#    x 2.073000 0.000000 0.000000 
#    y 0.000000 2.139220 0.000000 
#    z 0.000000 0.000000 2.107660 
# 
# From -- ./inp_files/26911.got.cif
#   From: 2010.05.17/outbox.cif.g08.bks.cpg/sg73_14_cif.got.tgz:26911.got - 2010.06.03 17:35:07.
