data_PCOD9530991
_publ_section_title
;
Structure prediction by ZEFSAII (Michael W. Deem and Ramdas Pophale) SiO2 
 PCOD9530991
Probable space group: I B C A 
;
_chemical_formula_sum "Si O2"
_cell_formula_units_Z 112
_cell_length_a 13.544068
_cell_length_b 13.006307
_cell_length_c 29.884867
_cell_angle_alpha 90.000000
_cell_angle_beta 90.000000
_cell_angle_gamma 90.000000
_cell_volume 5264.467559
_symmetry_space_group_name_H-M "I B C A "
_symmetry_group_IT_number 73
_symmetry_cell_setting 'orthorhombic'
loop_
_space_group_symop_operation_xyz
x,y,z
-x,1/2-y,z
x,-y,1/2-z
1/2-x,y,-z
-x,-y,-z
x,1/2+y,-z
-x,y,1/2+z
1/2+x,-y,z
1/2+x,1/2+y,1/2+z
1/2-x,-y,1/2+z
1/2+x,1/2-y,-z
-x,1/2+y,1/2-z
1/2-x,1/2-y,1/2-z
1/2+x,y,1/2-z
1/2-x,1/2+y,z
x,1/2-y,1/2+z
loop_
_atom_site_type_symbol
_atom_site_label
_atom_site_fract_x
_atom_site_fract_y
_atom_site_fract_z
Si Si1 0.702951 0.012645 0.880725
Si Si2 0.549346 0.862762 0.775665
Si Si3 0.791747 0.303846 0.839237
Si Si4 0.523011 0.870289 0.452835
Si Si5 0.408355 0.097808 0.645977
Si Si6 0.091016 0.325128 0.175326
Si Si7 0.154823 0.014563 0.520708
O O1 0.807574 0.033889 0.856541
O O2 0.619777 0.079472 0.855937
O O3 0.692988 0.052516 0.931179
O O4 0.700691 0.889231 0.877870
O O5 0.500000 0.750000 0.775428
O O6 0.658209 0.859733 0.796945
O O7 0.476337 0.920729 0.810493
O O8 0.565760 0.878078 0.723073
O O9 0.867801 0.214096 0.851608
O O10 0.688022 0.250151 0.826753
O O11 0.500000 0.750000 0.452066
O O12 0.540899 0.910909 0.402320
O O13 0.612585 0.900175 0.486429
O O14 0.430600 0.933152 0.471371
O O15 0.000000 0.250000 0.162808
O O16 0.250000 0.961587 0.500000
#
# Coordination Sequence:
#
# PCOD9530991 Si02
#       7
#    16  16  16  16  16  16  16
#     4  11  23  41  65  93 134 172 220 274 332 397
#     4   9  18  37  62  87 124 164 215 269 317 386
#     4  10  21  38  64  90 123 174 216 269 327 388
#     4  11  23  42  70  95 127 178 225 266 337 405
#     4  10  20  40  66  94 124 174 224 267 329 398
#     4  10  23  41  61  93 132 171 211 268 331 388
#     4  11  24  44  63 100 137 165 220 291 326 388
#
# _framework density 21.274705000000001
#
# number of rings (size 3 to 8) (size 9 to 14) (size 15 to 20)
#    0.000    1.714    1.429    3.429    0.000    5.143 
#    5.143    2.857    0.000    0.000    0.000    0.000 
#    0.000    0.000    0.000    0.000    0.000    0.000 
#
# Total GULP energy -312237.059763 kJ/mol
# GULP energy per Si atom -5575.661781 kJ/mol
# Density = 2.122628 g / cm^3
# Si number density = 21.274705 Si / 1000 Ang^3
#
#
#
# Elastic Constant Matrix: (Units=GPa)
#
#
# Indices 1 2 3 4 5 6 
#
# 1 124.9691 28.3713 58.6055 0.0000 0.0000 0.0000
# 2 28.3713 54.7337 13.4401 0.0000 0.0000 0.0000
# 3 58.6055 13.4401 126.6449 0.0000 0.0000 0.0000
# 4 0.0000 0.0000 0.0000 -18.4968 0.0000 0.0000
# 5 0.0000 0.0000 0.0000 0.0000 31.1604 0.0000
# 6 0.0000 0.0000 0.0000 0.0000 0.0000 25.2137
#
#
#
# Elastic Compliance Matrix: (Units=1/GPa)
#
#
# Indices 1 2 3 4 5 6 
#
# 1 0.011281 -0.004688 -0.004723 0.000000 0.000000 0.000000
# 2 -0.004688 0.020707 -0.000028 0.000000 0.000000 0.000000
# 3 -0.004723 -0.000028 0.010085 0.000000 0.000000 0.000000
# 4 0.000000 0.000000 0.000000 -0.054063 0.000000 0.000000
# 5 0.000000 0.000000 0.000000 0.000000 0.032092 0.000000
# 6 0.000000 0.000000 0.000000 0.000000 0.000000 0.039661
#
#
# Mechanical properties :
#
#
# Convention : Reuss Voigt Hill
#
# Bulk Modulus (GPa) = 43.11277 56.35351 49.73314
# Shear Modulus (GPa) = 57.88903 21.30416 39.59660
#
# Velocity S-wave (km/s) = 5.22200 3.16790 4.31885
# Velocity P-wave (km/s) = 7.52781 6.31876 6.94963
#
# Compressibility (1/GPa) = 0.02319498
#
# Stress axis : x y z
#
# Youngs Moduli (GPa) = 88.64393 48.29252 99.16081
#
# Poissons Ratio (x) = 0.22639 0.46833
# Poissons Ratio (y) = 0.41555 0.00280
# Poissons Ratio (z) = 0.41866 0.00136
#
# Static dielectric constant tensor:
#      x y z
#    x 1.816550 0.000000 0.000000 
#    y 0.000000 1.813390 0.000000 
#    z 0.000000 0.000000 1.826140 
# 
# From -- ./inp_files/34022.got.cif
#   From: 2010.05.17/outbox.cif.g08.bks.cpg/sg73_18_cif.got.tgz:34022.got - 2010.06.03 17:35:07.
