data_PCOD9530528
_publ_section_title
;
Structure prediction by ZEFSAII (Michael W. Deem and Ramdas Pophale) SiO2 
 PCOD9530528
Probable space group: I B C A 
;
_chemical_formula_sum "Si O2"
_cell_formula_units_Z 80
_cell_length_a 8.755313
_cell_length_b 17.304910
_cell_length_c 21.151395
_cell_angle_alpha 90.000000
_cell_angle_beta 90.000000
_cell_angle_gamma 90.000000
_cell_volume 3204.645815
_symmetry_space_group_name_H-M "I B C A "
_symmetry_group_IT_number 73
_symmetry_cell_setting 'orthorhombic'
loop_
_space_group_symop_operation_xyz
x,y,z
-x,1/2-y,z
x,-y,1/2-z
1/2-x,y,-z
-x,-y,-z
x,1/2+y,-z
-x,y,1/2+z
1/2+x,-y,z
1/2+x,1/2+y,1/2+z
1/2-x,-y,1/2+z
1/2+x,1/2-y,-z
-x,1/2+y,1/2-z
1/2-x,1/2-y,1/2-z
1/2+x,y,1/2-z
1/2-x,1/2+y,z
x,1/2-y,1/2+z
loop_
_atom_site_type_symbol
_atom_site_label
_atom_site_fract_x
_atom_site_fract_y
_atom_site_fract_z
Si Si1 0.750000 0.954689 0.500000
Si Si2 0.000000 0.250000 0.408562
Si Si3 0.949209 0.125300 0.806848
Si Si4 0.500000 0.250000 0.788909
Si Si5 0.250000 0.708574 0.000000
Si Si6 0.121866 0.096149 0.690182
Si Si7 0.549175 0.418519 0.929864
O O1 0.618625 0.911912 0.538668
O O2 0.851572 0.010089 0.544755
O O3 0.988167 0.172594 0.366257
O O4 0.144293 0.243604 0.453618
O O5 0.903133 0.193638 0.756565
O O6 0.797551 0.077853 0.820316
O O7 0.077077 0.084897 0.763785
O O8 0.396407 0.310876 0.824896
O O9 0.353994 0.654709 0.046093
O O10 0.994443 0.065194 0.642817
#
# Coordination Sequence:
#
# PCOD9530528 Si02
#       7
#     8   8  16   8   8  16  16
#     4   9  22  49  64  94 112 161 220 301 326 364
#     4  11  26  39  54  96 153 164 213 244 296 395
#     4   9  21  35  57  88 135 177 196 247 293 378
#     4   7  18  29  52  86 125 154 197 220 290 363
#     4  11  28  37  58 100 130 183 204 257 304 390
#     4  10  20  34  63  92 121 174 201 245 310 385
#     4  10  23  42  71  87 119 162 227 267 337 374
#
# _framework density 24.963757000000001
#
# number of rings (size 3 to 8) (size 9 to 14) (size 15 to 20)
#    1.200    1.200    0.000    0.600   11.200    0.000 
#    0.000    0.000    0.000    3.600    0.000    0.000 
#    0.000    0.000    0.000    0.000    0.000    0.000 
#
# Total GULP energy -223303.995877 kJ/mol
# GULP energy per Si atom -5582.599897 kJ/mol
# Density = 2.490694 g / cm^3
# Si number density = 24.963757 Si / 1000 Ang^3
#
#
#
# Elastic Constant Matrix: (Units=GPa)
#
#
# Indices 1 2 3 4 5 6 
#
# 1 132.1334 30.0836 54.1537 0.0000 0.0000 0.0000
# 2 30.0836 45.7487 21.4035 0.0000 0.0000 0.0000
# 3 54.1537 21.4035 131.8442 0.0000 0.0000 0.0000
# 4 0.0000 0.0000 0.0000 18.0396 0.0000 0.0000
# 5 0.0000 0.0000 0.0000 0.0000 27.2084 0.0000
# 6 0.0000 0.0000 0.0000 0.0000 0.0000 24.6121
#
#
#
# Elastic Compliance Matrix: (Units=1/GPa)
#
#
# Indices 1 2 3 4 5 6 
#
# 1 0.010084 -0.005079 -0.003317 0.000000 0.000000 0.000000
# 2 -0.005079 0.026213 -0.002169 0.000000 0.000000 0.000000
# 3 -0.003317 -0.002169 0.009299 0.000000 0.000000 0.000000
# 4 0.000000 0.000000 0.000000 0.055434 0.000000 0.000000
# 5 0.000000 0.000000 0.000000 0.000000 0.036753 0.000000
# 6 0.000000 0.000000 0.000000 0.000000 0.000000 0.040630
#
#
# Mechanical properties :
#
#
# Convention : Reuss Voigt Hill
#
# Bulk Modulus (GPa) = 40.87410 57.88978 49.38194
# Shear Modulus (GPa) = 24.07308 27.57773 25.82541
#
# Velocity S-wave (km/s) = 3.10872 3.32732 3.21988
# Velocity P-wave (km/s) = 5.41244 6.16452 5.80068
#
# Compressibility (1/GPa) = 0.02446537
#
# Stress axis : x y z
#
# Youngs Moduli (GPa) = 99.16596 38.14849 107.53313
#
# Poissons Ratio (x) = 0.19376 0.35673
# Poissons Ratio (y) = 0.50367 0.23327
# Poissons Ratio (z) = 0.32897 0.08275
#
# Static dielectric constant tensor:
#      x y z
#    x 2.037690 0.000000 0.000000 
#    y 0.000000 2.052810 0.000000 
#    z 0.000000 0.000000 2.016040 
# 
# From -- ./inp_files/28318.got.cif
#   From: 2010.05.17/outbox.cif.g08.bks.cpg/sg73_15_cif.got.tgz:28318.got - 2010.06.03 17:35:07.
