data_PCOD9530199
_publ_section_title
;
Structure prediction by ZEFSAII (Michael W. Deem and Ramdas Pophale) SiO2 
 PCOD9530199
Probable space group: I B C A 
;
_chemical_formula_sum "Si O2"
_cell_formula_units_Z 112
_cell_length_a 13.973641
_cell_length_b 27.333507
_cell_length_c 13.973673
_cell_angle_alpha 90.000000
_cell_angle_beta 90.000000
_cell_angle_gamma 90.000000
_cell_volume 5337.225036
_symmetry_space_group_name_H-M "I B C A "
_symmetry_group_IT_number 73
_symmetry_cell_setting 'orthorhombic'
loop_
_space_group_symop_operation_xyz
x,y,z
-x,1/2-y,z
x,-y,1/2-z
1/2-x,y,-z
-x,-y,-z
x,1/2+y,-z
-x,y,1/2+z
1/2+x,-y,z
1/2+x,1/2+y,1/2+z
1/2-x,-y,1/2+z
1/2+x,1/2-y,-z
-x,1/2+y,1/2-z
1/2-x,1/2-y,1/2-z
1/2+x,y,1/2-z
1/2-x,1/2+y,z
x,1/2-y,1/2+z
loop_
_atom_site_type_symbol
_atom_site_label
_atom_site_fract_x
_atom_site_fract_y
_atom_site_fract_z
Si Si1 0.217111 0.788378 0.670738
Si Si2 0.978948 0.652547 0.707218
Si Si3 0.351322 0.025276 0.951451
Si Si4 0.524490 0.560429 0.923837
Si Si5 0.334590 0.866743 0.576289
Si Si6 0.592488 0.281356 0.561536
Si Si7 0.042063 0.860899 0.932703
O O1 0.250000 0.750000 0.750000
O O2 0.124324 0.821802 0.692993
O O3 0.302860 0.825744 0.650071
O O4 0.179122 0.754188 0.585042
O O5 0.977780 0.642412 0.820721
O O6 0.998960 0.601099 0.654476
O O7 0.056278 0.689261 0.657238
O O8 0.344100 0.076484 0.893126
O O9 0.400333 0.981095 0.894576
O O10 0.250000 0.013876 0.000000
O O11 0.426341 0.036857 0.037316
O O12 0.568648 0.588033 0.017756
O O13 0.250000 0.867192 0.500000
O O14 0.434147 0.852508 0.526952
O O15 0.500000 0.250000 0.531970
O O16 0.609570 0.319778 0.476749
#
# Coordination Sequence:
#
# PCOD9530199 Si02
#       7
#    16  16  16  16  16  16  16
#     4  11  22  35  55  87 124 159 202 257 308 365
#     4  10  20  37  57  81 122 161 195 247 310 376
#     4   9  17  35  63  86 112 155 206 258 316 375
#     4   9  19  37  60  86 116 155 203 257 312 372
#     4  10  19  35  59  84 112 151 201 252 305 367
#     4   9  19  35  54  81 116 157 201 242 291 358
#     4  10  20  36  58  81 112 159 200 239 305 373
#
# _framework density 20.984687999999998
#
# number of rings (size 3 to 8) (size 9 to 14) (size 15 to 20)
#    0.000    2.286    0.000    5.143    0.000    4.000 
#    0.000   10.714    0.000    6.857    0.000    0.000 
#    0.000    0.000    0.000    0.000    0.000    0.000 
#
# Total GULP energy -312216.953668 kJ/mol
# GULP energy per Si atom -5575.302744 kJ/mol
# Density = 2.093693 g / cm^3
# Si number density = 20.984688 Si / 1000 Ang^3
#
#
#
# Elastic Constant Matrix: (Units=GPa)
#
#
# Indices 1 2 3 4 5 6 
#
# 1 68.4901 53.1835 3.7787 0.0000 0.0000 0.0000
# 2 53.1835 157.4241 48.2182 0.0001 0.0000 0.0000
# 3 3.7787 48.2182 85.1099 0.0000 0.0000 0.0000
# 4 0.0000 0.0001 0.0000 24.8762 0.0000 0.0000
# 5 0.0000 0.0000 0.0000 0.0000 17.4756 0.0000
# 6 0.0000 0.0000 0.0000 0.0000 0.0000 42.3691
#
#
#
# Elastic Compliance Matrix: (Units=1/GPa)
#
#
# Indices 1 2 3 4 5 6 
#
# 1 0.020705 -0.008123 0.003683 0.000000 0.000000 0.000000
# 2 -0.008123 0.010873 -0.005799 0.000000 0.000000 0.000000
# 3 0.003683 -0.005799 0.014871 0.000000 0.000000 0.000000
# 4 0.000000 0.000000 0.000000 0.040199 0.000000 0.000000
# 5 0.000000 0.000000 0.000000 0.000000 0.057223 0.000000
# 6 0.000000 0.000000 0.000000 0.000000 0.000000 0.023602
#
#
# Mechanical properties :
#
#
# Convention : Reuss Voigt Hill
#
# Bulk Modulus (GPa) = 38.50536 57.93166 48.21851
# Shear Modulus (GPa) = 25.43124 30.66709 28.04916
#
# Velocity S-wave (km/s) = 3.48500 3.82698 3.65999
# Velocity P-wave (km/s) = 5.88071 6.86981 6.39441
#
# Compressibility (1/GPa) = 0.02597041
#
# Stress axis : x y z
#
# Youngs Moduli (GPa) = 48.29752 91.97327 67.24279
#
# Poissons Ratio (x) = 0.74709 -0.24763
# Poissons Ratio (y) = 0.39231 0.38995
# Poissons Ratio (z) = -0.17786 0.53337
#
# Static dielectric constant tensor:
#      x y z
#    x 1.778640 0.000000 0.000000 
#    y 0.000000 1.833400 0.000000 
#    z 0.000000 0.000000 1.825980 
# 
# From -- ./inp_files/17373.got.cif
#   From: 2010.05.17/outbox.cif.g08.bks.cpg/sg73_9_cif.got.tgz:17373.got - 2010.06.03 17:35:07.
