data_PCOD9530920
_publ_section_title
;
Structure prediction by ZEFSAII (Michael W. Deem and Ramdas Pophale) SiO2 
 PCOD9530920
Probable space group: I B C A 
;
_chemical_formula_sum "Si O2"
_cell_formula_units_Z 96
_cell_length_a 21.830233
_cell_length_b 14.338175
_cell_length_c 13.924845
_cell_angle_alpha 90.000000
_cell_angle_beta 90.000000
_cell_angle_gamma 90.000000
_cell_volume 4358.555871
_symmetry_space_group_name_H-M "I B C A "
_symmetry_group_IT_number 73
_symmetry_cell_setting 'orthorhombic'
loop_
_space_group_symop_operation_xyz
x,y,z
-x,1/2-y,z
x,-y,1/2-z
1/2-x,y,-z
-x,-y,-z
x,1/2+y,-z
-x,y,1/2+z
1/2+x,-y,z
1/2+x,1/2+y,1/2+z
1/2-x,-y,1/2+z
1/2+x,1/2-y,-z
-x,1/2+y,1/2-z
1/2-x,1/2-y,1/2-z
1/2+x,y,1/2-z
1/2-x,1/2+y,z
x,1/2-y,1/2+z
loop_
_atom_site_type_symbol
_atom_site_label
_atom_site_fract_x
_atom_site_fract_y
_atom_site_fract_z
Si Si1 0.320088 0.987888 0.982939
Si Si2 0.100626 0.127964 0.605603
Si Si3 0.978455 0.854332 0.206422
Si Si4 0.479776 0.108539 0.995401
Si Si5 0.617036 0.592626 0.804504
Si Si6 0.862512 0.172005 0.615221
O O1 0.351424 0.917890 0.906138
O O2 0.323350 0.093674 0.940851
O O3 0.250000 0.964805 0.000000
O O4 0.362529 0.964448 0.074815
O O5 0.067627 0.115565 0.709506
O O6 0.143240 0.218975 0.594178
O O7 0.043747 0.153300 0.535477
O O8 0.953609 0.858525 0.097644
O O9 0.000000 0.750000 0.230075
O O10 0.043383 0.907188 0.193496
O O11 0.430225 0.132969 0.914374
O O12 0.500000 0.000000 0.000000
O O13 0.636768 0.500000 0.750000
O O14 0.640401 0.669909 0.731122
#
# Coordination Sequence:
#
# PCOD9530920 Si02
#       6
#    16  16  16  16  16  16
#     4  11  26  47  68  94 136 195 252 290 336 414
#     4  12  23  40  68 106 141 177 235 290 357 431
#     4  12  22  36  64 106 145 171 218 285 369 440
#     4  12  22  38  63 103 143 179 216 284 367 433
#     4  10  20  39  66  92 132 182 220 281 360 415
#     4  11  22  42  66  98 134 180 230 288 365 422
#
# _framework density 22.025645000000001
#
# number of rings (size 3 to 8) (size 9 to 14) (size 15 to 20)
#    0.000    0.667    6.667    2.500    0.000    0.667 
#    0.000    5.833    0.000    0.000    0.000    0.000 
#    0.000    0.000    0.000    0.000    0.000    0.000 
#
# Total GULP energy -267801.570140 kJ/mol
# GULP energy per Si atom -5579.199378 kJ/mol
# Density = 2.197551 g / cm^3
# Si number density = 22.025645 Si / 1000 Ang^3
#
#
#
# Elastic Constant Matrix: (Units=GPa)
#
#
# Indices 1 2 3 4 5 6 
#
# 1 95.1209 5.1034 41.5529 0.0000 0.0000 0.0000
# 2 5.1034 54.8476 19.2772 0.0000 0.0000 0.0000
# 3 41.5529 19.2772 134.3144 0.0000 0.0000 0.0000
# 4 0.0000 0.0000 0.0000 30.2274 0.0000 0.0000
# 5 0.0000 0.0000 0.0000 0.0000 12.4363 0.0000
# 6 0.0000 0.0000 0.0000 0.0000 0.0000 14.4447
#
#
#
# Elastic Compliance Matrix: (Units=1/GPa)
#
#
# Indices 1 2 3 4 5 6 
#
# 1 0.012158 0.000201 -0.003790 0.000000 0.000000 0.000000
# 2 0.000201 0.019204 -0.002818 0.000000 0.000000 0.000000
# 3 -0.003790 -0.002818 0.009022 0.000000 0.000000 0.000000
# 4 0.000000 0.000000 0.000000 0.033083 0.000000 0.000000
# 5 0.000000 0.000000 0.000000 0.000000 0.080410 0.000000
# 6 0.000000 0.000000 0.000000 0.000000 0.000000 0.069230
#
#
# Mechanical properties :
#
#
# Convention : Reuss Voigt Hill
#
# Bulk Modulus (GPa) = 36.27258 46.23890 41.25574
# Shear Modulus (GPa) = 20.39890 25.97830 23.18860
#
# Velocity S-wave (km/s) = 3.04656 3.43805 3.24821
# Velocity P-wave (km/s) = 5.37396 6.06622 5.73055
#
# Compressibility (1/GPa) = 0.02756903
#
# Stress axis : x y z
#
# Youngs Moduli (GPa) = 82.25146 52.07190 110.83683
#
# Poissons Ratio (x) = -0.01046 0.42008
# Poissons Ratio (y) = -0.01652 0.31238
# Poissons Ratio (z) = 0.31174 0.14676
#
# Static dielectric constant tensor:
#      x y z
#    x 1.793490 0.000000 0.000000 
#    y 0.000000 1.905970 0.000000 
#    z 0.000000 0.000000 1.963130 
# 
# From -- ./inp_files/18645.got.cif
#   From: 2010.05.17/outbox.cif.g08.bks.cpg/sg73_10_cif.got.tgz:18645.got - 2010.06.03 17:35:07.
