data_PCOD9530389
_publ_section_title
;
Structure prediction by ZEFSAII (Michael W. Deem and Ramdas Pophale) SiO2 
 PCOD9530389
Probable space group: I B C A 
;
_chemical_formula_sum "Si O2"
_cell_formula_units_Z 104
_cell_length_a 11.766430
_cell_length_b 17.787726
_cell_length_c 24.440315
_cell_angle_alpha 90.000000
_cell_angle_beta 90.000000
_cell_angle_gamma 90.000000
_cell_volume 5115.309851
_symmetry_space_group_name_H-M "I B C A "
_symmetry_group_IT_number 73
_symmetry_cell_setting 'orthorhombic'
loop_
_space_group_symop_operation_xyz
x,y,z
-x,1/2-y,z
x,-y,1/2-z
1/2-x,y,-z
-x,-y,-z
x,1/2+y,-z
-x,y,1/2+z
1/2+x,-y,z
1/2+x,1/2+y,1/2+z
1/2-x,-y,1/2+z
1/2+x,1/2-y,-z
-x,1/2+y,1/2-z
1/2-x,1/2-y,1/2-z
1/2+x,y,1/2-z
1/2-x,1/2+y,z
x,1/2-y,1/2+z
loop_
_atom_site_type_symbol
_atom_site_label
_atom_site_fract_x
_atom_site_fract_y
_atom_site_fract_z
Si Si1 0.948407 0.331504 0.766090
Si Si2 0.570750 0.083071 0.134449
Si Si3 0.262419 0.810226 0.662388
Si Si4 0.922217 0.677811 0.568406
Si Si5 0.695014 0.656152 0.109917
Si Si6 0.015490 0.911916 0.340320
Si Si7 0.250000 0.747430 0.500000
O O1 0.819190 0.321092 0.785903
O O2 0.000000 0.250000 0.750796
O O3 0.021930 0.362767 0.817569
O O4 0.958281 0.391512 0.717729
O O5 0.503211 0.107427 0.079203
O O6 0.702865 0.100076 0.125093
O O7 0.543583 0.998643 0.151167
O O8 0.180288 0.828409 0.611279
O O9 0.301504 0.724874 0.653177
O O10 0.369183 0.864336 0.660416
O O11 0.858902 0.699966 0.512670
O O12 0.000000 0.750000 0.582548
O O13 0.573483 0.617007 0.114342
O O14 0.722544 0.694769 0.051759
#
# Coordination Sequence:
#
# PCOD9530389 Si02
#       7
#    16  16  16  16  16  16   8
#     4  11  22  43  70  96 134 189 242 275 335 421
#     4  11  23  45  64  98 144 187 215 281 368 417
#     4  10  21  42  67  99 131 182 238 284 343 414
#     4  10  19  42  72  97 127 176 226 279 341 417
#     4  11  23  46  69  97 137 178 234 300 341 427
#     4  12  28  38  66 106 143 180 228 299 354 416
#     4  10  22  40  78 102 114 174 248 292 334 414
#
# _framework density 20.331123999999999
#
# number of rings (size 3 to 8) (size 9 to 14) (size 15 to 20)
#    0.000    1.231    4.615    2.769    6.462    3.692 
#    0.000    1.538    0.000    0.000    0.000    0.000 
#    0.000    0.000    0.000    0.000    0.000    0.000 
#
# Total GULP energy -290557.095845 kJ/mol
# GULP energy per Si atom -5587.636459 kJ/mol
# Density = 2.028485 g / cm^3
# Si number density = 20.331124 Si / 1000 Ang^3
#
#
#
# Elastic Constant Matrix: (Units=GPa)
#
#
# Indices 1 2 3 4 5 6 
#
# 1 111.5328 67.0597 33.2419 0.0000 0.0000 0.0000
# 2 67.0597 150.6878 40.1610 0.0000 0.0000 0.0000
# 3 33.2419 40.1610 78.5553 0.0000 0.0000 0.0000
# 4 0.0000 0.0000 0.0000 14.5846 0.0000 0.0000
# 5 0.0000 0.0000 0.0000 0.0000 24.1899 0.0000
# 6 0.0000 0.0000 0.0000 0.0000 0.0000 22.0562
#
#
#
# Elastic Compliance Matrix: (Units=1/GPa)
#
#
# Indices 1 2 3 4 5 6 
#
# 1 0.012786 -0.004918 -0.002896 0.000000 0.000000 0.000000
# 2 -0.004918 0.009575 -0.002814 0.000000 0.000000 0.000000
# 3 -0.002896 -0.002814 0.015394 0.000000 0.000000 0.000000
# 4 0.000000 0.000000 0.000000 0.068565 0.000000 0.000000
# 5 0.000000 0.000000 0.000000 0.000000 0.041340 0.000000
# 6 0.000000 0.000000 0.000000 0.000000 0.000000 0.045339
#
#
# Mechanical properties :
#
#
# Convention : Reuss Voigt Hill
#
# Bulk Modulus (GPa) = 60.61185 69.07789 64.84487
# Shear Modulus (GPa) = 22.75255 25.52036 24.13646
#
# Velocity S-wave (km/s) = 3.34892 3.54677 3.44927
# Velocity P-wave (km/s) = 6.69558 7.12902 6.91570
#
# Compressibility (1/GPa) = 0.01649843
#
# Stress axis : x y z
#
# Youngs Moduli (GPa) = 78.20824 104.43910 64.96003
#
# Poissons Ratio (x) = 0.51367 0.18814
# Poissons Ratio (y) = 0.38465 0.18279
# Poissons Ratio (z) = 0.22651 0.29388
#
# Static dielectric constant tensor:
#      x y z
#    x 1.730000 0.000000 0.000000 
#    y 0.000000 1.683580 0.000000 
#    z 0.000000 0.000000 1.787640 
# 
# From -- ./inp_files/31794.got.cif
#   From: 2010.05.17/outbox.cif.g08.bks.cpg/sg73_16_cif.got.tgz:31794.got - 2010.06.03 17:35:07.
