data_PCOD9530750
_publ_section_title
;
Structure prediction by ZEFSAII (Michael W. Deem and Ramdas Pophale) SiO2 
 PCOD9530750
Probable space group: I B C A 
;
_chemical_formula_sum "Si O2"
_cell_formula_units_Z 72
_cell_length_a 21.457161
_cell_length_b 20.317468
_cell_length_c 8.011834
_cell_angle_alpha 90.000000
_cell_angle_beta 90.000000
_cell_angle_gamma 90.000000
_cell_volume 3492.800550
_symmetry_space_group_name_H-M "I B C A "
_symmetry_group_IT_number 73
_symmetry_cell_setting 'orthorhombic'
loop_
_space_group_symop_operation_xyz
x,y,z
-x,1/2-y,z
x,-y,1/2-z
1/2-x,y,-z
-x,-y,-z
x,1/2+y,-z
-x,y,1/2+z
1/2+x,-y,z
1/2+x,1/2+y,1/2+z
1/2-x,-y,1/2+z
1/2+x,1/2-y,-z
-x,1/2+y,1/2-z
1/2-x,1/2-y,1/2-z
1/2+x,y,1/2-z
1/2-x,1/2+y,z
x,1/2-y,1/2+z
loop_
_atom_site_type_symbol
_atom_site_label
_atom_site_fract_x
_atom_site_fract_y
_atom_site_fract_z
Si Si1 0.781623 0.683554 0.176212
Si Si2 0.372404 0.986968 0.446046
Si Si3 0.750000 0.596805 0.500000
Si Si4 0.013880 0.569815 0.849592
Si Si5 0.904326 0.621853 0.073637
O O1 0.750000 0.750000 0.250000
O O2 0.766804 0.635913 0.330703
O O3 0.854650 0.678809 0.118308
O O4 0.750000 0.666682 0.000000
O O5 0.311371 0.944776 0.468689
O O6 0.434641 0.950064 0.511203
O O7 0.376817 0.000000 0.250000
O O8 0.365755 0.053649 0.555145
O O9 0.006430 0.500000 0.750000
O O10 0.049209 0.618593 0.727698
O O11 0.952715 0.607075 0.919664
#
# Coordination Sequence:
#
# PCOD9530750 Si02
#       5
#    16  16   8  16  16
#     4  12  27  49  73  95 135 191 247 296 348 414
#     4  11  22  36  65 105 149 180 220 283 361 435
#     4  12  26  44  68 104 142 184 242 288 354 434
#     4  10  20  37  63 101 148 182 216 280 361 442
#     4  11  22  40  67 103 141 182 224 283 358 432
#
# _framework density 20.613831000000001
#
# number of rings (size 3 to 8) (size 9 to 14) (size 15 to 20)
#    0.000    0.889    3.333    6.000    4.667    0.000 
#    0.000    0.000    0.000   10.667    0.000    0.000 
#    0.000    0.000    0.000    0.000    0.000    0.000 
#
# Total GULP energy -200414.908795 kJ/mol
# GULP energy per Si atom -5567.080800 kJ/mol
# Density = 2.056691 g / cm^3
# Si number density = 20.613831 Si / 1000 Ang^3
#
#
#
# Elastic Constant Matrix: (Units=GPa)
#
#
# Indices 1 2 3 4 5 6 
#
# 1 183.7179 60.5223 74.2875 0.0000 0.0000 0.0000
# 2 60.5223 40.2903 25.5247 0.0000 0.0000 0.0000
# 3 74.2875 25.5247 148.2665 0.0000 0.0000 0.0000
# 4 0.0000 0.0000 0.0000 -17.1662 0.0000 0.0000
# 5 0.0000 0.0000 0.0000 0.0000 31.9890 0.0000
# 6 0.0000 0.0000 0.0000 0.0000 0.0000 25.5133
#
#
#
# Elastic Compliance Matrix: (Units=1/GPa)
#
#
# Indices 1 2 3 4 5 6 
#
# 1 0.012045 -0.016017 -0.003278 0.000000 0.000000 0.000000
# 2 -0.016017 0.049157 -0.000437 0.000000 0.000000 0.000000
# 3 -0.003278 -0.000437 0.008462 0.000000 0.000000 0.000000
# 4 0.000000 0.000000 0.000000 -0.058254 0.000000 0.000000
# 5 0.000000 0.000000 0.000000 0.000000 0.031261 0.000000
# 6 0.000000 0.000000 0.000000 0.000000 0.000000 0.039195
#
#
# Mechanical properties :
#
#
# Convention : Reuss Voigt Hill
#
# Bulk Modulus (GPa) = 33.11258 76.99374 55.05316
# Shear Modulus (GPa) = 38.05284 22.19659 30.12472
#
# Velocity S-wave (km/s) = 4.30116 3.28499 3.82695
# Velocity P-wave (km/s) = 6.38473 7.19860 6.80384
#
# Compressibility (1/GPa) = 0.03020001
#
# Stress axis : x y z
#
# Youngs Moduli (GPa) = 83.02260 20.34305 118.17344
#
# Poissons Ratio (x) = 0.32583 0.38733
# Poissons Ratio (y) = 1.32976 0.05169
# Poissons Ratio (z) = 0.27212 0.00890
#
# Static dielectric constant tensor:
#      x y z
#    x 1.794850 0.000000 0.000000 
#    y 0.000000 1.771050 0.000000 
#    z 0.000000 0.000000 1.785930 
# 
# From -- ./inp_files/6020.got.cif
#   From: 2010.05.17/outbox.cif.g08.bks.cpg/sg73_4_cif.got.tgz:6020.got - 2010.06.03 17:35:07.
