data_PCOD9530897
_publ_section_title
;
Structure prediction by ZEFSAII (Michael W. Deem and Ramdas Pophale) SiO2 
 PCOD9530897
Probable space group: I B C A 
;
_chemical_formula_sum "Si O2"
_cell_formula_units_Z 88
_cell_length_a 9.705273
_cell_length_b 22.365274
_cell_length_c 18.015877
_cell_angle_alpha 90.000000
_cell_angle_beta 90.000000
_cell_angle_gamma 90.000000
_cell_volume 3910.545897
_symmetry_space_group_name_H-M "I B C A "
_symmetry_group_IT_number 73
_symmetry_cell_setting 'orthorhombic'
loop_
_space_group_symop_operation_xyz
x,y,z
-x,1/2-y,z
x,-y,1/2-z
1/2-x,y,-z
-x,-y,-z
x,1/2+y,-z
-x,y,1/2+z
1/2+x,-y,z
1/2+x,1/2+y,1/2+z
1/2-x,-y,1/2+z
1/2+x,1/2-y,-z
-x,1/2+y,1/2-z
1/2-x,1/2-y,1/2-z
1/2+x,y,1/2-z
1/2-x,1/2+y,z
x,1/2-y,1/2+z
loop_
_atom_site_type_symbol
_atom_site_label
_atom_site_fract_x
_atom_site_fract_y
_atom_site_fract_z
Si Si1 0.750000 0.366205 0.500000
Si Si2 0.012972 0.636905 0.286351
Si Si3 0.870837 0.229986 0.096355
Si Si4 0.661424 0.514846 0.166065
Si Si5 0.565172 0.037396 0.068232
Si Si6 0.265471 0.189385 0.199727
O O1 0.721479 0.321983 0.433680
O O2 0.881316 0.404389 0.475160
O O3 0.048082 0.693552 0.338989
O O4 0.075846 0.577414 0.323279
O O5 0.090667 0.657248 0.211855
O O6 0.849680 0.640701 0.276637
O O7 0.774933 0.284854 0.120044
O O8 0.000000 0.250000 0.046004
O O9 0.705594 0.500000 0.250000
O O10 0.552947 0.467709 0.131001
O O11 0.792921 0.518389 0.111205
O O12 0.500000 0.000000 0.000000
O O13 0.250000 0.250000 0.250000
#
# Coordination Sequence:
#
# PCOD9530897 Si02
#       6
#     8  16  16  16  16  16
#     4  12  22  44  76  90 142 194 244 298 368 430
#     4  10  20  39  62  92 135 179 215 290 366 426
#     4   9  19  39  64  92 125 170 228 285 346 425
#     4  12  27  42  70 109 147 183 251 314 365 443
#     4  12  24  48  71 102 143 202 246 300 377 454
#     4   9  19  35  63  93 128 173 222 274 365 431
#
# _framework density 22.503252
#
# number of rings (size 3 to 8) (size 9 to 14) (size 15 to 20)
#    0.000    1.455    3.636    2.182    5.091    0.000 
#    0.000    5.455    0.000    0.000    0.000    0.000 
#    0.000    0.000    0.000    0.000    0.000    0.000 
#
# Total GULP energy -245039.537750 kJ/mol
# GULP energy per Si atom -5569.080403 kJ/mol
# Density = 2.245203 g / cm^3
# Si number density = 22.503252 Si / 1000 Ang^3
#
#
#
# Elastic Constant Matrix: (Units=GPa)
#
#
# Indices 1 2 3 4 5 6 
#
# 1 81.0257 33.7933 25.2880 0.0000 0.0000 0.0000
# 2 33.7933 97.2669 20.4882 0.0000 0.0000 0.0000
# 3 25.2880 20.4882 57.0129 0.0000 0.0000 0.0000
# 4 0.0000 0.0000 0.0000 25.2917 0.0000 0.0000
# 5 0.0000 0.0000 0.0000 0.0000 33.3001 0.0000
# 6 0.0000 0.0000 0.0000 0.0000 0.0000 40.5417
#
#
#
# Elastic Compliance Matrix: (Units=1/GPa)
#
#
# Indices 1 2 3 4 5 6 
#
# 1 0.015868 -0.004361 -0.005471 0.000000 0.000000 0.000000
# 2 -0.004361 0.012321 -0.002494 0.000000 0.000000 0.000000
# 3 -0.005471 -0.002494 0.020863 0.000000 0.000000 0.000000
# 4 0.000000 0.000000 0.000000 0.039539 0.000000 0.000000
# 5 0.000000 0.000000 0.000000 0.000000 0.030030 0.000000
# 6 0.000000 0.000000 0.000000 0.000000 0.000000 0.024666
#
#
# Mechanical properties :
#
#
# Convention : Reuss Voigt Hill
#
# Bulk Modulus (GPa) = 40.98167 43.82716 42.40442
# Shear Modulus (GPa) = 28.39762 30.20908 29.30335
#
# Velocity S-wave (km/s) = 3.55622 3.66790 3.61249
# Velocity P-wave (km/s) = 5.92565 6.12014 6.02368
#
# Compressibility (1/GPa) = 0.02440115
#
# Stress axis : x y z
#
# Youngs Moduli (GPa) = 63.02003 81.16069 47.93229
#
# Poissons Ratio (x) = 0.35390 0.26225
# Poissons Ratio (y) = 0.27480 0.11953
# Poissons Ratio (z) = 0.34480 0.20239
#
# Static dielectric constant tensor:
#      x y z
#    x 2.155710 0.000000 0.000000 
#    y 0.000000 1.780740 0.000000 
#    z 0.000000 0.000000 1.457490 
# 
# From -- ./inp_files/24781.got.cif
#   From: 2010.05.17/outbox.cif.g08.bks.cpg/sg73_13_cif.got.tgz:24781.got - 2010.06.03 17:35:07.
