data_PCOD9530892
_publ_section_title
;
Structure prediction by ZEFSAII (Michael W. Deem and Ramdas Pophale) SiO2 
 PCOD9530892
Probable space group: I B C A 
;
_chemical_formula_sum "Si O2"
_cell_formula_units_Z 64
_cell_length_a 9.446134
_cell_length_b 17.547649
_cell_length_c 14.476058
_cell_angle_alpha 90.000000
_cell_angle_beta 90.000000
_cell_angle_gamma 90.000000
_cell_volume 2399.514371
_symmetry_space_group_name_H-M "I B C A "
_symmetry_group_IT_number 73
_symmetry_cell_setting 'orthorhombic'
loop_
_space_group_symop_operation_xyz
x,y,z
-x,1/2-y,z
x,-y,1/2-z
1/2-x,y,-z
-x,-y,-z
x,1/2+y,-z
-x,y,1/2+z
1/2+x,-y,z
1/2+x,1/2+y,1/2+z
1/2-x,-y,1/2+z
1/2+x,1/2-y,-z
-x,1/2+y,1/2-z
1/2-x,1/2-y,1/2-z
1/2+x,y,1/2-z
1/2-x,1/2+y,z
x,1/2-y,1/2+z
loop_
_atom_site_type_symbol
_atom_site_label
_atom_site_fract_x
_atom_site_fract_y
_atom_site_fract_z
Si Si1 0.293981 0.778064 0.645876
Si Si2 0.757051 0.500000 0.750000
Si Si3 0.984600 0.842134 0.094944
Si Si4 0.250000 0.852534 0.000000
Si Si5 0.986223 0.599902 0.302374
O O1 0.250000 0.750000 0.750000
O O2 0.975863 0.872538 0.695906
O O3 0.282220 0.703163 0.585317
O O4 0.440655 0.823518 0.646147
O O5 0.644956 0.542620 0.684630
O O6 0.863983 0.443772 0.694487
O O7 0.000000 0.750000 0.084523
O O8 0.815130 0.839964 0.101422
O O9 0.094845 0.885265 0.027361
#
# Coordination Sequence:
#
# PCOD9530892 Si02
#       5
#    16   8  16   8  16
#     4  11  21  41  67 102 133 174 215 282 351 407
#     4  10  24  36  64  98 120 190 234 274 320 382
#     4  10  20  39  62 101 131 170 212 274 352 397
#     4  10  22  38  58 108 142 160 208 270 364 406
#     4  11  20  41  66  93 134 173 235 275 327 409
#
# _framework density 26.672065
#
# number of rings (size 3 to 8) (size 9 to 14) (size 15 to 20)
#    0.000    1.500    7.500    0.000    0.000    0.000 
#   27.000    0.000    0.000    9.000    0.000    0.000 
#    0.000    0.000    0.000    0.000    0.000    0.000 
#
# Total GULP energy -178381.150517 kJ/mol
# GULP energy per Si atom -5574.410954 kJ/mol
# Density = 2.661136 g / cm^3
# Si number density = 26.672065 Si / 1000 Ang^3
#
#
#
# Elastic Constant Matrix: (Units=GPa)
#
#
# Indices 1 2 3 4 5 6 
#
# 1 196.2454 38.2055 28.4831 0.0000 0.0000 0.0000
# 2 38.2055 83.0073 -18.4085 0.0000 0.0000 0.0000
# 3 28.4831 -18.4085 80.0759 0.0000 0.0000 0.0000
# 4 0.0000 0.0000 0.0000 16.7093 0.0000 0.0000
# 5 0.0000 0.0000 0.0000 0.0000 36.3689 0.0000
# 6 0.0000 0.0000 0.0000 0.0000 0.0000 58.4570
#
#
#
# Elastic Compliance Matrix: (Units=1/GPa)
#
#
# Indices 1 2 3 4 5 6 
#
# 1 0.006223 -0.003535 -0.003026 0.000000 0.000000 0.000000
# 2 -0.003535 0.014703 0.004638 0.000000 0.000000 0.000000
# 3 -0.003026 0.004638 0.014631 0.000000 0.000000 0.000000
# 4 0.000000 0.000000 0.000000 0.059847 0.000000 0.000000
# 5 0.000000 0.000000 0.000000 0.000000 0.027496 0.000000
# 6 0.000000 0.000000 0.000000 0.000000 0.000000 0.017107
#
#
# Mechanical properties :
#
#
# Convention : Reuss Voigt Hill
#
# Bulk Modulus (GPa) = 31.53748 50.65434 41.09591
# Shear Modulus (GPa) = 32.37835 43.04361 37.71098
#
# Velocity S-wave (km/s) = 3.48795 4.02158 3.76423
# Velocity P-wave (km/s) = 5.29819 6.37157 5.85951
#
# Compressibility (1/GPa) = 0.03170830
#
# Stress axis : x y z
#
# Youngs Moduli (GPa) = 160.68884 68.01386 68.34917
#
# Poissons Ratio (x) = 0.24046 0.20685
# Poissons Ratio (y) = 0.56811 -0.31698
# Poissons Ratio (z) = 0.48630 -0.31542
#
# Static dielectric constant tensor:
#      x y z
#    x 2.550210 0.000000 0.000000 
#    y 0.000000 2.163140 0.000000 
#    z 0.000000 0.000000 2.115410 
# 
# From -- ./inp_files/28225.got.cif
#   From: 2010.05.17/outbox.cif.g08.bks.cpg/sg73_15_cif.got.tgz:28225.got - 2010.06.03 17:35:07.
