data_PCOD9530744
_publ_section_title
;
Structure prediction by ZEFSAII (Michael W. Deem and Ramdas Pophale) SiO2 
 PCOD9530744
Probable space group: I B C A 
;
_chemical_formula_sum "Si O2"
_cell_formula_units_Z 88
_cell_length_a 13.204350
_cell_length_b 23.497716
_cell_length_c 13.409947
_cell_angle_alpha 90.000000
_cell_angle_beta 90.000000
_cell_angle_gamma 90.000000
_cell_volume 4160.731964
_symmetry_space_group_name_H-M "I B C A "
_symmetry_group_IT_number 73
_symmetry_cell_setting 'orthorhombic'
loop_
_space_group_symop_operation_xyz
x,y,z
-x,1/2-y,z
x,-y,1/2-z
1/2-x,y,-z
-x,-y,-z
x,1/2+y,-z
-x,y,1/2+z
1/2+x,-y,z
1/2+x,1/2+y,1/2+z
1/2-x,-y,1/2+z
1/2+x,1/2-y,-z
-x,1/2+y,1/2-z
1/2-x,1/2-y,1/2-z
1/2+x,y,1/2-z
1/2-x,1/2+y,z
x,1/2-y,1/2+z
loop_
_atom_site_type_symbol
_atom_site_label
_atom_site_fract_x
_atom_site_fract_y
_atom_site_fract_z
Si Si1 0.894012 0.227933 0.681804
Si Si2 0.733167 0.168314 0.821312
Si Si3 0.936512 0.475763 0.592651
Si Si4 0.250000 0.409193 0.000000
Si Si5 0.832747 0.412248 0.855753
Si Si6 0.605651 0.390394 0.922254
O O1 0.821410 0.202228 0.765751
O O2 0.840345 0.283326 0.635304
O O3 0.905936 0.174977 0.608449
O O4 0.000000 0.250000 0.722338
O O5 0.780119 0.129678 0.906823
O O6 0.672557 0.129523 0.739770
O O7 0.839698 0.446560 0.543269
O O8 0.891832 0.528024 0.657326
O O9 0.000000 0.500000 0.500000
O O10 0.014928 0.426991 0.627422
O O11 0.712721 0.416776 0.883585
O O12 0.885497 0.390060 0.957410
#
# Coordination Sequence:
#
# PCOD9530744 Si02
#       6
#    16  16  16   8  16  16
#     4  10  21  40  62  90 121 156 204 254 309 371
#     4  10  24  40  59  86 122 165 208 254 306 367
#     4  10  20  37  62  89 118 155 199 252 312 371
#     4  12  24  40  56  86 124 160 212 260 302 366
#     4   9  19  39  61  87 122 160 197 244 311 377
#     4   9  18  36  64  91 120 153 194 249 309 369
#
# _framework density 21.150124999999999
#
# number of rings (size 3 to 8) (size 9 to 14) (size 15 to 20)
#    0.000    2.182    0.000    3.273    0.000    8.000 
#    0.000    5.455    0.000    0.000    0.000    0.000 
#    0.000    0.000    0.000    0.000    0.000    0.000 
#
# Total GULP energy -245309.707962 kJ/mol
# GULP energy per Si atom -5575.220635 kJ/mol
# Density = 2.110199 g / cm^3
# Si number density = 21.150125 Si / 1000 Ang^3
#
#
#
# Elastic Constant Matrix: (Units=GPa)
#
#
# Indices 1 2 3 4 5 6 
#
# 1 103.9509 63.8370 12.3960 0.0000 0.0000 0.0000
# 2 63.8370 142.8872 44.0750 -0.0001 0.0000 -0.0002
# 3 12.3960 44.0750 50.8505 -0.0001 0.0000 -0.0003
# 4 0.0000 -0.0001 -0.0001 21.0325 0.0000 -0.0002
# 5 0.0000 0.0000 0.0000 0.0000 12.1832 0.0000
# 6 0.0000 -0.0002 -0.0003 -0.0002 0.0000 10.2745
#
#
#
# Elastic Compliance Matrix: (Units=1/GPa)
#
#
# Indices 1 2 3 4 5 6 
#
# 1 0.013513 -0.006853 0.002646 0.000000 0.000000 0.000000
# 2 -0.006853 0.013028 -0.009622 0.000000 0.000000 0.000000
# 3 0.002646 -0.009622 0.027360 0.000000 0.000000 0.000001
# 4 0.000000 0.000000 0.000000 0.047545 0.000000 0.000001
# 5 0.000000 0.000000 0.000000 0.000000 0.082081 0.000000
# 6 0.000000 0.000000 0.000001 0.000001 0.000000 0.097328
#
#
# Mechanical properties :
#
#
# Convention : Reuss Voigt Hill
#
# Bulk Modulus (GPa) = 38.10460 59.81162 48.95811
# Shear Modulus (GPa) = 15.75987 20.52340 18.14163
#
# Velocity S-wave (km/s) = 2.73269 3.11845 2.93192
# Velocity P-wave (km/s) = 5.29265 6.42707 5.88725
#
# Compressibility (1/GPa) = 0.02624355
#
# Stress axis : x y z
#
# Youngs Moduli (GPa) = 74.00219 76.75594 36.54952
#
# Poissons Ratio (x) = 0.52604 -0.09671
# Poissons Ratio (y) = 0.50717 0.35167
# Poissons Ratio (z) = -0.19582 0.73852
#
# Static dielectric constant tensor:
#      x y z
#    x 1.767280 0.000000 0.000000 
#    y 0.000000 1.808090 0.000000 
#    z 0.000000 0.000000 1.770690 
# 
# From -- ./inp_files/16140.got.cif
#   From: 2010.05.17/outbox.cif.g08.bks.cpg/sg73_9_cif.got.tgz:16140.got - 2010.06.03 17:35:07.
