data_PCOD9530213
_publ_section_title
;
Structure prediction by ZEFSAII (Michael W. Deem and Ramdas Pophale) SiO2 
 PCOD9530213
Probable space group: I B C A 
;
_chemical_formula_sum "Si O2"
_cell_formula_units_Z 64
_cell_length_a 8.248195
_cell_length_b 16.167880
_cell_length_c 22.644660
_cell_angle_alpha 90.000000
_cell_angle_beta 90.000000
_cell_angle_gamma 90.000000
_cell_volume 3019.797361
_symmetry_space_group_name_H-M "I B C A "
_symmetry_group_IT_number 73
_symmetry_cell_setting 'orthorhombic'
loop_
_space_group_symop_operation_xyz
x,y,z
-x,1/2-y,z
x,-y,1/2-z
1/2-x,y,-z
-x,-y,-z
x,1/2+y,-z
-x,y,1/2+z
1/2+x,-y,z
1/2+x,1/2+y,1/2+z
1/2-x,-y,1/2+z
1/2+x,1/2-y,-z
-x,1/2+y,1/2-z
1/2-x,1/2-y,1/2-z
1/2+x,y,1/2-z
1/2-x,1/2+y,z
x,1/2-y,1/2+z
loop_
_atom_site_type_symbol
_atom_site_label
_atom_site_fract_x
_atom_site_fract_y
_atom_site_fract_z
Si Si1 0.682525 0.627700 0.562041
Si Si2 0.500000 0.750000 0.150355
Si Si3 0.803760 0.102011 0.182831
Si Si4 0.446542 0.000000 0.750000
Si Si5 0.840636 0.536625 0.938423
O O1 0.750000 0.663456 0.500000
O O2 0.619481 0.695044 0.608653
O O3 0.817999 0.559716 0.579679
O O4 0.522244 0.570394 0.553708
O O5 0.386511 0.809585 0.188574
O O6 0.761669 0.089176 0.114460
O O7 0.943624 0.035105 0.197778
O O8 0.661219 0.075131 0.225825
O O9 0.750000 0.548800 0.000000
#
# Coordination Sequence:
#
# PCOD9530213 Si02
#       5
#    16   8  16   8  16
#     4  10  20  35  56  86 120 156 191 233 287 348
#     4  10  22  34  54  84 122 144 182 246 296 340
#     4  10  21  39  59  85 110 148 192 238 288 336
#     4  10  22  40  64  78 106 154 204 236 270 346
#     4  10  19  35  62  87 114 149 195 236 278 347
#
# _framework density 21.193473999999998
#
# number of rings (size 3 to 8) (size 9 to 14) (size 15 to 20)
#    0.000    2.000    0.000    6.000    0.000    5.000 
#    0.000    0.000    0.000   24.000    0.000    0.000 
#    0.000    0.000    0.000    0.000    0.000    0.000 
#
# Total GULP energy -178497.706428 kJ/mol
# GULP energy per Si atom -5578.053326 kJ/mol
# Density = 2.114524 g / cm^3
# Si number density = 21.193474 Si / 1000 Ang^3
#
#
#
# Elastic Constant Matrix: (Units=GPa)
#
#
# Indices 1 2 3 4 5 6 
#
# 1 71.4295 27.7159 26.9835 0.0000 0.0000 0.0000
# 2 27.7159 87.0956 13.4851 0.0000 0.0000 0.0000
# 3 26.9835 13.4851 65.3536 0.0000 0.0000 0.0000
# 4 0.0000 0.0000 0.0000 28.3614 0.0000 0.0000
# 5 0.0000 0.0000 0.0000 0.0000 18.8208 0.0000
# 6 0.0000 0.0000 0.0000 0.0000 0.0000 28.1208
#
#
#
# Elastic Compliance Matrix: (Units=1/GPa)
#
#
# Indices 1 2 3 4 5 6 
#
# 1 0.018359 -0.004823 -0.006585 0.000000 0.000000 0.000000
# 2 -0.004823 0.013127 -0.000718 0.000000 0.000000 0.000000
# 3 -0.006585 -0.000718 0.018168 0.000000 0.000000 0.000000
# 4 0.000000 0.000000 0.000000 0.035259 0.000000 0.000000
# 5 0.000000 0.000000 0.000000 0.000000 0.053133 0.000000
# 6 0.000000 0.000000 0.000000 0.000000 0.000000 0.035561
#
#
# Mechanical properties :
#
#
# Convention : Reuss Voigt Hill
#
# Bulk Modulus (GPa) = 39.36360 40.02753 39.69557
# Shear Modulus (GPa) = 24.23360 25.44022 24.83691
#
# Velocity S-wave (km/s) = 3.38516 3.46841 3.42704
# Velocity P-wave (km/s) = 5.82175 5.91334 5.86772
#
# Compressibility (1/GPa) = 0.02540418
#
# Stress axis : x y z
#
# Youngs Moduli (GPa) = 54.47037 76.17660 55.04112
#
# Poissons Ratio (x) = 0.36737 0.36244
# Poissons Ratio (y) = 0.26269 0.03949
# Poissons Ratio (z) = 0.35868 0.05466
#
# Static dielectric constant tensor:
#      x y z
#    x 1.797540 0.000000 0.000000 
#    y 0.000000 1.784730 0.000000 
#    z 0.000000 0.000000 1.811120 
# 
# From -- ./inp_files/6861.got.cif
#   From: 2010.05.17/outbox.cif.g08.bks.cpg/sg73_4_cif.got.tgz:6861.got - 2010.06.03 17:35:07.
