data_PCOD9530427
_publ_section_title
;
Structure prediction by ZEFSAII (Michael W. Deem and Ramdas Pophale) SiO2 
 PCOD9530427
Probable space group: I B C A 
;
_chemical_formula_sum "Si O2"
_cell_formula_units_Z 120
_cell_length_a 9.596914
_cell_length_b 26.472091
_cell_length_c 22.467940
_cell_angle_alpha 90.000000
_cell_angle_beta 90.000000
_cell_angle_gamma 90.000000
_cell_volume 5707.988711
_symmetry_space_group_name_H-M "I B C A "
_symmetry_group_IT_number 73
_symmetry_cell_setting 'orthorhombic'
loop_
_space_group_symop_operation_xyz
x,y,z
-x,1/2-y,z
x,-y,1/2-z
1/2-x,y,-z
-x,-y,-z
x,1/2+y,-z
-x,y,1/2+z
1/2+x,-y,z
1/2+x,1/2+y,1/2+z
1/2-x,-y,1/2+z
1/2+x,1/2-y,-z
-x,1/2+y,1/2-z
1/2-x,1/2-y,1/2-z
1/2+x,y,1/2-z
1/2-x,1/2+y,z
x,1/2-y,1/2+z
loop_
_atom_site_type_symbol
_atom_site_label
_atom_site_fract_x
_atom_site_fract_y
_atom_site_fract_z
Si Si1 0.224635 0.133435 0.937126
Si Si2 0.916409 0.177865 0.937221
Si Si3 0.175375 0.196562 0.262192
Si Si4 0.000000 0.250000 0.344898
Si Si5 0.289461 0.604817 0.188172
Si Si6 0.075849 0.056822 0.727130
Si Si7 0.007842 0.194498 0.068791
Si Si8 0.194730 0.873624 0.863325
O O1 0.266655 0.099649 0.881486
O O2 0.333615 0.179519 0.942008
O O3 0.071278 0.155634 0.926266
O O4 0.250000 0.106155 0.000000
O O5 0.893261 0.226792 0.894374
O O6 0.810353 0.134931 0.914513
O O7 0.921979 0.193697 0.006212
O O8 0.250000 0.250000 0.250000
O O9 0.026961 0.206085 0.295297
O O10 0.173018 0.163100 0.203287
O O11 0.258875 0.162392 0.309101
O O12 0.147377 0.589737 0.221124
O O13 0.416639 0.572507 0.214750
O O14 0.160846 0.072794 0.667124
O O15 0.086160 0.000000 0.750000
O O16 0.000000 0.250000 0.095707
O O17 0.942011 0.150977 0.108699
#
# Coordination Sequence:
#
# PCOD9530427 Si02
#       8
#    16  16  16   8  16  16  16  16
#     4  10  23  39  62  89 131 179 221 272 335 402
#     4  10  21  36  56  87 132 186 229 264 320 402
#     4  10  23  33  54  85 129 176 212 261 332 399
#     4  10  20  32  48  80 126 176 222 254 310 374
#     4  11  24  43  67  98 132 168 224 278 351 420
#     4  11  25  46  71  98 124 167 224 297 363 409
#     4  11  22  35  58  93 136 189 238 275 318 400
#     4  10  23  38  59  90 127 171 226 287 335 401
#
# _framework density 21.023167000000001
#
# number of rings (size 3 to 8) (size 9 to 14) (size 15 to 20)
#    0.000    1.600    2.000    1.600   14.933    1.067 
#    0.000    0.000    0.000    2.400    0.000    0.000 
#    0.000    0.000    0.000    0.000    0.000    0.000 
#
# Total GULP energy -334280.272389 kJ/mol
# GULP energy per Si atom -5571.337873 kJ/mol
# Density = 2.097532 g / cm^3
# Si number density = 21.023167 Si / 1000 Ang^3
#
#
#
# Elastic Constant Matrix: (Units=GPa)
#
#
# Indices 1 2 3 4 5 6 
#
# 1 95.5717 20.6744 21.5478 0.0000 0.0000 0.0000
# 2 20.6744 100.8323 29.9565 0.0000 0.0000 0.0000
# 3 21.5478 29.9565 108.4241 0.0000 0.0000 0.0000
# 4 0.0000 0.0000 0.0000 23.3753 0.0000 0.0000
# 5 0.0000 0.0000 0.0000 0.0000 34.6185 0.0000
# 6 0.0000 0.0000 0.0000 0.0000 0.0000 20.2362
#
#
#
# Elastic Compliance Matrix: (Units=1/GPa)
#
#
# Indices 1 2 3 4 5 6 
#
# 1 0.011243 -0.001788 -0.001740 0.000000 0.000000 0.000000
# 2 -0.001788 0.011089 -0.002708 0.000000 0.000000 0.000000
# 3 -0.001740 -0.002708 0.010317 0.000000 0.000000 0.000000
# 4 0.000000 0.000000 0.000000 0.042780 0.000000 0.000000
# 5 0.000000 0.000000 0.000000 0.000000 0.028886 0.000000
# 6 0.000000 0.000000 0.000000 0.000000 0.000000 0.049417
#
#
# Mechanical properties :
#
#
# Convention : Reuss Voigt Hill
#
# Bulk Modulus (GPa) = 49.56632 49.90949 49.73790
# Shear Modulus (GPa) = 28.91346 31.15595 30.03471
#
# Velocity S-wave (km/s) = 3.71255 3.85383 3.78385
# Velocity P-wave (km/s) = 6.48117 6.60261 6.54217
#
# Compressibility (1/GPa) = 0.02017499
#
# Stress axis : x y z
#
# Youngs Moduli (GPa) = 88.94801 90.18176 96.92566
#
# Poissons Ratio (x) = 0.16126 0.16867
# Poissons Ratio (y) = 0.15905 0.26251
# Poissons Ratio (z) = 0.15479 0.24424
#
# Static dielectric constant tensor:
#      x y z
#    x 1.836420 0.000000 0.000000 
#    y 0.000000 1.737270 0.000000 
#    z 0.000000 0.000000 1.820590 
# 
# From -- ./inp_files/28597.got.cif
#   From: 2010.05.17/outbox.cif.g08.bks.cpg/sg73_15_cif.got.tgz:28597.got - 2010.06.03 17:35:07.
