data_PCOD9530287
_publ_section_title
;
Structure prediction by ZEFSAII (Michael W. Deem and Ramdas Pophale) SiO2 
 PCOD9530287
Probable space group: I B C A 
;
_chemical_formula_sum "Si O2"
_cell_formula_units_Z 112
_cell_length_a 14.643626
_cell_length_b 24.660985
_cell_length_c 15.829244
_cell_angle_alpha 90.000000
_cell_angle_beta 90.000000
_cell_angle_gamma 90.000000
_cell_volume 5716.355386
_symmetry_space_group_name_H-M "I B C A "
_symmetry_group_IT_number 73
_symmetry_cell_setting 'orthorhombic'
loop_
_space_group_symop_operation_xyz
x,y,z
-x,1/2-y,z
x,-y,1/2-z
1/2-x,y,-z
-x,-y,-z
x,1/2+y,-z
-x,y,1/2+z
1/2+x,-y,z
1/2+x,1/2+y,1/2+z
1/2-x,-y,1/2+z
1/2+x,1/2-y,-z
-x,1/2+y,1/2-z
1/2-x,1/2-y,1/2-z
1/2+x,y,1/2-z
1/2-x,1/2+y,z
x,1/2-y,1/2+z
loop_
_atom_site_type_symbol
_atom_site_label
_atom_site_fract_x
_atom_site_fract_y
_atom_site_fract_z
Si Si1 0.236059 0.512373 0.594913
Si Si2 0.470146 0.464720 0.080736
Si Si3 0.802957 0.212079 0.909753
Si Si4 0.168028 0.876763 0.859951
Si Si5 0.135931 0.068999 0.818035
Si Si6 0.663877 0.670744 0.439823
Si Si7 0.966342 0.344701 0.494872
O O1 0.250000 0.489656 0.500000
O O2 0.283389 0.571819 0.594441
O O3 0.283270 0.473053 0.662003
O O4 0.129076 0.517649 0.611059
O O5 0.545240 0.463273 0.154105
O O6 0.465078 0.404281 0.044796
O O7 0.500000 0.500000 0.000000
O O8 0.744400 0.170796 0.852621
O O9 0.814348 0.274861 0.886524
O O10 0.902721 0.190016 0.932630
O O11 0.750000 0.211570 0.000000
O O12 0.135061 0.903741 0.773296
O O13 0.085405 0.852035 0.915601
O O14 0.149090 0.119148 0.881477
O O15 0.750000 0.661641 0.500000
O O16 0.569834 0.677178 0.493570
#
# Coordination Sequence:
#
# PCOD9530287 Si02
#       7
#    16  16  16  16  16  16  16
#     4  12  20  40  66  86 120 172 221 257 312 385
#     4  11  21  37  64  89 118 169 213 259 312 379
#     4   9  18  37  67  88 113 161 216 253 302 383
#     4  11  21  40  61  95 125 162 209 269 325 383
#     4  11  25  38  58  95 134 157 208 273 326 391
#     4  10  22  39  59  91 123 166 209 262 318 382
#     4  10  19  37  65  87 114 162 218 256 301 387
#
# _framework density 19.592904000000001
#
# number of rings (size 3 to 8) (size 9 to 14) (size 15 to 20)
#    0.000    1.429    4.286    1.714    2.000    0.571 
#    2.571    2.857    0.000   10.286    0.000    0.000 
#    0.000    0.000    0.000    0.000    0.000    0.000 
#
# Total GULP energy -312563.247625 kJ/mol
# GULP energy per Si atom -5581.486565 kJ/mol
# Density = 1.954831 g / cm^3
# Si number density = 19.592904 Si / 1000 Ang^3
#
#
#
# Elastic Constant Matrix: (Units=GPa)
#
#
# Indices 1 2 3 4 5 6 
#
# 1 156.2456 28.5930 50.1589 0.0001 0.0000 0.0000
# 2 28.5930 93.4446 18.2688 0.0002 0.0000 0.0000
# 3 50.1589 18.2688 85.2103 0.0002 0.0000 0.0000
# 4 0.0001 0.0002 0.0002 24.3343 0.0000 0.0000
# 5 0.0000 0.0000 0.0000 0.0000 15.7060 0.0000
# 6 0.0000 0.0000 0.0000 0.0000 0.0000 29.2475
#
#
#
# Elastic Compliance Matrix: (Units=1/GPa)
#
#
# Indices 1 2 3 4 5 6 
#
# 1 0.008119 -0.001618 -0.004432 0.000000 0.000000 0.000000
# 2 -0.001618 0.011492 -0.001512 0.000000 0.000000 0.000000
# 3 -0.004432 -0.001512 0.014669 0.000000 0.000000 0.000000
# 4 0.000000 0.000000 0.000000 0.041094 0.000000 0.000000
# 5 0.000000 0.000000 0.000000 0.000000 0.063670 0.000000
# 6 0.000000 0.000000 0.000000 0.000000 0.000000 0.034191
#
#
# Mechanical properties :
#
#
# Convention : Reuss Voigt Hill
#
# Bulk Modulus (GPa) = 52.20166 58.77134 55.48650
# Shear Modulus (GPa) = 25.67469 29.71622 27.69546
#
# Velocity S-wave (km/s) = 3.62388 3.89869 3.76379
# Velocity P-wave (km/s) = 6.64914 7.09420 6.87527
#
# Compressibility (1/GPa) = 0.01915648
#
# Stress axis : x y z
#
# Youngs Moduli (GPa) = 123.16509 87.01650 68.17141
#
# Poissons Ratio (x) = 0.14078 0.30217
# Poissons Ratio (y) = 0.19926 0.10304
# Poissons Ratio (z) = 0.54593 0.13153
#
# Static dielectric constant tensor:
#      x y z
#    x 1.717920 0.000000 0.000000 
#    y 0.000000 1.759040 0.000000 
#    z 0.000000 0.000000 1.667250 
# 
# From -- ./inp_files/17388.got.cif
#   From: 2010.05.17/outbox.cif.g08.bks.cpg/sg73_9_cif.got.tgz:17388.got - 2010.06.03 17:35:07.
