data_PCOD9530283
_publ_section_title
;
Structure prediction by ZEFSAII (Michael W. Deem and Ramdas Pophale) SiO2 
 PCOD9530283
Probable space group: I B C A 
;
_chemical_formula_sum "Si O2"
_cell_formula_units_Z 112
_cell_length_a 17.721052
_cell_length_b 17.879319
_cell_length_c 18.786330
_cell_angle_alpha 90.000000
_cell_angle_beta 90.000000
_cell_angle_gamma 90.000000
_cell_volume 5952.267217
_symmetry_space_group_name_H-M "I B C A "
_symmetry_group_IT_number 73
_symmetry_cell_setting 'orthorhombic'
loop_
_space_group_symop_operation_xyz
x,y,z
-x,1/2-y,z
x,-y,1/2-z
1/2-x,y,-z
-x,-y,-z
x,1/2+y,-z
-x,y,1/2+z
1/2+x,-y,z
1/2+x,1/2+y,1/2+z
1/2-x,-y,1/2+z
1/2+x,1/2-y,-z
-x,1/2+y,1/2-z
1/2-x,1/2-y,1/2-z
1/2+x,y,1/2-z
1/2-x,1/2+y,z
x,1/2-y,1/2+z
loop_
_atom_site_type_symbol
_atom_site_label
_atom_site_fract_x
_atom_site_fract_y
_atom_site_fract_z
Si Si1 0.000000 0.750000 0.506751
Si Si2 0.249045 0.883321 0.610437
Si Si3 0.603106 0.785033 0.107573
Si Si4 0.580925 0.234618 0.734352
Si Si5 0.154008 0.240135 0.407140
Si Si6 0.835479 0.085945 0.244498
Si Si7 0.300408 0.860378 0.087432
Si Si8 0.250000 0.985941 0.000000
O O1 0.038074 0.806344 0.448398
O O2 0.073011 0.729316 0.554793
O O3 0.327332 0.840361 0.607400
O O4 0.187023 0.824178 0.578809
O O5 0.222749 0.900587 0.690704
O O6 0.261040 0.958089 0.565481
O O7 0.580662 0.774776 0.189536
O O8 0.637018 0.704236 0.084588
O O9 0.500000 0.250000 0.701581
O O10 0.642108 0.263732 0.678187
O O11 0.598652 0.147088 0.744565
O O12 0.220377 0.182018 0.424680
O O13 0.801763 0.105559 0.167166
O O14 0.860300 0.000000 0.250000
O O15 0.311150 0.927896 0.032039
#
# Coordination Sequence:
#
# PCOD9530283 Si02
#       8
#     8  16  16  16  16  16  16   8
#     4  12  20  32  56  82 120 148 180 226 292 340
#     4  10  21  37  59  85 112 144 195 240 287 330
#     4  10  21  37  59  85 110 148 193 242 278 339
#     4  10  19  37  63  85 112 147 192 239 283 337
#     4  10  21  37  59  85 110 148 193 242 278 339
#     4  10  19  37  63  88 112 147 194 244 288 335
#     4  10  21  37  59  85 112 144 195 240 287 330
#     4  12  20  32  56  82 120 148 172 234 292 340
#
# _framework density 18.816358999999999
#
# number of rings (size 3 to 8) (size 9 to 14) (size 15 to 20)
#    0.000    1.714    2.857    2.571    0.000    5.714 
#    0.000    0.000    3.143   13.714    0.000    0.000 
#    0.000    0.000    0.000    0.000    0.000    0.000 
#
# Total GULP energy -311843.302147 kJ/mol
# GULP energy per Si atom -5568.630395 kJ/mol
# Density = 1.877353 g / cm^3
# Si number density = 18.816359 Si / 1000 Ang^3
#
#
#
# Elastic Constant Matrix: (Units=GPa)
#
#
# Indices 1 2 3 4 5 6 
#
# 1 85.9816 20.9953 27.1309 0.0000 0.0000 0.0000
# 2 20.9953 89.1350 35.0412 0.0000 0.0000 0.0000
# 3 27.1309 35.0412 110.9889 0.0000 0.0000 0.0000
# 4 0.0000 0.0000 0.0000 32.3286 0.0000 0.0000
# 5 0.0000 0.0000 0.0000 0.0000 24.5472 0.0000
# 6 0.0000 0.0000 0.0000 0.0000 0.0000 7.4297
#
#
#
# Elastic Compliance Matrix: (Units=1/GPa)
#
#
# Indices 1 2 3 4 5 6 
#
# 1 0.012925 -0.002058 -0.002510 0.000000 0.000000 0.000000
# 2 -0.002058 0.013136 -0.003644 0.000000 0.000000 0.000000
# 3 -0.002510 -0.003644 0.010774 0.000000 0.000000 0.000000
# 4 0.000000 0.000000 0.000000 0.030932 0.000000 0.000000
# 5 0.000000 0.000000 0.000000 0.000000 0.040738 0.000000
# 6 0.000000 0.000000 0.000000 0.000000 0.000000 0.134595
#
#
# Mechanical properties :
#
#
# Convention : Reuss Voigt Hill
#
# Bulk Modulus (GPa) = 48.99222 50.27116 49.63169
# Shear Modulus (GPa) = 18.77388 26.39030 22.58209
#
# Velocity S-wave (km/s) = 3.16213 3.74908 3.46805
# Velocity P-wave (km/s) = 6.27899 6.74652 6.51695
#
# Compressibility (1/GPa) = 0.02041140
#
# Stress axis : x y z
#
# Youngs Moduli (GPa) = 77.37060 76.12477 92.81593
#
# Poissons Ratio (x) = 0.15664 0.23295
# Poissons Ratio (y) = 0.15921 0.33826
# Poissons Ratio (z) = 0.19418 0.27743
#
# Static dielectric constant tensor:
#      x y z
#    x 1.600030 0.000000 0.000000 
#    y 0.000000 1.635160 0.000000 
#    z 0.000000 0.000000 1.730210 
# 
# From -- ./inp_files/26642.got.cif
#   From: 2010.05.17/outbox.cif.g08.bks.cpg/sg73_14_cif.got.tgz:26642.got - 2010.06.03 17:35:07.
