data_PCOD9530531
_publ_section_title
;
Structure prediction by ZEFSAII (Michael W. Deem and Ramdas Pophale) SiO2 
 PCOD9530531
Probable space group: I B C A 
;
_chemical_formula_sum "Si O2"
_cell_formula_units_Z 120
_cell_length_a 29.644086
_cell_length_b 23.542653
_cell_length_c 8.914049
_cell_angle_alpha 90.000000
_cell_angle_beta 90.000000
_cell_angle_gamma 90.000000
_cell_volume 6221.118632
_symmetry_space_group_name_H-M "I B C A "
_symmetry_group_IT_number 73
_symmetry_cell_setting 'orthorhombic'
loop_
_space_group_symop_operation_xyz
x,y,z
-x,1/2-y,z
x,-y,1/2-z
1/2-x,y,-z
-x,-y,-z
x,1/2+y,-z
-x,y,1/2+z
1/2+x,-y,z
1/2+x,1/2+y,1/2+z
1/2-x,-y,1/2+z
1/2+x,1/2-y,-z
-x,1/2+y,1/2-z
1/2-x,1/2-y,1/2-z
1/2+x,y,1/2-z
1/2-x,1/2+y,z
x,1/2-y,1/2+z
loop_
_atom_site_type_symbol
_atom_site_label
_atom_site_fract_x
_atom_site_fract_y
_atom_site_fract_z
Si Si1 0.739159 0.407907 0.328375
Si Si2 0.629932 0.612724 0.895109
Si Si3 0.933773 0.716168 0.079872
Si Si4 0.689848 0.694369 0.094529
Si Si5 0.000000 0.750000 0.838287
Si Si6 0.846710 0.480764 0.606865
Si Si7 0.179132 0.087051 0.095594
Si Si8 0.845592 0.295786 0.924563
O O1 0.750000 0.426576 0.500000
O O2 0.732327 0.339652 0.339551
O O3 0.692601 0.442643 0.312299
O O4 0.773629 0.417323 0.190807
O O5 0.590438 0.656966 0.897920
O O6 0.643925 0.592614 0.731813
O O7 0.669727 0.649621 0.974480
O O8 0.624665 0.559210 0.000345
O O9 0.961680 0.726872 0.229594
O O10 0.970696 0.711382 0.949304
O O11 0.895033 0.765228 0.049171
O O12 0.659858 0.702756 0.244417
O O13 0.689769 0.752965 0.005295
O O14 0.874926 0.500000 0.750000
O O15 0.827454 0.530794 0.502611
O O16 0.167678 0.142729 0.993706
#
# Coordination Sequence:
#
# PCOD9530531 Si02
#       8
#    16  16  16  16   8  16  16  16
#     4  11  24  39  55  78 118 155 213 274 301 343
#     4  10  20  38  58  83 118 155 193 247 301 358
#     4  10  20  38  61  93 127 149 186 237 292 368
#     4  10  21  38  55  80 114 162 200 249 309 352
#     4  10  20  34  64  98 120 154 182 224 304 370
#     4  11  25  38  58  85 115 156 213 263 304 353
#     4  12  23  38  61  86 111 167 210 257 322 341
#     4  11  22  38  60  85 122 157 199 248 298 373
#
# _framework density 19.289135000000002
#
# number of rings (size 3 to 8) (size 9 to 14) (size 15 to 20)
#    0.000    1.333    2.667    6.000    1.867    2.133 
#    0.000    0.000    0.000    0.000    0.000   23.333 
#    0.000    0.000    0.000    0.000    0.000    0.000 
#
# Total GULP energy -334213.853775 kJ/mol
# GULP energy per Si atom -5570.230896 kJ/mol
# Density = 1.924523 g / cm^3
# Si number density = 19.289135 Si / 1000 Ang^3
#
#
#
# Elastic Constant Matrix: (Units=GPa)
#
#
# Indices 1 2 3 4 5 6 
#
# 1 61.4953 27.2541 32.5622 0.0000 0.0000 0.0000
# 2 27.2541 81.0093 24.1670 0.0000 0.0000 0.0000
# 3 32.5622 24.1670 116.5953 0.0000 0.0000 0.0000
# 4 0.0000 0.0000 0.0000 34.8379 0.0000 0.0000
# 5 0.0000 0.0000 0.0000 0.0000 16.8345 0.0000
# 6 0.0000 0.0000 0.0000 0.0000 0.0000 5.1416
#
#
#
# Elastic Compliance Matrix: (Units=1/GPa)
#
#
# Indices 1 2 3 4 5 6 
#
# 1 0.021336 -0.005756 -0.004765 0.000000 0.000000 0.000000
# 2 -0.005756 0.014711 -0.001442 0.000000 0.000000 0.000000
# 3 -0.004765 -0.001442 0.010206 0.000000 0.000000 0.000000
# 4 0.000000 0.000000 0.000000 0.028704 0.000000 0.000000
# 5 0.000000 0.000000 0.000000 0.000000 0.059402 0.000000
# 6 0.000000 0.000000 0.000000 0.000000 0.000000 0.194493
#
#
# Mechanical properties :
#
#
# Convention : Reuss Voigt Hill
#
# Bulk Modulus (GPa) = 44.79008 47.45183 46.12095
# Shear Modulus (GPa) = 13.88034 23.03723 18.45878
#
# Velocity S-wave (km/s) = 2.68543 3.45963 3.09682
# Velocity P-wave (km/s) = 5.73465 6.37279 6.06212
#
# Compressibility (1/GPa) = 0.02232637
#
# Stress axis : x y z
#
# Youngs Moduli (GPa) = 46.86926 67.97660 97.97829
#
# Poissons Ratio (x) = 0.39130 0.46691
# Poissons Ratio (y) = 0.26980 0.14124
# Poissons Ratio (z) = 0.22335 0.09799
#
# Static dielectric constant tensor:
#      x y z
#    x 1.737080 0.000000 0.000000 
#    y 0.000000 1.709850 0.000000 
#    z 0.000000 0.000000 1.718870 
# 
# From -- ./inp_files/8583.got.cif
#   From: 2010.05.17/outbox.cif.g08.bks.cpg/sg73_5_cif.got.tgz:8583.got - 2010.06.03 17:35:07.
