data_PCOD9530505
_publ_section_title
;
Structure prediction by ZEFSAII (Michael W. Deem and Ramdas Pophale) SiO2 
 PCOD9530505
Probable space group: I B C A 
;
_chemical_formula_sum "Si O2"
_cell_formula_units_Z 80
_cell_length_a 28.328603
_cell_length_b 8.356506
_cell_length_c 14.314296
_cell_angle_alpha 90.000000
_cell_angle_beta 90.000000
_cell_angle_gamma 90.000000
_cell_volume 3388.596681
_symmetry_space_group_name_H-M "I B C A "
_symmetry_group_IT_number 73
_symmetry_cell_setting 'orthorhombic'
loop_
_space_group_symop_operation_xyz
x,y,z
-x,1/2-y,z
x,-y,1/2-z
1/2-x,y,-z
-x,-y,-z
x,1/2+y,-z
-x,y,1/2+z
1/2+x,-y,z
1/2+x,1/2+y,1/2+z
1/2-x,-y,1/2+z
1/2+x,1/2-y,-z
-x,1/2+y,1/2-z
1/2-x,1/2-y,1/2-z
1/2+x,y,1/2-z
1/2-x,1/2+y,z
x,1/2-y,1/2+z
loop_
_atom_site_type_symbol
_atom_site_label
_atom_site_fract_x
_atom_site_fract_y
_atom_site_fract_z
Si Si1 0.052992 0.685494 0.141122
Si Si2 0.197650 0.113384 0.604821
Si Si3 0.908792 0.857483 0.353105
Si Si4 0.600043 0.994752 0.354923
Si Si5 0.795585 0.490319 0.107184
O O1 0.072565 0.666694 0.247359
O O2 0.061266 0.504961 0.103209
O O3 0.000000 0.750000 0.142711
O O4 0.080701 0.835554 0.096007
O O5 0.145799 0.083883 0.645953
O O6 0.204763 0.301282 0.604357
O O7 0.245792 0.045587 0.647940
O O8 0.198480 0.051417 0.498725
O O9 0.908509 0.674627 0.393878
O O10 0.655785 0.960367 0.345295
O O11 0.579021 0.000000 0.250000
#
# Coordination Sequence:
#
# PCOD9530505 Si02
#       5
#    16  16  16  16  16
#     4  10  21  35  61  80 107 150 188 236 298 338
#     4  10  20  35  55  84 114 150 198 225 283 342
#     4   9  21  35  53  87 110 140 190 241 274 340
#     4   9  20  37  53  84 115 143 189 236 286 339
#     4  10  20  34  58  81 113 159 185 233 279 346
#
# _framework density 23.608592000000002
#
# number of rings (size 3 to 8) (size 9 to 14) (size 15 to 20)
#    0.000    2.400    0.000    2.400   14.000    0.000 
#    3.600    3.000    0.000    2.400    0.000    0.000 
#    0.000    0.000    0.000    0.000    0.000    0.000 
#
# Total GULP energy -223064.190889 kJ/mol
# GULP energy per Si atom -5576.604772 kJ/mol
# Density = 2.355486 g / cm^3
# Si number density = 23.608592 Si / 1000 Ang^3
#
#
#
# Elastic Constant Matrix: (Units=GPa)
#
#
# Indices 1 2 3 4 5 6 
#
# 1 177.5105 91.2004 21.4302 0.0000 0.0000 0.0000
# 2 91.2004 142.7107 15.7435 0.0000 0.0000 0.0000
# 3 21.4302 15.7435 51.8951 0.0000 0.0000 0.0000
# 4 0.0000 0.0000 0.0000 -8.4679 0.0000 0.0000
# 5 0.0000 0.0000 0.0000 0.0000 35.0410 0.0000
# 6 0.0000 0.0000 0.0000 0.0000 0.0000 43.3243
#
#
#
# Elastic Compliance Matrix: (Units=1/GPa)
#
#
# Indices 1 2 3 4 5 6 
#
# 1 0.008573 -0.005264 -0.001943 0.000000 0.000000 0.000000
# 2 -0.005264 0.010482 -0.001006 0.000000 0.000000 0.000000
# 3 -0.001943 -0.001006 0.020377 0.000000 0.000000 0.000000
# 4 0.000000 0.000000 0.000000 -0.118093 0.000000 0.000000
# 5 0.000000 0.000000 0.000000 0.000000 0.028538 0.000000
# 6 0.000000 0.000000 0.000000 0.000000 0.000000 0.023082
#
#
# Mechanical properties :
#
#
# Convention : Reuss Voigt Hill
#
# Bulk Modulus (GPa) = 43.46810 69.87387 56.67098
# Shear Modulus (GPa) = -1697.06904 30.22896 -833.42004
#
# Velocity S-wave (km/s) = -26.84019 3.58218 -18.80909
# Velocity P-wave (km/s) = 30.69325 6.83889 21.15781
#
# Compressibility (1/GPa) = 0.02300538
#
# Stress axis : x y z
#
# Youngs Moduli (GPa) = 116.65115 95.39985 49.07422
#
# Poissons Ratio (x) = 0.50219 0.09536
# Poissons Ratio (y) = 0.61405 0.04938
# Poissons Ratio (z) = 0.22667 0.09599
#
# Static dielectric constant tensor:
#      x y z
#    x 1.939600 0.000000 0.000000 
#    y 0.000000 1.940900 0.000000 
#    z 0.000000 0.000000 1.973820 
# 
# From -- ./inp_files/20722.got.cif
#   From: 2010.05.17/outbox.cif.g08.bks.cpg/sg73_11_cif.got.tgz:20722.got - 2010.06.03 17:35:07.
