data_PCOD9530990
_publ_section_title
;
Structure prediction by ZEFSAII (Michael W. Deem and Ramdas Pophale) SiO2 
 PCOD9530990
Probable space group: I B C A 
;
_chemical_formula_sum "Si O2"
_cell_formula_units_Z 88
_cell_length_a 14.077222
_cell_length_b 13.749035
_cell_length_c 20.701581
_cell_angle_alpha 90.000000
_cell_angle_beta 90.000000
_cell_angle_gamma 90.000000
_cell_volume 4006.754112
_symmetry_space_group_name_H-M "I B C A "
_symmetry_group_IT_number 73
_symmetry_cell_setting 'orthorhombic'
loop_
_space_group_symop_operation_xyz
x,y,z
-x,1/2-y,z
x,-y,1/2-z
1/2-x,y,-z
-x,-y,-z
x,1/2+y,-z
-x,y,1/2+z
1/2+x,-y,z
1/2+x,1/2+y,1/2+z
1/2-x,-y,1/2+z
1/2+x,1/2-y,-z
-x,1/2+y,1/2-z
1/2-x,1/2-y,1/2-z
1/2+x,y,1/2-z
1/2-x,1/2+y,z
x,1/2-y,1/2+z
loop_
_atom_site_type_symbol
_atom_site_label
_atom_site_fract_x
_atom_site_fract_y
_atom_site_fract_z
Si Si1 0.380141 0.405720 0.920964
Si Si2 0.298231 0.153147 0.668153
Si Si3 0.398054 0.202868 0.552612
Si Si4 0.500000 0.250000 0.349560
Si Si5 0.206914 0.904824 0.567880
Si Si6 0.193301 0.153268 0.191545
O O1 0.288532 0.379027 0.877450
O O2 0.464800 0.342082 0.891308
O O3 0.380631 0.522360 0.918238
O O4 0.371554 0.366893 0.993752
O O5 0.388888 0.150098 0.621754
O O6 0.302384 0.104835 0.738184
O O7 0.276326 0.265511 0.686727
O O8 0.500000 0.250000 0.541946
O O9 0.326934 0.294857 0.555942
O O10 0.407637 0.290892 0.312792
O O11 0.250000 0.938970 0.500000
O O12 0.282965 0.907563 0.626717
#
# Coordination Sequence:
#
# PCOD9530990 Si02
#       6
#    16  16  16   8  16  16
#     4  11  22  41  63  92 129 172 214 273 328 394
#     4   9  19  38  62  86 127 170 212 254 329 392
#     4  11  22  38  63  99 129 163 219 276 325 386
#     4  10  20  40  66  92 130 166 222 278 330 382
#     4  11  23  40  65  91 129 174 218 261 334 401
#     4   9  20  38  64  90 121 173 215 259 322 396
#
# _framework density 21.962916
#
# number of rings (size 3 to 8) (size 9 to 14) (size 15 to 20)
#    0.000    1.818    0.909    4.909    1.273    1.455 
#    3.273    0.000    0.000    0.000    0.000    0.000 
#    0.000    0.000    0.000    0.000    0.000    0.000 
#
# Total GULP energy -245385.604996 kJ/mol
# GULP energy per Si atom -5576.945568 kJ/mol
# Density = 2.191293 g / cm^3
# Si number density = 21.962916 Si / 1000 Ang^3
#
#
#
# Elastic Constant Matrix: (Units=GPa)
#
#
# Indices 1 2 3 4 5 6 
#
# 1 70.1157 6.3382 47.6125 0.0000 0.0000 0.0000
# 2 6.3382 69.3562 23.7953 0.0000 0.0000 0.0000
# 3 47.6125 23.7953 199.1864 0.0000 0.0000 0.0000
# 4 0.0000 0.0000 0.0000 -32.4497 0.0000 0.0000
# 5 0.0000 0.0000 0.0000 0.0000 23.5250 0.0000
# 6 0.0000 0.0000 0.0000 0.0000 0.0000 30.0190
#
#
#
# Elastic Compliance Matrix: (Units=1/GPa)
#
#
# Indices 1 2 3 4 5 6 
#
# 1 0.017028 -0.000166 -0.004050 0.000000 0.000000 0.000000
# 2 -0.000166 0.015036 -0.001756 0.000000 0.000000 0.000000
# 3 -0.004050 -0.001756 0.006198 0.000000 0.000000 0.000000
# 4 0.000000 0.000000 0.000000 -0.030817 0.000000 0.000000
# 5 0.000000 0.000000 0.000000 0.000000 0.042508 0.000000
# 6 0.000000 0.000000 0.000000 0.000000 0.000000 0.033312
#
#
# Mechanical properties :
#
#
# Convention : Reuss Voigt Hill
#
# Bulk Modulus (GPa) = 38.00014 54.90556 46.45285
# Shear Modulus (GPa) = 48.08445 21.61302 34.84874
#
# Velocity S-wave (km/s) = 4.68412 3.14039 3.98767
# Velocity P-wave (km/s) = 6.82599 6.18085 6.51142
#
# Compressibility (1/GPa) = 0.02631569
#
# Stress axis : x y z
#
# Youngs Moduli (GPa) = 58.72830 66.50632 161.33156
#
# Poissons Ratio (x) = 0.01107 0.65344
# Poissons Ratio (y) = 0.00978 0.28337
# Poissons Ratio (z) = 0.23787 0.11682
#
# Static dielectric constant tensor:
#      x y z
#    x 1.793440 0.000000 0.000000 
#    y 0.000000 1.831280 0.000000 
#    z 0.000000 0.000000 1.859830 
# 
# From -- ./inp_files/25921.got.cif
#   From: 2010.05.17/outbox.cif.g08.bks.cpg/sg73_13_cif.got.tgz:25921.got - 2010.06.03 17:35:07.
