data_PCOD9530610
_publ_section_title
;
Structure prediction by ZEFSAII (Michael W. Deem and Ramdas Pophale) SiO2 
 PCOD9530610
Probable space group: I B C A 
;
_chemical_formula_sum "Si O2"
_cell_formula_units_Z 120
_cell_length_a 26.911050
_cell_length_b 24.438600
_cell_length_c 9.935024
_cell_angle_alpha 90.000000
_cell_angle_beta 90.000000
_cell_angle_gamma 90.000000
_cell_volume 6533.951204
_symmetry_space_group_name_H-M "I B C A "
_symmetry_group_IT_number 73
_symmetry_cell_setting 'orthorhombic'
loop_
_space_group_symop_operation_xyz
x,y,z
-x,1/2-y,z
x,-y,1/2-z
1/2-x,y,-z
-x,-y,-z
x,1/2+y,-z
-x,y,1/2+z
1/2+x,-y,z
1/2+x,1/2+y,1/2+z
1/2-x,-y,1/2+z
1/2+x,1/2-y,-z
-x,1/2+y,1/2-z
1/2-x,1/2-y,1/2-z
1/2+x,y,1/2-z
1/2-x,1/2+y,z
x,1/2-y,1/2+z
loop_
_atom_site_type_symbol
_atom_site_label
_atom_site_fract_x
_atom_site_fract_y
_atom_site_fract_z
Si Si1 0.006296 0.959167 0.624249
Si Si2 0.309980 0.297539 0.860010
Si Si3 0.307212 0.294899 0.164737
Si Si4 0.246511 0.000000 0.750000
Si Si5 0.664675 0.079014 0.823728
Si Si6 0.890288 0.932595 0.046953
Si Si7 0.175541 0.909483 0.311158
Si Si8 0.603005 0.447688 0.579211
O O1 0.952099 0.931657 0.629154
O O2 0.052977 0.920161 0.591678
O O3 0.016048 0.000000 0.750000
O O4 0.000000 0.000000 0.500000
O O5 0.251234 0.285030 0.859972
O O6 0.330703 0.252250 0.757705
O O7 0.316637 0.359188 0.808537
O O8 0.329186 0.295808 0.013783
O O9 0.309035 0.352393 0.243366
O O10 0.210685 0.037183 0.655136
O O11 0.280307 0.045592 0.826005
O O12 0.638730 0.060534 0.686107
O O13 0.625258 0.079536 0.945084
O O14 0.855629 0.897966 0.946949
O O15 0.895562 0.988953 0.963976
O O16 0.139788 0.936173 0.200103
#
# Coordination Sequence:
#
# PCOD9530610 Si02
#       8
#    16  16  16   8  16  16  16  16
#     4  10  20  36  58  80 117 158 195 251 286 343
#     4  10  22  40  59  80 110 155 203 251 285 337
#     4  10  22  40  59  80 111 153 206 248 287 332
#     4  12  24  38  54  84 132 166 186 224 290 352
#     4  12  23  36  57  85 122 160 192 236 293 354
#     4  11  22  35  53  88 119 153 197 235 289 355
#     4  12  23  36  57  85 120 162 196 233 286 360
#     4  11  20  37  57  84 115 157 201 235 295 351
#
# _framework density 18.365611000000001
#
# number of rings (size 3 to 8) (size 9 to 14) (size 15 to 20)
#    0.000    1.067    5.333    3.200    1.867    2.133 
#    0.000    0.000    0.000    0.000    0.000    5.600 
#    0.000    0.000    0.000    0.000    0.000    0.000 
#
# Total GULP energy -334305.853971 kJ/mol
# GULP energy per Si atom -5571.764233 kJ/mol
# Density = 1.832381 g / cm^3
# Si number density = 18.365611 Si / 1000 Ang^3
#
#
#
# Elastic Constant Matrix: (Units=GPa)
#
#
# Indices 1 2 3 4 5 6 
#
# 1 72.2479 19.1174 35.7718 0.0000 0.0000 0.0000
# 2 19.1174 92.4773 28.7470 0.0000 0.0000 0.0000
# 3 35.7718 28.7470 121.0155 0.0000 0.0000 0.0000
# 4 0.0000 0.0000 0.0000 47.7663 0.0000 0.0000
# 5 0.0000 0.0000 0.0000 0.0000 21.2898 0.0000
# 6 0.0000 0.0000 0.0000 0.0000 0.0000 9.8633
#
#
#
# Elastic Compliance Matrix: (Units=1/GPa)
#
#
# Indices 1 2 3 4 5 6 
#
# 1 0.016568 -0.002054 -0.004409 0.000000 0.000000 0.000000
# 2 -0.002054 0.011930 -0.002227 0.000000 0.000000 0.000000
# 3 -0.004409 -0.002227 0.010096 0.000000 0.000000 0.000000
# 4 0.000000 0.000000 0.000000 0.020935 0.000000 0.000000
# 5 0.000000 0.000000 0.000000 0.000000 0.046971 0.000000
# 6 0.000000 0.000000 0.000000 0.000000 0.000000 0.101386
#
#
# Mechanical properties :
#
#
# Convention : Reuss Voigt Hill
#
# Bulk Modulus (GPa) = 47.14077 50.33478 48.73777
# Shear Modulus (GPa) = 21.52036 29.25753 25.38895
#
# Velocity S-wave (km/s) = 3.42683 3.99565 3.72212
# Velocity P-wave (km/s) = 6.43283 6.98237 6.71322
#
# Compressibility (1/GPa) = 0.02121306
#
# Stress axis : x y z
#
# Youngs Moduli (GPa) = 60.35713 83.81983 99.05124
#
# Poissons Ratio (x) = 0.17219 0.43676
# Poissons Ratio (y) = 0.12399 0.22056
# Poissons Ratio (z) = 0.26614 0.18665
#
# Static dielectric constant tensor:
#      x y z
#    x 1.478890 0.000000 0.000000 
#    y 0.000000 1.642400 0.000000 
#    z 0.000000 0.000000 1.682000 
# 
# From -- ./inp_files/8584.got.cif
#   From: 2010.05.17/outbox.cif.g08.bks.cpg/sg73_5_cif.got.tgz:8584.got - 2010.06.03 17:35:07.
