data_PCOD9530916
_publ_section_title
;
Structure prediction by ZEFSAII (Michael W. Deem and Ramdas Pophale) SiO2 
 PCOD9530916
Probable space group: I B C A 
;
_chemical_formula_sum "Si O2"
_cell_formula_units_Z 88
_cell_length_a 12.182061
_cell_length_b 18.653620
_cell_length_c 15.585088
_cell_angle_alpha 90.000000
_cell_angle_beta 90.000000
_cell_angle_gamma 90.000000
_cell_volume 3541.548177
_symmetry_space_group_name_H-M "I B C A "
_symmetry_group_IT_number 73
_symmetry_cell_setting 'orthorhombic'
loop_
_space_group_symop_operation_xyz
x,y,z
-x,1/2-y,z
x,-y,1/2-z
1/2-x,y,-z
-x,-y,-z
x,1/2+y,-z
-x,y,1/2+z
1/2+x,-y,z
1/2+x,1/2+y,1/2+z
1/2-x,-y,1/2+z
1/2+x,1/2-y,-z
-x,1/2+y,1/2-z
1/2-x,1/2-y,1/2-z
1/2+x,y,1/2-z
1/2-x,1/2+y,z
x,1/2-y,1/2+z
loop_
_atom_site_type_symbol
_atom_site_label
_atom_site_fract_x
_atom_site_fract_y
_atom_site_fract_z
Si Si1 0.971573 0.834497 0.873584
Si Si2 0.628920 0.737732 0.353121
Si Si3 0.270119 0.151786 0.735927
Si Si4 0.146717 0.894790 0.541721
Si Si5 0.665198 0.000000 0.250000
Si Si6 0.481575 0.515335 0.604391
O O1 0.878203 0.838159 0.799369
O O2 0.000000 0.750000 0.882178
O O3 0.055000 0.903890 0.866684
O O4 0.924018 0.864473 0.963378
O O5 0.500000 0.750000 0.362775
O O6 0.688559 0.813544 0.352463
O O7 0.665237 0.697906 0.265053
O O8 0.679943 0.680142 0.416063
O O9 0.260201 0.068415 0.737837
O O10 0.250000 0.933942 0.500000
O O11 0.096153 0.945940 0.614060
O O12 0.587084 0.003983 0.334444
O O13 0.500000 0.500000 0.500000
#
# Coordination Sequence:
#
# PCOD9530916 Si02
#       6
#    16  16  16  16   8  16
#     4  10  20  39  65  94 133 174 225 285 351 423
#     4  11  22  39  65  94 131 178 221 290 354 418
#     4  10  22  40  64  98 135 173 228 291 343 433
#     4  11  21  40  67  93 135 184 235 289 365 425
#     4  10  20  42  70 102 140 188 254 286 376 446
#     4   9  21  39  68  97 134 189 233 304 356 427
#
# _framework density 24.847888999999999
#
# number of rings (size 3 to 8) (size 9 to 14) (size 15 to 20)
#    0.000    1.818    1.818    2.182    0.000    2.909 
#    0.000   10.000    8.000    0.000    0.000    0.000 
#    0.000    0.000    0.000    0.000    0.000    0.182 
#
# Total GULP energy -244937.503743 kJ/mol
# GULP energy per Si atom -5566.761449 kJ/mol
# Density = 2.479133 g / cm^3
# Si number density = 24.847889 Si / 1000 Ang^3
#
#
#
# Elastic Constant Matrix: (Units=GPa)
#
#
# Indices 1 2 3 4 5 6 
#
# 1 69.6988 39.9103 16.0241 0.0000 0.0000 0.0000
# 2 39.9103 225.2746 29.0481 0.0000 0.0000 0.0000
# 3 16.0241 29.0481 75.4343 0.0000 0.0000 0.0000
# 4 0.0000 0.0000 0.0000 34.2565 0.0000 0.0000
# 5 0.0000 0.0000 0.0000 0.0000 31.5682 0.0000
# 6 0.0000 0.0000 0.0000 0.0000 0.0000 27.0056
#
#
#
# Elastic Compliance Matrix: (Units=1/GPa)
#
#
# Indices 1 2 3 4 5 6 
#
# 1 0.016399 -0.002585 -0.002488 0.000000 0.000000 0.000000
# 2 -0.002585 0.005078 -0.001407 0.000000 0.000000 0.000000
# 3 -0.002488 -0.001407 0.014327 0.000000 0.000000 0.000000
# 4 0.000000 0.000000 0.000000 0.029192 0.000000 0.000000
# 5 0.000000 0.000000 0.000000 0.000000 0.031677 0.000000
# 6 0.000000 0.000000 0.000000 0.000000 0.000000 0.037029
#
#
# Mechanical properties :
#
#
# Convention : Reuss Voigt Hill
#
# Bulk Modulus (GPa) = 43.77202 60.04141 51.90672
# Shear Modulus (GPa) = 32.40924 37.59440 35.00182
#
# Velocity S-wave (km/s) = 3.61543 3.89393 3.75726
# Velocity P-wave (km/s) = 5.92307 6.66580 6.30538
#
# Compressibility (1/GPa) = 0.02284564
#
# Stress axis : x y z
#
# Youngs Moduli (GPa) = 60.97760 196.91745 69.79935
#
# Poissons Ratio (x) = 0.50893 0.17369
# Poissons Ratio (y) = 0.15760 0.09817
# Poissons Ratio (z) = 0.15174 0.27697
#
# Static dielectric constant tensor:
#      x y z
#    x 1.530660 0.000000 0.000000 
#    y 0.000000 2.122890 0.000000 
#    z 0.000000 0.000000 3.189150 
# 
# From -- ./inp_files/21934.got.cif
#   From: 2010.05.17/outbox.cif.g08.bks.cpg/sg73_11_cif.got.tgz:21934.got - 2010.06.03 17:35:07.
