data_PCOD9530038
_publ_section_title
;
Structure prediction by ZEFSAII (Michael W. Deem and Ramdas Pophale) SiO2 
 PCOD9530038
Probable space group: I B C A 
;
_chemical_formula_sum "Si O2"
_cell_formula_units_Z 96
_cell_length_a 33.977079
_cell_length_b 9.371382
_cell_length_c 12.911210
_cell_angle_alpha 90.000000
_cell_angle_beta 90.000000
_cell_angle_gamma 90.000000
_cell_volume 4111.086607
_symmetry_space_group_name_H-M "I B C A "
_symmetry_group_IT_number 73
_symmetry_cell_setting 'orthorhombic'
loop_
_space_group_symop_operation_xyz
x,y,z
-x,1/2-y,z
x,-y,1/2-z
1/2-x,y,-z
-x,-y,-z
x,1/2+y,-z
-x,y,1/2+z
1/2+x,-y,z
1/2+x,1/2+y,1/2+z
1/2-x,-y,1/2+z
1/2+x,1/2-y,-z
-x,1/2+y,1/2-z
1/2-x,1/2-y,1/2-z
1/2+x,y,1/2-z
1/2-x,1/2+y,z
x,1/2-y,1/2+z
loop_
_atom_site_type_symbol
_atom_site_label
_atom_site_fract_x
_atom_site_fract_y
_atom_site_fract_z
Si Si1 0.164628 0.500000 0.250000
Si Si2 0.782971 0.000000 0.750000
Si Si3 0.084849 0.572789 0.927198
Si Si4 0.386790 0.755699 0.766701
Si Si5 0.223047 0.967240 0.913233
Si Si6 0.662716 0.945188 0.425738
Si Si7 0.954077 0.767523 0.590639
O O1 0.137956 0.630307 0.284186
O O2 0.192782 0.552893 0.157434
O O3 0.752875 0.907631 0.676243
O O4 0.812884 0.043737 0.657480
O O5 0.126733 0.529622 0.979110
O O6 0.058502 0.432476 0.915218
O O7 0.073796 0.699596 0.178321
O O8 0.060193 0.690552 0.986743
O O9 0.359578 0.830337 0.854114
O O10 0.401246 0.867036 0.682292
O O11 0.250000 0.043602 0.000000
O O12 0.193436 0.882780 0.990080
O O13 0.000000 0.750000 0.608827
#
# Coordination Sequence:
#
# PCOD9530038 Si02
#       7
#     8   8  16  16  16  16  16
#     4  11  24  44  64 101 138 184 250 291 334 450
#     4   9  16  36  60  95 132 168 224 285 346 414
#     4  11  24  44  73 100 137 186 225 284 348 423
#     4  11  25  42  70  99 135 190 235 283 356 422
#     4   9  20  37  64  93 138 173 230 300 358 403
#     4  10  18  40  66  90 134 179 225 279 346 422
#     4  11  25  46  70 106 139 174 229 285 358 423
#
# _framework density 23.351490999999999
#
# number of rings (size 3 to 8) (size 9 to 14) (size 15 to 20)
#    0.000    1.667    1.667    3.000    7.000    0.667 
#    3.000   10.000    0.000    0.000    0.000    0.000 
#    0.000    0.000    0.000    0.000    0.000    0.000 
#
# Total GULP energy -267295.964102 kJ/mol
# GULP energy per Si atom -5568.665919 kJ/mol
# Density = 2.329834 g / cm^3
# Si number density = 23.351491 Si / 1000 Ang^3
#
#
#
# Elastic Constant Matrix: (Units=GPa)
#
#
# Indices 1 2 3 4 5 6 
#
# 1 191.1456 42.7543 77.5276 0.0000 0.0000 0.0000
# 2 42.7543 70.1023 30.3619 0.0000 0.0000 0.0000
# 3 77.5276 30.3619 95.9004 0.0000 0.0000 0.0000
# 4 0.0000 0.0000 0.0000 23.6775 0.0000 0.0000
# 5 0.0000 0.0000 0.0000 0.0000 57.7221 0.0000
# 6 0.0000 0.0000 0.0000 0.0000 0.0000 7.3513
#
#
#
# Elastic Compliance Matrix: (Units=1/GPa)
#
#
# Indices 1 2 3 4 5 6 
#
# 1 0.008131 -0.002448 -0.005798 0.000000 0.000000 0.000000
# 2 -0.002448 0.017269 -0.003488 0.000000 0.000000 0.000000
# 3 -0.005798 -0.003488 0.016219 0.000000 0.000000 0.000000
# 4 0.000000 0.000000 0.000000 0.042234 0.000000 0.000000
# 5 0.000000 0.000000 0.000000 0.000000 0.017324 0.000000
# 6 0.000000 0.000000 0.000000 0.000000 0.000000 0.136030
#
#
# Mechanical properties :
#
#
# Convention : Reuss Voigt Hill
#
# Bulk Modulus (GPa) = 55.09625 73.15955 64.12790
# Shear Modulus (GPa) = 18.74583 31.51714 25.13149
#
# Velocity S-wave (km/s) = 2.83639 3.67779 3.28415
# Velocity P-wave (km/s) = 5.86279 7.03083 6.47321
#
# Compressibility (1/GPa) = 0.01815005
#
# Stress axis : x y z
#
# Youngs Moduli (GPa) = 122.98925 57.90884 61.65497
#
# Poissons Ratio (x) = 0.14174 0.35749
# Poissons Ratio (y) = 0.30103 0.21508
# Poissons Ratio (z) = 0.71311 0.20201
#
# Static dielectric constant tensor:
#      x y z
#    x 1.907300 0.000000 0.000000 
#    y 0.000000 1.864720 0.000000 
#    z 0.000000 0.000000 1.924610 
# 
# From -- ./inp_files/20000.got.cif
#   From: 2010.05.17/outbox.cif.g08.bks.cpg/sg73_10_cif.got.tgz:20000.got - 2010.06.03 17:35:07.
