data_PCOD9530885
_publ_section_title
;
Structure prediction by ZEFSAII (Michael W. Deem and Ramdas Pophale) SiO2 
 PCOD9530885
Probable space group: I B C A 
;
_chemical_formula_sum "Si O2"
_cell_formula_units_Z 80
_cell_length_a 12.181698
_cell_length_b 13.291233
_cell_length_c 24.293767
_cell_angle_alpha 90.000000
_cell_angle_beta 90.000000
_cell_angle_gamma 90.000000
_cell_volume 3933.398627
_symmetry_space_group_name_H-M "I B C A "
_symmetry_group_IT_number 73
_symmetry_cell_setting 'orthorhombic'
loop_
_space_group_symop_operation_xyz
x,y,z
-x,1/2-y,z
x,-y,1/2-z
1/2-x,y,-z
-x,-y,-z
x,1/2+y,-z
-x,y,1/2+z
1/2+x,-y,z
1/2+x,1/2+y,1/2+z
1/2-x,-y,1/2+z
1/2+x,1/2-y,-z
-x,1/2+y,1/2-z
1/2-x,1/2-y,1/2-z
1/2+x,y,1/2-z
1/2-x,1/2+y,z
x,1/2-y,1/2+z
loop_
_atom_site_type_symbol
_atom_site_label
_atom_site_fract_x
_atom_site_fract_y
_atom_site_fract_z
Si Si1 0.349154 0.130496 0.036871
Si Si2 0.107268 0.882728 0.657545
Si Si3 0.500000 0.750000 0.037007
Si Si4 0.234202 0.000000 0.750000
Si Si5 0.651537 0.648397 0.830913
Si Si6 0.230859 0.160430 0.560764
O O1 0.370365 0.080073 0.095026
O O2 0.307220 0.241087 0.054177
O O3 0.250000 0.090758 0.000000
O O4 0.454447 0.157470 0.000181
O O5 0.156245 0.770545 0.670012
O O6 0.976451 0.875497 0.661923
O O7 0.159136 0.955215 0.702077
O O8 0.606384 0.703044 0.067353
O O9 0.304867 0.089528 0.722380
O O10 0.720683 0.611608 0.884372
O O11 0.250000 0.113099 0.500000
#
# Coordination Sequence:
#
# PCOD9530885 Si02
#       6
#    16  16   8   8  16  16
#     4   8  14  27  52  83 112 142 177 222 279 340
#     4  10  20  39  61  81 113 152 186 230 285 332
#     4   8  12  24  50  86 112 134 180 228 274 338
#     4  12  24  38  56  84 112 146 202 244 266 320
#     4  10  21  39  61  82 112 152 188 230 285 335
#     4   8  14  27  52  84 112 139 177 222 278 342
#
# _framework density 20.338643999999999
#
# number of rings (size 3 to 8) (size 9 to 14) (size 15 to 20)
#    0.000    3.200    0.000    4.800    0.000    0.000 
#    0.000   15.000    0.000    3.600    0.000    0.000 
#    0.000    0.000    0.000    0.000    0.000    0.200 
#
# Total GULP energy -222729.052664 kJ/mol
# GULP energy per Si atom -5568.226317 kJ/mol
# Density = 2.029235 g / cm^3
# Si number density = 20.338644 Si / 1000 Ang^3
#
#
#
# Elastic Constant Matrix: (Units=GPa)
#
#
# Indices 1 2 3 4 5 6 
#
# 1 74.0604 13.9203 41.6407 0.0000 0.0000 0.0000
# 2 13.9203 50.8303 19.6721 0.0000 0.0000 0.0000
# 3 41.6407 19.6721 125.5479 0.0000 0.0000 0.0000
# 4 0.0000 0.0000 0.0000 -65.4014 0.0000 0.0000
# 5 0.0000 0.0000 0.0000 0.0000 2.8237 0.0000
# 6 0.0000 0.0000 0.0000 0.0000 0.0000 133.6439
#
#
#
# Elastic Compliance Matrix: (Units=1/GPa)
#
#
# Indices 1 2 3 4 5 6 
#
# 1 0.016919 -0.002621 -0.005201 0.000000 0.000000 0.000000
# 2 -0.002621 0.021349 -0.002476 0.000000 0.000000 0.000000
# 3 -0.005201 -0.002476 0.010078 0.000000 0.000000 0.000000
# 4 0.000000 0.000000 0.000000 -0.015290 0.000000 0.000000
# 5 0.000000 0.000000 0.000000 0.000000 0.354148 0.000000
# 6 0.000000 0.000000 0.000000 0.000000 0.000000 0.007483
#
#
# Mechanical properties :
#
#
# Convention : Reuss Voigt Hill
#
# Bulk Modulus (GPa) = 36.03436 44.54498 40.28967
# Shear Modulus (GPa) = 11.77764 25.89359 18.83562
#
# Velocity S-wave (km/s) = 2.40901 3.57196 3.04649
# Velocity P-wave (km/s) = 5.04910 6.24188 5.67690
#
# Compressibility (1/GPa) = 0.02775129
#
# Stress axis : x y z
#
# Youngs Moduli (GPa) = 59.10388 46.84007 99.22507
#
# Poissons Ratio (x) = 0.12275 0.51607
# Poissons Ratio (y) = 0.15489 0.24568
# Poissons Ratio (z) = 0.30740 0.11598
#
# Static dielectric constant tensor:
#      x y z
#    x 1.691310 0.000000 0.000000 
#    y 0.000000 1.758850 0.000000 
#    z 0.000000 0.000000 1.776740 
# 
# From -- ./inp_files/13471.got.cif
#   From: 2010.05.17/outbox.cif.g08.bks.cpg/sg73_7_cif.got.tgz:13471.got - 2010.06.03 17:35:07.
