data_PCOD9530263
_publ_section_title
;
Structure prediction by ZEFSAII (Michael W. Deem and Ramdas Pophale) SiO2 
 PCOD9530263
Probable space group: I B C A 
;
_chemical_formula_sum "Si O2"
_cell_formula_units_Z 104
_cell_length_a 17.479454
_cell_length_b 19.916963
_cell_length_c 15.914999
_cell_angle_alpha 90.000000
_cell_angle_beta 90.000000
_cell_angle_gamma 90.000000
_cell_volume 5540.610170
_symmetry_space_group_name_H-M "I B C A "
_symmetry_group_IT_number 73
_symmetry_cell_setting 'orthorhombic'
loop_
_space_group_symop_operation_xyz
x,y,z
-x,1/2-y,z
x,-y,1/2-z
1/2-x,y,-z
-x,-y,-z
x,1/2+y,-z
-x,y,1/2+z
1/2+x,-y,z
1/2+x,1/2+y,1/2+z
1/2-x,-y,1/2+z
1/2+x,1/2-y,-z
-x,1/2+y,1/2-z
1/2-x,1/2-y,1/2-z
1/2+x,y,1/2-z
1/2-x,1/2+y,z
x,1/2-y,1/2+z
loop_
_atom_site_type_symbol
_atom_site_label
_atom_site_fract_x
_atom_site_fract_y
_atom_site_fract_z
Si Si1 0.250000 0.641159 0.000000
Si Si2 0.558259 0.089887 0.054385
Si Si3 0.740760 0.748843 0.852153
Si Si4 0.573043 0.203105 0.171699
Si Si5 0.552453 0.829502 0.142690
Si Si6 0.398385 0.442125 0.467262
Si Si7 0.894085 0.196718 0.083896
O O1 0.252228 0.686836 0.085320
O O2 0.323607 0.593083 0.996796
O O3 0.556830 0.127390 0.142557
O O4 0.605494 0.021352 0.048143
O O5 0.472301 0.072578 0.025217
O O6 0.592232 0.146960 0.992899
O O7 0.750000 0.750000 0.750000
O O8 0.652884 0.728103 0.866310
O O9 0.807414 0.698678 0.884621
O O10 0.500000 0.250000 0.151354
O O11 0.584132 0.199457 0.271541
O O12 0.582288 0.901839 0.118108
O O13 0.460528 0.828658 0.147432
O O14 0.579833 0.774953 0.072330
#
# Coordination Sequence:
#
# PCOD9530263 Si02
#       7
#     8  16  16  16  16  16  16
#     4  12  22  36  64  84 122 162 194 248 306 352
#     4  10  24  38  60  84 117 157 200 241 290 365
#     4  12  22  36  58  96 119 148 202 256 298 349
#     4  12  22  35  58  92 116 151 200 249 296 351
#     4  10  19  38  60  82 120 156 187 243 305 346
#     4  10  22  41  57  84 119 159 196 235 300 362
#     4  10  19  37  58  84 114 153 188 246 298 338
#
# _framework density 18.770495
#
# number of rings (size 3 to 8) (size 9 to 14) (size 15 to 20)
#    0.000    1.231    4.615    1.846    4.308    1.846 
#    0.000    0.000    0.000    4.615    0.000    0.000 
#    0.000    0.000    0.000    0.000    0.000    0.000 
#
# Total GULP energy -289677.864327 kJ/mol
# GULP energy per Si atom -5570.728160 kJ/mol
# Density = 1.872777 g / cm^3
# Si number density = 18.770495 Si / 1000 Ang^3
#
#
#
# Elastic Constant Matrix: (Units=GPa)
#
#
# Indices 1 2 3 4 5 6 
#
# 1 138.7727 44.6395 17.8351 0.0000 0.0000 0.0000
# 2 44.6395 128.4977 50.5599 0.0000 0.0000 0.0000
# 3 17.8351 50.5599 53.4305 0.0000 0.0000 0.0000
# 4 0.0000 0.0000 0.0000 12.7119 0.0000 0.0000
# 5 0.0000 0.0000 0.0000 0.0000 18.9586 0.0000
# 6 0.0000 0.0000 0.0000 0.0000 0.0000 30.8031
#
#
#
# Elastic Compliance Matrix: (Units=1/GPa)
#
#
# Indices 1 2 3 4 5 6 
#
# 1 0.008113 -0.002793 -0.000066 0.000000 0.000000 0.000000
# 2 -0.002793 0.013360 -0.011710 0.000000 0.000000 0.000000
# 3 -0.000066 -0.011710 0.029819 0.000000 0.000000 0.000000
# 4 0.000000 0.000000 0.000000 0.078666 0.000000 0.000000
# 5 0.000000 0.000000 0.000000 0.000000 0.052747 0.000000
# 6 0.000000 0.000000 0.000000 0.000000 0.000000 0.032464
#
#
# Mechanical properties :
#
#
# Convention : Reuss Voigt Hill
#
# Bulk Modulus (GPa) = 45.13614 60.75220 52.94417
# Shear Modulus (GPa) = 19.86577 26.33916 23.10246
#
# Velocity S-wave (km/s) = 3.25676 3.75002 3.51206
# Velocity P-wave (km/s) = 6.18389 7.15446 6.68681
#
# Compressibility (1/GPa) = 0.02215519
#
# Stress axis : x y z
#
# Youngs Moduli (GPa) = 123.26293 74.85108 33.53613
#
# Poissons Ratio (x) = 0.20903 0.00220
# Poissons Ratio (y) = 0.34422 0.39271
# Poissons Ratio (z) = 0.00807 0.87650
#
# Static dielectric constant tensor:
#      x y z
#    x 1.688810 0.000000 0.000000 
#    y 0.000000 1.634060 0.000000 
#    z 0.000000 0.000000 1.714510 
# 
# From -- ./inp_files/22623.got.cif
#   From: 2010.05.17/outbox.cif.g08.bks.cpg/sg73_12_cif.got.tgz:22623.got - 2010.06.03 17:35:07.
