data_PCOD9530238
_publ_section_title
;
Structure prediction by ZEFSAII (Michael W. Deem and Ramdas Pophale) SiO2 
 PCOD9530238
Probable space group: I B C A 
;
_chemical_formula_sum "Si O2"
_cell_formula_units_Z 112
_cell_length_a 5.620838
_cell_length_b 36.638793
_cell_length_c 28.015442
_cell_angle_alpha 90.000000
_cell_angle_beta 90.000000
_cell_angle_gamma 90.000000
_cell_volume 5769.520296
_symmetry_space_group_name_H-M "I B C A "
_symmetry_group_IT_number 73
_symmetry_cell_setting 'orthorhombic'
loop_
_space_group_symop_operation_xyz
x,y,z
-x,1/2-y,z
x,-y,1/2-z
1/2-x,y,-z
-x,-y,-z
x,1/2+y,-z
-x,y,1/2+z
1/2+x,-y,z
1/2+x,1/2+y,1/2+z
1/2-x,-y,1/2+z
1/2+x,1/2-y,-z
-x,1/2+y,1/2-z
1/2-x,1/2-y,1/2-z
1/2+x,y,1/2-z
1/2-x,1/2+y,z
x,1/2-y,1/2+z
loop_
_atom_site_type_symbol
_atom_site_label
_atom_site_fract_x
_atom_site_fract_y
_atom_site_fract_z
Si Si1 0.732264 0.333034 0.552802
Si Si2 0.845800 0.198267 0.767406
Si Si3 0.071733 0.884091 0.268799
Si Si4 0.127208 0.355255 0.627901
Si Si5 0.098019 0.599765 0.049014
Si Si6 0.500447 0.706507 0.865031
Si Si7 0.995874 0.985620 0.054888
O O1 0.750000 0.317484 0.500000
O O2 0.623486 0.373164 0.545982
O O3 0.560245 0.307263 0.582613
O O4 0.952767 0.338331 0.588138
O O5 0.610115 0.214462 0.742962
O O6 0.889847 0.156578 0.752298
O O7 0.806913 0.197905 0.824085
O O8 0.332578 0.900855 0.255251
O O9 0.035536 0.876962 0.325450
O O10 0.270236 0.384839 0.595999
O O11 0.280870 0.320640 0.647205
O O12 0.024698 0.557918 0.054136
O O13 0.250000 0.603666 0.000000
O O14 0.500000 0.750000 0.864879
O O15 0.749193 0.001561 0.076114
O O16 0.000000 0.000000 0.000000
#
# Coordination Sequence:
#
# PCOD9530238 Si02
#       7
#    16  16  16  16  16  16  16
#     4  11  24  40  60  79 113 162 212 256 299 361
#     4  10  19  37  61  86 115 143 185 246 324 388
#     4  10  19  36  60  85 120 151 190 253 318 371
#     4  11  23  39  61  86 118 159 208 256 307 379
#     4  11  22  37  59  91 125 168 204 239 298 361
#     4  11  25  41  56  84 112 152 209 265 320 375
#     4  10  21  34  59  89 132 165 195 236 296 353
#
# _framework density 19.412361000000001
#
# number of rings (size 3 to 8) (size 9 to 14) (size 15 to 20)
#    0.000    1.429    5.714    1.714    6.000    1.143 
#    2.571    0.000    0.000    0.000    0.000    0.000 
#    0.000    3.429    0.000    0.000    0.000    0.000 
#
# Total GULP energy -311797.513696 kJ/mol
# GULP energy per Si atom -5567.812745 kJ/mol
# Density = 1.936818 g / cm^3
# Si number density = 19.412361 Si / 1000 Ang^3
#
#
#
# Elastic Constant Matrix: (Units=GPa)
#
#
# Indices 1 2 3 4 5 6 
#
# 1 102.7644 0.4925 19.4496 0.0000 0.0000 0.0000
# 2 0.4925 75.6871 11.1113 0.0000 0.0000 0.0000
# 3 19.4496 11.1113 104.2515 0.0000 0.0000 0.0000
# 4 0.0000 0.0000 0.0000 -71.0171 0.0000 0.0000
# 5 0.0000 0.0000 0.0000 0.0000 26.5993 0.0000
# 6 0.0000 0.0000 0.0000 0.0000 0.0000 3.1173
#
#
#
# Elastic Compliance Matrix: (Units=1/GPa)
#
#
# Indices 1 2 3 4 5 6 
#
# 1 0.010091 0.000214 -0.001905 0.000000 0.000000 0.000000
# 2 0.000214 0.013427 -0.001471 0.000000 0.000000 0.000000
# 3 -0.001905 -0.001471 0.010104 0.000000 0.000000 0.000000
# 4 0.000000 0.000000 0.000000 -0.014081 0.000000 0.000000
# 5 0.000000 0.000000 0.000000 0.000000 0.037595 0.000000
# 6 0.000000 0.000000 0.000000 0.000000 0.000000 0.320796
#
#
# Mechanical properties :
#
#
# Convention : Reuss Voigt Hill
#
# Bulk Modulus (GPa) = 36.63365 38.31218 37.47292
# Shear Modulus (GPa) = 12.71116 8.51652 10.61384
#
# Velocity S-wave (km/s) = 2.56168 2.09683 2.34082
# Velocity P-wave (km/s) = 5.25945 5.06370 5.16251
#
# Compressibility (1/GPa) = 0.02729731
#
# Stress axis : x y z
#
# Youngs Moduli (GPa) = 99.10230 74.47762 98.96635
#
# Poissons Ratio (x) = -0.01594 0.18857
# Poissons Ratio (y) = -0.02121 0.14558
# Poissons Ratio (z) = 0.18883 0.10956
#
# Static dielectric constant tensor:
#      x y z
#    x 1.888680 0.000000 0.000000 
#    y 0.000000 1.641420 0.000000 
#    z 0.000000 0.000000 1.785110 
# 
# From -- ./inp_files/33355.got.cif
#   From: 2010.05.17/outbox.cif.g08.bks.cpg/sg73_17_cif.got.tgz:33355.got - 2010.06.03 17:35:07.
