data_PCOD9530627
_publ_section_title
;
Structure prediction by ZEFSAII (Michael W. Deem and Ramdas Pophale) SiO2 
 PCOD9530627
Probable space group: I B C A 
;
_chemical_formula_sum "Si O2"
_cell_formula_units_Z 120
_cell_length_a 24.071899
_cell_length_b 20.135517
_cell_length_c 13.497492
_cell_angle_alpha 90.000000
_cell_angle_beta 90.000000
_cell_angle_gamma 90.000000
_cell_volume 6542.236148
_symmetry_space_group_name_H-M "I B C A "
_symmetry_group_IT_number 73
_symmetry_cell_setting 'orthorhombic'
loop_
_space_group_symop_operation_xyz
x,y,z
-x,1/2-y,z
x,-y,1/2-z
1/2-x,y,-z
-x,-y,-z
x,1/2+y,-z
-x,y,1/2+z
1/2+x,-y,z
1/2+x,1/2+y,1/2+z
1/2-x,-y,1/2+z
1/2+x,1/2-y,-z
-x,1/2+y,1/2-z
1/2-x,1/2-y,1/2-z
1/2+x,y,1/2-z
1/2-x,1/2+y,z
x,1/2-y,1/2+z
loop_
_atom_site_type_symbol
_atom_site_label
_atom_site_fract_x
_atom_site_fract_y
_atom_site_fract_z
Si Si1 0.689214 0.314811 0.011697
Si Si2 0.197744 0.837650 0.942597
Si Si3 0.071585 0.622392 0.491383
Si Si4 0.939468 0.428446 0.294622
Si Si5 0.000000 0.250000 0.053049
Si Si6 0.105593 0.314582 0.659526
Si Si7 0.844035 0.317135 0.759309
Si Si8 0.437325 0.926391 0.222077
O O1 0.674028 0.315295 0.127214
O O2 0.750000 0.347078 0.000000
O O3 0.695103 0.238395 0.978046
O O4 0.642296 0.338858 0.934507
O O5 0.201704 0.838940 0.822929
O O6 0.250000 0.868900 0.000000
O O7 0.136536 0.863437 0.969897
O O8 0.069097 0.579383 0.589362
O O9 0.050905 0.583178 0.394607
O O10 0.035332 0.691032 0.501468
O O11 0.926017 0.500000 0.250000
O O12 0.905568 0.373019 0.235812
O O13 0.004673 0.416413 0.276436
O O14 0.952785 0.286410 0.117814
O O15 0.134772 0.253888 0.718362
O O16 0.893879 0.369848 0.751088
O O17 0.416645 0.000000 0.250000
#
# Coordination Sequence:
#
# PCOD9530627 Si02
#       8
#    16  16  16  16   8  16  16  16
#     4  10  21  34  55  88 119 152 195 247 304 352
#     4   9  19  36  57  85 115 153 198 244 303 354
#     4  11  22  39  60  88 125 155 202 248 300 359
#     4  11  25  38  58  87 123 164 196 244 302 363
#     4  12  20  38  58  96 120 152 194 254 296 358
#     4  11  21  37  59  87 123 150 203 247 296 355
#     4  10  20  36  59  85 115 155 196 249 298 354
#     4  10  22  38  57  87 119 160 196 238 302 372
#
# _framework density 18.342352000000002
#
# number of rings (size 3 to 8) (size 9 to 14) (size 15 to 20)
#    0.000    1.600    5.333    0.800    1.867    9.600 
#    0.000    0.000    0.000   11.200    0.000    0.000 
#    0.000    0.000    0.000    0.000    0.000    0.000 
#
# Total GULP energy -334509.904343 kJ/mol
# GULP energy per Si atom -5575.165072 kJ/mol
# Density = 1.830060 g / cm^3
# Si number density = 18.342352 Si / 1000 Ang^3
#
#
#
# Elastic Constant Matrix: (Units=GPa)
#
#
# Indices 1 2 3 4 5 6 
#
# 1 65.7206 8.6937 18.2924 0.0000 0.0000 0.0000
# 2 8.6937 72.3015 31.2982 0.0000 0.0000 0.0000
# 3 18.2924 31.2982 106.4541 0.0000 0.0000 0.0000
# 4 0.0000 0.0000 0.0000 19.1674 0.0000 0.0000
# 5 0.0000 0.0000 0.0000 0.0000 9.3556 0.0000
# 6 0.0000 0.0000 0.0000 0.0000 0.0000 -0.3783
#
#
#
# Elastic Compliance Matrix: (Units=1/GPa)
#
#
# Indices 1 2 3 4 5 6 
#
# 1 0.016025 -0.000842 -0.002506 0.000000 0.000000 0.000000
# 2 -0.000842 0.015892 -0.004528 0.000000 0.000000 0.000000
# 3 -0.002506 -0.004528 0.011156 0.000000 0.000000 0.000000
# 4 0.000000 0.000000 0.000000 0.052172 0.000000 0.000000
# 5 0.000000 0.000000 0.000000 0.000000 0.106888 0.000000
# 6 0.000000 0.000000 0.000000 0.000000 0.000000 -2.643171
#
#
# Mechanical properties :
#
#
# Convention : Reuss Voigt Hill
#
# Bulk Modulus (GPa) = 36.60194 40.11610 38.35902
# Shear Modulus (GPa) = -2.06938 18.04172 7.98617
#
# Velocity S-wave (km/s) = -1.06332 3.13966 2.08888
# Velocity P-wave (km/s) = 4.30008 5.92128 5.17456
#
# Compressibility (1/GPa) = 0.02732096
#
# Stress axis : x y z
#
# Youngs Moduli (GPa) = 62.40311 62.92394 89.64172
#
# Poissons Ratio (x) = 0.05298 0.22465
# Poissons Ratio (y) = 0.05255 0.40587
# Poissons Ratio (z) = 0.15639 0.28490
#
# Static dielectric constant tensor:
#      x y z
#    x 1.696100 0.000000 0.000000 
#    y 0.000000 1.630190 0.000000 
#    z 0.000000 0.000000 1.641550 
# 
# From -- ./inp_files/13825.got.cif
#   From: 2010.05.17/outbox.cif.g08.bks.cpg/sg73_7_cif.got.tgz:13825.got - 2010.06.03 17:35:07.
