data_PCOD9530285
_publ_section_title
;
Structure prediction by ZEFSAII (Michael W. Deem and Ramdas Pophale) SiO2 
 PCOD9530285
Probable space group: I B C A 
;
_chemical_formula_sum "Si O2"
_cell_formula_units_Z 80
_cell_length_a 10.541597
_cell_length_b 28.574739
_cell_length_c 11.033086
_cell_angle_alpha 90.000000
_cell_angle_beta 90.000000
_cell_angle_gamma 90.000000
_cell_volume 3323.423489
_symmetry_space_group_name_H-M "I B C A "
_symmetry_group_IT_number 73
_symmetry_cell_setting 'orthorhombic'
loop_
_space_group_symop_operation_xyz
x,y,z
-x,1/2-y,z
x,-y,1/2-z
1/2-x,y,-z
-x,-y,-z
x,1/2+y,-z
-x,y,1/2+z
1/2+x,-y,z
1/2+x,1/2+y,1/2+z
1/2-x,-y,1/2+z
1/2+x,1/2-y,-z
-x,1/2+y,1/2-z
1/2-x,1/2-y,1/2-z
1/2+x,y,1/2-z
1/2-x,1/2+y,z
x,1/2-y,1/2+z
loop_
_atom_site_type_symbol
_atom_site_label
_atom_site_fract_x
_atom_site_fract_y
_atom_site_fract_z
Si Si1 0.250000 0.018288 0.000000
Si Si2 0.250000 0.356707 0.000000
Si Si3 0.644622 0.069616 0.136242
Si Si4 0.189104 0.698111 0.259974
Si Si5 0.500000 0.750000 0.108460
Si Si6 0.750000 0.296793 0.000000
Si Si7 0.614289 0.445435 0.214775
O O1 0.341245 0.050744 0.076962
O O2 0.164588 0.982568 0.081174
O O3 0.363536 0.393196 0.028051
O O4 0.243829 0.326914 0.121650
O O5 0.525008 0.074640 0.221892
O O6 0.774581 0.077471 0.208907
O O7 0.250000 0.750000 0.250000
O O8 0.044913 0.708321 0.301990
O O9 0.215380 0.677313 0.126736
O O10 0.379208 0.733189 0.028948
O O11 0.606473 0.500000 0.250000
#
# Coordination Sequence:
#
# PCOD9530285 Si02
#       7
#     8   8  16  16   8   8  16
#     4   9  18  34  70  97 130 186 242 285 326 410
#     4  11  25  46  66  95 147 184 226 307 371 430
#     4  10  22  39  62  99 139 186 226 291 370 406
#     4  10  21  42  71  96 126 176 234 293 357 437
#     4  10  20  40  74 108 132 162 232 296 358 436
#     4  10  21  40  70 106 131 168 226 282 355 428
#     4  10  19  37  65 100 139 186 244 285 334 432
#
# _framework density 24.071563000000001
#
# number of rings (size 3 to 8) (size 9 to 14) (size 15 to 20)
#    0.000    2.000    0.000    5.400    0.000    4.800 
#   10.800    1.000    0.000    0.000    0.000    0.000 
#    0.000    0.000    0.000    0.000    0.000    0.000 
#
# Total GULP energy -223119.237965 kJ/mol
# GULP energy per Si atom -5577.980949 kJ/mol
# Density = 2.401677 g / cm^3
# Si number density = 24.071563 Si / 1000 Ang^3
#
#
#
# Elastic Constant Matrix: (Units=GPa)
#
#
# Indices 1 2 3 4 5 6 
#
# 1 152.8325 17.8242 66.7141 0.0035 -0.0001 0.0000
# 2 17.8242 63.1158 36.8017 0.0000 0.0000 0.0000
# 3 66.7141 36.8017 169.6517 0.0116 -0.0004 -0.0013
# 4 0.0035 0.0000 0.0116 80.5876 0.0056 -0.0004
# 5 -0.0001 0.0000 -0.0004 0.0056 45.1132 -0.0003
# 6 0.0000 0.0000 -0.0013 -0.0004 -0.0003 -22.8274
#
#
#
# Elastic Compliance Matrix: (Units=1/GPa)
#
#
# Indices 1 2 3 4 5 6 
#
# 1 0.007912 -0.000481 -0.003007 0.000000 0.000000 0.000000
# 2 -0.000481 0.018167 -0.003752 0.000001 0.000000 0.000000
# 3 -0.003007 -0.003752 0.007891 -0.000001 0.000000 0.000000
# 4 0.000000 0.000001 -0.000001 0.012409 -0.000002 0.000000
# 5 0.000000 0.000000 0.000000 -0.000002 0.022166 0.000000
# 6 0.000000 0.000000 0.000000 0.000000 0.000000 -0.043807
#
#
# Mechanical properties :
#
#
# Convention : Reuss Voigt Hill
#
# Bulk Modulus (GPa) = 51.30738 69.80891 60.55814
# Shear Modulus (GPa) = 109.37461 38.19201 73.78331
#
# Velocity S-wave (km/s) = 6.74803 3.98754 5.54240
# Velocity P-wave (km/s) = 9.05954 7.08972 8.13448
#
# Compressibility (1/GPa) = 0.01949037
#
# Stress axis : x y z
#
# Youngs Moduli (GPa) = 126.39392 55.04382 126.73122
#
# Poissons Ratio (x) = 0.02648 0.38107
# Poissons Ratio (y) = 0.06080 0.47547
# Poissons Ratio (z) = 0.38005 0.20651
#
# Static dielectric constant tensor:
#      x y z
#    x 1.962790 0.000000 0.000000 
#    y 0.000000 1.975320 0.000000 
#    z 0.000000 0.000000 2.063670 
# 
# From -- ./inp_files/9828.got.cif
#   From: 2010.05.17/outbox.cif.g08.bks.cpg/sg73_5_cif.got.tgz:9828.got - 2010.06.03 17:35:07.
