data_PCOD9530402
_publ_section_title
;
Structure prediction by ZEFSAII (Michael W. Deem and Ramdas Pophale) SiO2 
 PCOD9530402
Probable space group: I B C A 
;
_chemical_formula_sum "Si O2"
_cell_formula_units_Z 104
_cell_length_a 25.174509
_cell_length_b 8.544678
_cell_length_c 25.923162
_cell_angle_alpha 90.000000
_cell_angle_beta 90.000000
_cell_angle_gamma 90.000000
_cell_volume 5576.281429
_symmetry_space_group_name_H-M "I B C A "
_symmetry_group_IT_number 73
_symmetry_cell_setting 'orthorhombic'
loop_
_space_group_symop_operation_xyz
x,y,z
-x,1/2-y,z
x,-y,1/2-z
1/2-x,y,-z
-x,-y,-z
x,1/2+y,-z
-x,y,1/2+z
1/2+x,-y,z
1/2+x,1/2+y,1/2+z
1/2-x,-y,1/2+z
1/2+x,1/2-y,-z
-x,1/2+y,1/2-z
1/2-x,1/2-y,1/2-z
1/2+x,y,1/2-z
1/2-x,1/2+y,z
x,1/2-y,1/2+z
loop_
_atom_site_type_symbol
_atom_site_label
_atom_site_fract_x
_atom_site_fract_y
_atom_site_fract_z
Si Si1 0.687427 0.178748 0.362553
Si Si2 0.038931 0.376872 0.973638
Si Si3 0.810614 0.187163 0.245861
Si Si4 0.892625 0.149819 0.544637
Si Si5 0.819575 0.346617 0.952194
Si Si6 0.750000 0.918314 0.500000
Si Si7 0.309276 0.304512 0.145965
O O1 0.666806 0.251825 0.308417
O O2 0.648762 0.208414 0.411645
O O3 0.747726 0.248004 0.364604
O O4 0.690261 0.990900 0.358442
O O5 0.076526 0.490326 0.939580
O O6 0.000000 0.250000 0.947167
O O7 0.070151 0.284315 0.019585
O O8 0.000000 0.500000 0.000000
O O9 0.689553 0.500000 0.250000
O O10 0.750000 0.250000 0.250000
O O11 0.832587 0.257835 0.298701
O O12 0.861253 0.095628 0.493527
O O13 0.840003 0.295406 0.897233
O O14 0.794723 0.190749 0.976784
O O15 0.772755 0.473125 0.954856
#
# Coordination Sequence:
#
# PCOD9530402 Si02
#       7
#    16  16  16  16  16   8  16
#     4  11  21  33  49  73 104 145 192 227 257 298
#     4   9  20  38  55  74 104 133 162 213 287 352
#     4  10  20  33  48  66  96 147 195 228 256 287
#     4  11  21  33  54  79 104 135 174 218 261 327
#     4  11  20  30  45  71 103 141 180 210 254 306
#     4  10  20  30  40  66 112 150 176 218 262 296
#     4  11  20  32  47  68 108 152 185 223 258 292
#
# _framework density 18.650421000000001
#
# number of rings (size 3 to 8) (size 9 to 14) (size 15 to 20)
#    0.000    1.538    0.000    9.692    0.000    3.692 
#    0.000    0.000    0.000    0.000    0.000    0.000 
#    0.000  112.000    0.000    0.308    0.000    0.000 
#
# Total GULP energy -289853.145060 kJ/mol
# GULP energy per Si atom -5574.098943 kJ/mol
# Density = 1.860797 g / cm^3
# Si number density = 18.650421 Si / 1000 Ang^3
#
#
#
# Elastic Constant Matrix: (Units=GPa)
#
#
# Indices 1 2 3 4 5 6 
#
# 1 44.4751 21.1585 13.3965 0.0000 0.0000 0.0000
# 2 21.1585 104.3186 11.3602 0.0000 0.0000 0.0000
# 3 13.3965 11.3602 107.3757 0.0000 0.0000 0.0000
# 4 0.0000 0.0000 0.0000 26.1192 0.0000 0.0000
# 5 0.0000 0.0000 0.0000 0.0000 10.1852 0.0000
# 6 0.0000 0.0000 0.0000 0.0000 0.0000 37.7504
#
#
#
# Elastic Compliance Matrix: (Units=1/GPa)
#
#
# Indices 1 2 3 4 5 6 
#
# 1 0.025625 -0.004906 -0.002678 0.000000 0.000000 0.000000
# 2 -0.004906 0.010637 -0.000513 0.000000 0.000000 0.000000
# 3 -0.002678 -0.000513 0.009702 0.000000 0.000000 0.000000
# 4 0.000000 0.000000 0.000000 0.038286 0.000000 0.000000
# 5 0.000000 0.000000 0.000000 0.000000 0.098182 0.000000
# 6 0.000000 0.000000 0.000000 0.000000 0.000000 0.026490
#
#
# Mechanical properties :
#
#
# Convention : Reuss Voigt Hill
#
# Bulk Modulus (GPa) = 33.59173 38.66665 36.12919
# Shear Modulus (GPa) = 21.27313 28.82791 25.05052
#
# Velocity S-wave (km/s) = 3.38098 3.93580 3.66889
# Velocity P-wave (km/s) = 5.76990 6.43672 6.11241
#
# Compressibility (1/GPa) = 0.02976923
#
# Stress axis : x y z
#
# Youngs Moduli (GPa) = 39.02440 94.01205 103.07663
#
# Poissons Ratio (x) = 0.46120 0.27604
# Poissons Ratio (y) = 0.19144 0.05291
# Poissons Ratio (z) = 0.10451 0.04826
#
# Static dielectric constant tensor:
#      x y z
#    x 1.762960 0.000000 0.000000 
#    y 0.000000 1.984350 0.000000 
#    z 0.000000 0.000000 1.634790 
# 
# From -- ./inp_files/32982.got.cif
#   From: 2010.05.17/outbox.cif.g08.bks.cpg/sg73_17_cif.got.tgz:32982.got - 2010.06.03 17:35:07.
