data_PCOD9530185
_publ_section_title
;
Structure prediction by ZEFSAII (Michael W. Deem and Ramdas Pophale) SiO2 
 PCOD9530185
Probable space group: I B C A 
;
_chemical_formula_sum "Si O2"
_cell_formula_units_Z 96
_cell_length_a 10.722859
_cell_length_b 19.448547
_cell_length_c 21.291060
_cell_angle_alpha 90.000000
_cell_angle_beta 90.000000
_cell_angle_gamma 90.000000
_cell_volume 4440.123397
_symmetry_space_group_name_H-M "I B C A "
_symmetry_group_IT_number 73
_symmetry_cell_setting 'orthorhombic'
loop_
_space_group_symop_operation_xyz
x,y,z
-x,1/2-y,z
x,-y,1/2-z
1/2-x,y,-z
-x,-y,-z
x,1/2+y,-z
-x,y,1/2+z
1/2+x,-y,z
1/2+x,1/2+y,1/2+z
1/2-x,-y,1/2+z
1/2+x,1/2-y,-z
-x,1/2+y,1/2-z
1/2-x,1/2-y,1/2-z
1/2+x,y,1/2-z
1/2-x,1/2+y,z
x,1/2-y,1/2+z
loop_
_atom_site_type_symbol
_atom_site_label
_atom_site_fract_x
_atom_site_fract_y
_atom_site_fract_z
Si Si1 0.439798 0.585597 0.446075
Si Si2 0.570480 0.435809 0.924069
Si Si3 0.196740 0.416897 0.747523
Si Si4 0.444571 0.571848 0.711748
Si Si5 0.641342 0.266671 0.550517
Si Si6 0.807305 0.632576 0.615244
O O1 0.477779 0.581096 0.519285
O O2 0.378254 0.513371 0.430073
O O3 0.361801 0.653289 0.432232
O O4 0.570418 0.592467 0.408326
O O5 0.502527 0.434368 0.857110
O O6 0.687476 0.385432 0.926958
O O7 0.178800 0.500000 0.750000
O O8 0.306049 0.398075 0.795338
O O9 0.055356 0.389276 0.750101
O O10 0.262033 0.392925 0.682890
O O11 0.427249 0.500000 0.750000
O O12 0.500000 0.250000 0.526309
O O13 0.750000 0.255935 0.500000
O O14 0.663266 0.212875 0.606760
#
# Coordination Sequence:
#
# PCOD9530185 Si02
#       6
#    16  16  16  16  16  16
#     4  10  20  33  54  87 117 149 193 242 295 359
#     4  10  20  33  55  87 121 149 189 250 304 345
#     4   9  17  30  52  79 107 141 188 240 288 337
#     4   9  17  31  49  79 112 146 185 236 296 342
#     4  10  21  38  57  81 116 159 195 228 285 361
#     4  10  19  35  56  80 113 155 194 237 297 358
#
# _framework density 21.621020999999999
#
# number of rings (size 3 to 8) (size 9 to 14) (size 15 to 20)
#    0.000    2.333    0.000    4.500    0.000    2.667 
#    0.000    3.333    0.000    0.000    0.000  172.667 
#    0.000    0.000    0.000    0.000    0.000    0.000 
#
# Total GULP energy -267638.088023 kJ/mol
# GULP energy per Si atom -5575.793500 kJ/mol
# Density = 2.157181 g / cm^3
# Si number density = 21.621021 Si / 1000 Ang^3
#
#
#
# Elastic Constant Matrix: (Units=GPa)
#
#
# Indices 1 2 3 4 5 6 
#
# 1 78.1143 17.1590 -3.3926 0.0000 0.0000 0.0000
# 2 17.1590 98.8921 11.2280 0.0000 0.0000 0.0000
# 3 -3.3926 11.2280 38.4144 0.0000 0.0000 0.0000
# 4 0.0000 0.0000 0.0000 9.3046 0.0000 0.0000
# 5 0.0000 0.0000 0.0000 0.0000 14.1608 0.0000
# 6 0.0000 0.0000 0.0000 0.0000 0.0000 19.7278
#
#
#
# Elastic Compliance Matrix: (Units=1/GPa)
#
#
# Indices 1 2 3 4 5 6 
#
# 1 0.013446 -0.002553 0.001934 0.000000 0.000000 0.000000
# 2 -0.002553 0.010944 -0.003424 0.000000 0.000000 0.000000
# 3 0.001934 -0.003424 0.027204 0.000000 0.000000 0.000000
# 4 0.000000 0.000000 0.000000 0.107474 0.000000 0.000000
# 5 0.000000 0.000000 0.000000 0.000000 0.070618 0.000000
# 6 0.000000 0.000000 0.000000 0.000000 0.000000 0.050690
#
#
# Mechanical properties :
#
#
# Convention : Reuss Voigt Hill
#
# Bulk Modulus (GPa) = 22.98460 29.48995 26.23728
# Shear Modulus (GPa) = 16.50359 21.33371 18.91865
#
# Velocity S-wave (km/s) = 2.76581 3.14460 2.96127
# Velocity P-wave (km/s) = 4.56655 5.18207 4.88401
#
# Compressibility (1/GPa) = 0.04350739
#
# Stress axis : x y z
#
# Youngs Moduli (GPa) = 74.36897 91.37660 36.75993
#
# Poissons Ratio (x) = 0.23325 -0.07108
# Poissons Ratio (y) = 0.18984 0.12587
# Poissons Ratio (z) = -0.14380 0.31289
#
# Static dielectric constant tensor:
#      x y z
#    x 1.864380 0.000000 0.000000 
#    y 0.000000 1.776550 0.000000 
#    z 0.000000 0.000000 1.833350 
# 
# From -- ./inp_files/25474.got.cif
#   From: 2010.05.17/outbox.cif.g08.bks.cpg/sg73_13_cif.got.tgz:25474.got - 2010.06.03 17:35:07.
