data_PCOD9530430
_publ_section_title
;
Structure prediction by ZEFSAII (Michael W. Deem and Ramdas Pophale) SiO2 
 PCOD9530430
Probable space group: I B C A 
;
_chemical_formula_sum "Si O2"
_cell_formula_units_Z 72
_cell_length_a 23.717522
_cell_length_b 4.979846
_cell_length_c 28.243673
_cell_angle_alpha 90.000000
_cell_angle_beta 90.000000
_cell_angle_gamma 90.000000
_cell_volume 3335.849120
_symmetry_space_group_name_H-M "I B C A "
_symmetry_group_IT_number 73
_symmetry_cell_setting 'orthorhombic'
loop_
_space_group_symop_operation_xyz
x,y,z
-x,1/2-y,z
x,-y,1/2-z
1/2-x,y,-z
-x,-y,-z
x,1/2+y,-z
-x,y,1/2+z
1/2+x,-y,z
1/2+x,1/2+y,1/2+z
1/2-x,-y,1/2+z
1/2+x,1/2-y,-z
-x,1/2+y,1/2-z
1/2-x,1/2-y,1/2-z
1/2+x,y,1/2-z
1/2-x,1/2+y,z
x,1/2-y,1/2+z
loop_
_atom_site_type_symbol
_atom_site_label
_atom_site_fract_x
_atom_site_fract_y
_atom_site_fract_z
Si Si1 0.433282 0.281815 0.659120
Si Si2 0.539960 0.000000 0.250000
Si Si3 0.601476 0.720851 0.608663
Si Si4 0.208376 0.500000 0.250000
Si Si5 0.500000 0.750000 0.534572
Si Si6 0.209936 0.038393 0.643836
O O1 0.500000 0.250000 0.649966
O O2 0.423855 0.145467 0.709878
O O3 0.423574 0.593351 0.650592
O O4 0.399250 0.091374 0.623074
O O5 0.500000 0.750000 0.233788
O O6 0.556538 0.754710 0.566612
O O7 0.663620 0.851118 0.606778
O O8 0.250000 0.750000 0.250000
O O9 0.182210 0.529107 0.302697
O O10 0.500000 0.500000 0.500000
O O11 0.261773 0.247396 0.639892
#
# Coordination Sequence:
#
# PCOD9530430 Si02
#       6
#    16   8  16   8   8  16
#     4  11  20  36  55  87 128 165 212 251 301 377
#     4  10  20  32  50  82 130 180 208 248 308 374
#     4  12  23  40  67  91 123 169 214 267 332 390
#     4   8  16  32  54  82 122 166 214 256 284 332
#     4  12  26  46  70  96 124 156 212 280 354 424
#     4  10  21  38  60  92 129 170 218 261 303 368
#
# _framework density 21.583708000000001
#
# number of rings (size 3 to 8) (size 9 to 14) (size 15 to 20)
#    0.000    1.333    2.222    5.333    0.000    1.778 
#    0.000    2.222    0.000    4.000    0.000    0.000 
#    0.000    0.000    0.000    0.000    0.000    0.000 
#
# Total GULP energy -200653.401392 kJ/mol
# GULP energy per Si atom -5573.705594 kJ/mol
# Density = 2.153458 g / cm^3
# Si number density = 21.583708 Si / 1000 Ang^3
#
#
#
# Elastic Constant Matrix: (Units=GPa)
#
#
# Indices 1 2 3 4 5 6 
#
# 1 94.6922 1.7475 40.0328 0.0000 0.0000 0.0000
# 2 1.7475 121.8180 26.6484 0.0000 0.0000 0.0000
# 3 40.0328 26.6484 104.1503 0.0000 0.0000 0.0000
# 4 0.0000 0.0000 0.0000 25.8401 0.0000 0.0000
# 5 0.0000 0.0000 0.0000 0.0000 20.3303 0.0000
# 6 0.0000 0.0000 0.0000 0.0000 0.0000 29.4664
#
#
#
# Elastic Compliance Matrix: (Units=1/GPa)
#
#
# Indices 1 2 3 4 5 6 
#
# 1 0.012710 0.000939 -0.005126 0.000000 0.000000 0.000000
# 2 0.000939 0.008765 -0.002604 0.000000 0.000000 0.000000
# 3 -0.005126 -0.002604 0.012238 0.000000 0.000000 0.000000
# 4 0.000000 0.000000 0.000000 0.038700 0.000000 0.000000
# 5 0.000000 0.000000 0.000000 0.000000 0.049188 0.000000
# 6 0.000000 0.000000 0.000000 0.000000 0.000000 0.033937
#
#
# Mechanical properties :
#
#
# Convention : Reuss Voigt Hill
#
# Bulk Modulus (GPa) = 49.67114 50.83532 50.25323
# Shear Modulus (GPa) = 28.43676 31.94282 30.18979
#
# Velocity S-wave (km/s) = 3.63369 3.85119 3.74402
# Velocity P-wave (km/s) = 6.37716 6.58629 6.48257
#
# Compressibility (1/GPa) = 0.02013241
#
# Stress axis : x y z
#
# Youngs Moduli (GPa) = 78.67698 114.08955 81.71355
#
# Poissons Ratio (x) = -0.10712 0.41884
# Poissons Ratio (y) = -0.07387 0.21275
# Poissons Ratio (z) = 0.40328 0.29704
#
# Static dielectric constant tensor:
#      x y z
#    x 1.874840 0.000000 0.000000 
#    y 0.000000 1.737570 0.000000 
#    z 0.000000 0.000000 1.839800 
# 
# From -- ./inp_files/27751.got.cif
#   From: 2010.05.17/outbox.cif.g08.bks.cpg/sg73_14_cif.got.tgz:27751.got - 2010.06.03 17:35:07.
