data_PCOD9530057
_publ_section_title
;
Structure prediction by ZEFSAII (Michael W. Deem and Ramdas Pophale) SiO2 
 PCOD9530057
Probable space group: I B C A 
;
_chemical_formula_sum "Si O2"
_cell_formula_units_Z 96
_cell_length_a 10.095115
_cell_length_b 22.195831
_cell_length_c 19.061427
_cell_angle_alpha 90.000000
_cell_angle_beta 90.000000
_cell_angle_gamma 90.000000
_cell_volume 4271.083778
_symmetry_space_group_name_H-M "I B C A "
_symmetry_group_IT_number 73
_symmetry_cell_setting 'orthorhombic'
loop_
_space_group_symop_operation_xyz
x,y,z
-x,1/2-y,z
x,-y,1/2-z
1/2-x,y,-z
-x,-y,-z
x,1/2+y,-z
-x,y,1/2+z
1/2+x,-y,z
1/2+x,1/2+y,1/2+z
1/2-x,-y,1/2+z
1/2+x,1/2-y,-z
-x,1/2+y,1/2-z
1/2-x,1/2-y,1/2-z
1/2+x,y,1/2-z
1/2-x,1/2+y,z
x,1/2-y,1/2+z
loop_
_atom_site_type_symbol
_atom_site_label
_atom_site_fract_x
_atom_site_fract_y
_atom_site_fract_z
Si Si1 0.000000 0.250000 0.822773
Si Si2 0.197934 0.170323 0.379136
Si Si3 0.197191 0.039958 0.423129
Si Si4 0.107542 0.554060 0.122822
Si Si5 0.750000 0.629768 0.500000
Si Si6 0.132868 0.714104 0.893462
Si Si7 0.300063 0.343954 0.723646
O O1 0.950179 0.194504 0.869373
O O2 0.888456 0.282946 0.777923
O O3 0.216127 0.111444 0.423200
O O4 0.266191 0.231009 0.404478
O O5 0.249438 0.150610 0.302237
O O6 0.250000 0.020173 0.500000
O O7 0.042111 0.033671 0.399282
O O8 0.294621 0.003448 0.371288
O O9 0.171015 0.592731 0.058881
O O10 0.124584 0.597956 0.190806
O O11 0.857352 0.670984 0.460118
O O12 0.179069 0.672907 0.828338
O O13 0.000000 0.750000 0.881545
#
# Coordination Sequence:
#
# PCOD9530057 Si02
#       7
#     8  16  16  16   8  16  16
#     4  10  18  44  66  96 148 168 218 274 346 410
#     4  11  25  39  68 106 131 183 219 283 346 420
#     4  12  27  46  72  98 136 186 236 290 346 410
#     4  11  25  49  69  96 137 183 234 294 341 404
#     4  10  24  42  64  96 134 184 222 288 342 408
#     4  10  23  37  64  99 137 173 220 272 338 420
#     4  10  23  42  69  99 139 177 219 281 349 405
#
# _framework density 22.47673
#
# number of rings (size 3 to 8) (size 9 to 14) (size 15 to 20)
#    0.000    1.333    2.500    2.500    8.167    2.000 
#    3.000    1.667    0.000    0.000    0.000    0.000 
#    0.000    0.000    0.000    0.000    0.000    0.000 
#
# Total GULP energy -267872.292161 kJ/mol
# GULP energy per Si atom -5580.672753 kJ/mol
# Density = 2.242557 g / cm^3
# Si number density = 22.476730 Si / 1000 Ang^3
#
#
#
# Elastic Constant Matrix: (Units=GPa)
#
#
# Indices 1 2 3 4 5 6 
#
# 1 81.3169 22.7421 16.8860 0.0000 0.0000 0.0000
# 2 22.7421 104.5049 27.2914 0.0000 0.0000 0.0000
# 3 16.8860 27.2914 70.7366 0.0000 0.0000 0.0000
# 4 0.0000 0.0000 0.0000 -27.9150 0.0000 0.0000
# 5 0.0000 0.0000 0.0000 0.0000 -34.0389 0.0000
# 6 0.0000 0.0000 0.0000 0.0000 0.0000 20.0160
#
#
#
# Elastic Compliance Matrix: (Units=1/GPa)
#
#
# Indices 1 2 3 4 5 6 
#
# 1 0.013426 -0.002318 -0.002311 0.000000 0.000000 0.000000
# 2 -0.002318 0.011041 -0.003707 0.000000 0.000000 0.000000
# 3 -0.002311 -0.003707 0.016119 0.000000 0.000000 0.000000
# 4 0.000000 0.000000 0.000000 -0.035823 0.000000 0.000000
# 5 0.000000 0.000000 0.000000 0.000000 -0.029378 0.000000
# 6 0.000000 0.000000 0.000000 0.000000 0.000000 0.049960
#
#
# Mechanical properties :
#
#
# Convention : Reuss Voigt Hill
#
# Bulk Modulus (GPa) = 41.81478 43.37750 42.59614
# Shear Modulus (GPa) = 100.02644 4.25502 52.14073
#
# Velocity S-wave (km/s) = 6.67824 1.37738 4.82162
# Velocity P-wave (km/s) = 8.83793 4.67657 7.07034
#
# Compressibility (1/GPa) = 0.02391499
#
# Stress axis : x y z
#
# Youngs Moduli (GPa) = 74.48393 90.56834 62.04027
#
# Poissons Ratio (x) = 0.20996 0.14334
# Poissons Ratio (y) = 0.17268 0.22995
# Poissons Ratio (z) = 0.17210 0.33570
#
# Static dielectric constant tensor:
#      x y z
#    x 3.880830 0.000000 0.000000 
#    y 0.000000 1.794790 0.000000 
#    z 0.000000 0.000000 1.846680 
# 
# From -- ./inp_files/25490.got.cif
#   From: 2010.05.17/outbox.cif.g08.bks.cpg/sg73_13_cif.got.tgz:25490.got - 2010.06.03 17:35:07.
