data_PCOD9530507
_publ_section_title
;
Structure prediction by ZEFSAII (Michael W. Deem and Ramdas Pophale) SiO2 
 PCOD9530507
Probable space group: I B C A 
;
_chemical_formula_sum "Si O2"
_cell_formula_units_Z 80
_cell_length_a 9.929902
_cell_length_b 17.964092
_cell_length_c 16.975246
_cell_angle_alpha 90.000000
_cell_angle_beta 90.000000
_cell_angle_gamma 90.000000
_cell_volume 3028.072782
_symmetry_space_group_name_H-M "I B C A "
_symmetry_group_IT_number 73
_symmetry_cell_setting 'orthorhombic'
loop_
_space_group_symop_operation_xyz
x,y,z
-x,1/2-y,z
x,-y,1/2-z
1/2-x,y,-z
-x,-y,-z
x,1/2+y,-z
-x,y,1/2+z
1/2+x,-y,z
1/2+x,1/2+y,1/2+z
1/2-x,-y,1/2+z
1/2+x,1/2-y,-z
-x,1/2+y,1/2-z
1/2-x,1/2-y,1/2-z
1/2+x,y,1/2-z
1/2-x,1/2+y,z
x,1/2-y,1/2+z
loop_
_atom_site_type_symbol
_atom_site_label
_atom_site_fract_x
_atom_site_fract_y
_atom_site_fract_z
Si Si1 0.299658 0.140672 0.391902
Si Si2 0.531525 0.164168 0.731849
Si Si3 0.250000 0.231536 0.000000
Si Si4 0.750000 0.472657 0.500000
Si Si5 0.284749 0.423095 0.297465
Si Si6 0.569654 0.402877 0.963364
O O1 0.385969 0.158456 0.315026
O O2 0.236027 0.215698 0.424394
O O3 0.413811 0.113868 0.454814
O O4 0.212116 0.069362 0.416415
O O5 0.500000 0.250000 0.713086
O O6 0.643357 0.118499 0.682869
O O7 0.385999 0.124777 0.740391
O O8 0.372835 0.176675 0.988285
O O9 0.629026 0.532479 0.482523
O O10 0.257460 0.500000 0.250000
O O11 0.371133 0.422827 0.377075
#
# Coordination Sequence:
#
# PCOD9530507 Si02
#       6
#    16  16   8   8  16  16
#     4  10  20  37  59  83 116 158 199 252 313 363
#     4  11  23  41  64  91 127 169 212 262 318 375
#     4  10  20  36  58  82 110 152 196 240 304 368
#     4  10  20  34  58  86 114 152 204 250 308 374
#     4  11  23  41  64  92 128 171 215 261 314 375
#     4  10  21  38  58  86 122 156 200 256 308 364
#
# _framework density 26.419443999999999
#
# number of rings (size 3 to 8) (size 9 to 14) (size 15 to 20)
#    0.000    1.600    0.000    6.000    0.000    1.600 
#    0.000   14.000    0.000    0.000    0.000    0.000 
#    0.000    0.000    0.000    0.000    0.000    0.000 
#
# Total GULP energy -223230.185873 kJ/mol
# GULP energy per Si atom -5580.754647 kJ/mol
# Density = 2.635931 g / cm^3
# Si number density = 26.419444 Si / 1000 Ang^3
#
#
#
# Elastic Constant Matrix: (Units=GPa)
#
#
# Indices 1 2 3 4 5 6 
#
# 1 69.1828 11.1352 -20.4325 0.0000 0.0000 0.0000
# 2 11.1352 192.0301 19.8746 0.0000 0.0000 0.0000
# 3 -20.4325 19.8746 79.9343 0.0000 0.0000 0.0000
# 4 0.0000 0.0000 0.0000 24.8185 0.0000 0.0000
# 5 0.0000 0.0000 0.0000 0.0000 29.1995 0.0000
# 6 0.0000 0.0000 0.0000 0.0000 0.0000 11.0661
#
#
#
# Elastic Compliance Matrix: (Units=1/GPa)
#
#
# Indices 1 2 3 4 5 6 
#
# 1 0.015986 -0.001386 0.004431 0.000000 0.000000 0.000000
# 2 -0.001386 0.005465 -0.001713 0.000000 0.000000 0.000000
# 3 0.004431 -0.001713 0.014069 0.000000 0.000000 0.000000
# 4 0.000000 0.000000 0.000000 0.040293 0.000000 0.000000
# 5 0.000000 0.000000 0.000000 0.000000 0.034247 0.000000
# 6 0.000000 0.000000 0.000000 0.000000 0.000000 0.090366
#
#
# Mechanical properties :
#
#
# Convention : Reuss Voigt Hill
#
# Bulk Modulus (GPa) = 26.18866 40.25575 33.22220
# Shear Modulus (GPa) = 23.75418 35.05481 29.40449
#
# Velocity S-wave (km/s) = 3.00178 3.64656 3.33977
# Velocity P-wave (km/s) = 4.68491 5.74457 5.24159
#
# Compressibility (1/GPa) = 0.03818447
#
# Stress axis : x y z
#
# Youngs Moduli (GPa) = 62.55443 182.97746 71.07943
#
# Poissons Ratio (x) = 0.25353 -0.31494
# Poissons Ratio (y) = 0.08667 0.12176
# Poissons Ratio (z) = -0.27717 0.31344
#
# Static dielectric constant tensor:
#      x y z
#    x 2.311770 0.000000 0.000000 
#    y 0.000000 2.097920 0.000000 
#    z 0.000000 0.000000 2.031520 
# 
# From -- ./inp_files/25331.got.cif
#   From: 2010.05.17/outbox.cif.g08.bks.cpg/sg73_13_cif.got.tgz:25331.got - 2010.06.03 17:35:07.
