data_PCOD9530772
_publ_section_title
;
Structure prediction by ZEFSAII (Michael W. Deem and Ramdas Pophale) SiO2 
 PCOD9530772
Probable space group: I B C A 
;
_chemical_formula_sum "Si O2"
_cell_formula_units_Z 104
_cell_length_a 27.088200
_cell_length_b 16.767585
_cell_length_c 9.536243
_cell_angle_alpha 90.000000
_cell_angle_beta 90.000000
_cell_angle_gamma 90.000000
_cell_volume 4331.396817
_symmetry_space_group_name_H-M "I B C A "
_symmetry_group_IT_number 73
_symmetry_cell_setting 'orthorhombic'
loop_
_space_group_symop_operation_xyz
x,y,z
-x,1/2-y,z
x,-y,1/2-z
1/2-x,y,-z
-x,-y,-z
x,1/2+y,-z
-x,y,1/2+z
1/2+x,-y,z
1/2+x,1/2+y,1/2+z
1/2-x,-y,1/2+z
1/2+x,1/2-y,-z
-x,1/2+y,1/2-z
1/2-x,1/2-y,1/2-z
1/2+x,y,1/2-z
1/2-x,1/2+y,z
x,1/2-y,1/2+z
loop_
_atom_site_type_symbol
_atom_site_label
_atom_site_fract_x
_atom_site_fract_y
_atom_site_fract_z
Si Si1 0.190713 0.897775 0.806464
Si Si2 0.843637 0.948529 0.022296
Si Si3 0.895627 0.822529 0.402564
Si Si4 0.782012 0.500000 0.250000
Si Si5 0.469556 0.050510 0.386798
Si Si6 0.928444 0.911052 0.820719
Si Si7 0.059577 0.755798 0.153482
O O1 0.178037 0.889427 0.640885
O O2 0.163306 0.826303 0.887322
O O3 0.246731 0.929020 0.809069
O O4 0.162609 0.970844 0.886015
O O5 0.812657 0.964796 0.879840
O O6 0.896192 0.922342 0.960897
O O7 0.924845 0.901683 0.452678
O O8 0.918821 0.813511 0.248871
O O9 0.917598 0.754372 0.499327
O O10 0.514005 0.108587 0.343619
O O11 0.454928 0.000000 0.250000
O O12 0.500000 0.000000 0.500000
O O13 0.915244 0.835991 0.722851
O O14 0.926199 0.000000 0.750000
O O15 0.000000 0.750000 0.145744
#
# Coordination Sequence:
#
# PCOD9530772 Si02
#       7
#    16  16  16   8  16  16  16
#     4  10  22  38  61 106 136 173 225 282 356 427
#     4  10  20  37  70 102 135 170 222 293 356 423
#     4  12  27  43  66  93 142 191 230 289 350 424
#     4  10  20  40  72 108 138 174 220 298 376 426
#     4  11  24  37  61  95 133 171 223 285 339 404
#     4  11  22  41  65  97 127 173 238 287 346 413
#     4  12  27  47  64  95 140 193 243 284 347 425
#
# _framework density 24.010729000000001
#
# number of rings (size 3 to 8) (size 9 to 14) (size 15 to 20)
#    0.000    1.231    2.308    6.000    7.538    0.000 
#    0.000    0.000    0.000    0.923    0.000    0.000 
#    0.000    0.000    0.000    0.000    0.000    0.000 
#
# Total GULP energy -289846.790664 kJ/mol
# GULP energy per Si atom -5573.976744 kJ/mol
# Density = 2.395608 g / cm^3
# Si number density = 24.010729 Si / 1000 Ang^3
#
#
#
# Elastic Constant Matrix: (Units=GPa)
#
#
# Indices 1 2 3 4 5 6 
#
# 1 80.8005 18.1204 16.7703 0.0000 0.0000 0.0000
# 2 18.1204 47.2588 30.1580 0.0000 0.0000 0.0000
# 3 16.7703 30.1580 123.2104 0.0000 0.0000 0.0000
# 4 0.0000 0.0000 0.0000 31.3504 0.0000 0.0000
# 5 0.0000 0.0000 0.0000 0.0000 60.9150 0.0000
# 6 0.0000 0.0000 0.0000 0.0000 0.0000 8.5819
#
#
#
# Elastic Compliance Matrix: (Units=1/GPa)
#
#
# Indices 1 2 3 4 5 6 
#
# 1 0.013588 -0.004776 -0.000681 0.000000 0.000000 0.000000
# 2 -0.004776 0.026756 -0.005899 0.000000 0.000000 0.000000
# 3 -0.000681 -0.005899 0.009653 0.000000 0.000000 0.000000
# 4 0.000000 0.000000 0.000000 0.031897 0.000000 0.000000
# 5 0.000000 0.000000 0.000000 0.000000 0.016416 0.000000
# 6 0.000000 0.000000 0.000000 0.000000 0.000000 0.116524
#
#
# Mechanical properties :
#
#
# Convention : Reuss Voigt Hill
#
# Bulk Modulus (GPa) = 36.64871 42.37414 39.51142
# Shear Modulus (GPa) = 20.27240 32.58420 26.42830
#
# Velocity S-wave (km/s) = 2.90885 3.68784 3.32126
# Velocity P-wave (km/s) = 5.15543 5.98497 5.58562
#
# Compressibility (1/GPa) = 0.02728609
#
# Stress axis : x y z
#
# Youngs Moduli (GPa) = 73.59178 37.37525 103.59807
#
# Poissons Ratio (x) = 0.17850 0.07050
# Poissons Ratio (y) = 0.35147 0.61111
# Poissons Ratio (z) = 0.05008 0.22047
#
# Static dielectric constant tensor:
#      x y z
#    x 1.959280 0.000000 0.000000 
#    y 0.000000 2.531840 0.000000 
#    z 0.000000 0.000000 2.026210 
# 
# From -- ./inp_files/8475.got.cif
#   From: 2010.05.17/outbox.cif.g08.bks.cpg/sg73_5_cif.got.tgz:8475.got - 2010.06.03 17:35:07.
