data_PCOD9530918
_publ_section_title
;
Structure prediction by ZEFSAII (Michael W. Deem and Ramdas Pophale) SiO2 
 PCOD9530918
Probable space group: I B C A 
;
_chemical_formula_sum "Si O2"
_cell_formula_units_Z 96
_cell_length_a 15.787753
_cell_length_b 16.384184
_cell_length_c 19.654081
_cell_angle_alpha 90.000000
_cell_angle_beta 90.000000
_cell_angle_gamma 90.000000
_cell_volume 5083.910324
_symmetry_space_group_name_H-M "I B C A "
_symmetry_group_IT_number 73
_symmetry_cell_setting 'orthorhombic'
loop_
_space_group_symop_operation_xyz
x,y,z
-x,1/2-y,z
x,-y,1/2-z
1/2-x,y,-z
-x,-y,-z
x,1/2+y,-z
-x,y,1/2+z
1/2+x,-y,z
1/2+x,1/2+y,1/2+z
1/2-x,-y,1/2+z
1/2+x,1/2-y,-z
-x,1/2+y,1/2-z
1/2-x,1/2-y,1/2-z
1/2+x,y,1/2-z
1/2-x,1/2+y,z
x,1/2-y,1/2+z
loop_
_atom_site_type_symbol
_atom_site_label
_atom_site_fract_x
_atom_site_fract_y
_atom_site_fract_z
Si Si1 0.965452 0.551263 0.684321
Si Si2 0.344796 0.835070 0.612366
Si Si3 0.344411 0.304708 0.629311
Si Si4 0.581663 0.810144 0.262191
Si Si5 0.998446 0.435479 0.558905
Si Si6 0.095266 0.284141 0.008636
O O1 0.933100 0.500000 0.750000
O O2 0.907941 0.622016 0.650126
O O3 0.980161 0.482111 0.628563
O O4 0.048219 0.603989 0.707086
O O5 0.245242 0.849314 0.618940
O O6 0.382855 0.824520 0.687272
O O7 0.409549 0.893385 0.571168
O O8 0.349856 0.752466 0.569149
O O9 0.351966 0.238335 0.690269
O O10 0.369555 0.251318 0.562536
O O11 0.500000 0.750000 0.257606
O O12 0.924456 0.375802 0.531648
O O13 0.000000 0.500000 0.500000
O O14 0.000000 0.250000 0.010886
#
# Coordination Sequence:
#
# PCOD9530918 Si02
#       6
#    16  16  16  16  16  16
#     4  11  22  40  64  93 129 167 212 256 321 394
#     4  11  22  39  61  93 123 163 217 271 312 367
#     4  11  23  40  62  93 126 167 212 272 317 368
#     4  10  20  39  66  86 120 170 219 250 309 394
#     4  11  22  40  66  92 125 168 212 259 319 390
#     4  10  21  39  64  85 117 165 217 251 303 387
#
# _framework density 18.883102000000001
#
# number of rings (size 3 to 8) (size 9 to 14) (size 15 to 20)
#    0.000    1.333    1.667    7.000    2.333    0.000 
#    3.000    3.333    0.000    0.000    0.000    0.000 
#    0.000    0.000    0.000    0.000    0.000    0.000 
#
# Total GULP energy -267231.779089 kJ/mol
# GULP energy per Si atom -5567.328731 kJ/mol
# Density = 1.884012 g / cm^3
# Si number density = 18.883102 Si / 1000 Ang^3
#
#
#
# Elastic Constant Matrix: (Units=GPa)
#
#
# Indices 1 2 3 4 5 6 
#
# 1 103.9045 55.3282 74.6148 0.0000 0.0000 0.0000
# 2 55.3282 142.3434 92.7975 0.0000 0.0000 0.0000
# 3 74.6148 92.7975 172.5477 0.0000 0.0000 0.0000
# 4 0.0000 0.0000 0.0000 29.7806 0.0000 0.0000
# 5 0.0000 0.0000 0.0000 0.0000 -3.0894 0.0000
# 6 0.0000 0.0000 0.0000 0.0000 0.0000 21.4412
#
#
#
# Elastic Compliance Matrix: (Units=1/GPa)
#
#
# Indices 1 2 3 4 5 6 
#
# 1 0.014464 -0.002378 -0.004975 0.000000 0.000000 0.000000
# 2 -0.002378 0.011209 -0.005000 0.000000 0.000000 0.000000
# 3 -0.004975 -0.005000 0.010636 0.000000 0.000000 0.000000
# 4 0.000000 0.000000 0.000000 0.033579 0.000000 0.000000
# 5 0.000000 0.000000 0.000000 0.000000 -0.323685 0.000000
# 6 0.000000 0.000000 0.000000 0.000000 0.000000 0.046639
#
#
# Mechanical properties :
#
#
# Convention : Reuss Voigt Hill
#
# Bulk Modulus (GPa) = 86.19587 96.03074 91.11330
# Shear Modulus (GPa) = -27.99809 22.69682 -2.65063
#
# Velocity S-wave (km/s) = -3.85477 3.47070 -1.18607
# Velocity P-wave (km/s) = 5.09253 8.18699 6.81765
#
# Compressibility (1/GPa) = 0.01160148
#
# Stress axis : x y z
#
# Youngs Moduli (GPa) = 69.13947 89.21126 94.01986
#
# Poissons Ratio (x) = 0.21217 0.46778
# Poissons Ratio (y) = 0.16444 0.47010
# Poissons Ratio (z) = 0.34400 0.44606
#
# Static dielectric constant tensor:
#      x y z
#    x 1.689130 0.000000 0.000000 
#    y 0.000000 1.749250 0.000000 
#    z 0.000000 0.000000 1.659890 
# 
# From -- ./inp_files/17010.got.cif
#   From: 2010.05.17/outbox.cif.g08.bks.cpg/sg73_9_cif.got.tgz:17010.got - 2010.06.03 17:35:07.
