data_PCOD9530876
_publ_section_title
;
Structure prediction by ZEFSAII (Michael W. Deem and Ramdas Pophale) SiO2 
 PCOD9530876
Probable space group: I B C A 
;
_chemical_formula_sum "Si O2"
_cell_formula_units_Z 96
_cell_length_a 18.972235
_cell_length_b 26.420819
_cell_length_c 8.926140
_cell_angle_alpha 90.000000
_cell_angle_beta 90.000000
_cell_angle_gamma 90.000000
_cell_volume 4474.334672
_symmetry_space_group_name_H-M "I B C A "
_symmetry_group_IT_number 73
_symmetry_cell_setting 'orthorhombic'
loop_
_space_group_symop_operation_xyz
x,y,z
-x,1/2-y,z
x,-y,1/2-z
1/2-x,y,-z
-x,-y,-z
x,1/2+y,-z
-x,y,1/2+z
1/2+x,-y,z
1/2+x,1/2+y,1/2+z
1/2-x,-y,1/2+z
1/2+x,1/2-y,-z
-x,1/2+y,1/2-z
1/2-x,1/2-y,1/2-z
1/2+x,y,1/2-z
1/2-x,1/2+y,z
x,1/2-y,1/2+z
loop_
_atom_site_type_symbol
_atom_site_label
_atom_site_fract_x
_atom_site_fract_y
_atom_site_fract_z
Si Si1 0.697884 0.545220 0.867253
Si Si2 0.486014 0.649680 0.397049
Si Si3 0.903611 0.195644 0.610027
Si Si4 0.960304 0.963411 0.610271
Si Si5 0.861676 0.310428 0.572222
Si Si6 0.775361 0.840142 0.722341
O O1 0.701254 0.500000 0.750000
O O2 0.619537 0.549286 0.932923
O O3 0.717393 0.599731 0.799125
O O4 0.750000 0.533858 0.000000
O O5 0.450378 0.677208 0.253625
O O6 0.556025 0.675331 0.463234
O O7 0.496891 0.590523 0.362356
O O8 0.427822 0.654171 0.531021
O O9 0.894801 0.255687 0.600931
O O10 0.824076 0.175051 0.637483
O O11 0.953734 0.000000 0.750000
O O12 0.000000 0.000000 0.500000
O O13 0.815028 0.313433 0.419371
O O14 0.806393 0.324985 0.702997
#
# Coordination Sequence:
#
# PCOD9530876 Si02
#       6
#    16  16  16  16  16  16
#     4  11  22  43  76  99 137 181 228 286 352 405
#     4  11  23  42  63  99 140 174 225 280 333 405
#     4  11  23  38  67  99 134 184 222 274 338 406
#     4  11  23  41  69  99 134 180 225 280 341 407
#     4  10  20  38  68  94 130 176 222 272 345 395
#     4  10  20  43  68  97 132 175 225 288 338 400
#
# _framework density 21.455704000000001
#
# number of rings (size 3 to 8) (size 9 to 14) (size 15 to 20)
#    0.000    1.333    5.000    2.000    2.333    6.000 
#    0.000    1.667   11.000    0.000    0.000    0.000 
#    0.000    0.000    0.000    0.000    0.000    0.000 
#
# Total GULP energy -268036.506138 kJ/mol
# GULP energy per Si atom -5584.093878 kJ/mol
# Density = 2.140687 g / cm^3
# Si number density = 21.455704 Si / 1000 Ang^3
#
#
#
# Elastic Constant Matrix: (Units=GPa)
#
#
# Indices 1 2 3 4 5 6 
#
# 1 75.0972 50.3899 21.9642 0.0000 0.0000 0.0000
# 2 50.3899 199.7159 42.7773 0.0000 0.0000 0.0000
# 3 21.9642 42.7773 32.0947 0.0000 0.0000 0.0000
# 4 0.0000 0.0000 0.0000 33.8951 0.0000 0.0000
# 5 0.0000 0.0000 0.0000 0.0000 34.5279 0.0000
# 6 0.0000 0.0000 0.0000 0.0000 0.0000 37.8420
#
#
#
# Elastic Compliance Matrix: (Units=1/GPa)
#
#
# Indices 1 2 3 4 5 6 
#
# 1 0.017562 -0.002599 -0.008555 0.000000 0.000000 0.000000
# 2 -0.002599 0.007392 -0.008074 0.000000 0.000000 0.000000
# 3 -0.008555 -0.008074 0.047774 0.000000 0.000000 0.000000
# 4 0.000000 0.000000 0.000000 0.029503 0.000000 0.000000
# 5 0.000000 0.000000 0.000000 0.000000 0.028962 0.000000
# 6 0.000000 0.000000 0.000000 0.000000 0.000000 0.026426
#
#
# Mechanical properties :
#
#
# Convention : Reuss Voigt Hill
#
# Bulk Modulus (GPa) = 29.17793 59.68561 44.43177
# Shear Modulus (GPa) = 24.09651 34.03809 29.06730
#
# Velocity S-wave (km/s) = 3.35488 3.98733 3.68470
# Velocity P-wave (km/s) = 5.35122 7.00549 6.23348
#
# Compressibility (1/GPa) = 0.03427248
#
# Stress axis : x y z
#
# Youngs Moduli (GPa) = 56.94157 135.27767 20.93177
#
# Poissons Ratio (x) = 0.35153 0.17907
# Poissons Ratio (y) = 0.14797 0.16901
# Poissons Ratio (z) = 0.48714 1.09227
#
# Static dielectric constant tensor:
#      x y z
#    x 1.777760 0.000000 0.000000 
#    y 0.000000 1.923520 0.000000 
#    z 0.000000 0.000000 1.995540 
# 
# From -- ./inp_files/6445.got.cif
#   From: 2010.05.17/outbox.cif.g08.bks.cpg/sg73_4_cif.got.tgz:6445.got - 2010.06.03 17:35:07.
