data_PCOD9530537
_publ_section_title
;
Structure prediction by ZEFSAII (Michael W. Deem and Ramdas Pophale) SiO2 
 PCOD9530537
Probable space group: I B C A 
;
_chemical_formula_sum "Si O2"
_cell_formula_units_Z 120
_cell_length_a 29.556170
_cell_length_b 25.118264
_cell_length_c 9.078581
_cell_angle_alpha 90.000000
_cell_angle_beta 90.000000
_cell_angle_gamma 90.000000
_cell_volume 6739.935637
_symmetry_space_group_name_H-M "I B C A "
_symmetry_group_IT_number 73
_symmetry_cell_setting 'orthorhombic'
loop_
_space_group_symop_operation_xyz
x,y,z
-x,1/2-y,z
x,-y,1/2-z
1/2-x,y,-z
-x,-y,-z
x,1/2+y,-z
-x,y,1/2+z
1/2+x,-y,z
1/2+x,1/2+y,1/2+z
1/2-x,-y,1/2+z
1/2+x,1/2-y,-z
-x,1/2+y,1/2-z
1/2-x,1/2-y,1/2-z
1/2+x,y,1/2-z
1/2-x,1/2+y,z
x,1/2-y,1/2+z
loop_
_atom_site_type_symbol
_atom_site_label
_atom_site_fract_x
_atom_site_fract_y
_atom_site_fract_z
Si Si1 0.190196 0.704602 0.236429
Si Si2 0.043987 0.814966 0.814098
Si Si3 0.542900 0.339099 0.640560
Si Si4 0.608328 0.718220 0.674181
Si Si5 0.928021 0.473989 0.910030
Si Si6 0.750000 0.231885 0.000000
Si Si7 0.882516 0.135566 0.404130
Si Si8 0.030445 0.453880 0.867475
O O1 0.152527 0.747865 0.287674
O O2 0.221629 0.698139 0.380289
O O3 0.164040 0.652630 0.176878
O O4 0.218191 0.730878 0.102203
O O5 0.068881 0.760704 0.862207
O O6 0.078559 0.847025 0.711220
O O7 0.998681 0.810095 0.719570
O O8 0.034245 0.843974 0.967450
O O9 0.589382 0.310331 0.679866
O O10 0.544345 0.398517 0.702412
O O11 0.613927 0.674914 0.545415
O O12 0.921238 0.500000 0.750000
O O13 0.892641 0.426312 0.938828
O O14 0.978797 0.448731 0.924669
O O15 0.932822 0.524708 0.017207
O O16 0.027236 0.500000 0.750000
#
# Coordination Sequence:
#
# PCOD9530537 Si02
#       8
#    16  16  16  16  16   8  16  16
#     4  10  21  37  61  89 117 144 181 221 284 355
#     4  11  23  35  49  73 110 156 193 229 276 335
#     4  12  23  35  52  74 109 158 196 236 284 324
#     4  11  23  36  52  81 116 147 184 231 274 348
#     4  10  20  35  54  74 106 144 199 246 275 315
#     4  10  20  40  62  86 120 144 176 228 282 372
#     4  11  20  37  58  81 113 148 189 238 287 329
#     4  10  21  34  52  72 100 151 204 244 271 308
#
# _framework density 17.804324000000001
#
# number of rings (size 3 to 8) (size 9 to 14) (size 15 to 20)
#    0.000    1.333    2.667    4.400    5.600    1.067 
#    0.000    0.000    0.000    0.000    0.000    0.933 
#    0.000    0.000    0.000    0.000    0.000    0.000 
#
# Total GULP energy -334710.310202 kJ/mol
# GULP energy per Si atom -5578.505170 kJ/mol
# Density = 1.776380 g / cm^3
# Si number density = 17.804324 Si / 1000 Ang^3
#
#
#
# Elastic Constant Matrix: (Units=GPa)
#
#
# Indices 1 2 3 4 5 6 
#
# 1 75.1629 28.2158 30.0458 0.0000 0.0000 0.0000
# 2 28.2158 90.7464 10.9221 0.0000 0.0000 0.0000
# 3 30.0458 10.9221 90.0147 0.0000 0.0000 0.0000
# 4 0.0000 0.0000 0.0000 23.8642 0.0000 0.0000
# 5 0.0000 0.0000 0.0000 0.0000 30.8639 0.0000
# 6 0.0000 0.0000 0.0000 0.0000 0.0000 19.7398
#
#
#
# Elastic Compliance Matrix: (Units=1/GPa)
#
#
# Indices 1 2 3 4 5 6 
#
# 1 0.017128 -0.004706 -0.005146 0.000000 0.000000 0.000000
# 2 -0.004706 0.012476 0.000057 0.000000 0.000000 0.000000
# 3 -0.005146 0.000057 0.012820 0.000000 0.000000 0.000000
# 4 0.000000 0.000000 0.000000 0.041904 0.000000 0.000000
# 5 0.000000 0.000000 0.000000 0.000000 0.032400 0.000000
# 6 0.000000 0.000000 0.000000 0.000000 0.000000 0.050659
#
#
# Mechanical properties :
#
#
# Convention : Reuss Voigt Hill
#
# Bulk Modulus (GPa) = 43.79475 43.81017 43.80246
# Shear Modulus (GPa) = 25.69508 27.34294 26.51901
#
# Velocity S-wave (km/s) = 3.80306 3.92311 3.86355
# Velocity P-wave (km/s) = 6.62839 6.72168 6.67520
#
# Compressibility (1/GPa) = 0.02283379
#
# Stress axis : x y z
#
# Youngs Moduli (GPa) = 58.38287 80.15269 78.00255
#
# Poissons Ratio (x) = 0.37723 0.40141
# Poissons Ratio (y) = 0.27477 -0.00445
# Poissons Ratio (z) = 0.30045 -0.00458
#
# Static dielectric constant tensor:
#      x y z
#    x 1.620940 0.000000 0.000000 
#    y 0.000000 1.728930 0.000000 
#    z 0.000000 0.000000 1.702660 
# 
# From -- ./inp_files/8581.got.cif
#   From: 2010.05.17/outbox.cif.g08.bks.cpg/sg73_5_cif.got.tgz:8581.got - 2010.06.03 17:35:07.
