data_PCOD9530893
_publ_section_title
;
Structure prediction by ZEFSAII (Michael W. Deem and Ramdas Pophale) SiO2 
 PCOD9530893
Probable space group: I B C A 
;
_chemical_formula_sum "Si O2"
_cell_formula_units_Z 80
_cell_length_a 21.895960
_cell_length_b 17.431342
_cell_length_c 9.215628
_cell_angle_alpha 90.000000
_cell_angle_beta 90.000000
_cell_angle_gamma 90.000000
_cell_volume 3517.383730
_symmetry_space_group_name_H-M "I B C A "
_symmetry_group_IT_number 73
_symmetry_cell_setting 'orthorhombic'
loop_
_space_group_symop_operation_xyz
x,y,z
-x,1/2-y,z
x,-y,1/2-z
1/2-x,y,-z
-x,-y,-z
x,1/2+y,-z
-x,y,1/2+z
1/2+x,-y,z
1/2+x,1/2+y,1/2+z
1/2-x,-y,1/2+z
1/2+x,1/2-y,-z
-x,1/2+y,1/2-z
1/2-x,1/2-y,1/2-z
1/2+x,y,1/2-z
1/2-x,1/2+y,z
x,1/2-y,1/2+z
loop_
_atom_site_type_symbol
_atom_site_label
_atom_site_fract_x
_atom_site_fract_y
_atom_site_fract_z
Si Si1 0.059510 0.083022 0.167138
Si Si2 0.011476 0.159720 0.429549
Si Si3 0.148943 0.176336 0.507176
Si Si4 0.199418 0.307255 0.316749
Si Si5 0.697766 0.910321 0.240856
O O1 0.016964 0.140398 0.260018
O O2 0.130901 0.106547 0.172732
O O3 0.033735 0.099444 0.006966
O O4 0.055291 0.000000 0.250000
O O5 0.080952 0.147734 0.479897
O O6 0.000000 0.250000 0.453353
O O7 0.163837 0.261493 0.441823
O O8 0.158306 0.174496 0.678232
O O9 0.191847 0.124181 0.404149
O O10 0.250000 0.250000 0.250000
O O11 0.243576 0.378530 0.343670
O O12 0.703557 0.000000 0.250000
#
# Coordination Sequence:
#
# PCOD9530893 Si02
#       5
#    16  16  16  16  16
#     4  10  22  42  64  92 129 170 208 262 325 376
#     4  11  24  38  66  94 126 165 216 263 308 382
#     4  10  23  39  62  90 126 159 208 260 312 372
#     4  10  20  39  62  86 122 162 199 259 313 368
#     4   9  19  38  63  88 123 163 205 254 313 379
#
# _framework density 22.744178000000002
#
# number of rings (size 3 to 8) (size 9 to 14) (size 15 to 20)
#    0.000    2.000    0.000    3.600   11.200    0.000 
#    0.000    9.000    4.400    0.000    0.000    0.000 
#    0.000    0.000    0.000    0.000    0.000    0.000 
#
# Total GULP energy -223162.484188 kJ/mol
# GULP energy per Si atom -5579.062105 kJ/mol
# Density = 2.269241 g / cm^3
# Si number density = 22.744178 Si / 1000 Ang^3
#
#
#
# Elastic Constant Matrix: (Units=GPa)
#
#
# Indices 1 2 3 4 5 6 
#
# 1 62.7926 1.6666 23.2273 0.0000 0.0000 0.0000
# 2 1.6666 97.6599 28.7224 0.0000 0.0000 0.0000
# 3 23.2273 28.7224 81.5583 0.0000 0.0000 0.0000
# 4 0.0000 0.0000 0.0000 13.2842 0.0000 0.0000
# 5 0.0000 0.0000 0.0000 0.0000 31.8614 0.0000
# 6 0.0000 0.0000 0.0000 0.0000 0.0000 26.9572
#
#
#
# Elastic Compliance Matrix: (Units=1/GPa)
#
#
# Indices 1 2 3 4 5 6 
#
# 1 0.017956 0.001336 -0.005584 0.000000 0.000000 0.000000
# 2 0.001336 0.011522 -0.004438 0.000000 0.000000 0.000000
# 3 -0.005584 -0.004438 0.015414 0.000000 0.000000 0.000000
# 4 0.000000 0.000000 0.000000 0.075277 0.000000 0.000000
# 5 0.000000 0.000000 0.000000 0.000000 0.031386 0.000000
# 6 0.000000 0.000000 0.000000 0.000000 0.000000 0.037096
#
#
# Mechanical properties :
#
#
# Convention : Reuss Voigt Hill
#
# Bulk Modulus (GPa) = 36.33803 38.80482 37.57143
# Shear Modulus (GPa) = 23.23450 26.98021 25.10736
#
# Velocity S-wave (km/s) = 3.19965 3.44793 3.32611
# Velocity P-wave (km/s) = 5.44627 5.74016 5.59515
#
# Compressibility (1/GPa) = 0.02751938
#
# Stress axis : x y z
#
# Youngs Moduli (GPa) = 55.69306 86.78956 64.87403
#
# Poissons Ratio (x) = -0.11594 0.36226
# Poissons Ratio (y) = -0.07440 0.28792
# Poissons Ratio (z) = 0.31100 0.38519
#
# Static dielectric constant tensor:
#      x y z
#    x 1.492890 0.000000 0.000000 
#    y 0.000000 1.913010 0.000000 
#    z 0.000000 0.000000 1.941510 
# 
# From -- ./inp_files/7737.got.cif
#   From: 2010.05.17/outbox.cif.g08.bks.cpg/sg73_4_cif.got.tgz:7737.got - 2010.06.03 17:35:07.
