data_PCOD9530967
_publ_section_title
;
Structure prediction by ZEFSAII (Michael W. Deem and Ramdas Pophale) SiO2 
 PCOD9530967
Probable space group: I B C A 
;
_chemical_formula_sum "Si O2"
_cell_formula_units_Z 120
_cell_length_a 15.820024
_cell_length_b 19.184900
_cell_length_c 17.233374
_cell_angle_alpha 90.000000
_cell_angle_beta 90.000000
_cell_angle_gamma 90.000000
_cell_volume 5230.425144
_symmetry_space_group_name_H-M "I B C A "
_symmetry_group_IT_number 73
_symmetry_cell_setting 'orthorhombic'
loop_
_space_group_symop_operation_xyz
x,y,z
-x,1/2-y,z
x,-y,1/2-z
1/2-x,y,-z
-x,-y,-z
x,1/2+y,-z
-x,y,1/2+z
1/2+x,-y,z
1/2+x,1/2+y,1/2+z
1/2-x,-y,1/2+z
1/2+x,1/2-y,-z
-x,1/2+y,1/2-z
1/2-x,1/2-y,1/2-z
1/2+x,y,1/2-z
1/2-x,1/2+y,z
x,1/2-y,1/2+z
loop_
_atom_site_type_symbol
_atom_site_label
_atom_site_fract_x
_atom_site_fract_y
_atom_site_fract_z
Si Si1 0.134409 0.867479 0.070769
Si Si2 0.335916 0.939959 0.299850
Si Si3 0.893053 0.350988 0.154182
Si Si4 0.101589 0.750762 0.970208
Si Si5 0.693410 0.974074 0.076590
Si Si6 0.000000 0.750000 0.255704
Si Si7 0.559534 0.333383 0.118701
Si Si8 0.765040 0.672958 0.216323
O O1 0.136182 0.826642 0.989228
O O2 0.201895 0.833822 0.129482
O O3 0.038737 0.849453 0.099811
O O4 0.154275 0.949166 0.066225
O O5 0.257121 0.970515 0.349378
O O6 0.396750 0.905044 0.361439
O O7 0.309228 0.879651 0.239446
O O8 0.377674 0.000000 0.250000
O O9 0.880311 0.418236 0.099738
O O10 0.976689 0.315731 0.190208
O O11 0.839933 0.359986 0.231500
O O12 0.856441 0.288118 0.101359
O O13 0.106525 0.703897 0.047727
O O14 0.000000 0.750000 0.957366
O O15 0.750000 0.956670 0.000000
O O16 0.934929 0.782164 0.193129
O O17 0.750000 0.750000 0.250000
#
# Coordination Sequence:
#
# PCOD9530967 Si02
#       8
#    16  16  16  16  16   8  16  16
#     4  11  22  43  70  93 133 182 227 275 346 413
#     4  11  23  42  63  91 134 167 219 273 331 401
#     4  11  23  39  68  97 133 174 224 286 338 407
#     4  10  20  40  64  95 131 165 216 281 333 399
#     4  11  26  46  64  95 141 182 222 278 347 421
#     4  12  20  40  68 104 132 164 234 288 332 416
#     4  11  22  42  68  98 130 175 219 282 343 397
#     4  11  22  40  66  96 128 175 224 280 331 401
#
# _framework density 22.942685000000001
#
# number of rings (size 3 to 8) (size 9 to 14) (size 15 to 20)
#    0.000    1.067    5.333    2.400    0.000    3.200 
#    2.400    6.000    0.000    0.000    0.000    0.000 
#    0.000    0.000    0.000    0.000    0.000    0.000 
#
# Total GULP energy -334775.358727 kJ/mol
# GULP energy per Si atom -5579.589312 kJ/mol
# Density = 2.289047 g / cm^3
# Si number density = 22.942685 Si / 1000 Ang^3
#
#
#
# Elastic Constant Matrix: (Units=GPa)
#
#
# Indices 1 2 3 4 5 6 
#
# 1 38.3554 7.4069 6.3257 0.0000 0.0000 0.0000
# 2 7.4069 99.1006 8.0321 0.0000 0.0000 0.0000
# 3 6.3257 8.0321 77.1164 0.0000 0.0000 0.0000
# 4 0.0000 0.0000 0.0000 26.6640 0.0000 0.0000
# 5 0.0000 0.0000 0.0000 0.0000 21.0753 0.0000
# 6 0.0000 0.0000 0.0000 0.0000 0.0000 31.1431
#
#
#
# Elastic Compliance Matrix: (Units=1/GPa)
#
#
# Indices 1 2 3 4 5 6 
#
# 1 0.026757 -0.001837 -0.002003 0.000000 0.000000 0.000000
# 2 -0.001837 0.010303 -0.000922 0.000000 0.000000 0.000000
# 3 -0.002003 -0.000922 0.013228 0.000000 0.000000 0.000000
# 4 0.000000 0.000000 0.000000 0.037504 0.000000 0.000000
# 5 0.000000 0.000000 0.000000 0.000000 0.047449 0.000000
# 6 0.000000 0.000000 0.000000 0.000000 0.000000 0.032110
#
#
# Mechanical properties :
#
#
# Convention : Reuss Voigt Hill
#
# Bulk Modulus (GPa) = 24.53311 28.67796 26.60553
# Shear Modulus (GPa) = 26.25167 28.63032 27.44100
#
# Velocity S-wave (km/s) = 3.38631 3.53640 3.46217
# Velocity P-wave (km/s) = 5.09960 5.40387 5.25394
#
# Compressibility (1/GPa) = 0.04076125
#
# Stress axis : x y z
#
# Youngs Moduli (GPa) = 37.37316 97.06049 75.59826
#
# Poissons Ratio (x) = 0.17835 0.15146
# Poissons Ratio (y) = 0.06867 0.06973
# Poissons Ratio (z) = 0.07487 0.08953
#
# Static dielectric constant tensor:
#      x y z
#    x 1.934970 0.000000 0.000000 
#    y 0.000000 1.869050 0.000000 
#    z 0.000000 0.000000 1.866700 
# 
# From -- ./inp_files/22669.got.cif
#   From: 2010.05.17/outbox.cif.g08.bks.cpg/sg73_12_cif.got.tgz:22669.got - 2010.06.03 17:35:07.
