data_PCOD9530252
_publ_section_title
;
Structure prediction by ZEFSAII (Michael W. Deem and Ramdas Pophale) SiO2 
 PCOD9530252
Probable space group: I B C A 
;
_chemical_formula_sum "Si O2"
_cell_formula_units_Z 96
_cell_length_a 17.948588
_cell_length_b 25.875532
_cell_length_c 9.407315
_cell_angle_alpha 90.000000
_cell_angle_beta 90.000000
_cell_angle_gamma 90.000000
_cell_volume 4369.032374
_symmetry_space_group_name_H-M "I B C A "
_symmetry_group_IT_number 73
_symmetry_cell_setting 'orthorhombic'
loop_
_space_group_symop_operation_xyz
x,y,z
-x,1/2-y,z
x,-y,1/2-z
1/2-x,y,-z
-x,-y,-z
x,1/2+y,-z
-x,y,1/2+z
1/2+x,-y,z
1/2+x,1/2+y,1/2+z
1/2-x,-y,1/2+z
1/2+x,1/2-y,-z
-x,1/2+y,1/2-z
1/2-x,1/2-y,1/2-z
1/2+x,y,1/2-z
1/2-x,1/2+y,z
x,1/2-y,1/2+z
loop_
_atom_site_type_symbol
_atom_site_label
_atom_site_fract_x
_atom_site_fract_y
_atom_site_fract_z
Si Si1 0.795114 0.398175 0.365376
Si Si2 0.210623 0.457388 0.358230
Si Si3 0.337484 0.652266 0.961696
Si Si4 0.586313 0.330119 0.524505
Si Si5 0.199548 0.203576 0.695578
Si Si6 0.964254 0.306037 0.166349
O O1 0.750000 0.417647 0.500000
O O2 0.779671 0.434042 0.233199
O O3 0.875667 0.382327 0.417881
O O4 0.754342 0.344512 0.326105
O O5 0.176655 0.500000 0.250000
O O6 0.250000 0.477201 0.500000
O O7 0.160243 0.407870 0.408130
O O8 0.354127 0.687630 0.824827
O O9 0.250000 0.660309 0.000000
O O10 0.389227 0.673452 0.088148
O O11 0.500000 0.250000 0.372490
O O12 0.550214 0.306348 0.665753
O O13 0.526900 0.342466 0.402836
O O14 0.250000 0.250000 0.750000
O O15 0.150137 0.205209 0.552406
#
# Coordination Sequence:
#
# PCOD9530252 Si02
#       6
#    16  16  16  16  16  16
#     4   9  20  38  60  93 125 166 219 276 340 411
#     4  10  19  36  65 100 133 167 213 285 355 416
#     4  10  23  43  65  96 132 173 230 285 343 412
#     4  11  24  41  58  86 129 178 231 278 334 402
#     4  10  22  37  64  90 123 172 221 273 334 405
#     4  12  26  41  60  87 131 186 235 283 340 402
#
# _framework density 21.972829000000001
#
# number of rings (size 3 to 8) (size 9 to 14) (size 15 to 20)
#    0.000    1.667    0.000    5.000    7.000    0.667 
#    0.000    1.667    0.000    1.000    0.000   18.667 
#    0.000    0.000    0.000    0.000    0.000    0.000 
#
# Total GULP energy -267812.125563 kJ/mol
# GULP energy per Si atom -5579.419283 kJ/mol
# Density = 2.192282 g / cm^3
# Si number density = 21.972829 Si / 1000 Ang^3
#
#
#
# Elastic Constant Matrix: (Units=GPa)
#
#
# Indices 1 2 3 4 5 6 
#
# 1 97.9420 25.0919 47.0237 0.0000 0.0000 0.0000
# 2 25.0919 107.3698 51.1948 0.0000 0.0000 0.0000
# 3 47.0237 51.1948 193.2681 0.0000 0.0000 0.0000
# 4 0.0000 0.0000 0.0000 15.8813 0.0000 0.0000
# 5 0.0000 0.0000 0.0000 0.0000 52.4552 0.0000
# 6 0.0000 0.0000 0.0000 0.0000 0.0000 -9.2793
#
#
#
# Elastic Compliance Matrix: (Units=1/GPa)
#
#
# Indices 1 2 3 4 5 6 
#
# 1 0.011793 -0.001588 -0.002448 0.000000 0.000000 0.000000
# 2 -0.001588 0.010874 -0.002494 0.000000 0.000000 0.000000
# 3 -0.002448 -0.002494 0.006431 0.000000 0.000000 0.000000
# 4 0.000000 0.000000 0.000000 0.062967 0.000000 0.000000
# 5 0.000000 0.000000 0.000000 0.000000 0.019064 0.000000
# 6 0.000000 0.000000 0.000000 0.000000 0.000000 -0.107767
#
#
# Mechanical properties :
#
#
# Convention : Reuss Voigt Hill
#
# Bulk Modulus (GPa) = 62.36202 71.68899 67.02550
# Shear Modulus (GPa) = 229.69274 30.16273 129.92773
#
# Velocity S-wave (km/s) = 10.23532 3.70905 7.69802
# Velocity P-wave (km/s) = 12.96632 7.14422 10.46817
#
# Compressibility (1/GPa) = 0.01603540
#
# Stress axis : x y z
#
# Youngs Moduli (GPa) = 84.79874 91.96301 155.50858
#
# Poissons Ratio (x) = 0.14608 0.38076
# Poissons Ratio (y) = 0.13470 0.38783
# Poissons Ratio (z) = 0.20763 0.22935
#
# Static dielectric constant tensor:
#      x y z
#    x 1.885000 0.000000 0.000000 
#    y 0.000000 1.872820 0.000000 
#    z 0.000000 0.000000 1.969160 
# 
# From -- ./inp_files/12873.got.cif
#   From: 2010.05.17/outbox.cif.g08.bks.cpg/sg73_7_cif.got.tgz:12873.got - 2010.06.03 17:35:07.
