data_PCOD9530364
_publ_section_title
;
Structure prediction by ZEFSAII (Michael W. Deem and Ramdas Pophale) SiO2 
 PCOD9530364
Probable space group: I B C A 
;
_chemical_formula_sum "Si O2"
_cell_formula_units_Z 96
_cell_length_a 14.399788
_cell_length_b 14.991877
_cell_length_c 22.838596
_cell_angle_alpha 90.000000
_cell_angle_beta 90.000000
_cell_angle_gamma 90.000000
_cell_volume 4930.392691
_symmetry_space_group_name_H-M "I B C A "
_symmetry_group_IT_number 73
_symmetry_cell_setting 'orthorhombic'
loop_
_space_group_symop_operation_xyz
x,y,z
-x,1/2-y,z
x,-y,1/2-z
1/2-x,y,-z
-x,-y,-z
x,1/2+y,-z
-x,y,1/2+z
1/2+x,-y,z
1/2+x,1/2+y,1/2+z
1/2-x,-y,1/2+z
1/2+x,1/2-y,-z
-x,1/2+y,1/2-z
1/2-x,1/2-y,1/2-z
1/2+x,y,1/2-z
1/2-x,1/2+y,z
x,1/2-y,1/2+z
loop_
_atom_site_type_symbol
_atom_site_label
_atom_site_fract_x
_atom_site_fract_y
_atom_site_fract_z
Si Si1 0.000000 0.750000 0.748943
Si Si2 0.433624 0.071542 0.468919
Si Si3 0.500000 0.250000 0.952642
Si Si4 0.829188 0.142993 0.606312
Si Si5 0.250000 0.971663 0.500000
Si Si6 0.124970 0.000000 0.750000
Si Si7 0.308059 0.687098 0.792379
Si Si8 0.005300 0.919106 0.337420
O O1 0.089441 0.769718 0.709111
O O2 0.004834 0.665822 0.793574
O O3 0.460270 0.169489 0.491591
O O4 0.454590 0.085579 0.400130
O O5 0.500000 0.000000 0.500000
O O6 0.331535 0.035275 0.477624
O O7 0.589524 0.287551 0.915097
O O8 0.788609 0.092047 0.550878
O O9 0.747504 0.181784 0.646522
O O10 0.887139 0.071663 0.645500
O O11 0.183184 0.088892 0.762863
O O12 0.053859 0.007823 0.696007
O O13 0.250000 0.750000 0.750000
#
# Coordination Sequence:
#
# PCOD9530364 Si02
#       8
#     8  16   8  16   8   8  16  16
#     4  10  21  42  69 100 134 179 220 287 342 400
#     4  11  22  42  70  95 133 177 227 282 340 406
#     4  10  23  44  73  94 132 183 218 279 346 402
#     4  11  23  42  71 100 137 180 231 274 343 420
#     4  12  24  44  72 102 136 184 232 286 346 412
#     4  10  24  38  64 100 140 176 220 284 342 392
#     4  11  23  41  70 103 134 177 232 279 337 413
#     4  10  19  40  65  93 133 177 219 273 344 398
#
# _framework density 19.471064999999999
#
# number of rings (size 3 to 8) (size 9 to 14) (size 15 to 20)
#    0.000    1.333    5.000    3.000    4.667    1.333 
#    0.000    0.833    3.667    0.000    0.000    0.000 
#    0.000    0.000    0.000    0.000    0.000    0.000 
#
# Total GULP energy -267371.242277 kJ/mol
# GULP energy per Si atom -5570.234214 kJ/mol
# Density = 1.942675 g / cm^3
# Si number density = 19.471065 Si / 1000 Ang^3
#
#
#
# Elastic Constant Matrix: (Units=GPa)
#
#
# Indices 1 2 3 4 5 6 
#
# 1 173.1372 67.4461 65.7807 0.0000 0.0000 0.0000
# 2 67.4461 123.9332 45.2969 0.0000 0.0000 0.0000
# 3 65.7807 45.2969 87.9066 0.0000 0.0000 0.0000
# 4 0.0000 0.0000 0.0000 21.7851 0.0000 0.0000
# 5 0.0000 0.0000 0.0000 0.0000 -48.9786 0.0000
# 6 0.0000 0.0000 0.0000 0.0000 0.0000 33.4854
#
#
#
# Elastic Compliance Matrix: (Units=1/GPa)
#
#
# Indices 1 2 3 4 5 6 
#
# 1 0.008871 -0.002959 -0.005114 0.000000 0.000000 0.000000
# 2 -0.002959 0.010928 -0.003417 0.000000 0.000000 0.000000
# 3 -0.005114 -0.003417 0.016963 0.000000 0.000000 0.000000
# 4 0.000000 0.000000 0.000000 0.045903 0.000000 0.000000
# 5 0.000000 0.000000 0.000000 0.000000 -0.020417 0.000000
# 6 0.000000 0.000000 0.000000 0.000000 0.000000 0.029864
#
#
# Mechanical properties :
#
#
# Convention : Reuss Voigt Hill
#
# Bulk Modulus (GPa) = 72.55170 82.44716 77.49943
# Shear Modulus (GPa) = 41.77624 15.02193 28.39908
#
# Velocity S-wave (km/s) = 4.63704 2.78060 3.82321
# Velocity P-wave (km/s) = 8.12476 7.26253 7.70571
#
# Compressibility (1/GPa) = 0.01378328
#
# Stress axis : x y z
#
# Youngs Moduli (GPa) = 112.72344 91.50847 58.95171
#
# Poissons Ratio (x) = 0.27076 0.30146
# Poissons Ratio (y) = 0.33353 0.20143
# Poissons Ratio (z) = 0.57644 0.31268
#
# Static dielectric constant tensor:
#      x y z
#    x 1.725910 0.000000 0.000000 
#    y 0.000000 1.750990 0.000000 
#    z 0.000000 0.000000 1.690910 
# 
# From -- ./inp_files/19380.got.cif
#   From: 2010.05.17/outbox.cif.g08.bks.cpg/sg73_10_cif.got.tgz:19380.got - 2010.06.03 17:35:07.
