data_PCOD9530787
_publ_section_title
;
Structure prediction by ZEFSAII (Michael W. Deem and Ramdas Pophale) SiO2 
 PCOD9530787
Probable space group: I B C A 
;
_chemical_formula_sum "Si O2"
_cell_formula_units_Z 56
_cell_length_a 5.181906
_cell_length_b 23.380711
_cell_length_c 19.207097
_cell_angle_alpha 90.000000
_cell_angle_beta 90.000000
_cell_angle_gamma 90.000000
_cell_volume 2327.067464
_symmetry_space_group_name_H-M "I B C A "
_symmetry_group_IT_number 73
_symmetry_cell_setting 'orthorhombic'
loop_
_space_group_symop_operation_xyz
x,y,z
-x,1/2-y,z
x,-y,1/2-z
1/2-x,y,-z
-x,-y,-z
x,1/2+y,-z
-x,y,1/2+z
1/2+x,-y,z
1/2+x,1/2+y,1/2+z
1/2-x,-y,1/2+z
1/2+x,1/2-y,-z
-x,1/2+y,1/2-z
1/2-x,1/2-y,1/2-z
1/2+x,y,1/2-z
1/2-x,1/2+y,z
x,1/2-y,1/2+z
loop_
_atom_site_type_symbol
_atom_site_label
_atom_site_fract_x
_atom_site_fract_y
_atom_site_fract_z
Si Si1 0.000000 0.250000 0.091285
Si Si2 0.250000 0.959367 0.500000
Si Si3 0.418624 0.376813 0.934018
Si Si4 0.865205 0.123446 0.785643
Si Si5 0.500000 0.750000 0.814548
O O1 0.027808 0.309919 0.053058
O O2 0.253780 0.239416 0.137084
O O3 0.322790 0.915143 0.562534
O O4 0.500000 0.000000 0.500000
O O5 0.260235 0.382846 0.862115
O O6 0.250000 0.394739 0.000000
O O7 0.648643 0.100263 0.732407
O O8 0.919299 0.191889 0.775759
#
# Coordination Sequence:
#
# PCOD9530787 Si02
#       5
#     8   8  16  16   8
#     4  10  24  38  66 108 150 188 236 300 376 430
#     4  12  28  50  76 102 132 188 248 302 358 436
#     4  11  27  44  75 105 149 186 242 299 367 436
#     4  11  23  39  64 100 145 194 238 290 355 435
#     4  10  20  38  58  94 150 206 240 272 346 458
#
# _framework density 24.064620000000001
#
# number of rings (size 3 to 8) (size 9 to 14) (size 15 to 20)
#    0.000    1.143    1.429    4.286   14.000    2.286 
#    0.000    0.000    0.000    5.143    0.000    0.000 
#    0.000    0.000    0.000    0.000    0.000    0.000 
#
# Total GULP energy -156310.750960 kJ/mol
# GULP energy per Si atom -5582.526820 kJ/mol
# Density = 2.400985 g / cm^3
# Si number density = 24.064620 Si / 1000 Ang^3
#
#
#
# Elastic Constant Matrix: (Units=GPa)
#
#
# Indices 1 2 3 4 5 6 
#
# 1 219.0089 53.0228 64.6835 0.0000 0.0000 0.0000
# 2 53.0228 120.3851 32.2015 0.0000 0.0000 0.0000
# 3 64.6835 32.2015 93.7105 0.0000 0.0000 0.0000
# 4 0.0000 0.0000 0.0000 -10.0174 0.0000 0.0000
# 5 0.0000 0.0000 0.0000 0.0000 62.4704 0.0000
# 6 0.0000 0.0000 0.0000 0.0000 0.0000 50.5572
#
#
#
# Elastic Compliance Matrix: (Units=1/GPa)
#
#
# Indices 1 2 3 4 5 6 
#
# 1 0.006036 -0.001700 -0.003582 0.000000 0.000000 0.000000
# 2 -0.001700 0.009626 -0.002134 0.000000 0.000000 0.000000
# 3 -0.003582 -0.002134 0.013877 0.000000 0.000000 0.000000
# 4 0.000000 0.000000 0.000000 -0.099827 0.000000 0.000000
# 5 0.000000 0.000000 0.000000 0.000000 0.016008 0.000000
# 6 0.000000 0.000000 0.000000 0.000000 0.000000 0.019780
#
#
# Mechanical properties :
#
#
# Convention : Reuss Voigt Hill
#
# Bulk Modulus (GPa) = 67.99854 81.43558 74.71706
# Shear Modulus (GPa) = -338.61932 39.48183 -149.56874
#
# Velocity S-wave (km/s) = -11.87510 4.05490 -7.89227
# Velocity P-wave (km/s) = 12.63748 7.47240 7.20657
#
# Compressibility (1/GPa) = 0.01470620
#
# Stress axis : x y z
#
# Youngs Moduli (GPa) = 165.68596 103.88065 72.06229
#
# Poissons Ratio (x) = 0.17662 0.25811
# Poissons Ratio (y) = 0.28170 0.15380
# Poissons Ratio (z) = 0.59345 0.22172
#
# Static dielectric constant tensor:
#      x y z
#    x 2.004740 0.000000 0.000000 
#    y 0.000000 1.873720 0.000000 
#    z 0.000000 0.000000 1.913490 
# 
# From -- ./inp_files/20344.got.cif
#   From: 2010.05.17/outbox.cif.g08.bks.cpg/sg73_11_cif.got.tgz:20344.got - 2010.06.03 17:35:07.
