data_PCOD9530543
_publ_section_title
;
Structure prediction by ZEFSAII (Michael W. Deem and Ramdas Pophale) SiO2 
 PCOD9530543
Probable space group: I B C A 
;
_chemical_formula_sum "Si O2"
_cell_formula_units_Z 104
_cell_length_a 25.854936
_cell_length_b 9.650889
_cell_length_c 22.931006
_cell_angle_alpha 90.000000
_cell_angle_beta 90.000000
_cell_angle_gamma 90.000000
_cell_volume 5721.816103
_symmetry_space_group_name_H-M "I B C A "
_symmetry_group_IT_number 73
_symmetry_cell_setting 'orthorhombic'
loop_
_space_group_symop_operation_xyz
x,y,z
-x,1/2-y,z
x,-y,1/2-z
1/2-x,y,-z
-x,-y,-z
x,1/2+y,-z
-x,y,1/2+z
1/2+x,-y,z
1/2+x,1/2+y,1/2+z
1/2-x,-y,1/2+z
1/2+x,1/2-y,-z
-x,1/2+y,1/2-z
1/2-x,1/2-y,1/2-z
1/2+x,y,1/2-z
1/2-x,1/2+y,z
x,1/2-y,1/2+z
loop_
_atom_site_type_symbol
_atom_site_label
_atom_site_fract_x
_atom_site_fract_y
_atom_site_fract_z
Si Si1 0.904183 0.342291 0.258333
Si Si2 0.500000 0.250000 0.676636
Si Si3 0.044662 0.367841 0.538342
Si Si4 0.807913 0.195102 0.306847
Si Si5 0.215151 0.880013 0.828841
Si Si6 0.610073 0.783319 0.630756
Si Si7 0.454878 0.543882 0.912467
O O1 0.885134 0.500000 0.250000
O O2 0.961710 0.341085 0.284229
O O3 0.865582 0.256632 0.300699
O O4 0.905089 0.269695 0.195081
O O5 0.464168 0.340220 0.634850
O O6 0.089021 0.319615 0.581774
O O7 0.066049 0.405932 0.474934
O O8 0.000000 0.250000 0.530769
O O9 0.011965 0.488737 0.569186
O O10 0.795852 0.163071 0.238532
O O11 0.771775 0.313291 0.335699
O O12 0.794799 0.045043 0.334866
O O13 0.171350 0.806584 0.867437
O O14 0.580104 0.925021 0.615581
#
# Coordination Sequence:
#
# PCOD9530543 Si02
#       7
#    16   8  16  16  16  16  16
#     4  11  25  36  53  85 125 161 190 236 301 371
#     4  12  24  34  52  82 122 156 190 232 300 370
#     4   9  18  35  57  80 108 151 203 253 283 348
#     4   9  19  34  55  82 120 153 196 227 283 354
#     4   9  18  33  57  84 111 154 190 240 281 344
#     4  10  21  36  57  82 117 151 195 242 304 345
#     4  10  20  35  55  79 115 152 205 241 295 345
#
# _framework density 18.176047000000001
#
# number of rings (size 3 to 8) (size 9 to 14) (size 15 to 20)
#    0.000    2.154    0.769    1.846   11.846    1.231 
#    0.000    0.000    0.000    0.000    0.000    8.615 
#    0.000    0.000    0.000    0.000    0.000    0.000 
#
# Total GULP energy -289681.948058 kJ/mol
# GULP energy per Si atom -5570.806693 kJ/mol
# Density = 1.813468 g / cm^3
# Si number density = 18.176047 Si / 1000 Ang^3
#
#
#
# Elastic Constant Matrix: (Units=GPa)
#
#
# Indices 1 2 3 4 5 6 
#
# 1 85.7674 32.8205 50.3693 0.0000 0.0000 0.0000
# 2 32.8205 64.5751 42.3013 0.0000 0.0000 0.0000
# 3 50.3693 42.3013 87.9526 0.0000 0.0000 0.0000
# 4 0.0000 0.0000 0.0000 14.2109 0.0000 0.0000
# 5 0.0000 0.0000 0.0000 0.0000 22.9573 0.0000
# 6 0.0000 0.0000 0.0000 0.0000 0.0000 20.8094
#
#
#
# Elastic Compliance Matrix: (Units=1/GPa)
#
#
# Indices 1 2 3 4 5 6 
#
# 1 0.018099 -0.003517 -0.008674 0.000000 0.000000 0.000000
# 2 -0.003517 0.023293 -0.009188 0.000000 0.000000 0.000000
# 3 -0.008674 -0.009188 0.020756 0.000000 0.000000 0.000000
# 4 0.000000 0.000000 0.000000 0.070368 0.000000 0.000000
# 5 0.000000 0.000000 0.000000 0.000000 0.043559 0.000000
# 6 0.000000 0.000000 0.000000 0.000000 0.000000 0.048055
#
#
# Mechanical properties :
#
#
# Convention : Reuss Voigt Hill
#
# Bulk Modulus (GPa) = 51.57404 54.36414 52.96909
# Shear Modulus (GPa) = 18.29142 19.11578 18.70360
#
# Velocity S-wave (km/s) = 3.17574 3.24651 3.21132
# Velocity P-wave (km/s) = 6.47174 6.63535 6.55405
#
# Compressibility (1/GPa) = 0.01938960
#
# Stress axis : x y z
#
# Youngs Moduli (GPa) = 55.25125 42.93222 48.17839
#
# Poissons Ratio (x) = 0.15100 0.41788
# Poissons Ratio (y) = 0.19433 0.44268
# Poissons Ratio (z) = 0.47922 0.39448
#
# Static dielectric constant tensor:
#      x y z
#    x 1.643370 0.000000 0.000000 
#    y 0.000000 1.679570 0.000000 
#    z 0.000000 0.000000 1.592700 
# 
# From -- ./inp_files/27584.got.cif
#   From: 2010.05.17/outbox.cif.g08.bks.cpg/sg73_14_cif.got.tgz:27584.got - 2010.06.03 17:35:07.
