data_PCOD9530534
_publ_section_title
;
Structure prediction by ZEFSAII (Michael W. Deem and Ramdas Pophale) SiO2 
 PCOD9530534
Probable space group: I B C A 
;
_chemical_formula_sum "Si O2"
_cell_formula_units_Z 104
_cell_length_a 21.646021
_cell_length_b 29.060130
_cell_length_c 9.250058
_cell_angle_alpha 90.000000
_cell_angle_beta 90.000000
_cell_angle_gamma 90.000000
_cell_volume 5818.621188
_symmetry_space_group_name_H-M "I B C A "
_symmetry_group_IT_number 73
_symmetry_cell_setting 'orthorhombic'
loop_
_space_group_symop_operation_xyz
x,y,z
-x,1/2-y,z
x,-y,1/2-z
1/2-x,y,-z
-x,-y,-z
x,1/2+y,-z
-x,y,1/2+z
1/2+x,-y,z
1/2+x,1/2+y,1/2+z
1/2-x,-y,1/2+z
1/2+x,1/2-y,-z
-x,1/2+y,1/2-z
1/2-x,1/2-y,1/2-z
1/2+x,y,1/2-z
1/2-x,1/2+y,z
x,1/2-y,1/2+z
loop_
_atom_site_type_symbol
_atom_site_label
_atom_site_fract_x
_atom_site_fract_y
_atom_site_fract_z
Si Si1 0.214175 0.000000 0.250000
Si Si2 0.460110 0.814419 0.548236
Si Si3 0.557748 0.895971 0.556095
Si Si4 0.750000 0.937334 0.000000
Si Si5 0.000000 0.250000 0.299969
Si Si6 0.025098 0.554401 0.738602
Si Si7 0.815922 0.411568 0.422460
Si Si8 0.863898 0.889123 0.875147
O O1 0.253167 0.968603 0.357454
O O2 0.178615 0.964006 0.144098
O O3 0.521161 0.847521 0.545101
O O4 0.461108 0.782291 0.407787
O O5 0.463366 0.783324 0.691737
O O6 0.400625 0.846405 0.561581
O O7 0.535065 0.927555 0.422638
O O8 0.535578 0.920750 0.700521
O O9 0.630880 0.896650 0.533452
O O10 0.812261 0.908607 0.980985
O O11 0.021751 0.500000 0.750000
O O12 0.082036 0.574244 0.834611
O O13 0.750000 0.408207 0.500000
O O14 0.828687 0.381420 0.278101
#
# Coordination Sequence:
#
# PCOD9530534 Si02
#       8
#     8  16  16   8   8  16  16  16
#     4  10  20  36  50  76 114 158 230 236 264 310
#     4  10  20  41  61  96 112 146 182 244 312 366
#     4  10  21  36  55  81 121 147 191 248 287 344
#     4  10  20  36  54  78 106 170 192 252 266 330
#     4  10  20  36  72  92 110 138 186 234 312 394
#     4  10  20  35  51  77 114 162 193 238 290 321
#     4  10  20  36  54  77 113 169 200 248 274 324
#     4   9  21  36  59  76 124 149 195 242 291 338
#
# _framework density 17.873650000000001
#
# number of rings (size 3 to 8) (size 9 to 14) (size 15 to 20)
#    0.000    2.154    0.769    3.231    9.692    0.000 
#   18.000    0.000    0.000    0.923    8.000    0.000 
#    0.000    0.000    0.000    0.000    0.000    0.000 
#
# Total GULP energy -289866.364369 kJ/mol
# GULP energy per Si atom -5574.353161 kJ/mol
# Density = 1.783297 g / cm^3
# Si number density = 17.873650 Si / 1000 Ang^3
#
#
#
# Elastic Constant Matrix: (Units=GPa)
#
#
# Indices 1 2 3 4 5 6 
#
# 1 101.0809 27.0811 35.8067 0.0000 0.0000 0.0000
# 2 27.0811 69.3845 26.8002 0.0000 0.0000 0.0000
# 3 35.8067 26.8002 53.0664 0.0000 0.0000 0.0000
# 4 0.0000 0.0000 0.0000 25.7417 0.0000 0.0000
# 5 0.0000 0.0000 0.0000 0.0000 28.7995 0.0000
# 6 0.0000 0.0000 0.0000 0.0000 0.0000 21.6265
#
#
#
# Elastic Compliance Matrix: (Units=1/GPa)
#
#
# Indices 1 2 3 4 5 6 
#
# 1 0.013250 -0.002135 -0.007863 0.000000 0.000000 0.000000
# 2 -0.002135 0.018249 -0.007776 0.000000 0.000000 0.000000
# 3 -0.007863 -0.007776 0.028077 0.000000 0.000000 0.000000
# 4 0.000000 0.000000 0.000000 0.038847 0.000000 0.000000
# 5 0.000000 0.000000 0.000000 0.000000 0.034723 0.000000
# 6 0.000000 0.000000 0.000000 0.000000 0.000000 0.046239
#
#
# Mechanical properties :
#
#
# Convention : Reuss Voigt Hill
#
# Bulk Modulus (GPa) = 41.61529 44.76753 43.19141
# Shear Modulus (GPa) = 22.42737 24.15648 23.29193
#
# Velocity S-wave (km/s) = 3.54612 3.68028 3.61382
# Velocity P-wave (km/s) = 6.33247 6.56965 6.45215
#
# Compressibility (1/GPa) = 0.02402963
#
# Stress axis : x y z
#
# Youngs Moduli (GPa) = 75.47072 54.79710 35.61674
#
# Poissons Ratio (x) = 0.11697 0.28004
# Poissons Ratio (y) = 0.16111 0.27696
# Poissons Ratio (z) = 0.59339 0.42610
#
# Static dielectric constant tensor:
#      x y z
#    x 1.626920 0.000000 0.000000 
#    y 0.000000 1.622040 0.000000 
#    z 0.000000 0.000000 1.642890 
# 
# From -- ./inp_files/7457.got.cif
#   From: 2010.05.17/outbox.cif.g08.bks.cpg/sg73_4_cif.got.tgz:7457.got - 2010.06.03 17:35:07.
