data_PCOD9530938
_publ_section_title
;
Structure prediction by ZEFSAII (Michael W. Deem and Ramdas Pophale) SiO2 
 PCOD9530938
Probable space group: I B C A 
;
_chemical_formula_sum "Si O2"
_cell_formula_units_Z 96
_cell_length_a 23.817121
_cell_length_b 9.612746
_cell_length_c 21.653265
_cell_angle_alpha 90.000000
_cell_angle_beta 90.000000
_cell_angle_gamma 90.000000
_cell_volume 4957.470300
_symmetry_space_group_name_H-M "I B C A "
_symmetry_group_IT_number 73
_symmetry_cell_setting 'orthorhombic'
loop_
_space_group_symop_operation_xyz
x,y,z
-x,1/2-y,z
x,-y,1/2-z
1/2-x,y,-z
-x,-y,-z
x,1/2+y,-z
-x,y,1/2+z
1/2+x,-y,z
1/2+x,1/2+y,1/2+z
1/2-x,-y,1/2+z
1/2+x,1/2-y,-z
-x,1/2+y,1/2-z
1/2-x,1/2-y,1/2-z
1/2+x,y,1/2-z
1/2-x,1/2+y,z
x,1/2-y,1/2+z
loop_
_atom_site_type_symbol
_atom_site_label
_atom_site_fract_x
_atom_site_fract_y
_atom_site_fract_z
Si Si1 0.375953 0.975636 0.007155
Si Si2 0.187229 0.329185 0.795882
Si Si3 0.973404 0.614227 0.573898
Si Si4 0.264331 0.895402 0.666428
Si Si5 0.913270 0.138926 0.877731
Si Si6 0.694895 0.729202 0.538337
O O1 0.380359 0.908756 0.938987
O O2 0.341022 0.117050 0.000409
O O3 0.343320 0.864287 0.048347
O O4 0.437937 0.011220 0.032405
O O5 0.204838 0.177685 0.820209
O O6 0.231498 0.438813 0.826234
O O7 0.196643 0.340382 0.722939
O O8 0.126795 0.377770 0.819755
O O9 0.929930 0.698489 0.616970
O O10 0.000000 0.750000 0.537918
O O11 0.026234 0.562890 0.614279
O O12 0.286570 0.844980 0.601046
O O13 0.750000 0.770761 0.500000
#
# Coordination Sequence:
#
# PCOD9530938 Si02
#       6
#    16  16  16  16  16  16
#     4  12  20  37  55  86 124 155 198 251 299 368
#     4  10  20  40  59  83 118 154 202 244 293 358
#     4   8  20  34  58  88 108 159 198 246 311 354
#     4  10  23  36  59  86 116 161 195 239 298 368
#     4   9  18  35  58  81 112 151 193 245 295 349
#     4  12  25  35  55  91 127 163 193 245 311 369
#
# _framework density 19.364713999999999
#
# number of rings (size 3 to 8) (size 9 to 14) (size 15 to 20)
#    1.000    0.667    3.333    2.000    2.333    0.000 
#    0.000    0.000    0.000    8.000    0.000    0.000 
#    0.000    0.000    0.000    0.000    0.000    0.000 
#
# Total GULP energy -267317.436091 kJ/mol
# GULP energy per Si atom -5569.113252 kJ/mol
# Density = 1.932064 g / cm^3
# Si number density = 19.364714 Si / 1000 Ang^3
#
#
#
# Elastic Constant Matrix: (Units=GPa)
#
#
# Indices 1 2 3 4 5 6 
#
# 1 92.1859 15.1319 28.6673 0.0000 0.0000 0.0000
# 2 15.1319 57.5365 0.2499 0.0000 0.0000 0.0000
# 3 28.6673 0.2499 64.0095 0.0000 0.0000 0.0000
# 4 0.0000 0.0000 0.0000 8.7130 0.0000 0.0000
# 5 0.0000 0.0000 0.0000 0.0000 32.1465 0.0000
# 6 0.0000 0.0000 0.0000 0.0000 0.0000 33.9728
#
#
#
# Elastic Compliance Matrix: (Units=1/GPa)
#
#
# Indices 1 2 3 4 5 6 
#
# 1 0.013258 -0.003461 -0.005924 0.000000 0.000000 0.000000
# 2 -0.003461 0.018284 0.001479 0.000000 0.000000 0.000000
# 3 -0.005924 0.001479 0.018270 0.000000 0.000000 0.000000
# 4 0.000000 0.000000 0.000000 0.114771 0.000000 0.000000
# 5 0.000000 0.000000 0.000000 0.000000 0.031108 0.000000
# 6 0.000000 0.000000 0.000000 0.000000 0.000000 0.029435
#
#
# Mechanical properties :
#
#
# Convention : Reuss Voigt Hill
#
# Bulk Modulus (GPa) = 29.41260 33.53668 31.47464
# Shear Modulus (GPa) = 19.81981 26.27865 23.04923
#
# Velocity S-wave (km/s) = 3.20269 3.68780 3.45377
# Velocity P-wave (km/s) = 5.37569 5.95728 5.67394
#
# Compressibility (1/GPa) = 0.03399903
#
# Stress axis : x y z
#
# Youngs Moduli (GPa) = 75.42586 54.69235 54.73406
#
# Poissons Ratio (x) = 0.18929 0.32426
# Poissons Ratio (y) = 0.26105 -0.08093
# Poissons Ratio (z) = 0.44684 -0.08087
#
# Static dielectric constant tensor:
#      x y z
#    x 1.735270 0.000000 0.000000 
#    y 0.000000 1.721130 0.000000 
#    z 0.000000 0.000000 1.675390 
# 
# From -- ./inp_files/26899.got.cif
#   From: 2010.05.17/outbox.cif.g08.bks.cpg/sg73_14_cif.got.tgz:26899.got - 2010.06.03 17:35:07.
