data_PCOD9530370
_publ_section_title
;
Structure prediction by ZEFSAII (Michael W. Deem and Ramdas Pophale) SiO2 
 PCOD9530370
Probable space group: I B C A 
;
_chemical_formula_sum "Si O2"
_cell_formula_units_Z 88
_cell_length_a 14.554593
_cell_length_b 20.299257
_cell_length_c 15.448601
_cell_angle_alpha 90.000000
_cell_angle_beta 90.000000
_cell_angle_gamma 90.000000
_cell_volume 4564.249367
_symmetry_space_group_name_H-M "I B C A "
_symmetry_group_IT_number 73
_symmetry_cell_setting 'orthorhombic'
loop_
_space_group_symop_operation_xyz
x,y,z
-x,1/2-y,z
x,-y,1/2-z
1/2-x,y,-z
-x,-y,-z
x,1/2+y,-z
-x,y,1/2+z
1/2+x,-y,z
1/2+x,1/2+y,1/2+z
1/2-x,-y,1/2+z
1/2+x,1/2-y,-z
-x,1/2+y,1/2-z
1/2-x,1/2-y,1/2-z
1/2+x,y,1/2-z
1/2-x,1/2+y,z
x,1/2-y,1/2+z
loop_
_atom_site_type_symbol
_atom_site_label
_atom_site_fract_x
_atom_site_fract_y
_atom_site_fract_z
Si Si1 0.433349 0.190970 0.992289
Si Si2 0.353096 0.570079 0.298482
Si Si3 0.944536 0.065687 0.983051
Si Si4 0.327883 0.630940 0.631735
Si Si5 0.482548 0.321922 0.292355
Si Si6 0.250000 0.240434 0.500000
O O1 0.500000 0.250000 0.018223
O O2 0.480764 0.124284 0.022770
O O3 0.333942 0.212095 0.024691
O O4 0.435807 0.188723 0.887099
O O5 0.355581 0.500000 0.250000
O O6 0.389756 0.559632 0.394910
O O7 0.250543 0.598246 0.310350
O O8 0.419340 0.625319 0.256110
O O9 0.127383 0.916338 0.941206
O O10 0.000000 0.000000 0.000000
O O11 0.415469 0.651486 0.688343
O O12 0.284922 0.692347 0.577222
O O13 0.500000 0.250000 0.251011
#
# Coordination Sequence:
#
# PCOD9530370 Si02
#       6
#    16  16  16  16  16   8
#     4  10  19  40  68  95 124 167 213 266 317 385
#     4  12  25  41  65  95 133 177 215 267 344 400
#     4  11  23  44  67  90 129 172 221 270 322 391
#     4  11  22  44  67  93 130 175 222 273 321 393
#     4  10  22  43  63  93 139 163 206 279 334 386
#     4  12  18  40  76  94 124 166 230 270 318 384
#
# _framework density 19.280277999999999
#
# number of rings (size 3 to 8) (size 9 to 14) (size 15 to 20)
#    0.000    1.091    7.273    2.182    0.000    5.091 
#    9.818    0.000    0.000    0.000    0.000    0.000 
#    0.000    0.000    0.000    0.000    0.000    0.000 
#
# Total GULP energy -245741.497661 kJ/mol
# GULP energy per Si atom -5585.034038 kJ/mol
# Density = 1.923640 g / cm^3
# Si number density = 19.280278 Si / 1000 Ang^3
#
#
#
# Elastic Constant Matrix: (Units=GPa)
#
#
# Indices 1 2 3 4 5 6 
#
# 1 176.6246 86.2628 51.3606 0.0001 0.0000 0.0001
# 2 86.2628 163.2523 46.0603 0.0001 0.0001 0.0002
# 3 51.3606 46.0603 50.2175 0.0003 0.0002 0.0004
# 4 0.0001 0.0001 0.0003 -14.3855 0.0001 0.0002
# 5 0.0000 0.0001 0.0002 0.0001 16.0371 0.0001
# 6 0.0001 0.0002 0.0004 0.0002 0.0001 -22.2221
#
#
#
# Elastic Compliance Matrix: (Units=1/GPa)
#
#
# Indices 1 2 3 4 5 6 
#
# 1 0.008975 -0.002904 -0.006515 0.000000 0.000000 0.000000
# 2 -0.002904 0.009204 -0.005472 0.000000 0.000000 0.000000
# 3 -0.006515 -0.005472 0.031596 0.000001 0.000000 0.000001
# 4 0.000000 0.000000 0.000001 -0.069515 0.000001 -0.000001
# 5 0.000000 0.000000 0.000000 0.000001 0.062355 0.000000
# 6 0.000000 0.000000 0.000001 -0.000001 0.000000 -0.045000
#
#
# Mechanical properties :
#
#
# Convention : Reuss Voigt Hill
#
# Bulk Modulus (GPa) = 50.01987 84.16243 67.09115
# Shear Modulus (GPa) = 146.79460 9.64660 78.22060
#
# Velocity S-wave (km/s) = 8.73513 2.23924 6.37639
# Velocity P-wave (km/s) = 11.30206 7.10158 9.43846
#
# Compressibility (1/GPa) = 0.01999205
#
# Stress axis : x y z
#
# Youngs Moduli (GPa) = 111.42554 108.65131 31.64972
#
# Poissons Ratio (x) = 0.31552 0.20621
# Poissons Ratio (y) = 0.32357 0.17318
# Poissons Ratio (z) = 0.72598 0.59452
#
# Static dielectric constant tensor:
#      x y z
#    x 1.664280 0.000000 0.000000 
#    y 0.000000 1.622530 0.000000 
#    z 0.000000 0.000000 1.686220 
# 
# From -- ./inp_files/16945.got.cif
#   From: 2010.05.17/outbox.cif.g08.bks.cpg/sg73_9_cif.got.tgz:16945.got - 2010.06.03 17:35:07.
