data_PCOD9530216
_publ_section_title
;
Structure prediction by ZEFSAII (Michael W. Deem and Ramdas Pophale) SiO2 
 PCOD9530216
Probable space group: I B C A 
;
_chemical_formula_sum "Si O2"
_cell_formula_units_Z 120
_cell_length_a 24.344177
_cell_length_b 18.569998
_cell_length_c 14.112367
_cell_angle_alpha 90.000000
_cell_angle_beta 90.000000
_cell_angle_gamma 90.000000
_cell_volume 6379.796353
_symmetry_space_group_name_H-M "I B C A "
_symmetry_group_IT_number 73
_symmetry_cell_setting 'orthorhombic'
loop_
_space_group_symop_operation_xyz
x,y,z
-x,1/2-y,z
x,-y,1/2-z
1/2-x,y,-z
-x,-y,-z
x,1/2+y,-z
-x,y,1/2+z
1/2+x,-y,z
1/2+x,1/2+y,1/2+z
1/2-x,-y,1/2+z
1/2+x,1/2-y,-z
-x,1/2+y,1/2-z
1/2-x,1/2-y,1/2-z
1/2+x,y,1/2-z
1/2-x,1/2+y,z
x,1/2-y,1/2+z
loop_
_atom_site_type_symbol
_atom_site_label
_atom_site_fract_x
_atom_site_fract_y
_atom_site_fract_z
Si Si1 0.375805 0.133975 0.279468
Si Si2 0.804896 0.591926 0.439432
Si Si3 0.105254 0.172762 0.938390
Si Si4 0.545850 0.000000 0.750000
Si Si5 0.501558 0.429217 0.063027
Si Si6 0.750188 0.412980 0.257599
Si Si7 0.807509 0.071167 0.945158
Si Si8 0.096420 0.669010 0.482384
O O1 0.384400 0.166296 0.174491
O O2 0.411908 0.060602 0.288699
O O3 0.310260 0.117860 0.280335
O O4 0.399558 0.178837 0.368261
O O5 0.750000 0.586287 0.500000
O O6 0.845265 0.643917 0.495934
O O7 0.781296 0.613072 0.336750
O O8 0.829506 0.510733 0.436106
O O9 0.054737 0.119365 0.956604
O O10 0.093756 0.253998 0.968152
O O11 0.509099 0.959793 0.829531
O O12 0.500000 0.500000 0.000000
O O13 0.450930 0.380093 0.029249
O O14 0.742863 0.500000 0.250000
O O15 0.791758 0.399597 0.342708
O O16 0.750000 0.067500 0.000000
O O17 0.848652 0.124192 0.995775
#
# Coordination Sequence:
#
# PCOD9530216 Si02
#       8
#    16  16  16   8  16  16  16  16
#     4  11  21  40  69  94 124 178 220 261 321 404
#     4  10  20  37  62  92 126 168 219 276 311 375
#     4  11  26  43  63  96 133 172 217 262 339 404
#     4  10  22  40  74 100 120 166 232 276 316 390
#     4  11  23  46  71  97 123 168 224 275 325 386
#     4  10  19  35  62  97 129 164 222 274 324 375
#     4  10  21  36  61  92 126 170 217 273 320 377
#     4  12  25  44  63  95 139 170 211 276 335 400
#
# _framework density 18.809377999999999
#
# number of rings (size 3 to 8) (size 9 to 14) (size 15 to 20)
#    0.000    1.333    4.667    1.200    1.867    1.600 
#    8.400    2.667    0.000    0.000    0.000    0.000 
#    0.000    0.000    0.000    0.000    0.000    0.000 
#
# Total GULP energy -334540.690925 kJ/mol
# GULP energy per Si atom -5575.678182 kJ/mol
# Density = 1.876657 g / cm^3
# Si number density = 18.809378 Si / 1000 Ang^3
#
#
#
# Elastic Constant Matrix: (Units=GPa)
#
#
# Indices 1 2 3 4 5 6 
#
# 1 89.3298 52.1515 44.9612 0.0000 0.0000 0.0000
# 2 52.1515 109.6993 38.9529 0.0000 0.0000 0.0000
# 3 44.9612 38.9529 122.1088 0.0000 0.0000 0.0000
# 4 0.0000 0.0000 0.0000 24.3084 0.0000 0.0000
# 5 0.0000 0.0000 0.0000 0.0000 27.7060 0.0000
# 6 0.0000 0.0000 0.0000 0.0000 0.0000 28.1771
#
#
#
# Elastic Compliance Matrix: (Units=1/GPa)
#
#
# Indices 1 2 3 4 5 6 
#
# 1 0.017218 -0.006692 -0.004205 0.000000 0.000000 0.000000
# 2 -0.006692 0.012882 -0.001645 0.000000 0.000000 0.000000
# 3 -0.004205 -0.001645 0.010262 0.000000 0.000000 0.000000
# 4 0.000000 0.000000 0.000000 0.041138 0.000000 0.000000
# 5 0.000000 0.000000 0.000000 0.000000 0.036093 0.000000
# 6 0.000000 0.000000 0.000000 0.000000 0.000000 0.035490
#
#
# Mechanical properties :
#
#
# Convention : Reuss Voigt Hill
#
# Bulk Modulus (GPa) = 65.45650 65.91879 65.68764
# Shear Modulus (GPa) = 27.28363 28.37645 27.83004
#
# Velocity S-wave (km/s) = 3.81272 3.88833 3.85071
# Velocity P-wave (km/s) = 7.36600 7.43509 7.40062
#
# Compressibility (1/GPa) = 0.01527732
#
# Stress axis : x y z
#
# Youngs Moduli (GPa) = 58.07903 77.63043 97.44256
#
# Poissons Ratio (x) = 0.51953 0.40973
# Poissons Ratio (y) = 0.38869 0.16030
# Poissons Ratio (z) = 0.24421 0.12771
#
# Static dielectric constant tensor:
#      x y z
#    x 1.635350 0.000000 0.000000 
#    y 0.000000 1.637890 0.000000 
#    z 0.000000 0.000000 1.820100 
# 
# From -- ./inp_files/18960.got.cif
#   From: 2010.05.17/outbox.cif.g08.bks.cpg/sg73_10_cif.got.tgz:18960.got - 2010.06.03 17:35:07.
