data_PCOD9530979
_publ_section_title
;
Structure prediction by ZEFSAII (Michael W. Deem and Ramdas Pophale) SiO2 
 PCOD9530979
Probable space group: I B C A 
;
_chemical_formula_sum "Si O2"
_cell_formula_units_Z 96
_cell_length_a 12.482079
_cell_length_b 13.106465
_cell_length_c 30.709207
_cell_angle_alpha 90.000000
_cell_angle_beta 90.000000
_cell_angle_gamma 90.000000
_cell_volume 5023.901326
_symmetry_space_group_name_H-M "I B C A "
_symmetry_group_IT_number 73
_symmetry_cell_setting 'orthorhombic'
loop_
_space_group_symop_operation_xyz
x,y,z
-x,1/2-y,z
x,-y,1/2-z
1/2-x,y,-z
-x,-y,-z
x,1/2+y,-z
-x,y,1/2+z
1/2+x,-y,z
1/2+x,1/2+y,1/2+z
1/2-x,-y,1/2+z
1/2+x,1/2-y,-z
-x,1/2+y,1/2-z
1/2-x,1/2-y,1/2-z
1/2+x,y,1/2-z
1/2-x,1/2+y,z
x,1/2-y,1/2+z
loop_
_atom_site_type_symbol
_atom_site_label
_atom_site_fract_x
_atom_site_fract_y
_atom_site_fract_z
Si Si1 0.736679 0.529027 0.889355
Si Si2 0.389928 0.612708 0.174841
Si Si3 0.858128 0.645015 0.816315
Si Si4 0.109703 0.397338 0.973630
Si Si5 0.374139 0.071960 0.046607
Si Si6 0.250000 0.727307 0.000000
Si Si7 0.742289 0.500000 0.750000
O O1 0.660765 0.442544 0.867843
O O2 0.775181 0.608014 0.853220
O O3 0.681294 0.581448 0.931112
O O4 0.845825 0.481377 0.908676
O O5 0.519334 0.608500 0.175232
O O6 0.360748 0.732043 0.181863
O O7 0.333956 0.551763 0.214170
O O8 0.815080 0.587538 0.772945
O O9 0.990892 0.380806 0.956298
O O10 0.122678 0.493181 0.006032
O O11 0.149990 0.302455 0.002121
O O12 0.279833 0.153224 0.039161
#
# Coordination Sequence:
#
# PCOD9530979 Si02
#       7
#    16  16  16  16  16   8   8
#     4  11  21  39  57  82 120 152 187 243 285 339
#     4  10  22  38  61  89 115 150 188 227 282 343
#     4  10  22  38  61  89 115 150 188 227 282 343
#     4  11  23  39  58  81 113 155 199 243 292 340
#     4  11  23  39  58  81 113 155 199 243 292 340
#     4  12  20  40  56  84 108 150 200 256 280 338
#     4  10  20  40  66  84 122 144 182 232 280 334
#
# _framework density 19.108654999999999
#
# number of rings (size 3 to 8) (size 9 to 14) (size 15 to 20)
#    0.000    1.333    3.333    2.500    2.333    0.000 
#    0.000    0.000    0.000    6.000    0.000    0.000 
#    0.000    0.000    0.000    0.000    0.000    0.000 
#
# Total GULP energy -267541.494948 kJ/mol
# GULP energy per Si atom -5573.781145 kJ/mol
# Density = 1.906516 g / cm^3
# Si number density = 19.108655 Si / 1000 Ang^3
#
#
#
# Elastic Constant Matrix: (Units=GPa)
#
#
# Indices 1 2 3 4 5 6 
#
# 1 74.1709 27.6961 26.1614 0.0000 0.0000 0.0000
# 2 27.6961 84.1637 22.2261 0.0000 0.0000 0.0000
# 3 26.1614 22.2261 72.9938 0.0000 0.0000 0.0000
# 4 0.0000 0.0000 0.0000 14.5464 0.0000 0.0000
# 5 0.0000 0.0000 0.0000 0.0000 23.4272 0.0000
# 6 0.0000 0.0000 0.0000 0.0000 0.0000 33.4548
#
#
#
# Elastic Compliance Matrix: (Units=1/GPa)
#
#
# Indices 1 2 3 4 5 6 
#
# 1 0.016732 -0.004265 -0.004698 0.000000 0.000000 0.000000
# 2 -0.004265 0.014008 -0.002737 0.000000 0.000000 0.000000
# 3 -0.004698 -0.002737 0.016217 0.000000 0.000000 0.000000
# 4 0.000000 0.000000 0.000000 0.068745 0.000000 0.000000
# 5 0.000000 0.000000 0.000000 0.000000 0.042685 0.000000
# 6 0.000000 0.000000 0.000000 0.000000 0.000000 0.029891
#
#
# Mechanical properties :
#
#
# Convention : Reuss Voigt Hill
#
# Bulk Modulus (GPa) = 42.45062 42.61064 42.53063
# Shear Modulus (GPa) = 22.77577 24.63533 23.70555
#
# Velocity S-wave (km/s) = 3.45615 3.59447 3.52599
# Velocity P-wave (km/s) = 6.17982 6.29083 6.23557
#
# Compressibility (1/GPa) = 0.02355678
#
# Stress axis : x y z
#
# Youngs Moduli (GPa) = 59.76478 71.38808 61.66408
#
# Poissons Ratio (x) = 0.30450 0.28971
# Poissons Ratio (y) = 0.25492 0.16875
# Poissons Ratio (z) = 0.28078 0.19536
#
# Static dielectric constant tensor:
#      x y z
#    x 1.680920 0.000000 0.000000 
#    y 0.000000 1.695150 0.000000 
#    z 0.000000 0.000000 1.644060 
# 
# From -- ./inp_files/34272.got.cif
#   From: 2010.05.17/outbox.cif.g08.bks.cpg/sg73_18_cif.got.tgz:34272.got - 2010.06.03 17:35:07.
