data_PCOD9530703
_publ_section_title
;
Structure prediction by ZEFSAII (Michael W. Deem and Ramdas Pophale) SiO2 
 PCOD9530703
Probable space group: I B C A 
;
_chemical_formula_sum "Si O2"
_cell_formula_units_Z 72
_cell_length_a 14.172757
_cell_length_b 23.235497
_cell_length_c 9.457629
_cell_angle_alpha 90.000000
_cell_angle_beta 90.000000
_cell_angle_gamma 90.000000
_cell_volume 3114.501763
_symmetry_space_group_name_H-M "I B C A "
_symmetry_group_IT_number 73
_symmetry_cell_setting 'orthorhombic'
loop_
_space_group_symop_operation_xyz
x,y,z
-x,1/2-y,z
x,-y,1/2-z
1/2-x,y,-z
-x,-y,-z
x,1/2+y,-z
-x,y,1/2+z
1/2+x,-y,z
1/2+x,1/2+y,1/2+z
1/2-x,-y,1/2+z
1/2+x,1/2-y,-z
-x,1/2+y,1/2-z
1/2-x,1/2-y,1/2-z
1/2+x,y,1/2-z
1/2-x,1/2+y,z
x,1/2-y,1/2+z
loop_
_atom_site_type_symbol
_atom_site_label
_atom_site_fract_x
_atom_site_fract_y
_atom_site_fract_z
Si Si1 0.250000 0.330947 0.500000
Si Si2 0.034131 0.958032 0.121152
Si Si3 0.854648 0.634219 0.040723
Si Si4 0.900046 0.357017 0.778653
Si Si5 0.858021 0.770410 0.771400
O O1 0.199021 0.362227 0.367201
O O2 0.340550 0.297130 0.428651
O O3 0.136429 0.928976 0.105662
O O4 0.969138 0.901124 0.142025
O O5 0.030749 0.000000 0.250000
O O6 0.000000 0.000000 0.000000
O O7 0.884254 0.681632 0.156272
O O8 0.750000 0.652363 0.000000
O O9 0.902479 0.626691 0.887359
O O10 0.915231 0.288056 0.757294
O O11 0.750000 0.750000 0.750000
#
# Coordination Sequence:
#
# PCOD9530703 Si02
#       5
#     8  16  16  16  16
#     4  10  20  36  74 114 148 178 232 284 358 436
#     4  12  29  53  67  96 145 189 246 303 341 409
#     4  12  24  47  75 105 144 186 232 293 361 429
#     4  11  23  43  72 104 146 185 226 293 363 414
#     4  10  20  38  71 112 147 172 223 290 354 432
#
# _framework density 23.117661999999999
#
# number of rings (size 3 to 8) (size 9 to 14) (size 15 to 20)
#    0.000    0.889    6.667    2.667    4.667    0.889 
#    6.000    2.222    0.000    0.000    0.000    0.000 
#    0.000    0.000    0.000    0.000    0.000    0.000 
#
# Total GULP energy -200434.127862 kJ/mol
# GULP energy per Si atom -5567.614663 kJ/mol
# Density = 2.306505 g / cm^3
# Si number density = 23.117662 Si / 1000 Ang^3
#
#
#
# Elastic Constant Matrix: (Units=GPa)
#
#
# Indices 1 2 3 4 5 6 
#
# 1 33.3694 40.3081 15.7832 0.0001 0.0000 0.0000
# 2 40.3081 156.6065 61.7166 0.0002 -0.0002 0.0001
# 3 15.7832 61.7166 165.7838 0.0018 -0.0007 0.0005
# 4 0.0001 0.0002 0.0018 24.5490 -0.0003 0.0001
# 5 0.0000 -0.0002 -0.0007 -0.0003 21.4246 0.0000
# 6 0.0000 0.0001 0.0005 0.0001 0.0000 34.5967
#
#
#
# Elastic Compliance Matrix: (Units=1/GPa)
#
#
# Indices 1 2 3 4 5 6 
#
# 1 0.043488 -0.011206 0.000031 0.000000 0.000000 0.000000
# 2 -0.011206 0.010371 -0.002794 0.000000 0.000000 0.000000
# 3 0.000031 -0.002794 0.007069 0.000000 0.000000 0.000000
# 4 0.000000 0.000000 0.000000 0.040735 0.000001 0.000000
# 5 0.000000 0.000000 0.000000 0.000001 0.046675 0.000000
# 6 0.000000 0.000000 0.000000 0.000000 0.000000 0.028905
#
#
# Mechanical properties :
#
#
# Convention : Reuss Voigt Hill
#
# Bulk Modulus (GPa) = 30.31068 65.70838 48.00953
# Shear Modulus (GPa) = 23.12930 31.97752 27.55341
#
# Velocity S-wave (km/s) = 3.16651 3.72324 3.45610
# Velocity P-wave (km/s) = 5.14868 6.85336 6.06125
#
# Compressibility (1/GPa) = 0.03299167
#
# Stress axis : x y z
#
# Youngs Moduli (GPa) = 22.99470 96.42661 141.46167
#
# Poissons Ratio (x) = 1.08051 -0.00442
# Poissons Ratio (y) = 0.25767 0.39523
# Poissons Ratio (z) = -0.00072 0.26940
#
# Static dielectric constant tensor:
#      x y z
#    x 2.017900 0.000000 0.000000 
#    y 0.000000 1.827110 0.000000 
#    z 0.000000 0.000000 2.596680 
# 
# From -- ./inp_files/5361.got.cif
#   From: 2010.05.17/outbox.cif.g08.bks.cpg/sg73_3_cif.got.tgz:5361.got - 2010.06.03 17:35:07.
