data_PCOD9530704
_publ_section_title
;
Structure prediction by ZEFSAII (Michael W. Deem and Ramdas Pophale) SiO2 
 PCOD9530704
Probable space group: I B C A 
;
_chemical_formula_sum "Si O2"
_cell_formula_units_Z 120
_cell_length_a 16.780502
_cell_length_b 14.784090
_cell_length_c 24.989618
_cell_angle_alpha 90.000000
_cell_angle_beta 90.000000
_cell_angle_gamma 90.000000
_cell_volume 6199.535683
_symmetry_space_group_name_H-M "I B C A "
_symmetry_group_IT_number 73
_symmetry_cell_setting 'orthorhombic'
loop_
_space_group_symop_operation_xyz
x,y,z
-x,1/2-y,z
x,-y,1/2-z
1/2-x,y,-z
-x,-y,-z
x,1/2+y,-z
-x,y,1/2+z
1/2+x,-y,z
1/2+x,1/2+y,1/2+z
1/2-x,-y,1/2+z
1/2+x,1/2-y,-z
-x,1/2+y,1/2-z
1/2-x,1/2-y,1/2-z
1/2+x,y,1/2-z
1/2-x,1/2+y,z
x,1/2-y,1/2+z
loop_
_atom_site_type_symbol
_atom_site_label
_atom_site_fract_x
_atom_site_fract_y
_atom_site_fract_z
Si Si1 0.906229 0.649854 0.059519
Si Si2 0.161226 0.008434 0.634064
Si Si3 0.363584 0.179614 0.436721
Si Si4 0.494508 0.049799 0.807256
Si Si5 0.000000 0.750000 0.854977
Si Si6 0.834760 0.995081 0.632178
Si Si7 0.914820 0.639647 0.563351
Si Si8 0.181015 0.134270 0.038282
O O1 0.845943 0.592453 0.094582
O O2 0.905733 0.754725 0.075808
O O3 0.994229 0.611405 0.071422
O O4 0.893763 0.649731 0.995486
O O5 0.166414 0.091186 0.592612
O O6 0.081169 0.025251 0.667872
O O7 0.248503 0.005184 0.661151
O O8 0.143256 0.918790 0.599756
O O9 0.428855 0.224156 0.396500
O O10 0.302444 0.261310 0.447499
O O11 0.487128 0.159479 0.818385
O O12 0.414681 0.008837 0.834109
O O13 0.495903 0.000000 0.750000
O O14 0.831094 0.077621 0.590668
O O15 0.895489 0.630736 0.500370
O O16 0.250000 0.097899 0.000000
#
# Coordination Sequence:
#
# PCOD9530704 Si02
#       8
#    16  16  16  16   8  16  16  16
#     4  10  22  34  60  92 137 183 216 247 308 391
#     4  11  24  39  64  94 127 164 214 268 324 384
#     4  10  21  34  61  93 137 179 208 255 312 403
#     4  11  26  50  73  91 121 169 225 293 336 382
#     4  10  20  46  70  98 124 172 222 272 346 388
#     4  12  24  40  64  99 133 173 219 266 324 391
#     4  10  20  37  53  90 134 179 213 253 303 379
#     4  11  21  33  57  92 140 180 212 249 311 400
#
# _framework density 19.356287999999999
#
# number of rings (size 3 to 8) (size 9 to 14) (size 15 to 20)
#    0.000    1.333    4.000    2.400    5.600    1.600 
#    2.400    0.000    0.000    2.400    0.000    0.000 
#    0.000    0.000    0.000    0.000    0.000    0.000 
#
# Total GULP energy -334515.750738 kJ/mol
# GULP energy per Si atom -5575.262512 kJ/mol
# Density = 1.931223 g / cm^3
# Si number density = 19.356288 Si / 1000 Ang^3
#
#
#
# Elastic Constant Matrix: (Units=GPa)
#
#
# Indices 1 2 3 4 5 6 
#
# 1 143.4684 33.9152 50.5697 0.0000 0.0000 0.0000
# 2 33.9152 68.9177 44.4865 0.0000 0.0000 0.0000
# 3 50.5697 44.4865 88.4583 0.0000 0.0000 0.0000
# 4 0.0000 0.0000 0.0000 26.4880 0.0000 0.0000
# 5 0.0000 0.0000 0.0000 0.0000 21.9434 0.0000
# 6 0.0000 0.0000 0.0000 0.0000 0.0000 -1.9784
#
#
#
# Elastic Compliance Matrix: (Units=1/GPa)
#
#
# Indices 1 2 3 4 5 6 
#
# 1 0.008849 -0.001613 -0.004247 0.000000 0.000000 0.000000
# 2 -0.001613 0.021779 -0.010031 0.000000 0.000000 0.000000
# 3 -0.004247 -0.010031 0.018777 0.000000 0.000000 0.000000
# 4 0.000000 0.000000 0.000000 0.037753 0.000000 0.000000
# 5 0.000000 0.000000 0.000000 0.000000 0.045572 0.000000
# 6 0.000000 0.000000 0.000000 0.000000 0.000000 -0.505447
#
#
# Mechanical properties :
#
#
# Convention : Reuss Voigt Hill
#
# Bulk Modulus (GPa) = 56.74460 62.08746 59.41603
# Shear Modulus (GPa) = -14.92263 20.74879 2.91308
#
# Velocity S-wave (km/s) = -2.77960 3.27760 1.22811
# Velocity P-wave (km/s) = 4.36783 6.81684 5.72482
#
# Compressibility (1/GPa) = 0.01762282
#
# Stress axis : x y z
#
# Youngs Moduli (GPa) = 113.01266 45.91681 53.25538
#
# Poissons Ratio (x) = 0.07405 0.22620
# Poissons Ratio (y) = 0.18226 0.53419
# Poissons Ratio (z) = 0.48002 0.46058
#
# Static dielectric constant tensor:
#      x y z
#    x 1.775350 0.000000 0.000000 
#    y 0.000000 1.691550 0.000000 
#    z 0.000000 0.000000 1.640160 
# 
# From -- ./inp_files/29871.got.cif
#   From: 2010.05.17/outbox.cif.g08.bks.cpg/sg73_15_cif.got.tgz:29871.got - 2010.06.03 17:35:07.
