data_PCOD9530087
_publ_section_title
;
Structure prediction by ZEFSAII (Michael W. Deem and Ramdas Pophale) SiO2 
 PCOD9530087
Probable space group: I B C A 
;
_chemical_formula_sum "Si O2"
_cell_formula_units_Z 120
_cell_length_a 25.973050
_cell_length_b 28.478978
_cell_length_c 8.771470
_cell_angle_alpha 90.000000
_cell_angle_beta 90.000000
_cell_angle_gamma 90.000000
_cell_volume 6488.132853
_symmetry_space_group_name_H-M "I B C A "
_symmetry_group_IT_number 73
_symmetry_cell_setting 'orthorhombic'
loop_
_space_group_symop_operation_xyz
x,y,z
-x,1/2-y,z
x,-y,1/2-z
1/2-x,y,-z
-x,-y,-z
x,1/2+y,-z
-x,y,1/2+z
1/2+x,-y,z
1/2+x,1/2+y,1/2+z
1/2-x,-y,1/2+z
1/2+x,1/2-y,-z
-x,1/2+y,1/2-z
1/2-x,1/2-y,1/2-z
1/2+x,y,1/2-z
1/2-x,1/2+y,z
x,1/2-y,1/2+z
loop_
_atom_site_type_symbol
_atom_site_label
_atom_site_fract_x
_atom_site_fract_y
_atom_site_fract_z
Si Si1 0.403966 0.146757 0.320597
Si Si2 0.590480 0.219992 0.077837
Si Si3 0.027790 0.455086 0.852272
Si Si4 0.684215 0.290609 0.780022
Si Si5 0.473224 0.146778 0.767520
Si Si6 0.250000 0.722964 0.500000
Si Si7 0.396939 0.822680 0.505931
Si Si8 0.422796 0.955866 0.181961
O O1 0.390176 0.181981 0.455190
O O2 0.466249 0.150009 0.298920
O O3 0.392566 0.092086 0.343465
O O4 0.380975 0.162435 0.161019
O O5 0.636797 0.233117 0.191074
O O6 0.546716 0.191842 0.171139
O O7 0.579550 0.269652 0.999951
O O8 0.045592 0.500000 0.750000
O O9 0.044413 0.401888 0.810503
O O10 0.967120 0.450490 0.811656
O O11 0.045592 0.463453 0.024740
O O12 0.721510 0.304115 0.638924
O O13 0.651802 0.327108 0.881454
O O14 0.712263 0.257027 0.901776
O O15 0.443583 0.147083 0.928116
O O16 0.392098 0.000000 0.250000
#
# Coordination Sequence:
#
# PCOD9530087 Si02
#       8
#    16  16  16  16  16   8  16  16
#     4  11  22  33  52  70 108 149 191 225 253 296
#     4  11  21  37  48  75 109 143 181 219 260 293
#     4  10  19  32  51  67  94 129 183 249 280 300
#     4  10  21  35  57  79  98 128 174 205 277 310
#     4  10  22  34  47  74 101 148 201 219 258 293
#     4  10  20  38  62  76  94 128 172 218 252 352
#     4  11  23  33  52  72 109 146 180 219 256 300
#     4  10  20  32  50  71  92 132 187 240 278 303
#
# _framework density 18.495305999999999
#
# number of rings (size 3 to 8) (size 9 to 14) (size 15 to 20)
#    0.000    1.600    2.667    4.000    7.467    3.200 
#    0.000    0.000    0.000    0.000    0.000    0.000 
#    0.000    0.000    0.000   60.000    0.000    0.000 
#
# Total GULP energy -334118.796672 kJ/mol
# GULP energy per Si atom -5568.646611 kJ/mol
# Density = 1.845321 g / cm^3
# Si number density = 18.495306 Si / 1000 Ang^3
#
#
#
# Elastic Constant Matrix: (Units=GPa)
#
#
# Indices 1 2 3 4 5 6 
#
# 1 42.5952 2.7769 15.3190 0.0000 0.0000 0.0000
# 2 2.7769 89.3875 27.1706 0.0000 0.0000 0.0000
# 3 15.3190 27.1706 101.6472 0.0000 0.0000 0.0000
# 4 0.0000 0.0000 0.0000 31.5968 0.0000 0.0000
# 5 0.0000 0.0000 0.0000 0.0000 35.0689 0.0000
# 6 0.0000 0.0000 0.0000 0.0000 0.0000 -2.5287
#
#
#
# Elastic Compliance Matrix: (Units=1/GPa)
#
#
# Indices 1 2 3 4 5 6 
#
# 1 0.024835 0.000399 -0.003849 0.000000 0.000000 0.000000
# 2 0.000399 0.012183 -0.003317 0.000000 0.000000 0.000000
# 3 -0.003849 -0.003317 0.011305 0.000000 0.000000 0.000000
# 4 0.000000 0.000000 0.000000 0.031649 0.000000 0.000000
# 5 0.000000 0.000000 0.000000 0.000000 0.028515 0.000000
# 6 0.000000 0.000000 0.000000 0.000000 0.000000 -0.395466
#
#
# Mechanical properties :
#
#
# Convention : Reuss Voigt Hill
#
# Bulk Modulus (GPa) = 28.74560 36.01811 32.38185
# Shear Modulus (GPa) = -19.09504 25.38496 3.14496
#
# Velocity S-wave (km/s) = -3.21663 3.70876 1.30541
# Velocity P-wave (km/s) = 1.33427 6.15275 4.45177
#
# Compressibility (1/GPa) = 0.03478794
#
# Stress axis : x y z
#
# Youngs Moduli (GPa) = 40.26533 82.08161 88.45935
#
# Poissons Ratio (x) = -0.03271 0.34052
# Poissons Ratio (y) = -0.01605 0.29339
# Poissons Ratio (z) = 0.15500 0.27223
#
# Static dielectric constant tensor:
#      x y z
#    x 1.665630 0.000000 0.000000 
#    y 0.000000 1.723670 0.000000 
#    z 0.000000 0.000000 1.720050 
# 
# From -- ./inp_files/8149.got.cif
#   From: 2010.05.17/outbox.cif.g08.bks.cpg/sg73_5_cif.got.tgz:8149.got - 2010.06.03 17:35:07.
