data_PCOD9530545
_publ_section_title
;
Structure prediction by ZEFSAII (Michael W. Deem and Ramdas Pophale) SiO2 
 PCOD9530545
Probable space group: I B C A 
;
_chemical_formula_sum "Si O2"
_cell_formula_units_Z 96
_cell_length_a 22.430552
_cell_length_b 23.607788
_cell_length_c 7.936700
_cell_angle_alpha 90.000000
_cell_angle_beta 90.000000
_cell_angle_gamma 90.000000
_cell_volume 4202.766120
_symmetry_space_group_name_H-M "I B C A "
_symmetry_group_IT_number 73
_symmetry_cell_setting 'orthorhombic'
loop_
_space_group_symop_operation_xyz
x,y,z
-x,1/2-y,z
x,-y,1/2-z
1/2-x,y,-z
-x,-y,-z
x,1/2+y,-z
-x,y,1/2+z
1/2+x,-y,z
1/2+x,1/2+y,1/2+z
1/2-x,-y,1/2+z
1/2+x,1/2-y,-z
-x,1/2+y,1/2-z
1/2-x,1/2-y,1/2-z
1/2+x,y,1/2-z
1/2-x,1/2+y,z
x,1/2-y,1/2+z
loop_
_atom_site_type_symbol
_atom_site_label
_atom_site_fract_x
_atom_site_fract_y
_atom_site_fract_z
Si Si1 0.424259 0.933673 0.413368
Si Si2 0.879263 0.836514 0.288339
Si Si3 0.380435 0.361656 0.274910
Si Si4 0.251023 0.315841 0.298287
Si Si5 0.069318 0.236886 0.021350
Si Si6 0.438342 0.458475 0.083247
O O1 0.412265 0.895643 0.248985
O O2 0.387359 0.900786 0.557331
O O3 0.495220 0.935048 0.450122
O O4 0.411957 0.000206 0.440303
O O5 0.808357 0.843428 0.277898
O O6 0.898005 0.796043 0.441241
O O7 0.900243 0.796535 0.131385
O O8 0.313524 0.341950 0.244691
O O9 0.421266 0.307391 0.322880
O O10 0.400553 0.404064 0.130266
O O11 0.250000 0.320421 0.500000
O O12 0.250000 0.250000 0.250000
O O13 0.000000 0.250000 0.996634
O O14 0.442820 0.500000 0.250000
#
# Coordination Sequence:
#
# PCOD9530545 Si02
#       6
#    16  16  16  16  16  16
#     4   9  18  34  58  83 118 153 198 251 304 367
#     4  11  21  37  57  88 119 164 201 248 307 367
#     4  10  20  35  56  86 116 163 203 250 304 366
#     4  12  21  40  62  84 123 164 212 249 302 372
#     4  11  21  33  53  86 125 157 197 255 310 366
#     4   9  18  34  58  88 114 156 201 246 310 368
#
# _framework density 22.842099000000001
#
# number of rings (size 3 to 8) (size 9 to 14) (size 15 to 20)
#    0.000    1.667    5.000    1.500    0.000    1.333 
#    0.000    1.667    0.000    5.000    0.000    0.000 
#    0.000    0.000    0.000    0.000    0.000    0.000 
#
# Total GULP energy -268468.567578 kJ/mol
# GULP energy per Si atom -5593.095158 kJ/mol
# Density = 2.279011 g / cm^3
# Si number density = 22.842099 Si / 1000 Ang^3
#
#
#
# Elastic Constant Matrix: (Units=GPa)
#
#
# Indices 1 2 3 4 5 6 
#
# 1 152.9639 67.0395 13.6489 0.0000 0.0000 0.0000
# 2 67.0395 178.8185 31.8118 0.0000 0.0000 0.0000
# 3 13.6489 31.8118 77.4142 0.0000 0.0000 0.0000
# 4 0.0000 0.0000 0.0000 50.8951 0.0000 0.0000
# 5 0.0000 0.0000 0.0000 0.0000 22.1701 0.0000
# 6 0.0000 0.0000 0.0000 0.0000 0.0000 26.4999
#
#
#
# Elastic Compliance Matrix: (Units=1/GPa)
#
#
# Indices 1 2 3 4 5 6 
#
# 1 0.007825 -0.002900 -0.000188 0.000000 0.000000 0.000000
# 2 -0.002900 0.007108 -0.002410 0.000000 0.000000 0.000000
# 3 -0.000188 -0.002410 0.013941 0.000000 0.000000 0.000000
# 4 0.000000 0.000000 0.000000 0.019648 0.000000 0.000000
# 5 0.000000 0.000000 0.000000 0.000000 0.045106 0.000000
# 6 0.000000 0.000000 0.000000 0.000000 0.000000 0.037736
#
#
# Mechanical properties :
#
#
# Convention : Reuss Voigt Hill
#
# Bulk Modulus (GPa) = 55.93209 70.46634 63.19922
# Shear Modulus (GPa) = 33.71094 39.69279 36.70187
#
# Velocity S-wave (km/s) = 3.84581 4.17310 4.01279
# Velocity P-wave (km/s) = 6.65282 7.35772 7.01413
#
# Compressibility (1/GPa) = 0.01787882
#
# Stress axis : x y z
#
# Youngs Moduli (GPa) = 127.78931 140.68100 71.73164
#
# Poissons Ratio (x) = 0.40802 0.01348
# Poissons Ratio (y) = 0.37063 0.17285
# Poissons Ratio (z) = 0.02401 0.33899
#
# Static dielectric constant tensor:
#      x y z
#    x 1.774960 0.000000 0.000000 
#    y 0.000000 1.842170 0.000000 
#    z 0.000000 0.000000 2.065840 
# 
# From -- ./inp_files/12870.got.cif
#   From: 2010.05.17/outbox.cif.g08.bks.cpg/sg73_7_cif.got.tgz:12870.got - 2010.06.03 17:35:07.
