data_PCOD9530969
_publ_section_title
;
Structure prediction by ZEFSAII (Michael W. Deem and Ramdas Pophale) SiO2 
 PCOD9530969
Probable space group: I B C A 
;
_chemical_formula_sum "Si O2"
_cell_formula_units_Z 64
_cell_length_a 17.967459
_cell_length_b 12.033667
_cell_length_c 12.277411
_cell_angle_alpha 90.000000
_cell_angle_beta 90.000000
_cell_angle_gamma 90.000000
_cell_volume 2654.553279
_symmetry_space_group_name_H-M "I B C A "
_symmetry_group_IT_number 73
_symmetry_cell_setting 'orthorhombic'
loop_
_space_group_symop_operation_xyz
x,y,z
-x,1/2-y,z
x,-y,1/2-z
1/2-x,y,-z
-x,-y,-z
x,1/2+y,-z
-x,y,1/2+z
1/2+x,-y,z
1/2+x,1/2+y,1/2+z
1/2-x,-y,1/2+z
1/2+x,1/2-y,-z
-x,1/2+y,1/2-z
1/2-x,1/2-y,1/2-z
1/2+x,y,1/2-z
1/2-x,1/2+y,z
x,1/2-y,1/2+z
loop_
_atom_site_type_symbol
_atom_site_label
_atom_site_fract_x
_atom_site_fract_y
_atom_site_fract_z
Si Si1 0.927145 0.435197 0.043859
Si Si2 0.337721 0.437494 0.895605
Si Si3 0.421043 0.256233 0.786771
Si Si4 0.328540 0.611179 0.366081
O O1 0.934405 0.318702 0.104288
O O2 0.888521 0.512519 0.134717
O O3 0.867692 0.446450 0.944314
O O4 0.000000 0.500000 0.000000
O O5 0.396802 0.379709 0.818029
O O6 0.254805 0.433472 0.850283
O O7 0.333866 0.360018 0.004980
O O8 0.500000 0.250000 0.725378
O O9 0.354879 0.203898 0.716402
#
# Coordination Sequence:
#
# PCOD9530969 Si02
#       4
#    16  16  16  16
#     4  10  20  40  65  90 132 168 215 265 325 384
#     4   9  21  42  61  91 130 167 214 270 324 389
#     4  12  21  36  71  96 128 176 211 271 333 394
#     4   9  21  41  61  91 132 163 217 273 315 394
#
# _framework density 24.109518999999999
#
# number of rings (size 3 to 8) (size 9 to 14) (size 15 to 20)
#    1.500    0.500    2.500    1.500    0.000    3.000 
#    9.000    0.000   16.500    0.000    0.000    0.000 
#    0.000    0.000    0.000    0.000    0.000    0.000 
#
# Total GULP energy -178356.040769 kJ/mol
# GULP energy per Si atom -5573.626274 kJ/mol
# Density = 2.405464 g / cm^3
# Si number density = 24.109519 Si / 1000 Ang^3
#
#
#
# Elastic Constant Matrix: (Units=GPa)
#
#
# Indices 1 2 3 4 5 6 
#
# 1 148.3973 7.0381 27.5900 0.0000 0.0000 0.0000
# 2 7.0381 58.2298 25.5985 0.0000 0.0000 0.0000
# 3 27.5900 25.5985 96.1840 0.0000 0.0000 0.0000
# 4 0.0000 0.0000 0.0000 19.5516 0.0000 0.0000
# 5 0.0000 0.0000 0.0000 0.0000 11.1940 0.0000
# 6 0.0000 0.0000 0.0000 0.0000 0.0000 27.1338
#
#
#
# Elastic Compliance Matrix: (Units=1/GPa)
#
#
# Indices 1 2 3 4 5 6 
#
# 1 0.007118 0.000042 -0.002053 0.000000 0.000000 0.000000
# 2 0.000042 0.019449 -0.005188 0.000000 0.000000 0.000000
# 3 -0.002053 -0.005188 0.012366 0.000000 0.000000 0.000000
# 4 0.000000 0.000000 0.000000 0.051147 0.000000 0.000000
# 5 0.000000 0.000000 0.000000 0.000000 0.089333 0.000000
# 6 0.000000 0.000000 0.000000 0.000000 0.000000 0.036854
#
#
# Mechanical properties :
#
#
# Convention : Reuss Voigt Hill
#
# Bulk Modulus (GPa) = 40.75726 47.02936 43.89331
# Shear Modulus (GPa) = 20.93407 27.74821 24.34114
#
# Velocity S-wave (km/s) = 2.94987 3.39621 3.18088
# Velocity P-wave (km/s) = 5.34267 5.90998 5.63347
#
# Compressibility (1/GPa) = 0.02453551
#
# Stress axis : x y z
#
# Youngs Moduli (GPa) = 140.48146 51.41637 80.86373
#
# Poissons Ratio (x) = -0.00217 0.16602
# Poissons Ratio (y) = -0.00593 0.41954
# Poissons Ratio (z) = 0.28842 0.26676
#
# Static dielectric constant tensor:
#      x y z
#    x 1.947930 0.000000 0.000000 
#    y 0.000000 1.800400 0.000000 
#    z 0.000000 0.000000 2.059380 
# 
# From -- ./inp_files/17701.got.cif
#   From: 2010.05.17/outbox.cif.g08.bks.cpg/sg73_9_cif.got.tgz:17701.got - 2010.06.03 17:35:07.
