data_PCOD9530662
_publ_section_title
;
Structure prediction by ZEFSAII (Michael W. Deem and Ramdas Pophale) SiO2 
 PCOD9530662
Probable space group: I B C A 
;
_chemical_formula_sum "Si O2"
_cell_formula_units_Z 96
_cell_length_a 14.718184
_cell_length_b 19.825564
_cell_length_c 15.157072
_cell_angle_alpha 90.000000
_cell_angle_beta 90.000000
_cell_angle_gamma 90.000000
_cell_volume 4422.777511
_symmetry_space_group_name_H-M "I B C A "
_symmetry_group_IT_number 73
_symmetry_cell_setting 'orthorhombic'
loop_
_space_group_symop_operation_xyz
x,y,z
-x,1/2-y,z
x,-y,1/2-z
1/2-x,y,-z
-x,-y,-z
x,1/2+y,-z
-x,y,1/2+z
1/2+x,-y,z
1/2+x,1/2+y,1/2+z
1/2-x,-y,1/2+z
1/2+x,1/2-y,-z
-x,1/2+y,1/2-z
1/2-x,1/2-y,1/2-z
1/2+x,y,1/2-z
1/2-x,1/2+y,z
x,1/2-y,1/2+z
loop_
_atom_site_type_symbol
_atom_site_label
_atom_site_fract_x
_atom_site_fract_y
_atom_site_fract_z
Si Si1 0.019560 0.596800 0.562933
Si Si2 0.847682 0.638031 0.456176
Si Si3 0.592741 0.469261 0.845674
Si Si4 0.145616 0.220929 0.478869
Si Si5 0.644141 0.749638 0.271051
Si Si6 0.008273 0.859274 0.761895
O O1 0.073075 0.527487 0.583177
O O2 0.083357 0.654790 0.521186
O O3 0.926386 0.599106 0.509211
O O4 0.990926 0.616180 0.661830
O O5 0.750000 0.642762 0.500000
O O6 0.835375 0.587436 0.374393
O O7 0.879188 0.716607 0.456432
O O8 0.616536 0.500000 0.750000
O O9 0.504261 0.422245 0.826345
O O10 0.250000 0.203011 0.500000
O O11 0.135950 0.249490 0.378208
O O12 0.750000 0.750000 0.250000
O O13 0.581221 0.811273 0.237444
O O14 0.597325 0.684953 0.226954
#
# Coordination Sequence:
#
# PCOD9530662 Si02
#       6
#    16  16  16  16  16  16
#     4  10  20  43  64  88 131 177 213 273 331 392
#     4  11  23  39  66  94 129 170 224 276 331 396
#     4  10  23  42  65  92 131 176 222 272 338 406
#     4  10  22  38  65  97 129 169 222 277 333 394
#     4  10  20  36  62  91 132 168 215 276 327 379
#     4   9  20  38  60  91 128 169 215 269 327 389
#
# _framework density 21.705817
#
# number of rings (size 3 to 8) (size 9 to 14) (size 15 to 20)
#    0.000    2.000    1.667    1.000    4.667    2.000 
#    3.000    7.500    0.000    0.000    0.000    0.000 
#    0.000    0.000    0.000    0.000    0.000    0.000 
#
# Total GULP energy -267681.149412 kJ/mol
# GULP energy per Si atom -5576.690613 kJ/mol
# Density = 2.165641 g / cm^3
# Si number density = 21.705817 Si / 1000 Ang^3
#
#
#
# Elastic Constant Matrix: (Units=GPa)
#
#
# Indices 1 2 3 4 5 6 
#
# 1 94.5431 44.4945 18.2259 0.0000 0.0000 0.0000
# 2 44.4945 149.8401 43.5992 0.0001 0.0000 0.0000
# 3 18.2259 43.5992 60.6709 0.0001 0.0000 0.0000
# 4 0.0000 0.0001 0.0001 38.6264 0.0000 0.0000
# 5 0.0000 0.0000 0.0000 0.0000 21.1825 0.0000
# 6 0.0000 0.0000 0.0000 0.0000 0.0000 7.3867
#
#
#
# Elastic Compliance Matrix: (Units=1/GPa)
#
#
# Indices 1 2 3 4 5 6 
#
# 1 0.012384 -0.003281 -0.001362 0.000000 0.000000 0.000000
# 2 -0.003281 0.009307 -0.005703 0.000000 0.000000 0.000000
# 3 -0.001362 -0.005703 0.020990 0.000000 0.000000 0.000000
# 4 0.000000 0.000000 0.000000 0.025889 0.000000 0.000000
# 5 0.000000 0.000000 0.000000 0.000000 0.047209 0.000000
# 6 0.000000 0.000000 0.000000 0.000000 0.000000 0.135379
#
#
# Mechanical properties :
#
#
# Convention : Reuss Voigt Hill
#
# Bulk Modulus (GPa) = 45.47801 57.52150 51.49975
# Shear Modulus (GPa) = 17.90960 26.68808 22.29884
#
# Velocity S-wave (km/s) = 2.87558 3.51028 3.20866
# Velocity P-wave (km/s) = 5.65887 6.55648 6.12414
#
# Compressibility (1/GPa) = 0.02198865
#
# Stress axis : x y z
#
# Youngs Moduli (GPa) = 80.74983 107.44125 47.64210
#
# Poissons Ratio (x) = 0.35251 0.06491
# Poissons Ratio (y) = 0.26493 0.27170
# Poissons Ratio (z) = 0.11002 0.61272
#
# Static dielectric constant tensor:
#      x y z
#    x 1.739170 0.000000 0.000000 
#    y 0.000000 1.859740 0.000000 
#    z 0.000000 0.000000 1.936480 
# 
# From -- ./inp_files/17033.got.cif
#   From: 2010.05.17/outbox.cif.g08.bks.cpg/sg73_9_cif.got.tgz:17033.got - 2010.06.03 17:35:07.
