data_PCOD9530070
_publ_section_title
;
Structure prediction by ZEFSAII (Michael W. Deem and Ramdas Pophale) SiO2 
 PCOD9530070
Probable space group: I B C A 
;
_chemical_formula_sum "Si O2"
_cell_formula_units_Z 120
_cell_length_a 20.562863
_cell_length_b 20.708484
_cell_length_c 14.949902
_cell_angle_alpha 90.000000
_cell_angle_beta 90.000000
_cell_angle_gamma 90.000000
_cell_volume 6366.052775
_symmetry_space_group_name_H-M "I B C A "
_symmetry_group_IT_number 73
_symmetry_cell_setting 'orthorhombic'
loop_
_space_group_symop_operation_xyz
x,y,z
-x,1/2-y,z
x,-y,1/2-z
1/2-x,y,-z
-x,-y,-z
x,1/2+y,-z
-x,y,1/2+z
1/2+x,-y,z
1/2+x,1/2+y,1/2+z
1/2-x,-y,1/2+z
1/2+x,1/2-y,-z
-x,1/2+y,1/2-z
1/2-x,1/2-y,1/2-z
1/2+x,y,1/2-z
1/2-x,1/2+y,z
x,1/2-y,1/2+z
loop_
_atom_site_type_symbol
_atom_site_label
_atom_site_fract_x
_atom_site_fract_y
_atom_site_fract_z
Si Si1 0.241691 0.079247 0.901143
Si Si2 0.953153 0.191812 0.559958
Si Si3 0.503944 0.172335 0.749629
Si Si4 0.686421 0.500000 0.750000
Si Si5 0.627924 0.128982 0.178367
Si Si6 0.291242 0.222334 0.590481
Si Si7 0.819606 0.793794 0.847837
Si Si8 0.114087 0.845420 0.615026
O O1 0.269975 0.033789 0.825137
O O2 0.283099 0.146378 0.896797
O O3 0.167446 0.098765 0.885479
O O4 0.250000 0.051579 0.000000
O O5 0.885792 0.220915 0.599468
O O6 0.932122 0.151872 0.472726
O O7 0.000000 0.250000 0.531817
O O8 0.986478 0.156705 0.646268
O O9 0.500000 0.250000 0.745742
O O10 0.448207 0.142738 0.685883
O O11 0.572488 0.154485 0.705813
O O12 0.643993 0.556175 0.795536
O O13 0.668586 0.155881 0.094807
O O14 0.657822 0.176309 0.254579
O O15 0.250000 0.228902 0.500000
O O16 0.230844 0.235273 0.658088
O O17 0.344629 0.278754 0.604890
#
# Coordination Sequence:
#
# PCOD9530070 Si02
#       8
#    16  16  16   8  16  16  16  16
#     4  10  19  38  66  85 111 155 203 254 299 353
#     4  10  19  30  51  85 124 154 186 223 294 377
#     4  10  20  35  57  88 122 158 189 238 305 364
#     4  10  24  42  60  86 114 164 212 254 292 346
#     4  10  21  36  56  80 120 158 200 241 294 353
#     4  11  19  30  55  88 122 147 187 249 312 360
#     4   9  17  34  53  87 112 151 189 237 307 367
#     4  11  19  35  58  92 122 152 194 243 307 372
#
# _framework density 18.849985
#
# number of rings (size 3 to 8) (size 9 to 14) (size 15 to 20)
#    0.000    1.867    4.000    1.600    0.000    0.533 
#    0.000    0.667    2.933    0.800    0.000    0.000 
#    0.000    0.000    0.000    0.000    0.000    0.000 
#
# Total GULP energy -334468.966829 kJ/mol
# GULP energy per Si atom -5574.482780 kJ/mol
# Density = 1.880708 g / cm^3
# Si number density = 18.849985 Si / 1000 Ang^3
#
#
#
# Elastic Constant Matrix: (Units=GPa)
#
#
# Indices 1 2 3 4 5 6 
#
# 1 103.6101 31.1945 33.2814 0.0000 0.0000 0.0000
# 2 31.1945 68.9709 9.7763 0.0000 0.0000 0.0000
# 3 33.2814 9.7763 54.9108 0.0000 0.0000 0.0000
# 4 0.0000 0.0000 0.0000 14.1906 0.0000 0.0000
# 5 0.0000 0.0000 0.0000 0.0000 36.1743 0.0000
# 6 0.0000 0.0000 0.0000 0.0000 0.0000 17.3544
#
#
#
# Elastic Compliance Matrix: (Units=1/GPa)
#
#
# Indices 1 2 3 4 5 6 
#
# 1 0.013524 -0.005083 -0.007292 0.000000 0.000000 0.000000
# 2 -0.005083 0.016785 0.000093 0.000000 0.000000 0.000000
# 3 -0.007292 0.000093 0.022615 0.000000 0.000000 0.000000
# 4 0.000000 0.000000 0.000000 0.070469 0.000000 0.000000
# 5 0.000000 0.000000 0.000000 0.000000 0.027644 0.000000
# 6 0.000000 0.000000 0.000000 0.000000 0.000000 0.057622
#
#
# Mechanical properties :
#
#
# Convention : Reuss Voigt Hill
#
# Bulk Modulus (GPa) = 35.26304 41.77734 38.52019
# Shear Modulus (GPa) = 20.60347 23.75982 22.18165
#
# Velocity S-wave (km/s) = 3.30968 3.55416 3.43409
# Velocity P-wave (km/s) = 5.77521 6.24931 6.01693
#
# Compressibility (1/GPa) = 0.02835830
#
# Stress axis : x y z
#
# Youngs Moduli (GPa) = 73.94071 59.57760 44.21921
#
# Poissons Ratio (x) = 0.30285 0.32245
# Poissons Ratio (y) = 0.37586 -0.00409
# Poissons Ratio (z) = 0.53918 -0.00552
#
# Static dielectric constant tensor:
#      x y z
#    x 1.679570 0.000000 0.000000 
#    y 0.000000 1.629250 0.000000 
#    z 0.000000 0.000000 1.789520 
# 
# From -- ./inp_files/18937.got.cif
#   From: 2010.05.17/outbox.cif.g08.bks.cpg/sg73_10_cif.got.tgz:18937.got - 2010.06.03 17:35:07.
