data_PCOD9530256
_publ_section_title
;
Structure prediction by ZEFSAII (Michael W. Deem and Ramdas Pophale) SiO2 
 PCOD9530256
Probable space group: I B C A 
;
_chemical_formula_sum "Si O2"
_cell_formula_units_Z 64
_cell_length_a 5.366885
_cell_length_b 14.467252
_cell_length_c 36.199091
_cell_angle_alpha 90.000000
_cell_angle_beta 90.000000
_cell_angle_gamma 90.000000
_cell_volume 2810.645036
_symmetry_space_group_name_H-M "I B C A "
_symmetry_group_IT_number 73
_symmetry_cell_setting 'orthorhombic'
loop_
_space_group_symop_operation_xyz
x,y,z
-x,1/2-y,z
x,-y,1/2-z
1/2-x,y,-z
-x,-y,-z
x,1/2+y,-z
-x,y,1/2+z
1/2+x,-y,z
1/2+x,1/2+y,1/2+z
1/2-x,-y,1/2+z
1/2+x,1/2-y,-z
-x,1/2+y,1/2-z
1/2-x,1/2-y,1/2-z
1/2+x,y,1/2-z
1/2-x,1/2+y,z
x,1/2-y,1/2+z
loop_
_atom_site_type_symbol
_atom_site_label
_atom_site_fract_x
_atom_site_fract_y
_atom_site_fract_z
Si Si1 0.240958 0.645242 0.424433
Si Si2 0.885383 0.058882 0.149339
Si Si3 0.751831 0.645756 0.543997
Si Si4 0.518610 0.861606 0.729716
O O1 0.183188 0.635404 0.381302
O O2 0.501529 0.604301 0.437932
O O3 0.247042 0.750805 0.438667
O O4 0.005438 0.600156 0.444364
O O5 0.894806 0.100653 0.190275
O O6 0.659860 0.985485 0.144377
O O7 0.750000 0.652923 0.500000
O O8 0.500000 0.750000 0.728348
O O9 0.239111 0.890233 0.741873
#
# Coordination Sequence:
#
# PCOD9530256 Si02
#       4
#    16  16  16  16
#     4  10  20  35  58  90 122 156 203 267 309 366
#     4  12  26  42  62  93 134 175 206 251 319 395
#     4  10  19  36  65  93 115 157 218 274 313 367
#     4  10  23  44  68  96 124 161 214 270 309 360
#
# _framework density 22.770572999999999
#
# number of rings (size 3 to 8) (size 9 to 14) (size 15 to 20)
#    0.000    1.500    0.000    6.750    3.500    3.000 
#    9.000    0.000    0.000   25.500    0.000    0.000 
#    0.000    0.000    0.000    0.000    0.000    0.000 
#
# Total GULP energy -178767.744151 kJ/mol
# GULP energy per Si atom -5586.492005 kJ/mol
# Density = 2.271875 g / cm^3
# Si number density = 22.770573 Si / 1000 Ang^3
#
#
#
# Elastic Constant Matrix: (Units=GPa)
#
#
# Indices 1 2 3 4 5 6 
#
# 1 218.7799 13.8755 44.5272 0.0000 0.0000 0.0000
# 2 13.8755 75.3627 17.4799 0.0000 0.0000 0.0000
# 3 44.5272 17.4799 175.2842 0.0000 0.0000 0.0000
# 4 0.0000 0.0000 0.0000 -180.3037 0.0000 0.0000
# 5 0.0000 0.0000 0.0000 0.0000 47.8901 0.0000
# 6 0.0000 0.0000 0.0000 0.0000 0.0000 -4.6103
#
#
#
# Elastic Compliance Matrix: (Units=1/GPa)
#
#
# Indices 1 2 3 4 5 6 
#
# 1 0.004848 -0.000621 -0.001170 0.000000 0.000000 0.000000
# 2 -0.000621 0.013663 -0.001205 0.000000 0.000000 0.000000
# 3 -0.001170 -0.001205 0.006122 0.000000 0.000000 0.000000
# 4 0.000000 0.000000 0.000000 -0.005546 0.000000 0.000000
# 5 0.000000 0.000000 0.000000 0.000000 0.020881 0.000000
# 6 0.000000 0.000000 0.000000 0.000000 0.000000 -0.216908
#
#
# Mechanical properties :
#
#
# Convention : Reuss Voigt Hill
#
# Bulk Modulus (GPa) = 53.64178 69.02135 61.33157
# Shear Modulus (GPa) = -30.35201 -1.16848 -15.76024
#
# Velocity S-wave (km/s) = -3.65492 -0.71712 -2.63369
# Velocity P-wave (km/s) = 2.40778 5.44901 4.21243
#
# Compressibility (1/GPa) = 0.01864218
#
# Stress axis : x y z
#
# Youngs Moduli (GPa) = 206.25952 73.19047 163.33800
#
# Poissons Ratio (x) = 0.04548 0.19105
# Poissons Ratio (y) = 0.12816 0.19677
# Poissons Ratio (z) = 0.24125 0.08817
#
# Static dielectric constant tensor:
#      x y z
#    x 0.467910 0.000000 0.000000 
#    y 0.000000 1.818640 0.000000 
#    z 0.000000 0.000000 1.833160 
# 
# From -- ./inp_files/33184.got.cif
#   From: 2010.05.17/outbox.cif.g08.bks.cpg/sg73_17_cif.got.tgz:33184.got - 2010.06.03 17:35:07.
