data_PCOD9530055
_publ_section_title
;
Structure prediction by ZEFSAII (Michael W. Deem and Ramdas Pophale) SiO2 
 PCOD9530055
Probable space group: I B C A 
;
_chemical_formula_sum "Si O2"
_cell_formula_units_Z 88
_cell_length_a 8.158289
_cell_length_b 18.622246
_cell_length_c 28.798411
_cell_angle_alpha 90.000000
_cell_angle_beta 90.000000
_cell_angle_gamma 90.000000
_cell_volume 4375.217733
_symmetry_space_group_name_H-M "I B C A "
_symmetry_group_IT_number 73
_symmetry_cell_setting 'orthorhombic'
loop_
_space_group_symop_operation_xyz
x,y,z
-x,1/2-y,z
x,-y,1/2-z
1/2-x,y,-z
-x,-y,-z
x,1/2+y,-z
-x,y,1/2+z
1/2+x,-y,z
1/2+x,1/2+y,1/2+z
1/2-x,-y,1/2+z
1/2+x,1/2-y,-z
-x,1/2+y,1/2-z
1/2-x,1/2-y,1/2-z
1/2+x,y,1/2-z
1/2-x,1/2+y,z
x,1/2-y,1/2+z
loop_
_atom_site_type_symbol
_atom_site_label
_atom_site_fract_x
_atom_site_fract_y
_atom_site_fract_z
Si Si1 0.349721 0.202238 0.287331
Si Si2 0.974680 0.563757 0.062826
Si Si3 0.250000 0.039897 0.000000
Si Si4 0.666975 0.443826 0.154789
Si Si5 0.515932 0.556489 0.711307
Si Si6 0.580714 0.174064 0.136031
O O1 0.500000 0.250000 0.304237
O O2 0.250000 0.250000 0.250000
O O3 0.432985 0.128515 0.269154
O O4 0.231108 0.183151 0.329600
O O5 0.883419 0.627673 0.089818
O O6 0.109390 0.585871 0.024782
O O7 0.096318 0.533999 0.103847
O O8 0.850407 0.510349 0.036708
O O9 0.622926 0.510938 0.186139
O O10 0.850274 0.426231 0.171261
O O11 0.556427 0.373569 0.162371
O O12 0.580119 0.500000 0.750000
O O13 0.500000 0.250000 0.124492
#
# Coordination Sequence:
#
# PCOD9530055 Si02
#       6
#    16  16   8  16  16  16
#     4  12  29  45  66  94 136 188 234 288 347 402
#     4   9  22  38  72  98 140 166 219 281 348 414
#     4  10  18  42  68 112 126 172 218 288 352 418
#     4  10  23  42  67  97 133 178 227 286 339 405
#     4  12  26  40  66  96 130 182 241 291 335 397
#     4  10  23  45  64  95 134 179 224 276 345 415
#
# _framework density 20.113285999999999
#
# number of rings (size 3 to 8) (size 9 to 14) (size 15 to 20)
#    1.091    0.364    0.000    4.364   12.727    0.000 
#    0.000    0.909    0.000    0.000    0.000    0.000 
#    0.000    0.000    0.000    0.000    0.000    0.000 
#
# Total GULP energy -244990.288004 kJ/mol
# GULP energy per Si atom -5567.961091 kJ/mol
# Density = 2.006751 g / cm^3
# Si number density = 20.113286 Si / 1000 Ang^3
#
#
#
# Elastic Constant Matrix: (Units=GPa)
#
#
# Indices 1 2 3 4 5 6 
#
# 1 101.0921 31.4399 45.2755 0.0000 0.0000 0.0000
# 2 31.4399 104.7229 38.6238 0.0000 0.0000 0.0000
# 3 45.2755 38.6238 110.6992 0.0000 0.0000 0.0000
# 4 0.0000 0.0000 0.0000 -62.8266 0.0000 0.0000
# 5 0.0000 0.0000 0.0000 0.0000 -89.7413 0.0000
# 6 0.0000 0.0000 0.0000 0.0000 0.0000 -105.0063
#
#
#
# Elastic Compliance Matrix: (Units=1/GPa)
#
#
# Indices 1 2 3 4 5 6 
#
# 1 0.012517 -0.002146 -0.004371 0.000000 0.000000 0.000000
# 2 -0.002146 0.011327 -0.003075 0.000000 0.000000 0.000000
# 3 -0.004371 -0.003075 0.011894 0.000000 0.000000 0.000000
# 4 0.000000 0.000000 0.000000 -0.015917 0.000000 0.000000
# 5 0.000000 0.000000 0.000000 0.000000 -0.011143 0.000000
# 6 0.000000 0.000000 0.000000 0.000000 0.000000 -0.009523
#
#
# Mechanical properties :
#
#
# Convention : Reuss Voigt Hill
#
# Bulk Modulus (GPa) = 60.40166 60.79915 60.60041
# Shear Modulus (GPa) = 209.59997 -38.10318 85.74840
#
# Velocity S-wave (km/s) = 10.21939 -4.35722 6.53646
# Velocity P-wave (km/s) = 13.01322 2.23161 9.33606
#
# Compressibility (1/GPa) = 0.01655584
#
# Stress axis : x y z
#
# Youngs Moduli (GPa) = 79.89288 88.28334 84.07764
#
# Poissons Ratio (x) = 0.18944 0.36747
# Poissons Ratio (y) = 0.17144 0.25850
# Poissons Ratio (z) = 0.34918 0.27143
#
# Static dielectric constant tensor:
#      x y z
#    x 1.744000 0.000000 0.000000 
#    y 0.000000 1.772030 0.000000 
#    z 0.000000 0.000000 1.776500 
# 
# From -- ./inp_files/33547.got.cif
#   From: 2010.05.17/outbox.cif.g08.bks.cpg/sg73_17_cif.got.tgz:33547.got - 2010.06.03 17:35:07.
