data_PCOD9530919
_publ_section_title
;
Structure prediction by ZEFSAII (Michael W. Deem and Ramdas Pophale) SiO2 
 PCOD9530919
Probable space group: I B C A 
;
_chemical_formula_sum "Si O2"
_cell_formula_units_Z 96
_cell_length_a 19.095550
_cell_length_b 15.896564
_cell_length_c 15.437488
_cell_angle_alpha 90.000000
_cell_angle_beta 90.000000
_cell_angle_gamma 90.000000
_cell_volume 4686.105562
_symmetry_space_group_name_H-M "I B C A "
_symmetry_group_IT_number 73
_symmetry_cell_setting 'orthorhombic'
loop_
_space_group_symop_operation_xyz
x,y,z
-x,1/2-y,z
x,-y,1/2-z
1/2-x,y,-z
-x,-y,-z
x,1/2+y,-z
-x,y,1/2+z
1/2+x,-y,z
1/2+x,1/2+y,1/2+z
1/2-x,-y,1/2+z
1/2+x,1/2-y,-z
-x,1/2+y,1/2-z
1/2-x,1/2-y,1/2-z
1/2+x,y,1/2-z
1/2-x,1/2+y,z
x,1/2-y,1/2+z
loop_
_atom_site_type_symbol
_atom_site_label
_atom_site_fract_x
_atom_site_fract_y
_atom_site_fract_z
Si Si1 0.620034 0.832772 0.184251
Si Si2 0.282464 0.920611 0.815945
Si Si3 0.374590 0.354736 0.828749
Si Si4 0.550282 0.006818 0.580965
Si Si5 0.013642 0.158589 0.804093
Si Si6 0.675087 0.458431 0.961245
O O1 0.672218 0.850330 0.265601
O O2 0.625931 0.741297 0.140847
O O3 0.543331 0.843309 0.226567
O O4 0.640796 0.898280 0.110406
O O5 0.203146 0.890941 0.828949
O O6 0.281833 0.000000 0.750000
O O7 0.313417 0.954180 0.907347
O O8 0.426971 0.419271 0.875675
O O9 0.407878 0.343809 0.733532
O O10 0.511169 0.073244 0.642303
O O11 0.623316 0.039181 0.542104
O O12 0.500000 0.000000 0.500000
O O13 0.000000 0.250000 0.847764
O O14 0.750000 0.432361 0.000000
#
# Coordination Sequence:
#
# PCOD9530919 Si02
#       6
#    16  16  16  16  16  16
#     4  10  23  42  64  93 128 172 220 276 321 388
#     4  10  20  39  66  88 125 172 221 262 319 395
#     4  11  22  40  64  94 123 169 227 271 321 391
#     4  12  24  39  66  95 131 171 211 271 341 395
#     4  10  23  42  65  92 124 167 227 272 316 391
#     4  11  23  41  61  96 136 169 216 267 333 400
#
# _framework density 20.486094000000001
#
# number of rings (size 3 to 8) (size 9 to 14) (size 15 to 20)
#    0.000    1.333    1.667    4.000    2.333    4.000 
#    3.000    0.000    0.000    0.000    0.000    0.000 
#    0.000    0.000    0.000    0.000    0.000    0.000 
#
# Total GULP energy -267765.942341 kJ/mol
# GULP energy per Si atom -5578.457132 kJ/mol
# Density = 2.043947 g / cm^3
# Si number density = 20.486094 Si / 1000 Ang^3
#
#
#
# Elastic Constant Matrix: (Units=GPa)
#
#
# Indices 1 2 3 4 5 6 
#
# 1 82.5817 36.9885 3.5922 0.0000 0.0000 0.0000
# 2 36.9885 141.8708 39.6796 0.0000 0.0000 0.0000
# 3 3.5922 39.6796 35.9450 0.0000 0.0000 0.0000
# 4 0.0000 0.0000 0.0000 -4.0804 0.0000 0.0000
# 5 0.0000 0.0000 0.0000 0.0000 32.5928 0.0000
# 6 0.0000 0.0000 0.0000 0.0000 0.0000 34.1822
#
#
#
# Elastic Compliance Matrix: (Units=1/GPa)
#
#
# Indices 1 2 3 4 5 6 
#
# 1 0.014064 -0.004736 0.003822 0.000000 0.000000 0.000000
# 2 -0.004736 0.011792 -0.012544 0.000000 0.000000 0.000000
# 3 0.003822 -0.012544 0.041285 0.000000 0.000000 0.000000
# 4 0.000000 0.000000 0.000000 -0.245072 0.000000 0.000000
# 5 0.000000 0.000000 0.000000 0.000000 0.030682 0.000000
# 6 0.000000 0.000000 0.000000 0.000000 0.000000 0.029255
#
#
# Mechanical properties :
#
#
# Convention : Reuss Voigt Hill
#
# Bulk Modulus (GPa) = 24.85898 46.76868 35.81383
# Shear Modulus (GPa) = -64.37333 24.54806 -19.91264
#
# Velocity S-wave (km/s) = -5.61170 3.46537 -3.12109
# Velocity P-wave (km/s) = 5.46144 6.23625 2.12879
#
# Compressibility (1/GPa) = 0.04022691
#
# Stress axis : x y z
#
# Youngs Moduli (GPa) = 71.10270 84.80554 24.22183
#
# Poissons Ratio (x) = 0.40163 -0.09259
# Poissons Ratio (y) = 0.33673 0.30383
# Poissons Ratio (z) = -0.27178 1.06376
#
# Static dielectric constant tensor:
#      x y z
#    x 1.697420 0.000000 0.000000 
#    y 0.000000 1.858940 0.000000 
#    z 0.000000 0.000000 1.759630 
# 
# From -- ./inp_files/17011.got.cif
#   From: 2010.05.17/outbox.cif.g08.bks.cpg/sg73_9_cif.got.tgz:17011.got - 2010.06.03 17:35:07.
