data_PCOD9530314
_publ_section_title
;
Structure prediction by ZEFSAII (Michael W. Deem and Ramdas Pophale) SiO2 
 PCOD9530314
Probable space group: I B C A 
;
_chemical_formula_sum "Si O2"
_cell_formula_units_Z 120
_cell_length_a 13.902140
_cell_length_b 26.630526
_cell_length_c 16.927090
_cell_angle_alpha 90.000000
_cell_angle_beta 90.000000
_cell_angle_gamma 90.000000
_cell_volume 6266.769277
_symmetry_space_group_name_H-M "I B C A "
_symmetry_group_IT_number 73
_symmetry_cell_setting 'orthorhombic'
loop_
_space_group_symop_operation_xyz
x,y,z
-x,1/2-y,z
x,-y,1/2-z
1/2-x,y,-z
-x,-y,-z
x,1/2+y,-z
-x,y,1/2+z
1/2+x,-y,z
1/2+x,1/2+y,1/2+z
1/2-x,-y,1/2+z
1/2+x,1/2-y,-z
-x,1/2+y,1/2-z
1/2-x,1/2-y,1/2-z
1/2+x,y,1/2-z
1/2-x,1/2+y,z
x,1/2-y,1/2+z
loop_
_atom_site_type_symbol
_atom_site_label
_atom_site_fract_x
_atom_site_fract_y
_atom_site_fract_z
Si Si1 0.276556 0.616690 0.632422
Si Si2 0.854329 0.153406 0.301461
Si Si3 0.750000 0.308627 0.500000
Si Si4 0.921445 0.133753 0.801926
Si Si5 0.731187 0.573034 0.411237
Si Si6 0.879819 0.013410 0.157274
Si Si7 0.095080 0.542571 0.814080
Si Si8 0.610746 0.239015 0.131044
O O1 0.318557 0.641132 0.713174
O O2 0.303077 0.653522 0.560794
O O3 0.159912 0.613220 0.637719
O O4 0.318955 0.561188 0.629889
O O5 0.787720 0.121626 0.359074
O O6 0.851853 0.211501 0.325103
O O7 0.963956 0.133950 0.315712
O O8 0.822252 0.277019 0.443334
O O9 0.908684 0.097291 0.727246
O O10 0.894658 0.192879 0.806264
O O11 0.750000 0.587130 0.500000
O O12 0.644373 0.534682 0.395063
O O13 0.823913 0.544094 0.379127
O O14 0.990768 0.028473 0.154313
O O15 0.859017 0.000000 0.250000
O O16 0.119996 0.500000 0.750000
O O17 0.500000 0.250000 0.105547
#
# Coordination Sequence:
#
# PCOD9530314 Si02
#       8
#    16  16   8  16  16  16  16  16
#     4  11  21  40  65  91 124 164 212 258 311 391
#     4  11  21  42  65  88 123 170 214 264 315 376
#     4  10  24  40  60  96 124 166 208 260 328 374
#     4  10  19  38  64  92 119 163 217 254 315 373
#     4  12  26  40  58  98 131 167 213 259 327 385
#     4  11  21  41  65  89 125 163 213 262 312 377
#     4  11  21  40  67  90 121 167 213 261 312 379
#     4   9  22  42  63  92 129 165 210 271 323 369
#
# _framework density 19.148623000000001
#
# number of rings (size 3 to 8) (size 9 to 14) (size 15 to 20)
#    0.000    1.333    4.000    2.000    1.867    2.667 
#    7.200    3.333    0.000    0.000    0.000    0.000 
#    0.000    0.000    0.000    0.000    0.000    0.000 
#
# Total GULP energy -334658.554613 kJ/mol
# GULP energy per Si atom -5577.642577 kJ/mol
# Density = 1.910504 g / cm^3
# Si number density = 19.148623 Si / 1000 Ang^3
#
#
#
# Elastic Constant Matrix: (Units=GPa)
#
#
# Indices 1 2 3 4 5 6 
#
# 1 70.7988 25.6726 16.4936 0.0000 0.0000 0.0000
# 2 25.6726 110.6082 41.4580 -0.0001 0.0000 0.0000
# 3 16.4936 41.4580 85.2253 -0.0001 0.0000 0.0000
# 4 0.0000 -0.0001 -0.0001 18.8205 0.0000 0.0000
# 5 0.0000 0.0000 0.0000 0.0000 1.0710 0.0000
# 6 0.0000 0.0000 0.0000 0.0000 0.0000 25.6038
#
#
#
# Elastic Compliance Matrix: (Units=1/GPa)
#
#
# Indices 1 2 3 4 5 6 
#
# 1 0.015585 -0.003041 -0.001537 0.000000 0.000000 0.000000
# 2 -0.003041 0.011650 -0.005079 0.000000 0.000000 0.000000
# 3 -0.001537 -0.005079 0.014502 0.000000 0.000000 0.000000
# 4 0.000000 0.000000 0.000000 0.053134 -0.000001 0.000000
# 5 0.000000 0.000000 0.000000 -0.000001 0.933736 0.000000
# 6 0.000000 0.000000 0.000000 0.000000 0.000000 0.039057
#
#
# Mechanical properties :
#
#
# Convention : Reuss Voigt Hill
#
# Bulk Modulus (GPa) = 44.59595 48.20898 46.40247
# Shear Modulus (GPa) = 4.56850 21.29959 12.93404
#
# Velocity S-wave (km/s) = 1.54628 3.33878 2.60177
# Velocity P-wave (km/s) = 5.15053 6.33199 5.77157
#
# Compressibility (1/GPa) = 0.02242356
#
# Stress axis : x y z
#
# Youngs Moduli (GPa) = 64.16263 85.83339 68.95798
#
# Poissons Ratio (x) = 0.26106 0.10597
# Poissons Ratio (y) = 0.19515 0.35022
# Poissons Ratio (z) = 0.09860 0.43593
#
# Static dielectric constant tensor:
#      x y z
#    x 1.690680 0.000000 0.000000 
#    y 0.000000 1.671950 0.000000 
#    z 0.000000 0.000000 1.296550 
# 
# From -- ./inp_files/17494.got.cif
#   From: 2010.05.17/outbox.cif.g08.bks.cpg/sg73_9_cif.got.tgz:17494.got - 2010.06.03 17:35:07.
