data_PCOD9530776
_publ_section_title
;
Structure prediction by ZEFSAII (Michael W. Deem and Ramdas Pophale) SiO2 
 PCOD9530776
Probable space group: I B C A 
;
_chemical_formula_sum "Si O2"
_cell_formula_units_Z 80
_cell_length_a 27.216602
_cell_length_b 8.424195
_cell_length_c 16.336162
_cell_angle_alpha 90.000000
_cell_angle_beta 90.000000
_cell_angle_gamma 90.000000
_cell_volume 3745.521938
_symmetry_space_group_name_H-M "I B C A "
_symmetry_group_IT_number 73
_symmetry_cell_setting 'orthorhombic'
loop_
_space_group_symop_operation_xyz
x,y,z
-x,1/2-y,z
x,-y,1/2-z
1/2-x,y,-z
-x,-y,-z
x,1/2+y,-z
-x,y,1/2+z
1/2+x,-y,z
1/2+x,1/2+y,1/2+z
1/2-x,-y,1/2+z
1/2+x,1/2-y,-z
-x,1/2+y,1/2-z
1/2-x,1/2-y,1/2-z
1/2+x,y,1/2-z
1/2-x,1/2+y,z
x,1/2-y,1/2+z
loop_
_atom_site_type_symbol
_atom_site_label
_atom_site_fract_x
_atom_site_fract_y
_atom_site_fract_z
Si Si1 0.892428 0.000000 0.250000
Si Si2 0.187546 0.792268 0.658967
Si Si3 0.531313 0.917603 0.338101
Si Si4 0.105431 0.751114 0.550327
Si Si5 0.556884 0.083194 0.903599
Si Si6 0.733927 0.000000 0.250000
O O1 0.857466 0.121852 0.295847
O O2 0.925972 0.101675 0.189683
O O3 0.163916 0.760950 0.569076
O O4 0.202279 0.630365 0.703055
O O5 0.232478 0.911205 0.681026
O O6 0.500000 0.750000 0.332450
O O7 0.580992 0.871365 0.384928
O O8 0.537659 0.000000 0.250000
O O9 0.500492 0.041092 0.395626
O O10 0.082836 0.706293 0.462801
O O11 0.082202 0.920688 0.568167
#
# Coordination Sequence:
#
# PCOD9530776 Si02
#       6
#     8  16  16  16  16   8
#     4   9  18  36  61  80 118 158 201 240 296 371
#     4   9  19  35  59  88 109 153 192 243 297 369
#     4  10  21  36  55  84 122 160 204 247 298 359
#     4  10  22  35  57  85 119 153 209 244 295 358
#     4  10  20  38  55  84 123 160 196 251 296 348
#     4   9  18  36  61  84 122 144 189 246 316 357
#
# _framework density 21.358839
#
# number of rings (size 3 to 8) (size 9 to 14) (size 15 to 20)
#    0.000    2.400    1.000    0.600    1.400    3.200 
#    0.000    0.000    0.000   40.800    0.000    0.000 
#    0.000    0.000    0.000    0.000    0.000    0.000 
#
# Total GULP energy -222963.853933 kJ/mol
# GULP energy per Si atom -5574.096348 kJ/mol
# Density = 2.131023 g / cm^3
# Si number density = 21.358839 Si / 1000 Ang^3
#
#
#
# Elastic Constant Matrix: (Units=GPa)
#
#
# Indices 1 2 3 4 5 6 
#
# 1 68.6083 17.6221 17.2784 0.0000 0.0000 0.0000
# 2 17.6221 49.2432 10.0522 0.0000 0.0000 0.0000
# 3 17.2784 10.0522 77.6692 0.0000 0.0000 0.0000
# 4 0.0000 0.0000 0.0000 27.4556 0.0000 0.0000
# 5 0.0000 0.0000 0.0000 0.0000 13.1245 0.0000
# 6 0.0000 0.0000 0.0000 0.0000 0.0000 -78.7275
#
#
#
# Elastic Compliance Matrix: (Units=1/GPa)
#
#
# Indices 1 2 3 4 5 6 
#
# 1 0.016715 -0.005364 -0.003024 0.000000 0.000000 0.000000
# 2 -0.005364 0.022580 -0.001729 0.000000 0.000000 0.000000
# 3 -0.003024 -0.001729 0.013772 0.000000 0.000000 0.000000
# 4 0.000000 0.000000 0.000000 0.036422 0.000000 0.000000
# 5 0.000000 0.000000 0.000000 0.000000 0.076193 0.000000
# 6 0.000000 0.000000 0.000000 0.000000 0.000000 -0.012702
#
#
# Mechanical properties :
#
#
# Convention : Reuss Voigt Hill
#
# Bulk Modulus (GPa) = 30.45844 31.71404 31.08624
# Shear Modulus (GPa) = 27.15042 2.40837 14.77939
#
# Velocity S-wave (km/s) = 3.56920 1.06303 2.63336
# Velocity P-wave (km/s) = 5.59257 4.04810 4.88180
#
# Compressibility (1/GPa) = 0.03283162
#
# Stress axis : x y z
#
# Youngs Moduli (GPa) = 59.82680 44.28704 72.61293
#
# Poissons Ratio (x) = 0.23757 0.21959
# Poissons Ratio (y) = 0.32093 0.12555
# Poissons Ratio (z) = 0.18093 0.07657
#
# Static dielectric constant tensor:
#      x y z
#    x 1.770430 0.000000 0.000000 
#    y 0.000000 1.803360 0.000000 
#    z 0.000000 0.000000 1.913110 
# 
# From -- ./inp_files/20806.got.cif
#   From: 2010.05.17/outbox.cif.g08.bks.cpg/sg73_11_cif.got.tgz:20806.got - 2010.06.03 17:35:07.
