data_PCOD9530399
_publ_section_title
;
Structure prediction by ZEFSAII (Michael W. Deem and Ramdas Pophale) SiO2 
 PCOD9530399
Probable space group: I B C A 
;
_chemical_formula_sum "Si O2"
_cell_formula_units_Z 64
_cell_length_a 17.915462
_cell_length_b 21.017297
_cell_length_c 7.435560
_cell_angle_alpha 90.000000
_cell_angle_beta 90.000000
_cell_angle_gamma 90.000000
_cell_volume 2799.745504
_symmetry_space_group_name_H-M "I B C A "
_symmetry_group_IT_number 73
_symmetry_cell_setting 'orthorhombic'
loop_
_space_group_symop_operation_xyz
x,y,z
-x,1/2-y,z
x,-y,1/2-z
1/2-x,y,-z
-x,-y,-z
x,1/2+y,-z
-x,y,1/2+z
1/2+x,-y,z
1/2+x,1/2+y,1/2+z
1/2-x,-y,1/2+z
1/2+x,1/2-y,-z
-x,1/2+y,1/2-z
1/2-x,1/2-y,1/2-z
1/2+x,y,1/2-z
1/2-x,1/2+y,z
x,1/2-y,1/2+z
loop_
_atom_site_type_symbol
_atom_site_label
_atom_site_fract_x
_atom_site_fract_y
_atom_site_fract_z
Si Si1 0.941458 0.500000 0.750000
Si Si2 0.940533 0.090288 0.541363
Si Si3 0.066198 0.669448 0.627828
Si Si4 0.860106 0.293043 0.721560
Si Si5 0.750000 0.298662 0.000000
O O1 0.901284 0.542697 0.598832
O O2 0.995795 0.452803 0.638204
O O3 0.903299 0.125004 0.711384
O O4 0.983448 0.144403 0.423625
O O5 0.106481 0.664821 0.436211
O O6 0.081897 0.741428 0.694638
O O7 0.802318 0.246997 0.618014
O O8 0.810346 0.330236 0.867992
#
# Coordination Sequence:
#
# PCOD9530399 Si02
#       5
#     8  16  16  16   8
#     4   8  16  32  48  60  92 128 162 208 242 274
#     4   9  18  31  46  68  96 127 162 201 242 298
#     4  10  20  29  44  68 100 132 162 190 242 308
#     4   9  18  31  46  68  96 127 162 201 242 298
#     4   8  16  32  48  60  92 128 162 208 242 274
#
# _framework density 22.859219
#
# number of rings (size 3 to 8) (size 9 to 14) (size 15 to 20)
#    0.000    3.000    0.000    0.000    0.000   11.000 
#    0.000    0.000    0.000    0.000    0.000    0.000 
#    0.000  936.000    0.000    0.000    0.000    0.000 
#
# Total GULP energy -178232.830365 kJ/mol
# GULP energy per Si atom -5569.775949 kJ/mol
# Density = 2.280719 g / cm^3
# Si number density = 22.859219 Si / 1000 Ang^3
#
#
#
# Elastic Constant Matrix: (Units=GPa)
#
#
# Indices 1 2 3 4 5 6 
#
# 1 54.3349 27.1781 33.1150 0.0000 0.0000 0.0000
# 2 27.1781 112.6922 66.8278 0.0000 0.0000 0.0000
# 3 33.1150 66.8278 191.8569 0.0000 0.0000 0.0000
# 4 0.0000 0.0000 0.0000 83.8642 0.0000 0.0000
# 5 0.0000 0.0000 0.0000 0.0000 47.3614 0.0000
# 6 0.0000 0.0000 0.0000 0.0000 0.0000 17.9070
#
#
#
# Elastic Compliance Matrix: (Units=1/GPa)
#
#
# Indices 1 2 3 4 5 6 
#
# 1 0.021795 -0.003813 -0.002434 0.000000 0.000000 0.000000
# 2 -0.003813 0.011851 -0.003470 0.000000 0.000000 0.000000
# 3 -0.002434 -0.003470 0.006841 0.000000 0.000000 0.000000
# 4 0.000000 0.000000 0.000000 0.011924 0.000000 0.000000
# 5 0.000000 0.000000 0.000000 0.000000 0.021114 0.000000
# 6 0.000000 0.000000 0.000000 0.000000 0.000000 0.055844
#
#
# Mechanical properties :
#
#
# Convention : Reuss Voigt Hill
#
# Bulk Modulus (GPa) = 47.49777 68.12510 57.81144
# Shear Modulus (GPa) = 32.08828 45.27739 38.68284
#
# Velocity S-wave (km/s) = 3.75071 4.45534 4.11812
# Velocity P-wave (km/s) = 6.29131 7.50556 6.92510
#
# Compressibility (1/GPa) = 0.02105362
#
# Stress axis : x y z
#
# Youngs Moduli (GPa) = 45.88223 84.38129 146.18001
#
# Poissons Ratio (x) = 0.32176 0.35576
# Poissons Ratio (y) = 0.17495 0.50721
# Poissons Ratio (z) = 0.11166 0.29279
#
# Static dielectric constant tensor:
#      x y z
#    x 1.935600 0.000000 0.000000 
#    y 0.000000 1.871110 0.000000 
#    z 0.000000 0.000000 1.948540 
# 
# From -- ./inp_files/5269.got.cif
#   From: 2010.05.17/outbox.cif.g08.bks.cpg/sg73_3_cif.got.tgz:5269.got - 2010.06.03 17:35:07.
