data_PCOD9530658
_publ_section_title
;
Structure prediction by ZEFSAII (Michael W. Deem and Ramdas Pophale) SiO2 
 PCOD9530658
Probable space group: I B C A 
;
_chemical_formula_sum "Si O2"
_cell_formula_units_Z 72
_cell_length_a 20.164175
_cell_length_b 18.710285
_cell_length_c 8.109392
_cell_angle_alpha 90.000000
_cell_angle_beta 90.000000
_cell_angle_gamma 90.000000
_cell_volume 3059.490824
_symmetry_space_group_name_H-M "I B C A "
_symmetry_group_IT_number 73
_symmetry_cell_setting 'orthorhombic'
loop_
_space_group_symop_operation_xyz
x,y,z
-x,1/2-y,z
x,-y,1/2-z
1/2-x,y,-z
-x,-y,-z
x,1/2+y,-z
-x,y,1/2+z
1/2+x,-y,z
1/2+x,1/2+y,1/2+z
1/2-x,-y,1/2+z
1/2+x,1/2-y,-z
-x,1/2+y,1/2-z
1/2-x,1/2-y,1/2-z
1/2+x,y,1/2-z
1/2-x,1/2+y,z
x,1/2-y,1/2+z
loop_
_atom_site_type_symbol
_atom_site_label
_atom_site_fract_x
_atom_site_fract_y
_atom_site_fract_z
Si Si1 0.939114 0.097380 0.546918
Si Si2 0.583876 0.000000 0.750000
Si Si3 0.194168 0.584874 0.734970
Si Si4 0.546487 0.317562 0.266809
Si Si5 0.172806 0.630823 0.357093
O O1 0.944934 0.028561 0.426063
O O2 0.871669 0.094379 0.654491
O O3 0.938977 0.163731 0.421810
O O4 0.002848 0.115592 0.660539
O O5 0.631822 0.065694 0.785182
O O6 0.211141 0.500000 0.750000
O O7 0.181186 0.607708 0.546320
O O8 0.261254 0.632242 0.756153
O O9 0.500000 0.250000 0.278837
O O10 0.618390 0.306649 0.349187
#
# Coordination Sequence:
#
# PCOD9530658 Si02
#       5
#    16   8  16  16  16
#     4  11  24  41  68 100 142 181 238 291 359 423
#     4  10  20  36  62 104 136 180 220 280 362 418
#     4  11  21  40  68 108 151 176 219 289 365 439
#     4  11  25  46  66  92 137 196 248 296 341 406
#     4  10  22  38  68 103 142 185 223 282 361 424
#
# _framework density 23.533328000000001
#
# number of rings (size 3 to 8) (size 9 to 14) (size 15 to 20)
#    0.000    1.333    3.333    2.000    0.000    7.111 
#   10.000    2.222    0.000    5.333    0.000    0.000 
#    0.000    0.000    0.000    0.000    0.000    0.000 
#
# Total GULP energy -200500.566531 kJ/mol
# GULP energy per Si atom -5569.460181 kJ/mol
# Density = 2.347977 g / cm^3
# Si number density = 23.533328 Si / 1000 Ang^3
#
#
#
# Elastic Constant Matrix: (Units=GPa)
#
#
# Indices 1 2 3 4 5 6 
#
# 1 207.0341 37.4849 77.2050 0.0000 0.0000 0.0000
# 2 37.4849 34.2865 11.4989 0.0000 0.0000 0.0000
# 3 77.2050 11.4989 115.2446 0.0000 0.0000 0.0000
# 4 0.0000 0.0000 0.0000 24.2134 0.0000 0.0000
# 5 0.0000 0.0000 0.0000 0.0000 29.8385 0.0000
# 6 0.0000 0.0000 0.0000 0.0000 0.0000 14.3332
#
#
#
# Elastic Compliance Matrix: (Units=1/GPa)
#
#
# Indices 1 2 3 4 5 6 
#
# 1 0.007779 -0.006991 -0.004514 0.000000 0.000000 0.000000
# 2 -0.006991 0.036459 0.001046 0.000000 0.000000 0.000000
# 3 -0.004514 0.001046 0.011597 0.000000 0.000000 0.000000
# 4 0.000000 0.000000 0.000000 0.041299 0.000000 0.000000
# 5 0.000000 0.000000 0.000000 0.000000 0.033514 0.000000
# 6 0.000000 0.000000 0.000000 0.000000 0.000000 0.069768
#
#
# Mechanical properties :
#
#
# Convention : Reuss Voigt Hill
#
# Bulk Modulus (GPa) = 28.64015 67.66033 48.15024
# Shear Modulus (GPa) = 21.46173 29.03544 25.24859
#
# Velocity S-wave (km/s) = 3.02316 3.51636 3.27905
# Velocity P-wave (km/s) = 4.93786 6.73050 5.90263
#
# Compressibility (1/GPa) = 0.03491602
#
# Stress axis : x y z
#
# Youngs Moduli (GPa) = 128.54847 27.42844 86.23052
#
# Poissons Ratio (x) = 0.19175 0.38924
# Poissons Ratio (y) = 0.89868 -0.09017
# Poissons Ratio (z) = 0.58025 -0.02868
#
# Static dielectric constant tensor:
#      x y z
#    x 2.086090 0.000000 0.000000 
#    y 0.000000 2.060140 0.000000 
#    z 0.000000 0.000000 1.951540 
# 
# From -- ./inp_files/6124.got.cif
#   From: 2010.05.17/outbox.cif.g08.bks.cpg/sg73_4_cif.got.tgz:6124.got - 2010.06.03 17:35:07.
