data_PCOD9530394
_publ_section_title
;
Structure prediction by ZEFSAII (Michael W. Deem and Ramdas Pophale) SiO2 
 PCOD9530394
Probable space group: I B C A 
;
_chemical_formula_sum "Si O2"
_cell_formula_units_Z 72
_cell_length_a 18.379696
_cell_length_b 13.179946
_cell_length_c 14.179803
_cell_angle_alpha 90.000000
_cell_angle_beta 90.000000
_cell_angle_gamma 90.000000
_cell_volume 3434.963701
_symmetry_space_group_name_H-M "I B C A "
_symmetry_group_IT_number 73
_symmetry_cell_setting 'orthorhombic'
loop_
_space_group_symop_operation_xyz
x,y,z
-x,1/2-y,z
x,-y,1/2-z
1/2-x,y,-z
-x,-y,-z
x,1/2+y,-z
-x,y,1/2+z
1/2+x,-y,z
1/2+x,1/2+y,1/2+z
1/2-x,-y,1/2+z
1/2+x,1/2-y,-z
-x,1/2+y,1/2-z
1/2-x,1/2-y,1/2-z
1/2+x,y,1/2-z
1/2-x,1/2+y,z
x,1/2-y,1/2+z
loop_
_atom_site_type_symbol
_atom_site_label
_atom_site_fract_x
_atom_site_fract_y
_atom_site_fract_z
Si Si1 0.567677 0.936564 0.963362
Si Si2 0.345484 0.395618 0.864970
Si Si3 0.490248 0.886593 0.263260
Si Si4 0.219522 0.500000 0.750000
Si Si5 0.876578 0.170175 0.647287
O O1 0.539157 0.877822 0.870011
O O2 0.630384 0.019992 0.941407
O O3 0.590340 0.865165 0.048335
O O4 0.500000 0.000000 0.000000
O O5 0.417759 0.394535 0.799573
O O6 0.273479 0.437623 0.817313
O O7 0.336457 0.275294 0.878244
O O8 0.556249 0.818595 0.222652
O O9 0.523098 0.000000 0.250000
O O10 0.174150 0.417185 0.690968
#
# Coordination Sequence:
#
# PCOD9530394 Si02
#       5
#    16  16  16   8  16
#     4  11  21  42  69 102 136 167 225 287 328 395
#     4  11  24  46  67  97 138 178 220 280 337 393
#     4  10  19  43  67  97 135 169 219 287 329 379
#     4  12  24  48  68  92 148 180 216 282 334 402
#     4  12  24  44  71 102 131 183 229 267 342 407
#
# _framework density 20.960920999999999
#
# number of rings (size 3 to 8) (size 9 to 14) (size 15 to 20)
#    0.000    0.889    8.889    1.333    0.000    0.889 
#   12.000    2.222    0.000    0.000    0.000    0.000 
#    0.000    0.000    0.000    0.000    0.000    0.000 
#
# Total GULP energy -200749.007458 kJ/mol
# GULP energy per Si atom -5576.361318 kJ/mol
# Density = 2.091321 g / cm^3
# Si number density = 20.960921 Si / 1000 Ang^3
#
#
#
# Elastic Constant Matrix: (Units=GPa)
#
#
# Indices 1 2 3 4 5 6 
#
# 1 93.5606 38.5022 26.2802 0.0000 0.0000 0.0000
# 2 38.5022 119.7628 32.0065 0.0000 0.0000 0.0000
# 3 26.2802 32.0065 87.3666 0.0000 0.0000 0.0000
# 4 0.0000 0.0000 0.0000 14.8288 0.0000 0.0000
# 5 0.0000 0.0000 0.0000 0.0000 -3.3441 0.0000
# 6 0.0000 0.0000 0.0000 0.0000 0.0000 32.1511
#
#
#
# Elastic Compliance Matrix: (Units=1/GPa)
#
#
# Indices 1 2 3 4 5 6 
#
# 1 0.012831 -0.003429 -0.002603 0.000000 0.000000 0.000000
# 2 -0.003429 0.010173 -0.002695 0.000000 0.000000 0.000000
# 3 -0.002603 -0.002695 0.013216 0.000000 0.000000 0.000000
# 4 0.000000 0.000000 0.000000 0.067436 0.000000 0.000000
# 5 0.000000 0.000000 0.000000 0.000000 -0.299032 0.000000
# 6 0.000000 0.000000 0.000000 0.000000 0.000000 0.031103
#
#
# Mechanical properties :
#
#
# Convention : Reuss Voigt Hill
#
# Bulk Modulus (GPa) = 53.29217 54.91864 54.10540
# Shear Modulus (GPa) = -35.57123 22.32056 -6.62534
#
# Velocity S-wave (km/s) = -4.12397 3.26677 -1.77979
# Velocity P-wave (km/s) = 1.67439 6.36289 4.65242
#
# Compressibility (1/GPa) = 0.01876448
#
# Stress axis : x y z
#
# Youngs Moduli (GPa) = 77.93824 98.30366 75.66328
#
# Poissons Ratio (x) = 0.33710 0.19697
# Poissons Ratio (y) = 0.26726 0.20393
# Poissons Ratio (z) = 0.20289 0.26495
#
# Static dielectric constant tensor:
#      x y z
#    x 1.742410 0.000000 0.000000 
#    y 0.000000 1.928670 0.000000 
#    z 0.000000 0.000000 1.792110 
# 
# From -- ./inp_files/17764.got.cif
#   From: 2010.05.17/outbox.cif.g08.bks.cpg/sg73_9_cif.got.tgz:17764.got - 2010.06.03 17:35:07.
