data_PCOD9530950
_publ_section_title
;
Structure prediction by ZEFSAII (Michael W. Deem and Ramdas Pophale) SiO2 
 PCOD9530950
Probable space group: I B C A 
;
_chemical_formula_sum "Si O2"
_cell_formula_units_Z 88
_cell_length_a 16.489066
_cell_length_b 9.177989
_cell_length_c 27.724640
_cell_angle_alpha 90.000000
_cell_angle_beta 90.000000
_cell_angle_gamma 90.000000
_cell_volume 4195.749049
_symmetry_space_group_name_H-M "I B C A "
_symmetry_group_IT_number 73
_symmetry_cell_setting 'orthorhombic'
loop_
_space_group_symop_operation_xyz
x,y,z
-x,1/2-y,z
x,-y,1/2-z
1/2-x,y,-z
-x,-y,-z
x,1/2+y,-z
-x,y,1/2+z
1/2+x,-y,z
1/2+x,1/2+y,1/2+z
1/2-x,-y,1/2+z
1/2+x,1/2-y,-z
-x,1/2+y,1/2-z
1/2-x,1/2-y,1/2-z
1/2+x,y,1/2-z
1/2-x,1/2+y,z
x,1/2-y,1/2+z
loop_
_atom_site_type_symbol
_atom_site_label
_atom_site_fract_x
_atom_site_fract_y
_atom_site_fract_z
Si Si1 0.906094 0.248633 0.945257
Si Si2 0.388215 0.500000 0.750000
Si Si3 0.764094 0.874125 0.116865
Si Si4 0.753532 0.874206 0.318443
Si Si5 0.500000 0.250000 0.248018
Si Si6 0.166281 0.063404 0.028934
Si Si7 0.883252 0.000000 0.750000
O O1 0.848745 0.320372 0.904786
O O2 0.000000 0.250000 0.932044
O O3 0.876411 0.085146 0.955661
O O4 0.889260 0.341751 0.993708
O O5 0.330950 0.417589 0.787358
O O6 0.441272 0.627811 0.775543
O O7 0.749222 0.793723 0.167474
O O8 0.696051 0.850082 0.076265
O O9 0.760807 0.043182 0.130584
O O10 0.673974 0.924667 0.289678
O O11 0.438633 0.368571 0.271917
O O12 0.250000 0.029696 0.000000
#
# Coordination Sequence:
#
# PCOD9530950 Si02
#       7
#    16   8  16  16   8  16   8
#     4  11  23  41  63  92 125 160 201 257 320 371
#     4  10  22  40  64  88 122 170 206 248 316 360
#     4  11  22  39  64  92 124 161 215 256 297 363
#     4  11  22  41  63  89 122 170 215 252 292 380
#     4  10  20  40  62  92 118 154 210 260 312 366
#     4  10  21  40  66  88 120 165 206 245 308 378
#     4  10  22  40  66  88 126 170 210 248 316 364
#
# _framework density 20.973609
#
# number of rings (size 3 to 8) (size 9 to 14) (size 15 to 20)
#    0.000    1.455    1.818    4.364    2.545    2.909 
#    9.818    0.000    2.000    0.000    0.000    0.000 
#    0.000    0.000    0.000    0.000    0.000    0.000 
#
# Total GULP energy -245495.798455 kJ/mol
# GULP energy per Si atom -5579.449965 kJ/mol
# Density = 2.092587 g / cm^3
# Si number density = 20.973609 Si / 1000 Ang^3
#
#
#
# Elastic Constant Matrix: (Units=GPa)
#
#
# Indices 1 2 3 4 5 6 
#
# 1 94.9992 40.5623 14.3087 0.0000 0.0000 0.0000
# 2 40.5623 100.4410 8.5035 0.0000 0.0000 0.0000
# 3 14.3087 8.5035 53.5956 0.0000 0.0000 0.0000
# 4 0.0000 0.0000 0.0000 39.3180 0.0000 0.0000
# 5 0.0000 0.0000 0.0000 0.0000 1.4934 0.0000
# 6 0.0000 0.0000 0.0000 0.0000 0.0000 20.5929
#
#
#
# Elastic Compliance Matrix: (Units=1/GPa)
#
#
# Indices 1 2 3 4 5 6 
#
# 1 0.013092 -0.005059 -0.002693 0.000000 0.000000 0.000000
# 2 -0.005059 0.012047 -0.000561 0.000000 0.000000 0.000000
# 3 -0.002693 -0.000561 0.019466 0.000000 0.000000 0.000000
# 4 0.000000 0.000000 0.000000 0.025434 0.000000 0.000000
# 5 0.000000 0.000000 0.000000 0.000000 0.669595 0.000000
# 6 0.000000 0.000000 0.000000 0.000000 0.000000 0.048561
#
#
# Mechanical properties :
#
#
# Convention : Reuss Voigt Hill
#
# Bulk Modulus (GPa) = 35.73983 41.75387 38.74685
# Shear Modulus (GPa) = 6.14141 24.65828 15.39985
#
# Velocity S-wave (km/s) = 1.71304 3.43254 2.71264
# Velocity P-wave (km/s) = 4.58149 5.97167 5.32217
#
# Compressibility (1/GPa) = 0.02797998
#
# Stress axis : x y z
#
# Youngs Moduli (GPa) = 76.38191 83.01044 51.37154
#
# Poissons Ratio (x) = 0.41997 0.13832
# Poissons Ratio (y) = 0.38643 0.02880
# Poissons Ratio (z) = 0.20566 0.04654
#
# Static dielectric constant tensor:
#      x y z
#    x 1.763150 0.000000 0.000000 
#    y 0.000000 1.725660 0.000000 
#    z 0.000000 0.000000 1.763590 
# 
# From -- ./inp_files/8404.got.cif
#   From: 2010.05.17/outbox.cif.g08.bks.cpg/sg73_5_cif.got.tgz:8404.got - 2010.06.03 17:35:07.
