data_PCOD9530535
_publ_section_title
;
Structure prediction by ZEFSAII (Michael W. Deem and Ramdas Pophale) SiO2 
 PCOD9530535
Probable space group: I B C A 
;
_chemical_formula_sum "Si O2"
_cell_formula_units_Z 120
_cell_length_a 29.543975
_cell_length_b 8.754562
_cell_length_c 27.600962
_cell_angle_alpha 90.000000
_cell_angle_beta 90.000000
_cell_angle_gamma 90.000000
_cell_volume 7138.838696
_symmetry_space_group_name_H-M "I B C A "
_symmetry_group_IT_number 73
_symmetry_cell_setting 'orthorhombic'
loop_
_space_group_symop_operation_xyz
x,y,z
-x,1/2-y,z
x,-y,1/2-z
1/2-x,y,-z
-x,-y,-z
x,1/2+y,-z
-x,y,1/2+z
1/2+x,-y,z
1/2+x,1/2+y,1/2+z
1/2-x,-y,1/2+z
1/2+x,1/2-y,-z
-x,1/2+y,1/2-z
1/2-x,1/2-y,1/2-z
1/2+x,y,1/2-z
1/2-x,1/2+y,z
x,1/2-y,1/2+z
loop_
_atom_site_type_symbol
_atom_site_label
_atom_site_fract_x
_atom_site_fract_y
_atom_site_fract_z
Si Si1 0.633225 0.264338 0.642457
Si Si2 0.551494 0.696893 0.205888
Si Si3 0.214849 0.725298 0.069467
Si Si4 0.222775 0.769243 0.839647
Si Si5 0.953603 0.345733 0.820402
Si Si6 0.135661 0.420448 0.696190
Si Si7 0.250000 0.475899 0.000000
Si Si8 0.300096 0.416007 0.699426
O O1 0.668434 0.233879 0.599466
O O2 0.581539 0.215946 0.639959
O O3 0.635265 0.438462 0.659247
O O4 0.652682 0.157834 0.685719
O O5 0.500000 0.750000 0.198392
O O6 0.550594 0.530055 0.180914
O O7 0.558267 0.690256 0.264124
O O8 0.590947 0.814820 0.190511
O O9 0.257013 0.727596 0.107666
O O10 0.220212 0.870275 0.034751
O O11 0.219831 0.580647 0.034851
O O12 0.179131 0.681354 0.818833
O O13 0.263930 0.719194 0.804731
O O14 0.213897 0.949619 0.837532
O O15 0.000000 0.250000 0.828019
O O16 0.138311 0.500000 0.750000
O O17 0.300986 0.500000 0.750000
#
# Coordination Sequence:
#
# PCOD9530535 Si02
#       8
#    16  16  16  16  16  16   8  16
#     4  11  21  33  52  76 108 135 184 223 264 312
#     4  10  21  33  50  72 103 147 200 229 256 297
#     4  10  21  37  55  80 101 137 169 223 272 331
#     4  11  21  34  49  72 107 136 183 224 264 311
#     4  10  20  35  53  73 104 145 185 232 264 299
#     4  12  21  32  49  75 107 153 188 222 264 306
#     4  10  20  38  60  74 102 130 172 210 282 346
#     4  11  21  32  46  69 104 151 183 217 254 303
#
# _framework density 16.809456000000001
#
# number of rings (size 3 to 8) (size 9 to 14) (size 15 to 20)
#    0.000    1.333    1.333    7.200    3.733    0.000 
#    0.000    0.000    0.000    0.000    0.000    0.933 
#    0.000    4.267    0.000    0.267    0.000    0.000 
#
# Total GULP energy -334523.647584 kJ/mol
# GULP energy per Si atom -5575.394126 kJ/mol
# Density = 1.677120 g / cm^3
# Si number density = 16.809456 Si / 1000 Ang^3
#
#
#
# Elastic Constant Matrix: (Units=GPa)
#
#
# Indices 1 2 3 4 5 6 
#
# 1 119.2820 43.0217 40.2730 0.0000 0.0000 0.0000
# 2 43.0217 92.2135 22.6956 0.0000 0.0000 0.0000
# 3 40.2730 22.6956 60.7561 0.0000 0.0000 0.0000
# 4 0.0000 0.0000 0.0000 13.3762 0.0000 0.0000
# 5 0.0000 0.0000 0.0000 0.0000 16.9252 0.0000
# 6 0.0000 0.0000 0.0000 0.0000 0.0000 26.0019
#
#
#
# Elastic Compliance Matrix: (Units=1/GPa)
#
#
# Indices 1 2 3 4 5 6 
#
# 1 0.012014 -0.004014 -0.006464 0.000000 0.000000 0.000000
# 2 -0.004014 0.013284 -0.002301 0.000000 0.000000 0.000000
# 3 -0.006464 -0.002301 0.021604 0.000000 0.000000 0.000000
# 4 0.000000 0.000000 0.000000 0.074760 0.000000 0.000000
# 5 0.000000 0.000000 0.000000 0.000000 0.059084 0.000000
# 6 0.000000 0.000000 0.000000 0.000000 0.000000 0.038459
#
#
# Mechanical properties :
#
#
# Convention : Reuss Voigt Hill
#
# Bulk Modulus (GPa) = 46.85558 53.80357 50.32957
# Shear Modulus (GPa) = 19.85108 22.34476 21.09792
#
# Velocity S-wave (km/s) = 3.44022 3.64991 3.54661
# Velocity P-wave (km/s) = 6.61175 7.05973 6.83941
#
# Compressibility (1/GPa) = 0.02134218
#
# Stress axis : x y z
#
# Youngs Moduli (GPa) = 83.23871 75.28128 46.28849
#
# Poissons Ratio (x) = 0.30218 0.29921
# Poissons Ratio (y) = 0.33412 0.10653
# Poissons Ratio (z) = 0.53805 0.17325
#
# Static dielectric constant tensor:
#      x y z
#    x 1.582620 0.000000 0.000000 
#    y 0.000000 1.614450 0.000000 
#    z 0.000000 0.000000 1.571310 
# 
# From -- ./inp_files/8142.got.cif
#   From: 2010.05.17/outbox.cif.g08.bks.cpg/sg73_5_cif.got.tgz:8142.got - 2010.06.03 17:35:07.
