data_PCOD9530677
_publ_section_title
;
Structure prediction by ZEFSAII (Michael W. Deem and Ramdas Pophale) SiO2 
 PCOD9530677
Probable space group: I B C A 
;
_chemical_formula_sum "Si O2"
_cell_formula_units_Z 104
_cell_length_a 19.984302
_cell_length_b 16.133826
_cell_length_c 15.103288
_cell_angle_alpha 90.000000
_cell_angle_beta 90.000000
_cell_angle_gamma 90.000000
_cell_volume 4869.651221
_symmetry_space_group_name_H-M "I B C A "
_symmetry_group_IT_number 73
_symmetry_cell_setting 'orthorhombic'
loop_
_space_group_symop_operation_xyz
x,y,z
-x,1/2-y,z
x,-y,1/2-z
1/2-x,y,-z
-x,-y,-z
x,1/2+y,-z
-x,y,1/2+z
1/2+x,-y,z
1/2+x,1/2+y,1/2+z
1/2-x,-y,1/2+z
1/2+x,1/2-y,-z
-x,1/2+y,1/2-z
1/2-x,1/2-y,1/2-z
1/2+x,y,1/2-z
1/2-x,1/2+y,z
x,1/2-y,1/2+z
loop_
_atom_site_type_symbol
_atom_site_label
_atom_site_fract_x
_atom_site_fract_y
_atom_site_fract_z
Si Si1 0.054581 0.139695 0.139783
Si Si2 0.986161 0.094984 0.971462
Si Si3 0.051339 0.595065 0.220139
Si Si4 0.250000 0.065688 0.000000
Si Si5 0.364750 0.029620 0.604092
Si Si6 0.169733 0.332579 0.760597
Si Si7 0.190521 0.162609 0.839562
O O1 0.115258 0.189782 0.184759
O O2 0.992668 0.142141 0.207171
O O3 0.088331 0.047902 0.131447
O O4 0.022684 0.152689 0.043041
O O5 0.906133 0.090965 0.961310
O O6 0.016824 0.108956 0.874882
O O7 0.000000 0.000000 0.000000
O O8 0.047270 0.500000 0.250000
O O9 0.128366 0.618641 0.207954
O O10 0.294888 0.122709 0.064922
O O11 0.200196 0.009124 0.057886
O O12 0.349805 0.084035 0.689479
O O13 0.173958 0.259835 0.832979
O O14 0.240952 0.345903 0.714995
#
# Coordination Sequence:
#
# PCOD9530677 Si02
#       7
#    16  16  16   8  16  16  16
#     4  11  21  41  72  97 137 173 231 288 344 409
#     4  10  20  36  64 102 130 167 222 285 344 392
#     4  12  22  38  69 101 132 176 230 288 332 415
#     4  12  26  42  72 102 140 178 240 294 344 422
#     4  11  22  41  71 101 132 182 231 287 346 411
#     4  11  24  48  66  92 141 191 221 279 359 422
#     4  11  28  42  66  99 143 182 233 284 358 418
#
# _framework density 21.356766
#
# number of rings (size 3 to 8) (size 9 to 14) (size 15 to 20)
#    0.000    0.923    6.154    2.308    2.154    1.231 
#    0.000    1.538    6.769    0.000    0.000    0.000 
#    0.000    0.000    0.000    0.000    0.000    0.000 
#
# Total GULP energy -290379.142913 kJ/mol
# GULP energy per Si atom -5584.214287 kJ/mol
# Density = 2.130816 g / cm^3
# Si number density = 21.356766 Si / 1000 Ang^3
#
#
#
# Elastic Constant Matrix: (Units=GPa)
#
#
# Indices 1 2 3 4 5 6 
#
# 1 129.5426 19.7823 43.8727 0.0000 0.0000 0.0000
# 2 19.7823 41.4364 23.7332 0.0000 0.0000 0.0000
# 3 43.8727 23.7332 130.4935 0.0000 0.0000 0.0000
# 4 0.0000 0.0000 0.0000 2.3431 0.0000 0.0000
# 5 0.0000 0.0000 0.0000 0.0000 32.1084 0.0000
# 6 0.0000 0.0000 0.0000 0.0000 0.0000 -13.7182
#
#
#
# Elastic Compliance Matrix: (Units=1/GPa)
#
#
# Indices 1 2 3 4 5 6 
#
# 1 0.009006 -0.002864 -0.002507 0.000000 0.000000 0.000000
# 2 -0.002864 0.027850 -0.004102 0.000000 0.000000 0.000000
# 3 -0.002507 -0.004102 0.009252 0.000000 0.000000 0.000000
# 4 0.000000 0.000000 0.000000 0.426777 0.000000 0.000000
# 5 0.000000 0.000000 0.000000 0.000000 0.031145 0.000000
# 6 0.000000 0.000000 0.000000 0.000000 0.000000 -0.072896
#
#
# Mechanical properties :
#
#
# Convention : Reuss Voigt Hill
#
# Bulk Modulus (GPa) = 36.81591 52.91656 44.86624
# Shear Modulus (GPa) = 10.89007 18.41894 14.65451
#
# Velocity S-wave (km/s) = 2.26057 2.93992 2.62234
# Velocity P-wave (km/s) = 4.90811 6.02954 5.49750
#
# Compressibility (1/GPa) = 0.02716217
#
# Stress axis : x y z
#
# Youngs Moduli (GPa) = 111.03925 35.90640 108.08228
#
# Poissons Ratio (x) = 0.10282 0.27096
# Poissons Ratio (y) = 0.31797 0.44340
# Poissons Ratio (z) = 0.27838 0.14730
#
# Static dielectric constant tensor:
#      x y z
#    x 1.783590 0.000000 0.000000 
#    y 0.000000 1.790930 0.000000 
#    z 0.000000 0.000000 1.790950 
# 
# From -- ./inp_files/18806.got.cif
#   From: 2010.05.17/outbox.cif.g08.bks.cpg/sg73_10_cif.got.tgz:18806.got - 2010.06.03 17:35:07.
