data_PCOD9530756
_publ_section_title
;
Structure prediction by ZEFSAII (Michael W. Deem and Ramdas Pophale) SiO2 
 PCOD9530756
Probable space group: I B C A 
;
_chemical_formula_sum "Si O2"
_cell_formula_units_Z 96
_cell_length_a 18.737120
_cell_length_b 29.741601
_cell_length_c 8.637286
_cell_angle_alpha 90.000000
_cell_angle_beta 90.000000
_cell_angle_gamma 90.000000
_cell_volume 4813.317185
_symmetry_space_group_name_H-M "I B C A "
_symmetry_group_IT_number 73
_symmetry_cell_setting 'orthorhombic'
loop_
_space_group_symop_operation_xyz
x,y,z
-x,1/2-y,z
x,-y,1/2-z
1/2-x,y,-z
-x,-y,-z
x,1/2+y,-z
-x,y,1/2+z
1/2+x,-y,z
1/2+x,1/2+y,1/2+z
1/2-x,-y,1/2+z
1/2+x,1/2-y,-z
-x,1/2+y,1/2-z
1/2-x,1/2-y,1/2-z
1/2+x,y,1/2-z
1/2-x,1/2+y,z
x,1/2-y,1/2+z
loop_
_atom_site_type_symbol
_atom_site_label
_atom_site_fract_x
_atom_site_fract_y
_atom_site_fract_z
Si Si1 0.309234 0.881308 0.611863
Si Si2 0.592176 0.447665 0.721632
Si Si3 0.684951 0.714367 0.735814
Si Si4 0.927137 0.351490 0.863611
Si Si5 0.466649 0.403468 0.929178
Si Si6 0.917317 0.755675 0.041768
O O1 0.250000 0.901217 0.500000
O O2 0.341477 0.917047 0.728564
O O3 0.286227 0.835512 0.699565
O O4 0.368822 0.866081 0.488250
O O5 0.603556 0.500000 0.750000
O O6 0.527610 0.430145 0.832929
O O7 0.573009 0.437266 0.543869
O O8 0.750000 0.750000 0.750000
O O9 0.628651 0.716513 0.877536
O O10 0.633875 0.728214 0.594695
O O11 0.922591 0.377820 0.702889
O O12 0.922284 0.298247 0.840530
O O13 0.999162 0.366524 0.953747
O O14 0.000000 0.750000 0.994277
#
# Coordination Sequence:
#
# PCOD9530756 Si02
#       6
#    16  16  16  16  16  16
#     4  10  22  42  58  80 116 163 204 254 298 357
#     4  10  20  37  64  92 119 152 196 250 312 368
#     4  11  23  41  60  83 121 174 212 244 311 391
#     4   9  20  35  57  82 123 155 194 246 307 360
#     4   9  19  35  60  89 121 154 192 240 311 383
#     4  11  24  34  58  91 122 155 209 271 308 353
#
# _framework density 19.944666000000002
#
# number of rings (size 3 to 8) (size 9 to 14) (size 15 to 20)
#    0.000    2.000    0.000    3.500   11.667    0.000 
#    0.000    4.167    0.000    0.000    0.000    0.000 
#    0.000    0.000    0.000    0.000    0.000    0.000 
#
# Total GULP energy -267728.591882 kJ/mol
# GULP energy per Si atom -5577.678998 kJ/mol
# Density = 1.989927 g / cm^3
# Si number density = 19.944666 Si / 1000 Ang^3
#
#
#
# Elastic Constant Matrix: (Units=GPa)
#
#
# Indices 1 2 3 4 5 6 
#
# 1 72.2604 30.3598 11.3699 -0.0001 0.0001 0.0000
# 2 30.3598 101.5958 32.7741 0.0001 0.0000 0.0000
# 3 11.3699 32.7741 81.8050 0.0003 0.0001 0.0000
# 4 -0.0001 0.0001 0.0003 26.7930 -0.0001 0.0000
# 5 0.0001 0.0000 0.0001 -0.0001 17.6311 0.0000
# 6 0.0000 0.0000 0.0000 0.0000 0.0000 19.6808
#
#
#
# Elastic Compliance Matrix: (Units=1/GPa)
#
#
# Indices 1 2 3 4 5 6 
#
# 1 0.015835 -0.004619 -0.000350 0.000000 0.000000 0.000000
# 2 -0.004619 0.012651 -0.004427 0.000000 0.000000 0.000000
# 3 -0.000350 -0.004427 0.014046 0.000000 0.000000 0.000000
# 4 0.000000 0.000000 0.000000 0.037323 0.000000 0.000000
# 5 0.000000 0.000000 0.000000 0.000000 0.056718 0.000000
# 6 0.000000 0.000000 0.000000 0.000000 0.000000 0.050811
#
#
# Mechanical properties :
#
#
# Convention : Reuss Voigt Hill
#
# Bulk Modulus (GPa) = 42.12196 44.96321 43.54258
# Shear Modulus (GPa) = 23.35477 24.89814 24.12646
#
# Velocity S-wave (km/s) = 3.42567 3.53705 3.48180
# Velocity P-wave (km/s) = 6.06731 6.26689 6.16790
#
# Compressibility (1/GPa) = 0.02374059
#
# Stress axis : x y z
#
# Youngs Moduli (GPa) = 63.15314 79.04426 71.19302
#
# Poissons Ratio (x) = 0.36509 0.02494
# Poissons Ratio (y) = 0.29169 0.31514
# Poissons Ratio (z) = 0.02212 0.34989
#
# Static dielectric constant tensor:
#      x y z
#    x 1.840280 0.000000 0.000000 
#    y 0.000000 1.711770 0.000000 
#    z 0.000000 0.000000 1.725940 
# 
# From -- ./inp_files/6421.got.cif
#   From: 2010.05.17/outbox.cif.g08.bks.cpg/sg73_4_cif.got.tgz:6421.got - 2010.06.03 17:35:07.
