data_PCOD9530051
_publ_section_title
;
Structure prediction by ZEFSAII (Michael W. Deem and Ramdas Pophale) SiO2 
 PCOD9530051
Probable space group: I B C A 
;
_chemical_formula_sum "Si O2"
_cell_formula_units_Z 96
_cell_length_a 12.175663
_cell_length_b 18.366686
_cell_length_c 18.333474
_cell_angle_alpha 90.000000
_cell_angle_beta 90.000000
_cell_angle_gamma 90.000000
_cell_volume 4099.852075
_symmetry_space_group_name_H-M "I B C A "
_symmetry_group_IT_number 73
_symmetry_cell_setting 'orthorhombic'
loop_
_space_group_symop_operation_xyz
x,y,z
-x,1/2-y,z
x,-y,1/2-z
1/2-x,y,-z
-x,-y,-z
x,1/2+y,-z
-x,y,1/2+z
1/2+x,-y,z
1/2+x,1/2+y,1/2+z
1/2-x,-y,1/2+z
1/2+x,1/2-y,-z
-x,1/2+y,1/2-z
1/2-x,1/2-y,1/2-z
1/2+x,y,1/2-z
1/2-x,1/2+y,z
x,1/2-y,1/2+z
loop_
_atom_site_type_symbol
_atom_site_label
_atom_site_fract_x
_atom_site_fract_y
_atom_site_fract_z
Si Si1 0.439461 0.594323 0.992808
Si Si2 0.237957 0.071514 0.116810
Si Si3 0.000000 0.250000 0.971083
Si Si4 0.823292 0.152465 0.253238
Si Si5 0.450323 0.000000 0.250000
Si Si6 0.143590 0.789836 0.158334
Si Si7 0.402435 0.549223 0.375630
O O1 0.350596 0.587312 0.926280
O O2 0.482786 0.674922 0.010445
O O3 0.546658 0.555210 0.957261
O O4 0.364387 0.578695 0.062406
O O5 0.233978 0.125828 0.185286
O O6 0.219172 0.985509 0.133583
O O7 0.108093 0.259168 0.920000
O O8 0.886683 0.076653 0.246353
O O9 0.765604 0.185619 0.181844
O O10 0.883561 0.222261 0.288673
O O11 0.523198 0.997992 0.322331
O O12 0.087673 0.869172 0.156498
#
# Coordination Sequence:
#
# PCOD9530051 Si02
#       7
#    16  16   8  16   8  16  16
#     4  10  22  39  66  86 126 166 210 259 322 380
#     4  11  21  40  63  89 123 163 208 263 312 372
#     4  10  18  42  62  88 118 172 204 254 326 390
#     4  11  21  38  61  93 127 166 207 259 326 377
#     4  12  22  38  60  92 126 164 206 262 320 374
#     4  10  21  36  62  88 121 163 206 254 318 385
#     4  11  22  38  63  93 123 166 211 262 316 379
#
# _framework density 23.415479999999999
#
# number of rings (size 3 to 8) (size 9 to 14) (size 15 to 20)
#    0.000    1.333    3.333    3.500    0.000    0.000 
#    0.000    4.167   14.667    0.000    0.000    0.000 
#    0.000    0.000    0.000    0.000    0.000    0.000 
#
# Total GULP energy -267303.232056 kJ/mol
# GULP energy per Si atom -5568.817335 kJ/mol
# Density = 2.336219 g / cm^3
# Si number density = 23.415480 Si / 1000 Ang^3
#
#
#
# Elastic Constant Matrix: (Units=GPa)
#
#
# Indices 1 2 3 4 5 6 
#
# 1 42.9707 31.8768 -2.7396 0.0000 0.0000 0.0000
# 2 31.8768 127.9614 -4.0625 0.0000 0.0000 0.0000
# 3 -2.7396 -4.0625 29.9987 0.0000 0.0000 0.0000
# 4 0.0000 0.0000 0.0000 3.8677 0.0000 0.0000
# 5 0.0000 0.0000 0.0000 0.0000 19.3013 0.0000
# 6 0.0000 0.0000 0.0000 0.0000 0.0000 39.1009
#
#
#
# Elastic Compliance Matrix: (Units=1/GPa)
#
#
# Indices 1 2 3 4 5 6 
#
# 1 0.028629 -0.007079 0.001656 0.000000 0.000000 0.000000
# 2 -0.007079 0.009599 0.000653 0.000000 0.000000 0.000000
# 3 0.001656 0.000653 0.033574 0.000000 0.000000 0.000000
# 4 0.000000 0.000000 0.000000 0.258551 0.000000 0.000000
# 5 0.000000 0.000000 0.000000 0.000000 0.051810 0.000000
# 6 0.000000 0.000000 0.000000 0.000000 0.000000 0.025575
#
#
# Mechanical properties :
#
#
# Convention : Reuss Voigt Hill
#
# Bulk Modulus (GPa) = 16.06103 27.89779 21.97941
# Shear Modulus (GPa) = 11.41468 24.17773 17.79621
#
# Velocity S-wave (km/s) = 2.21030 3.21682 2.75983
# Velocity P-wave (km/s) = 3.65895 5.07320 4.42297
#
# Compressibility (1/GPa) = 0.06226249
#
# Stress axis : x y z
#
# Youngs Moduli (GPa) = 34.92984 104.17610 29.78453
#
# Poissons Ratio (x) = 0.73749 -0.04932
# Poissons Ratio (y) = 0.24728 -0.01946
# Poissons Ratio (z) = -0.05784 -0.06807
#
# Static dielectric constant tensor:
#      x y z
#    x 1.888780 0.000000 0.000000 
#    y 0.000000 1.963110 0.000000 
#    z 0.000000 0.000000 1.933330 
# 
# From -- ./inp_files/21397.got.cif
#   From: 2010.05.17/outbox.cif.g08.bks.cpg/sg73_11_cif.got.tgz:21397.got - 2010.06.03 17:35:07.
