data_PCOD9530695
_publ_section_title
;
Structure prediction by ZEFSAII (Michael W. Deem and Ramdas Pophale) SiO2 
 PCOD9530695
Probable space group: I B C A 
;
_chemical_formula_sum "Si O2"
_cell_formula_units_Z 96
_cell_length_a 20.289394
_cell_length_b 14.951903
_cell_length_c 11.357783
_cell_angle_alpha 90.000000
_cell_angle_beta 90.000000
_cell_angle_gamma 90.000000
_cell_volume 3445.554419
_symmetry_space_group_name_H-M "I B C A "
_symmetry_group_IT_number 73
_symmetry_cell_setting 'orthorhombic'
loop_
_space_group_symop_operation_xyz
x,y,z
-x,1/2-y,z
x,-y,1/2-z
1/2-x,y,-z
-x,-y,-z
x,1/2+y,-z
-x,y,1/2+z
1/2+x,-y,z
1/2+x,1/2+y,1/2+z
1/2-x,-y,1/2+z
1/2+x,1/2-y,-z
-x,1/2+y,1/2-z
1/2-x,1/2-y,1/2-z
1/2+x,y,1/2-z
1/2-x,1/2+y,z
x,1/2-y,1/2+z
loop_
_atom_site_type_symbol
_atom_site_label
_atom_site_fract_x
_atom_site_fract_y
_atom_site_fract_z
Si Si1 0.239348 0.359004 0.148123
Si Si2 0.455272 0.433228 0.675396
Si Si3 0.404896 0.725181 0.690346
Si Si4 0.083499 0.488392 0.563717
Si Si5 0.620552 0.309223 0.556527
Si Si6 0.724497 0.934064 0.121006
O O1 0.166590 0.320374 0.166060
O O2 0.299632 0.317761 0.070832
O O3 0.240620 0.467808 0.126711
O O4 0.263380 0.360237 0.282570
O O5 0.409690 0.500000 0.750000
O O6 0.457521 0.346365 0.756660
O O7 0.423901 0.423750 0.547828
O O8 0.517756 0.495161 0.638039
O O9 0.413982 0.747561 0.550403
O O10 0.400100 0.786914 0.807929
O O11 0.098408 0.589996 0.526204
O O12 0.147384 0.454708 0.629765
O O13 0.750000 0.895037 0.000000
#
# Coordination Sequence:
#
# PCOD9530695 Si02
#       6
#    16  16  16  16  16  16
#     4  10  22  37  65  98 139 186 237 295 364 428
#     4  11  24  43  74  99 136 185 242 297 347 430
#     4  12  25  45  69 105 141 194 236 292 361 436
#     4  10  23  45  68 105 139 184 237 298 362 422
#     4  11  25  45  67  99 147 187 236 296 362 431
#     4  10  20  36  67 104 139 180 235 306 356 425
#
# _framework density 27.861989999999999
#
# number of rings (size 3 to 8) (size 9 to 14) (size 15 to 20)
#    0.000    1.333    1.667    4.000    7.000    3.333 
#    3.000    1.667    0.000    0.000    0.000    0.000 
#    0.000    0.000    0.000    0.000    0.000    0.000 
#
# Total GULP energy -267720.250335 kJ/mol
# GULP energy per Si atom -5577.505215 kJ/mol
# Density = 2.779857 g / cm^3
# Si number density = 27.861990 Si / 1000 Ang^3
#
#
#
# Elastic Constant Matrix: (Units=GPa)
#
#
# Indices 1 2 3 4 5 6 
#
# 1 112.5881 18.0602 32.9532 0.0000 0.0000 0.0000
# 2 18.0602 90.3553 44.0923 0.0000 0.0000 0.0000
# 3 32.9532 44.0923 216.9412 0.0000 0.0000 0.0000
# 4 0.0000 0.0000 0.0000 33.5551 0.0000 0.0000
# 5 0.0000 0.0000 0.0000 0.0000 0.9053 0.0000
# 6 0.0000 0.0000 0.0000 0.0000 0.0000 -5.8366
#
#
#
# Elastic Compliance Matrix: (Units=1/GPa)
#
#
# Indices 1 2 3 4 5 6 
#
# 1 0.009434 -0.001317 -0.001165 0.000000 0.000000 0.000000
# 2 -0.001317 0.012470 -0.002334 0.000000 0.000000 0.000000
# 3 -0.001165 -0.002334 0.005261 0.000000 0.000000 0.000000
# 4 0.000000 0.000000 0.000000 0.029802 0.000000 0.000000
# 5 0.000000 0.000000 0.000000 0.000000 1.104585 0.000000
# 6 0.000000 0.000000 0.000000 0.000000 0.000000 -0.171332
#
#
# Mechanical properties :
#
#
# Convention : Reuss Voigt Hill
#
# Bulk Modulus (GPa) = 57.04004 67.78843 62.41423
# Shear Modulus (GPa) = 4.97167 27.37669 16.17418
#
# Velocity S-wave (km/s) = 1.33726 3.13802 2.41199
# Velocity P-wave (km/s) = 4.78551 6.12474 5.49607
#
# Compressibility (1/GPa) = 0.01753154
#
# Stress axis : x y z
#
# Youngs Moduli (GPa) = 105.99630 80.19367 190.07737
#
# Poissons Ratio (x) = 0.10562 0.22151
# Poissons Ratio (y) = 0.13960 0.44371
# Poissons Ratio (z) = 0.12353 0.18720
#
# Static dielectric constant tensor:
#      x y z
#    x 2.247290 0.000000 0.000000 
#    y 0.000000 2.178640 0.000000 
#    z 0.000000 0.000000 2.550640 
# 
# From -- ./inp_files/13625.got.cif
#   From: 2010.05.17/outbox.cif.g08.bks.cpg/sg73_7_cif.got.tgz:13625.got - 2010.06.03 17:35:07.
