data_PCOD9530441
_publ_section_title
;
Structure prediction by ZEFSAII (Michael W. Deem and Ramdas Pophale) SiO2 
 PCOD9530441
Probable space group: I B C A 
;
_chemical_formula_sum "Si O2"
_cell_formula_units_Z 112
_cell_length_a 20.843950
_cell_length_b 21.509179
_cell_length_c 12.126617
_cell_angle_alpha 90.000000
_cell_angle_beta 90.000000
_cell_angle_gamma 90.000000
_cell_volume 5436.802011
_symmetry_space_group_name_H-M "I B C A "
_symmetry_group_IT_number 73
_symmetry_cell_setting 'orthorhombic'
loop_
_space_group_symop_operation_xyz
x,y,z
-x,1/2-y,z
x,-y,1/2-z
1/2-x,y,-z
-x,-y,-z
x,1/2+y,-z
-x,y,1/2+z
1/2+x,-y,z
1/2+x,1/2+y,1/2+z
1/2-x,-y,1/2+z
1/2+x,1/2-y,-z
-x,1/2+y,1/2-z
1/2-x,1/2-y,1/2-z
1/2+x,y,1/2-z
1/2-x,1/2+y,z
x,1/2-y,1/2+z
loop_
_atom_site_type_symbol
_atom_site_label
_atom_site_fract_x
_atom_site_fract_y
_atom_site_fract_z
Si Si1 0.374430 0.059434 0.089771
Si Si2 0.887968 0.915871 0.346547
Si Si3 0.876583 0.289746 0.559678
Si Si4 0.500000 0.750000 0.196732
Si Si5 0.708190 0.302412 0.813686
Si Si6 0.990813 0.425957 0.491211
Si Si7 0.088479 0.338977 0.832634
Si Si8 0.750000 0.887496 0.000000
O O1 0.376555 0.082232 0.216804
O O2 0.314743 0.073990 0.012645
O O3 0.374299 0.984199 0.104182
O O4 0.436822 0.092570 0.036338
O O5 0.851614 0.857189 0.398870
O O6 0.960813 0.906272 0.391894
O O7 0.942105 0.274828 0.623077
O O8 0.828890 0.236419 0.593184
O O9 0.890573 0.294114 0.432024
O O10 0.531302 0.804663 0.269060
O O11 0.750000 0.250000 0.750000
O O12 0.653201 0.338928 0.742455
O O13 0.749562 0.349562 0.885563
O O14 0.000000 0.500000 0.500000
O O15 0.942148 0.399324 0.396572
#
# Coordination Sequence:
#
# PCOD9530441 Si02
#       8
#    16  16  16   8  16  16  16   8
#     4  10  21  39  61  87 121 161 206 256 317 386
#     4   9  19  38  62  86 117 159 203 260 323 372
#     4  10  20  36  58  85 117 155 200 252 309 379
#     4  10  20  32  56  92 124 152 192 250 316 378
#     4  11  24  41  60  87 123 167 213 263 327 400
#     4   9  19  37  62  91 122 158 207 266 322 379
#     4  10  21  36  59  91 120 157 205 256 321 386
#     4  12  26  42  62  90 126 170 212 264 330 404
#
# _framework density 20.600345999999998
#
# number of rings (size 3 to 8) (size 9 to 14) (size 15 to 20)
#    0.000    2.000    0.000    3.000    0.000    9.143 
#    0.000   15.000    0.000    0.000    0.000    0.000 
#    0.000    0.000    0.000    0.000    0.000    0.000 
#
# Total GULP energy -311926.758334 kJ/mol
# GULP energy per Si atom -5570.120685 kJ/mol
# Density = 2.055346 g / cm^3
# Si number density = 20.600346 Si / 1000 Ang^3
#
#
#
# Elastic Constant Matrix: (Units=GPa)
#
#
# Indices 1 2 3 4 5 6 
#
# 1 73.4682 13.6149 19.8247 0.0000 0.0000 0.0000
# 2 13.6149 48.2704 14.9166 0.0000 0.0000 0.0000
# 3 19.8247 14.9166 76.0159 0.0000 0.0000 0.0000
# 4 0.0000 0.0000 0.0000 40.5979 0.0000 0.0000
# 5 0.0000 0.0000 0.0000 0.0000 46.4694 0.0000
# 6 0.0000 0.0000 0.0000 0.0000 0.0000 4.7049
#
#
#
# Elastic Compliance Matrix: (Units=1/GPa)
#
#
# Indices 1 2 3 4 5 6 
#
# 1 0.015103 -0.003239 -0.003303 0.000000 0.000000 0.000000
# 2 -0.003239 0.022749 -0.003619 0.000000 0.000000 0.000000
# 3 -0.003303 -0.003619 0.014727 0.000000 0.000000 0.000000
# 4 0.000000 0.000000 0.000000 0.024632 0.000000 0.000000
# 5 0.000000 0.000000 0.000000 0.000000 0.021520 0.000000
# 6 0.000000 0.000000 0.000000 0.000000 0.000000 0.212543
#
#
# Mechanical properties :
#
#
# Convention : Reuss Voigt Hill
#
# Bulk Modulus (GPa) = 31.00259 32.71854 31.86057
# Shear Modulus (GPa) = 14.60502 28.31435 21.45969
#
# Velocity S-wave (km/s) = 2.66554 3.71139 3.23106
# Velocity P-wave (km/s) = 4.95537 5.85516 5.42396
#
# Compressibility (1/GPa) = 0.03225537
#
# Stress axis : x y z
#
# Youngs Moduli (GPa) = 66.21237 43.95867 67.90343
#
# Poissons Ratio (x) = 0.14239 0.22430
# Poissons Ratio (y) = 0.21447 0.24576
# Poissons Ratio (z) = 0.21871 0.15910
#
# Static dielectric constant tensor:
#      x y z
#    x 1.809840 0.000000 0.000000 
#    y 0.000000 1.714570 0.000000 
#    z 0.000000 0.000000 1.690530 
# 
# From -- ./inp_files/13066.got.cif
#   From: 2010.05.17/outbox.cif.g08.bks.cpg/sg73_7_cif.got.tgz:13066.got - 2010.06.03 17:35:07.
