data_PCOD9530786
_publ_section_title
;
Structure prediction by ZEFSAII (Michael W. Deem and Ramdas Pophale) SiO2 
 PCOD9530786
Probable space group: I B C A 
;
_chemical_formula_sum "Si O2"
_cell_formula_units_Z 104
_cell_length_a 8.864230
_cell_length_b 19.396128
_cell_length_c 32.853135
_cell_angle_alpha 90.000000
_cell_angle_beta 90.000000
_cell_angle_gamma 90.000000
_cell_volume 5648.496655
_symmetry_space_group_name_H-M "I B C A "
_symmetry_group_IT_number 73
_symmetry_cell_setting 'orthorhombic'
loop_
_space_group_symop_operation_xyz
x,y,z
-x,1/2-y,z
x,-y,1/2-z
1/2-x,y,-z
-x,-y,-z
x,1/2+y,-z
-x,y,1/2+z
1/2+x,-y,z
1/2+x,1/2+y,1/2+z
1/2-x,-y,1/2+z
1/2+x,1/2-y,-z
-x,1/2+y,1/2-z
1/2-x,1/2-y,1/2-z
1/2+x,y,1/2-z
1/2-x,1/2+y,z
x,1/2-y,1/2+z
loop_
_atom_site_type_symbol
_atom_site_label
_atom_site_fract_x
_atom_site_fract_y
_atom_site_fract_z
Si Si1 0.440016 0.673534 0.866373
Si Si2 0.425651 0.039512 0.383961
Si Si3 0.388784 0.570083 0.423223
Si Si4 0.750000 0.148290 0.000000
Si Si5 0.015126 0.558788 0.193766
Si Si6 0.000000 0.750000 0.963325
Si Si7 0.758991 0.000000 0.750000
Si Si8 0.907901 0.684142 0.383916
O O1 0.500000 0.750000 0.868073
O O2 0.510414 0.630597 0.903746
O O3 0.493056 0.633235 0.826346
O O4 0.259488 0.674596 0.867802
O O5 0.250844 0.050792 0.393794
O O6 0.501122 0.113790 0.378776
O O7 0.504789 0.997422 0.421114
O O8 0.450435 0.993609 0.343654
O O9 0.313600 0.599546 0.464050
O O10 0.612841 0.198915 0.986588
O O11 0.150646 0.551812 0.225807
O O12 0.865164 0.536978 0.217248
O O13 0.098135 0.703483 0.931966
O O14 0.000000 0.750000 0.366251
#
# Coordination Sequence:
#
# PCOD9530786 Si02
#       8
#    16  16  16   8  16   8   8  16
#     4  11  21  38  62  89 118 160 208 252 296 363
#     4  11  20  42  61  90 119 159 207 258 300 365
#     4  11  24  38  61  88 122 161 216 253 312 364
#     4  12  24  42  56  90 120 174 200 268 312 368
#     4  10  21  36  64  88 120 157 191 244 303 362
#     4  10  24  40  60  82 124 160 204 254 318 360
#     4  10  20  38  58  94 120 148 196 234 302 384
#     4  10  21  39  60  88 116 157 210 257 297 365
#
# _framework density 18.411978000000001
#
# number of rings (size 3 to 8) (size 9 to 14) (size 15 to 20)
#    0.462    0.923    1.538    6.462    3.231    0.615 
#    0.000    0.769    0.000    3.692    0.000    0.000 
#    0.000    0.000    0.000    0.000    0.000    0.000 
#
# Total GULP energy -290144.664382 kJ/mol
# GULP energy per Si atom -5579.705084 kJ/mol
# Density = 1.837007 g / cm^3
# Si number density = 18.411978 Si / 1000 Ang^3
#
#
#
# Elastic Constant Matrix: (Units=GPa)
#
#
# Indices 1 2 3 4 5 6 
#
# 1 71.0515 10.5492 -11.0711 0.0000 0.0000 0.0000
# 2 10.5492 105.1312 -3.8453 0.0000 0.0000 0.0000
# 3 -11.0711 -3.8453 44.9438 0.0000 0.0000 0.0000
# 4 0.0000 0.0000 0.0000 16.6993 0.0000 0.0000
# 5 0.0000 0.0000 0.0000 0.0000 24.9783 0.0000
# 6 0.0000 0.0000 0.0000 0.0000 0.0000 6.4409
#
#
#
# Elastic Compliance Matrix: (Units=1/GPa)
#
#
# Indices 1 2 3 4 5 6 
#
# 1 0.014827 -0.001358 0.003536 0.000000 0.000000 0.000000
# 2 -0.001358 0.009666 0.000492 0.000000 0.000000 0.000000
# 3 0.003536 0.000492 0.023163 0.000000 0.000000 0.000000
# 4 0.000000 0.000000 0.000000 0.059883 0.000000 0.000000
# 5 0.000000 0.000000 0.000000 0.000000 0.040035 0.000000
# 6 0.000000 0.000000 0.000000 0.000000 0.000000 0.155258
#
#
# Mechanical properties :
#
#
# Convention : Reuss Voigt Hill
#
# Bulk Modulus (GPa) = 18.86910 23.59910 21.23410
# Shear Modulus (GPa) = 15.86510 24.65662 20.26086
#
# Velocity S-wave (km/s) = 2.93861 3.66343 3.32085
# Velocity P-wave (km/s) = 4.66738 5.54431 5.12464
#
# Compressibility (1/GPa) = 0.05299669
#
# Stress axis : x y z
#
# Youngs Moduli (GPa) = 67.44457 103.45283 43.17188
#
# Poissons Ratio (x) = 0.14053 -0.15266
# Poissons Ratio (y) = 0.09162 -0.02126
# Poissons Ratio (z) = -0.23849 -0.05094
#
# Static dielectric constant tensor:
#      x y z
#    x 1.498500 0.000000 0.000000 
#    y 0.000000 1.617800 0.000000 
#    z 0.000000 0.000000 1.648280 
# 
# From -- ./inp_files/33619.got.cif
#   From: 2010.05.17/outbox.cif.g08.bks.cpg/sg73_17_cif.got.tgz:33619.got - 2010.06.03 17:35:07.
