data_PCOD9530542
_publ_section_title
;
Structure prediction by ZEFSAII (Michael W. Deem and Ramdas Pophale) SiO2 
 PCOD9530542
Probable space group: I B C A 
;
_chemical_formula_sum "Si O2"
_cell_formula_units_Z 128
_cell_length_a 26.148001
_cell_length_b 11.116936
_cell_length_c 24.404772
_cell_angle_alpha 90.000000
_cell_angle_beta 90.000000
_cell_angle_gamma 90.000000
_cell_volume 7094.117101
_symmetry_space_group_name_H-M "I B C A "
_symmetry_group_IT_number 73
_symmetry_cell_setting 'orthorhombic'
loop_
_space_group_symop_operation_xyz
x,y,z
-x,1/2-y,z
x,-y,1/2-z
1/2-x,y,-z
-x,-y,-z
x,1/2+y,-z
-x,y,1/2+z
1/2+x,-y,z
1/2+x,1/2+y,1/2+z
1/2-x,-y,1/2+z
1/2+x,1/2-y,-z
-x,1/2+y,1/2-z
1/2-x,1/2-y,1/2-z
1/2+x,y,1/2-z
1/2-x,1/2+y,z
x,1/2-y,1/2+z
loop_
_atom_site_type_symbol
_atom_site_label
_atom_site_fract_x
_atom_site_fract_y
_atom_site_fract_z
Si Si1 0.945435 0.309947 0.217886
Si Si2 0.557981 0.988521 0.117698
Si Si3 0.274448 0.755138 0.811187
Si Si4 0.223998 0.491753 0.185551
Si Si5 0.967747 0.624647 0.492569
Si Si6 0.448816 0.395962 0.612541
Si Si7 0.604161 0.063954 0.807182
Si Si8 0.391651 0.818350 0.826452
O O1 0.952062 0.402292 0.168902
O O2 0.907233 0.203592 0.199868
O O3 0.920977 0.363061 0.272508
O O4 0.000000 0.250000 0.230605
O O5 0.560958 0.905709 0.063884
O O6 0.509814 0.081392 0.113888
O O7 0.606450 0.072446 0.130553
O O8 0.250000 0.750000 0.750000
O O9 0.264368 0.624259 0.837436
O O10 0.335478 0.773581 0.810442
O O11 0.251115 0.874381 0.838390
O O12 0.239282 0.500000 0.250000
O O13 0.163465 0.467512 0.185513
O O14 0.936227 0.630708 0.549155
O O15 0.000000 0.750000 0.487959
O O16 0.000000 0.500000 0.500000
O O17 0.425567 0.515043 0.640004
O O18 0.424599 0.291776 0.649466
O O19 0.586859 0.000000 0.750000
#
# Coordination Sequence:
#
# PCOD9530542 Si02
#       8
#    16  16  16  16  16  16  16  16
#     4  12  22  32  50  78 124 157 189 234 291 358
#     4  11  24  36  53  85 121 159 199 245 292 345
#     4  10  20  35  55  79 115 151 188 239 292 361
#     4   9  18  34  54  75 107 147 189 232 287 347
#     4  10  22  40  60  80 115 162 213 257 289 337
#     4  11  20  38  59  79 113 162 205 239 292 351
#     4  11  20  35  55  79 113 154 196 234 289 372
#     4  12  23  36  55  87 121 156 197 236 303 377
#
# _framework density 18.043118
#
# number of rings (size 3 to 8) (size 9 to 14) (size 15 to 20)
#    0.000    1.250    3.750    4.875    1.750    4.000 
#    0.000    0.000    0.000    0.000    0.000    0.875 
#    0.000    0.000    0.000    0.000    0.000    0.000 
#
# Total GULP energy -356770.393200 kJ/mol
# GULP energy per Si atom -5574.537394 kJ/mol
# Density = 1.800205 g / cm^3
# Si number density = 18.043118 Si / 1000 Ang^3
#
#
#
# Elastic Constant Matrix: (Units=GPa)
#
#
# Indices 1 2 3 4 5 6 
#
# 1 47.2541 36.1769 26.2556 0.0000 0.0000 0.0000
# 2 36.1769 116.8685 24.3538 0.0000 0.0000 0.0000
# 3 26.2556 24.3538 97.9825 0.0000 0.0000 0.0000
# 4 0.0000 0.0000 0.0000 22.8970 0.0000 0.0000
# 5 0.0000 0.0000 0.0000 0.0000 5.3867 0.0000
# 6 0.0000 0.0000 0.0000 0.0000 0.0000 27.6267
#
#
#
# Elastic Compliance Matrix: (Units=1/GPa)
#
#
# Indices 1 2 3 4 5 6 
#
# 1 0.030974 -0.008288 -0.006240 0.000000 0.000000 0.000000
# 2 -0.008288 0.011242 -0.000573 0.000000 0.000000 0.000000
# 3 -0.006240 -0.000573 0.012020 0.000000 0.000000 0.000000
# 4 0.000000 0.000000 0.000000 0.043674 0.000000 0.000000
# 5 0.000000 0.000000 0.000000 0.000000 0.185641 0.000000
# 6 0.000000 0.000000 0.000000 0.000000 0.000000 0.036197
#
#
# Mechanical properties :
#
#
# Convention : Reuss Voigt Hill
#
# Bulk Modulus (GPa) = 41.60749 48.40865 45.00807
# Shear Modulus (GPa) = 13.96796 22.87001 18.41899
#
# Velocity S-wave (km/s) = 2.78536 3.56409 3.19851
# Velocity P-wave (km/s) = 5.78398 6.62002 6.21607
#
# Compressibility (1/GPa) = 0.02403413
#
# Stress axis : x y z
#
# Youngs Moduli (GPa) = 32.28489 88.95531 83.19137
#
# Poissons Ratio (x) = 0.73724 0.51911
# Poissons Ratio (y) = 0.26757 0.04769
# Poissons Ratio (z) = 0.20146 0.05100
#
# Static dielectric constant tensor:
#      x y z
#    x 1.630690 0.000000 0.000000 
#    y 0.000000 1.691020 0.000000 
#    z 0.000000 0.000000 1.617330 
# 
# From -- ./inp_files/30395.got.cif
#   From: 2010.05.17/outbox.cif.g08.bks.cpg/sg73_16_cif.got.tgz:30395.got - 2010.06.03 17:35:07.
