data_PCOD9530328
_publ_section_title
;
Structure prediction by ZEFSAII (Michael W. Deem and Ramdas Pophale) SiO2 
 PCOD9530328
Probable space group: I B C A 
;
_chemical_formula_sum "Si O2"
_cell_formula_units_Z 80
_cell_length_a 26.816926
_cell_length_b 13.560747
_cell_length_c 10.245879
_cell_angle_alpha 90.000000
_cell_angle_beta 90.000000
_cell_angle_gamma 90.000000
_cell_volume 3725.991242
_symmetry_space_group_name_H-M "I B C A "
_symmetry_group_IT_number 73
_symmetry_cell_setting 'orthorhombic'
loop_
_space_group_symop_operation_xyz
x,y,z
-x,1/2-y,z
x,-y,1/2-z
1/2-x,y,-z
-x,-y,-z
x,1/2+y,-z
-x,y,1/2+z
1/2+x,-y,z
1/2+x,1/2+y,1/2+z
1/2-x,-y,1/2+z
1/2+x,1/2-y,-z
-x,1/2+y,1/2-z
1/2-x,1/2-y,1/2-z
1/2+x,y,1/2-z
1/2-x,1/2+y,z
x,1/2-y,1/2+z
loop_
_atom_site_type_symbol
_atom_site_label
_atom_site_fract_x
_atom_site_fract_y
_atom_site_fract_z
Si Si1 0.558121 0.223734 0.775682
Si Si2 0.897448 0.340281 0.004619
Si Si3 0.775726 0.099441 0.176997
Si Si4 0.119988 0.452127 0.107030
Si Si5 0.294111 0.231748 0.085494
O O1 0.500000 0.250000 0.779702
O O2 0.573205 0.200144 0.625353
O O3 0.579161 0.133591 0.867896
O O4 0.582840 0.314964 0.852065
O O5 0.894462 0.458145 0.986584
O O6 0.844511 0.284772 0.991834
O O7 0.822302 0.077195 0.081665
O O8 0.729545 0.163446 0.125840
O O9 0.800966 0.171291 0.282815
O O10 0.759916 0.000000 0.250000
O O11 0.123849 0.500000 0.250000
O O12 0.250000 0.183909 0.000000
#
# Coordination Sequence:
#
# PCOD9530328 Si02
#       5
#    16  16  16  16  16
#     4  11  23  42  68  96 122 165 221 272 320 385
#     4  11  23  44  67  92 133 172 209 266 329 382
#     4  10  19  39  57  89 124 169 209 241 316 383
#     4   9  18  41  66  85 130 176 200 252 339 381
#     4  11  22  34  62  90 124 167 212 255 303 379
#
# _framework density 21.470797000000001
#
# number of rings (size 3 to 8) (size 9 to 14) (size 15 to 20)
#    0.000    1.600    6.000    1.800    2.800    1.600 
#    3.600    3.000    0.000    0.000    0.000    0.000 
#    0.000    0.000    0.000    0.000    0.000    0.000 
#
# Total GULP energy -222848.991329 kJ/mol
# GULP energy per Si atom -5571.224783 kJ/mol
# Density = 2.142193 g / cm^3
# Si number density = 21.470797 Si / 1000 Ang^3
#
#
#
# Elastic Constant Matrix: (Units=GPa)
#
#
# Indices 1 2 3 4 5 6 
#
# 1 122.2267 21.2914 -2.8199 0.0000 0.0000 0.0000
# 2 21.2914 99.3489 2.4573 0.0000 0.0000 0.0000
# 3 -2.8199 2.4573 37.9255 0.0000 0.0000 0.0000
# 4 0.0000 0.0000 0.0000 29.9140 0.0000 0.0000
# 5 0.0000 0.0000 0.0000 0.0000 20.3443 0.0000
# 6 0.0000 0.0000 0.0000 0.0000 0.0000 10.5729
#
#
#
# Elastic Compliance Matrix: (Units=1/GPa)
#
#
# Indices 1 2 3 4 5 6 
#
# 1 0.008520 -0.001845 0.000753 0.000000 0.000000 0.000000
# 2 -0.001845 0.010481 -0.000816 0.000000 0.000000 0.000000
# 3 0.000753 -0.000816 0.026476 0.000000 0.000000 0.000000
# 4 0.000000 0.000000 0.000000 0.033429 0.000000 0.000000
# 5 0.000000 0.000000 0.000000 0.000000 0.049154 0.000000
# 6 0.000000 0.000000 0.000000 0.000000 0.000000 0.094581
#
#
# Mechanical properties :
#
#
# Convention : Reuss Voigt Hill
#
# Bulk Modulus (GPa) = 24.00270 33.48431 28.74350
# Shear Modulus (GPa) = 20.80345 28.07107 24.43726
#
# Velocity S-wave (km/s) = 3.11612 3.61973 3.37733
# Velocity P-wave (km/s) = 4.91431 5.75318 5.35021
#
# Compressibility (1/GPa) = 0.04166199
#
# Stress axis : x y z
#
# Youngs Moduli (GPa) = 117.36801 95.41039 37.76954
#
# Poissons Ratio (x) = 0.17599 -0.02844
# Poissons Ratio (y) = 0.21650 0.03083
# Poissons Ratio (z) = -0.08838 0.07788
#
# Static dielectric constant tensor:
#      x y z
#    x 1.779020 0.000000 0.000000 
#    y 0.000000 1.855610 0.000000 
#    z 0.000000 0.000000 1.898350 
# 
# From -- ./inp_files/13413.got.cif
#   From: 2010.05.17/outbox.cif.g08.bks.cpg/sg73_7_cif.got.tgz:13413.got - 2010.06.03 17:35:07.
