data_PCOD9530852
_publ_section_title
;
Structure prediction by ZEFSAII (Michael W. Deem and Ramdas Pophale) SiO2 
 PCOD9530852
Probable space group: I B C A 
;
_chemical_formula_sum "Si O2"
_cell_formula_units_Z 112
_cell_length_a 31.138052
_cell_length_b 10.549744
_cell_length_c 15.624134
_cell_angle_alpha 90.000000
_cell_angle_beta 90.000000
_cell_angle_gamma 90.000000
_cell_volume 5132.504227
_symmetry_space_group_name_H-M "I B C A "
_symmetry_group_IT_number 73
_symmetry_cell_setting 'orthorhombic'
loop_
_space_group_symop_operation_xyz
x,y,z
-x,1/2-y,z
x,-y,1/2-z
1/2-x,y,-z
-x,-y,-z
x,1/2+y,-z
-x,y,1/2+z
1/2+x,-y,z
1/2+x,1/2+y,1/2+z
1/2-x,-y,1/2+z
1/2+x,1/2-y,-z
-x,1/2+y,1/2-z
1/2-x,1/2-y,1/2-z
1/2+x,y,1/2-z
1/2-x,1/2+y,z
x,1/2-y,1/2+z
loop_
_atom_site_type_symbol
_atom_site_label
_atom_site_fract_x
_atom_site_fract_y
_atom_site_fract_z
Si Si1 0.197218 0.703637 0.899916
Si Si2 0.954268 0.787432 0.912934
Si Si3 0.623197 0.924321 0.871222
Si Si4 0.881103 0.698474 0.796612
Si Si5 0.202463 0.277803 0.401655
Si Si6 0.150766 0.044789 0.347275
Si Si7 0.926245 0.538802 0.024011
O O1 0.166685 0.773557 0.831873
O O2 0.247763 0.704818 0.881853
O O3 0.177945 0.563283 0.895602
O O4 0.194071 0.753417 0.997650
O O5 0.914840 0.785531 0.846213
O O6 0.959870 0.933708 0.942849
O O7 0.000000 0.750000 0.873837
O O8 0.942529 0.670825 0.980273
O O9 0.610695 0.814151 0.804334
O O10 0.673872 0.901900 0.883759
O O11 0.611878 0.057017 0.829383
O O12 0.599581 0.942063 0.960329
O O13 0.182351 0.164305 0.347866
O O14 0.141920 0.000000 0.250000
O O15 0.108159 0.070810 0.402246
#
# Coordination Sequence:
#
# PCOD9530852 Si02
#       7
#    16  16  16  16  16  16  16
#     4  11  24  40  60  92 131 173 219 269 324 387
#     4  11  23  42  70  99 131 166 217 274 334 408
#     4  10  20  38  65  87 122 172 210 259 316 400
#     4  10  21  38  62  90 125 164 211 263 328 386
#     4  11  24  38  63  89 131 173 222 263 322 389
#     4  12  25  41  65  95 131 173 223 278 327 390
#     4  11  22  44  70  95 131 176 221 266 343 406
#
# _framework density 21.821707
#
# number of rings (size 3 to 8) (size 9 to 14) (size 15 to 20)
#    0.000    1.143    2.857    3.857    2.000    3.429 
#    0.000    0.714    6.286    0.000    0.000    0.000 
#    0.000    0.000    0.000    0.000    0.000    0.000 
#
# Total GULP energy -312181.415240 kJ/mol
# GULP energy per Si atom -5574.668129 kJ/mol
# Density = 2.177204 g / cm^3
# Si number density = 21.821707 Si / 1000 Ang^3
#
#
#
# Elastic Constant Matrix: (Units=GPa)
#
#
# Indices 1 2 3 4 5 6 
#
# 1 44.7963 -13.1867 6.0122 0.0000 0.0000 0.0000
# 2 -13.1867 67.4076 2.2225 0.0000 0.0000 0.0000
# 3 6.0122 2.2225 80.1851 0.0000 0.0000 0.0000
# 4 0.0000 0.0000 0.0000 22.3836 0.0000 0.0000
# 5 0.0000 0.0000 0.0000 0.0000 -0.2429 0.0000
# 6 0.0000 0.0000 0.0000 0.0000 0.0000 18.5935
#
#
#
# Elastic Compliance Matrix: (Units=1/GPa)
#
#
# Indices 1 2 3 4 5 6 
#
# 1 0.023982 0.004755 -0.001930 0.000000 0.000000 0.000000
# 2 0.004755 0.015792 -0.000794 0.000000 0.000000 0.000000
# 3 -0.001930 -0.000794 0.012638 0.000000 0.000000 0.000000
# 4 0.000000 0.000000 0.000000 0.044676 0.000000 0.000000
# 5 0.000000 0.000000 0.000000 0.000000 -4.117117 0.000000
# 6 0.000000 0.000000 0.000000 0.000000 0.000000 0.053782
#
#
# Mechanical properties :
#
#
# Convention : Reuss Voigt Hill
#
# Bulk Modulus (GPa) = 17.70744 20.27610 18.99177
# Shear Modulus (GPa) = -1.26535 21.30291 10.01878
#
# Velocity S-wave (km/s) = -0.76231 3.12785 2.14503
# Velocity P-wave (km/s) = 2.71245 4.72826 3.85447
#
# Compressibility (1/GPa) = 0.05647344
#
# Stress axis : x y z
#
# Youngs Moduli (GPa) = 41.69785 63.32506 79.12730
#
# Poissons Ratio (x) = -0.30112 0.15271
# Poissons Ratio (y) = -0.19828 0.06284
# Poissons Ratio (z) = 0.08047 0.05029
#
# Static dielectric constant tensor:
#      x y z
#    x 1.759370 0.000000 0.000000 
#    y 0.000000 1.837780 0.000000 
#    z 0.000000 0.000000 1.920130 
# 
# From -- ./inp_files/14830.got.cif
#   From: 2010.05.17/outbox.cif.g08.bks.cpg/sg73_8_cif.got.tgz:14830.got - 2010.06.03 17:35:07.
