data_PCOD9530154
_publ_section_title
;
Structure prediction by ZEFSAII (Michael W. Deem and Ramdas Pophale) SiO2 
 PCOD9530154
Probable space group: I B C A 
;
_chemical_formula_sum "Si O2"
_cell_formula_units_Z 120
_cell_length_a 29.868124
_cell_length_b 9.178396
_cell_length_c 22.885683
_cell_angle_alpha 90.000000
_cell_angle_beta 90.000000
_cell_angle_gamma 90.000000
_cell_volume 6273.914776
_symmetry_space_group_name_H-M "I B C A "
_symmetry_group_IT_number 73
_symmetry_cell_setting 'orthorhombic'
loop_
_space_group_symop_operation_xyz
x,y,z
-x,1/2-y,z
x,-y,1/2-z
1/2-x,y,-z
-x,-y,-z
x,1/2+y,-z
-x,y,1/2+z
1/2+x,-y,z
1/2+x,1/2+y,1/2+z
1/2-x,-y,1/2+z
1/2+x,1/2-y,-z
-x,1/2+y,1/2-z
1/2-x,1/2-y,1/2-z
1/2+x,y,1/2-z
1/2-x,1/2+y,z
x,1/2-y,1/2+z
loop_
_atom_site_type_symbol
_atom_site_label
_atom_site_fract_x
_atom_site_fract_y
_atom_site_fract_z
Si Si1 0.969207 0.889546 0.804991
Si Si2 0.106079 0.209317 0.634333
Si Si3 0.166148 0.885616 0.445401
Si Si4 0.029335 0.479386 0.084285
Si Si5 0.696056 0.585224 0.190703
Si Si6 0.000000 0.750000 0.014304
Si Si7 0.794270 0.831873 0.535414
Si Si8 0.251394 0.824427 0.639409
O O1 0.921977 0.817695 0.823886
O O2 0.000000 0.750000 0.788993
O O3 0.991614 0.957858 0.864439
O O4 0.966916 0.000000 0.750000
O O5 0.122883 0.306729 0.579753
O O6 0.074574 0.076814 0.614433
O O7 0.149867 0.141261 0.663749
O O8 0.186690 0.803366 0.500243
O O9 0.204959 0.873569 0.396529
O O10 0.165599 0.053735 0.460984
O O11 0.027966 0.641086 0.056731
O O12 0.022470 0.364640 0.030865
O O13 0.687551 0.500000 0.250000
O O14 0.728681 0.725607 0.191264
O O15 0.721632 0.463350 0.153098
O O16 0.750000 0.888245 0.500000
O O17 0.777118 0.780150 0.597667
#
# Coordination Sequence:
#
# PCOD9530154 Si02
#       8
#    16  16  16  16  16   8  16  16
#     4  10  22  45  72  95 128 169 217 266 318 384
#     4  10  23  42  59  95 138 154 209 270 313 370
#     4  10  21  34  57  87 121 160 198 260 310 366
#     4  10  21  43  67  99 130 172 210 258 323 394
#     4  11  23  41  62  85 119 167 210 270 315 361
#     4  10  20  40  72  96 132 174 208 244 322 416
#     4  10  19  34  58  84 116 159 213 251 305 367
#     4  10  20  39  60  82 114 158 216 254 307 378
#
# _framework density 19.126815000000001
#
# number of rings (size 3 to 8) (size 9 to 14) (size 15 to 20)
#    0.000    1.867    3.333    1.600    4.667    3.200 
#    2.400    1.333    0.000    0.000    0.000    0.000 
#    0.000    0.000    0.000    0.000    0.000    0.000 
#
# Total GULP energy -334352.526065 kJ/mol
# GULP energy per Si atom -5572.542101 kJ/mol
# Density = 1.908328 g / cm^3
# Si number density = 19.126815 Si / 1000 Ang^3
#
#
#
# Elastic Constant Matrix: (Units=GPa)
#
#
# Indices 1 2 3 4 5 6 
#
# 1 89.1110 35.0078 31.7262 0.0000 0.0000 0.0000
# 2 35.0078 92.1121 26.8666 0.0000 0.0000 0.0000
# 3 31.7262 26.8666 46.5485 0.0000 0.0000 0.0000
# 4 0.0000 0.0000 0.0000 -98.5715 0.0000 0.0000
# 5 0.0000 0.0000 0.0000 0.0000 12.3112 0.0000
# 6 0.0000 0.0000 0.0000 0.0000 0.0000 23.6162
#
#
#
# Elastic Compliance Matrix: (Units=1/GPa)
#
#
# Indices 1 2 3 4 5 6 
#
# 1 0.015662 -0.003414 -0.008705 0.000000 0.000000 0.000000
# 2 -0.003414 0.013798 -0.005637 0.000000 0.000000 0.000000
# 3 -0.008705 -0.005637 0.030669 0.000000 0.000000 0.000000
# 4 0.000000 0.000000 0.000000 -0.010145 0.000000 0.000000
# 5 0.000000 0.000000 0.000000 0.000000 0.081227 0.000000
# 6 0.000000 0.000000 0.000000 0.000000 0.000000 0.042344
#
#
# Mechanical properties :
#
#
# Convention : Reuss Voigt Hill
#
# Bulk Modulus (GPa) = 40.61960 46.10808 43.36384
# Shear Modulus (GPa) = 23.01261 -3.58408 9.71427
#
# Velocity S-wave (km/s) = 3.47242 -1.37037 2.25608
# Velocity P-wave (km/s) = 6.11229 4.65349 5.43208
#
# Compressibility (1/GPa) = 0.02461866
#
# Stress axis : x y z
#
# Youngs Moduli (GPa) = 63.84840 72.47479 32.60575
#
# Poissons Ratio (x) = 0.24740 0.28382
# Poissons Ratio (y) = 0.21795 0.18380
# Poissons Ratio (z) = 0.55578 0.40855
#
# Static dielectric constant tensor:
#      x y z
#    x 1.660790 0.000000 0.000000 
#    y 0.000000 1.677220 0.000000 
#    z 0.000000 0.000000 1.767020 
# 
# From -- ./inp_files/30539.got.cif
#   From: 2010.05.17/outbox.cif.g08.bks.cpg/sg73_16_cif.got.tgz:30539.got - 2010.06.03 17:35:07.
