data_PCOD9530086
_publ_section_title
;
Structure prediction by ZEFSAII (Michael W. Deem and Ramdas Pophale) SiO2 
 PCOD9530086
Probable space group: I B C A 
;
_chemical_formula_sum "Si O2"
_cell_formula_units_Z 120
_cell_length_a 9.760547
_cell_length_b 25.968636
_cell_length_c 22.591153
_cell_angle_alpha 90.000000
_cell_angle_beta 90.000000
_cell_angle_gamma 90.000000
_cell_volume 5726.136452
_symmetry_space_group_name_H-M "I B C A "
_symmetry_group_IT_number 73
_symmetry_cell_setting 'orthorhombic'
loop_
_space_group_symop_operation_xyz
x,y,z
-x,1/2-y,z
x,-y,1/2-z
1/2-x,y,-z
-x,-y,-z
x,1/2+y,-z
-x,y,1/2+z
1/2+x,-y,z
1/2+x,1/2+y,1/2+z
1/2-x,-y,1/2+z
1/2+x,1/2-y,-z
-x,1/2+y,1/2-z
1/2-x,1/2-y,1/2-z
1/2+x,y,1/2-z
1/2-x,1/2+y,z
x,1/2-y,1/2+z
loop_
_atom_site_type_symbol
_atom_site_label
_atom_site_fract_x
_atom_site_fract_y
_atom_site_fract_z
Si Si1 0.750000 0.692030 0.500000
Si Si2 0.491098 0.189102 0.171321
Si Si3 0.895109 0.049127 0.641763
Si Si4 0.214745 0.284097 0.627533
Si Si5 0.723569 0.667055 0.135545
Si Si6 0.019813 0.358909 0.567181
Si Si7 0.111955 0.969913 0.688680
Si Si8 0.530884 0.121239 0.768405
O O1 0.734465 0.724442 0.440550
O O2 0.612239 0.658451 0.511602
O O3 0.500000 0.250000 0.162225
O O4 0.331346 0.181178 0.157189
O O5 0.612173 0.162834 0.133792
O O6 0.520141 0.173594 0.238949
O O7 0.738802 0.032961 0.644519
O O8 0.941744 0.083301 0.586034
O O9 0.919872 0.088327 0.696491
O O10 0.990822 0.000975 0.657166
O O11 0.196927 0.227199 0.652544
O O12 0.081755 0.319136 0.617189
O O13 0.640777 0.651784 0.075949
O O14 0.656497 0.631783 0.186960
O O15 0.069616 0.914148 0.712375
O O16 0.149759 0.000000 0.750000
#
# Coordination Sequence:
#
# PCOD9530086 Si02
#       8
#     8  16  16  16  16  16  16  16
#     4   8  20  38  60  78 104 152 200 244 300 364
#     4  10  21  34  50  83 119 154 191 237 281 344
#     4  10  20  33  54  80 109 144 192 237 291 356
#     4   9  19  37  54  79 112 151 199 241 299 348
#     4  10  20  34  53  85 114 151 201 238 279 351
#     4   9  19  37  58  79 106 151 192 246 300 360
#     4  10  19  32  50  79 109 145 187 229 284 351
#     4  10  20  32  53  78 121 159 185 229 284 353
#
# _framework density 20.956538999999999
#
# number of rings (size 3 to 8) (size 9 to 14) (size 15 to 20)
#    0.800    1.600    0.000    3.200    0.000    7.467 
#    7.200    0.000    0.000    0.800    0.000    0.000 
#    0.000    0.000    0.000    0.000    0.000    0.000 
#
# Total GULP energy -334086.598484 kJ/mol
# GULP energy per Si atom -5568.109975 kJ/mol
# Density = 2.090884 g / cm^3
# Si number density = 20.956539 Si / 1000 Ang^3
#
#
#
# Elastic Constant Matrix: (Units=GPa)
#
#
# Indices 1 2 3 4 5 6 
#
# 1 84.9185 4.4437 10.7582 0.0000 0.0000 0.0000
# 2 4.4437 49.4436 8.2596 0.0000 0.0000 0.0000
# 3 10.7582 8.2596 19.5698 0.0000 0.0000 0.0000
# 4 0.0000 0.0000 0.0000 14.7461 0.0000 0.0000
# 5 0.0000 0.0000 0.0000 0.0000 0.6763 0.0000
# 6 0.0000 0.0000 0.0000 0.0000 0.0000 19.2649
#
#
#
# Elastic Compliance Matrix: (Units=1/GPa)
#
#
# Indices 1 2 3 4 5 6 
#
# 1 0.012658 0.000027 -0.006970 0.000000 0.000000 0.000000
# 2 0.000027 0.021759 -0.009198 0.000000 0.000000 0.000000
# 3 -0.006970 -0.009198 0.058813 0.000000 0.000001 0.000000
# 4 0.000000 0.000000 0.000000 0.067814 0.000000 0.000000
# 5 0.000000 0.000000 0.000001 0.000000 1.478705 0.000000
# 6 0.000000 0.000000 0.000000 0.000000 0.000000 0.051908
#
#
# Mechanical properties :
#
#
# Convention : Reuss Voigt Hill
#
# Bulk Modulus (GPa) = 16.40769 22.31723 19.36246
# Shear Modulus (GPa) = 2.86655 15.63548 9.25102
#
# Velocity S-wave (km/s) = 1.17082 2.73443 2.10332
# Velocity P-wave (km/s) = 3.11033 4.54333 3.89333
#
# Compressibility (1/GPa) = 0.06094703
#
# Stress axis : x y z
#
# Youngs Moduli (GPa) = 79.00409 45.95742 17.00312
#
# Poissons Ratio (x) = -0.00123 0.11850
# Poissons Ratio (y) = -0.00211 0.15640
# Poissons Ratio (z) = 0.55063 0.42273
#
# Static dielectric constant tensor:
#      x y z
#    x 1.825160 0.000000 0.000000 
#    y 0.000000 1.787240 0.000000 
#    z 0.000000 0.000000 1.785710 
# 
# From -- ./inp_files/31472.got.cif
#   From: 2010.05.17/outbox.cif.g08.bks.cpg/sg73_16_cif.got.tgz:31472.got - 2010.06.03 17:35:07.
