data_PCOD9530758
_publ_section_title
;
Structure prediction by ZEFSAII (Michael W. Deem and Ramdas Pophale) SiO2 
 PCOD9530758
Probable space group: I B C A 
;
_chemical_formula_sum "Si O2"
_cell_formula_units_Z 96
_cell_length_a 17.429294
_cell_length_b 18.621315
_cell_length_c 14.745356
_cell_angle_alpha 90.000000
_cell_angle_beta 90.000000
_cell_angle_gamma 90.000000
_cell_volume 4785.699274
_symmetry_space_group_name_H-M "I B C A "
_symmetry_group_IT_number 73
_symmetry_cell_setting 'orthorhombic'
loop_
_space_group_symop_operation_xyz
x,y,z
-x,1/2-y,z
x,-y,1/2-z
1/2-x,y,-z
-x,-y,-z
x,1/2+y,-z
-x,y,1/2+z
1/2+x,-y,z
1/2+x,1/2+y,1/2+z
1/2-x,-y,1/2+z
1/2+x,1/2-y,-z
-x,1/2+y,1/2-z
1/2-x,1/2-y,1/2-z
1/2+x,y,1/2-z
1/2-x,1/2+y,z
x,1/2-y,1/2+z
loop_
_atom_site_type_symbol
_atom_site_label
_atom_site_fract_x
_atom_site_fract_y
_atom_site_fract_z
Si Si1 0.536461 0.922128 0.409419
Si Si2 0.459915 0.415060 0.399027
Si Si3 0.414049 0.225390 0.634977
Si Si4 0.666971 0.305196 0.972495
Si Si5 0.417278 0.084100 0.244022
Si Si6 0.172942 0.718254 0.294056
O O1 0.517210 0.916496 0.515040
O O2 0.593286 0.858928 0.382483
O O3 0.456834 0.908132 0.354477
O O4 0.564856 0.001894 0.386284
O O5 0.390856 0.362644 0.426985
O O6 0.512615 0.396844 0.312694
O O7 0.500000 0.250000 0.615153
O O8 0.364039 0.270759 0.565020
O O9 0.394226 0.242276 0.738215
O O10 0.673409 0.241169 0.898416
O O11 0.750000 0.336015 0.000000
O O12 0.346936 0.135694 0.270321
O O13 0.397540 0.000000 0.250000
O O14 0.250000 0.750000 0.250000
#
# Coordination Sequence:
#
# PCOD9530758 Si02
#       6
#    16  16  16  16  16  16
#     4  10  20  37  64  93 119 152 213 265 308 364
#     4  10  21  38  63  94 121 161 214 260 315 374
#     4  12  22  40  67  92 122 162 217 263 311 375
#     4  12  25  41  61  93 135 170 209 264 323 386
#     4  10  21  39  65  97 123 160 212 270 315 372
#     4  12  25  41  62  93 130 170 209 259 326 383
#
# _framework density 20.059764000000001
#
# number of rings (size 3 to 8) (size 9 to 14) (size 15 to 20)
#    0.000    1.000    5.000    2.000    0.000    0.000 
#    0.000    2.500    0.000    0.000    0.000    0.000 
#    0.000    0.000    0.000    0.000    0.000    0.000 
#
# Total GULP energy -267938.936165 kJ/mol
# GULP energy per Si atom -5582.061170 kJ/mol
# Density = 2.001411 g / cm^3
# Si number density = 20.059764 Si / 1000 Ang^3
#
#
#
# Elastic Constant Matrix: (Units=GPa)
#
#
# Indices 1 2 3 4 5 6 
#
# 1 73.8556 33.0429 -1.8877 0.0000 0.0000 0.0000
# 2 33.0429 128.7836 1.3175 0.0000 0.0000 0.0000
# 3 -1.8877 1.3175 74.4832 0.0000 0.0000 0.0000
# 4 0.0000 0.0000 0.0000 26.5857 0.0000 0.0000
# 5 0.0000 0.0000 0.0000 0.0000 32.3172 0.0000
# 6 0.0000 0.0000 0.0000 0.0000 0.0000 17.6736
#
#
#
# Elastic Compliance Matrix: (Units=1/GPa)
#
#
# Indices 1 2 3 4 5 6 
#
# 1 0.015311 -0.003933 0.000458 0.000000 0.000000 0.000000
# 2 -0.003933 0.008777 -0.000255 0.000000 0.000000 0.000000
# 3 0.000458 -0.000255 0.013442 0.000000 0.000000 0.000000
# 4 0.000000 0.000000 0.000000 0.037614 0.000000 0.000000
# 5 0.000000 0.000000 0.000000 0.000000 0.030943 0.000000
# 6 0.000000 0.000000 0.000000 0.000000 0.000000 0.056582
#
#
# Mechanical properties :
#
#
# Convention : Reuss Voigt Hill
#
# Bulk Modulus (GPa) = 33.25686 38.00754 35.63220
# Shear Modulus (GPa) = 27.75416 31.62528 29.68972
#
# Velocity S-wave (km/s) = 3.72368 3.97489 3.85133
# Velocity P-wave (km/s) = 5.92474 6.32887 6.13014
#
# Compressibility (1/GPa) = 0.03006899
#
# Stress axis : x y z
#
# Youngs Moduli (GPa) = 65.31099 113.93747 74.39398
#
# Poissons Ratio (x) = 0.44814 -0.03404
# Poissons Ratio (y) = 0.25688 0.01897
# Poissons Ratio (z) = -0.02989 0.02905
#
# Static dielectric constant tensor:
#      x y z
#    x 1.718310 0.000000 0.000000 
#    y 0.000000 1.766490 0.000000 
#    z 0.000000 0.000000 1.725280 
# 
# From -- ./inp_files/17071.got.cif
#   From: 2010.05.17/outbox.cif.g08.bks.cpg/sg73_9_cif.got.tgz:17071.got - 2010.06.03 17:35:07.
