data_PCOD9530573
_publ_section_title
;
Structure prediction by ZEFSAII (Michael W. Deem and Ramdas Pophale) SiO2 
 PCOD9530573
Probable space group: I B C A 
;
_chemical_formula_sum "Si O2"
_cell_formula_units_Z 96
_cell_length_a 22.836070
_cell_length_b 14.452511
_cell_length_c 15.302015
_cell_angle_alpha 90.000000
_cell_angle_beta 90.000000
_cell_angle_gamma 90.000000
_cell_volume 5050.254887
_symmetry_space_group_name_H-M "I B C A "
_symmetry_group_IT_number 73
_symmetry_cell_setting 'orthorhombic'
loop_
_space_group_symop_operation_xyz
x,y,z
-x,1/2-y,z
x,-y,1/2-z
1/2-x,y,-z
-x,-y,-z
x,1/2+y,-z
-x,y,1/2+z
1/2+x,-y,z
1/2+x,1/2+y,1/2+z
1/2-x,-y,1/2+z
1/2+x,1/2-y,-z
-x,1/2+y,1/2-z
1/2-x,1/2-y,1/2-z
1/2+x,y,1/2-z
1/2-x,1/2+y,z
x,1/2-y,1/2+z
loop_
_atom_site_type_symbol
_atom_site_label
_atom_site_fract_x
_atom_site_fract_y
_atom_site_fract_z
Si Si1 0.925365 0.459034 0.078547
Si Si2 0.831828 0.076769 0.826619
Si Si3 0.640207 0.500000 0.250000
Si Si4 0.113477 0.211629 0.186296
Si Si5 0.537215 0.440598 0.122014
Si Si6 0.718088 0.170108 0.808299
Si Si7 0.500000 0.250000 0.211765
O O1 0.874382 0.533317 0.100923
O O2 0.902476 0.363384 0.115290
O O3 0.982730 0.489511 0.132844
O O4 0.944209 0.445831 0.979146
O O5 0.863408 0.158113 0.772810
O O6 0.770273 0.118321 0.858979
O O7 0.820944 0.000000 0.750000
O O8 0.594536 0.473939 0.173550
O O9 0.682922 0.588330 0.240605
O O10 0.164328 0.276047 0.147983
O O11 0.055231 0.257270 0.222992
O O12 0.510802 0.341230 0.152051
O O13 0.750000 0.250000 0.750000
#
# Coordination Sequence:
#
# PCOD9530573 Si02
#       7
#    16  16   8  16  16  16   8
#     4  10  22  41  61  91 128 166 206 261 325 379
#     4   9  17  35  64  84 117 162 206 251 311 374
#     4  12  22  42  66  92 126 166 220 258 324 386
#     4  10  20  35  62  91 120 159 210 255 317 377
#     4  11  24  39  63  94 130 166 208 263 326 384
#     4  10  21  37  65  93 118 166 218 263 308 384
#     4  12  20  36  60  94 128 164 210 268 314 392
#
# _framework density 19.008941
#
# number of rings (size 3 to 8) (size 9 to 14) (size 15 to 20)
#    0.000    1.667    4.167    1.000    1.167    0.667 
#    3.000    0.833    3.667    0.000    0.000    0.000 
#    0.000    0.000    0.000    0.000    0.000    0.000 
#
# Total GULP energy -267237.287670 kJ/mol
# GULP energy per Si atom -5567.443493 kJ/mol
# Density = 1.896568 g / cm^3
# Si number density = 19.008941 Si / 1000 Ang^3
#
#
#
# Elastic Constant Matrix: (Units=GPa)
#
#
# Indices 1 2 3 4 5 6 
#
# 1 145.6285 44.4920 21.7231 0.0000 0.0000 0.0000
# 2 44.4920 68.9510 -1.5987 0.0000 0.0000 0.0000
# 3 21.7231 -1.5987 30.2402 0.0000 0.0000 0.0000
# 4 0.0000 0.0000 0.0000 12.5405 0.0000 0.0000
# 5 0.0000 0.0000 0.0000 0.0000 8.0050 0.0000
# 6 0.0000 0.0000 0.0000 0.0000 0.0000 47.0384
#
#
#
# Elastic Compliance Matrix: (Units=1/GPa)
#
#
# Indices 1 2 3 4 5 6 
#
# 1 0.010022 -0.006642 -0.007551 0.000000 0.000000 0.000000
# 2 -0.006642 0.018923 0.005772 0.000000 0.000000 0.000000
# 3 -0.007551 0.005772 0.038798 0.000000 0.000000 0.000000
# 4 0.000000 0.000000 0.000000 0.079742 0.000000 0.000000
# 5 0.000000 0.000000 0.000000 0.000000 0.124921 0.000000
# 6 0.000000 0.000000 0.000000 0.000000 0.000000 0.021259
#
#
# Mechanical properties :
#
#
# Convention : Reuss Voigt Hill
#
# Bulk Modulus (GPa) = 19.64606 41.56139 30.60373
# Shear Modulus (GPa) = 15.26834 25.53033 20.39934
#
# Velocity S-wave (km/s) = 2.83719 3.66877 3.27944
# Velocity P-wave (km/s) = 4.59243 6.31332 5.52035
#
# Compressibility (1/GPa) = 0.05090080
#
# Stress axis : x y z
#
# Youngs Moduli (GPa) = 99.77603 52.84596 25.77466
#
# Poissons Ratio (x) = 0.35102 0.19462
# Poissons Ratio (y) = 0.66274 -0.14877
# Poissons Ratio (z) = 0.75339 -0.30502
#
# Static dielectric constant tensor:
#      x y z
#    x 1.697540 0.000000 0.000000 
#    y 0.000000 1.697300 0.000000 
#    z 0.000000 0.000000 1.687050 
# 
# From -- ./inp_files/17213.got.cif
#   From: 2010.05.17/outbox.cif.g08.bks.cpg/sg73_9_cif.got.tgz:17213.got - 2010.06.03 17:35:07.
