data_PCOD9530522
_publ_section_title
;
Structure prediction by ZEFSAII (Michael W. Deem and Ramdas Pophale) SiO2 
 PCOD9530522
Probable space group: I B C A 
;
_chemical_formula_sum "Si O2"
_cell_formula_units_Z 72
_cell_length_a 26.527736
_cell_length_b 13.311876
_cell_length_c 7.772610
_cell_angle_alpha 90.000000
_cell_angle_beta 90.000000
_cell_angle_gamma 90.000000
_cell_volume 2744.772333
_symmetry_space_group_name_H-M "I B C A "
_symmetry_group_IT_number 73
_symmetry_cell_setting 'orthorhombic'
loop_
_space_group_symop_operation_xyz
x,y,z
-x,1/2-y,z
x,-y,1/2-z
1/2-x,y,-z
-x,-y,-z
x,1/2+y,-z
-x,y,1/2+z
1/2+x,-y,z
1/2+x,1/2+y,1/2+z
1/2-x,-y,1/2+z
1/2+x,1/2-y,-z
-x,1/2+y,1/2-z
1/2-x,1/2-y,1/2-z
1/2+x,y,1/2-z
1/2-x,1/2+y,z
x,1/2-y,1/2+z
loop_
_atom_site_type_symbol
_atom_site_label
_atom_site_fract_x
_atom_site_fract_y
_atom_site_fract_z
Si Si1 0.715523 0.329140 0.356032
Si Si2 0.047545 0.631238 0.130015
Si Si3 0.860338 0.000000 0.750000
Si Si4 0.940321 0.402195 0.490258
Si Si5 0.156411 0.845856 0.527500
O O1 0.750000 0.384680 0.500000
O O2 0.750000 0.250000 0.250000
O O3 0.679932 0.257981 0.468449
O O4 0.680680 0.379143 0.210087
O O5 0.062283 0.650833 0.326592
O O6 0.049963 0.515741 0.061473
O O7 0.096477 0.672912 0.034047
O O8 0.987901 0.647222 0.105745
O O9 0.831797 0.068168 0.612441
O O10 0.895255 0.922479 0.641276
#
# Coordination Sequence:
#
# PCOD9530522 Si02
#       5
#    16  16   8  16  16
#     4   9  20  40  65  85 115 165 210 262 336 396
#     4   9  16  28  51  82 118 161 207 247 290 369
#     4  10  20  34  62 100 134 168 212 262 302 372
#     4   9  16  28  48  83 127 163 194 244 311 354
#     4  10  20  36  63  94 120 162 219 264 317 393
#
# _framework density 26.231684999999999
#
# number of rings (size 3 to 8) (size 9 to 14) (size 15 to 20)
#    0.000    2.667    0.000    4.000    0.000    3.556 
#    0.000    0.000    0.000   76.000    0.000    0.000 
#    0.000    0.000    0.000    0.000    0.000    0.000 
#
# Total GULP energy -201063.838536 kJ/mol
# GULP energy per Si atom -5585.106626 kJ/mol
# Density = 2.617198 g / cm^3
# Si number density = 26.231685 Si / 1000 Ang^3
#
#
#
# Elastic Constant Matrix: (Units=GPa)
#
#
# Indices 1 2 3 4 5 6 
#
# 1 90.1519 38.7550 44.6197 0.0000 0.0000 0.0000
# 2 38.7550 70.1046 51.4605 0.0000 0.0000 0.0000
# 3 44.6197 51.4605 190.7713 0.0000 0.0000 0.0000
# 4 0.0000 0.0000 0.0000 35.7483 0.0000 0.0000
# 5 0.0000 0.0000 0.0000 0.0000 29.3416 0.0000
# 6 0.0000 0.0000 0.0000 0.0000 0.0000 22.4580
#
#
#
# Elastic Compliance Matrix: (Units=1/GPa)
#
#
# Indices 1 2 3 4 5 6 
#
# 1 0.014921 -0.007091 -0.001577 0.000000 0.000000 0.000000
# 2 -0.007091 0.021156 -0.004048 0.000000 0.000000 0.000000
# 3 -0.001577 -0.004048 0.006703 0.000000 0.000000 0.000000
# 4 0.000000 0.000000 0.000000 0.027973 0.000000 0.000000
# 5 0.000000 0.000000 0.000000 0.000000 0.034081 0.000000
# 6 0.000000 0.000000 0.000000 0.000000 0.000000 0.044527
#
#
# Mechanical properties :
#
#
# Convention : Reuss Voigt Hill
#
# Bulk Modulus (GPa) = 57.64617 68.96646 63.30632
# Shear Modulus (GPa) = 27.68889 31.92243 29.80566
#
# Velocity S-wave (km/s) = 3.25245 3.49225 3.37448
# Velocity P-wave (km/s) = 6.01066 6.52759 6.27445
#
# Compressibility (1/GPa) = 0.01734721
#
# Stress axis : x y z
#
# Youngs Moduli (GPa) = 67.01817 47.26761 149.19141
#
# Poissons Ratio (x) = 0.33518 0.23530
# Poissons Ratio (y) = 0.47523 0.60398
# Poissons Ratio (z) = 0.10570 0.19135
#
# Static dielectric constant tensor:
#      x y z
#    x 2.135150 0.000000 0.000000 
#    y 0.000000 2.161940 0.000000 
#    z 0.000000 0.000000 1.998850 
# 
# From -- ./inp_files/6184.got.cif
#   From: 2010.05.17/outbox.cif.g08.bks.cpg/sg73_4_cif.got.tgz:6184.got - 2010.06.03 17:35:07.
