data_PCOD9530300
_publ_section_title
;
Structure prediction by ZEFSAII (Michael W. Deem and Ramdas Pophale) SiO2 
 PCOD9530300
Probable space group: I B C A 
;
_chemical_formula_sum "Si O2"
_cell_formula_units_Z 112
_cell_length_a 18.168569
_cell_length_b 14.473127
_cell_length_c 20.354137
_cell_angle_alpha 90.000000
_cell_angle_beta 90.000000
_cell_angle_gamma 90.000000
_cell_volume 5352.242582
_symmetry_space_group_name_H-M "I B C A "
_symmetry_group_IT_number 73
_symmetry_cell_setting 'orthorhombic'
loop_
_space_group_symop_operation_xyz
x,y,z
-x,1/2-y,z
x,-y,1/2-z
1/2-x,y,-z
-x,-y,-z
x,1/2+y,-z
-x,y,1/2+z
1/2+x,-y,z
1/2+x,1/2+y,1/2+z
1/2-x,-y,1/2+z
1/2+x,1/2-y,-z
-x,1/2+y,1/2-z
1/2-x,1/2-y,1/2-z
1/2+x,y,1/2-z
1/2-x,1/2+y,z
x,1/2-y,1/2+z
loop_
_atom_site_type_symbol
_atom_site_label
_atom_site_fract_x
_atom_site_fract_y
_atom_site_fract_z
Si Si1 0.216620 0.607838 0.672226
Si Si2 0.718521 0.466551 0.068502
Si Si3 0.769074 0.243843 0.573675
Si Si4 0.083547 0.025172 0.858263
Si Si5 0.068426 0.000710 0.177176
Si Si6 0.584134 0.215500 0.351962
Si Si7 0.360960 0.863486 0.239097
O O1 0.251768 0.527431 0.627690
O O2 0.224012 0.698407 0.627512
O O3 0.136005 0.569334 0.684454
O O4 0.272798 0.623215 0.732608
O O5 0.745388 0.362380 0.076448
O O6 0.630974 0.472395 0.075891
O O7 0.750000 0.501435 0.000000
O O8 0.750000 0.276288 0.500000
O O9 0.855432 0.248094 0.594048
O O10 0.111312 0.106133 0.809838
O O11 0.103232 0.932332 0.816138
O O12 0.997171 0.031766 0.869435
O O13 0.088064 0.104929 0.156258
O O14 0.033805 0.000000 0.250000
O O15 0.500000 0.250000 0.863764
O O16 0.612989 0.263483 0.284695
#
# Coordination Sequence:
#
# PCOD9530300 Si02
#       7
#    16  16  16  16  16  16  16
#     4  10  22  37  61  90 123 155 208 257 304 371
#     4  10  21  39  62  84 117 166 208 247 301 367
#     4  10  22  42  64  88 119 162 214 261 307 368
#     4  10  19  38  59  86 126 161 199 252 320 354
#     4  12  23  37  58  97 130 160 203 257 313 378
#     4  11  20  38  62  92 122 160 212 255 312 372
#     4   9  19  36  61  84 119 167 193 251 316 366
#
# _framework density 20.925809000000001
#
# number of rings (size 3 to 8) (size 9 to 14) (size 15 to 20)
#    0.000    1.714    4.286    0.429    4.000    1.143 
#    0.000    8.571    0.000    0.000    0.000    0.000 
#    0.000    0.000    0.000    0.000    0.000    0.000 
#
# Total GULP energy -312746.423643 kJ/mol
# GULP energy per Si atom -5584.757565 kJ/mol
# Density = 2.087818 g / cm^3
# Si number density = 20.925809 Si / 1000 Ang^3
#
#
#
# Elastic Constant Matrix: (Units=GPa)
#
#
# Indices 1 2 3 4 5 6 
#
# 1 164.4756 28.1715 32.0068 0.0000 0.0000 0.0000
# 2 28.1715 70.1686 24.8917 0.0000 0.0000 0.0000
# 3 32.0068 24.8917 56.8045 0.0000 0.0000 0.0000
# 4 0.0000 0.0000 0.0000 18.2856 0.0000 0.0000
# 5 0.0000 0.0000 0.0000 0.0000 22.4689 0.0000
# 6 0.0000 0.0000 0.0000 0.0000 0.0000 0.0118
#
#
#
# Elastic Compliance Matrix: (Units=1/GPa)
#
#
# Indices 1 2 3 4 5 6 
#
# 1 0.006990 -0.001669 -0.003207 0.000000 0.000000 0.000000
# 2 -0.001669 0.017273 -0.006629 0.000000 0.000000 0.000000
# 3 -0.003207 -0.006629 0.022316 0.000000 0.000000 0.000000
# 4 0.000000 0.000000 0.000000 0.054688 0.000000 0.000001
# 5 0.000000 0.000000 0.000000 0.000000 0.044506 0.000000
# 6 0.000000 0.000000 0.000000 0.000001 0.000000 84.689008
#
#
# Mechanical properties :
#
#
# Convention : Reuss Voigt Hill
#
# Bulk Modulus (GPa) = 42.42769 51.28765 46.85767
# Shear Modulus (GPa) = 0.05892 21.91185 10.98538
#
# Velocity S-wave (km/s) = 0.16798 3.23944 2.29370
# Velocity P-wave (km/s) = 4.51187 6.20922 5.42731
#
# Compressibility (1/GPa) = 0.02356951
#
# Stress axis : x y z
#
# Youngs Moduli (GPa) = 143.06437 57.89465 44.81066
#
# Poissons Ratio (x) = 0.09660 0.14372
# Poissons Ratio (y) = 0.23871 0.29704
# Poissons Ratio (z) = 0.45885 0.38377
#
# Static dielectric constant tensor:
#      x y z
#    x 1.817760 0.000000 0.000000 
#    y 0.000000 1.777050 0.000000 
#    z 0.000000 0.000000 1.751790 
# 
# From -- ./inp_files/29563.got.cif
#   From: 2010.05.17/outbox.cif.g08.bks.cpg/sg73_15_cif.got.tgz:29563.got - 2010.06.03 17:35:07.
