data_PCOD9530073
_publ_section_title
;
Structure prediction by ZEFSAII (Michael W. Deem and Ramdas Pophale) SiO2 
 PCOD9530073
Probable space group: I B C A 
;
_chemical_formula_sum "Si O2"
_cell_formula_units_Z 96
_cell_length_a 22.767096
_cell_length_b 8.750254
_cell_length_c 25.793740
_cell_angle_alpha 90.000000
_cell_angle_beta 90.000000
_cell_angle_gamma 90.000000
_cell_volume 5138.574015
_symmetry_space_group_name_H-M "I B C A "
_symmetry_group_IT_number 73
_symmetry_cell_setting 'orthorhombic'
loop_
_space_group_symop_operation_xyz
x,y,z
-x,1/2-y,z
x,-y,1/2-z
1/2-x,y,-z
-x,-y,-z
x,1/2+y,-z
-x,y,1/2+z
1/2+x,-y,z
1/2+x,1/2+y,1/2+z
1/2-x,-y,1/2+z
1/2+x,1/2-y,-z
-x,1/2+y,1/2-z
1/2-x,1/2-y,1/2-z
1/2+x,y,1/2-z
1/2-x,1/2+y,z
x,1/2-y,1/2+z
loop_
_atom_site_type_symbol
_atom_site_label
_atom_site_fract_x
_atom_site_fract_y
_atom_site_fract_z
Si Si1 0.118527 0.219261 0.849777
Si Si2 0.221626 0.126233 0.287526
Si Si3 0.059492 0.182745 0.748208
Si Si4 0.154726 0.878364 0.832553
Si Si5 0.806395 0.326548 0.560113
Si Si6 0.676189 0.306939 0.048076
O O1 0.176064 0.300247 0.826320
O O2 0.069998 0.254764 0.805634
O O3 0.125521 0.244339 0.911414
O O4 0.122222 0.035966 0.844813
O O5 0.250000 0.250000 0.250000
O O6 0.280008 0.067106 0.316262
O O7 0.194635 0.000000 0.250000
O O8 0.117807 0.203543 0.712658
O O9 0.000000 0.250000 0.725162
O O10 0.052400 0.000000 0.750000
O O11 0.163770 0.784912 0.885178
O O12 0.812466 0.510298 0.552693
O O13 0.834878 0.241637 0.511063
O O14 0.738109 0.276460 0.561517
#
# Coordination Sequence:
#
# PCOD9530073 Si02
#       6
#    16  16  16  16  16  16
#     4  10  20  34  52  74 106 141 167 211 260 308
#     4  12  19  30  48  76 108 136 168 204 252 315
#     4  10  21  39  55  75 102 133 172 216 266 309
#     4  10  19  34  53  72 106 140 167 210 263 304
#     4  10  19  31  48  73 105 141 170 207 250 302
#     4  10  19  32  48  73 106 140 172 206 251 301
#
# _framework density 18.682226
#
# number of rings (size 3 to 8) (size 9 to 14) (size 15 to 20)
#    0.000    1.667    5.000    2.500    0.000    0.667 
#    3.000    0.000    0.000    1.000    0.000    7.000 
#    0.000    0.000    0.000    0.000    0.000    0.000 
#
# Total GULP energy -267237.212865 kJ/mol
# GULP energy per Si atom -5567.441935 kJ/mol
# Density = 1.863970 g / cm^3
# Si number density = 18.682226 Si / 1000 Ang^3
#
#
#
# Elastic Constant Matrix: (Units=GPa)
#
#
# Indices 1 2 3 4 5 6 
#
# 1 57.7373 4.4933 19.3610 0.0000 0.0000 0.0000
# 2 4.4933 44.4709 18.4076 0.0000 0.0000 0.0000
# 3 19.3610 18.4076 101.6393 0.0000 0.0000 0.0000
# 4 0.0000 0.0000 0.0000 18.0160 0.0000 0.0000
# 5 0.0000 0.0000 0.0000 0.0000 11.4317 0.0000
# 6 0.0000 0.0000 0.0000 0.0000 0.0000 14.4425
#
#
#
# Elastic Compliance Matrix: (Units=1/GPa)
#
#
# Indices 1 2 3 4 5 6 
#
# 1 0.018510 -0.000444 -0.003445 0.000000 0.000000 0.000000
# 2 -0.000444 0.024320 -0.004320 0.000000 0.000000 0.000000
# 3 -0.003445 -0.004320 0.011277 0.000000 0.000000 0.000000
# 4 0.000000 0.000000 0.000000 0.055506 0.000000 0.000000
# 5 0.000000 0.000000 0.000000 0.000000 0.087476 0.000000
# 6 0.000000 0.000000 0.000000 0.000000 0.000000 0.069240
#
#
# Mechanical properties :
#
#
# Convention : Reuss Voigt Hill
#
# Bulk Modulus (GPa) = 26.53365 32.04125 29.28745
# Shear Modulus (GPa) = 16.93135 19.55041 18.24088
#
# Velocity S-wave (km/s) = 3.01372 3.23843 3.12809
# Velocity P-wave (km/s) = 5.13259 5.58311 5.36258
#
# Compressibility (1/GPa) = 0.03768799
#
# Stress axis : x y z
#
# Youngs Moduli (GPa) = 54.02559 41.11914 88.67297
#
# Poissons Ratio (x) = 0.01826 0.30552
# Poissons Ratio (y) = 0.02399 0.38306
# Poissons Ratio (z) = 0.18614 0.17763
#
# Static dielectric constant tensor:
#      x y z
#    x 1.691320 0.000000 0.000000 
#    y 0.000000 1.163220 0.000000 
#    z 0.000000 0.000000 1.747240 
# 
# From -- ./inp_files/7811.got.cif
#   From: 2010.05.17/outbox.cif.g08.bks.cpg/sg73_4_cif.got.tgz:7811.got - 2010.06.03 17:35:07.
