data_PCOD9530688
_publ_section_title
;
Structure prediction by ZEFSAII (Michael W. Deem and Ramdas Pophale) SiO2 
 PCOD9530688
Probable space group: I B C A 
;
_chemical_formula_sum "Si O2"
_cell_formula_units_Z 64
_cell_length_a 8.758281
_cell_length_b 17.432931
_cell_length_c 19.729217
_cell_angle_alpha 90.000000
_cell_angle_beta 90.000000
_cell_angle_gamma 90.000000
_cell_volume 3012.306339
_symmetry_space_group_name_H-M "I B C A "
_symmetry_group_IT_number 73
_symmetry_cell_setting 'orthorhombic'
loop_
_space_group_symop_operation_xyz
x,y,z
-x,1/2-y,z
x,-y,1/2-z
1/2-x,y,-z
-x,-y,-z
x,1/2+y,-z
-x,y,1/2+z
1/2+x,-y,z
1/2+x,1/2+y,1/2+z
1/2-x,-y,1/2+z
1/2+x,1/2-y,-z
-x,1/2+y,1/2-z
1/2-x,1/2-y,1/2-z
1/2+x,y,1/2-z
1/2-x,1/2+y,z
x,1/2-y,1/2+z
loop_
_atom_site_type_symbol
_atom_site_label
_atom_site_fract_x
_atom_site_fract_y
_atom_site_fract_z
Si Si1 0.695639 0.610693 0.567987
Si Si2 0.357467 0.937253 0.801207
Si Si3 0.859648 0.698438 0.296094
Si Si4 0.402297 0.969700 0.108157
O O1 0.750000 0.652692 0.500000
O O2 0.712368 0.658080 0.637771
O O3 0.801406 0.534606 0.572159
O O4 0.520209 0.581526 0.565798
O O5 0.414854 0.868092 0.755419
O O6 0.219939 0.917485 0.851937
O O7 0.288824 0.000000 0.750000
O O8 0.489017 0.981814 0.841278
O O9 0.750000 0.750000 0.250000
O O10 0.000000 0.750000 0.319342
#
# Coordination Sequence:
#
# PCOD9530688 Si02
#       4
#    16  16  16  16
#     4  11  23  40  61  90 131 168 211 259 324 387
#     4  11  20  36  67  92 126 157 212 274 319 360
#     4  12  25  39  61  95 128 165 211 262 320 383
#     4  10  20  36  65  96 118 161 210 271 318 369
#
# _framework density 21.246179000000001
#
# number of rings (size 3 to 8) (size 9 to 14) (size 15 to 20)
#    0.000    1.000    5.000    4.500    0.000    0.000 
#    0.000    3.750    0.000    3.000    0.000    0.000 
#    0.000    0.000    0.000    0.000    0.000    0.000 
#
# Total GULP energy -178755.783925 kJ/mol
# GULP energy per Si atom -5586.118248 kJ/mol
# Density = 2.119782 g / cm^3
# Si number density = 21.246179 Si / 1000 Ang^3
#
#
#
# Elastic Constant Matrix: (Units=GPa)
#
#
# Indices 1 2 3 4 5 6 
#
# 1 90.0152 6.3691 37.3650 0.0000 0.0000 0.0000
# 2 6.3691 62.3916 26.2833 0.0000 0.0000 0.0000
# 3 37.3650 26.2833 113.9840 0.0000 0.0000 0.0000
# 4 0.0000 0.0000 0.0000 13.3527 0.0000 0.0000
# 5 0.0000 0.0000 0.0000 0.0000 31.1310 0.0000
# 6 0.0000 0.0000 0.0000 0.0000 0.0000 29.9249
#
#
#
# Elastic Compliance Matrix: (Units=1/GPa)
#
#
# Indices 1 2 3 4 5 6 
#
# 1 0.012874 0.000513 -0.004339 0.000000 0.000000 0.000000
# 2 0.000513 0.017773 -0.004266 0.000000 0.000000 0.000000
# 3 -0.004339 -0.004266 0.011179 0.000000 0.000000 0.000000
# 4 0.000000 0.000000 0.000000 0.074891 0.000000 0.000000
# 5 0.000000 0.000000 0.000000 0.000000 0.032122 0.000000
# 6 0.000000 0.000000 0.000000 0.000000 0.000000 0.033417
#
#
# Mechanical properties :
#
#
# Convention : Reuss Voigt Hill
#
# Bulk Modulus (GPa) = 38.99764 45.15840 42.07802
# Shear Modulus (GPa) = 24.15611 27.97328 26.06469
#
# Velocity S-wave (km/s) = 3.37555 3.63247 3.50636
# Velocity P-wave (km/s) = 5.79546 6.23651 6.02003
#
# Compressibility (1/GPa) = 0.02564258
#
# Stress axis : x y z
#
# Youngs Moduli (GPa) = 77.67698 56.26605 89.45204
#
# Poissons Ratio (x) = -0.02889 0.38809
# Poissons Ratio (y) = -0.03989 0.38165
# Poissons Ratio (z) = 0.33701 0.24006
#
# Static dielectric constant tensor:
#      x y z
#    x 1.779110 0.000000 0.000000 
#    y 0.000000 1.788370 0.000000 
#    z 0.000000 0.000000 1.840730 
# 
# From -- ./inp_files/5215.got.cif
#   From: 2010.05.17/outbox.cif.g08.bks.cpg/sg73_3_cif.got.tgz:5215.got - 2010.06.03 17:35:07.
