data_PCOD9530293
_publ_section_title
;
Structure prediction by ZEFSAII (Michael W. Deem and Ramdas Pophale) SiO2 
 PCOD9530293
Probable space group: I B C A 
;
_chemical_formula_sum "Si O2"
_cell_formula_units_Z 112
_cell_length_a 14.486294
_cell_length_b 28.402990
_cell_length_c 12.710256
_cell_angle_alpha 90.000000
_cell_angle_beta 90.000000
_cell_angle_gamma 90.000000
_cell_volume 5229.686481
_symmetry_space_group_name_H-M "I B C A "
_symmetry_group_IT_number 73
_symmetry_cell_setting 'orthorhombic'
loop_
_space_group_symop_operation_xyz
x,y,z
-x,1/2-y,z
x,-y,1/2-z
1/2-x,y,-z
-x,-y,-z
x,1/2+y,-z
-x,y,1/2+z
1/2+x,-y,z
1/2+x,1/2+y,1/2+z
1/2-x,-y,1/2+z
1/2+x,1/2-y,-z
-x,1/2+y,1/2-z
1/2-x,1/2-y,1/2-z
1/2+x,y,1/2-z
1/2-x,1/2+y,z
x,1/2-y,1/2+z
loop_
_atom_site_type_symbol
_atom_site_label
_atom_site_fract_x
_atom_site_fract_y
_atom_site_fract_z
Si Si1 0.855909 0.784181 0.810277
Si Si2 0.750000 0.326221 0.000000
Si Si3 0.447359 0.882353 0.723004
Si Si4 0.750000 0.983591 0.500000
Si Si5 0.067987 0.540877 0.963106
Si Si6 0.752052 0.092748 0.821432
Si Si7 0.279756 0.301938 0.879883
Si Si8 0.122370 0.608414 0.138440
O O1 0.921960 0.829581 0.816968
O O2 0.867855 0.728844 0.838516
O O3 0.804681 0.787849 0.698277
O O4 0.785773 0.796193 0.903770
O O5 0.829043 0.356844 0.944262
O O6 0.454168 0.924059 0.634833
O O7 0.361023 0.898753 0.797673
O O8 0.542495 0.874813 0.784096
O O9 0.728556 0.948416 0.597240
O O10 0.668062 0.016330 0.456757
O O11 0.071230 0.572259 0.065731
O O12 0.000000 0.500000 0.000000
O O13 0.710871 0.142142 0.863573
O O14 0.703237 0.086035 0.708989
O O15 0.250000 0.295028 0.000000
#
# Coordination Sequence:
#
# PCOD9530293 Si02
#       8
#    16   8  16   8  16  16  16  16
#     4  10  21  39  70 105 133 182 228 282 347 422
#     4  12  19  43  72 102 130 188 231 281 352 424
#     4  11  24  43  66  97 137 177 231 293 355 419
#     4  12  25  39  66  94 136 184 243 293 346 438
#     4  12  26  43  63  98 133 179 239 292 353 420
#     4  11  23  42  65  98 137 184 231 288 359 417
#     4  10  19  37  69 103 139 181 223 279 356 417
#     4  12  24  43  71  95 138 185 233 293 361 426
#
# _framework density 21.416198999999999
#
# number of rings (size 3 to 8) (size 9 to 14) (size 15 to 20)
#    0.000    0.857    5.714    3.000    0.000    5.143 
#    0.000    0.714    0.000    0.000    0.000    0.000 
#    0.000    0.000    0.000    0.000    0.000    0.000 
#
# Total GULP energy -312149.785966 kJ/mol
# GULP energy per Si atom -5574.103321 kJ/mol
# Density = 2.136745 g / cm^3
# Si number density = 21.416199 Si / 1000 Ang^3
#
#
#
# Elastic Constant Matrix: (Units=GPa)
#
#
# Indices 1 2 3 4 5 6 
#
# 1 79.1601 53.0941 34.4775 -0.0001 0.0000 -0.0051
# 2 53.0941 96.9467 51.5755 0.0000 0.0000 0.0184
# 3 34.4775 51.5755 144.0487 -0.0003 0.0000 0.0272
# 4 -0.0001 0.0000 -0.0003 10.1390 0.0000 0.0378
# 5 0.0000 0.0000 0.0000 0.0000 33.1741 0.0011
# 6 -0.0051 0.0184 0.0272 0.0378 0.0011-1627.1425
#
#
#
# Elastic Compliance Matrix: (Units=1/GPa)
#
#
# Indices 1 2 3 4 5 6 
#
# 1 0.020101 -0.010437 -0.001074 0.000000 0.000000 0.000000
# 2 -0.010437 0.018161 -0.004004 0.000000 0.000000 0.000000
# 3 -0.001074 -0.004004 0.008633 0.000000 0.000000 0.000000
# 4 0.000000 0.000000 0.000000 0.098629 0.000000 0.000002
# 5 0.000000 0.000000 0.000000 0.000000 0.030144 0.000000
# 6 0.000000 0.000000 0.000000 0.000002 0.000000 -0.000615
#
#
# Mechanical properties :
#
#
# Convention : Reuss Voigt Hill
#
# Bulk Modulus (GPa) = 63.03667 66.49442 64.76554
# Shear Modulus (GPa) = 23.65494 -304.69866 -140.52186
#
# Velocity S-wave (km/s) = 3.32706 -11.94084 -8.10908
# Velocity P-wave (km/s) = 6.65260 12.60934 7.57425
#
# Compressibility (1/GPa) = 0.01586378
#
# Stress axis : x y z
#
# Youngs Moduli (GPa) = 49.74946 55.06230 115.83521
#
# Poissons Ratio (x) = 0.57468 0.12443
# Poissons Ratio (y) = 0.51923 0.46386
# Poissons Ratio (z) = 0.05344 0.22049
#
# Static dielectric constant tensor:
#      x y z
#    x 1.746380 0.000000 0.000000 
#    y 0.000000 1.358240 0.000000 
#    z 0.000000 0.000000 1.794060 
# 
# From -- ./inp_files/11297.got.cif
#   From: 2010.05.17/outbox.cif.g08.bks.cpg/sg73_6_cif.got.tgz:11297.got - 2010.06.03 17:35:07.
