data_PCOD9530784
_publ_section_title
;
Structure prediction by ZEFSAII (Michael W. Deem and Ramdas Pophale) SiO2 
 PCOD9530784
Probable space group: I B C A 
;
_chemical_formula_sum "Si O2"
_cell_formula_units_Z 120
_cell_length_a 9.397140
_cell_length_b 25.862670
_cell_length_c 27.174800
_cell_angle_alpha 90.000000
_cell_angle_beta 90.000000
_cell_angle_gamma 90.000000
_cell_volume 6604.431071
_symmetry_space_group_name_H-M "I B C A "
_symmetry_group_IT_number 73
_symmetry_cell_setting 'orthorhombic'
loop_
_space_group_symop_operation_xyz
x,y,z
-x,1/2-y,z
x,-y,1/2-z
1/2-x,y,-z
-x,-y,-z
x,1/2+y,-z
-x,y,1/2+z
1/2+x,-y,z
1/2+x,1/2+y,1/2+z
1/2-x,-y,1/2+z
1/2+x,1/2-y,-z
-x,1/2+y,1/2-z
1/2-x,1/2-y,1/2-z
1/2+x,y,1/2-z
1/2-x,1/2+y,z
x,1/2-y,1/2+z
loop_
_atom_site_type_symbol
_atom_site_label
_atom_site_fract_x
_atom_site_fract_y
_atom_site_fract_z
Si Si1 0.776706 0.282304 0.138324
Si Si2 0.683440 0.652209 0.948196
Si Si3 0.148769 0.899691 0.802072
Si Si4 0.422666 0.021611 0.805406
Si Si5 0.500000 0.750000 0.923820
Si Si6 0.299471 0.884467 0.309269
Si Si7 0.920703 0.418110 0.361517
Si Si8 0.428002 0.184392 0.374444
O O1 0.631086 0.271285 0.109429
O O2 0.752187 0.327220 0.177391
O O3 0.845536 0.228743 0.156949
O O4 0.914692 0.301136 0.106881
O O5 0.570354 0.700193 0.951399
O O6 0.620974 0.605564 0.914511
O O7 0.818893 0.673378 0.917854
O O8 0.750000 0.635851 0.000000
O O9 0.138641 0.884547 0.745677
O O10 0.308302 0.894890 0.822218
O O11 0.060439 0.864004 0.838777
O O12 0.083993 0.956867 0.806696
O O13 0.317403 0.070103 0.811066
O O14 0.399197 0.000000 0.750000
O O15 0.408696 0.978824 0.848103
O O16 0.423231 0.899457 0.347202
#
# Coordination Sequence:
#
# PCOD9530784 Si02
#       8
#    16  16  16  16   8  16  16  16
#     4  10  20  38  58  85 123 158 193 246 306 374
#     4  10  22  41  65  91 119 158 200 258 317 371
#     4  11  21  36  55  87 120 163 206 248 305 355
#     4  12  22  36  58  89 121 164 214 256 300 351
#     4  10  20  38  64  92 112 146 204 254 312 364
#     4  12  21  35  59  87 123 161 209 252 295 366
#     4  11  23  36  57  89 126 156 201 266 301 357
#     4   9  21  39  58  83 124 158 196 246 309 372
#
# _framework density 18.169619000000001
#
# number of rings (size 3 to 8) (size 9 to 14) (size 15 to 20)
#    0.000    1.333    5.333    0.800    0.000    2.667 
#    0.000    1.333    0.000    7.200    0.000    0.000 
#    0.000    0.000    0.000    0.000    0.000    0.000 
#
# Total GULP energy -334139.730528 kJ/mol
# GULP energy per Si atom -5568.995509 kJ/mol
# Density = 1.812826 g / cm^3
# Si number density = 18.169619 Si / 1000 Ang^3
#
#
#
# Elastic Constant Matrix: (Units=GPa)
#
#
# Indices 1 2 3 4 5 6 
#
# 1 97.1480 23.3347 23.0779 0.0000 0.0000 0.0000
# 2 23.3347 83.6546 47.4397 0.0000 0.0000 0.0000
# 3 23.0779 47.4397 84.2580 0.0000 0.0000 0.0000
# 4 0.0000 0.0000 0.0000 15.9822 0.0000 0.0000
# 5 0.0000 0.0000 0.0000 0.0000 14.0262 0.0000
# 6 0.0000 0.0000 0.0000 0.0000 0.0000 31.5279
#
#
#
# Elastic Compliance Matrix: (Units=1/GPa)
#
#
# Indices 1 2 3 4 5 6 
#
# 1 0.011242 -0.002042 -0.001930 0.000000 0.000000 0.000000
# 2 -0.002042 0.017932 -0.009537 0.000000 0.000000 0.000000
# 3 -0.001930 -0.009537 0.017766 0.000000 0.000000 0.000000
# 4 0.000000 0.000000 0.000000 0.062570 0.000000 0.000000
# 5 0.000000 0.000000 0.000000 0.000000 0.071295 0.000000
# 6 0.000000 0.000000 0.000000 0.000000 0.000000 0.031718
#
#
# Mechanical properties :
#
#
# Convention : Reuss Voigt Hill
#
# Bulk Modulus (GPa) = 50.19076 50.30724 50.24900
# Shear Modulus (GPa) = 20.31026 23.72115 22.01570
#
# Velocity S-wave (km/s) = 3.34700 3.61714 3.48469
# Velocity P-wave (km/s) = 6.52840 6.72255 6.62618
#
# Compressibility (1/GPa) = 0.01992399
#
# Stress axis : x y z
#
# Youngs Moduli (GPa) = 88.94908 55.76723 56.28598
#
# Poissons Ratio (x) = 0.11386 0.10862
# Poissons Ratio (y) = 0.18160 0.53679
# Poissons Ratio (z) = 0.17165 0.53185
#
# Static dielectric constant tensor:
#      x y z
#    x 1.671090 0.000000 0.000000 
#    y 0.000000 1.687620 0.000000 
#    z 0.000000 0.000000 1.580160 
# 
# From -- ./inp_files/8052.got.cif
#   From: 2010.05.17/outbox.cif.g08.bks.cpg/sg73_5_cif.got.tgz:8052.got - 2010.06.03 17:35:07.
