data_PCOD9530989
_publ_section_title
;
Structure prediction by ZEFSAII (Michael W. Deem and Ramdas Pophale) SiO2 
 PCOD9530989
Probable space group: I B C A 
;
_chemical_formula_sum "Si O2"
_cell_formula_units_Z 96
_cell_length_a 24.030512
_cell_length_b 22.114055
_cell_length_c 9.960929
_cell_angle_alpha 90.000000
_cell_angle_beta 90.000000
_cell_angle_gamma 90.000000
_cell_volume 5293.357840
_symmetry_space_group_name_H-M "I B C A "
_symmetry_group_IT_number 73
_symmetry_cell_setting 'orthorhombic'
loop_
_space_group_symop_operation_xyz
x,y,z
-x,1/2-y,z
x,-y,1/2-z
1/2-x,y,-z
-x,-y,-z
x,1/2+y,-z
-x,y,1/2+z
1/2+x,-y,z
1/2+x,1/2+y,1/2+z
1/2-x,-y,1/2+z
1/2+x,1/2-y,-z
-x,1/2+y,1/2-z
1/2-x,1/2-y,1/2-z
1/2+x,y,1/2-z
1/2-x,1/2+y,z
x,1/2-y,1/2+z
loop_
_atom_site_type_symbol
_atom_site_label
_atom_site_fract_x
_atom_site_fract_y
_atom_site_fract_z
Si Si1 0.564511 0.959450 0.881223
Si Si2 0.342709 0.118573 0.250504
Si Si3 0.239131 0.455012 0.855378
Si Si4 0.351428 0.143028 0.562740
Si Si5 0.937065 0.544220 0.121496
Si Si6 0.790564 0.263785 0.872740
O O1 0.607156 0.908627 0.835801
O O2 0.501323 0.939895 0.913649
O O3 0.559142 0.000000 0.750000
O O4 0.585790 0.002777 0.999858
O O5 0.295073 0.068817 0.283227
O O6 0.359084 0.140468 0.401073
O O7 0.318077 0.172955 0.164207
O O8 0.210721 0.500000 0.750000
O O9 0.201990 0.397259 0.894299
O O10 0.250000 0.485530 0.000000
O O11 0.402097 0.105899 0.629351
O O12 0.336116 0.210738 0.606791
O O13 0.935168 0.500000 0.250000
O O14 0.750000 0.250000 0.750000
O O15 0.750000 0.265955 0.000000
#
# Coordination Sequence:
#
# PCOD9530989 Si02
#       6
#    16  16  16  16  16  16
#     4  10  20  40  66  92 122 166 199 246 321 373
#     4  11  22  39  63  85 122 167 207 247 310 371
#     4  10  21  34  55  88 122 155 199 253 308 368
#     4  11  21  40  61  85 124 163 204 257 307 358
#     4  10  22  38  65  96 125 156 206 257 308 373
#     4  12  23  42  61  87 124 170 210 248 303 367
#
# _framework density 18.135935
#
# number of rings (size 3 to 8) (size 9 to 14) (size 15 to 20)
#    0.000    1.333    5.000    1.500    2.333    2.000 
#    0.000    0.833    0.000    2.000    0.000    0.000 
#    0.000    0.000    0.000    0.000    0.000    0.000 
#
# Total GULP energy -267798.093797 kJ/mol
# GULP energy per Si atom -5579.126954 kJ/mol
# Density = 1.809466 g / cm^3
# Si number density = 18.135935 Si / 1000 Ang^3
#
#
#
# Elastic Constant Matrix: (Units=GPa)
#
#
# Indices 1 2 3 4 5 6 
#
# 1 86.4744 53.0513 19.2209 0.0000 0.0000 0.0000
# 2 53.0513 104.6564 48.8713 0.0000 0.0000 0.0000
# 3 19.2209 48.8713 107.6708 0.0000 0.0000 0.0000
# 4 0.0000 0.0000 0.0000 29.1620 0.0000 0.0000
# 5 0.0000 0.0000 0.0000 0.0000 29.2305 0.0000
# 6 0.0000 0.0000 0.0000 0.0000 0.0000 45.4972
#
#
#
# Elastic Compliance Matrix: (Units=1/GPa)
#
#
# Indices 1 2 3 4 5 6 
#
# 1 0.016886 -0.009076 0.001105 0.000000 0.000000 0.000000
# 2 -0.009076 0.017003 -0.006097 0.000000 0.000000 0.000000
# 3 0.001105 -0.006097 0.011858 0.000000 0.000000 0.000000
# 4 0.000000 0.000000 0.000000 0.034291 0.000000 0.000000
# 5 0.000000 0.000000 0.000000 0.000000 0.034211 0.000000
# 6 0.000000 0.000000 0.000000 0.000000 0.000000 0.021979
#
#
# Mechanical properties :
#
#
# Convention : Reuss Voigt Hill
#
# Bulk Modulus (GPa) = 56.78332 60.12094 58.45213
# Shear Modulus (GPa) = 29.37104 32.62184 30.99644
#
# Velocity S-wave (km/s) = 4.02866 4.24576 4.13863
# Velocity P-wave (km/s) = 7.28134 7.56686 7.42547
#
# Compressibility (1/GPa) = 0.01761081
#
# Stress axis : x y z
#
# Youngs Moduli (GPa) = 59.21892 58.81296 84.33197
#
# Poissons Ratio (x) = 0.53378 -0.09319
# Poissons Ratio (y) = 0.53747 0.51421
# Poissons Ratio (z) = -0.06544 0.35861
#
# Static dielectric constant tensor:
#      x y z
#    x 1.681810 0.000000 0.000000 
#    y 0.000000 1.622190 0.000000 
#    z 0.000000 0.000000 1.545520 
# 
# From -- ./inp_files/7172.got.cif
#   From: 2010.05.17/outbox.cif.g08.bks.cpg/sg73_4_cif.got.tgz:7172.got - 2010.06.03 17:35:07.
