data_PCOD9530942
_publ_section_title
;
Structure prediction by ZEFSAII (Michael W. Deem and Ramdas Pophale) SiO2 
 PCOD9530942
Probable space group: I B C A 
;
_chemical_formula_sum "Si O2"
_cell_formula_units_Z 72
_cell_length_a 20.144284
_cell_length_b 13.635832
_cell_length_c 12.840998
_cell_angle_alpha 90.000000
_cell_angle_beta 90.000000
_cell_angle_gamma 90.000000
_cell_volume 3527.217624
_symmetry_space_group_name_H-M "I B C A "
_symmetry_group_IT_number 73
_symmetry_cell_setting 'orthorhombic'
loop_
_space_group_symop_operation_xyz
x,y,z
-x,1/2-y,z
x,-y,1/2-z
1/2-x,y,-z
-x,-y,-z
x,1/2+y,-z
-x,y,1/2+z
1/2+x,-y,z
1/2+x,1/2+y,1/2+z
1/2-x,-y,1/2+z
1/2+x,1/2-y,-z
-x,1/2+y,1/2-z
1/2-x,1/2-y,1/2-z
1/2+x,y,1/2-z
1/2-x,1/2+y,z
x,1/2-y,1/2+z
loop_
_atom_site_type_symbol
_atom_site_label
_atom_site_fract_x
_atom_site_fract_y
_atom_site_fract_z
Si Si1 0.059248 0.183215 0.978202
Si Si2 0.500000 0.250000 0.717323
Si Si3 0.756188 0.891297 0.751654
Si Si4 0.801092 0.748864 0.087913
Si Si5 0.906151 0.905812 0.821355
O O1 0.126292 0.245922 0.961173
O O2 0.000000 0.250000 0.023759
O O3 0.032950 0.169181 0.860733
O O4 0.073924 0.094577 0.056668
O O5 0.443024 0.190443 0.776411
O O6 0.706491 0.820529 0.812808
O O7 0.775979 0.853113 0.636988
O O8 0.826957 0.893156 0.811282
O O9 0.728701 0.000000 0.750000
O O10 0.750000 0.780983 0.000000
O O11 0.922876 0.000000 0.750000
#
# Coordination Sequence:
#
# PCOD9530942 Si02
#       5
#    16   8  16  16  16
#     4  10  21  38  63  87 120 162 206 248 311 377
#     4  10  20  40  60  82 128 160 202 252 310 374
#     4  10  22  39  60  91 124 159 205 258 310 371
#     4  11  21  38  65  87 121 165 202 254 314 370
#     4  11  21  38  63  88 123 162 203 260 312 366
#
# _framework density 20.412690000000001
#
# number of rings (size 3 to 8) (size 9 to 14) (size 15 to 20)
#    0.667    0.889    5.556    0.000    0.000    1.778 
#    0.000    1.111    0.000    0.000    0.000    0.000 
#    0.000    0.000    0.000    0.000    0.000    0.000 
#
# Total GULP energy -200405.243949 kJ/mol
# GULP energy per Si atom -5566.812332 kJ/mol
# Density = 2.036623 g / cm^3
# Si number density = 20.412690 Si / 1000 Ang^3
#
#
#
# Elastic Constant Matrix: (Units=GPa)
#
#
# Indices 1 2 3 4 5 6 
#
# 1 69.2120 -3.2383 19.8013 0.0000 0.0000 0.0000
# 2 -3.2383 71.5928 20.2662 0.0000 0.0000 0.0000
# 3 19.8013 20.2662 71.6330 0.0000 0.0000 0.0000
# 4 0.0000 0.0000 0.0000 23.6417 0.0000 0.0000
# 5 0.0000 0.0000 0.0000 0.0000-1478.6620 0.0000
# 6 0.0000 0.0000 0.0000 0.0000 0.0000 16.4913
#
#
#
# Elastic Compliance Matrix: (Units=1/GPa)
#
#
# Indices 1 2 3 4 5 6 
#
# 1 0.015987 0.002146 -0.005026 0.000000 0.000000 0.000000
# 2 0.002146 0.015472 -0.004970 0.000000 0.000000 0.000000
# 3 -0.005026 -0.004970 0.016756 0.000000 0.000000 0.000000
# 4 0.000000 0.000000 0.000000 0.042298 0.000000 0.000000
# 5 0.000000 0.000000 0.000000 0.000000 -0.000676 0.000000
# 6 0.000000 0.000000 0.000000 0.000000 0.000000 0.060638
#
#
# Mechanical properties :
#
#
# Convention : Reuss Voigt Hill
#
# Bulk Modulus (GPa) = 30.75716 31.78846 31.27281
# Shear Modulus (GPa) = 28.24643 -275.99856 -123.87606
#
# Velocity S-wave (km/s) = 3.72394 -11.64057 -7.79856
# Velocity P-wave (km/s) = 5.79575 12.84771 8.10781
#
# Compressibility (1/GPa) = 0.03251275
#
# Stress axis : x y z
#
# Youngs Moduli (GPa) = 62.55174 64.63304 59.68127
#
# Poissons Ratio (x) = -0.13870 0.29998
# Poissons Ratio (y) = -0.13423 0.29664
# Poissons Ratio (z) = 0.31440 0.32126
#
# Static dielectric constant tensor:
#      x y z
#    x 1.717240 0.000000 0.000000 
#    y 0.000000 1.733130 0.000000 
#    z 0.000000 0.000000 1.776380 
# 
# From -- ./inp_files/10598.got.cif
#   From: 2010.05.17/outbox.cif.g08.bks.cpg/sg73_6_cif.got.tgz:10598.got - 2010.06.03 17:35:07.
