data_PCOD9530156
_publ_section_title
;
Structure prediction by ZEFSAII (Michael W. Deem and Ramdas Pophale) SiO2 
 PCOD9530156
Probable space group: I B C A 
;
_chemical_formula_sum "Si O2"
_cell_formula_units_Z 112
_cell_length_a 13.418994
_cell_length_b 27.108804
_cell_length_c 13.708396
_cell_angle_alpha 90.000000
_cell_angle_beta 90.000000
_cell_angle_gamma 90.000000
_cell_volume 4986.742669
_symmetry_space_group_name_H-M "I B C A "
_symmetry_group_IT_number 73
_symmetry_cell_setting 'orthorhombic'
loop_
_space_group_symop_operation_xyz
x,y,z
-x,1/2-y,z
x,-y,1/2-z
1/2-x,y,-z
-x,-y,-z
x,1/2+y,-z
-x,y,1/2+z
1/2+x,-y,z
1/2+x,1/2+y,1/2+z
1/2-x,-y,1/2+z
1/2+x,1/2-y,-z
-x,1/2+y,1/2-z
1/2-x,1/2-y,1/2-z
1/2+x,y,1/2-z
1/2-x,1/2+y,z
x,1/2-y,1/2+z
loop_
_atom_site_type_symbol
_atom_site_label
_atom_site_fract_x
_atom_site_fract_y
_atom_site_fract_z
Si Si1 0.001815 0.936817 0.347976
Si Si2 0.679372 0.127954 0.300846
Si Si3 0.373855 0.359102 0.589162
Si Si4 0.010566 0.195677 0.740338
Si Si5 0.321871 0.891394 0.913755
Si Si6 0.019330 0.546754 0.123148
Si Si7 0.543947 0.836827 0.544031
O O1 0.117318 0.920437 0.334247
O O2 0.962265 0.944735 0.238508
O O3 0.954541 0.890699 0.403538
O O4 0.982098 0.989015 0.397790
O O5 0.758824 0.143379 0.382089
O O6 0.594548 0.168993 0.280910
O O7 0.724729 0.118015 0.192878
O O8 0.429402 0.338608 0.685809
O O9 0.402456 0.416664 0.572595
O O10 0.434377 0.331268 0.503763
O O11 0.062368 0.199330 0.633663
O O12 0.000000 0.250000 0.782350
O O13 0.411009 0.929827 0.896308
O O14 0.250000 0.908154 0.000000
O O15 0.376063 0.842190 0.957731
#
# Coordination Sequence:
#
# PCOD9530156 Si02
#       7
#    16  16  16  16  16  16  16
#     4   9  18  36  58  83 124 159 209 243 292 364
#     4  10  21  41  63  87 123 165 200 251 313 367
#     4  11  21  39  65  88 125 166 201 252 316 360
#     4  11  23  42  65  88 121 157 200 263 317 373
#     4  10  19  34  58  85 120 156 202 249 294 360
#     4   9  18  37  55  85 125 167 195 251 298 354
#     4  10  20  39  62  87 120 161 201 254 305 363
#
# _framework density 22.459551000000001
#
# number of rings (size 3 to 8) (size 9 to 14) (size 15 to 20)
#    0.000    2.000    5.714    0.857    0.000    5.714 
#    5.143    1.429    3.143    0.000    0.000    0.000 
#    0.000    0.000    0.000    0.000    0.000    0.000 
#
# Total GULP energy -312403.250504 kJ/mol
# GULP energy per Si atom -5578.629473 kJ/mol
# Density = 2.240843 g / cm^3
# Si number density = 22.459551 Si / 1000 Ang^3
#
#
#
# Elastic Constant Matrix: (Units=GPa)
#
#
# Indices 1 2 3 4 5 6 
#
# 1 58.3168 -0.3763 -4.7238 -0.0001 0.0000 0.0000
# 2 -0.3763 79.9977 -9.6957 -0.0002 0.0000 0.0000
# 3 -4.7238 -9.6957 108.1314 -0.0003 0.0001 0.0000
# 4 -0.0001 -0.0002 -0.0003 13.7963 0.0000 0.0000
# 5 0.0000 0.0000 0.0001 0.0000 36.5049 0.0000
# 6 0.0000 0.0000 0.0000 0.0000 0.0000 4.0056
#
#
#
# Elastic Compliance Matrix: (Units=1/GPa)
#
#
# Indices 1 2 3 4 5 6 
#
# 1 0.017211 0.000174 0.000767 0.000000 0.000000 0.000000
# 2 0.000174 0.012639 0.001141 0.000000 0.000000 0.000000
# 3 0.000767 0.001141 0.009384 0.000000 0.000000 0.000000
# 4 0.000000 0.000000 0.000000 0.072483 0.000000 0.000000
# 5 0.000000 0.000000 0.000000 0.000000 0.027394 0.000000
# 6 0.000000 0.000000 0.000000 0.000000 0.000000 0.249653
#
#
# Mechanical properties :
#
#
# Convention : Reuss Voigt Hill
#
# Bulk Modulus (GPa) = 23.04197 24.09492 23.56844
# Shear Modulus (GPa) = 12.52927 28.27747 20.40337
#
# Velocity S-wave (km/s) = 2.36447 3.55214 3.01732
# Velocity P-wave (km/s) = 4.21140 5.25120 4.75978
#
# Compressibility (1/GPa) = 0.04339906
#
# Stress axis : x y z
#
# Youngs Moduli (GPa) = 58.10238 79.11728 106.56619
#
# Poissons Ratio (x) = -0.01376 -0.08179
# Poissons Ratio (y) = -0.01011 -0.12159
# Poissons Ratio (z) = -0.04459 -0.09027
#
# Static dielectric constant tensor:
#      x y z
#    x 1.868850 0.000000 0.000000 
#    y 0.000000 1.795760 0.000000 
#    z 0.000000 0.000000 1.944840 
# 
# From -- ./inp_files/17449.got.cif
#   From: 2010.05.17/outbox.cif.g08.bks.cpg/sg73_9_cif.got.tgz:17449.got - 2010.06.03 17:35:07.
