data_PCOD9530098
_publ_section_title
;
Structure prediction by ZEFSAII (Michael W. Deem and Ramdas Pophale) SiO2 
 PCOD9530098
Probable space group: I B C A 
;
_chemical_formula_sum "Si O2"
_cell_formula_units_Z 88
_cell_length_a 16.621632
_cell_length_b 22.868413
_cell_length_c 10.022810
_cell_angle_alpha 90.000000
_cell_angle_beta 90.000000
_cell_angle_gamma 90.000000
_cell_volume 3809.773770
_symmetry_space_group_name_H-M "I B C A "
_symmetry_group_IT_number 73
_symmetry_cell_setting 'orthorhombic'
loop_
_space_group_symop_operation_xyz
x,y,z
-x,1/2-y,z
x,-y,1/2-z
1/2-x,y,-z
-x,-y,-z
x,1/2+y,-z
-x,y,1/2+z
1/2+x,-y,z
1/2+x,1/2+y,1/2+z
1/2-x,-y,1/2+z
1/2+x,1/2-y,-z
-x,1/2+y,1/2-z
1/2-x,1/2-y,1/2-z
1/2+x,y,1/2-z
1/2-x,1/2+y,z
x,1/2-y,1/2+z
loop_
_atom_site_type_symbol
_atom_site_label
_atom_site_fract_x
_atom_site_fract_y
_atom_site_fract_z
Si Si1 0.403751 0.738600 0.103143
Si Si2 0.750000 0.894667 0.500000
Si Si3 0.650364 0.811341 0.354936
Si Si4 0.911698 0.391692 0.004646
Si Si5 0.143995 0.990050 0.105378
Si Si6 0.016934 0.093508 0.274121
O O1 0.500000 0.750000 0.123679
O O2 0.354333 0.737494 0.240918
O O3 0.388455 0.674322 0.039225
O O4 0.371776 0.784664 0.997118
O O5 0.728054 0.852110 0.376654
O O6 0.822101 0.941247 0.506067
O O7 0.577521 0.853888 0.311762
O O8 0.855803 0.446384 0.039676
O O9 0.983121 0.405614 0.114065
O O10 0.935874 0.395330 0.851603
O O11 0.059090 0.961810 0.153782
O O12 0.187037 0.000000 0.250000
#
# Coordination Sequence:
#
# PCOD9530098 Si02
#       6
#    16   8  16  16  16  16
#     4  11  21  36  61  92 130 155 205 258 318 373
#     4  10  22  44  62  78 122 166 216 252 308 368
#     4  10  22  37  60  89 120 170 200 253 308 372
#     4  10  19  32  57  88 119 152 190 243 309 360
#     4   9  19  38  59  79 111 156 198 250 302 357
#     4   9  18  33  55  85 118 150 192 242 306 361
#
# _framework density 23.098483000000002
#
# number of rings (size 3 to 8) (size 9 to 14) (size 15 to 20)
#    0.000    2.182    1.818    2.182    2.545    0.727 
#    0.000    6.364    0.000    0.000    0.000    0.000 
#    0.000    0.000    0.000    0.000    0.000    0.000 
#
# Total GULP energy -244980.292761 kJ/mol
# GULP energy per Si atom -5567.733926 kJ/mol
# Density = 2.304591 g / cm^3
# Si number density = 23.098483 Si / 1000 Ang^3
#
#
#
# Elastic Constant Matrix: (Units=GPa)
#
#
# Indices 1 2 3 4 5 6 
#
# 1 23.5310 22.6150 24.5564 0.0000 0.0000 0.0000
# 2 22.6150 102.8238 22.5506 0.0000 0.0000 0.0000
# 3 24.5564 22.5506 93.4683 0.0000 0.0000 -0.0002
# 4 0.0000 0.0000 0.0000 38.7465 0.0000 -0.0001
# 5 0.0000 0.0000 0.0000 0.0000 -25.4963 -0.0001
# 6 0.0000 0.0000 -0.0002 -0.0001 -0.0001-2396.7413
#
#
#
# Elastic Compliance Matrix: (Units=1/GPa)
#
#
# Indices 1 2 3 4 5 6 
#
# 1 0.070329 -0.012054 -0.015569 0.000000 0.000000 0.000000
# 2 -0.012054 0.012335 0.000191 0.000000 0.000000 0.000000
# 3 -0.015569 0.000191 0.014743 0.000000 0.000000 0.000000
# 4 0.000000 0.000000 0.000000 0.025809 0.000000 0.000000
# 5 0.000000 0.000000 0.000000 0.000000 -0.039221 0.000000
# 6 0.000000 0.000000 0.000000 0.000000 0.000000 -0.000417
#
#
# Mechanical properties :
#
#
# Convention : Reuss Voigt Hill
#
# Bulk Modulus (GPa) = 23.50553 39.91858 31.71205
# Shear Modulus (GPa) = 32.76072 -466.69148 -216.96538
#
# Velocity S-wave (km/s) = 3.77013 -14.22965 -9.70229
# Velocity P-wave (km/s) = 5.39908 15.89521 10.57137
#
# Compressibility (1/GPa) = 0.04254318
#
# Stress axis : x y z
#
# Youngs Moduli (GPa) = 14.21886 81.07281 67.82822
#
# Poissons Ratio (x) = 0.97722 1.05602
# Poissons Ratio (y) = 0.17139 -0.01295
# Poissons Ratio (z) = 0.22137 -0.01548
#
# Static dielectric constant tensor:
#      x y z
#    x 1.922240 0.000000 0.000000 
#    y 0.000000 1.976480 0.000000 
#    z 0.000000 0.000000 1.928220 
# 
# From -- ./inp_files/6294.got.cif
#   From: 2010.05.17/outbox.cif.g08.bks.cpg/sg73_4_cif.got.tgz:6294.got - 2010.06.03 17:35:07.
