data_PCOD9530708
_publ_section_title
;
Structure prediction by ZEFSAII (Michael W. Deem and Ramdas Pophale) SiO2 
 PCOD9530708
Probable space group: I B C A 
;
_chemical_formula_sum "Si O2"
_cell_formula_units_Z 96
_cell_length_a 14.771743
_cell_length_b 12.730185
_cell_length_c 24.459087
_cell_angle_alpha 90.000000
_cell_angle_beta 90.000000
_cell_angle_gamma 90.000000
_cell_volume 4599.458451
_symmetry_space_group_name_H-M "I B C A "
_symmetry_group_IT_number 73
_symmetry_cell_setting 'orthorhombic'
loop_
_space_group_symop_operation_xyz
x,y,z
-x,1/2-y,z
x,-y,1/2-z
1/2-x,y,-z
-x,-y,-z
x,1/2+y,-z
-x,y,1/2+z
1/2+x,-y,z
1/2+x,1/2+y,1/2+z
1/2-x,-y,1/2+z
1/2+x,1/2-y,-z
-x,1/2+y,1/2-z
1/2-x,1/2-y,1/2-z
1/2+x,y,1/2-z
1/2-x,1/2+y,z
x,1/2-y,1/2+z
loop_
_atom_site_type_symbol
_atom_site_label
_atom_site_fract_x
_atom_site_fract_y
_atom_site_fract_z
Si Si1 0.538224 0.518810 0.579268
Si Si2 0.268742 0.780537 0.671061
Si Si3 0.302255 0.680099 0.050033
Si Si4 0.571879 0.845254 0.499726
Si Si5 0.967085 0.859920 0.819583
Si Si6 0.856548 0.120792 0.242025
O O1 0.618106 0.601712 0.567280
O O2 0.456462 0.563848 0.542566
O O3 0.569480 0.405810 0.557988
O O4 0.515412 0.539708 0.642247
O O5 0.252726 0.794311 0.606787
O O6 0.359667 0.847060 0.688806
O O7 0.184088 0.815559 0.707078
O O8 0.302273 0.665431 0.689313
O O9 0.341478 0.786423 0.023353
O O10 0.250000 0.627259 0.000000
O O11 0.500000 0.750000 0.497261
O O12 0.000000 0.750000 0.849053
O O13 0.036509 0.864607 0.769315
O O14 0.837085 0.000000 0.250000
#
# Coordination Sequence:
#
# PCOD9530708 Si02
#       6
#    16  16  16  16  16  16
#     4   9  17  33  58  82 108 158 203 237 295 375
#     4   9  20  40  60  85 125 160 199 261 313 373
#     4  10  20  37  57  86 124 159 197 243 311 379
#     4   9  17  32  53  80 117 151 195 243 286 355
#     4   9  17  35  63  83 112 160 203 252 318 370
#     4  10  20  37  62  91 112 158 216 258 308 371
#
# _framework density 20.872021
#
# number of rings (size 3 to 8) (size 9 to 14) (size 15 to 20)
#    0.000    2.667    0.000    3.500    0.000    1.333 
#   18.000    0.000    0.000    0.000    0.000    0.000 
#    0.000    0.000    0.000    0.000    0.000    0.000 
#
# Total GULP energy -267372.724009 kJ/mol
# GULP energy per Si atom -5570.265084 kJ/mol
# Density = 2.082452 g / cm^3
# Si number density = 20.872021 Si / 1000 Ang^3
#
#
#
# Elastic Constant Matrix: (Units=GPa)
#
#
# Indices 1 2 3 4 5 6 
#
# 1 69.3566 3.3319 51.0221 0.0000 0.0000 0.0000
# 2 3.3319 63.9320 19.7169 0.0000 0.0000 0.0000
# 3 51.0221 19.7169 105.2595 0.0000 0.0000 0.0000
# 4 0.0000 0.0000 0.0000 28.1967 0.0000 0.0000
# 5 0.0000 0.0000 0.0000 0.0000 24.9905 0.0000
# 6 0.0000 0.0000 0.0000 0.0000 0.0000 2.4676
#
#
#
# Elastic Compliance Matrix: (Units=1/GPa)
#
#
# Indices 1 2 3 4 5 6 
#
# 1 0.022737 0.002350 -0.011461 0.000000 0.000000 0.000000
# 2 0.002350 0.016843 -0.004294 0.000000 0.000000 0.000000
# 3 -0.011461 -0.004294 0.015860 0.000000 0.000000 0.000000
# 4 0.000000 0.000000 0.000000 0.035465 0.000000 0.000000
# 5 0.000000 0.000000 0.000000 0.000000 0.040015 0.000000
# 6 0.000000 0.000000 0.000000 0.000000 0.000000 0.405251
#
#
# Mechanical properties :
#
#
# Convention : Reuss Voigt Hill
#
# Bulk Modulus (GPa) = 34.92919 42.96558 38.94738
# Shear Modulus (GPa) = 8.73323 22.09611 15.41467
#
# Velocity S-wave (km/s) = 2.04775 3.25722 2.72054
# Velocity P-wave (km/s) = 4.72888 5.89711 5.34501
#
# Compressibility (1/GPa) = 0.02862935
#
# Stress axis : x y z
#
# Youngs Moduli (GPa) = 43.98149 59.37021 63.05058
#
# Poissons Ratio (x) = -0.13951 0.72264
# Poissons Ratio (y) = -0.10335 0.27074
# Poissons Ratio (z) = 0.50409 0.25494
#
# Static dielectric constant tensor:
#      x y z
#    x 1.876090 0.000000 0.000000 
#    y 0.000000 1.758140 0.000000 
#    z 0.000000 0.000000 1.806700 
# 
# From -- ./inp_files/29791.got.cif
#   From: 2010.05.17/outbox.cif.g08.bks.cpg/sg73_15_cif.got.tgz:29791.got - 2010.06.03 17:35:07.
