data_PCOD9530313
_publ_section_title
;
Structure prediction by ZEFSAII (Michael W. Deem and Ramdas Pophale) SiO2 
 PCOD9530313
Probable space group: I B C A 
;
_chemical_formula_sum "Si O2"
_cell_formula_units_Z 120
_cell_length_a 16.513003
_cell_length_b 24.994854
_cell_length_c 14.485954
_cell_angle_alpha 90.000000
_cell_angle_beta 90.000000
_cell_angle_gamma 90.000000
_cell_volume 5978.934089
_symmetry_space_group_name_H-M "I B C A "
_symmetry_group_IT_number 73
_symmetry_cell_setting 'orthorhombic'
loop_
_space_group_symop_operation_xyz
x,y,z
-x,1/2-y,z
x,-y,1/2-z
1/2-x,y,-z
-x,-y,-z
x,1/2+y,-z
-x,y,1/2+z
1/2+x,-y,z
1/2+x,1/2+y,1/2+z
1/2-x,-y,1/2+z
1/2+x,1/2-y,-z
-x,1/2+y,1/2-z
1/2-x,1/2-y,1/2-z
1/2+x,y,1/2-z
1/2-x,1/2+y,z
x,1/2-y,1/2+z
loop_
_atom_site_type_symbol
_atom_site_label
_atom_site_fract_x
_atom_site_fract_y
_atom_site_fract_z
Si Si1 0.649219 0.431474 0.824514
Si Si2 0.108103 0.954412 0.116584
Si Si3 0.864207 0.288142 0.937616
Si Si4 0.528553 0.118928 0.617649
Si Si5 0.667899 0.036704 0.665663
Si Si6 0.931309 0.289460 0.288926
Si Si7 0.188498 0.313730 0.629945
Si Si8 0.750000 0.027958 0.000000
O O1 0.610064 0.436913 0.723666
O O2 0.611239 0.480786 0.881951
O O3 0.743768 0.442899 0.804760
O O4 0.654466 0.374757 0.875746
O O5 0.190437 0.938810 0.064977
O O6 0.032948 0.923590 0.073063
O O7 0.930580 0.334911 0.942176
O O8 0.785846 0.310456 0.880518
O O9 0.900517 0.238099 0.883255
O O10 0.839379 0.278823 0.042615
O O11 0.602414 0.082938 0.653770
O O12 0.477267 0.155182 0.690033
O O13 0.638228 0.000000 0.750000
O O14 0.692318 0.006466 0.569725
O O15 0.853821 0.294167 0.223099
O O16 0.000000 0.250000 0.248737
#
# Coordination Sequence:
#
# PCOD9530313 Si02
#       8
#    16  16  16  16  16  16  16   8
#     4  10  19  38  64  89 121 168 216 244 305 391
#     4  10  21  38  58  92 130 172 198 256 309 376
#     4  10  24  40  66  97 117 160 226 263 316 394
#     4  11  23  38  60  91 132 164 203 274 318 368
#     4  11  22  38  63  92 130 169 220 260 303 393
#     4  10  23  43  62  89 128 158 204 277 326 373
#     4  11  21  41  73  89 117 171 211 261 328 387
#     4  10  22  40  60  84 130 178 216 252 302 362
#
# _framework density 20.070468000000002
#
# number of rings (size 3 to 8) (size 9 to 14) (size 15 to 20)
#    0.000    1.600    5.333    0.400    5.600    2.133 
#    2.400    1.333    0.000    0.000    0.000    0.000 
#    0.000    0.000    0.000    0.000    0.000    0.000 
#
# Total GULP energy -334077.766500 kJ/mol
# GULP energy per Si atom -5567.962775 kJ/mol
# Density = 2.002479 g / cm^3
# Si number density = 20.070468 Si / 1000 Ang^3
#
#
#
# Elastic Constant Matrix: (Units=GPa)
#
#
# Indices 1 2 3 4 5 6 
#
# 1 78.9372 50.3099 21.6017 0.0000 0.0000 0.0000
# 2 50.3099 80.9555 10.0094 0.0000 0.0000 0.0000
# 3 21.6017 10.0094 57.4775 0.0000 0.0000 0.0000
# 4 0.0000 0.0000 0.0000 15.4163 0.0000 0.0000
# 5 0.0000 0.0000 0.0000 0.0000 14.1607 0.0000
# 6 0.0000 0.0000 0.0000 0.0000 0.0000 35.4388
#
#
#
# Elastic Compliance Matrix: (Units=1/GPa)
#
#
# Indices 1 2 3 4 5 6 
#
# 1 0.023007 -0.013520 -0.006292 0.000000 0.000000 0.000000
# 2 -0.013520 0.020569 0.001499 0.000000 0.000000 0.000000
# 3 -0.006292 0.001499 0.019502 0.000000 0.000000 0.000000
# 4 0.000000 0.000000 0.000000 0.064866 0.000000 0.000000
# 5 0.000000 0.000000 0.000000 0.000000 0.070618 0.000000
# 6 0.000000 0.000000 0.000000 0.000000 0.000000 0.028218
#
#
# Mechanical properties :
#
#
# Convention : Reuss Voigt Hill
#
# Bulk Modulus (GPa) = 37.80430 42.35690 40.08060
# Shear Modulus (GPa) = 18.36731 22.03310 20.20020
#
# Velocity S-wave (km/s) = 3.02841 3.31688 3.17592
# Velocity P-wave (km/s) = 5.57719 5.98488 5.78463
#
# Compressibility (1/GPa) = 0.02645201
#
# Stress axis : x y z
#
# Youngs Moduli (GPa) = 43.46530 48.61702 51.27720
#
# Poissons Ratio (x) = 0.65729 0.32265
# Poissons Ratio (y) = 0.58764 -0.07687
# Poissons Ratio (z) = 0.27350 -0.07288
#
# Static dielectric constant tensor:
#      x y z
#    x 1.735100 0.000000 0.000000 
#    y 0.000000 1.752750 0.000000 
#    z 0.000000 0.000000 1.823490 
# 
# From -- ./inp_files/18320.got.cif
#   From: 2010.05.17/outbox.cif.g08.bks.cpg/sg73_10_cif.got.tgz:18320.got - 2010.06.03 17:35:07.
