data_PCOD9530692
_publ_section_title
;
Structure prediction by ZEFSAII (Michael W. Deem and Ramdas Pophale) SiO2 
 PCOD9530692
Probable space group: I B C A 
;
_chemical_formula_sum "Si O2"
_cell_formula_units_Z 80
_cell_length_a 28.360620
_cell_length_b 8.416754
_cell_length_c 15.731344
_cell_angle_alpha 90.000000
_cell_angle_beta 90.000000
_cell_angle_gamma 90.000000
_cell_volume 3755.140430
_symmetry_space_group_name_H-M "I B C A "
_symmetry_group_IT_number 73
_symmetry_cell_setting 'orthorhombic'
loop_
_space_group_symop_operation_xyz
x,y,z
-x,1/2-y,z
x,-y,1/2-z
1/2-x,y,-z
-x,-y,-z
x,1/2+y,-z
-x,y,1/2+z
1/2+x,-y,z
1/2+x,1/2+y,1/2+z
1/2-x,-y,1/2+z
1/2+x,1/2-y,-z
-x,1/2+y,1/2-z
1/2-x,1/2-y,1/2-z
1/2+x,y,1/2-z
1/2-x,1/2+y,z
x,1/2-y,1/2+z
loop_
_atom_site_type_symbol
_atom_site_label
_atom_site_fract_x
_atom_site_fract_y
_atom_site_fract_z
Si Si1 0.403754 0.651649 0.691655
Si Si2 0.946161 0.276238 0.024519
Si Si3 0.314821 0.894037 0.079942
Si Si4 0.613463 0.569756 0.929910
Si Si5 0.250000 0.130311 0.000000
Si Si6 0.886642 0.000000 0.750000
O O1 0.415130 0.500000 0.750000
O O2 0.433474 0.660470 0.604062
O O3 0.348875 0.634603 0.660279
O O4 0.411079 0.826326 0.734589
O O5 0.929633 0.446743 0.058146
O O6 0.000000 0.250000 0.002493
O O7 0.911738 0.237319 0.945779
O O8 0.274429 0.026753 0.074485
O O9 0.349604 0.946675 0.004360
O O10 0.288911 0.737531 0.046294
O O11 0.637383 0.534718 0.840139
#
# Coordination Sequence:
#
# PCOD9530692 Si02
#       6
#    16  16  16  16   8   8
#     4  10  23  41  64  89 127 172 205 258 324 383
#     4  10  21  39  61  94 123 164 223 258 311 376
#     4  10  21  39  64  90 119 167 207 254 322 388
#     4  10  21  38  63  87 125 169 208 258 319 381
#     4  10  20  36  66  92 120 148 218 268 300 384
#     4  10  22  38  60  96 120 162 218 254 308 380
#
# _framework density 21.304130000000001
#
# number of rings (size 3 to 8) (size 9 to 14) (size 15 to 20)
#    0.000    2.000    0.000    4.200    8.400    0.000 
#    7.200    2.000    8.800    0.000    0.000    0.000 
#    0.000    0.000    0.000    0.000    0.000    0.000 
#
# Total GULP energy -222676.194604 kJ/mol
# GULP energy per Si atom -5566.904865 kJ/mol
# Density = 2.125564 g / cm^3
# Si number density = 21.304130 Si / 1000 Ang^3
#
#
#
# Elastic Constant Matrix: (Units=GPa)
#
#
# Indices 1 2 3 4 5 6 
#
# 1 71.6308 18.2394 -2.7300 0.0000 0.0000 0.0000
# 2 18.2394 103.7718 26.2474 0.0000 0.0000 0.0000
# 3 -2.7300 26.2474 72.7535 0.0000 0.0000 0.0000
# 4 0.0000 0.0000 0.0000 28.7903 0.0000 0.0000
# 5 0.0000 0.0000 0.0000 0.0000 14.2767 0.0000
# 6 0.0000 0.0000 0.0000 0.0000 0.0000 27.1931
#
#
#
# Elastic Compliance Matrix: (Units=1/GPa)
#
#
# Indices 1 2 3 4 5 6 
#
# 1 0.014791 -0.003015 0.001643 0.000000 0.000000 0.000000
# 2 -0.003015 0.011219 -0.004161 0.000000 0.000000 0.000000
# 3 0.001643 -0.004161 0.015308 0.000000 0.000000 0.000000
# 4 0.000000 0.000000 0.000000 0.034734 0.000000 0.000000
# 5 0.000000 0.000000 0.000000 0.000000 0.070044 0.000000
# 6 0.000000 0.000000 0.000000 0.000000 0.000000 0.036774
#
#
# Mechanical properties :
#
#
# Convention : Reuss Voigt Hill
#
# Bulk Modulus (GPa) = 33.05629 36.85219 34.95424
# Shear Modulus (GPa) = 24.50748 27.81197 26.15973
#
# Velocity S-wave (km/s) = 3.39538 3.61705 3.50797
# Velocity P-wave (km/s) = 5.56071 5.89744 5.73155
#
# Compressibility (1/GPa) = 0.03025142
#
# Stress axis : x y z
#
# Youngs Moduli (GPa) = 67.60933 89.13565 65.32656
#
# Poissons Ratio (x) = 0.26876 -0.10732
# Poissons Ratio (y) = 0.20386 0.27180
# Poissons Ratio (z) = -0.11107 0.37086
#
# Static dielectric constant tensor:
#      x y z
#    x 1.772890 0.000000 0.000000 
#    y 0.000000 1.856750 0.000000 
#    z 0.000000 0.000000 1.793240 
# 
# From -- ./inp_files/5694.got.cif
#   From: 2010.05.17/outbox.cif.g08.bks.cpg/sg73_3_cif.got.tgz:5694.got - 2010.06.03 17:35:07.
