data_PCOD9530329
_publ_section_title
;
Structure prediction by ZEFSAII (Michael W. Deem and Ramdas Pophale) SiO2 
 PCOD9530329
Probable space group: I B C A 
;
_chemical_formula_sum "Si O2"
_cell_formula_units_Z 96
_cell_length_a 8.554993
_cell_length_b 22.061901
_cell_length_c 26.097542
_cell_angle_alpha 90.000000
_cell_angle_beta 90.000000
_cell_angle_gamma 90.000000
_cell_volume 4925.634644
_symmetry_space_group_name_H-M "I B C A "
_symmetry_group_IT_number 73
_symmetry_cell_setting 'orthorhombic'
loop_
_space_group_symop_operation_xyz
x,y,z
-x,1/2-y,z
x,-y,1/2-z
1/2-x,y,-z
-x,-y,-z
x,1/2+y,-z
-x,y,1/2+z
1/2+x,-y,z
1/2+x,1/2+y,1/2+z
1/2-x,-y,1/2+z
1/2+x,1/2-y,-z
-x,1/2+y,1/2-z
1/2-x,1/2-y,1/2-z
1/2+x,y,1/2-z
1/2-x,1/2+y,z
x,1/2-y,1/2+z
loop_
_atom_site_type_symbol
_atom_site_label
_atom_site_fract_x
_atom_site_fract_y
_atom_site_fract_z
Si Si1 0.581902 0.183834 0.284090
Si Si2 0.555949 0.816467 0.823206
Si Si3 0.513866 0.627908 0.118927
Si Si4 0.342730 0.895115 0.412936
Si Si5 0.624222 0.026003 0.958864
Si Si6 0.000000 0.250000 0.567977
Si Si7 0.250000 0.815925 0.500000
O O1 0.500000 0.250000 0.290197
O O2 0.555735 0.168163 0.224668
O O3 0.764359 0.187662 0.301342
O O4 0.492900 0.134354 0.319674
O O5 0.500000 0.750000 0.842042
O O6 0.551944 0.866248 0.868332
O O7 0.332608 0.620564 0.103913
O O8 0.592526 0.577243 0.083575
O O9 0.564356 0.694490 0.100986
O O10 0.342976 0.965845 0.425324
O O11 0.361558 0.858994 0.466093
O O12 0.750000 0.048995 0.000000
O O13 0.500000 0.000000 0.000000
O O14 0.140528 0.275143 0.534470
#
# Coordination Sequence:
#
# PCOD9530329 Si02
#       7
#    16  16  16  16  16   8   8
#     4  10  19  39  59  88 125 153 201 253 311 365
#     4  10  21  37  63  90 122 162 199 253 312 368
#     4  10  21  38  61  83 118 162 194 249 308 361
#     4  10  21  41  58  82 123 161 197 248 305 360
#     4  12  22  42  61  85 119 165 207 245 305 373
#     4  10  20  36  52  84 114 150 190 246 304 350
#     4  10  20  36  54  78 122 152 190 254 302 346
#
# _framework density 19.489872999999999
#
# number of rings (size 3 to 8) (size 9 to 14) (size 15 to 20)
#    0.000    1.667    3.333    3.000    2.333    0.000 
#    6.000    0.833    0.000    4.000    0.000    0.000 
#    0.000    0.000    0.000    0.000    0.000    0.000 
#
# Total GULP energy -267328.402271 kJ/mol
# GULP energy per Si atom -5569.341714 kJ/mol
# Density = 1.944551 g / cm^3
# Si number density = 19.489873 Si / 1000 Ang^3
#
#
#
# Elastic Constant Matrix: (Units=GPa)
#
#
# Indices 1 2 3 4 5 6 
#
# 1 27.5024 2.8322 1.3786 0.0000 0.0000 0.0000
# 2 2.8322 113.7673 56.3582 0.0000 0.0000 0.0000
# 3 1.3786 56.3582 103.1945 0.0000 0.0000 0.0000
# 4 0.0000 0.0000 0.0000 32.1718 0.0000 0.0000
# 5 0.0000 0.0000 0.0000 0.0000 28.4237 0.0000
# 6 0.0000 0.0000 0.0000 0.0000 0.0000 21.9658
#
#
#
# Elastic Compliance Matrix: (Units=1/GPa)
#
#
# Indices 1 2 3 4 5 6 
#
# 1 0.036454 -0.000913 0.000012 0.000000 0.000000 0.000000
# 2 -0.000913 0.012073 -0.006581 0.000000 0.000000 0.000000
# 3 0.000012 -0.006581 0.013285 0.000000 0.000000 0.000000
# 4 0.000000 0.000000 0.000000 0.031083 0.000000 0.000000
# 5 0.000000 0.000000 0.000000 0.000000 0.035182 0.000000
# 6 0.000000 0.000000 0.000000 0.000000 0.000000 0.045525
#
#
# Mechanical properties :
#
#
# Convention : Reuss Voigt Hill
#
# Bulk Modulus (GPa) = 21.34662 40.62247 30.98454
# Shear Modulus (GPa) = 24.48791 28.77194 26.62992
#
# Velocity S-wave (km/s) = 3.54848 3.84637 3.70042
# Velocity P-wave (km/s) = 5.26929 6.37293 5.84720
#
# Compressibility (1/GPa) = 0.04684583
#
# Stress axis : x y z
#
# Youngs Moduli (GPa) = 27.43186 82.83072 75.27567
#
# Poissons Ratio (x) = 0.07565 -0.00089
# Poissons Ratio (y) = 0.02506 0.49540
# Poissons Ratio (z) = -0.00032 0.54513
#
# Static dielectric constant tensor:
#      x y z
#    x 1.690230 0.000000 0.000000 
#    y 0.000000 1.764120 0.000000 
#    z 0.000000 0.000000 1.758140 
# 
# From -- ./inp_files/31208.got.cif
#   From: 2010.05.17/outbox.cif.g08.bks.cpg/sg73_16_cif.got.tgz:31208.got - 2010.06.03 17:35:07.
