data_PCOD9530034
_publ_section_title
;
Structure prediction by ZEFSAII (Michael W. Deem and Ramdas Pophale) SiO2 
 PCOD9530034
Probable space group: I B C A 
;
_chemical_formula_sum "Si O2"
_cell_formula_units_Z 112
_cell_length_a 33.020257
_cell_length_b 14.590226
_cell_length_c 11.728227
_cell_angle_alpha 90.000000
_cell_angle_beta 90.000000
_cell_angle_gamma 90.000000
_cell_volume 5650.343250
_symmetry_space_group_name_H-M "I B C A "
_symmetry_group_IT_number 73
_symmetry_cell_setting 'orthorhombic'
loop_
_space_group_symop_operation_xyz
x,y,z
-x,1/2-y,z
x,-y,1/2-z
1/2-x,y,-z
-x,-y,-z
x,1/2+y,-z
-x,y,1/2+z
1/2+x,-y,z
1/2+x,1/2+y,1/2+z
1/2-x,-y,1/2+z
1/2+x,1/2-y,-z
-x,1/2+y,1/2-z
1/2-x,1/2-y,1/2-z
1/2+x,y,1/2-z
1/2-x,1/2+y,z
x,1/2-y,1/2+z
loop_
_atom_site_type_symbol
_atom_site_label
_atom_site_fract_x
_atom_site_fract_y
_atom_site_fract_z
Si Si1 0.776119 0.482606 0.117494
Si Si2 0.160240 0.121438 0.486343
Si Si3 0.385450 0.727619 0.305649
Si Si4 0.827436 0.194959 0.606020
Si Si5 0.593441 0.128976 0.523489
Si Si6 0.408587 0.051454 0.370146
Si Si7 0.952791 0.253560 0.636631
O O1 0.761283 0.500000 0.250000
O O2 0.792300 0.378400 0.117519
O O3 0.750000 0.492379 0.000000
O O4 0.812272 0.554451 0.088616
O O5 0.123873 0.158355 0.407043
O O6 0.181694 0.214545 0.531416
O O7 0.137749 0.075330 0.593826
O O8 0.346017 0.726996 0.225931
O O9 0.392492 0.827522 0.357351
O O10 0.425484 0.706463 0.234478
O O11 0.865996 0.141606 0.551160
O O12 0.559083 0.195507 0.474731
O O13 0.579278 0.025834 0.537565
O O14 0.435052 0.143633 0.373933
O O15 0.412040 0.000000 0.250000
O O16 0.000000 0.250000 0.659757
#
# Coordination Sequence:
#
# PCOD9530034 Si02
#       7
#    16  16  16  16  16  16  16
#     4  12  27  47  68 104 144 178 223 289 354 413
#     4  11  22  41  72 100 125 179 230 278 333 419
#     4  10  18  40  65  92 127 175 223 271 332 408
#     4  10  20  40  69  96 126 170 224 273 331 414
#     4  10  20  37  64  96 120 167 228 274 333 395
#     4  12  21  38  66  96 127 174 235 279 330 405
#     4  11  24  39  58  94 138 172 217 285 348 396
#
# _framework density 19.821805000000001
#
# number of rings (size 3 to 8) (size 9 to 14) (size 15 to 20)
#    0.000    1.143    8.571    0.000    0.000    2.286 
#    5.143    2.857    0.000    0.000    0.000    0.000 
#    0.000    0.000    0.000    0.000    0.000    0.000 
#
# Total GULP energy -311998.102114 kJ/mol
# GULP energy per Si atom -5571.394681 kJ/mol
# Density = 1.977669 g / cm^3
# Si number density = 19.821805 Si / 1000 Ang^3
#
#
#
# Elastic Constant Matrix: (Units=GPa)
#
#
# Indices 1 2 3 4 5 6 
#
# 1 43.8051 26.2916 20.6019 0.0000 0.0000 0.0000
# 2 26.2916 112.7832 41.0355 0.0000 0.0000 0.0000
# 3 20.6019 41.0355 79.8351 0.0000 0.0000 0.0000
# 4 0.0000 0.0000 0.0000 26.0041 0.0000 0.0000
# 5 0.0000 0.0000 0.0000 0.0000 17.6721 0.0000
# 6 0.0000 0.0000 0.0000 0.0000 0.0000 -2.1763
#
#
#
# Elastic Compliance Matrix: (Units=1/GPa)
#
#
# Indices 1 2 3 4 5 6 
#
# 1 0.027933 -0.004784 -0.004750 0.000000 0.000000 0.000000
# 2 -0.004784 0.011725 -0.004792 0.000000 0.000000 0.000000
# 3 -0.004750 -0.004792 0.016215 0.000000 0.000000 0.000000
# 4 0.000000 0.000000 0.000000 0.038455 0.000000 0.000000
# 5 0.000000 0.000000 0.000000 0.000000 0.056586 0.000000
# 6 0.000000 0.000000 0.000000 0.000000 0.000000 -0.459493
#
#
# Mechanical properties :
#
#
# Convention : Reuss Voigt Hill
#
# Bulk Modulus (GPa) = 36.73468 45.80905 41.27186
# Shear Modulus (GPa) = -18.46026 18.19962 -0.13032
#
# Velocity S-wave (km/s) = -3.05505 3.03341 -0.25669
# Velocity P-wave (km/s) = 2.47553 5.95225 4.55838
#
# Compressibility (1/GPa) = 0.02722223
#
# Stress axis : x y z
#
# Youngs Moduli (GPa) = 35.79963 85.28485 61.67202
#
# Poissons Ratio (x) = 0.40797 0.29291
# Poissons Ratio (y) = 0.17125 0.29556
# Poissons Ratio (z) = 0.17003 0.40872
#
# Static dielectric constant tensor:
#      x y z
#    x 1.672390 0.000000 0.000000 
#    y 0.000000 1.727730 0.000000 
#    z 0.000000 0.000000 1.814780 
# 
# From -- ./inp_files/14822.got.cif
#   From: 2010.05.17/outbox.cif.g08.bks.cpg/sg73_8_cif.got.tgz:14822.got - 2010.06.03 17:35:07.
