data_PCOD9531035
_publ_section_title
;
Structure prediction by ZEFSAII (Michael W. Deem and Ramdas Pophale) SiO2 
 PCOD9531035
Probable space group: I B C A 
;
_chemical_formula_sum "Si O2"
_cell_formula_units_Z 96
_cell_length_a 13.546191
_cell_length_b 20.320149
_cell_length_c 17.816805
_cell_angle_alpha 90.000000
_cell_angle_beta 90.000000
_cell_angle_gamma 90.000000
_cell_volume 4904.264782
_symmetry_space_group_name_H-M "I B C A "
_symmetry_group_IT_number 73
_symmetry_cell_setting 'orthorhombic'
loop_
_space_group_symop_operation_xyz
x,y,z
-x,1/2-y,z
x,-y,1/2-z
1/2-x,y,-z
-x,-y,-z
x,1/2+y,-z
-x,y,1/2+z
1/2+x,-y,z
1/2+x,1/2+y,1/2+z
1/2-x,-y,1/2+z
1/2+x,1/2-y,-z
-x,1/2+y,1/2-z
1/2-x,1/2-y,1/2-z
1/2+x,y,1/2-z
1/2-x,1/2+y,z
x,1/2-y,1/2+z
loop_
_atom_site_type_symbol
_atom_site_label
_atom_site_fract_x
_atom_site_fract_y
_atom_site_fract_z
Si Si1 0.389275 0.266803 0.297018
Si Si2 0.215569 0.555882 0.142899
Si Si3 0.754930 0.356794 0.721541
Si Si4 0.664699 0.167130 0.447741
Si Si5 0.473557 0.931687 0.457175
Si Si6 0.196927 0.576343 0.580166
O O1 0.500000 0.250000 0.280231
O O2 0.348979 0.330467 0.253241
O O3 0.328480 0.203794 0.269223
O O4 0.376252 0.283118 0.385406
O O5 0.213179 0.580902 0.228374
O O6 0.271449 0.613275 0.097549
O O7 0.106509 0.550758 0.107068
O O8 0.279627 0.491885 0.123307
O O9 0.746741 0.371021 0.634202
O O10 0.750000 0.198883 0.500000
O O11 0.580702 0.124897 0.492265
O O12 0.580752 0.909803 0.427949
O O13 0.500000 0.000000 0.500000
O O14 0.250000 0.572381 0.500000
#
# Coordination Sequence:
#
# PCOD9531035 Si02
#       6
#    16  16  16  16  16  16
#     4  10  23  43  64  84 119 169 216 257 301 365
#     4  10  20  41  63  90 126 162 200 252 321 382
#     4  10  25  43  61  87 126 164 213 261 306 371
#     4   9  19  39  63  87 123 164 202 252 313 372
#     4  11  20  36  64  98 126 161 197 250 318 385
#     4  12  23  38  62  97 132 152 202 264 318 378
#
# _framework density 19.574798999999999
#
# number of rings (size 3 to 8) (size 9 to 14) (size 15 to 20)
#    0.000    1.667    3.333    1.000    4.667    0.667 
#    0.000    1.667    0.000    0.000    0.000    0.000 
#    0.000    0.000    0.000    0.000    0.000    0.000 
#
# Total GULP energy -267644.560669 kJ/mol
# GULP energy per Si atom -5575.928347 kJ/mol
# Density = 1.953025 g / cm^3
# Si number density = 19.574799 Si / 1000 Ang^3
#
#
#
# Elastic Constant Matrix: (Units=GPa)
#
#
# Indices 1 2 3 4 5 6 
#
# 1 119.9016 23.9810 19.0117 0.0000 0.0000 0.0000
# 2 23.9810 35.7036 30.2637 0.0000 0.0000 0.0000
# 3 19.0117 30.2637 81.5234 0.0000 0.0000 0.0000
# 4 0.0000 0.0000 0.0000 31.5705 0.0000 0.0000
# 5 0.0000 0.0000 0.0000 0.0000 17.1499 0.0000
# 6 0.0000 0.0000 0.0000 0.0000 0.0000 13.9215
#
#
#
# Elastic Compliance Matrix: (Units=1/GPa)
#
#
# Indices 1 2 3 4 5 6 
#
# 1 0.009637 -0.006665 0.000227 0.000000 0.000000 0.000000
# 2 -0.006665 0.045478 -0.015328 0.000000 0.000000 0.000000
# 3 0.000227 -0.015328 0.017904 0.000000 0.000000 0.000000
# 4 0.000000 0.000000 0.000000 0.031675 0.000000 0.000000
# 5 0.000000 0.000000 0.000000 0.000000 0.058309 0.000000
# 6 0.000000 0.000000 0.000000 0.000000 0.000000 0.071831
#
#
# Mechanical properties :
#
#
# Convention : Reuss Voigt Hill
#
# Bulk Modulus (GPa) = 33.91482 42.62681 38.27081
# Shear Modulus (GPa) = 17.34922 23.45319 20.40120
#
# Velocity S-wave (km/s) = 2.98032 3.46516 3.23184
# Velocity P-wave (km/s) = 5.40430 6.15089 5.78964
#
# Compressibility (1/GPa) = 0.02948563
#
# Stress axis : x y z
#
# Youngs Moduli (GPa) = 103.76334 21.98857 55.85410
#
# Poissons Ratio (x) = 0.14656 -0.01267
# Poissons Ratio (y) = 0.69163 0.85615
# Poissons Ratio (z) = -0.02354 0.33705
#
# Static dielectric constant tensor:
#      x y z
#    x 1.677940 0.000000 0.000000 
#    y 0.000000 1.687440 0.000000 
#    z 0.000000 0.000000 1.693790 
# 
# From -- ./inp_files/21362.got.cif
#   From: 2010.05.17/outbox.cif.g08.bks.cpg/sg73_11_cif.got.tgz:21362.got - 2010.06.03 17:35:07.
