data_PCOD9531848
_publ_section_title
;
Structure prediction by ZEFSAII (Michael W. Deem and Ramdas Pophale) SiO2 
 PCOD9531848
Probable space group: I B C A 
;
_chemical_formula_sum "Si O2"
_cell_formula_units_Z 80
_cell_length_a 8.520691
_cell_length_b 28.210193
_cell_length_c 13.806027
_cell_angle_alpha 90.000000
_cell_angle_beta 90.000000
_cell_angle_gamma 90.000000
_cell_volume 3318.559371
_symmetry_space_group_name_H-M "I B C A "
_symmetry_group_IT_number 73
_symmetry_cell_setting 'orthorhombic'
loop_
_space_group_symop_operation_xyz
x,y,z
-x,1/2-y,z
x,-y,1/2-z
1/2-x,y,-z
-x,-y,-z
x,1/2+y,-z
-x,y,1/2+z
1/2+x,-y,z
1/2+x,1/2+y,1/2+z
1/2-x,-y,1/2+z
1/2+x,1/2-y,-z
-x,1/2+y,1/2-z
1/2-x,1/2-y,1/2-z
1/2+x,y,1/2-z
1/2-x,1/2+y,z
x,1/2-y,1/2+z
loop_
_atom_site_type_symbol
_atom_site_label
_atom_site_fract_x
_atom_site_fract_y
_atom_site_fract_z
Si Si1 0.500000 0.250000 0.140957
Si Si2 0.750000 0.217842 0.500000
Si Si3 0.159162 0.463066 0.626142
Si Si4 0.089493 0.863804 0.395192
Si Si5 0.419505 0.649532 0.786424
Si Si6 0.021894 0.945361 0.158655
O O1 0.660037 0.250835 0.078133
O O2 0.516206 0.297872 0.200975
O O3 0.885516 0.180691 0.534709
O O4 0.106041 0.417251 0.563837
O O5 0.076719 0.453347 0.729982
O O6 0.342514 0.460483 0.645958
O O7 0.117598 0.516460 0.596224
O O8 0.242955 0.856563 0.325266
O O9 0.938919 0.861795 0.326766
O O10 0.520058 0.611405 0.848815
#
# Coordination Sequence:
#
# PCOD9531848 Si02
#       6
#     8   8  16  16  16  16
#     4  10  22  38  54  74 102 136 174 216 258 302
#     4  10  22  38  54  74 104 138 168 208 266 314
#     4   9  15  25  44  70 101 128 157 202 252 294
#     4   9  19  34  53  77 104 134 169 211 257 306
#     4   9  19  33  52  77 102 131 175 218 248 296
#     4   9  15  25  43  71 100 125 160 206 247 290
#
# _framework density 24.106846000000001
#
# number of rings (size 3 to 8) (size 9 to 14) (size 15 to 20)
#    0.000    2.800    0.000    2.400    0.000    7.200 
#    0.000    0.000    0.000   12.000    0.000    0.000 
#    0.000    0.000    0.000    0.000    0.000    0.000 
#
# Total GULP energy -223185.257159 kJ/mol
# GULP energy per Si atom -5579.631429 kJ/mol
# Density = 2.405198 g / cm^3
# Si number density = 24.106846 Si / 1000 Ang^3
#
#
#
# Elastic Constant Matrix: (Units=GPa)
#
#
# Indices 1 2 3 4 5 6 
#
# 1 52.0816 30.8038 5.5487 0.0000 0.0000 0.0000
# 2 30.8038 135.3411 -12.1779 -0.0002 0.0000 0.0001
# 3 5.5487 -12.1779 32.1246 -0.0008 0.0000 0.0003
# 4 0.0000 -0.0002 -0.0008 6.1309 0.0000 0.0001
# 5 0.0000 0.0000 0.0000 0.0000 29.4961 -0.0001
# 6 0.0000 0.0001 0.0003 0.0001 -0.0001 16.6304
#
#
#
# Elastic Compliance Matrix: (Units=1/GPa)
#
#
# Indices 1 2 3 4 5 6 
#
# 1 0.023343 -0.005876 -0.006259 -0.000001 0.000000 0.000000
# 2 -0.005876 0.009129 0.004476 0.000001 0.000000 0.000000
# 3 -0.006259 0.004476 0.033907 0.000004 0.000000 -0.000001
# 4 -0.000001 0.000001 0.000004 0.163109 0.000000 -0.000001
# 5 0.000000 0.000000 0.000000 0.000000 0.033903 0.000000
# 6 0.000000 0.000000 -0.000001 -0.000001 0.000000 0.060131
#
#
# Mechanical properties :
#
#
# Convention : Reuss Voigt Hill
#
# Bulk Modulus (GPa) = 19.58542 29.76627 24.67584
# Shear Modulus (GPa) = 14.05044 23.47632 18.76338
#
# Velocity S-wave (km/s) = 2.41683 3.12403 2.79291
# Velocity P-wave (km/s) = 3.99126 5.03857 4.54518
#
# Compressibility (1/GPa) = 0.05105839
#
# Stress axis : x y z
#
# Youngs Moduli (GPa) = 42.83946 109.54270 29.49278
#
# Poissons Ratio (x) = 0.64369 0.18461
# Poissons Ratio (y) = 0.25173 -0.13200
# Poissons Ratio (z) = 0.26815 -0.49027
#
# Static dielectric constant tensor:
#      x y z
#    x 1.887200 0.000000 0.000000 
#    y 0.000000 1.998640 0.000000 
#    z 0.000000 0.000000 2.003950 
# 
# From -- ./inp_files/7738.got.cif
#   From: 2010.05.17/outbox.cif.g08.bks.cpg/sg73_4_cif.got.tgz:7738.got - 2010.06.03 17:35:07.
