data_PCOD9531803
_publ_section_title
;
Structure prediction by ZEFSAII (Michael W. Deem and Ramdas Pophale) SiO2 
 PCOD9531803
Probable space group: I B C A 
;
_chemical_formula_sum "Si O2"
_cell_formula_units_Z 96
_cell_length_a 21.607025
_cell_length_b 25.191107
_cell_length_c 8.392977
_cell_angle_alpha 90.000000
_cell_angle_beta 90.000000
_cell_angle_gamma 90.000000
_cell_volume 4568.338328
_symmetry_space_group_name_H-M "I B C A "
_symmetry_group_IT_number 73
_symmetry_cell_setting 'orthorhombic'
loop_
_space_group_symop_operation_xyz
x,y,z
-x,1/2-y,z
x,-y,1/2-z
1/2-x,y,-z
-x,-y,-z
x,1/2+y,-z
-x,y,1/2+z
1/2+x,-y,z
1/2+x,1/2+y,1/2+z
1/2-x,-y,1/2+z
1/2+x,1/2-y,-z
-x,1/2+y,1/2-z
1/2-x,1/2-y,1/2-z
1/2+x,y,1/2-z
1/2-x,1/2+y,z
x,1/2-y,1/2+z
loop_
_atom_site_type_symbol
_atom_site_label
_atom_site_fract_x
_atom_site_fract_y
_atom_site_fract_z
Si Si1 0.604185 0.091360 0.133964
Si Si2 0.183268 0.829978 0.959150
Si Si3 0.126042 0.874225 0.485439
Si Si4 0.186403 0.218543 0.896200
Si Si5 0.683837 0.500000 0.750000
Si Si6 0.028286 0.457763 0.378606
Si Si7 0.250000 0.072263 0.000000
O O1 0.625820 0.119756 0.296034
O O2 0.639940 0.035180 0.136645
O O3 0.532180 0.077925 0.160591
O O4 0.628239 0.127640 0.988255
O O5 0.189106 0.802196 0.785812
O O6 0.250000 0.856033 0.000000
O O7 0.175617 0.781261 0.083217
O O8 0.127546 0.812859 0.530942
O O9 0.077238 0.915930 0.554746
O O10 0.192135 0.893122 0.552693
O O11 0.250000 0.209491 0.000000
O O12 0.725802 0.536993 0.643356
O O13 0.054198 0.500000 0.250000
O O14 0.000000 0.500000 0.500000
#
# Coordination Sequence:
#
# PCOD9531803 Si02
#       7
#    16  16  16  16   8  16   8
#     4  11  23  44  61  94 131 180 224 277 336 399
#     4  11  24  39  71  97 135 177 221 281 344 414
#     4  11  23  40  65  89 135 173 222 277 337 405
#     4  11  22  43  65 102 135 172 222 279 352 410
#     4  10  22  38  56  86 132 166 214 286 326 394
#     4  12  24  44  65  92 131 187 230 277 337 409
#     4  10  22  36  56  90 124 168 206 284 328 392
#
# _framework density 21.014206000000001
#
# number of rings (size 3 to 8) (size 9 to 14) (size 15 to 20)
#    0.000    1.000    3.333    5.000    7.000    0.000 
#    0.000    0.833    0.000    4.000    0.000    0.000 
#    0.000    0.000    0.000    0.000    0.000    0.000 
#
# Total GULP energy -267789.630311 kJ/mol
# GULP energy per Si atom -5578.950631 kJ/mol
# Density = 2.096638 g / cm^3
# Si number density = 21.014206 Si / 1000 Ang^3
#
#
#
# Elastic Constant Matrix: (Units=GPa)
#
#
# Indices 1 2 3 4 5 6 
#
# 1 88.4575 38.7325 6.0681 0.0000 0.0000 0.0000
# 2 38.7325 94.4596 16.3309 0.0000 0.0000 0.0000
# 3 6.0681 16.3309 68.4448 0.0000 0.0000 0.0000
# 4 0.0000 0.0000 0.0000 40.2770 0.0000 0.0000
# 5 0.0000 0.0000 0.0000 0.0000 25.9679 0.0000
# 6 0.0000 0.0000 0.0000 0.0000 0.0000 33.7127
#
#
#
# Elastic Compliance Matrix: (Units=1/GPa)
#
#
# Indices 1 2 3 4 5 6 
#
# 1 0.013780 -0.005673 0.000132 0.000000 0.000000 0.000000
# 2 -0.005673 0.013378 -0.002689 0.000000 0.000000 0.000000
# 3 0.000132 -0.002689 0.015240 0.000000 0.000000 0.000000
# 4 0.000000 0.000000 0.000000 0.024828 0.000000 0.000000
# 5 0.000000 0.000000 0.000000 0.000000 0.038509 0.000000
# 6 0.000000 0.000000 0.000000 0.000000 0.000000 0.029662
#
#
# Mechanical properties :
#
#
# Convention : Reuss Voigt Hill
#
# Bulk Modulus (GPa) = 38.55435 41.51389 40.03412
# Shear Modulus (GPa) = 31.15198 32.67356 31.91277
#
# Velocity S-wave (km/s) = 3.85440 3.94741 3.90119
# Velocity P-wave (km/s) = 6.18023 6.36978 6.27572
#
# Compressibility (1/GPa) = 0.02593741
#
# Stress axis : x y z
#
# Youngs Moduli (GPa) = 72.56955 74.75151 65.61599
#
# Poissons Ratio (x) = 0.42408 -0.00866
# Poissons Ratio (y) = 0.41170 0.17644
# Poissons Ratio (z) = -0.00957 0.20100
#
# Static dielectric constant tensor:
#      x y z
#    x 1.881800 0.000000 0.000000 
#    y 0.000000 1.821400 0.000000 
#    z 0.000000 0.000000 1.242810 
# 
# From -- ./inp_files/6473.got.cif
#   From: 2010.05.17/outbox.cif.g08.bks.cpg/sg73_4_cif.got.tgz:6473.got - 2010.06.03 17:35:07.
