data_PCOD9531559
_publ_section_title
;
Structure prediction by ZEFSAII (Michael W. Deem and Ramdas Pophale) SiO2 
 PCOD9531559
Probable space group: I B C A 
;
_chemical_formula_sum "Si O2"
_cell_formula_units_Z 104
_cell_length_a 19.049912
_cell_length_b 18.089135
_cell_length_c 13.262593
_cell_angle_alpha 90.000000
_cell_angle_beta 90.000000
_cell_angle_gamma 90.000000
_cell_volume 4570.242199
_symmetry_space_group_name_H-M "I B C A "
_symmetry_group_IT_number 73
_symmetry_cell_setting 'orthorhombic'
loop_
_space_group_symop_operation_xyz
x,y,z
-x,1/2-y,z
x,-y,1/2-z
1/2-x,y,-z
-x,-y,-z
x,1/2+y,-z
-x,y,1/2+z
1/2+x,-y,z
1/2+x,1/2+y,1/2+z
1/2-x,-y,1/2+z
1/2+x,1/2-y,-z
-x,1/2+y,1/2-z
1/2-x,1/2-y,1/2-z
1/2+x,y,1/2-z
1/2-x,1/2+y,z
x,1/2-y,1/2+z
loop_
_atom_site_type_symbol
_atom_site_label
_atom_site_fract_x
_atom_site_fract_y
_atom_site_fract_z
Si Si1 0.786370 0.729510 0.095832
Si Si2 0.012330 0.403538 0.911333
Si Si3 0.073894 0.213269 0.006330
Si Si4 0.813552 0.500000 0.750000
Si Si5 0.938987 0.647910 0.295314
Si Si6 0.285914 0.632583 0.201127
Si Si7 0.937648 0.444797 0.616938
O O1 0.862016 0.754471 0.055002
O O2 0.742704 0.804092 0.125113
O O3 0.787762 0.676200 0.191877
O O4 0.750000 0.692231 0.000000
O O5 0.943364 0.368746 0.965283
O O6 0.983951 0.481044 0.869978
O O7 0.045497 0.353775 0.823425
O O8 0.066962 0.422662 0.999810
O O9 0.000000 0.250000 0.982265
O O10 0.079318 0.215696 0.128627
O O11 0.765851 0.436465 0.798353
O O12 0.864778 0.459002 0.671042
O O13 0.865948 0.604506 0.313554
O O14 0.012744 0.617486 0.335669
#
# Coordination Sequence:
#
# PCOD9531559 Si02
#       7
#    16  16  16   8  16  16  16
#     4  11  24  50  69  97 147 190 237 294 353 433
#     4  10  21  40  68  97 136 176 223 288 358 416
#     4  11  24  41  68 103 132 179 240 288 349 420
#     4  12  24  44  66 112 140 186 238 300 358 438
#     4  11  22  42  67  99 133 182 227 289 350 429
#     4  11  27  43  73 100 143 192 235 289 369 431
#     4  10  22  41  67  98 139 174 227 294 354 420
#
# _framework density 22.755906
#
# number of rings (size 3 to 8) (size 9 to 14) (size 15 to 20)
#    0.000    1.231    3.077    1.846    2.154    5.538 
#    0.000    0.769    0.000    0.000    0.000    0.000 
#    0.000    0.000    0.000    0.000    0.000    0.000 
#
# Total GULP energy -290165.509932 kJ/mol
# GULP energy per Si atom -5580.105960 kJ/mol
# Density = 2.270411 g / cm^3
# Si number density = 22.755906 Si / 1000 Ang^3
#
#
#
# Elastic Constant Matrix: (Units=GPa)
#
#
# Indices 1 2 3 4 5 6 
#
# 1 133.3596 18.6020 39.4615 0.0000 0.0000 0.0000
# 2 18.6020 50.2662 13.1374 0.0000 0.0000 0.0000
# 3 39.4615 13.1374 130.7423 0.0000 0.0000 0.0000
# 4 0.0000 0.0000 0.0000 20.8292 0.0000 0.0000
# 5 0.0000 0.0000 0.0000 0.0000 29.7226 0.0000
# 6 0.0000 0.0000 0.0000 0.0000 0.0000 35.4291
#
#
#
# Elastic Compliance Matrix: (Units=1/GPa)
#
#
# Indices 1 2 3 4 5 6 
#
# 1 0.008542 -0.002554 -0.002321 0.000000 0.000000 0.000000
# 2 -0.002554 0.021194 -0.001359 0.000000 0.000000 0.000000
# 3 -0.002321 -0.001359 0.008486 0.000000 0.000000 0.000000
# 4 0.000000 0.000000 0.000000 0.048010 0.000000 0.000000
# 5 0.000000 0.000000 0.000000 0.000000 0.033644 0.000000
# 6 0.000000 0.000000 0.000000 0.000000 0.000000 0.028225
#
#
# Mechanical properties :
#
#
# Convention : Reuss Voigt Hill
#
# Bulk Modulus (GPa) = 38.83035 50.75221 44.79128
# Shear Modulus (GPa) = 29.55873 33.40733 31.48303
#
# Velocity S-wave (km/s) = 3.60800 3.83570 3.72359
# Velocity P-wave (km/s) = 5.87008 6.47828 6.18166
#
# Compressibility (1/GPa) = 0.02575305
#
# Stress axis : x y z
#
# Youngs Moduli (GPa) = 117.07206 47.18214 117.84330
#
# Poissons Ratio (x) = 0.12052 0.27357
# Poissons Ratio (y) = 0.29904 0.16012
# Poissons Ratio (z) = 0.27178 0.06411
#
# Static dielectric constant tensor:
#      x y z
#    x 1.831460 0.000000 0.000000 
#    y 0.000000 1.946220 0.000000 
#    z 0.000000 0.000000 1.917870 
# 
# From -- ./inp_files/18143.got.cif
#   From: 2010.05.17/outbox.cif.g08.bks.cpg/sg73_10_cif.got.tgz:18143.got - 2010.06.03 17:35:07.
