data_PCOD9531632
_publ_section_title
;
Structure prediction by ZEFSAII (Michael W. Deem and Ramdas Pophale) SiO2 
 PCOD9531632
Probable space group: I B C A 
;
_chemical_formula_sum "Si O2"
_cell_formula_units_Z 40
_cell_length_a 10.490609
_cell_length_b 13.364779
_cell_length_c 12.197567
_cell_angle_alpha 90.000000
_cell_angle_beta 90.000000
_cell_angle_gamma 90.000000
_cell_volume 1710.155867
_symmetry_space_group_name_H-M "I B C A "
_symmetry_group_IT_number 73
_symmetry_cell_setting 'orthorhombic'
loop_
_space_group_symop_operation_xyz
x,y,z
-x,1/2-y,z
x,-y,1/2-z
1/2-x,y,-z
-x,-y,-z
x,1/2+y,-z
-x,y,1/2+z
1/2+x,-y,z
1/2+x,1/2+y,1/2+z
1/2-x,-y,1/2+z
1/2+x,1/2-y,-z
-x,1/2+y,1/2-z
1/2-x,1/2-y,1/2-z
1/2+x,y,1/2-z
1/2-x,1/2+y,z
x,1/2-y,1/2+z
loop_
_atom_site_type_symbol
_atom_site_label
_atom_site_fract_x
_atom_site_fract_y
_atom_site_fract_z
Si Si1 0.628868 0.705551 0.688177
Si Si2 0.250000 0.181578 0.500000
Si Si3 0.129619 0.508651 0.930100
O O1 0.500000 0.750000 0.737267
O O2 0.750000 0.750000 0.750000
O O3 0.648971 0.754307 0.566949
O O4 0.615933 0.587019 0.668008
O O5 0.322329 0.105449 0.583594
O O6 0.250000 0.550222 0.000000
O O7 0.000000 0.500000 0.000000
#
# Coordination Sequence:
#
# PCOD9531632 Si02
#       3
#    16   8  16
#     4  12  25  43  69 105 139 183 241 303 358 433
#     4  10  22  44  72  90 138 186 234 290 368 428
#     4  10  21  41  70  93 129 183 232 281 362 428
#
# _framework density 23.389682000000001
#
# number of rings (size 3 to 8) (size 9 to 14) (size 15 to 20)
#    1.200    0.000    6.000    0.000    0.000    6.400 
#    0.000    4.000    0.000    0.000    0.000    0.000 
#    0.000    0.000    0.000    0.000    0.000    0.000 
#
# Total GULP energy -111520.196363 kJ/mol
# GULP energy per Si atom -5576.009818 kJ/mol
# Density = 2.333645 g / cm^3
# Si number density = 23.389682 Si / 1000 Ang^3
#
#
#
# Elastic Constant Matrix: (Units=GPa)
#
#
# Indices 1 2 3 4 5 6 
#
# 1 201.3517 43.9151 34.7151 0.0000 0.0000 0.0000
# 2 43.9151 161.3483 43.7875 0.0000 0.0000 0.0000
# 3 34.7151 43.7875 56.9845 0.0000 0.0000 0.0000
# 4 0.0000 0.0000 0.0000 39.5017 0.0000 0.0000
# 5 0.0000 0.0000 0.0000 0.0000 47.5899 0.0000
# 6 0.0000 0.0000 0.0000 0.0000 0.0000 3.5561
#
#
#
# Elastic Compliance Matrix: (Units=1/GPa)
#
#
# Indices 1 2 3 4 5 6 
#
# 1 0.005622 -0.000759 -0.002842 0.000000 0.000000 0.000000
# 2 -0.000759 0.007933 -0.005634 0.000000 0.000000 0.000000
# 3 -0.002842 -0.005634 0.023609 0.000000 0.000000 0.000000
# 4 0.000000 0.000000 0.000000 0.025315 0.000000 0.000000
# 5 0.000000 0.000000 0.000000 0.000000 0.021013 0.000000
# 6 0.000000 0.000000 0.000000 0.000000 0.000000 0.281210
#
#
# Mechanical properties :
#
#
# Convention : Reuss Voigt Hill
#
# Bulk Modulus (GPa) = 53.48930 73.83554 63.66242
# Shear Modulus (GPa) = 12.84020 37.94733 25.39377
#
# Velocity S-wave (km/s) = 2.34555 4.03227 3.29854
# Velocity P-wave (km/s) = 5.50035 7.30171 6.46409
#
# Compressibility (1/GPa) = 0.01869533
#
# Stress axis : x y z
#
# Youngs Moduli (GPa) = 177.87590 126.05223 42.35727
#
# Poissons Ratio (x) = 0.09567 0.12037
# Poissons Ratio (y) = 0.13500 0.23862
# Poissons Ratio (z) = 0.50547 0.71013
#
# Static dielectric constant tensor:
#      x y z
#    x 1.793380 0.000000 0.000000 
#    y 0.000000 1.903110 0.000000 
#    z 0.000000 0.000000 1.957480 
# 
# From -- ./inp_files/4960.got.cif
#   From: 2010.05.17/outbox.cif.g08.bks.cpg/sg73_3_cif.got.tgz:4960.got - 2010.06.03 17:35:07.
