data_PCOD9531764
_publ_section_title
;
Structure prediction by ZEFSAII (Michael W. Deem and Ramdas Pophale) SiO2 
 PCOD9531764
Probable space group: I B C A 
;
_chemical_formula_sum "Si O2"
_cell_formula_units_Z 104
_cell_length_a 20.061728
_cell_length_b 27.148636
_cell_length_c 9.252584
_cell_angle_alpha 90.000000
_cell_angle_beta 90.000000
_cell_angle_gamma 90.000000
_cell_volume 5039.406469
_symmetry_space_group_name_H-M "I B C A "
_symmetry_group_IT_number 73
_symmetry_cell_setting 'orthorhombic'
loop_
_space_group_symop_operation_xyz
x,y,z
-x,1/2-y,z
x,-y,1/2-z
1/2-x,y,-z
-x,-y,-z
x,1/2+y,-z
-x,y,1/2+z
1/2+x,-y,z
1/2+x,1/2+y,1/2+z
1/2-x,-y,1/2+z
1/2+x,1/2-y,-z
-x,1/2+y,1/2-z
1/2-x,1/2-y,1/2-z
1/2+x,y,1/2-z
1/2-x,1/2+y,z
x,1/2-y,1/2+z
loop_
_atom_site_type_symbol
_atom_site_label
_atom_site_fract_x
_atom_site_fract_y
_atom_site_fract_z
Si Si1 0.950529 0.210559 0.853967
Si Si2 0.250000 0.568108 0.000000
Si Si3 0.250000 0.255002 0.000000
Si Si4 0.806328 0.000000 0.250000
Si Si5 0.565135 0.449119 0.284022
Si Si6 0.992431 0.851061 0.404214
Si Si7 0.160589 0.212875 0.751942
Si Si8 0.380092 0.876792 0.430652
O O1 0.994906 0.181294 0.737724
O O2 0.891891 0.242062 0.778783
O O3 0.000000 0.250000 0.925302
O O4 0.939357 0.172631 0.984800
O O5 0.235753 0.533470 0.139731
O O6 0.185644 0.603611 0.990410
O O7 0.213842 0.222668 0.879398
O O8 0.304215 0.284110 0.903668
O O9 0.860753 0.033867 0.162640
O O10 0.527475 0.500000 0.250000
O O11 0.528048 0.407171 0.372058
O O12 0.582306 0.424038 0.131901
O O13 0.066489 0.849834 0.471504
O O14 0.135177 0.158773 0.794740
#
# Coordination Sequence:
#
# PCOD9531764 Si02
#       8
#    16   8   8   8  16  16  16  16
#     4  12  25  39  69  97 138 175 223 272 337 403
#     4  10  21  46  69  94 128 176 223 278 343 402
#     4  10  25  42  65  92 134 182 225 268 333 384
#     4   8  20  44  68  92 126 178 216 286 340 400
#     4   9  21  43  64  91 135 169 212 286 340 393
#     4  12  23  42  64 106 127 182 219 279 340 402
#     4  11  23  43  65  97 136 180 223 278 325 400
#     4  11  22  40  69  95 135 171 224 274 333 400
#
# _framework density 20.637350999999999
#
# number of rings (size 3 to 8) (size 9 to 14) (size 15 to 20)
#    0.462    0.923    3.077    1.846    4.308    1.846 
#    4.154    3.077    0.000    0.000    0.000    0.000 
#    0.000    0.000    0.000    0.000    0.000    0.000 
#
# Total GULP energy -289699.433852 kJ/mol
# GULP energy per Si atom -5571.142959 kJ/mol
# Density = 2.059038 g / cm^3
# Si number density = 20.637351 Si / 1000 Ang^3
#
#
#
# Elastic Constant Matrix: (Units=GPa)
#
#
# Indices 1 2 3 4 5 6 
#
# 1 85.5094 32.6371 33.9354 0.0000 0.0000 0.0000
# 2 32.6371 124.9139 40.1562 0.0000 0.0000 0.0000
# 3 33.9354 40.1562 85.2063 0.0000 0.0000 0.0000
# 4 0.0000 0.0000 0.0000 31.1354 0.0000 0.0000
# 5 0.0000 0.0000 0.0000 0.0000 36.9187 0.0000
# 6 0.0000 0.0000 0.0000 0.0000 0.0000 31.4680
#
#
#
# Elastic Compliance Matrix: (Units=1/GPa)
#
#
# Indices 1 2 3 4 5 6 
#
# 1 0.014413 -0.002263 -0.004674 0.000000 0.000000 0.000000
# 2 -0.002263 0.009790 -0.003713 0.000000 0.000000 0.000000
# 3 -0.004674 -0.003713 0.015347 0.000000 0.000000 0.000000
# 4 0.000000 0.000000 0.000000 0.032118 0.000000 0.000000
# 5 0.000000 0.000000 0.000000 0.000000 0.027087 0.000000
# 6 0.000000 0.000000 0.000000 0.000000 0.000000 0.031778
#
#
# Mechanical properties :
#
#
# Convention : Reuss Voigt Hill
#
# Bulk Modulus (GPa) = 54.78977 56.56524 55.67750
# Shear Modulus (GPa) = 31.66221 32.49783 32.08002
#
# Velocity S-wave (km/s) = 3.92116 3.97257 3.94695
# Velocity P-wave (km/s) = 6.86346 6.96494 6.91439
#
# Compressibility (1/GPa) = 0.01825158
#
# Stress axis : x y z
#
# Youngs Moduli (GPa) = 69.38017 102.14119 65.15789
#
# Poissons Ratio (x) = 0.23119 0.30453
# Poissons Ratio (y) = 0.15703 0.24190
# Poissons Ratio (z) = 0.32427 0.37921
#
# Static dielectric constant tensor:
#      x y z
#    x 1.824970 0.000000 0.000000 
#    y 0.000000 1.777190 0.000000 
#    z 0.000000 0.000000 1.754710 
# 
# From -- ./inp_files/7351.got.cif
#   From: 2010.05.17/outbox.cif.g08.bks.cpg/sg73_4_cif.got.tgz:7351.got - 2010.06.03 17:35:07.
