data_PCOD9531198
_publ_section_title
;
Structure prediction by ZEFSAII (Michael W. Deem and Ramdas Pophale) SiO2 
 PCOD9531198
Probable space group: I B C A 
;
_chemical_formula_sum "Si O2"
_cell_formula_units_Z 120
_cell_length_a 21.675967
_cell_length_b 8.566917
_cell_length_c 29.311963
_cell_angle_alpha 90.000000
_cell_angle_beta 90.000000
_cell_angle_gamma 90.000000
_cell_volume 5443.120442
_symmetry_space_group_name_H-M "I B C A "
_symmetry_group_IT_number 73
_symmetry_cell_setting 'orthorhombic'
loop_
_space_group_symop_operation_xyz
x,y,z
-x,1/2-y,z
x,-y,1/2-z
1/2-x,y,-z
-x,-y,-z
x,1/2+y,-z
-x,y,1/2+z
1/2+x,-y,z
1/2+x,1/2+y,1/2+z
1/2-x,-y,1/2+z
1/2+x,1/2-y,-z
-x,1/2+y,1/2-z
1/2-x,1/2-y,1/2-z
1/2+x,y,1/2-z
1/2-x,1/2+y,z
x,1/2-y,1/2+z
loop_
_atom_site_type_symbol
_atom_site_label
_atom_site_fract_x
_atom_site_fract_y
_atom_site_fract_z
Si Si1 0.981363 0.074685 0.792281
Si Si2 0.860340 0.681207 0.350304
Si Si3 0.648255 0.962750 0.495740
Si Si4 0.819646 0.187628 0.247692
Si Si5 0.627035 0.827705 0.340939
Si Si6 0.863236 0.697197 0.565176
Si Si7 0.785085 0.728806 0.438717
Si Si8 0.000000 0.250000 0.666472
O O1 0.942794 0.118467 0.835861
O O2 0.000000 0.250000 0.777083
O O3 0.943328 0.000000 0.750000
O O4 0.017213 0.915355 0.806625
O O5 0.846669 0.749574 0.300090
O O6 0.841708 0.495744 0.350393
O O7 0.816675 0.753738 0.389407
O O8 0.934139 0.710387 0.357935
O O9 0.611984 0.057880 0.534322
O O10 0.683952 0.079684 0.462520
O O11 0.612958 0.849862 0.461369
O O12 0.694211 0.865220 0.527658
O O13 0.750000 0.250000 0.250000
O O14 0.852454 0.255136 0.293000
O O15 0.822395 0.000000 0.250000
O O16 0.627656 0.704433 0.381312
O O17 0.788148 0.707506 0.562235
#
# Coordination Sequence:
#
# PCOD9531198 Si02
#       8
#    16  16  16  16  16  16  16   8
#     4  11  23  40  67  91 125 164 218 277 326 380
#     4  11  24  43  65  90 129 173 215 267 331 382
#     4  10  21  35  56  92 124 159 207 262 311 387
#     4  12  27  43  63  92 133 172 211 255 318 401
#     4  11  24  41  61  93 126 167 207 268 321 382
#     4  11  20  35  59  89 129 156 208 252 321 385
#     4  11  20  35  61  89 123 167 203 260 321 387
#     4  10  24  42  62  96 126 164 226 282 318 392
#
# _framework density 22.046178999999999
#
# number of rings (size 3 to 8) (size 9 to 14) (size 15 to 20)
#    0.000    1.067    2.000    6.800    3.733    0.000 
#    0.000    0.000    0.000    0.800    6.933    0.000 
#    0.000    0.000    0.000    0.000    0.000    0.000 
#
# Total GULP energy -334090.235955 kJ/mol
# GULP energy per Si atom -5568.170599 kJ/mol
# Density = 2.199600 g / cm^3
# Si number density = 22.046179 Si / 1000 Ang^3
#
#
#
# Elastic Constant Matrix: (Units=GPa)
#
#
# Indices 1 2 3 4 5 6 
#
# 1 34.3981 -0.1367 12.5600 0.0000 0.0000 0.0000
# 2 -0.1367 105.3689 19.8733 0.0000 0.0000 0.0000
# 3 12.5600 19.8733 144.4391 0.0000 0.0000 0.0000
# 4 0.0000 0.0000 0.0000 24.1129 0.0000 0.0000
# 5 0.0000 0.0000 0.0000 0.0000 2.5805 0.0000
# 6 0.0000 0.0000 0.0000 0.0000 0.0000 16.7763
#
#
#
# Elastic Compliance Matrix: (Units=1/GPa)
#
#
# Indices 1 2 3 4 5 6 
#
# 1 0.030055 0.000546 -0.002689 0.000000 0.000000 0.000000
# 2 0.000546 0.009753 -0.001389 0.000000 0.000000 0.000000
# 3 -0.002689 -0.001389 0.007348 0.000000 0.000000 0.000000
# 4 0.000000 0.000000 0.000000 0.041472 0.000000 0.000000
# 5 0.000000 0.000000 0.000000 0.000000 0.387528 0.000000
# 6 0.000000 0.000000 0.000000 0.000000 0.000000 0.059608
#
#
# Mechanical properties :
#
#
# Convention : Reuss Voigt Hill
#
# Bulk Modulus (GPa) = 24.94216 38.75550 31.84883
# Shear Modulus (GPa) = 8.98969 25.48791 17.23880
#
# Velocity S-wave (km/s) = 2.02151 3.40386 2.79935
# Velocity P-wave (km/s) = 4.09718 5.75028 4.99262
#
# Compressibility (1/GPa) = 0.04009275
#
# Stress axis : x y z
#
# Youngs Moduli (GPa) = 33.27208 102.53015 136.08591
#
# Poissons Ratio (x) = -0.05599 0.36589
# Poissons Ratio (y) = -0.01817 0.18908
# Poissons Ratio (z) = 0.08946 0.14246
#
# Static dielectric constant tensor:
#      x y z
#    x 1.899070 0.000000 0.000000 
#    y 0.000000 1.840740 0.000000 
#    z 0.000000 0.000000 1.837960 
# 
# From -- ./inp_files/32913.got.cif
#   From: 2010.05.17/outbox.cif.g08.bks.cpg/sg73_17_cif.got.tgz:32913.got - 2010.06.03 17:35:07.
