data_PCOD9531268
_publ_section_title
;
Structure prediction by ZEFSAII (Michael W. Deem and Ramdas Pophale) SiO2 
 PCOD9531268
Probable space group: I B C A 
;
_chemical_formula_sum "Si O2"
_cell_formula_units_Z 96
_cell_length_a 12.745908
_cell_length_b 18.857407
_cell_length_c 20.514709
_cell_angle_alpha 90.000000
_cell_angle_beta 90.000000
_cell_angle_gamma 90.000000
_cell_volume 4930.808261
_symmetry_space_group_name_H-M "I B C A "
_symmetry_group_IT_number 73
_symmetry_cell_setting 'orthorhombic'
loop_
_space_group_symop_operation_xyz
x,y,z
-x,1/2-y,z
x,-y,1/2-z
1/2-x,y,-z
-x,-y,-z
x,1/2+y,-z
-x,y,1/2+z
1/2+x,-y,z
1/2+x,1/2+y,1/2+z
1/2-x,-y,1/2+z
1/2+x,1/2-y,-z
-x,1/2+y,1/2-z
1/2-x,1/2-y,1/2-z
1/2+x,y,1/2-z
1/2-x,1/2+y,z
x,1/2-y,1/2+z
loop_
_atom_site_type_symbol
_atom_site_label
_atom_site_fract_x
_atom_site_fract_y
_atom_site_fract_z
Si Si1 0.390722 0.708592 0.413409
Si Si2 0.655132 0.562680 0.704165
Si Si3 0.003046 0.118069 0.808129
Si Si4 0.869788 0.583086 0.994845
Si Si5 0.998043 0.503520 0.398331
Si Si6 0.206627 0.798314 0.691473
O O1 0.500000 0.750000 0.424596
O O2 0.416424 0.652687 0.355651
O O3 0.366098 0.663705 0.478100
O O4 0.304657 0.759257 0.378962
O O5 0.702568 0.500000 0.750000
O O6 0.555377 0.589558 0.745625
O O7 0.603643 0.533233 0.638725
O O8 0.727386 0.629584 0.690289
O O9 0.088407 0.177022 0.792922
O O10 0.051237 0.052092 0.848417
O O11 0.922024 0.562692 0.925571
O O12 0.750000 0.556398 0.000000
O O13 0.948839 0.543433 0.043947
O O14 0.250000 0.750000 0.750000
#
# Coordination Sequence:
#
# PCOD9531268 Si02
#       6
#    16  16  16  16  16  16
#     4   9  19  39  57  78 119 160 192 241 304 359
#     4  10  21  37  57  93 125 151 199 248 302 366
#     4   9  19  37  59  84 121 153 189 242 306 361
#     4  10  21  39  61  81 113 159 207 245 292 348
#     4   9  21  39  58  87 116 153 200 256 289 348
#     4  11  21  34  62  93 120 158 191 240 307 376
#
# _framework density 19.469425000000001
#
# number of rings (size 3 to 8) (size 9 to 14) (size 15 to 20)
#    0.000    2.333    1.667    0.000    2.333    3.333 
#    3.000    0.000    0.000    0.000    0.000    0.000 
#    0.000    0.000    0.000    0.000    0.000    0.000 
#
# Total GULP energy -267312.904676 kJ/mol
# GULP energy per Si atom -5569.018847 kJ/mol
# Density = 1.942511 g / cm^3
# Si number density = 19.469425 Si / 1000 Ang^3
#
#
#
# Elastic Constant Matrix: (Units=GPa)
#
#
# Indices 1 2 3 4 5 6 
#
# 1 52.4265 32.9157 19.4553 0.0000 0.0000 0.0000
# 2 32.9157 108.4606 34.9857 0.0000 0.0000 0.0000
# 3 19.4553 34.9857 43.8844 0.0000 0.0000 0.0000
# 4 0.0000 0.0000 0.0000 21.8471 0.0000 0.0000
# 5 0.0000 0.0000 0.0000 0.0000 15.9442 0.0000
# 6 0.0000 0.0000 0.0000 0.0000 0.0000 30.5586
#
#
#
# Elastic Compliance Matrix: (Units=1/GPa)
#
#
# Indices 1 2 3 4 5 6 
#
# 1 0.024974 -0.005395 -0.006771 0.000000 0.000000 0.000000
# 2 -0.005395 0.013577 -0.008432 0.000000 0.000000 0.000000
# 3 -0.006771 -0.008432 0.032511 0.000000 0.000000 0.000000
# 4 0.000000 0.000000 0.000000 0.045773 0.000000 0.000000
# 5 0.000000 0.000000 0.000000 0.000000 0.062719 0.000000
# 6 0.000000 0.000000 0.000000 0.000000 0.000000 0.032724
#
#
# Mechanical properties :
#
#
# Convention : Reuss Voigt Hill
#
# Bulk Modulus (GPa) = 33.48240 42.16500 37.82370
# Shear Modulus (GPa) = 18.98039 21.49762 20.23900
#
# Velocity S-wave (km/s) = 3.12570 3.32652 3.22767
# Velocity P-wave (km/s) = 5.50104 6.03807 5.77580
#
# Compressibility (1/GPa) = 0.02986643
#
# Stress axis : x y z
#
# Youngs Moduli (GPa) = 40.04124 73.65266 30.75864
#
# Poissons Ratio (x) = 0.39737 0.20826
# Poissons Ratio (y) = 0.21603 0.25936
# Poissons Ratio (z) = 0.27111 0.62106
#
# Static dielectric constant tensor:
#      x y z
#    x 1.668560 0.000000 0.000000 
#    y 0.000000 1.746730 0.000000 
#    z 0.000000 0.000000 1.709460 
# 
# From -- ./inp_files/21363.got.cif
#   From: 2010.05.17/outbox.cif.g08.bks.cpg/sg73_11_cif.got.tgz:21363.got - 2010.06.03 17:35:07.
