data_PCOD9531537
_publ_section_title
;
Structure prediction by ZEFSAII (Michael W. Deem and Ramdas Pophale) SiO2 
 PCOD9531537
Probable space group: I B C A 
;
_chemical_formula_sum "Si O2"
_cell_formula_units_Z 120
_cell_length_a 29.996399
_cell_length_b 8.057176
_cell_length_c 22.983722
_cell_angle_alpha 90.000000
_cell_angle_beta 90.000000
_cell_angle_gamma 90.000000
_cell_volume 5554.849951
_symmetry_space_group_name_H-M "I B C A "
_symmetry_group_IT_number 73
_symmetry_cell_setting 'orthorhombic'
loop_
_space_group_symop_operation_xyz
x,y,z
-x,1/2-y,z
x,-y,1/2-z
1/2-x,y,-z
-x,-y,-z
x,1/2+y,-z
-x,y,1/2+z
1/2+x,-y,z
1/2+x,1/2+y,1/2+z
1/2-x,-y,1/2+z
1/2+x,1/2-y,-z
-x,1/2+y,1/2-z
1/2-x,1/2-y,1/2-z
1/2+x,y,1/2-z
1/2-x,1/2+y,z
x,1/2-y,1/2+z
loop_
_atom_site_type_symbol
_atom_site_label
_atom_site_fract_x
_atom_site_fract_y
_atom_site_fract_z
Si Si1 0.931662 0.150759 0.687294
Si Si2 0.317953 0.290348 0.150067
Si Si3 0.500000 0.750000 0.095865
Si Si4 0.949231 0.233321 0.809428
Si Si5 0.654538 0.809795 0.727311
Si Si6 0.448390 0.059746 0.494520
Si Si7 0.598511 0.207028 0.580589
Si Si8 0.767400 0.094914 0.687622
O O1 0.948625 0.267896 0.740830
O O2 0.882854 0.235962 0.683431
O O3 0.970932 0.144556 0.640205
O O4 0.928408 0.951806 0.693485
O O5 0.345137 0.289350 0.211262
O O6 0.350892 0.248674 0.097182
O O7 0.279218 0.154852 0.161295
O O8 0.293854 0.467386 0.146695
O O9 0.459323 0.806350 0.054856
O O10 0.922882 0.338740 0.856994
O O11 0.000000 0.250000 0.828807
O O12 0.701716 0.756453 0.699361
O O13 0.649725 0.000000 0.750000
O O14 0.428438 0.137088 0.553034
O O15 0.500000 0.000000 0.500000
O O16 0.413542 0.933678 0.465888
O O17 0.762910 0.000000 0.750000
#
# Coordination Sequence:
#
# PCOD9531537 Si02
#       8
#    16  16   8  16  16  16  16  16
#     4  11  24  36  62  99 140 175 221 276 349 427
#     4  11  22  41  68 101 134 176 227 277 354 416
#     4  12  24  42  60  96 138 180 226 280 346 402
#     4  11  22  41  62  92 139 179 217 281 356 412
#     4  11  22  37  60 101 146 183 225 269 342 433
#     4  12  25  47  69  94 130 182 241 288 331 400
#     4  12  25  44  72  97 128 177 242 286 340 408
#     4  10  21  40  66 100 144 180 215 278 353 440
#
# _framework density 21.602744000000001
#
# number of rings (size 3 to 8) (size 9 to 14) (size 15 to 20)
#    0.000    0.800    3.333    6.000    5.600    1.067 
#    0.000    0.000    0.000    2.400    0.000    0.000 
#    0.000    0.000    0.000    0.000    0.000    0.000 
#
# Total GULP energy -334083.380114 kJ/mol
# GULP energy per Si atom -5568.056335 kJ/mol
# Density = 2.155358 g / cm^3
# Si number density = 21.602744 Si / 1000 Ang^3
#
#
#
# Elastic Constant Matrix: (Units=GPa)
#
#
# Indices 1 2 3 4 5 6 
#
# 1 158.2219 52.3538 33.8288 0.0000 0.0000 0.0000
# 2 52.3538 81.3385 12.1434 0.0000 0.0000 0.0000
# 3 33.8288 12.1434 60.6729 0.0000 0.0000 0.0000
# 4 0.0000 0.0000 0.0000 20.0214 0.0000 0.0000
# 5 0.0000 0.0000 0.0000 0.0000 45.2406 0.0000
# 6 0.0000 0.0000 0.0000 0.0000 0.0000 36.2335
#
#
#
# Elastic Compliance Matrix: (Units=1/GPa)
#
#
# Indices 1 2 3 4 5 6 
#
# 1 0.008847 -0.005111 -0.003910 0.000000 0.000000 0.000000
# 2 -0.005111 0.015625 -0.000278 0.000000 0.000000 0.000000
# 3 -0.003910 -0.000278 0.018717 0.000000 0.000000 0.000000
# 4 0.000000 0.000000 0.000000 0.049946 0.000000 0.000000
# 5 0.000000 0.000000 0.000000 0.000000 0.022104 0.000000
# 6 0.000000 0.000000 0.000000 0.000000 0.000000 0.027599
#
#
# Mechanical properties :
#
#
# Convention : Reuss Voigt Hill
#
# Bulk Modulus (GPa) = 40.66197 55.20946 47.93571
# Shear Modulus (GPa) = 29.47515 33.75960 31.61738
#
# Velocity S-wave (km/s) = 3.69781 3.95745 3.82983
# Velocity P-wave (km/s) = 6.09058 6.81865 6.46487
#
# Compressibility (1/GPa) = 0.02459301
#
# Stress axis : x y z
#
# Youngs Moduli (GPa) = 113.02819 63.99836 53.42599
#
# Poissons Ratio (x) = 0.32709 0.20890
# Poissons Ratio (y) = 0.57767 0.01484
# Poissons Ratio (z) = 0.44194 0.01777
#
# Static dielectric constant tensor:
#      x y z
#    x 1.853510 0.000000 0.000000 
#    y 0.000000 1.819930 0.000000 
#    z 0.000000 0.000000 1.932970 
# 
# From -- ./inp_files/30521.got.cif
#   From: 2010.05.17/outbox.cif.g08.bks.cpg/sg73_16_cif.got.tgz:30521.got - 2010.06.03 17:35:07.
