data_PCOD9531488
_publ_section_title
;
Structure prediction by ZEFSAII (Michael W. Deem and Ramdas Pophale) SiO2 
 PCOD9531488
Probable space group: I B C A 
;
_chemical_formula_sum "Si O2"
_cell_formula_units_Z 112
_cell_length_a 10.576521
_cell_length_b 34.812349
_cell_length_c 14.570772
_cell_angle_alpha 90.000000
_cell_angle_beta 90.000000
_cell_angle_gamma 90.000000
_cell_volume 5364.864127
_symmetry_space_group_name_H-M "I B C A "
_symmetry_group_IT_number 73
_symmetry_cell_setting 'orthorhombic'
loop_
_space_group_symop_operation_xyz
x,y,z
-x,1/2-y,z
x,-y,1/2-z
1/2-x,y,-z
-x,-y,-z
x,1/2+y,-z
-x,y,1/2+z
1/2+x,-y,z
1/2+x,1/2+y,1/2+z
1/2-x,-y,1/2+z
1/2+x,1/2-y,-z
-x,1/2+y,1/2-z
1/2-x,1/2-y,1/2-z
1/2+x,y,1/2-z
1/2-x,1/2+y,z
x,1/2-y,1/2+z
loop_
_atom_site_type_symbol
_atom_site_label
_atom_site_fract_x
_atom_site_fract_y
_atom_site_fract_z
Si Si1 0.910840 0.841122 0.336027
Si Si2 0.409570 0.964057 0.470967
Si Si3 0.286559 0.481393 0.844132
Si Si4 0.094257 0.918578 0.149756
Si Si5 0.121430 0.166543 0.319846
Si Si6 0.395281 0.217663 0.505348
Si Si7 0.486034 0.425479 0.349787
O O1 0.770532 0.834378 0.293593
O O2 0.912988 0.814929 0.426981
O O3 0.933514 0.886162 0.359435
O O4 0.023135 0.831261 0.264345
O O5 0.470093 0.937860 0.390737
O O6 0.411441 0.935942 0.558284
O O7 0.500000 0.000000 0.500000
O O8 0.297079 0.985006 0.417456
O O9 0.237970 0.500000 0.750000
O O10 0.202418 0.447145 0.883324
O O11 0.421563 0.461288 0.827988
O O12 0.103165 0.874099 0.127209
O O13 0.098807 0.919810 0.260222
O O14 0.093540 0.199246 0.393792
O O15 0.500000 0.250000 0.491312
O O16 0.250000 0.232077 0.500000
#
# Coordination Sequence:
#
# PCOD9531488 Si02
#       7
#    16  16  16  16  16  16  16
#     4  10  21  42  67 101 130 177 222 273 327 413
#     4  10  23  36  52  82 111 152 213 270 322 385
#     4  11  22  36  56  79 117 160 211 268 339 369
#     4  11  22  40  60  80 123 168 208 279 323 397
#     4  10  22  41  71  96 134 175 228 264 337 402
#     4  10  23  43  70 104 139 174 214 270 333 406
#     4  10  21  40  59  84 117 160 218 262 328 380
#
# _framework density 20.876577999999999
#
# number of rings (size 3 to 8) (size 9 to 14) (size 15 to 20)
#    0.000    1.714    2.857    0.857    4.000    4.000 
#    0.000    2.857    0.000    0.000    0.000    0.000 
#    0.000    0.000    0.000    0.000    0.000    0.000 
#
# Total GULP energy -312624.457249 kJ/mol
# GULP energy per Si atom -5582.579594 kJ/mol
# Density = 2.082906 g / cm^3
# Si number density = 20.876578 Si / 1000 Ang^3
#
#
#
# Elastic Constant Matrix: (Units=GPa)
#
#
# Indices 1 2 3 4 5 6 
#
# 1 92.5971 41.6873 37.9913 0.0000 0.0000 0.0000
# 2 41.6873 73.0542 26.9036 0.0000 0.0000 0.0000
# 3 37.9913 26.9036 99.4433 0.0000 0.0000 0.0000
# 4 0.0000 0.0000 0.0000 24.0067 0.0000 0.0000
# 5 0.0000 0.0000 0.0000 0.0000 25.2236 0.0000
# 6 0.0000 0.0000 0.0000 0.0000 0.0000 36.9461
#
#
#
# Elastic Compliance Matrix: (Units=1/GPa)
#
#
# Indices 1 2 3 4 5 6 
#
# 1 0.015852 -0.007569 -0.004008 0.000000 0.000000 0.000000
# 2 -0.007569 0.018818 -0.002199 0.000000 0.000000 0.000000
# 3 -0.004008 -0.002199 0.012182 0.000000 0.000000 0.000000
# 4 0.000000 0.000000 0.000000 0.041655 0.000000 0.000000
# 5 0.000000 0.000000 0.000000 0.000000 0.039645 0.000000
# 6 0.000000 0.000000 0.000000 0.000000 0.000000 0.027066
#
#
# Mechanical properties :
#
#
# Convention : Reuss Voigt Hill
#
# Bulk Modulus (GPa) = 51.81838 53.13989 52.47913
# Shear Modulus (GPa) = 26.42637 27.80276 27.11457
#
# Velocity S-wave (km/s) = 3.56172 3.65330 3.60780
# Velocity P-wave (km/s) = 6.46449 6.58066 6.52283
#
# Compressibility (1/GPa) = 0.01929817
#
# Stress axis : x y z
#
# Youngs Moduli (GPa) = 63.08450 53.14126 82.08693
#
# Poissons Ratio (x) = 0.40225 0.32902
# Poissons Ratio (y) = 0.47752 0.18052
# Poissons Ratio (z) = 0.25285 0.11687
#
# Static dielectric constant tensor:
#      x y z
#    x 1.833650 0.000000 0.000000 
#    y 0.000000 1.723670 0.000000 
#    z 0.000000 0.000000 -0.390440 
# 
# From -- ./inp_files/16364.got.cif
#   From: 2010.05.17/outbox.cif.g08.bks.cpg/sg73_9_cif.got.tgz:16364.got - 2010.06.03 17:35:07.
