data_PCOD9531648
_publ_section_title
;
Structure prediction by ZEFSAII (Michael W. Deem and Ramdas Pophale) SiO2 
 PCOD9531648
Probable space group: I B C A 
;
_chemical_formula_sum "Si O2"
_cell_formula_units_Z 80
_cell_length_a 16.914324
_cell_length_b 22.407768
_cell_length_c 7.701570
_cell_angle_alpha 90.000000
_cell_angle_beta 90.000000
_cell_angle_gamma 90.000000
_cell_volume 2918.989359
_symmetry_space_group_name_H-M "I B C A "
_symmetry_group_IT_number 73
_symmetry_cell_setting 'orthorhombic'
loop_
_space_group_symop_operation_xyz
x,y,z
-x,1/2-y,z
x,-y,1/2-z
1/2-x,y,-z
-x,-y,-z
x,1/2+y,-z
-x,y,1/2+z
1/2+x,-y,z
1/2+x,1/2+y,1/2+z
1/2-x,-y,1/2+z
1/2+x,1/2-y,-z
-x,1/2+y,1/2-z
1/2-x,1/2-y,1/2-z
1/2+x,y,1/2-z
1/2-x,1/2+y,z
x,1/2-y,1/2+z
loop_
_atom_site_type_symbol
_atom_site_label
_atom_site_fract_x
_atom_site_fract_y
_atom_site_fract_z
Si Si1 0.078733 0.789407 0.008230
Si Si2 0.755528 0.105487 0.296519
Si Si3 0.915543 0.058043 0.407098
Si Si4 0.518420 0.129835 0.298923
Si Si5 0.250000 0.295194 0.000000
Si Si6 0.631003 0.500000 0.750000
O O1 0.165611 0.761846 0.002449
O O2 0.000000 0.750000 0.018304
O O3 0.073382 0.833112 0.172456
O O4 0.058567 0.830960 0.843546
O O5 0.750000 0.122533 0.500000
O O6 0.836932 0.067697 0.296991
O O7 0.686352 0.059180 0.245477
O O8 0.755046 0.160910 0.166572
O O9 0.988418 0.066438 0.274531
O O10 0.904494 0.007417 0.552369
O O11 0.935583 0.116152 0.525380
#
# Coordination Sequence:
#
# PCOD9531648 Si02
#       6
#    16  16  16  16   8   8
#     4  11  23  44  73 107 143 189 256 320 388 468
#     4  10  22  41  67 105 148 190 253 304 372 453
#     4  10  21  42  65 103 143 197 250 300 384 456
#     4  10  22  44  71  95 149 201 236 317 392 454
#     4  12  24  44  78 106 144 212 248 314 402 460
#     4  10  22  38  66 102 146 186 244 326 352 440
#
# _framework density 27.406745000000001
#
# number of rings (size 3 to 8) (size 9 to 14) (size 15 to 20)
#    0.000    1.600    2.000    3.000    4.200    0.800 
#    0.000    5.000   13.200    0.000    0.000    0.000 
#    0.000    0.000    0.000    0.000    0.000    0.000 
#
# Total GULP energy -223761.006518 kJ/mol
# GULP energy per Si atom -5594.025163 kJ/mol
# Density = 2.734437 g / cm^3
# Si number density = 27.406745 Si / 1000 Ang^3
#
#
#
# Elastic Constant Matrix: (Units=GPa)
#
#
# Indices 1 2 3 4 5 6 
#
# 1 155.9512 49.1299 28.8929 0.0000 0.0000 0.0000
# 2 49.1299 82.5024 37.2922 0.0000 0.0000 0.0000
# 3 28.8929 37.2922 135.7252 0.0000 0.0000 0.0000
# 4 0.0000 0.0000 0.0000 34.2649 0.0000 0.0000
# 5 0.0000 0.0000 0.0000 0.0000 11.7585 0.0000
# 6 0.0000 0.0000 0.0000 0.0000 0.0000 10.9990
#
#
#
# Elastic Compliance Matrix: (Units=1/GPa)
#
#
# Indices 1 2 3 4 5 6 
#
# 1 0.007916 -0.004513 -0.000445 0.000000 0.000000 0.000000
# 2 -0.004513 0.016412 -0.003549 0.000000 0.000000 0.000000
# 3 -0.000445 -0.003549 0.008438 0.000000 0.000000 0.000000
# 4 0.000000 0.000000 0.000000 0.029184 0.000000 0.000000
# 5 0.000000 0.000000 0.000000 0.000000 0.085045 0.000000
# 6 0.000000 0.000000 0.000000 0.000000 0.000000 0.090917
#
#
# Mechanical properties :
#
#
# Convention : Reuss Voigt Hill
#
# Bulk Modulus (GPa) = 63.48185 67.20099 65.34142
# Shear Modulus (GPa) = 19.21761 28.66206 23.93984
#
# Velocity S-wave (km/s) = 2.65089 3.23740 2.95871
# Velocity P-wave (km/s) = 5.70813 6.20866 5.96365
#
# Compressibility (1/GPa) = 0.01575253
#
# Stress axis : x y z
#
# Youngs Moduli (GPa) = 126.31845 60.92939 118.51582
#
# Poissons Ratio (x) = 0.27497 0.05277
# Poissons Ratio (y) = 0.57007 0.42059
# Poissons Ratio (z) = 0.05624 0.21623
#
# Static dielectric constant tensor:
#      x y z
#    x 2.211150 0.000000 0.000000 
#    y 0.000000 2.131330 0.000000 
#    z 0.000000 0.000000 2.151320 
# 
# From -- ./inp_files/5612.got.cif
#   From: 2010.05.17/outbox.cif.g08.bks.cpg/sg73_3_cif.got.tgz:5612.got - 2010.06.03 17:35:07.
