data_PCOD9531373
_publ_section_title
;
Structure prediction by ZEFSAII (Michael W. Deem and Ramdas Pophale) SiO2 
 PCOD9531373
Probable space group: I B C A 
;
_chemical_formula_sum "Si O2"
_cell_formula_units_Z 104
_cell_length_a 9.210459
_cell_length_b 19.890389
_cell_length_c 26.101455
_cell_angle_alpha 90.000000
_cell_angle_beta 90.000000
_cell_angle_gamma 90.000000
_cell_volume 4781.776439
_symmetry_space_group_name_H-M "I B C A "
_symmetry_group_IT_number 73
_symmetry_cell_setting 'orthorhombic'
loop_
_space_group_symop_operation_xyz
x,y,z
-x,1/2-y,z
x,-y,1/2-z
1/2-x,y,-z
-x,-y,-z
x,1/2+y,-z
-x,y,1/2+z
1/2+x,-y,z
1/2+x,1/2+y,1/2+z
1/2-x,-y,1/2+z
1/2+x,1/2-y,-z
-x,1/2+y,1/2-z
1/2-x,1/2-y,1/2-z
1/2+x,y,1/2-z
1/2-x,1/2+y,z
x,1/2-y,1/2+z
loop_
_atom_site_type_symbol
_atom_site_label
_atom_site_fract_x
_atom_site_fract_y
_atom_site_fract_z
Si Si1 0.901734 0.187897 0.132375
Si Si2 0.376543 0.133299 0.792131
Si Si3 0.510434 0.500000 0.250000
Si Si4 0.886773 0.304531 0.312423
Si Si5 0.400546 0.589000 0.841592
Si Si6 0.319145 0.306172 0.054307
Si Si7 0.849212 0.848678 0.052662
O O1 0.778992 0.208780 0.173462
O O2 0.800319 0.156857 0.088910
O O3 0.000000 0.250000 0.113532
O O4 0.015267 0.140996 0.160721
O O5 0.412915 0.062505 0.766232
O O6 0.402835 0.186580 0.747853
O O7 0.212385 0.134837 0.810233
O O8 0.590370 0.476014 0.196639
O O9 0.000000 0.250000 0.331841
O O10 0.944130 0.373763 0.338597
O O11 0.342135 0.596175 0.900622
O O12 0.315642 0.227529 0.072870
O O13 0.476660 0.338739 0.045468
O O14 0.250000 0.300598 0.000000
O O15 0.750000 0.860189 0.000000
#
# Coordination Sequence:
#
# PCOD9531373 Si02
#       7
#    16  16   8  16  16  16  16
#     4  12  24  36  59  94 131 171 214 259 334 403
#     4  11  24  38  62  87 119 166 218 276 334 406
#     4  10  24  44  66  90 118 168 230 286 346 396
#     4  11  21  37  55  87 129 168 208 266 330 396
#     4  11  22  41  64  89 127 166 221 281 333 409
#     4  10  22  37  59  93 135 172 215 261 317 406
#     4  10  21  38  64  93 129 174 213 267 337 396
#
# _framework density 21.749238999999999
#
# number of rings (size 3 to 8) (size 9 to 14) (size 15 to 20)
#    0.000    1.231    1.538    5.538    6.462    3.077 
#    0.000    0.000    0.000    1.846    0.000    0.000 
#    0.000    0.000    0.000    0.000    0.000    0.000 
#
# Total GULP energy -289469.640371 kJ/mol
# GULP energy per Si atom -5566.723853 kJ/mol
# Density = 2.169974 g / cm^3
# Si number density = 21.749239 Si / 1000 Ang^3
#
#
#
# Elastic Constant Matrix: (Units=GPa)
#
#
# Indices 1 2 3 4 5 6 
#
# 1 125.4466 10.4992 35.3976 0.0000 0.0000 0.0000
# 2 10.4992 27.8794 31.1441 0.0000 0.0000 0.0000
# 3 35.3976 31.1441 127.4929 0.0000 0.0000 0.0000
# 4 0.0000 0.0000 0.0000 21.1174 0.0000 0.0000
# 5 0.0000 0.0000 0.0000 0.0000 -25.1360 0.0000
# 6 0.0000 0.0000 0.0000 0.0000 0.0000 21.8373
#
#
#
# Elastic Compliance Matrix: (Units=1/GPa)
#
#
# Indices 1 2 3 4 5 6 
#
# 1 0.008662 -0.000791 -0.002212 0.000000 0.000000 0.000000
# 2 -0.000791 0.049403 -0.011848 0.000000 0.000000 0.000000
# 3 -0.002212 -0.011848 0.011352 0.000000 0.000000 0.000000
# 4 0.000000 0.000000 0.000000 0.047354 0.000000 0.000000
# 5 0.000000 0.000000 0.000000 0.000000 -0.039784 0.000000
# 6 0.000000 0.000000 0.000000 0.000000 0.000000 0.045793
#
#
# Mechanical properties :
#
#
# Convention : Reuss Voigt Hill
#
# Bulk Modulus (GPa) = 25.18027 48.32230 36.75129
# Shear Modulus (GPa) = 30.17116 17.14893 23.66005
#
# Velocity S-wave (km/s) = 3.72859 2.81104 3.30184
# Velocity P-wave (km/s) = 5.48992 5.72731 5.60987
#
# Compressibility (1/GPa) = 0.03971363
#
# Stress axis : x y z
#
# Youngs Moduli (GPa) = 115.44944 20.24181 88.09066
#
# Poissons Ratio (x) = 0.01602 0.19482
# Poissons Ratio (y) = 0.09137 1.04373
# Poissons Ratio (z) = 0.25532 0.23983
#
# Static dielectric constant tensor:
#      x y z
#    x 1.788030 0.000000 0.000000 
#    y 0.000000 1.824290 0.000000 
#    z 0.000000 0.000000 1.877070 
# 
# From -- ./inp_files/31243.got.cif
#   From: 2010.05.17/outbox.cif.g08.bks.cpg/sg73_16_cif.got.tgz:31243.got - 2010.06.03 17:35:07.
