data_PCOD9531971
_publ_section_title
;
Structure prediction by ZEFSAII (Michael W. Deem and Ramdas Pophale) SiO2 
 PCOD9531971
Probable space group: I B C A 
;
_chemical_formula_sum "Si O2"
_cell_formula_units_Z 112
_cell_length_a 10.873256
_cell_length_b 23.780125
_cell_length_c 24.128768
_cell_angle_alpha 90.000000
_cell_angle_beta 90.000000
_cell_angle_gamma 90.000000
_cell_volume 6238.912489
_symmetry_space_group_name_H-M "I B C A "
_symmetry_group_IT_number 73
_symmetry_cell_setting 'orthorhombic'
loop_
_space_group_symop_operation_xyz
x,y,z
-x,1/2-y,z
x,-y,1/2-z
1/2-x,y,-z
-x,-y,-z
x,1/2+y,-z
-x,y,1/2+z
1/2+x,-y,z
1/2+x,1/2+y,1/2+z
1/2-x,-y,1/2+z
1/2+x,1/2-y,-z
-x,1/2+y,1/2-z
1/2-x,1/2-y,1/2-z
1/2+x,y,1/2-z
1/2-x,1/2+y,z
x,1/2-y,1/2+z
loop_
_atom_site_type_symbol
_atom_site_label
_atom_site_fract_x
_atom_site_fract_y
_atom_site_fract_z
Si Si1 0.557788 0.307246 0.021137
Si Si2 0.669834 0.617455 0.943183
Si Si3 0.717297 0.206154 0.628488
Si Si4 0.623228 0.714991 0.254713
Si Si5 0.152598 0.325269 0.140503
Si Si6 0.096302 0.872510 0.412714
Si Si7 0.375214 0.991092 0.535706
O O1 0.500000 0.250000 0.997272
O O2 0.453321 0.347717 0.045924
O O3 0.644494 0.288566 0.071207
O O4 0.617672 0.342295 0.971867
O O5 0.738483 0.641882 0.889966
O O6 0.647241 0.551323 0.936224
O O7 0.750000 0.624281 0.000000
O O8 0.624784 0.201321 0.680180
O O9 0.810531 0.259380 0.632768
O O10 0.797203 0.149740 0.626828
O O11 0.500000 0.750000 0.242038
O O12 0.750000 0.750000 0.250000
O O13 0.635416 0.668433 0.206683
O O14 0.031144 0.347642 0.110149
O O15 0.099677 0.938601 0.424165
O O16 0.250000 0.979439 0.500000
O O17 0.500000 0.000000 0.500000
#
# Coordination Sequence:
#
# PCOD9531971 Si02
#       7
#    16  16  16  16  16  16  16
#     4  12  21  33  55  88 127 152 191 242 316 370
#     4  11  22  38  58  86 121 166 200 252 305 372
#     4  11  23  35  57  92 122 155 196 250 311 371
#     4  10  22  40  61  86 122 165 207 250 302 378
#     4  11  21  40  59  85 120 161 202 246 314 371
#     4  12  23  36  59  90 122 160 196 252 307 374
#     4  11  22  41  60  86 125 166 215 250 302 374
#
# _framework density 17.951846
#
# number of rings (size 3 to 8) (size 9 to 14) (size 15 to 20)
#    0.000    0.857    4.286    5.571    2.000    0.000 
#    0.000    0.000    0.000    0.857    0.000    0.000 
#    0.000    0.000    0.000    0.000    0.000    0.000 
#
# Total GULP energy -312481.228922 kJ/mol
# GULP energy per Si atom -5580.021945 kJ/mol
# Density = 1.791099 g / cm^3
# Si number density = 17.951846 Si / 1000 Ang^3
#
#
#
# Elastic Constant Matrix: (Units=GPa)
#
#
# Indices 1 2 3 4 5 6 
#
# 1 85.6766 24.6184 26.8133 0.0000 0.0000 0.0000
# 2 24.6184 111.2124 23.4644 0.0000 0.0000 0.0000
# 3 26.8133 23.4644 74.9708 0.0000 0.0000 0.0000
# 4 0.0000 0.0000 0.0000 5.8062 0.0000 0.0000
# 5 0.0000 0.0000 0.0000 0.0000 32.0348 0.0000
# 6 0.0000 0.0000 0.0000 0.0000 0.0000 23.7141
#
#
#
# Elastic Compliance Matrix: (Units=1/GPa)
#
#
# Indices 1 2 3 4 5 6 
#
# 1 0.013596 -0.002124 -0.004198 0.000000 0.000000 0.000000
# 2 -0.002124 0.009959 -0.002357 0.000000 0.000000 0.000000
# 3 -0.004198 -0.002357 0.015578 0.000000 0.000000 0.000000
# 4 0.000000 0.000000 0.000000 0.172231 0.000000 0.000000
# 5 0.000000 0.000000 0.000000 0.000000 0.031216 0.000000
# 6 0.000000 0.000000 0.000000 0.000000 0.000000 0.042169
#
#
# Mechanical properties :
#
#
# Convention : Reuss Voigt Hill
#
# Bulk Modulus (GPa) = 45.92526 46.85022 46.38774
# Shear Modulus (GPa) = 16.16213 25.44194 20.80204
#
# Velocity S-wave (km/s) = 3.00376 3.76870 3.40776
# Velocity P-wave (km/s) = 6.13744 6.71504 6.43273
#
# Compressibility (1/GPa) = 0.02177451
#
# Stress axis : x y z
#
# Youngs Moduli (GPa) = 73.55193 100.40811 64.19434
#
# Poissons Ratio (x) = 0.21326 0.26947
# Poissons Ratio (y) = 0.15622 0.15133
# Poissons Ratio (z) = 0.30876 0.23671
#
# Static dielectric constant tensor:
#      x y z
#    x 1.748830 0.000000 0.000000 
#    y 0.000000 1.600870 0.000000 
#    z 0.000000 0.000000 1.649730 
# 
# From -- ./inp_files/29045.got.cif
#   From: 2010.05.17/outbox.cif.g08.bks.cpg/sg73_15_cif.got.tgz:29045.got - 2010.06.03 17:35:07.
