data_PCOD9531801
_publ_section_title
;
Structure prediction by ZEFSAII (Michael W. Deem and Ramdas Pophale) SiO2 
 PCOD9531801
Probable space group: I B C A 
;
_chemical_formula_sum "Si O2"
_cell_formula_units_Z 104
_cell_length_a 24.516250
_cell_length_b 20.346014
_cell_length_c 10.228678
_cell_angle_alpha 90.000000
_cell_angle_beta 90.000000
_cell_angle_gamma 90.000000
_cell_volume 5102.146065
_symmetry_space_group_name_H-M "I B C A "
_symmetry_group_IT_number 73
_symmetry_cell_setting 'orthorhombic'
loop_
_space_group_symop_operation_xyz
x,y,z
-x,1/2-y,z
x,-y,1/2-z
1/2-x,y,-z
-x,-y,-z
x,1/2+y,-z
-x,y,1/2+z
1/2+x,-y,z
1/2+x,1/2+y,1/2+z
1/2-x,-y,1/2+z
1/2+x,1/2-y,-z
-x,1/2+y,1/2-z
1/2-x,1/2-y,1/2-z
1/2+x,y,1/2-z
1/2-x,1/2+y,z
x,1/2-y,1/2+z
loop_
_atom_site_type_symbol
_atom_site_label
_atom_site_fract_x
_atom_site_fract_y
_atom_site_fract_z
Si Si1 0.298056 0.000000 0.250000
Si Si2 0.137080 0.282426 0.404102
Si Si3 0.613174 0.138858 0.110751
Si Si4 0.250000 0.783388 0.000000
Si Si5 0.136556 0.896964 0.405325
Si Si6 0.673864 0.362086 0.338473
Si Si7 0.750000 0.547695 0.500000
Si Si8 0.953519 0.011797 0.896372
O O1 0.328086 0.930960 0.237870
O O2 0.261964 0.997396 0.377643
O O3 0.101780 0.216326 0.395584
O O4 0.197226 0.258975 0.457015
O O5 0.115521 0.336772 0.505600
O O6 0.144288 0.311963 0.259327
O O7 0.639261 0.122842 0.252535
O O8 0.565004 0.087095 0.097412
O O9 0.649158 0.126455 0.981707
O O10 0.268342 0.828703 0.123042
O O11 0.196639 0.911689 0.461379
O O12 0.097914 0.961624 0.415957
O O13 0.974164 0.000000 0.750000
O O14 0.000000 0.000000 0.000000
#
# Coordination Sequence:
#
# PCOD9531801 Si02
#       8
#     8  16  16   8  16  16   8  16
#     4  12  26  36  54  92 126 186 220 270 322 374
#     4  11  22  39  62  93 129 179 224 275 322 396
#     4  10  23  41  67  91 131 171 217 272 337 396
#     4  10  22  36  56  82 133 187 226 262 323 385
#     4  11  24  43  65  98 135 178 217 270 338 395
#     4  11  23  36  56  90 132 175 228 271 311 393
#     4  12  26  38  62  92 145 173 224 272 329 397
#     4  10  24  47  74  97 127 171 221 281 340 401
#
# _framework density 20.383579000000001
#
# number of rings (size 3 to 8) (size 9 to 14) (size 15 to 20)
#    0.000    1.231    1.538    4.154    9.692    1.231 
#    1.385    0.769    0.000    3.692    0.000    0.000 
#    0.000    0.000    0.000    0.000    0.000    0.000 
#
# Total GULP energy -290259.062433 kJ/mol
# GULP energy per Si atom -5581.905047 kJ/mol
# Density = 2.033719 g / cm^3
# Si number density = 20.383579 Si / 1000 Ang^3
#
#
#
# Elastic Constant Matrix: (Units=GPa)
#
#
# Indices 1 2 3 4 5 6 
#
# 1 46.1767 33.2156 50.1598 0.0000 0.0000 0.0000
# 2 33.2156 130.9901 43.9659 0.0000 0.0000 0.0000
# 3 50.1598 43.9659 144.1174 0.0000 0.0000 0.0000
# 4 0.0000 0.0000 0.0000 42.0466 0.0000 0.0000
# 5 0.0000 0.0000 0.0000 0.0000 31.2853 0.0000
# 6 0.0000 0.0000 0.0000 0.0000 0.0000 9.1118
#
#
#
# Elastic Compliance Matrix: (Units=1/GPa)
#
#
# Indices 1 2 3 4 5 6 
#
# 1 0.038477 -0.005862 -0.011604 0.000000 0.000000 0.000000
# 2 -0.005862 0.009398 -0.000827 0.000000 0.000000 0.000000
# 3 -0.011604 -0.000827 0.011230 0.000000 0.000000 0.000000
# 4 0.000000 0.000000 0.000000 0.023783 0.000000 0.000000
# 5 0.000000 0.000000 0.000000 0.000000 0.031964 0.000000
# 6 0.000000 0.000000 0.000000 0.000000 0.000000 0.109747
#
#
# Mechanical properties :
#
#
# Convention : Reuss Voigt Hill
#
# Bulk Modulus (GPa) = 44.40503 63.99632 54.20068
# Shear Modulus (GPa) = 18.60876 29.41829 24.01352
#
# Velocity S-wave (km/s) = 3.02475 3.80311 3.43604
# Velocity P-wave (km/s) = 5.83359 7.12384 6.51076
#
# Compressibility (1/GPa) = 0.02251997
#
# Stress axis : x y z
#
# Youngs Moduli (GPa) = 25.98947 106.40394 89.05029
#
# Poissons Ratio (x) = 0.62375 1.03330
# Poissons Ratio (y) = 0.15235 0.07363
# Poissons Ratio (z) = 0.30157 0.08797
#
# Static dielectric constant tensor:
#      x y z
#    x 1.732660 0.000000 0.000000 
#    y 0.000000 1.812940 0.000000 
#    z 0.000000 0.000000 -2.780720 
# 
# From -- ./inp_files/7924.got.cif
#   From: 2010.05.17/outbox.cif.g08.bks.cpg/sg73_4_cif.got.tgz:7924.got - 2010.06.03 17:35:07.
