data_PCOD9531553
_publ_section_title
;
Structure prediction by ZEFSAII (Michael W. Deem and Ramdas Pophale) SiO2 
 PCOD9531553
Probable space group: I B C A 
;
_chemical_formula_sum "Si O2"
_cell_formula_units_Z 88
_cell_length_a 11.034801
_cell_length_b 10.711664
_cell_length_c 30.040420
_cell_angle_alpha 90.000000
_cell_angle_beta 90.000000
_cell_angle_gamma 90.000000
_cell_volume 3550.810106
_symmetry_space_group_name_H-M "I B C A "
_symmetry_group_IT_number 73
_symmetry_cell_setting 'orthorhombic'
loop_
_space_group_symop_operation_xyz
x,y,z
-x,1/2-y,z
x,-y,1/2-z
1/2-x,y,-z
-x,-y,-z
x,1/2+y,-z
-x,y,1/2+z
1/2+x,-y,z
1/2+x,1/2+y,1/2+z
1/2-x,-y,1/2+z
1/2+x,1/2-y,-z
-x,1/2+y,1/2-z
1/2-x,1/2-y,1/2-z
1/2+x,y,1/2-z
1/2-x,1/2+y,z
x,1/2-y,1/2+z
loop_
_atom_site_type_symbol
_atom_site_label
_atom_site_fract_x
_atom_site_fract_y
_atom_site_fract_z
Si Si1 0.132022 0.310327 0.079931
Si Si2 0.924614 0.119730 0.984694
Si Si3 0.500000 0.750000 0.228940
Si Si4 0.365861 0.298104 0.105832
Si Si5 0.867097 0.943388 0.328588
Si Si6 0.116501 0.920909 0.196523
O O1 0.247236 0.221498 0.090697
O O2 0.141576 0.415361 0.118547
O O3 0.000000 0.250000 0.084094
O O4 0.150048 0.354725 0.029621
O O5 0.874844 0.100176 0.934529
O O6 0.000000 0.250000 0.981488
O O7 0.000000 0.000000 0.000000
O O8 0.598161 0.682099 0.198210
O O9 0.426599 0.650694 0.259411
O O10 0.500000 0.250000 0.106386
O O11 0.346166 0.327191 0.157249
O O12 0.744154 0.997698 0.305602
O O13 0.991787 0.018669 0.320876
#
# Coordination Sequence:
#
# PCOD9531553 Si02
#       6
#    16  16   8  16  16  16
#     4  10  21  41  67 100 135 177 223 276 339 406
#     4  10  21  40  68 100 140 180 228 280 342 413
#     4  12  24  44  68  90 130 168 226 278 350 400
#     4  10  21  41  67 100 135 177 223 276 339 406
#     4  11  25  43  67  97 131 172 222 278 342 410
#     4  11  25  43  67  97 131 172 222 278 342 410
#
# _framework density 24.783078
#
# number of rings (size 3 to 8) (size 9 to 14) (size 15 to 20)
#    0.000    1.455    1.818    2.727    0.000    5.818 
#    0.000   18.182    0.000    0.000    0.000    0.000 
#    0.000    0.000    0.000    0.000    0.000    0.000 
#
# Total GULP energy -244969.102893 kJ/mol
# GULP energy per Si atom -5567.479611 kJ/mol
# Density = 2.472667 g / cm^3
# Si number density = 24.783078 Si / 1000 Ang^3
#
#
#
# Elastic Constant Matrix: (Units=GPa)
#
#
# Indices 1 2 3 4 5 6 
#
# 1 193.7907 14.5417 28.4987 0.0000 0.0000 0.0000
# 2 14.5417 43.2425 15.9828 0.0000 0.0000 0.0000
# 3 28.4987 15.9828 179.0798 0.0000 0.0000 0.0000
# 4 0.0000 0.0000 0.0000 15.4320 0.0000 0.0000
# 5 0.0000 0.0000 0.0000 0.0000 29.7895 0.0000
# 6 0.0000 0.0000 0.0000 0.0000 0.0000 24.1470
#
#
#
# Elastic Compliance Matrix: (Units=1/GPa)
#
#
# Indices 1 2 3 4 5 6 
#
# 1 0.005382 -0.001544 -0.000719 0.000000 0.000000 0.000000
# 2 -0.001544 0.024357 -0.001928 0.000000 0.000000 0.000000
# 3 -0.000719 -0.001928 0.005871 0.000000 0.000000 0.000000
# 4 0.000000 0.000000 0.000000 0.064800 0.000000 0.000000
# 5 0.000000 0.000000 0.000000 0.000000 0.033569 0.000000
# 6 0.000000 0.000000 0.000000 0.000000 0.000000 0.041413
#
#
# Mechanical properties :
#
#
# Convention : Reuss Voigt Hill
#
# Bulk Modulus (GPa) = 36.72727 59.35105 48.03916
# Shear Modulus (GPa) = 25.92691 37.67968 31.80330
#
# Velocity S-wave (km/s) = 3.23794 3.90343 3.58616
# Velocity P-wave (km/s) = 5.36942 6.65702 6.04759
#
# Compressibility (1/GPa) = 0.02722773
#
# Stress axis : x y z
#
# Youngs Moduli (GPa) = 185.81286 41.05542 170.34178
#
# Poissons Ratio (x) = 0.06340 0.12241
# Poissons Ratio (y) = 0.28693 0.32844
# Poissons Ratio (z) = 0.13353 0.07916
#
# Static dielectric constant tensor:
#      x y z
#    x 2.477030 0.000000 0.000000 
#    y 0.000000 2.023930 0.000000 
#    z 0.000000 0.000000 2.002610 
# 
# From -- ./inp_files/33894.got.cif
#   From: 2010.05.17/outbox.cif.g08.bks.cpg/sg73_17_cif.got.tgz:33894.got - 2010.06.03 17:35:07.
