data_PCOD9531676
_publ_section_title
;
Structure prediction by ZEFSAII (Michael W. Deem and Ramdas Pophale) SiO2 
 PCOD9531676
Probable space group: I B C A 
;
_chemical_formula_sum "Si O2"
_cell_formula_units_Z 104
_cell_length_a 26.784155
_cell_length_b 20.323086
_cell_length_c 9.289742
_cell_angle_alpha 90.000000
_cell_angle_beta 90.000000
_cell_angle_gamma 90.000000
_cell_volume 5056.747369
_symmetry_space_group_name_H-M "I B C A "
_symmetry_group_IT_number 73
_symmetry_cell_setting 'orthorhombic'
loop_
_space_group_symop_operation_xyz
x,y,z
-x,1/2-y,z
x,-y,1/2-z
1/2-x,y,-z
-x,-y,-z
x,1/2+y,-z
-x,y,1/2+z
1/2+x,-y,z
1/2+x,1/2+y,1/2+z
1/2-x,-y,1/2+z
1/2+x,1/2-y,-z
-x,1/2+y,1/2-z
1/2-x,1/2-y,1/2-z
1/2+x,y,1/2-z
1/2-x,1/2+y,z
x,1/2-y,1/2+z
loop_
_atom_site_type_symbol
_atom_site_label
_atom_site_fract_x
_atom_site_fract_y
_atom_site_fract_z
Si Si1 0.122567 0.437921 0.820470
Si Si2 0.298703 0.165920 0.772398
Si Si3 0.809158 0.611818 0.754345
Si Si4 0.805175 0.488969 0.958043
Si Si5 0.562730 0.812088 0.414283
Si Si6 0.500000 0.750000 0.157971
Si Si7 0.164540 0.219751 0.526020
O O1 0.094773 0.500000 0.750000
O O2 0.161222 0.393602 0.726397
O O3 0.160072 0.523490 0.573877
O O4 0.085410 0.384938 0.890996
O O5 0.241557 0.146965 0.791962
O O6 0.302983 0.194757 0.609203
O O7 0.314229 0.218408 0.890883
O O8 0.793603 0.550726 0.854307
O O9 0.832209 0.572392 0.620306
O O10 0.839557 0.662295 0.852963
O O11 0.750000 0.465403 0.000000
O O12 0.538311 0.785961 0.266767
O O13 0.525558 0.801939 0.548442
O O14 0.610696 0.768037 0.456246
#
# Coordination Sequence:
#
# PCOD9531676 Si02
#       7
#    16  16  16  16  16   8  16
#     4  11  22  39  62  89 125 165 208 257 304 369
#     4  11  22  37  58  87 131 171 214 261 306 347
#     4  11  21  35  57  83 123 174 216 252 296 347
#     4  11  20  36  58  82 123 178 220 249 289 349
#     4  10  21  42  70  96 123 153 201 254 326 391
#     4  10  22  44  74  98 118 154 192 258 336 412
#     4  11  22  38  61  92 126 161 208 270 311 364
#
# _framework density 20.566579999999998
#
# number of rings (size 3 to 8) (size 9 to 14) (size 15 to 20)
#    0.000    1.231    4.615    3.692    0.000    2.462 
#    0.000    3.846    0.000    0.000    0.000    0.000 
#    0.000    0.000    0.000    0.000    0.000    0.000 
#
# Total GULP energy -290261.606220 kJ/mol
# GULP energy per Si atom -5581.953966 kJ/mol
# Density = 2.051977 g / cm^3
# Si number density = 20.566580 Si / 1000 Ang^3
#
#
#
# Elastic Constant Matrix: (Units=GPa)
#
#
# Indices 1 2 3 4 5 6 
#
# 1 56.9282 26.0102 23.7162 0.0000 0.0000 0.0000
# 2 26.0102 108.4447 58.5304 0.0000 0.0000 0.0000
# 3 23.7162 58.5304 90.8841 0.0000 0.0000 0.0000
# 4 0.0000 0.0000 0.0000 40.4557 0.0000 0.0000
# 5 0.0000 0.0000 0.0000 0.0000 16.8297 0.0000
# 6 0.0000 0.0000 0.0000 0.0000 0.0000 11.0617
#
#
#
# Elastic Compliance Matrix: (Units=1/GPa)
#
#
# Indices 1 2 3 4 5 6 
#
# 1 0.020362 -0.003090 -0.003324 0.000000 0.000000 0.000000
# 2 -0.003090 0.014603 -0.008598 0.000000 0.000000 0.000000
# 3 -0.003324 -0.008598 0.017408 0.000000 0.000000 0.000000
# 4 0.000000 0.000000 0.000000 0.024718 0.000000 0.000000
# 5 0.000000 0.000000 0.000000 0.000000 0.059419 0.000000
# 6 0.000000 0.000000 0.000000 0.000000 0.000000 0.090402
#
#
# Mechanical properties :
#
#
# Convention : Reuss Voigt Hill
#
# Bulk Modulus (GPa) = 44.74366 52.53005 48.63685
# Shear Modulus (GPa) = 18.91176 23.53611 21.22393
#
# Velocity S-wave (km/s) = 3.03568 3.38655 3.21590
# Velocity P-wave (km/s) = 5.83865 6.39441 6.12284
#
# Compressibility (1/GPa) = 0.02234954
#
# Stress axis : x y z
#
# Youngs Moduli (GPa) = 49.11010 68.47854 57.44604
#
# Poissons Ratio (x) = 0.21160 0.19092
# Poissons Ratio (y) = 0.15175 0.49393
# Poissons Ratio (z) = 0.16322 0.58879
#
# Static dielectric constant tensor:
#      x y z
#    x 1.726510 0.000000 0.000000 
#    y 0.000000 1.752630 0.000000 
#    z 0.000000 0.000000 1.857290 
# 
# From -- ./inp_files/7904.got.cif
#   From: 2010.05.17/outbox.cif.g08.bks.cpg/sg73_4_cif.got.tgz:7904.got - 2010.06.03 17:35:07.
