data_PCOD9531603
_publ_section_title
;
Structure prediction by ZEFSAII (Michael W. Deem and Ramdas Pophale) SiO2 
 PCOD9531603
Probable space group: I B C A 
;
_chemical_formula_sum "Si O2"
_cell_formula_units_Z 104
_cell_length_a 9.068002
_cell_length_b 21.068451
_cell_length_c 23.593172
_cell_angle_alpha 90.000000
_cell_angle_beta 90.000000
_cell_angle_gamma 90.000000
_cell_volume 4507.446156
_symmetry_space_group_name_H-M "I B C A "
_symmetry_group_IT_number 73
_symmetry_cell_setting 'orthorhombic'
loop_
_space_group_symop_operation_xyz
x,y,z
-x,1/2-y,z
x,-y,1/2-z
1/2-x,y,-z
-x,-y,-z
x,1/2+y,-z
-x,y,1/2+z
1/2+x,-y,z
1/2+x,1/2+y,1/2+z
1/2-x,-y,1/2+z
1/2+x,1/2-y,-z
-x,1/2+y,1/2-z
1/2-x,1/2-y,1/2-z
1/2+x,y,1/2-z
1/2-x,1/2+y,z
x,1/2-y,1/2+z
loop_
_atom_site_type_symbol
_atom_site_label
_atom_site_fract_x
_atom_site_fract_y
_atom_site_fract_z
Si Si1 0.672300 0.130204 0.441188
Si Si2 0.041411 0.158210 0.259464
Si Si3 0.500000 0.250000 0.418481
Si Si4 0.299316 0.540141 0.366869
Si Si5 0.034567 0.485271 0.064046
Si Si6 0.795212 0.180882 0.170869
Si Si7 0.714591 0.406557 0.177621
O O1 0.750000 0.111705 0.500000
O O2 0.588681 0.196159 0.451457
O O3 0.546159 0.080656 0.423945
O O4 0.772522 0.127075 0.384561
O O5 0.138367 0.200995 0.302404
O O6 0.161451 0.125931 0.217802
O O7 0.919177 0.187779 0.218817
O O8 0.943517 0.107405 0.294316
O O9 0.628721 0.283299 0.381050
O O10 0.464024 0.534516 0.391249
O O11 0.240321 0.606914 0.343992
O O12 0.259406 0.480833 0.326573
O O13 0.204528 0.523171 0.422999
O O14 0.000000 0.500000 0.000000
#
# Coordination Sequence:
#
# PCOD9531603 Si02
#       7
#    16  16   8  16  16  16  16
#     4  11  24  47  69  94 137 179 220 282 341 391
#     4  10  22  40  66 100 134 175 228 271 343 397
#     4  12  24  50  66  90 142 172 234 274 330 406
#     4  11  21  37  62  93 139 169 216 276 345 395
#     4  11  21  39  66  99 128 175 221 277 329 406
#     4  11  23  41  63  96 131 180 220 282 326 402
#     4  10  21  41  66 102 135 174 216 282 340 399
#
# _framework density 23.072931000000001
#
# number of rings (size 3 to 8) (size 9 to 14) (size 15 to 20)
#    0.000    1.231    3.077    4.154    0.000    4.308 
#    5.538    0.000    0.000    0.000    0.000    0.000 
#    0.000    0.000    0.000    0.000    0.000    0.000 
#
# Total GULP energy -290570.585612 kJ/mol
# GULP energy per Si atom -5587.895877 kJ/mol
# Density = 2.302042 g / cm^3
# Si number density = 23.072931 Si / 1000 Ang^3
#
#
#
# Elastic Constant Matrix: (Units=GPa)
#
#
# Indices 1 2 3 4 5 6 
#
# 1 111.4287 17.0208 19.7950 0.0000 0.0000 0.0000
# 2 17.0208 69.3245 -0.6093 0.0000 0.0000 0.0000
# 3 19.7950 -0.6093 85.9561 0.0000 0.0000 0.0000
# 4 0.0000 0.0000 0.0000 25.0911 0.0000 0.0000
# 5 0.0000 0.0000 0.0000 0.0000 43.1595 0.0000
# 6 0.0000 0.0000 0.0000 0.0000 0.0000 32.0010
#
#
#
# Elastic Compliance Matrix: (Units=1/GPa)
#
#
# Indices 1 2 3 4 5 6 
#
# 1 0.009745 -0.002412 -0.002261 0.000000 0.000000 0.000000
# 2 -0.002412 0.015023 0.000662 0.000000 0.000000 0.000000
# 3 -0.002261 0.000662 0.012159 0.000000 0.000000 0.000000
# 4 0.000000 0.000000 0.000000 0.039855 0.000000 0.000000
# 5 0.000000 0.000000 0.000000 0.000000 0.023170 0.000000
# 6 0.000000 0.000000 0.000000 0.000000 0.000000 0.031249
#
#
# Mechanical properties :
#
#
# Convention : Reuss Voigt Hill
#
# Bulk Modulus (GPa) = 34.59754 37.68024 36.13889
# Shear Modulus (GPa) = 33.58904 35.41719 34.50311
#
# Velocity S-wave (km/s) = 3.81960 3.92217 3.87123
# Velocity P-wave (km/s) = 5.87196 6.07269 5.97317
#
# Compressibility (1/GPa) = 0.02890379
#
# Stress axis : x y z
#
# Youngs Moduli (GPa) = 102.62169 66.56446 82.24177
#
# Poissons Ratio (x) = 0.16058 0.18596
# Poissons Ratio (y) = 0.24756 -0.05445
# Poissons Ratio (z) = 0.23205 -0.04407
#
# Static dielectric constant tensor:
#      x y z
#    x 1.870060 0.000000 0.000000 
#    y 0.000000 1.959020 0.000000 
#    z 0.000000 0.000000 1.868030 
# 
# From -- ./inp_files/31240.got.cif
#   From: 2010.05.17/outbox.cif.g08.bks.cpg/sg73_16_cif.got.tgz:31240.got - 2010.06.03 17:35:07.
