data_PCOD9531906
_publ_section_title
;
Structure prediction by ZEFSAII (Michael W. Deem and Ramdas Pophale) SiO2 
 PCOD9531906
Probable space group: I B C A 
;
_chemical_formula_sum "Si O2"
_cell_formula_units_Z 48
_cell_length_a 12.643421
_cell_length_b 16.777865
_cell_length_c 9.589237
_cell_angle_alpha 90.000000
_cell_angle_beta 90.000000
_cell_angle_gamma 90.000000
_cell_volume 2034.161111
_symmetry_space_group_name_H-M "I B C A "
_symmetry_group_IT_number 73
_symmetry_cell_setting 'orthorhombic'
loop_
_space_group_symop_operation_xyz
x,y,z
-x,1/2-y,z
x,-y,1/2-z
1/2-x,y,-z
-x,-y,-z
x,1/2+y,-z
-x,y,1/2+z
1/2+x,-y,z
1/2+x,1/2+y,1/2+z
1/2-x,-y,1/2+z
1/2+x,1/2-y,-z
-x,1/2+y,1/2-z
1/2-x,1/2-y,1/2-z
1/2+x,y,1/2-z
1/2-x,1/2+y,z
x,1/2-y,1/2+z
loop_
_atom_site_type_symbol
_atom_site_label
_atom_site_fract_x
_atom_site_fract_y
_atom_site_fract_z
Si Si1 0.000000 0.750000 0.552030
Si Si2 0.994745 0.500000 0.750000
Si Si3 0.618704 0.338472 0.302500
Si Si4 0.300618 0.431122 0.147722
O O1 0.928775 0.699061 0.661040
O O2 0.921443 0.794111 0.442214
O O3 0.075055 0.449837 0.849883
O O4 0.929909 0.427740 0.685017
O O5 0.746337 0.349862 0.297935
O O6 0.262983 0.500000 0.250000
O O7 0.250000 0.443717 0.000000
#
# Coordination Sequence:
#
# PCOD9531906 Si02
#       4
#     8   8  16  16
#     4  10  26  40  66  92 136 182 194 260 338 378
#     4  10  22  38  76  92 120 166 224 266 310 360
#     4  11  22  46  64  95 133 166 219 260 316 389
#     4  10  23  38  65 101 120 160 217 270 316 358
#
# _framework density 23.596951000000001
#
# number of rings (size 3 to 8) (size 9 to 14) (size 15 to 20)
#    1.000    0.667    1.667    2.000    4.667    2.667 
#    0.000   18.333    0.000    0.000    0.000    0.000 
#    0.000    0.000    0.000    0.000    0.000    0.000 
#
# Total GULP energy -133685.768713 kJ/mol
# GULP energy per Si atom -5570.240363 kJ/mol
# Density = 2.354324 g / cm^3
# Si number density = 23.596951 Si / 1000 Ang^3
#
#
#
# Elastic Constant Matrix: (Units=GPa)
#
#
# Indices 1 2 3 4 5 6 
#
# 1 63.0393 38.5410 13.4410 0.0000 0.0000 0.0000
# 2 38.5410 101.9473 49.7150 0.0000 0.0000 0.0000
# 3 13.4410 49.7150 125.2115 0.0000 0.0000 0.0000
# 4 0.0000 0.0000 0.0000 32.8278 0.0000 0.0000
# 5 0.0000 0.0000 0.0000 0.0000 93.3315 0.0000
# 6 0.0000 0.0000 0.0000 0.0000 0.0000 -75.1254
#
#
#
# Elastic Compliance Matrix: (Units=1/GPa)
#
#
# Indices 1 2 3 4 5 6 
#
# 1 0.020753 -0.008382 0.001100 0.000000 0.000000 0.000000
# 2 -0.008382 0.015550 -0.005274 0.000000 0.000000 0.000000
# 3 0.001100 -0.005274 0.009962 0.000000 0.000000 0.000000
# 4 0.000000 0.000000 0.000000 0.030462 0.000000 0.000000
# 5 0.000000 0.000000 0.000000 0.000000 0.010715 0.000000
# 6 0.000000 0.000000 0.000000 0.000000 0.000000 -0.013311
#
#
# Mechanical properties :
#
#
# Convention : Reuss Voigt Hill
#
# Bulk Modulus (GPa) = 47.27391 54.84356 51.05873
# Shear Modulus (GPa) = 47.03906 22.77353 34.90630
#
# Velocity S-wave (km/s) = 4.46964 3.10998 3.85030
# Velocity P-wave (km/s) = 6.83478 6.01567 6.43827
#
# Compressibility (1/GPa) = 0.02115332
#
# Stress axis : x y z
#
# Youngs Moduli (GPa) = 48.18509 64.30892 100.37647
#
# Poissons Ratio (x) = 0.53906 -0.11046
# Poissons Ratio (y) = 0.40391 0.52941
# Poissons Ratio (z) = -0.05302 0.33918
#
# Static dielectric constant tensor:
#      x y z
#    x 2.058180 0.000000 0.000000 
#    y 0.000000 1.891110 0.000000 
#    z 0.000000 0.000000 1.848720 
# 
# From -- ./inp_files/4313.got.cif
#   From: 2010.05.17/outbox.cif.g08.bks.cpg/sg73_3_cif.got.tgz:4313.got - 2010.06.03 17:35:07.
