data_PCOD9531899
_publ_section_title
;
Structure prediction by ZEFSAII (Michael W. Deem and Ramdas Pophale) SiO2 
 PCOD9531899
Probable space group: I B C A 
;
_chemical_formula_sum "Si O2"
_cell_formula_units_Z 104
_cell_length_a 8.686063
_cell_length_b 29.507436
_cell_length_c 19.927497
_cell_angle_alpha 90.000000
_cell_angle_beta 90.000000
_cell_angle_gamma 90.000000
_cell_volume 5107.486192
_symmetry_space_group_name_H-M "I B C A "
_symmetry_group_IT_number 73
_symmetry_cell_setting 'orthorhombic'
loop_
_space_group_symop_operation_xyz
x,y,z
-x,1/2-y,z
x,-y,1/2-z
1/2-x,y,-z
-x,-y,-z
x,1/2+y,-z
-x,y,1/2+z
1/2+x,-y,z
1/2+x,1/2+y,1/2+z
1/2-x,-y,1/2+z
1/2+x,1/2-y,-z
-x,1/2+y,1/2-z
1/2-x,1/2-y,1/2-z
1/2+x,y,1/2-z
1/2-x,1/2+y,z
x,1/2-y,1/2+z
loop_
_atom_site_type_symbol
_atom_site_label
_atom_site_fract_x
_atom_site_fract_y
_atom_site_fract_z
Si Si1 0.281726 0.308434 0.809577
Si Si2 0.010463 0.461028 0.445324
Si Si3 0.427057 0.460355 0.699024
Si Si4 0.155522 0.604084 0.772680
Si Si5 0.750000 0.386813 0.000000
Si Si6 0.007966 0.641984 0.404000
Si Si7 0.750000 0.908052 0.500000
Si Si8 0.000000 0.250000 0.288431
O O1 0.217574 0.353271 0.770722
O O2 0.389119 0.317421 0.873939
O O3 0.393750 0.282325 0.757805
O O4 0.128024 0.279745 0.826533
O O5 0.845056 0.437652 0.447326
O O6 0.000000 0.500000 0.500000
O O7 0.045004 0.481296 0.373368
O O8 0.133744 0.421894 0.463125
O O9 0.388011 0.500000 0.750000
O O10 0.295775 0.422764 0.694842
O O11 0.572313 0.431931 0.724936
O O12 0.043061 0.618044 0.833890
O O13 0.649572 0.356839 0.947793
O O14 0.126258 0.618007 0.454883
#
# Coordination Sequence:
#
# PCOD9531899 Si02
#       8
#    16  16  16  16   8  16   8   8
#     4  11  21  41  71 105 141 169 215 283 351 432
#     4  11  24  39  60  84 124 176 229 291 349 403
#     4  12  27  39  61  94 135 176 229 292 347 396
#     4  12  23  42  65  95 133 174 222 285 351 399
#     4  10  23  40  62  87 124 182 240 272 328 421
#     4  11  22  43  65  95 128 177 229 276 333 421
#     4  10  25  40  64  85 122 174 236 270 324 423
#     4  10  22  38  68 120 134 168 202 276 374 414
#
# _framework density 20.362269000000001
#
# number of rings (size 3 to 8) (size 9 to 14) (size 15 to 20)
#    0.000    0.923    4.615    1.846    4.308    2.462 
#    0.000    0.000    0.000    1.846    0.000    0.000 
#    0.000    0.000    0.000    0.000    0.000    0.000 
#
# Total GULP energy -290103.163284 kJ/mol
# GULP energy per Si atom -5578.906986 kJ/mol
# Density = 2.031592 g / cm^3
# Si number density = 20.362269 Si / 1000 Ang^3
#
#
#
# Elastic Constant Matrix: (Units=GPa)
#
#
# Indices 1 2 3 4 5 6 
#
# 1 115.2030 33.3370 39.2127 0.0000 0.0000 0.0000
# 2 33.3370 65.2921 26.6374 0.0000 0.0000 0.0000
# 3 39.2127 26.6374 113.7707 -0.0001 0.0000 0.0001
# 4 0.0000 0.0000 -0.0001 18.8148 0.0000 0.0001
# 5 0.0000 0.0000 0.0000 0.0000 39.0784 0.0000
# 6 0.0000 0.0000 0.0001 0.0001 0.0000 -9.5618
#
#
#
# Elastic Compliance Matrix: (Units=1/GPa)
#
#
# Indices 1 2 3 4 5 6 
#
# 1 0.010892 -0.004455 -0.002711 0.000000 0.000000 0.000000
# 2 -0.004455 0.018756 -0.002856 0.000000 0.000000 0.000000
# 3 -0.002711 -0.002856 0.010393 0.000000 0.000000 0.000000
# 4 0.000000 0.000000 0.000000 0.053150 0.000000 0.000000
# 5 0.000000 0.000000 0.000000 0.000000 0.025590 0.000000
# 6 0.000000 0.000000 0.000000 0.000000 0.000000 -0.104583
#
#
# Mechanical properties :
#
#
# Convention : Reuss Voigt Hill
#
# Bulk Modulus (GPa) = 50.00909 54.73778 52.37343
# Shear Modulus (GPa) = 122.22893 22.67153 72.45023
#
# Velocity S-wave (km/s) = 7.75613 3.34040 5.97142
# Velocity P-wave (km/s) = 10.23831 6.46668 8.56274
#
# Compressibility (1/GPa) = 0.01999636
#
# Stress axis : x y z
#
# Youngs Moduli (GPa) = 91.80708 53.31711 96.22209
#
# Poissons Ratio (x) = 0.23755 0.26086
# Poissons Ratio (y) = 0.40904 0.27478
# Poissons Ratio (z) = 0.24889 0.15226
#
# Static dielectric constant tensor:
#      x y z
#    x 1.785540 0.000000 0.000000 
#    y 0.000000 1.746690 0.000000 
#    z 0.000000 0.000000 1.678550 
# 
# From -- ./inp_files/7928.got.cif
#   From: 2010.05.17/outbox.cif.g08.bks.cpg/sg73_4_cif.got.tgz:7928.got - 2010.06.03 17:35:07.
