data_PCOD9531048
_publ_section_title
;
Structure prediction by ZEFSAII (Michael W. Deem and Ramdas Pophale) SiO2 
 PCOD9531048
Probable space group: I B C A 
;
_chemical_formula_sum "Si O2"
_cell_formula_units_Z 120
_cell_length_a 9.698977
_cell_length_b 28.332612
_cell_length_c 20.473274
_cell_angle_alpha 90.000000
_cell_angle_beta 90.000000
_cell_angle_gamma 90.000000
_cell_volume 5626.001485
_symmetry_space_group_name_H-M "I B C A "
_symmetry_group_IT_number 73
_symmetry_cell_setting 'orthorhombic'
loop_
_space_group_symop_operation_xyz
x,y,z
-x,1/2-y,z
x,-y,1/2-z
1/2-x,y,-z
-x,-y,-z
x,1/2+y,-z
-x,y,1/2+z
1/2+x,-y,z
1/2+x,1/2+y,1/2+z
1/2-x,-y,1/2+z
1/2+x,1/2-y,-z
-x,1/2+y,1/2-z
1/2-x,1/2-y,1/2-z
1/2+x,y,1/2-z
1/2-x,1/2+y,z
x,1/2-y,1/2+z
loop_
_atom_site_type_symbol
_atom_site_label
_atom_site_fract_x
_atom_site_fract_y
_atom_site_fract_z
Si Si1 0.250000 0.051634 0.000000
Si Si2 0.526857 0.610579 0.420127
Si Si3 0.305702 0.671847 0.247369
Si Si4 0.148514 0.474656 0.902287
Si Si5 0.417675 0.023803 0.315449
Si Si6 0.343306 0.249931 0.664294
Si Si7 0.055605 0.385953 0.262299
Si Si8 0.901171 0.288213 0.974210
O O1 0.157460 0.083879 0.952493
O O2 0.339723 0.016305 0.955323
O O3 0.400448 0.574891 0.432793
O O4 0.536146 0.612040 0.340787
O O5 0.524555 0.663404 0.450104
O O6 0.285100 0.699884 0.314619
O O7 0.245826 0.707802 0.194171
O O8 0.215758 0.624962 0.247983
O O9 0.462620 0.657511 0.238699
O O10 0.294628 0.468747 0.866345
O O11 0.033408 0.492002 0.850186
O O12 0.482393 0.070763 0.284162
O O13 0.357306 0.000000 0.250000
O O14 0.500000 0.250000 0.691731
O O15 0.358165 0.257908 0.588843
O O16 0.000000 0.250000 0.011637
O O17 0.750000 0.302381 0.000000
#
# Coordination Sequence:
#
# PCOD9531048 Si02
#       8
#     8  16  16  16  16  16  16  16
#     4  12  26  48  72 102 136 198 250 292 346 422
#     4  12  24  46  75  95 141 190 237 287 359 421
#     4  11  22  39  64  98 131 173 220 273 344 424
#     4  12  26  47  70 104 142 190 240 299 345 430
#     4  12  26  41  68 102 145 179 229 293 361 419
#     4  10  20  41  66  92 132 176 220 277 343 413
#     4  12  24  40  66 103 136 177 224 282 354 420
#     4  11  24  48  71  99 135 185 238 293 353 418
#
# _framework density 21.329535
#
# number of rings (size 3 to 8) (size 9 to 14) (size 15 to 20)
#    0.000    0.533    6.000    2.400    3.733    0.000 
#    3.600    0.000    0.000    0.000    0.000    0.000 
#    0.000    0.000    0.000    0.000    0.000    0.000 
#
# Total GULP energy -334785.565303 kJ/mol
# GULP energy per Si atom -5579.759422 kJ/mol
# Density = 2.128099 g / cm^3
# Si number density = 21.329535 Si / 1000 Ang^3
#
#
#
# Elastic Constant Matrix: (Units=GPa)
#
#
# Indices 1 2 3 4 5 6 
#
# 1 79.9100 20.3923 17.4328 0.0000 0.0000 0.0000
# 2 20.3923 93.7343 2.1961 0.0000 0.0000 0.0000
# 3 17.4328 2.1961 26.2911 0.0001 0.0000 0.0000
# 4 0.0000 0.0000 0.0001 14.2564 0.0000 0.0000
# 5 0.0000 0.0000 0.0000 0.0000 17.5563 0.0000
# 6 0.0000 0.0000 0.0000 0.0000 0.0000 39.0545
#
#
#
# Elastic Compliance Matrix: (Units=1/GPa)
#
#
# Indices 1 2 3 4 5 6 
#
# 1 0.015500 -0.003137 -0.010015 0.000000 0.000000 0.000000
# 2 -0.003137 0.011324 0.001134 0.000000 0.000000 0.000000
# 3 -0.010015 0.001134 0.044582 0.000000 0.000000 0.000000
# 4 0.000000 0.000000 0.000000 0.070144 0.000000 0.000000
# 5 0.000000 0.000000 0.000000 0.000000 0.056960 0.000000
# 6 0.000000 0.000000 0.000000 0.000000 0.000000 0.025605
#
#
# Mechanical properties :
#
#
# Convention : Reuss Voigt Hill
#
# Bulk Modulus (GPa) = 21.11074 31.10865 26.10969
# Shear Modulus (GPa) = 18.94362 24.83437 21.88900
#
# Velocity S-wave (km/s) = 2.98340 3.41591 3.20696
# Velocity P-wave (km/s) = 4.66760 5.49312 5.09710
#
# Compressibility (1/GPa) = 0.04736926
#
# Stress axis : x y z
#
# Youngs Moduli (GPa) = 64.51788 88.30471 22.43070
#
# Poissons Ratio (x) = 0.27704 0.22465
# Poissons Ratio (y) = 0.20242 -0.02544
# Poissons Ratio (z) = 0.64616 -0.10017
#
# Static dielectric constant tensor:
#      x y z
#    x 1.875070 0.000000 0.000000 
#    y 0.000000 1.828690 0.000000 
#    z 0.000000 0.000000 1.772340 
# 
# From -- ./inp_files/28605.got.cif
#   From: 2010.05.17/outbox.cif.g08.bks.cpg/sg73_15_cif.got.tgz:28605.got - 2010.06.03 17:35:07.
