data_PCOD9531943
_publ_section_title
;
Structure prediction by ZEFSAII (Michael W. Deem and Ramdas Pophale) SiO2 
 PCOD9531943
Probable space group: I B C A 
;
_chemical_formula_sum "Si O2"
_cell_formula_units_Z 72
_cell_length_a 5.146902
_cell_length_b 22.902516
_cell_length_c 26.876364
_cell_angle_alpha 90.000000
_cell_angle_beta 90.000000
_cell_angle_gamma 90.000000
_cell_volume 3168.105305
_symmetry_space_group_name_H-M "I B C A "
_symmetry_group_IT_number 73
_symmetry_cell_setting 'orthorhombic'
loop_
_space_group_symop_operation_xyz
x,y,z
-x,1/2-y,z
x,-y,1/2-z
1/2-x,y,-z
-x,-y,-z
x,1/2+y,-z
-x,y,1/2+z
1/2+x,-y,z
1/2+x,1/2+y,1/2+z
1/2-x,-y,1/2+z
1/2+x,1/2-y,-z
-x,1/2+y,1/2-z
1/2-x,1/2-y,1/2-z
1/2+x,y,1/2-z
1/2-x,1/2+y,z
x,1/2-y,1/2+z
loop_
_atom_site_type_symbol
_atom_site_label
_atom_site_fract_x
_atom_site_fract_y
_atom_site_fract_z
Si Si1 0.744956 0.785920 0.817392
Si Si2 0.666253 0.964883 0.892761
Si Si3 0.000000 0.750000 0.085137
Si Si4 0.265978 0.419610 0.717403
Si Si5 0.011244 0.365886 0.967834
O O1 0.500000 0.750000 0.797689
O O2 0.702533 0.781081 0.877183
O O3 0.739219 0.851056 0.797422
O O4 0.000000 0.750000 0.806618
O O5 0.668103 0.952119 0.833779
O O6 0.568696 0.909137 0.923341
O O7 0.458795 0.015583 0.904869
O O8 0.105205 0.803321 0.053080
O O9 0.487385 0.431789 0.758145
O O10 0.250000 0.390751 0.000000
O O11 0.750000 0.357206 0.000000
#
# Coordination Sequence:
#
# PCOD9531943 Si02
#       5
#    16  16   8  16  16
#     4  10  22  39  66  96 143 181 229 272 347 418
#     4  12  27  49  74  99 142 187 233 299 351 414
#     4  10  24  44  72 102 142 186 224 292 352 426
#     4  12  26  44  69 103 139 182 238 291 348 413
#     4  12  27  45  73 106 139 181 235 287 355 426
#
# _framework density 22.726519
#
# number of rings (size 3 to 8) (size 9 to 14) (size 15 to 20)
#    0.667    0.000    2.222    4.667    3.111    9.778 
#    0.000    0.000    0.000    0.000    0.000    0.000 
#    0.000    0.000    0.000    0.000    0.000    0.000 
#
# Total GULP energy -201444.307964 kJ/mol
# GULP energy per Si atom -5595.675221 kJ/mol
# Density = 2.267479 g / cm^3
# Si number density = 22.726519 Si / 1000 Ang^3
#
#
#
# Elastic Constant Matrix: (Units=GPa)
#
#
# Indices 1 2 3 4 5 6 
#
# 1 130.0398 14.6874 23.3687 0.0000 0.0000 0.0000
# 2 14.6874 103.6625 29.1467 0.0000 0.0000 0.0000
# 3 23.3687 29.1467 116.4822 0.0000 0.0000 0.0000
# 4 0.0000 0.0000 0.0000 24.6263 0.0000 0.0000
# 5 0.0000 0.0000 0.0000 0.0000 10.8437 0.0000
# 6 0.0000 0.0000 0.0000 0.0000 0.0000 16.0127
#
#
#
# Elastic Compliance Matrix: (Units=1/GPa)
#
#
# Indices 1 2 3 4 5 6 
#
# 1 0.008030 -0.000737 -0.001427 0.000000 0.000000 0.000000
# 2 -0.000737 0.010444 -0.002466 0.000000 0.000000 0.000000
# 3 -0.001427 -0.002466 0.009488 0.000000 0.000000 0.000000
# 4 0.000000 0.000000 0.000000 0.040607 0.000000 0.000000
# 5 0.000000 0.000000 0.000000 0.000000 0.092220 0.000000
# 6 0.000000 0.000000 0.000000 0.000000 0.000000 0.062450
#
#
# Mechanical properties :
#
#
# Convention : Reuss Voigt Hill
#
# Bulk Modulus (GPa) = 53.46333 53.84337 53.65335
# Shear Modulus (GPa) = 20.94405 29.16199 25.05302
#
# Velocity S-wave (km/s) = 3.03903 3.58602 3.32380
# Velocity P-wave (km/s) = 5.99082 6.39448 6.19594
#
# Compressibility (1/GPa) = 0.01870441
#
# Stress axis : x y z
#
# Youngs Moduli (GPa) = 124.54069 95.74586 105.39433
#
# Poissons Ratio (x) = 0.07052 0.15035
# Poissons Ratio (y) = 0.09173 0.25987
# Poissons Ratio (z) = 0.17767 0.23608
#
# Static dielectric constant tensor:
#      x y z
#    x 1.782770 0.000000 0.000000 
#    y 0.000000 1.832370 0.000000 
#    z 0.000000 0.000000 1.885740 
# 
# From -- ./inp_files/30861.got.cif
#   From: 2010.05.17/outbox.cif.g08.bks.cpg/sg73_16_cif.got.tgz:30861.got - 2010.06.03 17:35:07.
