data_PCOD9531793
_publ_section_title
;
Structure prediction by ZEFSAII (Michael W. Deem and Ramdas Pophale) SiO2 
 PCOD9531793
Probable space group: I B C A 
;
_chemical_formula_sum "Si O2"
_cell_formula_units_Z 72
_cell_length_a 18.131288
_cell_length_b 19.142250
_cell_length_c 10.651383
_cell_angle_alpha 90.000000
_cell_angle_beta 90.000000
_cell_angle_gamma 90.000000
_cell_volume 3696.814351
_symmetry_space_group_name_H-M "I B C A "
_symmetry_group_IT_number 73
_symmetry_cell_setting 'orthorhombic'
loop_
_space_group_symop_operation_xyz
x,y,z
-x,1/2-y,z
x,-y,1/2-z
1/2-x,y,-z
-x,-y,-z
x,1/2+y,-z
-x,y,1/2+z
1/2+x,-y,z
1/2+x,1/2+y,1/2+z
1/2-x,-y,1/2+z
1/2+x,1/2-y,-z
-x,1/2+y,1/2-z
1/2-x,1/2-y,1/2-z
1/2+x,y,1/2-z
1/2-x,1/2+y,z
x,1/2-y,1/2+z
loop_
_atom_site_type_symbol
_atom_site_label
_atom_site_fract_x
_atom_site_fract_y
_atom_site_fract_z
Si Si1 0.189550 0.102369 0.609843
Si Si2 0.937254 0.508979 0.603731
Si Si3 0.199747 0.744848 0.874462
Si Si4 0.164342 0.097324 0.043720
Si Si5 0.206991 0.500000 0.750000
O O1 0.250000 0.105058 0.500000
O O2 0.122616 0.051756 0.584024
O O3 0.160022 0.180398 0.629707
O O4 0.238431 0.063967 0.715602
O O5 0.960362 0.500000 0.750000
O O6 0.891800 0.580166 0.569388
O O7 0.000000 0.500000 0.500000
O O8 0.250000 0.750000 0.750000
O O9 0.155133 0.672558 0.889077
O O10 0.250000 0.744985 0.000000
O O11 0.157811 0.033461 0.141497
O O12 0.250000 0.093508 0.000000
#
# Coordination Sequence:
#
# PCOD9531793 Si02
#       5
#    16  16  16  16   8
#     4  11  20  37  63  97 128 159 207 271 333 394
#     4  12  26  42  63  90 125 173 223 267 319 392
#     4  10  22  35  60 100 133 160 201 268 336 397
#     4  11  21  38  66  94 128 163 211 271 335 390
#     4  12  16  32  68  94 124 156 206 262 328 382
#
# _framework density 19.476227000000002
#
# number of rings (size 3 to 8) (size 9 to 14) (size 15 to 20)
#    0.000    0.889    7.778    0.000    4.667    0.000 
#    0.000    1.111    0.000    2.667    0.000    0.000 
#    0.000    0.000    0.000    0.000    0.000    0.000 
#
# Total GULP energy -200536.487817 kJ/mol
# GULP energy per Si atom -5570.457995 kJ/mol
# Density = 1.943190 g / cm^3
# Si number density = 19.476227 Si / 1000 Ang^3
#
#
#
# Elastic Constant Matrix: (Units=GPa)
#
#
# Indices 1 2 3 4 5 6 
#
# 1 58.7677 4.6163 33.7685 0.0000 0.0000 0.0000
# 2 4.6163 128.4308 40.4783 0.0000 0.0000 0.0000
# 3 33.7685 40.4783 134.9700 0.0000 0.0000 0.0000
# 4 0.0000 0.0000 0.0000 26.9543 0.0000 0.0000
# 5 0.0000 0.0000 0.0000 0.0000 30.2194 0.0000
# 6 0.0000 0.0000 0.0000 0.0000 0.0000 3.4828
#
#
#
# Elastic Compliance Matrix: (Units=1/GPa)
#
#
# Indices 1 2 3 4 5 6 
#
# 1 0.019977 0.000947 -0.005282 0.000000 0.000000 0.000000
# 2 0.000947 0.008644 -0.002829 0.000000 0.000000 0.000000
# 3 -0.005282 -0.002829 0.009579 0.000000 0.000000 0.000000
# 4 0.000000 0.000000 0.000000 0.037100 0.000000 0.000000
# 5 0.000000 0.000000 0.000000 0.000000 0.033091 0.000000
# 6 0.000000 0.000000 0.000000 0.000000 0.000000 0.287123
#
#
# Mechanical properties :
#
#
# Convention : Reuss Voigt Hill
#
# Bulk Modulus (GPa) = 41.89206 53.32165 47.60685
# Shear Modulus (GPa) = 11.96744 28.35166 20.15955
#
# Velocity S-wave (km/s) = 2.48153 3.81951 3.22076
# Velocity P-wave (km/s) = 5.45588 6.84754 6.19094
#
# Compressibility (1/GPa) = 0.02387087
#
# Stress axis : x y z
#
# Youngs Moduli (GPa) = 50.05788 115.68751 104.39417
#
# Poissons Ratio (x) = -0.10952 0.55141
# Poissons Ratio (y) = -0.04739 0.29536
# Poissons Ratio (z) = 0.26441 0.32731
#
# Static dielectric constant tensor:
#      x y z
#    x 1.683930 0.000000 0.000000 
#    y 0.000000 1.763410 0.000000 
#    z 0.000000 0.000000 1.818840 
# 
# From -- ./inp_files/11749.got.cif
#   From: 2010.05.17/outbox.cif.g08.bks.cpg/sg73_6_cif.got.tgz:11749.got - 2010.06.03 17:35:07.
