data_PCOD9531620
_publ_section_title
;
Structure prediction by ZEFSAII (Michael W. Deem and Ramdas Pophale) SiO2 
 PCOD9531620
Probable space group: I B C A 
;
_chemical_formula_sum "Si O2"
_cell_formula_units_Z 88
_cell_length_a 12.619024
_cell_length_b 14.370714
_cell_length_c 22.301334
_cell_angle_alpha 90.000000
_cell_angle_beta 90.000000
_cell_angle_gamma 90.000000
_cell_volume 4044.221696
_symmetry_space_group_name_H-M "I B C A "
_symmetry_group_IT_number 73
_symmetry_cell_setting 'orthorhombic'
loop_
_space_group_symop_operation_xyz
x,y,z
-x,1/2-y,z
x,-y,1/2-z
1/2-x,y,-z
-x,-y,-z
x,1/2+y,-z
-x,y,1/2+z
1/2+x,-y,z
1/2+x,1/2+y,1/2+z
1/2-x,-y,1/2+z
1/2+x,1/2-y,-z
-x,1/2+y,1/2-z
1/2-x,1/2-y,1/2-z
1/2+x,y,1/2-z
1/2-x,1/2+y,z
x,1/2-y,1/2+z
loop_
_atom_site_type_symbol
_atom_site_label
_atom_site_fract_x
_atom_site_fract_y
_atom_site_fract_z
Si Si1 0.594472 0.684042 0.386431
Si Si2 0.889346 0.500000 0.250000
Si Si3 0.453128 0.024615 0.620109
Si Si4 0.566884 0.656487 0.149423
Si Si5 0.773294 0.649640 0.068204
Si Si6 0.792494 0.647830 0.735673
O O1 0.500000 0.750000 0.362511
O O2 0.538792 0.591848 0.411685
O O3 0.659641 0.754137 0.428072
O O4 0.661100 0.650708 0.330361
O O5 0.952239 0.536096 0.192417
O O6 0.809039 0.582075 0.266538
O O7 0.341169 0.065332 0.597750
O O8 0.489603 0.918252 0.617269
O O9 0.500000 0.750000 0.160002
O O10 0.667451 0.667663 0.105989
O O11 0.621359 0.623945 0.212470
O O12 0.750000 0.626415 0.000000
O O13 0.750000 0.750000 0.750000
#
# Coordination Sequence:
#
# PCOD9531620 Si02
#       6
#    16   8  16  16  16  16
#     4  10  21  41  67  96 133 175 222 281 349 412
#     4  12  22  38  68 102 144 176 218 278 354 432
#     4  11  24  43  68 102 138 183 223 284 354 418
#     4  12  25  42  68 102 138 180 232 284 351 420
#     4  11  26  48  69  97 134 184 241 287 341 414
#     4  12  20  37  66 100 140 178 215 282 356 413
#
# _framework density 21.759440999999999
#
# number of rings (size 3 to 8) (size 9 to 14) (size 15 to 20)
#    0.000    0.727    3.636    4.909    0.000    2.909 
#    0.000    1.818    0.000    0.000    0.000    0.000 
#    0.000    0.000    0.000    0.000    0.000    0.000 
#
# Total GULP energy -245799.929272 kJ/mol
# GULP energy per Si atom -5586.362029 kJ/mol
# Density = 2.170992 g / cm^3
# Si number density = 21.759441 Si / 1000 Ang^3
#
#
#
# Elastic Constant Matrix: (Units=GPa)
#
#
# Indices 1 2 3 4 5 6 
#
# 1 77.0039 24.4775 13.6541 0.0000 0.0000 0.0000
# 2 24.4775 95.8233 -5.2463 0.0000 0.0000 0.0000
# 3 13.6541 -5.2463 74.4408 0.0000 0.0000 0.0000
# 4 0.0000 0.0000 0.0000 21.1809 0.0000 0.0000
# 5 0.0000 0.0000 0.0000 0.0000 5.1818 0.0000
# 6 0.0000 0.0000 0.0000 0.0000 0.0000 38.4813
#
#
#
# Elastic Compliance Matrix: (Units=1/GPa)
#
#
# Indices 1 2 3 4 5 6 
#
# 1 0.014767 -0.003936 -0.002986 0.000000 0.000000 0.000000
# 2 -0.003936 0.011525 0.001534 0.000000 0.000000 0.000000
# 3 -0.002986 0.001534 0.014089 0.000000 0.000000 0.000000
# 4 0.000000 0.000000 0.000000 0.047212 0.000000 0.000000
# 5 0.000000 0.000000 0.000000 0.000000 0.192981 0.000000
# 6 0.000000 0.000000 0.000000 0.000000 0.000000 0.025987
#
#
# Mechanical properties :
#
#
# Convention : Reuss Voigt Hill
#
# Bulk Modulus (GPa) = 33.77631 34.78206 34.27919
# Shear Modulus (GPa) = 15.28093 27.26100 21.27096
#
# Velocity S-wave (km/s) = 2.65291 3.54338 3.12997
# Velocity P-wave (km/s) = 4.99401 5.72366 5.37124
#
# Compressibility (1/GPa) = 0.02960655
#
# Stress axis : x y z
#
# Youngs Moduli (GPa) = 67.71939 86.76648 70.97587
#
# Poissons Ratio (x) = 0.34148 0.21193
# Poissons Ratio (y) = 0.26651 -0.10889
# Poissons Ratio (z) = 0.20221 -0.13311
#
# Static dielectric constant tensor:
#      x y z
#    x 1.830990 0.000000 0.000000 
#    y 0.000000 1.857790 0.000000 
#    z 0.000000 0.000000 1.751320 
# 
# From -- ./inp_files/14218.got.cif
#   From: 2010.05.17/outbox.cif.g08.bks.cpg/sg73_8_cif.got.tgz:14218.got - 2010.06.03 17:35:07.
