data_PCOD9531130
_publ_section_title
;
Structure prediction by ZEFSAII (Michael W. Deem and Ramdas Pophale) SiO2 
 PCOD9531130
Probable space group: I B C A 
;
_chemical_formula_sum "Si O2"
_cell_formula_units_Z 80
_cell_length_a 8.846122
_cell_length_b 16.273168
_cell_length_c 25.206591
_cell_angle_alpha 90.000000
_cell_angle_beta 90.000000
_cell_angle_gamma 90.000000
_cell_volume 3628.600426
_symmetry_space_group_name_H-M "I B C A "
_symmetry_group_IT_number 73
_symmetry_cell_setting 'orthorhombic'
loop_
_space_group_symop_operation_xyz
x,y,z
-x,1/2-y,z
x,-y,1/2-z
1/2-x,y,-z
-x,-y,-z
x,1/2+y,-z
-x,y,1/2+z
1/2+x,-y,z
1/2+x,1/2+y,1/2+z
1/2-x,-y,1/2+z
1/2+x,1/2-y,-z
-x,1/2+y,1/2-z
1/2-x,1/2-y,1/2-z
1/2+x,y,1/2-z
1/2-x,1/2+y,z
x,1/2-y,1/2+z
loop_
_atom_site_type_symbol
_atom_site_label
_atom_site_fract_x
_atom_site_fract_y
_atom_site_fract_z
Si Si1 0.308104 0.578108 0.441727
Si Si2 0.687794 0.813523 0.707816
Si Si3 0.022814 0.914099 0.221174
Si Si4 0.130390 0.433955 0.392770
Si Si5 0.816586 0.246115 0.394656
O O1 0.250000 0.556997 0.500000
O O2 0.220205 0.517766 0.401485
O O3 0.481993 0.560039 0.429087
O O4 0.292213 0.676422 0.433106
O O5 0.750000 0.750000 0.750000
O O6 0.540402 0.851579 0.734363
O O7 0.700780 0.766767 0.652604
O O8 0.812868 0.885016 0.703300
O O9 0.917730 0.920131 0.168853
O O10 0.031612 0.000000 0.250000
O O11 0.209708 0.348396 0.410454
O O12 0.000000 0.250000 0.379480
#
# Coordination Sequence:
#
# PCOD9531130 Si02
#       5
#    16  16  16  16  16
#     4  11  24  44  71  99 127 171 229 281 334 398
#     4  12  21  40  63  92 129 177 215 254 327 392
#     4  12  25  37  64  98 135 175 215 265 323 400
#     4  11  24  45  69  95 140 174 217 281 337 389
#     4  10  20  43  66  90 135 183 210 266 339 394
#
# _framework density 22.047069
#
# number of rings (size 3 to 8) (size 9 to 14) (size 15 to 20)
#    0.000    0.800    6.000    3.000    2.800    0.800 
#    0.000    3.000    0.000    0.000    0.000    0.000 
#    0.000    0.000    0.000    0.000    0.000    0.000 
#
# Total GULP energy -223414.480578 kJ/mol
# GULP energy per Si atom -5585.362014 kJ/mol
# Density = 2.199689 g / cm^3
# Si number density = 22.047069 Si / 1000 Ang^3
#
#
#
# Elastic Constant Matrix: (Units=GPa)
#
#
# Indices 1 2 3 4 5 6 
#
# 1 60.9683 38.4225 32.6246 0.0000 0.0000 0.0000
# 2 38.4225 133.4457 29.7925 0.0000 0.0000 0.0000
# 3 32.6246 29.7925 69.8806 0.0000 0.0000 0.0000
# 4 0.0000 0.0000 0.0000 30.3599 0.0000 0.0000
# 5 0.0000 0.0000 0.0000 0.0000 27.8331 0.0000
# 6 0.0000 0.0000 0.0000 0.0000 0.0000 15.3020
#
#
#
# Elastic Compliance Matrix: (Units=1/GPa)
#
#
# Indices 1 2 3 4 5 6 
#
# 1 0.024534 -0.004981 -0.009330 0.000000 0.000000 0.000000
# 2 -0.004981 0.009293 -0.001637 0.000000 0.000000 0.000000
# 3 -0.009330 -0.001637 0.019364 0.000000 0.000000 0.000000
# 4 0.000000 0.000000 0.000000 0.032938 0.000000 0.000000
# 5 0.000000 0.000000 0.000000 0.000000 0.035928 0.000000
# 6 0.000000 0.000000 0.000000 0.000000 0.000000 0.065351
#
#
# Mechanical properties :
#
#
# Convention : Reuss Voigt Hill
#
# Bulk Modulus (GPa) = 46.95919 51.77484 49.36701
# Shear Modulus (GPa) = 22.08461 25.59602 23.84031
#
# Velocity S-wave (km/s) = 3.16840 3.41100 3.29194
# Velocity P-wave (km/s) = 5.89328 6.24884 6.07366
#
# Compressibility (1/GPa) = 0.02129509
#
# Stress axis : x y z
#
# Youngs Moduli (GPa) = 40.76042 107.60577 51.64263
#
# Poissons Ratio (x) = 0.53596 0.48184
# Poissons Ratio (y) = 0.20302 0.08452
# Poissons Ratio (z) = 0.38031 0.17611
#
# Static dielectric constant tensor:
#      x y z
#    x 1.825920 0.000000 0.000000 
#    y 0.000000 1.817120 0.000000 
#    z 0.000000 0.000000 1.802560 
# 
# From -- ./inp_files/31115.got.cif
#   From: 2010.05.17/outbox.cif.g08.bks.cpg/sg73_16_cif.got.tgz:31115.got - 2010.06.03 17:35:07.
