data_PCOD9531226
_publ_section_title
;
Structure prediction by ZEFSAII (Michael W. Deem and Ramdas Pophale) SiO2 
 PCOD9531226
Probable space group: I B C A 
;
_chemical_formula_sum "Si O2"
_cell_formula_units_Z 112
_cell_length_a 5.257846
_cell_length_b 29.088563
_cell_length_c 32.721001
_cell_angle_alpha 90.000000
_cell_angle_beta 90.000000
_cell_angle_gamma 90.000000
_cell_volume 5004.454097
_symmetry_space_group_name_H-M "I B C A "
_symmetry_group_IT_number 73
_symmetry_cell_setting 'orthorhombic'
loop_
_space_group_symop_operation_xyz
x,y,z
-x,1/2-y,z
x,-y,1/2-z
1/2-x,y,-z
-x,-y,-z
x,1/2+y,-z
-x,y,1/2+z
1/2+x,-y,z
1/2+x,1/2+y,1/2+z
1/2-x,-y,1/2+z
1/2+x,1/2-y,-z
-x,1/2+y,1/2-z
1/2-x,1/2-y,1/2-z
1/2+x,y,1/2-z
1/2-x,1/2+y,z
x,1/2-y,1/2+z
loop_
_atom_site_type_symbol
_atom_site_label
_atom_site_fract_x
_atom_site_fract_y
_atom_site_fract_z
Si Si1 0.303786 0.938550 0.772253
Si Si2 0.426817 0.952549 0.144487
Si Si3 0.715825 0.169293 0.046362
Si Si4 0.725031 0.828126 0.276369
Si Si5 0.250099 0.719006 0.634676
Si Si6 0.284591 0.891182 0.544074
Si Si7 0.075566 0.944661 0.617651
O O1 0.589700 0.949945 0.760871
O O2 0.208664 0.962203 0.813085
O O3 0.281485 0.883684 0.778534
O O4 0.704130 0.930399 0.149890
O O5 0.205056 0.923681 0.122178
O O6 0.470827 0.000903 0.121757
O O7 0.752842 0.196121 0.089193
O O8 0.431047 0.148475 0.047444
O O9 0.936804 0.130558 0.046930
O O10 0.750000 0.191170 0.000000
O O11 0.470712 0.814188 0.251081
O O12 0.739982 0.811026 0.323343
O O13 0.500000 0.750000 0.637718
O O14 0.000000 0.750000 0.635814
O O15 0.250000 0.912892 0.500000
O O16 0.213093 0.928548 0.577239
#
# Coordination Sequence:
#
# PCOD9531226 Si02
#       7
#    16  16  16  16  16  16  16
#     4  10  21  39  60  85 118 159 209 259 308 360
#     4  10  21  38  55  89 119 159 204 248 318 358
#     4  10  23  43  66  98 129 162 209 260 308 371
#     4  10  23  41  62  92 127 164 211 261 306 362
#     4  12  26  42  65 100 129 166 207 243 320 388
#     4  10  21  39  64  92 121 162 210 254 307 362
#     4  10  21  36  57  86 123 157 202 250 309 362
#
# _framework density 22.380063
#
# number of rings (size 3 to 8) (size 9 to 14) (size 15 to 20)
#    0.000    1.714    0.000    3.429    4.000    2.286 
#    0.000   11.429    0.000    0.000    0.000    0.000 
#    0.000    0.000    0.000    0.000    0.000    0.000 
#
# Total GULP energy -312406.635728 kJ/mol
# GULP energy per Si atom -5578.689924 kJ/mol
# Density = 2.232912 g / cm^3
# Si number density = 22.380063 Si / 1000 Ang^3
#
#
#
# Elastic Constant Matrix: (Units=GPa)
#
#
# Indices 1 2 3 4 5 6 
#
# 1 141.3640 6.4565 23.9863 0.0000 0.0000 0.0000
# 2 6.4565 37.8663 52.4457 0.0000 0.0000 0.0000
# 3 23.9863 52.4457 173.3582 0.0000 0.0000 0.0000
# 4 0.0000 0.0000 0.0000 3.3854 0.0000 0.0000
# 5 0.0000 0.0000 0.0000 0.0000 39.0896 0.0000
# 6 0.0000 0.0000 0.0000 0.0000 0.0000 16.5780
#
#
#
# Elastic Compliance Matrix: (Units=1/GPa)
#
#
# Indices 1 2 3 4 5 6 
#
# 1 0.007246 0.000263 -0.001082 0.000000 0.000000 0.000000
# 2 0.000263 0.045464 -0.013791 0.000000 0.000000 0.000000
# 3 -0.001082 -0.013791 0.010090 0.000000 0.000000 0.000000
# 4 0.000000 0.000000 0.000000 0.295384 0.000000 0.000000
# 5 0.000000 0.000000 0.000000 0.000000 0.025582 0.000000
# 6 0.000000 0.000000 0.000000 0.000000 0.000000 0.060321
#
#
# Mechanical properties :
#
#
# Convention : Reuss Voigt Hill
#
# Bulk Modulus (GPa) = 29.77860 57.59615 43.68737
# Shear Modulus (GPa) = 10.31992 29.79061 20.05526
#
# Velocity S-wave (km/s) = 2.14970 3.65241 2.99678
# Velocity P-wave (km/s) = 4.41547 6.60138 5.61581
#
# Compressibility (1/GPa) = 0.03358116
#
# Stress axis : x y z
#
# Youngs Moduli (GPa) = 138.01612 21.99533 99.10608
#
# Poissons Ratio (x) = -0.00580 0.10725
# Poissons Ratio (y) = -0.03637 1.36674
# Poissons Ratio (z) = 0.14936 0.30333
#
# Static dielectric constant tensor:
#      x y z
#    x 1.929730 0.000000 0.000000 
#    y 0.000000 1.836160 0.000000 
#    z 0.000000 0.000000 1.917680 
# 
# From -- ./inp_files/33365.got.cif
#   From: 2010.05.17/outbox.cif.g08.bks.cpg/sg73_17_cif.got.tgz:33365.got - 2010.06.03 17:35:07.
