data_PCOD9531282
_publ_section_title
;
Structure prediction by ZEFSAII (Michael W. Deem and Ramdas Pophale) SiO2 
 PCOD9531282
Probable space group: I B C A 
;
_chemical_formula_sum "Si O2"
_cell_formula_units_Z 72
_cell_length_a 20.335126
_cell_length_b 8.897910
_cell_length_c 20.063424
_cell_angle_alpha 90.000000
_cell_angle_beta 90.000000
_cell_angle_gamma 90.000000
_cell_volume 3630.278366
_symmetry_space_group_name_H-M "I B C A "
_symmetry_group_IT_number 73
_symmetry_cell_setting 'orthorhombic'
loop_
_space_group_symop_operation_xyz
x,y,z
-x,1/2-y,z
x,-y,1/2-z
1/2-x,y,-z
-x,-y,-z
x,1/2+y,-z
-x,y,1/2+z
1/2+x,-y,z
1/2+x,1/2+y,1/2+z
1/2-x,-y,1/2+z
1/2+x,1/2-y,-z
-x,1/2+y,1/2-z
1/2-x,1/2-y,1/2-z
1/2+x,y,1/2-z
1/2-x,1/2+y,z
x,1/2-y,1/2+z
loop_
_atom_site_type_symbol
_atom_site_label
_atom_site_fract_x
_atom_site_fract_y
_atom_site_fract_z
Si Si1 0.662440 0.932119 0.052611
Si Si2 0.409919 0.409616 0.315945
Si Si3 0.431712 0.934382 0.178383
Si Si4 0.453468 0.608165 0.955142
Si Si5 0.250000 0.304481 0.000000
O O1 0.627375 0.973916 0.120882
O O2 0.693403 0.083188 0.023601
O O3 0.607351 0.861020 0.004116
O O4 0.720266 0.808006 0.055495
O O5 0.389625 0.500000 0.250000
O O6 0.400036 0.230458 0.322134
O O7 0.488703 0.424152 0.320507
O O8 0.411790 0.000000 0.250000
O O9 0.422972 0.031127 0.111124
O O10 0.500000 0.750000 0.937792
O O11 0.500000 0.500000 0.000000
#
# Coordination Sequence:
#
# PCOD9531282 Si02
#       5
#    16  16  16  16   8
#     4  11  22  41  61  89 121 160 211 252 305 359
#     4  10  21  37  60  85 125 164 198 248 306 373
#     4  10  22  35  55  93 131 160 191 237 318 385
#     4  12  23  36  63  96 126 159 201 258 318 374
#     4  10  24  40  62  82 118 166 210 260 294 352
#
# _framework density 19.833190999999999
#
# number of rings (size 3 to 8) (size 9 to 14) (size 15 to 20)
#    0.000    1.333    2.222    4.000    6.222    0.000 
#    0.000    1.111    0.000    5.333    0.000    0.000 
#    0.000    0.000    0.000    0.000    0.000    0.000 
#
# Total GULP energy -200780.821532 kJ/mol
# GULP energy per Si atom -5577.245043 kJ/mol
# Density = 1.978805 g / cm^3
# Si number density = 19.833191 Si / 1000 Ang^3
#
#
#
# Elastic Constant Matrix: (Units=GPa)
#
#
# Indices 1 2 3 4 5 6 
#
# 1 44.5108 19.1497 18.8187 0.0000 0.0000 0.0000
# 2 19.1497 93.6908 36.4414 0.0000 0.0000 0.0000
# 3 18.8187 36.4414 139.9491 0.0000 0.0000 0.0000
# 4 0.0000 0.0000 0.0000 23.2114 0.0000 0.0000
# 5 0.0000 0.0000 0.0000 0.0000 14.2160 0.0000
# 6 0.0000 0.0000 0.0000 0.0000 0.0000 21.9379
#
#
#
# Elastic Compliance Matrix: (Units=1/GPa)
#
#
# Indices 1 2 3 4 5 6 
#
# 1 0.025272 -0.004277 -0.002285 0.000000 0.000000 0.000000
# 2 -0.004277 0.012600 -0.002706 0.000000 0.000000 0.000000
# 3 -0.002285 -0.002706 0.008157 0.000000 0.000000 0.000000
# 4 0.000000 0.000000 0.000000 0.043082 0.000000 0.000000
# 5 0.000000 0.000000 0.000000 0.000000 0.070343 0.000000
# 6 0.000000 0.000000 0.000000 0.000000 0.000000 0.045583
#
#
# Mechanical properties :
#
#
# Convention : Reuss Voigt Hill
#
# Bulk Modulus (GPa) = 36.37030 47.44113 41.90571
# Shear Modulus (GPa) = 21.48336 25.45578 23.46957
#
# Velocity S-wave (km/s) = 3.29477 3.58647 3.44371
# Velocity P-wave (km/s) = 5.73166 6.41267 6.08171
#
# Compressibility (1/GPa) = 0.02749496
#
# Stress axis : x y z
#
# Youngs Moduli (GPa) = 39.56883 79.36505 122.59051
#
# Poissons Ratio (x) = 0.33943 0.28008
# Poissons Ratio (y) = 0.16923 0.33171
# Poissons Ratio (z) = 0.09040 0.21475
#
# Static dielectric constant tensor:
#      x y z
#    x 1.705260 0.000000 0.000000 
#    y 0.000000 1.770340 0.000000 
#    z 0.000000 0.000000 1.712740 
# 
# From -- ./inp_files/5326.got.cif
#   From: 2010.05.17/outbox.cif.g08.bks.cpg/sg73_3_cif.got.tgz:5326.got - 2010.06.03 17:35:07.
