data_PCOD9531554
_publ_section_title
;
Structure prediction by ZEFSAII (Michael W. Deem and Ramdas Pophale) SiO2 
 PCOD9531554
Probable space group: I B C A 
;
_chemical_formula_sum "Si O2"
_cell_formula_units_Z 80
_cell_length_a 10.057712
_cell_length_b 17.084604
_cell_length_c 21.398098
_cell_angle_alpha 90.000000
_cell_angle_beta 90.000000
_cell_angle_gamma 90.000000
_cell_volume 3676.878546
_symmetry_space_group_name_H-M "I B C A "
_symmetry_group_IT_number 73
_symmetry_cell_setting 'orthorhombic'
loop_
_space_group_symop_operation_xyz
x,y,z
-x,1/2-y,z
x,-y,1/2-z
1/2-x,y,-z
-x,-y,-z
x,1/2+y,-z
-x,y,1/2+z
1/2+x,-y,z
1/2+x,1/2+y,1/2+z
1/2-x,-y,1/2+z
1/2+x,1/2-y,-z
-x,1/2+y,1/2-z
1/2-x,1/2-y,1/2-z
1/2+x,y,1/2-z
1/2-x,1/2+y,z
x,1/2-y,1/2+z
loop_
_atom_site_type_symbol
_atom_site_label
_atom_site_fract_x
_atom_site_fract_y
_atom_site_fract_z
Si Si1 0.696290 0.581043 0.634567
Si Si2 0.515440 0.090780 0.255031
Si Si3 0.291871 0.577369 0.432141
Si Si4 0.440218 0.836052 0.123734
Si Si5 0.029221 0.658993 0.119231
O O1 0.656012 0.589509 0.707467
O O2 0.729085 0.492830 0.616614
O O3 0.557836 0.605336 0.601581
O O4 0.816304 0.636987 0.616444
O O5 0.425028 0.140131 0.303278
O O6 0.518065 0.130207 0.187960
O O7 0.473086 0.000000 0.250000
O O8 0.250000 0.548911 0.500000
O O9 0.193989 0.647752 0.412594
O O10 0.441423 0.608449 0.428467
O O11 0.500000 0.750000 0.119064
O O12 0.000000 0.750000 0.111235
#
# Coordination Sequence:
#
# PCOD9531554 Si02
#       5
#    16  16  16  16  16
#     4  10  24  42  65  99 131 181 222 277 331 409
#     4  10  21  40  68 101 134 175 215 276 336 415
#     4  12  26  46  69  95 135 185 234 279 329 409
#     4  10  23  43  68  97 135 176 220 279 351 397
#     4  12  25  42  70 107 137 173 227 282 347 403
#
# _framework density 21.757584999999999
#
# number of rings (size 3 to 8) (size 9 to 14) (size 15 to 20)
#    1.200    0.000    2.000    4.200    2.800    5.600 
#    0.000    2.000    0.000    0.000    0.000    0.000 
#    0.000    0.000    0.000    0.000    0.000    0.000 
#
# Total GULP energy -223397.486719 kJ/mol
# GULP energy per Si atom -5584.937168 kJ/mol
# Density = 2.170806 g / cm^3
# Si number density = 21.757585 Si / 1000 Ang^3
#
#
#
# Elastic Constant Matrix: (Units=GPa)
#
#
# Indices 1 2 3 4 5 6 
#
# 1 54.2368 -22.1065 12.0148 0.0000 0.0000 0.0000
# 2 -22.1065 67.4171 -26.1341 0.0000 0.0000 0.0000
# 3 12.0148 -26.1341 32.9607 0.0000 0.0000 0.0000
# 4 0.0000 0.0000 0.0000 6.2169 0.0000 0.0000
# 5 0.0000 0.0000 0.0000 0.0000 14.9448 0.0000
# 6 0.0000 0.0000 0.0000 0.0000 0.0000 29.3026
#
#
#
# Elastic Compliance Matrix: (Units=1/GPa)
#
#
# Indices 1 2 3 4 5 6 
#
# 1 0.021520 0.005798 -0.003248 0.000000 0.000000 0.000000
# 2 0.005798 0.022977 0.016105 0.000000 0.000000 0.000000
# 3 -0.003248 0.016105 0.044292 0.000000 0.000000 0.000000
# 4 0.000000 0.000000 0.000000 0.160851 0.000000 0.000000
# 5 0.000000 0.000000 0.000000 0.000000 0.066913 0.000000
# 6 0.000000 0.000000 0.000000 0.000000 0.000000 0.034127
#
#
# Mechanical properties :
#
#
# Convention : Reuss Voigt Hill
#
# Bulk Modulus (GPa) = 7.93023 9.12921 8.52972
# Shear Modulus (GPa) = 14.06852 22.81557 18.44204
#
# Velocity S-wave (km/s) = 2.54560 3.24176 2.91454
# Velocity P-wave (km/s) = 3.50611 4.26814 3.90575
#
# Compressibility (1/GPa) = 0.12609971
#
# Stress axis : x y z
#
# Youngs Moduli (GPa) = 46.46802 43.52149 22.57729
#
# Poissons Ratio (x) = -0.25232 0.07332
# Poissons Ratio (y) = -0.26941 -0.36361
# Poissons Ratio (z) = 0.15091 -0.70091
#
# Static dielectric constant tensor:
#      x y z
#    x 1.796370 0.000000 0.000000 
#    y 0.000000 1.757360 0.000000 
#    z 0.000000 0.000000 1.809250 
# 
# From -- ./inp_files/31107.got.cif
#   From: 2010.05.17/outbox.cif.g08.bks.cpg/sg73_16_cif.got.tgz:31107.got - 2010.06.03 17:35:07.
