data_PCOD9531064
_publ_section_title
;
Structure prediction by ZEFSAII (Michael W. Deem and Ramdas Pophale) SiO2 
 PCOD9531064
Probable space group: I B C A 
;
_chemical_formula_sum "Si O2"
_cell_formula_units_Z 120
_cell_length_a 26.588451
_cell_length_b 8.526591
_cell_length_c 23.763054
_cell_angle_alpha 90.000000
_cell_angle_beta 90.000000
_cell_angle_gamma 90.000000
_cell_volume 5387.294574
_symmetry_space_group_name_H-M "I B C A "
_symmetry_group_IT_number 73
_symmetry_cell_setting 'orthorhombic'
loop_
_space_group_symop_operation_xyz
x,y,z
-x,1/2-y,z
x,-y,1/2-z
1/2-x,y,-z
-x,-y,-z
x,1/2+y,-z
-x,y,1/2+z
1/2+x,-y,z
1/2+x,1/2+y,1/2+z
1/2-x,-y,1/2+z
1/2+x,1/2-y,-z
-x,1/2+y,1/2-z
1/2-x,1/2-y,1/2-z
1/2+x,y,1/2-z
1/2-x,1/2+y,z
x,1/2-y,1/2+z
loop_
_atom_site_type_symbol
_atom_site_label
_atom_site_fract_x
_atom_site_fract_y
_atom_site_fract_z
Si Si1 0.908555 0.140841 0.950090
Si Si2 0.694856 0.264354 0.723484
Si Si3 0.809664 0.442256 0.392735
Si Si4 0.618558 0.006723 0.932677
Si Si5 0.273078 0.121385 0.060507
Si Si6 0.384043 0.454426 0.688440
Si Si7 0.950303 0.158081 0.840279
Si Si8 0.887083 0.500000 0.250000
O O1 0.864804 0.038914 0.918871
O O2 0.897560 0.326334 0.944802
O O3 0.954484 0.113598 0.906365
O O4 0.906182 0.100987 0.015956
O O5 0.750000 0.250000 0.750000
O O6 0.693687 0.377819 0.669825
O O7 0.673623 0.098006 0.700420
O O8 0.650421 0.349785 0.759972
O O9 0.772061 0.585109 0.397311
O O10 0.789532 0.298683 0.430510
O O11 0.679234 0.993666 0.934694
O O12 0.607907 0.056813 0.867767
O O13 0.250000 0.100317 0.000000
O O14 0.404479 0.500000 0.750000
O O15 0.408641 0.292547 0.668476
O O16 0.000000 0.250000 0.821307
O O17 0.925822 0.024210 0.801815
#
# Coordination Sequence:
#
# PCOD9531064 Si02
#       8
#    16  16  16  16  16  16  16   8
#     4  10  20  42  59  89 122 164 209 275 342 392
#     4  11  24  37  59  85 133 177 216 270 332 394
#     4  11  22  35  51  82 122 162 217 267 313 387
#     4  10  21  38  60  83 127 167 209 270 331 398
#     4  11  21  32  52  80 115 167 220 253 313 388
#     4  10  22  43  59  92 128 166 219 269 333 408
#     4  10  22  44  71  92 126 170 213 291 349 392
#     4  10  22  42  62  98 128 170 234 262 336 424
#
# _framework density 22.274632
#
# number of rings (size 3 to 8) (size 9 to 14) (size 15 to 20)
#    0.000    1.600    6.667    0.400    7.467    0.000 
#    4.800    2.667    0.000    0.800    0.000    0.000 
#    0.000    0.000    0.000    0.000    0.000    0.000 
#
# Total GULP energy -334148.685149 kJ/mol
# GULP energy per Si atom -5569.144752 kJ/mol
# Density = 2.222393 g / cm^3
# Si number density = 22.274632 Si / 1000 Ang^3
#
#
#
# Elastic Constant Matrix: (Units=GPa)
#
#
# Indices 1 2 3 4 5 6 
#
# 1 55.5690 6.0600 23.3077 0.0000 0.0000 0.0000
# 2 6.0600 19.1207 30.1281 0.0000 0.0000 0.0000
# 3 23.3077 30.1281 189.4075 0.0000 0.0000 0.0000
# 4 0.0000 0.0000 0.0000 23.9814 0.0000 0.0000
# 5 0.0000 0.0000 0.0000 0.0000 15.9475 0.0000
# 6 0.0000 0.0000 0.0000 0.0000 0.0000 -5.2670
#
#
#
# Elastic Compliance Matrix: (Units=1/GPa)
#
#
# Indices 1 2 3 4 5 6 
#
# 1 0.019115 -0.003138 -0.001853 0.000000 0.000000 0.000000
# 2 -0.003138 0.070307 -0.010797 0.000000 0.000000 0.000000
# 3 -0.001853 -0.010797 0.007225 0.000000 0.000000 0.000000
# 4 0.000000 0.000000 0.000000 0.041699 0.000000 0.000000
# 5 0.000000 0.000000 0.000000 0.000000 0.062706 0.000000
# 6 0.000000 0.000000 0.000000 0.000000 0.000000 -0.189861
#
#
# Mechanical properties :
#
#
# Convention : Reuss Voigt Hill
#
# Bulk Modulus (GPa) = 15.36813 42.56544 28.96678
# Shear Modulus (GPa) = 77.57080 20.57249 49.07164
#
# Velocity S-wave (km/s) = 5.90765 3.04235 4.69873
# Velocity P-wave (km/s) = 7.31082 5.61178 6.51691
#
# Compressibility (1/GPa) = 0.06506974
#
# Stress axis : x y z
#
# Youngs Moduli (GPa) = 52.31461 14.22340 138.40644
#
# Poissons Ratio (x) = 0.04464 0.25647
# Poissons Ratio (y) = 0.16419 1.49439
# Poissons Ratio (z) = 0.09694 0.15357
#
# Static dielectric constant tensor:
#      x y z
#    x 1.913710 0.000000 0.000000 
#    y 0.000000 1.869980 0.000000 
#    z 0.000000 0.000000 2.053940 
# 
# From -- ./inp_files/30680.got.cif
#   From: 2010.05.17/outbox.cif.g08.bks.cpg/sg73_16_cif.got.tgz:30680.got - 2010.06.03 17:35:07.
