data_PCOD9531168
_publ_section_title
;
Structure prediction by ZEFSAII (Michael W. Deem and Ramdas Pophale) SiO2 
 PCOD9531168
Probable space group: I B C A 
;
_chemical_formula_sum "Si O2"
_cell_formula_units_Z 104
_cell_length_a 20.169806
_cell_length_b 9.058518
_cell_length_c 27.635582
_cell_angle_alpha 90.000000
_cell_angle_beta 90.000000
_cell_angle_gamma 90.000000
_cell_volume 5049.257135
_symmetry_space_group_name_H-M "I B C A "
_symmetry_group_IT_number 73
_symmetry_cell_setting 'orthorhombic'
loop_
_space_group_symop_operation_xyz
x,y,z
-x,1/2-y,z
x,-y,1/2-z
1/2-x,y,-z
-x,-y,-z
x,1/2+y,-z
-x,y,1/2+z
1/2+x,-y,z
1/2+x,1/2+y,1/2+z
1/2-x,-y,1/2+z
1/2+x,1/2-y,-z
-x,1/2+y,1/2-z
1/2-x,1/2-y,1/2-z
1/2+x,y,1/2-z
1/2-x,1/2+y,z
x,1/2-y,1/2+z
loop_
_atom_site_type_symbol
_atom_site_label
_atom_site_fract_x
_atom_site_fract_y
_atom_site_fract_z
Si Si1 0.802847 0.584443 0.798112
Si Si2 0.000000 0.750000 0.901449
Si Si3 0.608815 0.473448 0.904953
Si Si4 0.815552 0.729891 0.467426
Si Si5 0.378470 0.555068 0.607307
Si Si6 0.923859 0.770915 0.049618
Si Si7 0.161790 0.566710 0.798901
O O1 0.825449 0.500000 0.750000
O O2 0.840617 0.518005 0.844068
O O3 0.815110 0.761265 0.794199
O O4 0.726053 0.539248 0.804487
O O5 0.046411 0.623066 0.924751
O O6 0.058413 0.845061 0.877331
O O7 0.671454 0.420213 0.937075
O O8 0.593558 0.642259 0.912962
O O9 0.620673 0.442975 0.848464
O O10 0.750000 0.731756 0.500000
O O11 0.827050 0.853972 0.426536
O O12 0.875799 0.749416 0.504498
O O13 0.407042 0.424048 0.575212
O O14 0.000000 0.750000 0.035439
O O15 0.128819 0.500000 0.750000
#
# Coordination Sequence:
#
# PCOD9531168 Si02
#       7
#    16   8  16  16  16  16  16
#     4  11  24  43  70 101 132 174 219 276 347 405
#     4  10  20  48  66  92 130 188 220 266 344 390
#     4  11  25  44  72  94 142 174 224 286 334 394
#     4  11  27  46  67 102 137 183 231 281 336 395
#     4  11  25  44  72  94 142 174 224 286 334 394
#     4  12  27  41  69 105 134 184 234 269 337 416
#     4  11  24  43  70 101 132 174 219 276 347 405
#
# _framework density 20.597090000000001
#
# number of rings (size 3 to 8) (size 9 to 14) (size 15 to 20)
#    0.000    0.923    4.615    2.769   12.923    2.462 
#    0.000    0.769    3.385    0.000    0.000    0.000 
#    0.000    0.000    0.000    0.000    0.000    0.000 
#
# Total GULP energy -290177.298903 kJ/mol
# GULP energy per Si atom -5580.332671 kJ/mol
# Density = 2.055021 g / cm^3
# Si number density = 20.597090 Si / 1000 Ang^3
#
#
#
# Elastic Constant Matrix: (Units=GPa)
#
#
# Indices 1 2 3 4 5 6 
#
# 1 92.4169 1.2773 49.2543 0.0000 0.0000 0.0000
# 2 1.2773 42.6947 -9.7025 0.0000 0.0000 0.0000
# 3 49.2543 -9.7025 112.0224 0.0000 0.0000 0.0000
# 4 0.0000 0.0000 0.0000 30.7623 0.0000 0.0000
# 5 0.0000 0.0000 0.0000 0.0000 24.8323 0.0000
# 6 0.0000 0.0000 0.0000 0.0000 0.0000 25.8211
#
#
#
# Elastic Compliance Matrix: (Units=1/GPa)
#
#
# Indices 1 2 3 4 5 6 
#
# 1 0.014280 -0.001891 -0.006443 0.000000 0.000000 0.000000
# 2 -0.001891 0.024143 0.002923 0.000000 0.000000 0.000000
# 3 -0.006443 0.002923 0.012013 0.000000 0.000000 0.000000
# 4 0.000000 0.000000 0.000000 0.032507 0.000000 0.000000
# 5 0.000000 0.000000 0.000000 0.000000 0.040270 0.000000
# 6 0.000000 0.000000 0.000000 0.000000 0.000000 0.038728
#
#
# Mechanical properties :
#
#
# Convention : Reuss Voigt Hill
#
# Bulk Modulus (GPa) = 25.24410 36.53248 30.88829
# Shear Modulus (GPa) = 26.88629 30.03679 28.46154
#
# Velocity S-wave (km/s) = 3.61687 3.82292 3.72132
# Velocity P-wave (km/s) = 5.45208 6.10422 5.78734
#
# Compressibility (1/GPa) = 0.03961322
#
# Stress axis : x y z
#
# Youngs Moduli (GPa) = 70.02642 41.42009 83.24563
#
# Poissons Ratio (x) = 0.07834 0.53632
# Poissons Ratio (y) = 0.13244 -0.24330
# Poissons Ratio (z) = 0.45115 -0.12106
#
# Static dielectric constant tensor:
#      x y z
#    x 1.740960 0.000000 0.000000 
#    y 0.000000 1.788660 0.000000 
#    z 0.000000 0.000000 1.744370 
# 
# From -- ./inp_files/32659.got.cif
#   From: 2010.05.17/outbox.cif.g08.bks.cpg/sg73_17_cif.got.tgz:32659.got - 2010.06.03 17:35:07.
