data_PCOD9531858
_publ_section_title
;
Structure prediction by ZEFSAII (Michael W. Deem and Ramdas Pophale) SiO2 
 PCOD9531858
Probable space group: I B C A 
;
_chemical_formula_sum "Si O2"
_cell_formula_units_Z 96
_cell_length_a 10.746892
_cell_length_b 13.298417
_cell_length_c 26.218460
_cell_angle_alpha 90.000000
_cell_angle_beta 90.000000
_cell_angle_gamma 90.000000
_cell_volume 3747.054505
_symmetry_space_group_name_H-M "I B C A "
_symmetry_group_IT_number 73
_symmetry_cell_setting 'orthorhombic'
loop_
_space_group_symop_operation_xyz
x,y,z
-x,1/2-y,z
x,-y,1/2-z
1/2-x,y,-z
-x,-y,-z
x,1/2+y,-z
-x,y,1/2+z
1/2+x,-y,z
1/2+x,1/2+y,1/2+z
1/2-x,-y,1/2+z
1/2+x,1/2-y,-z
-x,1/2+y,1/2-z
1/2-x,1/2-y,1/2-z
1/2+x,y,1/2-z
1/2-x,1/2+y,z
x,1/2-y,1/2+z
loop_
_atom_site_type_symbol
_atom_site_label
_atom_site_fract_x
_atom_site_fract_y
_atom_site_fract_z
Si Si1 0.618315 0.556481 0.301505
Si Si2 0.750000 0.720257 0.500000
Si Si3 0.000000 0.250000 0.265249
Si Si4 0.667831 0.698553 0.673157
Si Si5 0.580231 0.910932 0.072542
Si Si6 0.356859 0.258516 0.597556
Si Si7 0.170954 0.499222 0.092382
O O1 0.595727 0.500000 0.250000
O O2 0.523632 0.650826 0.298767
O O3 0.755199 0.604140 0.305401
O O4 0.619678 0.483893 0.349986
O O5 0.859887 0.653419 0.473878
O O6 0.695360 0.785619 0.454417
O O7 0.109709 0.245375 0.223297
O O8 0.587376 0.657338 0.624839
O O9 0.769772 0.768484 0.644983
O O10 0.679516 0.003160 0.082916
O O11 0.438793 0.944918 0.061212
O O12 0.500000 0.250000 0.603800
O O13 0.341423 0.379131 0.588773
#
# Coordination Sequence:
#
# PCOD9531858 Si02
#       7
#    16   8   8  16  16  16  16
#     4  10  22  38  58  88 124 162 206 260 307 374
#     4   8  18  36  60  80 118 144 190 252 290 364
#     4  12  22  38  62  92 114 164 222 258 302 374
#     4   9  22  38  54  82 122 156 196 256 315 347
#     4   9  18  38  56  86 116 151 192 247 310 361
#     4   9  19  39  56  80 116 155 190 234 307 361
#     4   9  20  35  59  81 116 159 186 247 308 356
#
# _framework density 25.620124000000001
#
# number of rings (size 3 to 8) (size 9 to 14) (size 15 to 20)
#    0.000    3.333    0.000    1.500    4.667    6.000 
#   15.000    0.833    0.000    0.000    0.000    0.000 
#    0.000    0.000    0.000    0.000    0.000    0.000 
#
# Total GULP energy -267692.842016 kJ/mol
# GULP energy per Si atom -5576.934209 kJ/mol
# Density = 2.556181 g / cm^3
# Si number density = 25.620124 Si / 1000 Ang^3
#
#
#
# Elastic Constant Matrix: (Units=GPa)
#
#
# Indices 1 2 3 4 5 6 
#
# 1 126.9691 12.3818 22.3972 0.0000 0.0000 0.0000
# 2 12.3818 47.4605 9.6123 0.0000 0.0000 0.0000
# 3 22.3972 9.6123 59.3862 0.0000 0.0000 0.0000
# 4 0.0000 0.0000 0.0000 0.6936 0.0000 0.0000
# 5 0.0000 0.0000 0.0000 0.0000 25.5694 0.0000
# 6 0.0000 0.0000 0.0000 0.0000 0.0000 35.3382
#
#
#
# Elastic Compliance Matrix: (Units=1/GPa)
#
#
# Indices 1 2 3 4 5 6 
#
# 1 0.008558 -0.001632 -0.002963 0.000000 0.000000 0.000000
# 2 -0.001632 0.022096 -0.002961 0.000000 0.000000 0.000000
# 3 -0.002963 -0.002961 0.018436 0.000000 0.000000 0.000000
# 4 0.000000 0.000000 0.000000 1.441825 0.000000 0.000000
# 5 0.000000 0.000000 0.000000 0.000000 0.039109 0.000000
# 6 0.000000 0.000000 0.000000 0.000000 0.000000 0.028298
#
#
# Mechanical properties :
#
#
# Convention : Reuss Voigt Hill
#
# Bulk Modulus (GPa) = 29.43232 35.84426 32.63829
# Shear Modulus (GPa) = 3.15505 24.94854 14.05180
#
# Velocity S-wave (km/s) = 1.11092 3.12394 2.34448
# Velocity P-wave (km/s) = 3.62746 5.19933 4.48283
#
# Compressibility (1/GPa) = 0.03397625
#
# Stress axis : x y z
#
# Youngs Moduli (GPa) = 116.85177 45.25775 54.24237
#
# Poissons Ratio (x) = 0.07388 0.16074
# Poissons Ratio (y) = 0.19075 0.16060
# Poissons Ratio (z) = 0.34627 0.13400
#
# Static dielectric constant tensor:
#      x y z
#    x 2.170910 0.000000 0.000000 
#    y 0.000000 2.084030 0.000000 
#    z 0.000000 0.000000 2.164990 
# 
# From -- ./inp_files/28959.got.cif
#   From: 2010.05.17/outbox.cif.g08.bks.cpg/sg73_15_cif.got.tgz:28959.got - 2010.06.03 17:35:07.
