data_PCOD9531681
_publ_section_title
;
Structure prediction by ZEFSAII (Michael W. Deem and Ramdas Pophale) SiO2 
 PCOD9531681
Probable space group: I B C A 
;
_chemical_formula_sum "Si O2"
_cell_formula_units_Z 72
_cell_length_a 17.034410
_cell_length_b 23.077746
_cell_length_c 7.993214
_cell_angle_alpha 90.000000
_cell_angle_beta 90.000000
_cell_angle_gamma 90.000000
_cell_volume 3142.258614
_symmetry_space_group_name_H-M "I B C A "
_symmetry_group_IT_number 73
_symmetry_cell_setting 'orthorhombic'
loop_
_space_group_symop_operation_xyz
x,y,z
-x,1/2-y,z
x,-y,1/2-z
1/2-x,y,-z
-x,-y,-z
x,1/2+y,-z
-x,y,1/2+z
1/2+x,-y,z
1/2+x,1/2+y,1/2+z
1/2-x,-y,1/2+z
1/2+x,1/2-y,-z
-x,1/2+y,1/2-z
1/2-x,1/2-y,1/2-z
1/2+x,y,1/2-z
1/2-x,1/2+y,z
x,1/2-y,1/2+z
loop_
_atom_site_type_symbol
_atom_site_label
_atom_site_fract_x
_atom_site_fract_y
_atom_site_fract_z
Si Si1 0.411266 0.380732 0.132489
Si Si2 0.041766 0.689176 0.951673
Si Si3 0.806880 0.177435 0.352941
Si Si4 0.750000 0.062698 0.500000
Si Si5 0.750000 0.338758 0.500000
Si Si6 0.868486 0.000000 0.750000
O O1 0.414715 0.337950 0.292363
O O2 0.420651 0.446647 0.187239
O O3 0.476274 0.356759 0.007542
O O4 0.325069 0.375395 0.055708
O O5 0.000000 0.750000 0.918293
O O6 0.105579 0.695755 0.099370
O O7 0.750000 0.199265 0.500000
O O8 0.796668 0.107447 0.377426
O O9 0.779514 0.307218 0.668083
O O10 0.811473 0.025555 0.605868
#
# Coordination Sequence:
#
# PCOD9531681 Si02
#       6
#    16  16  16   8   8   8
#     4  12  26  46  74 117 152 207 262 321 413 468
#     4  12  26  52  76 109 163 210 266 338 390 470
#     4  10  21  47  77 109 151 201 260 314 389 477
#     4  10  21  42  75 110 162 193 258 325 388 478
#     4  12  21  46  79 114 156 193 262 317 386 494
#     4  12  22  42  76 112 158 202 256 328 404 480
#
# _framework density 22.913454000000002
#
# number of rings (size 3 to 8) (size 9 to 14) (size 15 to 20)
#    0.667    0.000    6.667    2.667    0.000    0.889 
#    2.000    3.333    0.000    0.000    0.000    0.000 
#    0.000    0.000    0.000    0.000    0.000    0.000 
#
# Total GULP energy -201549.655623 kJ/mol
# GULP energy per Si atom -5598.601545 kJ/mol
# Density = 2.286130 g / cm^3
# Si number density = 22.913454 Si / 1000 Ang^3
#
#
#
# Elastic Constant Matrix: (Units=GPa)
#
#
# Indices 1 2 3 4 5 6 
#
# 1 118.2272 43.5296 28.8594 0.0000 0.0000 0.0000
# 2 43.5296 168.8687 53.0650 0.0000 0.0000 0.0000
# 3 28.8594 53.0650 124.1208 0.0000 0.0000 0.0000
# 4 0.0000 0.0000 0.0000 58.2120 0.0000 0.0000
# 5 0.0000 0.0000 0.0000 0.0000 40.8923 0.0000
# 6 0.0000 0.0000 0.0000 0.0000 0.0000 40.6112
#
#
#
# Elastic Compliance Matrix: (Units=1/GPa)
#
#
# Indices 1 2 3 4 5 6 
#
# 1 0.009536 -0.002035 -0.001347 0.000000 0.000000 0.000000
# 2 -0.002035 0.007275 -0.002637 0.000000 0.000000 0.000000
# 3 -0.001347 -0.002637 0.009497 0.000000 0.000000 0.000000
# 4 0.000000 0.000000 0.000000 0.017179 0.000000 0.000000
# 5 0.000000 0.000000 0.000000 0.000000 0.024454 0.000000
# 6 0.000000 0.000000 0.000000 0.000000 0.000000 0.024624
#
#
# Mechanical properties :
#
#
# Convention : Reuss Voigt Hill
#
# Bulk Modulus (GPa) = 70.07658 73.56941 71.82300
# Shear Modulus (GPa) = 45.72019 46.99394 46.35707
#
# Velocity S-wave (km/s) = 4.47177 4.53363 4.50281
# Velocity P-wave (km/s) = 7.57046 7.71896 7.64507
#
# Compressibility (1/GPa) = 0.01427010
#
# Stress axis : x y z
#
# Youngs Moduli (GPa) = 104.86162 137.45769 105.29209
#
# Poissons Ratio (x) = 0.27970 0.14187
# Poissons Ratio (y) = 0.21337 0.27767
# Poissons Ratio (z) = 0.14129 0.36249
#
# Static dielectric constant tensor:
#      x y z
#    x 1.831430 0.000000 0.000000 
#    y 0.000000 1.896510 0.000000 
#    z 0.000000 0.000000 1.886760 
# 
# From -- ./inp_files/5485.got.cif
#   From: 2010.05.17/outbox.cif.g08.bks.cpg/sg73_3_cif.got.tgz:5485.got - 2010.06.03 17:35:07.
