data_PCOD9531033
_publ_section_title
;
Structure prediction by ZEFSAII (Michael W. Deem and Ramdas Pophale) SiO2 
 PCOD9531033
Probable space group: I B C A 
;
_chemical_formula_sum "Si O2"
_cell_formula_units_Z 96
_cell_length_a 24.225947
_cell_length_b 13.358820
_cell_length_c 15.211934
_cell_angle_alpha 90.000000
_cell_angle_beta 90.000000
_cell_angle_gamma 90.000000
_cell_volume 4923.039194
_symmetry_space_group_name_H-M "I B C A "
_symmetry_group_IT_number 73
_symmetry_cell_setting 'orthorhombic'
loop_
_space_group_symop_operation_xyz
x,y,z
-x,1/2-y,z
x,-y,1/2-z
1/2-x,y,-z
-x,-y,-z
x,1/2+y,-z
-x,y,1/2+z
1/2+x,-y,z
1/2+x,1/2+y,1/2+z
1/2-x,-y,1/2+z
1/2+x,1/2-y,-z
-x,1/2+y,1/2-z
1/2-x,1/2-y,1/2-z
1/2+x,y,1/2-z
1/2-x,1/2+y,z
x,1/2-y,1/2+z
loop_
_atom_site_type_symbol
_atom_site_label
_atom_site_fract_x
_atom_site_fract_y
_atom_site_fract_z
Si Si1 0.628453 0.182475 0.597077
Si Si2 0.897677 0.970837 0.345947
Si Si3 0.097426 0.843594 0.232332
Si Si4 0.306834 0.500000 0.250000
Si Si5 0.495518 0.500000 0.250000
Si Si6 0.862263 0.756182 0.403705
Si Si7 0.747237 0.130906 0.398196
O O1 0.598249 0.246580 0.671184
O O2 0.621093 0.232832 0.502995
O O3 0.693164 0.176682 0.621666
O O4 0.609267 0.067881 0.594379
O O5 0.869891 0.872179 0.382332
O O6 0.873053 0.000000 0.250000
O O7 0.962450 0.958078 0.323521
O O8 0.151594 0.912811 0.215968
O O9 0.102585 0.806590 0.332735
O O10 0.044223 0.911971 0.217876
O O11 0.270823 0.453724 0.328914
O O12 0.799770 0.716065 0.393936
O O13 0.750000 0.094292 0.500000
#
# Coordination Sequence:
#
# PCOD9531033 Si02
#       7
#    16  16  16   8   8  16  16
#     4  11  23  38  64  93 125 164 207 249 304 370
#     4  10  22  41  64  89 117 167 204 255 306 361
#     4  10  20  41  59  89 120 164 206 257 310 357
#     4   9  20  33  62  86 120 165 208 245 296 372
#     4   9  22  41  68  82 122 161 202 263 318 354
#     4  10  22  41  62  90 131 161 203 254 304 368
#     4   9  21  38  57  92 129 167 199 248 305 359
#
# _framework density 19.500150000000001
#
# number of rings (size 3 to 8) (size 9 to 14) (size 15 to 20)
#    0.500    1.667    1.667    0.000    1.167   12.000 
#    0.000   10.000    0.000    0.000    0.000    0.000 
#    0.000    0.000    0.000    0.000    0.000    0.000 
#
# Total GULP energy -267880.702431 kJ/mol
# GULP energy per Si atom -5580.847967 kJ/mol
# Density = 1.945577 g / cm^3
# Si number density = 19.500150 Si / 1000 Ang^3
#
#
#
# Elastic Constant Matrix: (Units=GPa)
#
#
# Indices 1 2 3 4 5 6 
#
# 1 70.4853 33.1770 49.7044 0.0000 0.0000 0.0000
# 2 33.1770 123.6923 60.7787 0.0000 0.0000 0.0000
# 3 49.7044 60.7787 93.4985 0.0000 0.0000 0.0000
# 4 0.0000 0.0000 0.0000 38.2599 0.0000 0.0000
# 5 0.0000 0.0000 0.0000 0.0000 -12.2946 0.0000
# 6 0.0000 0.0000 0.0000 0.0000 0.0000 21.9050
#
#
#
# Elastic Compliance Matrix: (Units=1/GPa)
#
#
# Indices 1 2 3 4 5 6 
#
# 1 0.022700 -0.000234 -0.011915 0.000000 0.000000 0.000000
# 2 -0.000234 0.011881 -0.007599 0.000000 0.000000 0.000000
# 3 -0.011915 -0.007599 0.021969 0.000000 0.000000 0.000000
# 4 0.000000 0.000000 0.000000 0.026137 0.000000 0.000000
# 5 0.000000 0.000000 0.000000 0.000000 -0.081336 0.000000
# 6 0.000000 0.000000 0.000000 0.000000 0.000000 0.045652
#
#
# Mechanical properties :
#
#
# Convention : Reuss Voigt Hill
#
# Bulk Modulus (GPa) = 58.63741 63.88847 61.26294
# Shear Modulus (GPa) = 54.23936 19.17513 36.70724
#
# Velocity S-wave (km/s) = 5.27970 3.13922 4.34338
# Velocity P-wave (km/s) = 8.20381 6.78040 7.52583
#
# Compressibility (1/GPa) = 0.01705396
#
# Stress axis : x y z
#
# Youngs Moduli (GPa) = 44.05330 84.16613 45.51768
#
# Poissons Ratio (x) = 0.01967 0.54236
# Poissons Ratio (y) = 0.01030 0.34590
# Poissons Ratio (z) = 0.52491 0.63959
#
# Static dielectric constant tensor:
#      x y z
#    x 1.685020 0.000000 0.000000 
#    y 0.000000 1.670080 0.000000 
#    z 0.000000 0.000000 1.679970 
# 
# From -- ./inp_files/23881.got.cif
#   From: 2010.05.17/outbox.cif.g08.bks.cpg/sg73_12_cif.got.tgz:23881.got - 2010.06.03 17:35:07.
