data_PCOD9531790
_publ_section_title
;
Structure prediction by ZEFSAII (Michael W. Deem and Ramdas Pophale) SiO2 
 PCOD9531790
Probable space group: I B C A 
;
_chemical_formula_sum "Si O2"
_cell_formula_units_Z 112
_cell_length_a 12.682102
_cell_length_b 20.506740
_cell_length_c 21.467795
_cell_angle_alpha 90.000000
_cell_angle_beta 90.000000
_cell_angle_gamma 90.000000
_cell_volume 5583.098712
_symmetry_space_group_name_H-M "I B C A "
_symmetry_group_IT_number 73
_symmetry_cell_setting 'orthorhombic'
loop_
_space_group_symop_operation_xyz
x,y,z
-x,1/2-y,z
x,-y,1/2-z
1/2-x,y,-z
-x,-y,-z
x,1/2+y,-z
-x,y,1/2+z
1/2+x,-y,z
1/2+x,1/2+y,1/2+z
1/2-x,-y,1/2+z
1/2+x,1/2-y,-z
-x,1/2+y,1/2-z
1/2-x,1/2-y,1/2-z
1/2+x,y,1/2-z
1/2-x,1/2+y,z
x,1/2-y,1/2+z
loop_
_atom_site_type_symbol
_atom_site_label
_atom_site_fract_x
_atom_site_fract_y
_atom_site_fract_z
Si Si1 0.250000 0.750481 0.500000
Si Si2 0.726018 0.859954 0.407259
Si Si3 0.667089 0.226035 0.799076
Si Si4 0.940247 0.429798 0.604614
Si Si5 0.599194 0.097859 0.751700
Si Si6 0.288431 0.000000 0.750000
Si Si7 0.445360 0.545460 0.354696
Si Si8 0.917061 0.694216 0.409682
O O1 0.304944 0.697296 0.454890
O O2 0.178507 0.795432 0.456652
O O3 0.774950 0.820680 0.348941
O O4 0.826424 0.907883 0.423211
O O5 0.625335 0.901548 0.389547
O O6 0.750000 0.250000 0.750000
O O7 0.594431 0.175523 0.761435
O O8 0.617405 0.283944 0.839882
O O9 0.931600 0.429248 0.680284
O O10 0.990589 0.500854 0.596237
O O11 0.024191 0.374057 0.587879
O O12 0.525035 0.076920 0.695365
O O13 0.713379 0.063568 0.742041
O O14 0.360838 0.007095 0.688952
O O15 0.000000 0.750000 0.427999
#
# Coordination Sequence:
#
# PCOD9531790 Si02
#       8
#     8  16  16  16  16   8  16  16
#     4  10  22  46  66  82 112 162 222 264 320 364
#     4  10  22  41  63  84 119 166 207 258 321 359
#     4  10  22  35  56  91 129 163 204 244 309 378
#     4  11  20  37  61  93 115 163 210 244 314 383
#     4  11  20  33  53  89 131 167 195 236 302 380
#     4  12  18  32  56  88 132 170 198 232 300 382
#     4  12  21  34  61  94 130 167 201 250 313 379
#     4  11  21  40  68  86 115 168 212 261 309 378
#
# _framework density 20.060545000000001
#
# number of rings (size 3 to 8) (size 9 to 14) (size 15 to 20)
#    0.000    1.143   10.000    0.000    4.000    0.000 
#    0.000    4.286    0.000    0.000    0.000    0.000 
#    0.000    0.000    0.000    0.000    0.000    0.000 
#
# Total GULP energy -312235.431214 kJ/mol
# GULP energy per Si atom -5575.632700 kJ/mol
# Density = 2.001489 g / cm^3
# Si number density = 20.060545 Si / 1000 Ang^3
#
#
#
# Elastic Constant Matrix: (Units=GPa)
#
#
# Indices 1 2 3 4 5 6 
#
# 1 66.9985 6.5219 13.6064 0.0000 0.0000 0.0000
# 2 6.5219 33.1048 12.5511 0.0000 0.0000 0.0000
# 3 13.6064 12.5511 30.8628 0.0000 0.0000 0.0000
# 4 0.0000 0.0000 0.0000 2.7217 0.0000 0.0000
# 5 0.0000 0.0000 0.0000 0.0000 22.3221 0.0000
# 6 0.0000 0.0000 0.0000 0.0000 0.0000 41.4400
#
#
#
# Elastic Compliance Matrix: (Units=1/GPa)
#
#
# Indices 1 2 3 4 5 6 
#
# 1 0.016403 -0.000579 -0.006996 0.000000 0.000000 0.000000
# 2 -0.000579 0.035734 -0.014277 0.000000 0.000000 0.000000
# 3 -0.006996 -0.014277 0.041292 0.000000 0.000000 0.000000
# 4 0.000000 0.000000 0.000000 0.367413 0.000000 0.000000
# 5 0.000000 0.000000 0.000000 0.000000 0.044799 0.000000
# 6 0.000000 0.000000 0.000000 0.000000 0.000000 0.024131
#
#
# Mechanical properties :
#
#
# Convention : Reuss Voigt Hill
#
# Bulk Modulus (GPa) = 20.11065 21.81388 20.96226
# Shear Modulus (GPa) = 8.47386 19.84922 14.16154
#
# Velocity S-wave (km/s) = 2.05750 3.14899 2.65984
# Velocity P-wave (km/s) = 3.96121 4.91112 4.46152
#
# Compressibility (1/GPa) = 0.04972489
#
# Stress axis : x y z
#
# Youngs Moduli (GPa) = 60.96506 27.98452 24.21791
#
# Poissons Ratio (x) = 0.01621 0.16943
# Poissons Ratio (y) = 0.03530 0.34576
# Poissons Ratio (z) = 0.42651 0.39953
#
# Static dielectric constant tensor:
#      x y z
#    x 1.814000 0.000000 0.000000 
#    y 0.000000 1.772960 0.000000 
#    z 0.000000 0.000000 1.817420 
# 
# From -- ./inp_files/29069.got.cif
#   From: 2010.05.17/outbox.cif.g08.bks.cpg/sg73_15_cif.got.tgz:29069.got - 2010.06.03 17:35:07.
