data_PCOD9531636
_publ_section_title
;
Structure prediction by ZEFSAII (Michael W. Deem and Ramdas Pophale) SiO2 
 PCOD9531636
Probable space group: I B C A 
;
_chemical_formula_sum "Si O2"
_cell_formula_units_Z 104
_cell_length_a 20.161052
_cell_length_b 26.159923
_cell_length_c 9.331828
_cell_angle_alpha 90.000000
_cell_angle_beta 90.000000
_cell_angle_gamma 90.000000
_cell_volume 4921.714037
_symmetry_space_group_name_H-M "I B C A "
_symmetry_group_IT_number 73
_symmetry_cell_setting 'orthorhombic'
loop_
_space_group_symop_operation_xyz
x,y,z
-x,1/2-y,z
x,-y,1/2-z
1/2-x,y,-z
-x,-y,-z
x,1/2+y,-z
-x,y,1/2+z
1/2+x,-y,z
1/2+x,1/2+y,1/2+z
1/2-x,-y,1/2+z
1/2+x,1/2-y,-z
-x,1/2+y,1/2-z
1/2-x,1/2-y,1/2-z
1/2+x,y,1/2-z
1/2-x,1/2+y,z
x,1/2-y,1/2+z
loop_
_atom_site_type_symbol
_atom_site_label
_atom_site_fract_x
_atom_site_fract_y
_atom_site_fract_z
Si Si1 0.823143 0.597194 0.451346
Si Si2 0.850297 0.345476 0.331007
Si Si3 0.952516 0.545867 0.365567
Si Si4 0.589488 0.817780 0.895714
Si Si5 0.379023 0.754474 0.646763
Si Si6 0.530217 0.394907 0.585343
Si Si7 0.250000 0.724069 0.500000
O O1 0.750000 0.581263 0.500000
O O2 0.819697 0.617754 0.288620
O O3 0.881250 0.554305 0.442139
O O4 0.851377 0.643963 0.550252
O O5 0.893259 0.303964 0.243408
O O6 0.896186 0.374846 0.444403
O O7 0.795573 0.312104 0.406406
O O8 0.953348 0.500000 0.250000
O O9 0.965058 0.591788 0.253510
O O10 0.007428 0.557095 0.487894
O O11 0.601935 0.795458 0.737049
O O12 0.524761 0.851310 0.923645
O O13 0.586711 0.767880 0.997372
O O14 0.300875 0.754173 0.602289
#
# Coordination Sequence:
#
# PCOD9531636 Si02
#       7
#    16  16  16  16  16  16   8
#     4   9  19  38  63  87 123 160 204 247 312 368
#     4  10  22  36  55  85 123 166 210 260 295 362
#     4  10  21  41  71  93 122 155 198 261 324 396
#     4  10  22  37  58  84 122 167 211 252 301 354
#     4  11  22  37  53  82 120 171 211 257 292 353
#     4  10  23  42  60  93 122 159 207 260 323 377
#     4  12  22  34  54  80 120 166 224 250 298 350
#
# _framework density 21.130851
#
# number of rings (size 3 to 8) (size 9 to 14) (size 15 to 20)
#    0.000    1.846    1.538    2.769    6.462    0.615 
#    2.769    0.000    6.769    3.692    0.000    0.000 
#    0.000    0.000    0.000    0.000    0.000    0.000 
#
# Total GULP energy -289890.582636 kJ/mol
# GULP energy per Si atom -5574.818897 kJ/mol
# Density = 2.108276 g / cm^3
# Si number density = 21.130851 Si / 1000 Ang^3
#
#
#
# Elastic Constant Matrix: (Units=GPa)
#
#
# Indices 1 2 3 4 5 6 
#
# 1 95.8349 44.7860 37.4805 0.0000 0.0000 0.0000
# 2 44.7860 66.9062 30.1776 0.0000 0.0000 0.0000
# 3 37.4805 30.1776 82.0000 0.0000 0.0000 0.0000
# 4 0.0000 0.0000 0.0000 391.7301 0.0000 0.0000
# 5 0.0000 0.0000 0.0000 0.0000 32.8692 0.0000
# 6 0.0000 0.0000 0.0000 0.0000 0.0000 14.1121
#
#
#
# Elastic Compliance Matrix: (Units=1/GPa)
#
#
# Indices 1 2 3 4 5 6 
#
# 1 0.016263 -0.009033 -0.004109 0.000000 0.000000 0.000000
# 2 -0.009033 0.022938 -0.004313 0.000000 0.000000 0.000000
# 3 -0.004109 -0.004313 0.015661 0.000000 0.000000 0.000000
# 4 0.000000 0.000000 0.000000 0.002553 0.000000 0.000000
# 5 0.000000 0.000000 0.000000 0.000000 0.030424 0.000000
# 6 0.000000 0.000000 0.000000 0.000000 0.000000 0.070861
#
#
# Mechanical properties :
#
#
# Convention : Reuss Voigt Hill
#
# Bulk Modulus (GPa) = 50.12099 52.18104 51.15102
# Shear Modulus (GPa) = 24.96760 96.56209 60.76485
#
# Velocity S-wave (km/s) = 3.44113 6.76730 5.36832
# Velocity P-wave (km/s) = 6.28962 9.26335 7.91736
#
# Compressibility (1/GPa) = 0.01995172
#
# Stress axis : x y z
#
# Youngs Moduli (GPa) = 61.48963 43.59585 63.85440
#
# Poissons Ratio (x) = 0.39379 0.26239
# Poissons Ratio (y) = 0.55542 0.27540
# Poissons Ratio (z) = 0.25268 0.18803
#
# Static dielectric constant tensor:
#      x y z
#    x 1.800970 0.000000 0.000000 
#    y 0.000000 1.842430 0.000000 
#    z 0.000000 0.000000 1.814020 
# 
# From -- ./inp_files/6674.got.cif
#   From: 2010.05.17/outbox.cif.g08.bks.cpg/sg73_4_cif.got.tgz:6674.got - 2010.06.03 17:35:07.
