data_PCOD9531361
_publ_section_title
;
Structure prediction by ZEFSAII (Michael W. Deem and Ramdas Pophale) SiO2 
 PCOD9531361
Probable space group: I B C A 
;
_chemical_formula_sum "Si O2"
_cell_formula_units_Z 80
_cell_length_a 15.505667
_cell_length_b 16.504761
_cell_length_c 15.794731
_cell_angle_alpha 90.000000
_cell_angle_beta 90.000000
_cell_angle_gamma 90.000000
_cell_volume 4042.145354
_symmetry_space_group_name_H-M "I B C A "
_symmetry_group_IT_number 73
_symmetry_cell_setting 'orthorhombic'
loop_
_space_group_symop_operation_xyz
x,y,z
-x,1/2-y,z
x,-y,1/2-z
1/2-x,y,-z
-x,-y,-z
x,1/2+y,-z
-x,y,1/2+z
1/2+x,-y,z
1/2+x,1/2+y,1/2+z
1/2-x,-y,1/2+z
1/2+x,1/2-y,-z
-x,1/2+y,1/2-z
1/2-x,1/2-y,1/2-z
1/2+x,y,1/2-z
1/2-x,1/2+y,z
x,1/2-y,1/2+z
loop_
_atom_site_type_symbol
_atom_site_label
_atom_site_fract_x
_atom_site_fract_y
_atom_site_fract_z
Si Si1 0.191559 0.660388 0.424672
Si Si2 0.796750 0.912494 0.706092
Si Si3 0.882747 0.421299 0.971590
Si Si4 0.720386 0.342673 0.882173
Si Si5 0.422687 0.098581 0.546678
O O1 0.250000 0.624471 0.500000
O O2 0.207137 0.604187 0.343801
O O3 0.229476 0.748265 0.403325
O O4 0.101768 0.664147 0.474056
O O5 0.801553 0.851834 0.784391
O O6 0.869985 0.898691 0.634785
O O7 0.802045 0.000000 0.750000
O O8 0.804951 0.395350 0.908697
O O9 0.975859 0.396807 0.936830
O O10 0.855336 0.376798 0.058352
O O11 0.895694 0.514666 0.999285
#
# Coordination Sequence:
#
# PCOD9531361 Si02
#       5
#    16  16  16  16  16
#     4  10  21  38  63  89 120 165 203 247 310 375
#     4  11  21  37  63  91 124 158 210 257 301 366
#     4  10  21  40  65  87 123 165 204 248 310 370
#     4  11  21  40  63  89 125 163 203 256 319 367
#     4  10  22  40  63  91 122 163 212 251 302 373
#
# _framework density 19.791471000000001
#
# number of rings (size 3 to 8) (size 9 to 14) (size 15 to 20)
#    0.000    1.600    4.000    1.800    5.600    0.800 
#    3.600    1.000    4.400    0.000    0.000    0.000 
#    0.000    0.000    0.000    0.000    0.000    0.000 
#
# Total GULP energy -222822.368433 kJ/mol
# GULP energy per Si atom -5570.559211 kJ/mol
# Density = 1.974642 g / cm^3
# Si number density = 19.791471 Si / 1000 Ang^3
#
#
#
# Elastic Constant Matrix: (Units=GPa)
#
#
# Indices 1 2 3 4 5 6 
#
# 1 89.8252 40.4101 55.1730 0.0000 0.0000 0.0000
# 2 40.4101 48.1476 25.6925 0.0000 0.0000 0.0000
# 3 55.1730 25.6925 146.8650 0.0000 0.0000 0.0000
# 4 0.0000 0.0000 0.0000 30.5365 0.0000 0.0000
# 5 0.0000 0.0000 0.0000 0.0000 17.7203 0.0000
# 6 0.0000 0.0000 0.0000 0.0000 0.0000 7.4342
#
#
#
# Elastic Compliance Matrix: (Units=1/GPa)
#
#
# Indices 1 2 3 4 5 6 
#
# 1 0.021086 -0.014857 -0.005322 0.000000 0.000000 0.000000
# 2 -0.014857 0.033376 -0.000257 0.000000 0.000000 0.000000
# 3 -0.005322 -0.000257 0.008853 0.000000 0.000000 0.000000
# 4 0.000000 0.000000 0.000000 0.032748 0.000000 0.000000
# 5 0.000000 0.000000 0.000000 0.000000 0.056432 0.000000
# 6 0.000000 0.000000 0.000000 0.000000 0.000000 0.134514
#
#
# Mechanical properties :
#
#
# Convention : Reuss Voigt Hill
#
# Bulk Modulus (GPa) = 44.55943 58.59877 51.57910
# Shear Modulus (GPa) = 14.90921 22.04234 18.47578
#
# Velocity S-wave (km/s) = 2.74764 3.34088 3.05867
# Velocity P-wave (km/s) = 5.71221 6.67490 6.21223
#
# Compressibility (1/GPa) = 0.02244194
#
# Stress axis : x y z
#
# Youngs Moduli (GPa) = 47.42593 29.96143 112.95092
#
# Poissons Ratio (x) = 0.44514 0.60114
# Poissons Ratio (y) = 0.70461 0.02908
# Poissons Ratio (z) = 0.25241 0.00771
#
# Static dielectric constant tensor:
#      x y z
#    x 1.789280 0.000000 0.000000 
#    y 0.000000 1.767120 0.000000 
#    z 0.000000 0.000000 1.696840 
# 
# From -- ./inp_files/17849.got.cif
#   From: 2010.05.17/outbox.cif.g08.bks.cpg/sg73_9_cif.got.tgz:17849.got - 2010.06.03 17:35:07.
