data_PCOD9531424
_publ_section_title
;
Structure prediction by ZEFSAII (Michael W. Deem and Ramdas Pophale) SiO2 
 PCOD9531424
Probable space group: I B C A 
;
_chemical_formula_sum "Si O2"
_cell_formula_units_Z 104
_cell_length_a 19.619369
_cell_length_b 27.573023
_cell_length_c 9.654003
_cell_angle_alpha 90.000000
_cell_angle_beta 90.000000
_cell_angle_gamma 90.000000
_cell_volume 5222.480752
_symmetry_space_group_name_H-M "I B C A "
_symmetry_group_IT_number 73
_symmetry_cell_setting 'orthorhombic'
loop_
_space_group_symop_operation_xyz
x,y,z
-x,1/2-y,z
x,-y,1/2-z
1/2-x,y,-z
-x,-y,-z
x,1/2+y,-z
-x,y,1/2+z
1/2+x,-y,z
1/2+x,1/2+y,1/2+z
1/2-x,-y,1/2+z
1/2+x,1/2-y,-z
-x,1/2+y,1/2-z
1/2-x,1/2-y,1/2-z
1/2+x,y,1/2-z
1/2-x,1/2+y,z
x,1/2-y,1/2+z
loop_
_atom_site_type_symbol
_atom_site_label
_atom_site_fract_x
_atom_site_fract_y
_atom_site_fract_z
Si Si1 0.455501 0.064090 0.999352
Si Si2 0.813704 0.314802 0.313030
Si Si3 0.833153 0.298704 0.762325
Si Si4 0.993378 0.000000 0.250000
Si Si5 0.823258 0.630925 0.478690
Si Si6 0.447963 0.146730 0.589976
Si Si7 0.483099 0.194901 0.333866
O O1 0.388753 0.097230 0.993592
O O2 0.523568 0.096328 0.030569
O O3 0.451065 0.030185 0.135810
O O4 0.464229 0.035077 0.854622
O O5 0.732161 0.310921 0.333817
O O6 0.835273 0.258775 0.292291
O O7 0.867655 0.341770 0.411745
O O8 0.822216 0.343105 0.168858
O O9 0.825058 0.327121 0.905748
O O10 0.904596 0.314307 0.700057
O O11 0.750000 0.604980 0.500000
O O12 0.489063 0.185703 0.496750
O O13 0.472636 0.157453 0.745565
O O14 0.500000 0.250000 0.299333
#
# Coordination Sequence:
#
# PCOD9531424 Si02
#       7
#    16  16  16   8  16  16  16
#     4  11  22  42  65  93 118 150 198 258 323 386
#     4  10  22  36  55  86 125 175 212 246 290 345
#     4  10  22  36  54  83 129 173 211 248 288 340
#     4  10  24  42  68  92 116 144 188 266 336 390
#     4  10  21  39  62  88 125 168 204 248 303 363
#     4  12  24  37  62  87 121 159 211 255 301 359
#     4  12  24  35  54  87 126 166 209 259 290 336
#
# _framework density 19.913907999999999
#
# number of rings (size 3 to 8) (size 9 to 14) (size 15 to 20)
#    0.000    1.231    3.077    3.231    2.154    0.615 
#    0.000    0.769    0.000    0.000    0.000    0.000 
#    0.000    0.000    0.000    0.000    0.000    0.000 
#
# Total GULP energy -290256.060329 kJ/mol
# GULP energy per Si atom -5581.847314 kJ/mol
# Density = 1.986858 g / cm^3
# Si number density = 19.913908 Si / 1000 Ang^3
#
#
#
# Elastic Constant Matrix: (Units=GPa)
#
#
# Indices 1 2 3 4 5 6 
#
# 1 131.5719 37.5275 23.5846 0.0000 0.0000 0.0000
# 2 37.5275 77.1491 22.9554 0.0000 0.0000 0.0000
# 3 23.5846 22.9554 90.0150 0.0000 0.0000 0.0000
# 4 0.0000 0.0000 0.0000 25.7581 0.0000 0.0000
# 5 0.0000 0.0000 0.0000 0.0000 22.9316 0.0000
# 6 0.0000 0.0000 0.0000 0.0000 0.0000 7.7318
#
#
#
# Elastic Compliance Matrix: (Units=1/GPa)
#
#
# Indices 1 2 3 4 5 6 
#
# 1 0.008972 -0.003965 -0.001339 0.000000 0.000000 0.000000
# 2 -0.003965 0.015779 -0.002985 0.000000 0.000000 0.000000
# 3 -0.001339 -0.002985 0.012221 0.000000 0.000000 0.000000
# 4 0.000000 0.000000 0.000000 0.038823 0.000000 0.000000
# 5 0.000000 0.000000 0.000000 0.000000 0.043608 0.000000
# 6 0.000000 0.000000 0.000000 0.000000 0.000000 0.129335
#
#
# Mechanical properties :
#
#
# Convention : Reuss Voigt Hill
#
# Bulk Modulus (GPa) = 49.03788 51.87454 50.45621
# Shear Modulus (GPa) = 18.37459 25.59555 21.98507
#
# Velocity S-wave (km/s) = 3.04090 3.58901 3.32626
# Velocity P-wave (km/s) = 6.08340 6.57880 6.33595
#
# Compressibility (1/GPa) = 0.02039240
#
# Stress axis : x y z
#
# Youngs Moduli (GPa) = 111.46357 63.37533 81.82376
#
# Poissons Ratio (x) = 0.25131 0.10959
# Poissons Ratio (y) = 0.44201 0.24424
# Poissons Ratio (z) = 0.14929 0.18917
#
# Static dielectric constant tensor:
#      x y z
#    x 1.748770 0.000000 0.000000 
#    y 0.000000 1.697240 0.000000 
#    z 0.000000 0.000000 1.785770 
# 
# From -- ./inp_files/6686.got.cif
#   From: 2010.05.17/outbox.cif.g08.bks.cpg/sg73_4_cif.got.tgz:6686.got - 2010.06.03 17:35:07.
