data_PCOD9531146
_publ_section_title
;
Structure prediction by ZEFSAII (Michael W. Deem and Ramdas Pophale) SiO2 
 PCOD9531146
Probable space group: I B C A 
;
_chemical_formula_sum "Si O2"
_cell_formula_units_Z 88
_cell_length_a 14.384995
_cell_length_b 13.289157
_cell_length_c 20.529165
_cell_angle_alpha 90.000000
_cell_angle_beta 90.000000
_cell_angle_gamma 90.000000
_cell_volume 3924.446680
_symmetry_space_group_name_H-M "I B C A "
_symmetry_group_IT_number 73
_symmetry_cell_setting 'orthorhombic'
loop_
_space_group_symop_operation_xyz
x,y,z
-x,1/2-y,z
x,-y,1/2-z
1/2-x,y,-z
-x,-y,-z
x,1/2+y,-z
-x,y,1/2+z
1/2+x,-y,z
1/2+x,1/2+y,1/2+z
1/2-x,-y,1/2+z
1/2+x,1/2-y,-z
-x,1/2+y,1/2-z
1/2-x,1/2-y,1/2-z
1/2+x,y,1/2-z
1/2-x,1/2+y,z
x,1/2-y,1/2+z
loop_
_atom_site_type_symbol
_atom_site_label
_atom_site_fract_x
_atom_site_fract_y
_atom_site_fract_z
Si Si1 0.454527 0.036329 0.077803
Si Si2 0.191195 0.972357 0.823787
Si Si3 0.399574 0.264467 0.847576
Si Si4 0.250000 0.294097 0.500000
Si Si5 0.348524 0.068016 0.893013
Si Si6 0.911407 0.346481 0.504326
O O1 0.386920 0.042216 0.139725
O O2 0.546850 0.972005 0.097178
O O3 0.397855 0.963032 0.027819
O O4 0.497007 0.134225 0.040833
O O5 0.153929 0.859683 0.822866
O O6 0.208934 0.000000 0.750000
O O7 0.282584 0.981093 0.867760
O O8 0.500000 0.250000 0.817101
O O9 0.350566 0.157962 0.840422
O O10 0.415693 0.291766 0.925011
O O11 0.199248 0.370882 0.548433
O O12 0.172541 0.215707 0.471652
#
# Coordination Sequence:
#
# PCOD9531146 Si02
#       6
#    16  16  16   8  16  16
#     4  10  22  39  67  90 136 169 218 265 343 388
#     4  11  26  45  66  95 129 176 242 278 321 400
#     4  10  20  44  67  92 133 174 213 270 346 392
#     4  10  24  34  66 100 142 158 224 262 354 412
#     4  11  24  40  67 100 128 182 212 274 343 404
#     4   9  20  36  62  98 127 168 197 270 325 414
#
# _framework density 22.423544
#
# number of rings (size 3 to 8) (size 9 to 14) (size 15 to 20)
#    0.000    1.818    3.636    0.000   15.273    1.455 
#    0.000    1.818    0.000    0.000    0.000    0.000 
#    0.000    0.000    0.000    0.000    0.000    0.000 
#
# Total GULP energy -245100.166075 kJ/mol
# GULP energy per Si atom -5570.458320 kJ/mol
# Density = 2.237251 g / cm^3
# Si number density = 22.423544 Si / 1000 Ang^3
#
#
#
# Elastic Constant Matrix: (Units=GPa)
#
#
# Indices 1 2 3 4 5 6 
#
# 1 93.1532 34.5657 8.8299 0.0000 0.0000 0.0000
# 2 34.5657 88.4159 -1.0031 0.0000 0.0000 0.0000
# 3 8.8299 -1.0031 40.0144 0.0000 0.0000 0.0000
# 4 0.0000 0.0000 0.0000 2.2770 0.0000 0.0000
# 5 0.0000 0.0000 0.0000 0.0000 3.6328 0.0000
# 6 0.0000 0.0000 0.0000 0.0000 0.0000 55.1936
#
#
#
# Elastic Compliance Matrix: (Units=1/GPa)
#
#
# Indices 1 2 3 4 5 6 
#
# 1 0.012901 -0.005077 -0.002974 0.000000 0.000000 0.000000
# 2 -0.005077 0.013312 0.001454 0.000000 0.000000 0.000000
# 3 -0.002974 0.001454 0.025684 0.000000 0.000000 0.000000
# 4 0.000000 0.000000 0.000000 0.439174 0.000000 0.000000
# 5 0.000000 0.000000 0.000000 0.000000 0.275271 0.000000
# 6 0.000000 0.000000 0.000000 0.000000 0.000000 0.018118
#
#
# Mechanical properties :
#
#
# Convention : Reuss Voigt Hill
#
# Bulk Modulus (GPa) = 25.83865 34.04094 29.93979
# Shear Modulus (GPa) = 6.16861 24.16674 15.16768
#
# Velocity S-wave (km/s) = 1.66040 3.28646 2.60362
# Velocity P-wave (km/s) = 3.90178 5.44196 4.73491
#
# Compressibility (1/GPa) = 0.03870172
#
# Stress axis : x y z
#
# Youngs Moduli (GPa) = 77.51387 75.12233 38.93512
#
# Poissons Ratio (x) = 0.38142 0.11580
# Poissons Ratio (y) = 0.39356 -0.05662
# Poissons Ratio (z) = 0.23053 -0.10923
#
# Static dielectric constant tensor:
#      x y z
#    x 1.925110 0.000000 0.000000 
#    y 0.000000 1.890540 0.000000 
#    z 0.000000 0.000000 1.871880 
# 
# From -- ./inp_files/25946.got.cif
#   From: 2010.05.17/outbox.cif.g08.bks.cpg/sg73_13_cif.got.tgz:25946.got - 2010.06.03 17:35:07.
