data_PCOD9531357
_publ_section_title
;
Structure prediction by ZEFSAII (Michael W. Deem and Ramdas Pophale) SiO2 
 PCOD9531357
Probable space group: I B C A 
;
_chemical_formula_sum "Si O2"
_cell_formula_units_Z 88
_cell_length_a 21.215097
_cell_length_b 16.472208
_cell_length_c 9.877371
_cell_angle_alpha 90.000000
_cell_angle_beta 90.000000
_cell_angle_gamma 90.000000
_cell_volume 3451.741037
_symmetry_space_group_name_H-M "I B C A "
_symmetry_group_IT_number 73
_symmetry_cell_setting 'orthorhombic'
loop_
_space_group_symop_operation_xyz
x,y,z
-x,1/2-y,z
x,-y,1/2-z
1/2-x,y,-z
-x,-y,-z
x,1/2+y,-z
-x,y,1/2+z
1/2+x,-y,z
1/2+x,1/2+y,1/2+z
1/2-x,-y,1/2+z
1/2+x,1/2-y,-z
-x,1/2+y,1/2-z
1/2-x,1/2-y,1/2-z
1/2+x,y,1/2-z
1/2-x,1/2+y,z
x,1/2-y,1/2+z
loop_
_atom_site_type_symbol
_atom_site_label
_atom_site_fract_x
_atom_site_fract_y
_atom_site_fract_z
Si Si1 0.635420 0.807994 0.801757
Si Si2 0.269663 0.000000 0.750000
Si Si3 0.097168 0.403863 0.033628
Si Si4 0.141310 0.074003 0.024997
Si Si5 0.531518 0.673631 0.518444
Si Si6 0.286662 0.662614 0.369261
O O1 0.612677 0.852646 0.667780
O O2 0.571640 0.791255 0.890710
O O3 0.684320 0.734705 0.777168
O O4 0.668926 0.868102 0.910064
O O5 0.309979 0.040744 0.869270
O O6 0.245422 0.084305 0.680767
O O7 0.108600 0.499232 0.052425
O O8 0.148248 0.376021 0.924100
O O9 0.026221 0.385495 0.986636
O O10 0.085365 0.124526 0.096646
O O11 0.500000 0.750000 0.589901
O O12 0.250000 0.696639 0.500000
#
# Coordination Sequence:
#
# PCOD9531357 Si02
#       6
#    16   8  16  16  16  16
#     4  10  24  41  70 102 142 180 231 295 346 419
#     4  10  24  48  74  90 140 180 232 294 348 436
#     4  11  21  43  68  99 141 184 239 283 348 427
#     4   9  22  42  66 105 134 187 228 282 359 413
#     4  10  21  38  63 102 139 182 230 282 352 415
#     4  11  26  48  69 103 133 184 239 290 364 418
#
# _framework density 25.494381000000001
#
# number of rings (size 3 to 8) (size 9 to 14) (size 15 to 20)
#    1.091    0.727    1.818    1.091    5.091    4.364 
#    6.545    0.909    0.000    0.000    0.000    0.000 
#    0.000    0.000    0.000    0.000    0.000    0.000 
#
# Total GULP energy -245577.649885 kJ/mol
# GULP energy per Si atom -5581.310225 kJ/mol
# Density = 2.543636 g / cm^3
# Si number density = 25.494381 Si / 1000 Ang^3
#
#
#
# Elastic Constant Matrix: (Units=GPa)
#
#
# Indices 1 2 3 4 5 6 
#
# 1 115.9512 20.3574 25.2373 0.0000 0.0000 0.0000
# 2 20.3574 132.1886 26.8692 0.0000 0.0000 0.0000
# 3 25.2373 26.8692 74.6122 0.0000 0.0000 0.0000
# 4 0.0000 0.0000 0.0000 -8.9191 0.0000 0.0000
# 5 0.0000 0.0000 0.0000 0.0000 23.6098 0.0000
# 6 0.0000 0.0000 0.0000 0.0000 0.0000 -31.4229
#
#
#
# Elastic Compliance Matrix: (Units=1/GPa)
#
#
# Indices 1 2 3 4 5 6 
#
# 1 0.009400 -0.000865 -0.002868 0.000000 0.000000 0.000000
# 2 -0.000865 0.008242 -0.002676 0.000000 0.000000 0.000000
# 3 -0.002868 -0.002676 0.015336 0.000000 0.000000 0.000000
# 4 0.000000 0.000000 0.000000 -0.112119 0.000000 0.000000
# 5 0.000000 0.000000 0.000000 0.000000 0.042355 0.000000
# 6 0.000000 0.000000 0.000000 0.000000 0.000000 -0.031824
#
#
# Mechanical properties :
#
#
# Convention : Reuss Voigt Hill
#
# Bulk Modulus (GPa) = 49.59919 51.96443 50.78181
# Shear Modulus (GPa) = -101.89178 13.33944 -44.27617
#
# Velocity S-wave (km/s) = -6.32875 2.28991 -4.17190
# Velocity P-wave (km/s) = 5.82297 5.23627 1.80118
#
# Compressibility (1/GPa) = 0.02016162
#
# Stress axis : x y z
#
# Youngs Moduli (GPa) = 106.37820 121.33024 65.20458
#
# Poissons Ratio (x) = 0.10491 0.18702
# Poissons Ratio (y) = 0.09198 0.17446
# Poissons Ratio (z) = 0.30512 0.32463
#
# Static dielectric constant tensor:
#      x y z
#    x 1.996270 0.000000 0.000000 
#    y 0.000000 2.131580 0.000000 
#    z 0.000000 0.000000 1.986190 
# 
# From -- ./inp_files/12750.got.cif
#   From: 2010.05.17/outbox.cif.g08.bks.cpg/sg73_7_cif.got.tgz:12750.got - 2010.06.03 17:35:07.
