data_PCOD9531341
_publ_section_title
;
Structure prediction by ZEFSAII (Michael W. Deem and Ramdas Pophale) SiO2 
 PCOD9531341
Probable space group: I B C A 
;
_chemical_formula_sum "Si O2"
_cell_formula_units_Z 96
_cell_length_a 22.642592
_cell_length_b 11.590611
_cell_length_c 16.546008
_cell_angle_alpha 90.000000
_cell_angle_beta 90.000000
_cell_angle_gamma 90.000000
_cell_volume 4342.358760
_symmetry_space_group_name_H-M "I B C A "
_symmetry_group_IT_number 73
_symmetry_cell_setting 'orthorhombic'
loop_
_space_group_symop_operation_xyz
x,y,z
-x,1/2-y,z
x,-y,1/2-z
1/2-x,y,-z
-x,-y,-z
x,1/2+y,-z
-x,y,1/2+z
1/2+x,-y,z
1/2+x,1/2+y,1/2+z
1/2-x,-y,1/2+z
1/2+x,1/2-y,-z
-x,1/2+y,1/2-z
1/2-x,1/2-y,1/2-z
1/2+x,y,1/2-z
1/2-x,1/2+y,z
x,1/2-y,1/2+z
loop_
_atom_site_type_symbol
_atom_site_label
_atom_site_fract_x
_atom_site_fract_y
_atom_site_fract_z
Si Si1 0.165795 0.896644 0.058397
Si Si2 0.711722 0.854856 0.624354
Si Si3 0.535588 0.627954 0.336571
Si Si4 0.932293 0.224053 0.489706
Si Si5 0.560953 0.500000 0.750000
Si Si6 0.137603 0.860270 0.361094
Si Si7 0.862859 0.500000 0.750000
O O1 0.217673 0.852045 0.116993
O O2 0.106263 0.821120 0.056355
O O3 0.155578 0.025183 0.089923
O O4 0.189437 0.885720 0.966530
O O5 0.690455 0.728240 0.651260
O O6 0.680035 0.947205 0.682099
O O7 0.500000 0.750000 0.326480
O O8 0.563961 0.619878 0.425577
O O9 0.483923 0.535888 0.320752
O O10 0.590790 0.599847 0.278381
O O11 0.904817 0.203560 0.576114
O O12 0.000000 0.250000 0.502793
O O13 0.603041 0.399134 0.781579
#
# Coordination Sequence:
#
# PCOD9531341 Si02
#       7
#    16  16  16  16   8  16   8
#     4  10  23  43  65  92 123 164 214 262 312 370
#     4  10  24  42  65  95 128 169 211 262 314 371
#     4  10  21  38  60  91 130 168 210 265 320 372
#     4  10  22  40  66  92 120 163 213 259 315 383
#     4  11  24  37  58  92 132 166 204 266 326 373
#     4  11  23  42  65  91 128 167 211 259 315 381
#     4  11  22  39  64  94 132 172 214 256 318 385
#
# _framework density 22.107800000000001
#
# number of rings (size 3 to 8) (size 9 to 14) (size 15 to 20)
#    0.000    1.667    0.000    4.000    0.000   16.000 
#    0.000    2.500    0.000    0.000    0.000    0.000 
#    0.000    0.000    0.000    0.000    0.000    0.000 
#
# Total GULP energy -267915.130577 kJ/mol
# GULP energy per Si atom -5581.565220 kJ/mol
# Density = 2.205748 g / cm^3
# Si number density = 22.107800 Si / 1000 Ang^3
#
#
#
# Elastic Constant Matrix: (Units=GPa)
#
#
# Indices 1 2 3 4 5 6 
#
# 1 154.3781 54.1327 25.8965 0.0000 0.0000 0.0000
# 2 54.1327 70.9036 10.1689 0.0000 0.0000 0.0000
# 3 25.8965 10.1689 53.9418 0.0000 0.0000 0.0000
# 4 0.0000 0.0000 0.0000 43.2669 0.0000 0.0000
# 5 0.0000 0.0000 0.0000 0.0000 14.7641 0.0000
# 6 0.0000 0.0000 0.0000 0.0000 0.0000 3.9431
#
#
#
# Elastic Compliance Matrix: (Units=1/GPa)
#
#
# Indices 1 2 3 4 5 6 
#
# 1 0.009365 -0.006686 -0.003235 0.000000 0.000000 0.000000
# 2 -0.006686 0.019269 -0.000423 0.000000 0.000000 0.000000
# 3 -0.003235 -0.000423 0.020171 0.000000 0.000000 0.000000
# 4 0.000000 0.000000 0.000000 0.023112 0.000000 0.000000
# 5 0.000000 0.000000 0.000000 0.000000 0.067732 0.000000
# 6 0.000000 0.000000 0.000000 0.000000 0.000000 0.253609
#
#
# Mechanical properties :
#
#
# Convention : Reuss Voigt Hill
#
# Bulk Modulus (GPa) = 35.56573 51.06884 43.31729
# Shear Modulus (GPa) = 11.81144 24.99650 18.40397
#
# Velocity S-wave (km/s) = 2.31393 3.36618 2.88838
# Velocity P-wave (km/s) = 4.82300 6.18533 5.54615
#
# Compressibility (1/GPa) = 0.02811695
#
# Stress axis : x y z
#
# Youngs Moduli (GPa) = 106.78470 51.89812 49.57495
#
# Poissons Ratio (x) = 0.34697 0.16040
# Poissons Ratio (y) = 0.71392 0.02096
# Poissons Ratio (z) = 0.34550 0.02194
#
# Static dielectric constant tensor:
#      x y z
#    x 1.845900 0.000000 0.000000 
#    y 0.000000 1.827700 0.000000 
#    z 0.000000 0.000000 1.850060 
# 
# From -- ./inp_files/23575.got.cif
#   From: 2010.05.17/outbox.cif.g08.bks.cpg/sg73_12_cif.got.tgz:23575.got - 2010.06.03 17:35:07.
