data_PCOD9531660
_publ_section_title
;
Structure prediction by ZEFSAII (Michael W. Deem and Ramdas Pophale) SiO2 
 PCOD9531660
Probable space group: I B C A 
;
_chemical_formula_sum "Si O2"
_cell_formula_units_Z 120
_cell_length_a 20.170416
_cell_length_b 18.140779
_cell_length_c 15.764943
_cell_angle_alpha 90.000000
_cell_angle_beta 90.000000
_cell_angle_gamma 90.000000
_cell_volume 5768.503928
_symmetry_space_group_name_H-M "I B C A "
_symmetry_group_IT_number 73
_symmetry_cell_setting 'orthorhombic'
loop_
_space_group_symop_operation_xyz
x,y,z
-x,1/2-y,z
x,-y,1/2-z
1/2-x,y,-z
-x,-y,-z
x,1/2+y,-z
-x,y,1/2+z
1/2+x,-y,z
1/2+x,1/2+y,1/2+z
1/2-x,-y,1/2+z
1/2+x,1/2-y,-z
-x,1/2+y,1/2-z
1/2-x,1/2-y,1/2-z
1/2+x,y,1/2-z
1/2-x,1/2+y,z
x,1/2-y,1/2+z
loop_
_atom_site_type_symbol
_atom_site_label
_atom_site_fract_x
_atom_site_fract_y
_atom_site_fract_z
Si Si1 0.819735 0.980269 0.545441
Si Si2 0.717607 0.405814 0.821509
Si Si3 0.099716 0.753713 0.042228
Si Si4 0.293534 0.746837 0.084716
Si Si5 0.434673 0.477993 0.906807
Si Si6 0.840230 0.000000 0.250000
Si Si7 0.191777 0.836353 0.151335
Si Si8 0.991606 0.621140 0.530634
O O1 0.750000 0.997917 0.500000
O O2 0.880885 0.989128 0.482534
O O3 0.816078 0.896594 0.577727
O O4 0.821618 0.031853 0.627421
O O5 0.719670 0.334647 0.881616
O O6 0.788354 0.441139 0.792253
O O7 0.679519 0.376547 0.738811
O O8 0.147369 0.767436 0.122762
O O9 0.134593 0.764924 0.951045
O O10 0.074124 0.670600 0.034488
O O11 0.045646 0.817432 0.054518
O O12 0.266574 0.805537 0.151768
O O13 0.250000 0.756227 0.000000
O O14 0.389550 0.469277 0.823201
O O15 0.483070 0.413515 0.941433
O O16 0.479349 0.552106 0.907282
#
# Coordination Sequence:
#
# PCOD9531660 Si02
#       8
#    16  16  16  16  16   8  16  16
#     4  12  20  38  67  96 136 178 220 269 354 422
#     4  12  23  39  60 109 140 175 211 276 355 421
#     4  10  21  42  67  95 124 176 230 279 326 410
#     4  10  23  38  66  98 130 173 220 273 352 419
#     4  11  24  44  67  97 130 185 231 286 325 413
#     4  12  26  38  68 100 152 166 226 290 348 402
#     4  11  22  38  62 102 137 170 215 287 351 403
#     4  10  23  43  68  88 122 183 242 265 327 393
#
# _framework density 20.802620999999998
#
# number of rings (size 3 to 8) (size 9 to 14) (size 15 to 20)
#    0.000    1.067    4.000    2.800    5.600    0.000 
#    0.000    4.000    0.000    4.800    0.000    0.000 
#    0.000    0.000    0.000    0.000    0.000    0.000 
#
# Total GULP energy -334594.396563 kJ/mol
# GULP energy per Si atom -5576.573276 kJ/mol
# Density = 2.075527 g / cm^3
# Si number density = 20.802621 Si / 1000 Ang^3
#
#
#
# Elastic Constant Matrix: (Units=GPa)
#
#
# Indices 1 2 3 4 5 6 
#
# 1 43.4788 17.0508 28.6355 0.0000 0.0000 0.0000
# 2 17.0508 90.4618 23.3575 0.0000 0.0000 0.0000
# 3 28.6355 23.3575 79.5022 0.0000 0.0000 0.0000
# 4 0.0000 0.0000 0.0000 29.9383 0.0000 0.0000
# 5 0.0000 0.0000 0.0000 0.0000 28.0717 0.0000
# 6 0.0000 0.0000 0.0000 0.0000 0.0000 39.3501
#
#
#
# Elastic Compliance Matrix: (Units=1/GPa)
#
#
# Indices 1 2 3 4 5 6 
#
# 1 0.030986 -0.003202 -0.010220 0.000000 0.000000 0.000000
# 2 -0.003202 0.012293 -0.002458 0.000000 0.000000 0.000000
# 3 -0.010220 -0.002458 0.016982 0.000000 0.000000 0.000000
# 4 0.000000 0.000000 0.000000 0.033402 0.000000 0.000000
# 5 0.000000 0.000000 0.000000 0.000000 0.035623 0.000000
# 6 0.000000 0.000000 0.000000 0.000000 0.000000 0.025413
#
#
# Mechanical properties :
#
#
# Convention : Reuss Voigt Hill
#
# Bulk Modulus (GPa) = 35.08731 39.05892 37.07311
# Shear Modulus (GPa) = 25.51553 29.09861 27.30707
#
# Velocity S-wave (km/s) = 3.50602 3.74410 3.62702
# Velocity P-wave (km/s) = 5.77000 6.12436 5.94982
#
# Compressibility (1/GPa) = 0.02850033
#
# Stress axis : x y z
#
# Youngs Moduli (GPa) = 32.27227 81.34979 58.88701
#
# Poissons Ratio (x) = 0.26045 0.60184
# Poissons Ratio (y) = 0.10332 0.14476
# Poissons Ratio (z) = 0.32983 0.19999
#
# Static dielectric constant tensor:
#      x y z
#    x 1.851460 0.000000 0.000000 
#    y 0.000000 1.758670 0.000000 
#    z 0.000000 0.000000 1.765900 
# 
# From -- ./inp_files/19527.got.cif
#   From: 2010.05.17/outbox.cif.g08.bks.cpg/sg73_10_cif.got.tgz:19527.got - 2010.06.03 17:35:07.
