data_PCOD9531287
_publ_section_title
;
Structure prediction by ZEFSAII (Michael W. Deem and Ramdas Pophale) SiO2 
 PCOD9531287
Probable space group: I B C A 
;
_chemical_formula_sum "Si O2"
_cell_formula_units_Z 88
_cell_length_a 9.599182
_cell_length_b 28.140277
_cell_length_c 15.171593
_cell_angle_alpha 90.000000
_cell_angle_beta 90.000000
_cell_angle_gamma 90.000000
_cell_volume 4098.205933
_symmetry_space_group_name_H-M "I B C A "
_symmetry_group_IT_number 73
_symmetry_cell_setting 'orthorhombic'
loop_
_space_group_symop_operation_xyz
x,y,z
-x,1/2-y,z
x,-y,1/2-z
1/2-x,y,-z
-x,-y,-z
x,1/2+y,-z
-x,y,1/2+z
1/2+x,-y,z
1/2+x,1/2+y,1/2+z
1/2-x,-y,1/2+z
1/2+x,1/2-y,-z
-x,1/2+y,1/2-z
1/2-x,1/2-y,1/2-z
1/2+x,y,1/2-z
1/2-x,1/2+y,z
x,1/2-y,1/2+z
loop_
_atom_site_type_symbol
_atom_site_label
_atom_site_fract_x
_atom_site_fract_y
_atom_site_fract_z
Si Si1 0.047827 0.000000 0.750000
Si Si2 0.226834 0.863656 0.190205
Si Si3 0.500993 0.303761 0.781168
Si Si4 0.210033 0.556893 0.832319
Si Si5 0.750000 0.363218 0.500000
Si Si6 0.527438 0.696064 0.516470
Si Si7 0.750000 0.878324 0.000000
O O1 0.937530 0.966004 0.802011
O O2 0.156918 0.978340 0.677870
O O3 0.348470 0.824983 0.202501
O O4 0.084673 0.837061 0.214793
O O5 0.247715 0.904264 0.259880
O O6 0.231070 0.887578 0.093862
O O7 0.500000 0.250000 0.748244
O O8 0.570431 0.302404 0.879409
O O9 0.199716 0.586405 0.922832
O O10 0.618720 0.329556 0.489485
O O11 0.500000 0.750000 0.486150
O O12 0.632247 0.659507 0.469947
#
# Coordination Sequence:
#
# PCOD9531287 Si02
#       7
#     8  16  16  16   8  16   8
#     4  10  26  50  72  98 134 168 212 314 352 430
#     4  11  22  41  62  95 129 178 222 272 324 413
#     4  10  21  37  60  92 135 178 227 270 319 378
#     4  11  25  47  73 100 133 170 226 279 365 410
#     4  10  25  36  61  92 130 184 220 269 326 379
#     4  10  22  41  60  98 141 182 226 271 318 383
#     4  12  25  42  75 104 134 190 226 277 328 423
#
# _framework density 21.472809999999999
#
# number of rings (size 3 to 8) (size 9 to 14) (size 15 to 20)
#    0.000    1.455    1.818    2.182    7.636    1.455 
#    0.000    3.636    0.000    0.000    0.000    0.000 
#    0.000    0.000    0.000    0.000    0.000    0.000 
#
# Total GULP energy -245454.438542 kJ/mol
# GULP energy per Si atom -5578.509967 kJ/mol
# Density = 2.142394 g / cm^3
# Si number density = 21.472810 Si / 1000 Ang^3
#
#
#
# Elastic Constant Matrix: (Units=GPa)
#
#
# Indices 1 2 3 4 5 6 
#
# 1 106.5698 11.8041 -7.7335 -0.0001 0.0000 0.0000
# 2 11.8041 59.7055 1.6723 0.0000 0.0000 0.0000
# 3 -7.7335 1.6723 62.8199 -0.0004 0.0000 -0.0001
# 4 -0.0001 0.0000 -0.0004 182.6672 0.0000 0.0000
# 5 0.0000 0.0000 0.0000 0.0000 26.7174 0.0000
# 6 0.0000 0.0000 -0.0001 0.0000 0.0000 19.5255
#
#
#
# Elastic Compliance Matrix: (Units=1/GPa)
#
#
# Indices 1 2 3 4 5 6 
#
# 1 0.009690 -0.001951 0.001245 0.000000 0.000000 0.000000
# 2 -0.001951 0.017154 -0.000697 0.000000 0.000000 0.000000
# 3 0.001245 -0.000697 0.016090 0.000000 0.000000 0.000000
# 4 0.000000 0.000000 0.000000 0.005474 0.000000 0.000000
# 5 0.000000 0.000000 0.000000 0.000000 0.037429 0.000000
# 6 0.000000 0.000000 0.000000 0.000000 0.000000 0.051215
#
#
# Mechanical properties :
#
#
# Convention : Reuss Voigt Hill
#
# Bulk Modulus (GPa) = 24.91958 26.73122 25.82540
# Shear Modulus (GPa) = 32.62981 60.67217 46.65099
#
# Velocity S-wave (km/s) = 3.90242 5.32134 4.66613
# Velocity P-wave (km/s) = 5.65115 7.08742 6.40964
#
# Compressibility (1/GPa) = 0.04012909
#
# Stress axis : x y z
#
# Youngs Moduli (GPa) = 103.20006 58.29528 62.14915
#
# Poissons Ratio (x) = 0.11371 -0.07736
# Poissons Ratio (y) = 0.20130 0.04331
# Poissons Ratio (z) = -0.12846 0.04062
#
# Static dielectric constant tensor:
#      x y z
#    x 1.189240 0.000000 0.000000 
#    y 0.000000 1.789530 0.000000 
#    z 0.000000 0.000000 1.842610 
# 
# From -- ./inp_files/20869.got.cif
#   From: 2010.05.17/outbox.cif.g08.bks.cpg/sg73_11_cif.got.tgz:20869.got - 2010.06.03 17:35:07.
