data_PCOD9531768
_publ_section_title
;
Structure prediction by ZEFSAII (Michael W. Deem and Ramdas Pophale) SiO2 
 PCOD9531768
Probable space group: I B C A 
;
_chemical_formula_sum "Si O2"
_cell_formula_units_Z 120
_cell_length_a 25.229648
_cell_length_b 24.989444
_cell_length_c 7.725025
_cell_angle_alpha 90.000000
_cell_angle_beta 90.000000
_cell_angle_gamma 90.000000
_cell_volume 4870.434178
_symmetry_space_group_name_H-M "I B C A "
_symmetry_group_IT_number 73
_symmetry_cell_setting 'orthorhombic'
loop_
_space_group_symop_operation_xyz
x,y,z
-x,1/2-y,z
x,-y,1/2-z
1/2-x,y,-z
-x,-y,-z
x,1/2+y,-z
-x,y,1/2+z
1/2+x,-y,z
1/2+x,1/2+y,1/2+z
1/2-x,-y,1/2+z
1/2+x,1/2-y,-z
-x,1/2+y,1/2-z
1/2-x,1/2-y,1/2-z
1/2+x,y,1/2-z
1/2-x,1/2+y,z
x,1/2-y,1/2+z
loop_
_atom_site_type_symbol
_atom_site_label
_atom_site_fract_x
_atom_site_fract_y
_atom_site_fract_z
Si Si1 0.049233 0.171565 0.762073
Si Si2 0.602246 0.931218 0.882710
Si Si3 0.432397 0.146863 0.643640
Si Si4 0.366139 0.737554 0.336180
Si Si5 0.708026 0.500000 0.750000
Si Si6 0.609721 0.037494 0.024301
Si Si7 0.798875 0.697100 0.873694
Si Si8 0.283794 0.098727 0.143033
O O1 0.067067 0.121061 0.878419
O O2 0.061244 0.160325 0.560854
O O3 0.084343 0.221708 0.827379
O O4 0.986102 0.170211 0.776265
O O5 0.611423 0.945648 0.678528
O O6 0.661459 0.918582 0.943664
O O7 0.581399 0.979851 0.999731
O O8 0.385464 0.180417 0.737377
O O9 0.418750 0.083725 0.635417
O O10 0.310014 0.764171 0.285894
O O11 0.350909 0.717927 0.527445
O O12 0.667535 0.474756 0.607038
O O13 0.747699 0.548042 0.694602
O O14 0.799087 0.637163 0.800390
O O15 0.750000 0.698895 0.000000
O O16 0.250000 0.130537 0.000000
#
# Coordination Sequence:
#
# PCOD9531768 Si02
#       8
#    16  16  16  16   8  16  16  16
#     4  11  25  47  74 110 143 197 257 307 389 439
#     4  10  21  46  73  99 153 195 239 312 369 460
#     4  11  26  46  77 109 145 196 250 323 373 454
#     4  12  25  51  75 105 150 196 249 313 374 455
#     4  12  26  40  76 112 146 200 250 308 370 456
#     4  10  23  45  69 108 148 189 246 307 381 438
#     4  12  29  50  75 109 151 198 252 311 380 453
#     4  12  26  45  73 109 149 200 253 301 371 462
#
# _framework density 24.638461
#
# number of rings (size 3 to 8) (size 9 to 14) (size 15 to 20)
#    0.000    0.800    4.000    2.400    5.600    4.267 
#    0.000    1.333    0.000    0.000    0.000    0.000 
#    0.000    0.000    0.000    0.000    0.000    0.000 
#
# Total GULP energy -334702.554565 kJ/mol
# GULP energy per Si atom -5578.375909 kJ/mol
# Density = 2.458238 g / cm^3
# Si number density = 24.638461 Si / 1000 Ang^3
#
#
#
# Elastic Constant Matrix: (Units=GPa)
#
#
# Indices 1 2 3 4 5 6 
#
# 1 -47.8286 68.2973 -61.9040 0.0000 0.0000 0.0000
# 2 68.2973 146.2854 62.5304 0.0000 0.0000 0.0000
# 3 -61.9040 62.5304 -27.5627 0.0000 0.0000 0.0000
# 4 0.0000 0.0000 0.0000 37.1353 0.0000 0.0000
# 5 0.0000 0.0000 0.0000 0.0000 -57.4194 0.0000
# 6 0.0000 0.0000 0.0000 0.0000 0.0000 49.9543
#
#
#
# Elastic Compliance Matrix: (Units=1/GPa)
#
#
# Indices 1 2 3 4 5 6 
#
# 1 0.013672 0.003423 -0.022941 0.000000 0.000000 0.000000
# 2 0.003423 0.004327 0.002130 0.000000 0.000000 0.000000
# 3 -0.022941 0.002130 0.020074 0.000000 0.000000 0.000000
# 4 0.000000 0.000000 0.000000 0.026929 0.000000 0.000000
# 5 0.000000 0.000000 0.000000 0.000000 -0.017416 0.000000
# 6 0.000000 0.000000 0.000000 0.000000 0.000000 0.020018
#
#
# Mechanical properties :
#
#
# Convention : Reuss Voigt Hill
#
# Bulk Modulus (GPa) = 303.25546 23.19351 163.22448
# Shear Modulus (GPa) = 48.31824 6.06540 27.19182
#
# Velocity S-wave (km/s) = 4.43322 1.57070 3.32570
# Velocity P-wave (km/s) = 12.22923 3.56699 9.00770
#
# Compressibility (1/GPa) = 0.00329755
#
# Stress axis : x y z
#
# Youngs Moduli (GPa) = 73.14185 231.08168 49.81478
#
# Poissons Ratio (x) = -0.79100 1.14280
# Poissons Ratio (y) = -0.25037 -0.10609
# Poissons Ratio (z) = 1.67794 -0.49213
#
# Static dielectric constant tensor:
#      x y z
#    x 1.922000 0.000000 0.000000 
#    y 0.000000 -4.230610 0.000000 
#    z 0.000000 0.000000 1.733570 
# 
# From -- ./inp_files/8049.got.cif
#   From: 2010.05.17/outbox.cif.g08.bks.cpg/sg73_5_cif.got.tgz:8049.got - 2010.06.03 17:35:07.
