data_PCOD9531251
_publ_section_title
;
Structure prediction by ZEFSAII (Michael W. Deem and Ramdas Pophale) SiO2 
 PCOD9531251
Probable space group: I B C A 
;
_chemical_formula_sum "Si O2"
_cell_formula_units_Z 104
_cell_length_a 12.361486
_cell_length_b 20.881140
_cell_length_c 18.466933
_cell_angle_alpha 90.000000
_cell_angle_beta 90.000000
_cell_angle_gamma 90.000000
_cell_volume 4766.720198
_symmetry_space_group_name_H-M "I B C A "
_symmetry_group_IT_number 73
_symmetry_cell_setting 'orthorhombic'
loop_
_space_group_symop_operation_xyz
x,y,z
-x,1/2-y,z
x,-y,1/2-z
1/2-x,y,-z
-x,-y,-z
x,1/2+y,-z
-x,y,1/2+z
1/2+x,-y,z
1/2+x,1/2+y,1/2+z
1/2-x,-y,1/2+z
1/2+x,1/2-y,-z
-x,1/2+y,1/2-z
1/2-x,1/2-y,1/2-z
1/2+x,y,1/2-z
1/2-x,1/2+y,z
x,1/2-y,1/2+z
loop_
_atom_site_type_symbol
_atom_site_label
_atom_site_fract_x
_atom_site_fract_y
_atom_site_fract_z
Si Si1 0.874105 0.552075 0.303694
Si Si2 0.985573 0.130713 0.817550
Si Si3 0.750000 0.112122 0.000000
Si Si4 0.000000 0.750000 0.254373
Si Si5 0.849020 0.314377 0.128466
Si Si6 0.500000 0.750000 0.511608
Si Si7 0.315581 0.707106 0.400297
Si Si8 0.549339 0.037530 0.066412
O O1 0.815133 0.500000 0.250000
O O2 0.963797 0.583243 0.249569
O O3 0.823397 0.613791 0.344222
O O4 0.919571 0.510923 0.369788
O O5 0.871282 0.166021 0.837209
O O6 0.017511 0.091844 0.889351
O O7 0.051218 0.192597 0.792559
O O8 0.724530 0.160262 0.934083
O O9 0.845941 0.070705 0.968267
O O10 0.910497 0.719594 0.305466
O O11 0.742863 0.273539 0.112499
O O12 0.933792 0.301402 0.061663
O O13 0.411833 0.718184 0.458170
O O14 0.500000 0.000000 0.000000
#
# Coordination Sequence:
#
# PCOD9531251 Si02
#       8
#    16  16   8   8  16   8  16  16
#     4   9  20  40  60  87 130 171 218 265 310 393
#     4   9  20  38  62  89 128 169 211 270 326 396
#     4  10  22  40  56  90 130 164 214 272 338 394
#     4   9  19  36  58  96 126 166 214 264 334 398
#     4  10  21  36  64  96 133 169 214 275 335 403
#     4  11  21  36  62 104 138 162 210 280 350 410
#     4  11  21  39  63  96 136 168 210 271 359 397
#     4  10  22  40  64  88 125 179 218 272 328 389
#
# _framework density 21.817937000000001
#
# number of rings (size 3 to 8) (size 9 to 14) (size 15 to 20)
#    0.000    2.154    1.538    0.462    4.308    3.692 
#    2.769    1.538    0.000    8.308    0.000    0.000 
#    0.000    0.000    0.000    0.000    0.000    0.000 
#
# Total GULP energy -289626.002243 kJ/mol
# GULP energy per Si atom -5569.730812 kJ/mol
# Density = 2.176828 g / cm^3
# Si number density = 21.817937 Si / 1000 Ang^3
#
#
#
# Elastic Constant Matrix: (Units=GPa)
#
#
# Indices 1 2 3 4 5 6 
#
# 1 52.2880 30.6927 39.4791 0.0000 0.0000 0.0000
# 2 30.6927 162.3616 68.7383 0.0000 0.0000 0.0000
# 3 39.4791 68.7383 152.5249 0.0000 0.0000 0.0000
# 4 0.0000 0.0000 0.0000 59.5116 0.0000 0.0000
# 5 0.0000 0.0000 0.0000 0.0000 10.8929 0.0000
# 6 0.0000 0.0000 0.0000 0.0000 0.0000 21.1664
#
#
#
# Elastic Compliance Matrix: (Units=1/GPa)
#
#
# Indices 1 2 3 4 5 6 
#
# 1 0.024508 -0.002407 -0.005259 0.000000 0.000000 0.000000
# 2 -0.002407 0.007848 -0.002914 0.000000 0.000000 0.000000
# 3 -0.005259 -0.002914 0.009231 0.000000 0.000000 0.000000
# 4 0.000000 0.000000 0.000000 0.016803 0.000000 0.000000
# 5 0.000000 0.000000 0.000000 0.000000 0.091803 0.000000
# 6 0.000000 0.000000 0.000000 0.000000 0.000000 0.047245
#
#
# Mechanical properties :
#
#
# Convention : Reuss Voigt Hill
#
# Bulk Modulus (GPa) = 48.95293 71.66609 60.30951
# Shear Modulus (GPa) = 22.18223 33.53181 27.85702
#
# Velocity S-wave (km/s) = 3.19203 3.92457 3.57710
# Velocity P-wave (km/s) = 6.00592 7.31129 6.69052
#
# Compressibility (1/GPa) = 0.02042778
#
# Stress axis : x y z
#
# Youngs Moduli (GPa) = 40.80260 127.42731 108.33405
#
# Poissons Ratio (x) = 0.30665 0.56974
# Poissons Ratio (y) = 0.09819 0.31566
# Poissons Ratio (z) = 0.21458 0.37130
#
# Static dielectric constant tensor:
#      x y z
#    x 1.818590 0.000000 0.000000 
#    y 0.000000 2.026850 0.000000 
#    z 0.000000 0.000000 1.862830 
# 
# From -- ./inp_files/22092.got.cif
#   From: 2010.05.17/outbox.cif.g08.bks.cpg/sg73_12_cif.got.tgz:22092.got - 2010.06.03 17:35:07.
