data_PCOD9531443
_publ_section_title
;
Structure prediction by ZEFSAII (Michael W. Deem and Ramdas Pophale) SiO2 
 PCOD9531443
Probable space group: I B C A 
;
_chemical_formula_sum "Si O2"
_cell_formula_units_Z 72
_cell_length_a 20.497212
_cell_length_b 12.815674
_cell_length_c 12.758674
_cell_angle_alpha 90.000000
_cell_angle_beta 90.000000
_cell_angle_gamma 90.000000
_cell_volume 3351.519768
_symmetry_space_group_name_H-M "I B C A "
_symmetry_group_IT_number 73
_symmetry_cell_setting 'orthorhombic'
loop_
_space_group_symop_operation_xyz
x,y,z
-x,1/2-y,z
x,-y,1/2-z
1/2-x,y,-z
-x,-y,-z
x,1/2+y,-z
-x,y,1/2+z
1/2+x,-y,z
1/2+x,1/2+y,1/2+z
1/2-x,-y,1/2+z
1/2+x,1/2-y,-z
-x,1/2+y,1/2-z
1/2-x,1/2-y,1/2-z
1/2+x,y,1/2-z
1/2-x,1/2+y,z
x,1/2-y,1/2+z
loop_
_atom_site_type_symbol
_atom_site_label
_atom_site_fract_x
_atom_site_fract_y
_atom_site_fract_z
Si Si1 0.680608 0.614779 0.053492
Si Si2 0.945514 0.833184 0.769203
Si Si3 0.307912 0.696749 0.186169
Si Si4 0.766767 0.500000 0.750000
Si Si5 0.441517 0.525203 0.423194
O O1 0.678835 0.738968 0.079718
O O2 0.687487 0.557599 0.165729
O O3 0.750000 0.595269 0.000000
O O4 0.620803 0.571057 0.985391
O O5 0.874144 0.787135 0.748871
O O6 0.965352 0.892473 0.663980
O O7 0.000000 0.750000 0.800731
O O8 0.929841 0.918505 0.858745
O O9 0.250000 0.750000 0.250000
O O10 0.281873 0.578386 0.187419
O O11 0.500000 0.500000 0.500000
#
# Coordination Sequence:
#
# PCOD9531443 Si02
#       5
#    16  16  16   8  16
#     4  11  23  40  67 100 130 171 221 272 332 398
#     4  11  24  44  65  91 131 172 215 272 333 398
#     4  10  21  39  63  92 125 165 211 260 321 388
#     4  10  22  42  66  96 134 170 212 276 334 392
#     4  11  25  43  65  95 129 169 220 274 330 395
#
# _framework density 21.482790999999999
#
# number of rings (size 3 to 8) (size 9 to 14) (size 15 to 20)
#    0.000    1.333    0.000    6.667    0.000   10.667 
#    0.000    0.000    0.000    0.000    0.000    0.000 
#    0.000    0.000    0.000    0.000    0.000    0.000 
#
# Total GULP energy -200957.988057 kJ/mol
# GULP energy per Si atom -5582.166335 kJ/mol
# Density = 2.143390 g / cm^3
# Si number density = 21.482791 Si / 1000 Ang^3
#
#
#
# Elastic Constant Matrix: (Units=GPa)
#
#
# Indices 1 2 3 4 5 6 
#
# 1 111.1357 45.3610 30.2284 0.0000 0.0000 0.0000
# 2 45.3610 117.6135 44.4534 0.0000 0.0000 0.0000
# 3 30.2284 44.4534 104.2313 0.0000 0.0000 0.0000
# 4 0.0000 0.0000 0.0000 38.0520 0.0000 0.0000
# 5 0.0000 0.0000 0.0000 0.0000 35.2118 0.0000
# 6 0.0000 0.0000 0.0000 0.0000 0.0000 33.5681
#
#
#
# Elastic Compliance Matrix: (Units=1/GPa)
#
#
# Indices 1 2 3 4 5 6 
#
# 1 0.010907 -0.003590 -0.001632 0.000000 0.000000 0.000000
# 2 -0.003590 0.011318 -0.003786 0.000000 0.000000 0.000000
# 3 -0.001632 -0.003786 0.011682 0.000000 0.000000 0.000000
# 4 0.000000 0.000000 0.000000 0.026280 0.000000 0.000000
# 5 0.000000 0.000000 0.000000 0.000000 0.028400 0.000000
# 6 0.000000 0.000000 0.000000 0.000000 0.000000 0.029790
#
#
# Mechanical properties :
#
#
# Convention : Reuss Voigt Hill
#
# Bulk Modulus (GPa) = 62.92721 63.67401 63.30061
# Shear Modulus (GPa) = 35.28846 35.56221 35.42533
#
# Velocity S-wave (km/s) = 4.05734 4.07305 4.06521
# Velocity P-wave (km/s) = 7.16274 7.19886 7.18082
#
# Compressibility (1/GPa) = 0.01589138
#
# Stress axis : x y z
#
# Youngs Moduli (GPa) = 91.68293 88.35626 85.60150
#
# Poissons Ratio (x) = 0.31718 0.13972
# Poissons Ratio (y) = 0.32912 0.32407
# Poissons Ratio (z) = 0.14965 0.33450
#
# Static dielectric constant tensor:
#      x y z
#    x 1.796360 0.000000 0.000000 
#    y 0.000000 1.910070 0.000000 
#    z 0.000000 0.000000 1.807310 
# 
# From -- ./inp_files/12576.got.cif
#   From: 2010.05.17/outbox.cif.g08.bks.cpg/sg73_7_cif.got.tgz:12576.got - 2010.06.03 17:35:07.
