data_PCOD9531047
_publ_section_title
;
Structure prediction by ZEFSAII (Michael W. Deem and Ramdas Pophale) SiO2 
 PCOD9531047
Probable space group: I B C A 
;
_chemical_formula_sum "Si O2"
_cell_formula_units_Z 104
_cell_length_a 27.403468
_cell_length_b 22.532443
_cell_length_c 8.276908
_cell_angle_alpha 90.000000
_cell_angle_beta 90.000000
_cell_angle_gamma 90.000000
_cell_volume 5110.718220
_symmetry_space_group_name_H-M "I B C A "
_symmetry_group_IT_number 73
_symmetry_cell_setting 'orthorhombic'
loop_
_space_group_symop_operation_xyz
x,y,z
-x,1/2-y,z
x,-y,1/2-z
1/2-x,y,-z
-x,-y,-z
x,1/2+y,-z
-x,y,1/2+z
1/2+x,-y,z
1/2+x,1/2+y,1/2+z
1/2-x,-y,1/2+z
1/2+x,1/2-y,-z
-x,1/2+y,1/2-z
1/2-x,1/2-y,1/2-z
1/2+x,y,1/2-z
1/2-x,1/2+y,z
x,1/2-y,1/2+z
loop_
_atom_site_type_symbol
_atom_site_label
_atom_site_fract_x
_atom_site_fract_y
_atom_site_fract_z
Si Si1 0.206856 0.318893 0.381845
Si Si2 0.566167 0.055314 0.452233
Si Si3 0.227051 0.606531 0.675012
Si Si4 0.478381 0.000000 0.250000
Si Si5 0.561388 0.688352 0.664619
Si Si6 0.152095 0.000000 0.250000
Si Si7 0.000000 0.250000 0.404478
Si Si8 0.834081 0.712593 0.297257
O O1 0.250000 0.294776 0.500000
O O2 0.229520 0.378962 0.305601
O O3 0.166197 0.315269 0.521067
O O4 0.190365 0.276161 0.237527
O O5 0.516254 0.035476 0.362375
O O6 0.571670 0.122657 0.396613
O O7 0.555120 0.041876 0.638887
O O8 0.613714 0.018770 0.390988
O O9 0.250000 0.596885 0.500000
O O10 0.188861 0.554616 0.716259
O O11 0.195896 0.667109 0.685993
O O12 0.543553 0.728265 0.516954
O O13 0.518015 0.695571 0.794211
O O14 0.609647 0.714187 0.746415
#
# Coordination Sequence:
#
# PCOD9531047 Si02
#       8
#    16  16  16   8  16   8   8  16
#     4  10  21  37  62  90 119 157 210 252 312 370
#     4  10  20  41  66  92 129 161 211 256 304 370
#     4  11  23  41  61  86 120 162 204 258 318 368
#     4   9  20  38  69  96 118 170 209 252 302 367
#     4  11  21  40  60  91 134 157 207 249 315 374
#     4  11  24  44  59  90 124 164 209 260 316 369
#     4  10  24  36  60  96 126 172 188 250 320 386
#     4  11  20  38  64  91 122 163 205 261 299 380
#
# _framework density 20.349388999999999
#
# number of rings (size 3 to 8) (size 9 to 14) (size 15 to 20)
#    0.000    1.538    1.538    5.077    0.000    1.846 
#    2.769    0.000    0.000    0.000    0.000    0.000 
#    0.000    0.000    0.000    0.000    0.000    0.000 
#
# Total GULP energy -289622.070759 kJ/mol
# GULP energy per Si atom -5569.655207 kJ/mol
# Density = 2.030307 g / cm^3
# Si number density = 20.349389 Si / 1000 Ang^3
#
#
#
# Elastic Constant Matrix: (Units=GPa)
#
#
# Indices 1 2 3 4 5 6 
#
# 1 77.2775 25.1386 21.8777 0.0000 0.0000 0.0000
# 2 25.1386 74.3136 8.9869 0.0000 0.0000 0.0000
# 3 21.8777 8.9869 76.7999 0.0000 0.0000 0.0000
# 4 0.0000 0.0000 0.0000 17.8246 0.0000 0.0000
# 5 0.0000 0.0000 0.0000 0.0000 -562.8993 0.0000
# 6 0.0000 0.0000 0.0000 0.0000 0.0000 29.7817
#
#
#
# Elastic Compliance Matrix: (Units=1/GPa)
#
#
# Indices 1 2 3 4 5 6 
#
# 1 0.015604 -0.004809 -0.003882 0.000000 0.000000 0.000000
# 2 -0.004809 0.015132 -0.000401 0.000000 0.000000 0.000000
# 3 -0.003882 -0.000401 0.014174 0.000000 0.000000 0.000000
# 4 0.000000 0.000000 0.000000 0.056102 0.000000 0.000000
# 5 0.000000 0.000000 0.000000 0.000000 -0.001777 0.000000
# 6 0.000000 0.000000 0.000000 0.000000 0.000000 0.033578
#
#
# Mechanical properties :
#
#
# Convention : Reuss Voigt Hill
#
# Bulk Modulus (GPa) = 37.41779 37.82195 37.61987
# Shear Modulus (GPa) = 31.26858 -91.56608 -30.14875
#
# Velocity S-wave (km/s) = 3.92418 -6.71525 -3.85327
# Velocity P-wave (km/s) = 6.24178 6.44202 1.12687
#
# Compressibility (1/GPa) = 0.02672525
#
# Stress axis : x y z
#
# Youngs Moduli (GPa) = 64.08678 66.08636 70.55333
#
# Poissons Ratio (x) = 0.31781 0.27391
# Poissons Ratio (y) = 0.30819 0.02828
# Poissons Ratio (z) = 0.24880 0.02649
#
# Static dielectric constant tensor:
#      x y z
#    x 1.808530 0.000000 0.000000 
#    y 0.000000 1.712540 0.000000 
#    z 0.000000 0.000000 1.786210 
# 
# From -- ./inp_files/8517.got.cif
#   From: 2010.05.17/outbox.cif.g08.bks.cpg/sg73_5_cif.got.tgz:8517.got - 2010.06.03 17:35:07.
