data_PCOD9531221
_publ_section_title
;
Structure prediction by ZEFSAII (Michael W. Deem and Ramdas Pophale) SiO2 
 PCOD9531221
Probable space group: I B C A 
;
_chemical_formula_sum "Si O2"
_cell_formula_units_Z 72
_cell_length_a 20.900154
_cell_length_b 16.505108
_cell_length_c 9.373720
_cell_angle_alpha 90.000000
_cell_angle_beta 90.000000
_cell_angle_gamma 90.000000
_cell_volume 3233.551880
_symmetry_space_group_name_H-M "I B C A "
_symmetry_group_IT_number 73
_symmetry_cell_setting 'orthorhombic'
loop_
_space_group_symop_operation_xyz
x,y,z
-x,1/2-y,z
x,-y,1/2-z
1/2-x,y,-z
-x,-y,-z
x,1/2+y,-z
-x,y,1/2+z
1/2+x,-y,z
1/2+x,1/2+y,1/2+z
1/2-x,-y,1/2+z
1/2+x,1/2-y,-z
-x,1/2+y,1/2-z
1/2-x,1/2-y,1/2-z
1/2+x,y,1/2-z
1/2-x,1/2+y,z
x,1/2-y,1/2+z
loop_
_atom_site_type_symbol
_atom_site_label
_atom_site_fract_x
_atom_site_fract_y
_atom_site_fract_z
Si Si1 0.339537 0.989352 0.020421
Si Si2 0.256024 0.500000 0.250000
Si Si3 0.590131 0.644002 0.364904
Si Si4 0.553985 0.915160 0.333709
Si Si5 0.424323 0.734486 0.133753
O O1 0.304146 0.025979 0.878146
O O2 0.396184 0.933670 0.959695
O O3 0.291460 0.952278 0.139665
O O4 0.370020 0.065279 0.100932
O O5 0.515609 0.617187 0.380424
O O6 0.600959 0.687537 0.215543
O O7 0.603832 0.712752 0.481984
O O8 0.581341 0.846115 0.230044
O O9 0.544657 0.000000 0.250000
O O10 0.500000 0.750000 0.116778
#
# Coordination Sequence:
#
# PCOD9531221 Si02
#       5
#    16   8  16  16  16
#     4  11  22  42  65  94 124 169 219 276 315 389
#     4  10  24  40  64  90 124 162 228 272 320 348
#     4  11  23  38  63  95 136 167 207 255 337 393
#     4  11  21  37  67  98 132 159 217 269 331 392
#     4  10  21  36  55  92 139 174 195 254 326 403
#
# _framework density 22.266535999999999
#
# number of rings (size 3 to 8) (size 9 to 14) (size 15 to 20)
#    0.000    1.333    3.333    2.667    1.556    3.556 
#    0.000    0.000    0.000   24.000    0.000    0.000 
#    0.000    0.000    0.000    0.000    0.000    0.000 
#
# Total GULP energy -200801.121714 kJ/mol
# GULP energy per Si atom -5577.808936 kJ/mol
# Density = 2.221586 g / cm^3
# Si number density = 22.266536 Si / 1000 Ang^3
#
#
#
# Elastic Constant Matrix: (Units=GPa)
#
#
# Indices 1 2 3 4 5 6 
#
# 1 68.2754 22.2378 39.3019 0.0000 0.0000 0.0000
# 2 22.2378 77.1408 37.6647 0.0000 0.0000 0.0000
# 3 39.3019 37.6647 125.2178 0.0000 0.0000 0.0000
# 4 0.0000 0.0000 0.0000 50.4118 0.0000 0.0000
# 5 0.0000 0.0000 0.0000 0.0000 67.3240 0.0000
# 6 0.0000 0.0000 0.0000 0.0000 0.0000 -3.4227
#
#
#
# Elastic Compliance Matrix: (Units=1/GPa)
#
#
# Indices 1 2 3 4 5 6 
#
# 1 0.018419 -0.002915 -0.004904 0.000000 0.000000 0.000000
# 2 -0.002915 0.015656 -0.003794 0.000000 0.000000 0.000000
# 3 -0.004904 -0.003794 0.010667 0.000000 0.000000 0.000000
# 4 0.000000 0.000000 0.000000 0.019837 0.000000 0.000000
# 5 0.000000 0.000000 0.000000 0.000000 0.014854 0.000000
# 6 0.000000 0.000000 0.000000 0.000000 0.000000 -0.292171
#
#
# Mechanical properties :
#
#
# Convention : Reuss Voigt Hill
#
# Bulk Modulus (GPa) = 46.48035 52.11587 49.29811
# Shear Modulus (GPa) = -27.42134 34.29128 3.43497
#
# Velocity S-wave (km/s) = -3.51309 3.92859 1.24339
# Velocity P-wave (km/s) = 2.11285 6.63586 4.92437
#
# Compressibility (1/GPa) = 0.02151447
#
# Stress axis : x y z
#
# Youngs Moduli (GPa) = 54.29126 63.87206 93.74974
#
# Poissons Ratio (x) = 0.18620 0.45978
# Poissons Ratio (y) = 0.15827 0.35572
# Poissons Ratio (z) = 0.26626 0.24235
#
# Static dielectric constant tensor:
#      x y z
#    x 1.872740 0.000000 0.000000 
#    y 0.000000 1.796610 0.000000 
#    z 0.000000 0.000000 1.876560 
# 
# From -- ./inp_files/6007.got.cif
#   From: 2010.05.17/outbox.cif.g08.bks.cpg/sg73_4_cif.got.tgz:6007.got - 2010.06.03 17:35:07.
