data_PCOD9531083
_publ_section_title
;
Structure prediction by ZEFSAII (Michael W. Deem and Ramdas Pophale) SiO2 
 PCOD9531083
Probable space group: I B C A 
;
_chemical_formula_sum "Si O2"
_cell_formula_units_Z 96
_cell_length_a 19.029724
_cell_length_b 21.211945
_cell_length_c 11.067095
_cell_angle_alpha 90.000000
_cell_angle_beta 90.000000
_cell_angle_gamma 90.000000
_cell_volume 4467.315445
_symmetry_space_group_name_H-M "I B C A "
_symmetry_group_IT_number 73
_symmetry_cell_setting 'orthorhombic'
loop_
_space_group_symop_operation_xyz
x,y,z
-x,1/2-y,z
x,-y,1/2-z
1/2-x,y,-z
-x,-y,-z
x,1/2+y,-z
-x,y,1/2+z
1/2+x,-y,z
1/2+x,1/2+y,1/2+z
1/2-x,-y,1/2+z
1/2+x,1/2-y,-z
-x,1/2+y,1/2-z
1/2-x,1/2-y,1/2-z
1/2+x,y,1/2-z
1/2-x,1/2+y,z
x,1/2-y,1/2+z
loop_
_atom_site_type_symbol
_atom_site_label
_atom_site_fract_x
_atom_site_fract_y
_atom_site_fract_z
Si Si1 0.750000 0.829149 0.000000
Si Si2 0.174172 0.235462 0.810471
Si Si3 0.829099 0.051196 0.003555
Si Si4 0.388983 0.000000 0.250000
Si Si5 0.585083 0.860050 0.338814
Si Si6 0.073864 0.127852 0.852017
Si Si7 0.355100 0.416477 0.396947
O O1 0.692241 0.782805 0.947909
O O2 0.782836 0.875428 0.899375
O O3 0.250000 0.250000 0.750000
O O4 0.126927 0.296681 0.808209
O O5 0.127441 0.173521 0.778471
O O6 0.882614 0.103273 0.953707
O O7 0.836417 0.989060 0.919286
O O8 0.750000 0.076338 0.000000
O O9 0.844310 0.024617 0.136779
O O10 0.433232 0.060068 0.210437
O O11 0.503768 0.844554 0.358788
O O12 0.600564 0.903835 0.222249
O O13 0.104431 0.110029 0.984414
#
# Coordination Sequence:
#
# PCOD9531083 Si02
#       7
#     8  16  16   8  16  16  16
#     4  10  20  42  66  94 130 184 218 292 356 400
#     4  11  24  44  67 100 138 181 236 288 345 417
#     4  11  26  40  71 105 137 175 234 291 351 414
#     4  10  26  46  70 102 144 174 232 296 350 416
#     4  12  26  42  71 102 140 185 237 282 353 438
#     4  10  26  46  69  97 141 188 226 290 363 415
#     4  10  22  44  67  96 140 179 220 287 361 407
#
# _framework density 21.489417
#
# number of rings (size 3 to 8) (size 9 to 14) (size 15 to 20)
#    0.000    1.333    2.500    1.000   10.500    1.333 
#    0.000    1.667    0.000    0.000    0.000    0.000 
#    0.000    0.000    0.000    0.000    0.000    0.000 
#
# Total GULP energy -267901.660593 kJ/mol
# GULP energy per Si atom -5581.284596 kJ/mol
# Density = 2.144051 g / cm^3
# Si number density = 21.489417 Si / 1000 Ang^3
#
#
#
# Elastic Constant Matrix: (Units=GPa)
#
#
# Indices 1 2 3 4 5 6 
#
# 1 134.2231 42.2841 6.1412 0.0000 0.0000 0.0000
# 2 42.2841 98.5445 18.4490 0.0000 0.0000 0.0000
# 3 6.1412 18.4490 51.6886 0.0000 0.0000 0.0000
# 4 0.0000 0.0000 0.0000 25.0747 0.0000 0.0000
# 5 0.0000 0.0000 0.0000 0.0000 18.3609 0.0000
# 6 0.0000 0.0000 0.0000 0.0000 0.0000 29.0212
#
#
#
# Elastic Compliance Matrix: (Units=1/GPa)
#
#
# Indices 1 2 3 4 5 6 
#
# 1 0.008620 -0.003758 0.000317 0.000000 0.000000 0.000000
# 2 -0.003758 0.012513 -0.004020 0.000000 0.000000 0.000000
# 3 0.000317 -0.004020 0.020744 0.000000 0.000000 0.000000
# 4 0.000000 0.000000 0.000000 0.039881 0.000000 0.000000
# 5 0.000000 0.000000 0.000000 0.000000 0.054464 0.000000
# 6 0.000000 0.000000 0.000000 0.000000 0.000000 0.034458
#
#
# Mechanical properties :
#
#
# Convention : Reuss Voigt Hill
#
# Bulk Modulus (GPa) = 37.09853 46.46721 41.78287
# Shear Modulus (GPa) = 25.69584 28.99680 27.34632
#
# Velocity S-wave (km/s) = 3.46170 3.67734 3.57115
# Velocity P-wave (km/s) = 5.76879 6.30085 6.04068
#
# Compressibility (1/GPa) = 0.02695524
#
# Stress axis : x y z
#
# Youngs Moduli (GPa) = 116.01419 79.91869 48.20750
#
# Poissons Ratio (x) = 0.30033 -0.01529
# Poissons Ratio (y) = 0.43598 0.19378
# Poissons Ratio (z) = -0.03680 0.32124
#
# Static dielectric constant tensor:
#      x y z
#    x 1.810940 0.000000 0.000000 
#    y 0.000000 1.789970 0.000000 
#    z 0.000000 0.000000 1.809320 
# 
# From -- ./inp_files/12924.got.cif
#   From: 2010.05.17/outbox.cif.g08.bks.cpg/sg73_7_cif.got.tgz:12924.got - 2010.06.03 17:35:07.
