data_PCOD9531166
_publ_section_title
;
Structure prediction by ZEFSAII (Michael W. Deem and Ramdas Pophale) SiO2 
 PCOD9531166
Probable space group: I B C A 
;
_chemical_formula_sum "Si O2"
_cell_formula_units_Z 96
_cell_length_a 25.740113
_cell_length_b 8.655199
_cell_length_c 16.874154
_cell_angle_alpha 90.000000
_cell_angle_beta 90.000000
_cell_angle_gamma 90.000000
_cell_volume 3759.321903
_symmetry_space_group_name_H-M "I B C A "
_symmetry_group_IT_number 73
_symmetry_cell_setting 'orthorhombic'
loop_
_space_group_symop_operation_xyz
x,y,z
-x,1/2-y,z
x,-y,1/2-z
1/2-x,y,-z
-x,-y,-z
x,1/2+y,-z
-x,y,1/2+z
1/2+x,-y,z
1/2+x,1/2+y,1/2+z
1/2-x,-y,1/2+z
1/2+x,1/2-y,-z
-x,1/2+y,1/2-z
1/2-x,1/2-y,1/2-z
1/2+x,y,1/2-z
1/2-x,1/2+y,z
x,1/2-y,1/2+z
loop_
_atom_site_type_symbol
_atom_site_label
_atom_site_fract_x
_atom_site_fract_y
_atom_site_fract_z
Si Si1 0.099673 0.415378 0.082365
Si Si2 0.200347 0.112259 0.151978
Si Si3 0.783875 0.565576 0.922411
Si Si4 0.950624 0.137288 0.525311
Si Si5 0.404751 0.937047 0.839514
Si Si6 0.368277 0.824015 0.248479
O O1 0.156735 0.488298 0.073480
O O2 0.056845 0.534787 0.052592
O O3 0.095164 0.340803 0.170024
O O4 0.095502 0.263451 0.028003
O O5 0.210905 0.252022 0.092020
O O6 0.178803 0.207081 0.228073
O O7 0.251819 0.011735 0.149020
O O8 0.151518 0.002275 0.133114
O O9 0.750000 0.536546 0.000000
O O10 0.943249 0.515312 0.402329
O O11 0.000000 0.250000 0.530354
O O12 0.398367 0.754242 0.821390
O O13 0.415375 0.000000 0.750000
O O14 0.350431 0.000000 0.250000
#
# Coordination Sequence:
#
# PCOD9531166 Si02
#       6
#    16  16  16  16  16  16
#     4  11  26  46  71 110 155 196 248 326 384 457
#     4  10  22  39  63 102 138 188 251 296 370 456
#     4  11  22  38  67 105 151 197 251 300 383 469
#     4  12  25  47  79 115 151 198 257 322 397 461
#     4  10  20  47  74 100 153 199 246 315 380 457
#     4  10  23  46  74 101 149 203 255 306 385 454
#
# _framework density 25.536518999999998
#
# number of rings (size 3 to 8) (size 9 to 14) (size 15 to 20)
#    0.000    1.333    5.000    2.000    4.667    2.667 
#    0.000   27.500    0.000    0.000    0.000    0.000 
#    0.000    0.000    0.000    0.000    0.000    0.000 
#
# Total GULP energy -268020.578623 kJ/mol
# GULP energy per Si atom -5583.762055 kJ/mol
# Density = 2.547840 g / cm^3
# Si number density = 25.536519 Si / 1000 Ang^3
#
#
#
# Elastic Constant Matrix: (Units=GPa)
#
#
# Indices 1 2 3 4 5 6 
#
# 1 142.0242 86.4621 57.2376 0.0000 0.0000 0.0000
# 2 86.4621 159.6317 81.5419 0.0000 0.0000 0.0000
# 3 57.2376 81.5419 104.2042 0.0000 0.0000 0.0000
# 4 0.0000 0.0000 0.0000 49.8613 0.0000 0.0000
# 5 0.0000 0.0000 0.0000 0.0000 13.2327 0.0000
# 6 0.0000 0.0000 0.0000 0.0000 0.0000 43.2577
#
#
#
# Elastic Compliance Matrix: (Units=1/GPa)
#
#
# Indices 1 2 3 4 5 6 
#
# 1 0.010815 -0.004703 -0.002260 0.000000 0.000000 0.000000
# 2 -0.004703 0.012481 -0.007183 0.000000 0.000000 0.000000
# 3 -0.002260 -0.007183 0.016459 0.000000 0.000000 0.000000
# 4 0.000000 0.000000 0.000000 0.020056 0.000000 0.000000
# 5 0.000000 0.000000 0.000000 0.000000 0.075571 0.000000
# 6 0.000000 0.000000 0.000000 0.000000 0.000000 0.023117
#
#
# Mechanical properties :
#
#
# Convention : Reuss Voigt Hill
#
# Bulk Modulus (GPa) = 87.24574 95.14925 91.19750
# Shear Modulus (GPa) = 26.23107 33.31157 29.77132
#
# Velocity S-wave (km/s) = 3.20847 3.61566 3.41813
# Velocity P-wave (km/s) = 6.92567 7.40078 7.16717
#
# Compressibility (1/GPa) = 0.01146188
#
# Stress axis : x y z
#
# Youngs Moduli (GPa) = 92.46171 80.11974 60.75661
#
# Poissons Ratio (x) = 0.37684 0.13732
# Poissons Ratio (y) = 0.43489 0.43644
# Poissons Ratio (z) = 0.20897 0.57553
#
# Static dielectric constant tensor:
#      x y z
#    x 2.035790 0.000000 0.000000 
#    y 0.000000 2.048790 0.000000 
#    z 0.000000 0.000000 2.156780 
# 
# From -- ./inp_files/27508.got.cif
#   From: 2010.05.17/outbox.cif.g08.bks.cpg/sg73_14_cif.got.tgz:27508.got - 2010.06.03 17:35:07.
