data_PCOD9531674
_publ_section_title
;
Structure prediction by ZEFSAII (Michael W. Deem and Ramdas Pophale) SiO2 
 PCOD9531674
Probable space group: I B C A 
;
_chemical_formula_sum "Si O2"
_cell_formula_units_Z 88
_cell_length_a 10.504144
_cell_length_b 14.009513
_cell_length_c 23.119881
_cell_angle_alpha 90.000000
_cell_angle_beta 90.000000
_cell_angle_gamma 90.000000
_cell_volume 3402.274105
_symmetry_space_group_name_H-M "I B C A "
_symmetry_group_IT_number 73
_symmetry_cell_setting 'orthorhombic'
loop_
_space_group_symop_operation_xyz
x,y,z
-x,1/2-y,z
x,-y,1/2-z
1/2-x,y,-z
-x,-y,-z
x,1/2+y,-z
-x,y,1/2+z
1/2+x,-y,z
1/2+x,1/2+y,1/2+z
1/2-x,-y,1/2+z
1/2+x,1/2-y,-z
-x,1/2+y,1/2-z
1/2-x,1/2-y,1/2-z
1/2+x,y,1/2-z
1/2-x,1/2+y,z
x,1/2-y,1/2+z
loop_
_atom_site_type_symbol
_atom_site_label
_atom_site_fract_x
_atom_site_fract_y
_atom_site_fract_z
Si Si1 0.617393 0.601041 0.855636
Si Si2 0.622122 0.980188 0.539950
Si Si3 0.714388 0.718366 0.064193
Si Si4 0.212185 0.408785 0.628871
Si Si5 0.000000 0.750000 0.724881
Si Si6 0.675967 0.397716 0.255317
O O1 0.660795 0.669321 0.907246
O O2 0.605237 0.491929 0.875322
O O3 0.520082 0.660148 0.817417
O O4 0.734882 0.592591 0.810765
O O5 0.750000 0.985049 0.500000
O O6 0.618349 0.870448 0.561018
O O7 0.500000 0.000000 0.500000
O O8 0.664285 0.050481 0.592771
O O9 0.675422 0.809310 0.100654
O O10 0.750000 0.750668 0.000000
O O11 0.244416 0.391581 0.695964
O O12 0.893894 0.702364 0.763760
O O13 0.602611 0.500000 0.250000
#
# Coordination Sequence:
#
# PCOD9531674 Si02
#       6
#    16  16  16  16   8  16
#     4  10  23  43  69 101 142 191 241 316 380 459
#     4  10  23  45  71 105 151 202 256 312 377 454
#     4  10  21  42  70 103 141 192 249 305 384 457
#     4  10  21  42  72 101 146 186 253 310 388 455
#     4  12  22  40  72 104 138 192 254 296 382 470
#     4  10  23  42  66 101 143 189 238 313 377 458
#
# _framework density 25.865054000000001
#
# number of rings (size 3 to 8) (size 9 to 14) (size 15 to 20)
#    0.000    1.818    1.818    1.091    0.000    7.273 
#    0.000    8.182    8.000    0.000    0.000    0.000 
#    0.000    0.000    0.000    0.000    0.000    0.000 
#
# Total GULP energy -246149.755360 kJ/mol
# GULP energy per Si atom -5594.312622 kJ/mol
# Density = 2.580618 g / cm^3
# Si number density = 25.865054 Si / 1000 Ang^3
#
#
#
# Elastic Constant Matrix: (Units=GPa)
#
#
# Indices 1 2 3 4 5 6 
#
# 1 54.7364 22.9259 -4.7986 0.0000 0.0000 0.0000
# 2 22.9259 197.9378 32.3664 0.0000 0.0000 0.0000
# 3 -4.7986 32.3664 117.5179 0.0000 0.0000 0.0000
# 4 0.0000 0.0000 0.0000 52.0590 0.0000 0.0000
# 5 0.0000 0.0000 0.0000 0.0000 30.8620 0.0000
# 6 0.0000 0.0000 0.0000 0.0000 0.0000 29.0389
#
#
#
# Elastic Compliance Matrix: (Units=1/GPa)
#
#
# Indices 1 2 3 4 5 6 
#
# 1 0.019444 -0.002494 0.001481 0.000000 0.000000 0.000000
# 2 -0.002494 0.005610 -0.001647 0.000000 0.000000 0.000000
# 3 0.001481 -0.001647 0.009023 0.000000 0.000000 0.000000
# 4 0.000000 0.000000 0.000000 0.019209 0.000000 0.000000
# 5 0.000000 0.000000 0.000000 0.000000 0.032402 0.000000
# 6 0.000000 0.000000 0.000000 0.000000 0.000000 0.034437
#
#
# Mechanical properties :
#
#
# Convention : Reuss Voigt Hill
#
# Bulk Modulus (GPa) = 34.77423 52.35330 43.56377
# Shear Modulus (GPa) = 37.02833 43.70521 40.36677
#
# Velocity S-wave (km/s) = 3.78775 4.11510 3.95482
# Velocity P-wave (km/s) = 5.70991 6.54703 6.14275
#
# Compressibility (1/GPa) = 0.02875692
#
# Stress axis : x y z
#
# Youngs Moduli (GPa) = 51.43007 178.24363 110.82267
#
# Poissons Ratio (x) = 0.44458 -0.16412
# Poissons Ratio (y) = 0.12828 0.18253
# Poissons Ratio (z) = -0.07616 0.29357
#
# Static dielectric constant tensor:
#      x y z
#    x 2.228190 0.000000 0.000000 
#    y 0.000000 2.045990 0.000000 
#    z 0.000000 0.000000 2.077160 
# 
# From -- ./inp_files/28836.got.cif
#   From: 2010.05.17/outbox.cif.g08.bks.cpg/sg73_15_cif.got.tgz:28836.got - 2010.06.03 17:35:07.
