data_PCOD9531729
_publ_section_title
;
Structure prediction by ZEFSAII (Michael W. Deem and Ramdas Pophale) SiO2 
 PCOD9531729
Probable space group: I B C A 
;
_chemical_formula_sum "Si O2"
_cell_formula_units_Z 104
_cell_length_a 26.291973
_cell_length_b 18.752378
_cell_length_c 8.641183
_cell_angle_alpha 90.000000
_cell_angle_beta 90.000000
_cell_angle_gamma 90.000000
_cell_volume 4260.423082
_symmetry_space_group_name_H-M "I B C A "
_symmetry_group_IT_number 73
_symmetry_cell_setting 'orthorhombic'
loop_
_space_group_symop_operation_xyz
x,y,z
-x,1/2-y,z
x,-y,1/2-z
1/2-x,y,-z
-x,-y,-z
x,1/2+y,-z
-x,y,1/2+z
1/2+x,-y,z
1/2+x,1/2+y,1/2+z
1/2-x,-y,1/2+z
1/2+x,1/2-y,-z
-x,1/2+y,1/2-z
1/2-x,1/2-y,1/2-z
1/2+x,y,1/2-z
1/2-x,1/2+y,z
x,1/2-y,1/2+z
loop_
_atom_site_type_symbol
_atom_site_label
_atom_site_fract_x
_atom_site_fract_y
_atom_site_fract_z
Si Si1 0.250000 0.247691 0.500000
Si Si2 0.750000 0.537558 0.500000
Si Si3 0.792097 0.146958 0.731201
Si Si4 0.600399 0.346184 0.304540
Si Si5 0.429488 0.000000 0.750000
Si Si6 0.522127 0.846376 0.224529
Si Si7 0.649431 0.948084 0.465591
Si Si8 0.078515 0.734567 0.042137
O O1 0.208567 0.298719 0.585057
O O2 0.230307 0.194901 0.367740
O O3 0.757364 0.584848 0.344653
O O4 0.700552 0.488705 0.496069
O O5 0.838519 0.106749 0.821030
O O6 0.538945 0.350223 0.285580
O O7 0.627336 0.412030 0.381173
O O8 0.615407 0.316032 0.139719
O O9 0.608994 0.283491 0.426018
O O10 0.460189 0.926546 0.756670
O O11 0.393532 0.000209 0.899813
O O12 0.547697 0.791078 0.347791
O O13 0.542138 0.815211 0.061628
#
# Coordination Sequence:
#
# PCOD9531729 Si02
#       8
#     8   8  16  16   8  16  16  16
#     4   9  21  42  72 104 129 171 232 302 366 408
#     4  11  23  46  76  90 141 189 242 290 364 438
#     4  10  21  43  71  99 134 180 227 299 358 429
#     4  11  22  41  72 107 142 190 249 294 365 434
#     4  12  26  46  72 108 150 194 236 310 380 424
#     4  11  22  44  75 103 152 191 243 309 362 436
#     4  12  25  45  71 104 144 195 240 299 379 439
#     4  10  21  43  73 106 143 200 246 298 362 442
#
# _framework density 24.410722
#
# number of rings (size 3 to 8) (size 9 to 14) (size 15 to 20)
#    0.000    1.231    3.077    4.154    0.000    1.846 
#    0.000    6.154    0.000    0.000    0.000    0.000 
#    0.000    0.000    0.000    0.000    0.000    0.000 
#
# Total GULP energy -290751.212614 kJ/mol
# GULP energy per Si atom -5591.369473 kJ/mol
# Density = 2.435516 g / cm^3
# Si number density = 24.410722 Si / 1000 Ang^3
#
#
#
# Elastic Constant Matrix: (Units=GPa)
#
#
# Indices 1 2 3 4 5 6 
#
# 1 80.0723 53.3794 33.1081 0.0000 0.0000 0.0000
# 2 53.3794 112.6323 19.7314 0.0000 0.0000 0.0000
# 3 33.1081 19.7314 116.2822 0.0000 0.0000 0.0000
# 4 0.0000 0.0000 0.0000 -378.3137 0.0000 0.0000
# 5 0.0000 0.0000 0.0000 0.0000 27.6512 0.0000
# 6 0.0000 0.0000 0.0000 0.0000 0.0000 5.5792
#
#
#
# Elastic Compliance Matrix: (Units=1/GPa)
#
#
# Indices 1 2 3 4 5 6 
#
# 1 0.020092 -0.008781 -0.004231 0.000000 0.000000 0.000000
# 2 -0.008781 0.012988 0.000296 0.000000 0.000000 0.000000
# 3 -0.004231 0.000296 0.009754 0.000000 0.000000 0.000000
# 4 0.000000 0.000000 0.000000 -0.002643 0.000000 0.000000
# 5 0.000000 0.000000 0.000000 0.000000 0.036165 0.000000
# 6 0.000000 0.000000 0.000000 0.000000 0.000000 0.179237
#
#
# Mechanical properties :
#
#
# Convention : Reuss Voigt Hill
#
# Bulk Modulus (GPa) = 57.46017 57.93606 57.69812
# Shear Modulus (GPa) = 17.43233 -55.49879 -19.03323
#
# Velocity S-wave (km/s) = 2.67521 -4.77334 -2.79535
# Velocity P-wave (km/s) = 5.75607 2.56794 3.64267
#
# Compressibility (1/GPa) = 0.01740336
#
# Stress axis : x y z
#
# Youngs Moduli (GPa) = 49.77212 76.99405 102.52175
#
# Poissons Ratio (x) = 0.67607 0.43372
# Poissons Ratio (y) = 0.43704 -0.03037
# Poissons Ratio (z) = 0.21056 -0.02281
#
# Static dielectric constant tensor:
#      x y z
#    x 1.989880 0.000000 0.000000 
#    y 0.000000 1.948880 0.000000 
#    z 0.000000 0.000000 1.929980 
# 
# From -- ./inp_files/7937.got.cif
#   From: 2010.05.17/outbox.cif.g08.bks.cpg/sg73_4_cif.got.tgz:7937.got - 2010.06.03 17:35:07.
