data_PCOD9531578
_publ_section_title
;
Structure prediction by ZEFSAII (Michael W. Deem and Ramdas Pophale) SiO2 
 PCOD9531578
Probable space group: I B C A 
;
_chemical_formula_sum "Si O2"
_cell_formula_units_Z 72
_cell_length_a 5.165571
_cell_length_b 22.814588
_cell_length_c 27.455636
_cell_angle_alpha 90.000000
_cell_angle_beta 90.000000
_cell_angle_gamma 90.000000
_cell_volume 3235.656975
_symmetry_space_group_name_H-M "I B C A "
_symmetry_group_IT_number 73
_symmetry_cell_setting 'orthorhombic'
loop_
_space_group_symop_operation_xyz
x,y,z
-x,1/2-y,z
x,-y,1/2-z
1/2-x,y,-z
-x,-y,-z
x,1/2+y,-z
-x,y,1/2+z
1/2+x,-y,z
1/2+x,1/2+y,1/2+z
1/2-x,-y,1/2+z
1/2+x,1/2-y,-z
-x,1/2+y,1/2-z
1/2-x,1/2-y,1/2-z
1/2+x,y,1/2-z
1/2-x,1/2+y,z
x,1/2-y,1/2+z
loop_
_atom_site_type_symbol
_atom_site_label
_atom_site_fract_x
_atom_site_fract_y
_atom_site_fract_z
Si Si1 0.434348 0.636403 0.354875
Si Si2 0.250000 0.779323 0.500000
Si Si3 0.925763 0.867492 0.919673
Si Si4 0.750000 0.540251 0.500000
Si Si5 0.755011 0.566715 0.230679
Si Si6 0.000000 0.750000 0.214635
O O1 0.718850 0.635195 0.376878
O O2 0.371892 0.579006 0.321902
O O3 0.440255 0.693818 0.320358
O O4 0.213093 0.634299 0.396850
O O5 0.500000 0.750000 0.475133
O O6 0.106893 0.814645 0.457376
O O7 0.816476 0.920281 0.953118
O O8 0.500000 0.500000 0.500000
O O9 0.716639 0.500000 0.250000
O O10 0.471407 0.594150 0.234094
O O11 0.750000 0.750000 0.250000
#
# Coordination Sequence:
#
# PCOD9531578 Si02
#       6
#    16   8  16   8  16   8
#     4  12  24  43  69 102 142 177 248 284 342 439
#     4  11  24  43  72  98 146 181 222 281 362 408
#     4  11  26  44  69 109 137 182 235 294 345 429
#     4  11  24  51  72  98 150 185 228 295 380 436
#     4  10  21  41  62  90 133 174 222 284 344 391
#     4  12  26  44  70  98 146 198 224 296 370 424
#
# _framework density 22.252051000000002
#
# number of rings (size 3 to 8) (size 9 to 14) (size 15 to 20)
#    0.000    0.889    0.000    6.667    4.667    3.556 
#   24.000    0.000    0.000    0.000    0.000    0.000 
#    0.000    0.000    0.000    0.000    0.000    0.000 
#
# Total GULP energy -200697.174110 kJ/mol
# GULP energy per Si atom -5574.921503 kJ/mol
# Density = 2.220140 g / cm^3
# Si number density = 22.252051 Si / 1000 Ang^3
#
#
#
# Elastic Constant Matrix: (Units=GPa)
#
#
# Indices 1 2 3 4 5 6 
#
# 1 136.6734 10.2659 -1.7704 0.0000 0.0000 0.0000
# 2 10.2659 78.9868 28.7648 0.0000 0.0000 0.0000
# 3 -1.7704 28.7648 75.4578 0.0000 0.0000 0.0000
# 4 0.0000 0.0000 0.0000 74.7815 0.0000 0.0000
# 5 0.0000 0.0000 0.0000 0.0000 65.4879 0.0000
# 6 0.0000 0.0000 0.0000 0.0000 0.0000 23.5964
#
#
#
# Elastic Compliance Matrix: (Units=1/GPa)
#
#
# Indices 1 2 3 4 5 6 
#
# 1 0.007414 -0.001193 0.000629 0.000000 0.000000 0.000000
# 2 -0.001193 0.014893 -0.005705 0.000000 0.000000 0.000000
# 3 0.000629 -0.005705 0.015442 0.000000 0.000000 0.000000
# 4 0.000000 0.000000 0.000000 0.013372 0.000000 0.000000
# 5 0.000000 0.000000 0.000000 0.000000 0.015270 0.000000
# 6 0.000000 0.000000 0.000000 0.000000 0.000000 0.042379
#
#
# Mechanical properties :
#
#
# Convention : Reuss Voigt Hill
#
# Bulk Modulus (GPa) = 39.66521 40.62652 40.14587
# Shear Modulus (GPa) = 38.54654 49.69701 44.12177
#
# Velocity S-wave (km/s) = 4.16657 4.73098 4.45772
# Velocity P-wave (km/s) = 6.40400 6.93830 6.67649
#
# Compressibility (1/GPa) = 0.02521101
#
# Stress axis : x y z
#
# Youngs Moduli (GPa) = 134.87209 67.14547 64.75817
#
# Poissons Ratio (x) = 0.08007 -0.04070
# Poissons Ratio (y) = 0.16084 0.36946
# Poissons Ratio (z) = -0.08478 0.38308
#
# Static dielectric constant tensor:
#      x y z
#    x 1.745920 0.000000 0.000000 
#    y 0.000000 2.038390 0.000000 
#    z 0.000000 0.000000 1.827200 
# 
# From -- ./inp_files/2547.got.cif
#   From: 2010.05.17/outbox.cif.g08.bks.cpg/sg73_2_cif.got.tgz:2547.got - 2010.06.03 17:35:07.
