data_PCOD9531651
_publ_section_title
;
Structure prediction by ZEFSAII (Michael W. Deem and Ramdas Pophale) SiO2 
 PCOD9531651
Probable space group: I B C A 
;
_chemical_formula_sum "Si O2"
_cell_formula_units_Z 72
_cell_length_a 27.525317
_cell_length_b 9.101093
_cell_length_c 12.265410
_cell_angle_alpha 90.000000
_cell_angle_beta 90.000000
_cell_angle_gamma 90.000000
_cell_volume 3072.613622
_symmetry_space_group_name_H-M "I B C A "
_symmetry_group_IT_number 73
_symmetry_cell_setting 'orthorhombic'
loop_
_space_group_symop_operation_xyz
x,y,z
-x,1/2-y,z
x,-y,1/2-z
1/2-x,y,-z
-x,-y,-z
x,1/2+y,-z
-x,y,1/2+z
1/2+x,-y,z
1/2+x,1/2+y,1/2+z
1/2-x,-y,1/2+z
1/2+x,1/2-y,-z
-x,1/2+y,1/2-z
1/2-x,1/2-y,1/2-z
1/2+x,y,1/2-z
1/2-x,1/2+y,z
x,1/2-y,1/2+z
loop_
_atom_site_type_symbol
_atom_site_label
_atom_site_fract_x
_atom_site_fract_y
_atom_site_fract_z
Si Si1 0.570383 0.500000 0.750000
Si Si2 0.241670 0.000000 0.750000
Si Si3 0.106895 0.147379 0.469702
Si Si4 0.789136 0.244805 0.904443
Si Si5 0.954493 0.077265 0.438401
Si Si6 0.000000 0.250000 0.246403
O O1 0.598698 0.568513 0.852137
O O2 0.539461 0.363069 0.799772
O O3 0.273566 0.894080 0.828769
O O4 0.211448 0.888205 0.673315
O O5 0.160134 0.212851 0.464039
O O6 0.066515 0.271861 0.485056
O O7 0.091518 0.030313 0.560215
O O8 0.750000 0.265922 0.000000
O O9 0.971753 0.134182 0.322364
O O10 0.000000 0.000000 0.500000
#
# Coordination Sequence:
#
# PCOD9531651 Si02
#       6
#     8   8  16  16  16   8
#     4  10  21  42  65  98 138 178 233 282 355 404
#     4  10  25  48  75 104 152 174 243 308 361 436
#     4  11  25  39  72  99 134 183 233 280 355 425
#     4  11  25  48  77 106 145 189 237 304 371 430
#     4  11  20  42  63  96 135 176 233 274 333 417
#     4  10  22  38  64  94 130 192 220 290 344 398
#
# _framework density 23.432818999999999
#
# number of rings (size 3 to 8) (size 9 to 14) (size 15 to 20)
#    0.000    1.333    4.444    1.333    6.222    2.667 
#    0.000    4.444    0.000    0.000    0.000    0.000 
#    0.000    0.000    0.000    0.000    0.000    0.000 
#
# Total GULP energy -201045.625941 kJ/mol
# GULP energy per Si atom -5584.600721 kJ/mol
# Density = 2.337948 g / cm^3
# Si number density = 23.432819 Si / 1000 Ang^3
#
#
#
# Elastic Constant Matrix: (Units=GPa)
#
#
# Indices 1 2 3 4 5 6 
#
# 1 130.3005 47.8144 46.8410 0.0000 0.0000 0.0000
# 2 47.8144 151.3774 42.9586 0.0000 0.0000 0.0000
# 3 46.8410 42.9586 97.1871 0.0000 0.0000 0.0000
# 4 0.0000 0.0000 0.0000 55.4245 0.0000 0.0000
# 5 0.0000 0.0000 0.0000 0.0000 -48.3492 0.0000
# 6 0.0000 0.0000 0.0000 0.0000 0.0000 22.3861
#
#
#
# Elastic Compliance Matrix: (Units=1/GPa)
#
#
# Indices 1 2 3 4 5 6 
#
# 1 0.009787 -0.002004 -0.003831 0.000000 0.000000 0.000000
# 2 -0.002004 0.007964 -0.002554 0.000000 0.000000 0.000000
# 3 -0.003831 -0.002554 0.013265 0.000000 0.000000 0.000000
# 4 0.000000 0.000000 0.000000 0.018043 0.000000 0.000000
# 5 0.000000 0.000000 0.000000 0.000000 -0.020683 0.000000
# 6 0.000000 0.000000 0.000000 0.000000 0.000000 0.044671
#
#
# Mechanical properties :
#
#
# Convention : Reuss Voigt Hill
#
# Bulk Modulus (GPa) = 70.24046 72.67699 71.45872
# Shear Modulus (GPa) = 52.87003 21.97567 37.42285
#
# Velocity S-wave (km/s) = 4.75514 3.06570 4.00062
# Velocity P-wave (km/s) = 7.75815 6.60407 7.20425
#
# Compressibility (1/GPa) = 0.01423681
#
# Stress axis : x y z
#
# Youngs Moduli (GPa) = 102.17332 125.56646 75.38634
#
# Poissons Ratio (x) = 0.25166 0.28882
# Poissons Ratio (y) = 0.20477 0.19256
# Poissons Ratio (z) = 0.39145 0.32073
#
# Static dielectric constant tensor:
#      x y z
#    x 1.909950 0.000000 0.000000 
#    y 0.000000 2.039200 0.000000 
#    z 0.000000 0.000000 1.949790 
# 
# From -- ./inp_files/19695.got.cif
#   From: 2010.05.17/outbox.cif.g08.bks.cpg/sg73_10_cif.got.tgz:19695.got - 2010.06.03 17:35:07.
