data_PCOD9531895
_publ_section_title
;
Structure prediction by ZEFSAII (Michael W. Deem and Ramdas Pophale) SiO2 
 PCOD9531895
Probable space group: I B C A 
;
_chemical_formula_sum "Si O2"
_cell_formula_units_Z 80
_cell_length_a 22.465906
_cell_length_b 9.274638
_cell_length_c 13.657428
_cell_angle_alpha 90.000000
_cell_angle_beta 90.000000
_cell_angle_gamma 90.000000
_cell_volume 2845.704657
_symmetry_space_group_name_H-M "I B C A "
_symmetry_group_IT_number 73
_symmetry_cell_setting 'orthorhombic'
loop_
_space_group_symop_operation_xyz
x,y,z
-x,1/2-y,z
x,-y,1/2-z
1/2-x,y,-z
-x,-y,-z
x,1/2+y,-z
-x,y,1/2+z
1/2+x,-y,z
1/2+x,1/2+y,1/2+z
1/2-x,-y,1/2+z
1/2+x,1/2-y,-z
-x,1/2+y,1/2-z
1/2-x,1/2-y,1/2-z
1/2+x,y,1/2-z
1/2-x,1/2+y,z
x,1/2-y,1/2+z
loop_
_atom_site_type_symbol
_atom_site_label
_atom_site_fract_x
_atom_site_fract_y
_atom_site_fract_z
Si Si1 0.131499 0.229975 0.931915
Si Si2 0.177032 0.657179 0.867626
Si Si3 0.256892 0.394312 0.117974
Si Si4 0.500000 0.750000 0.231004
Si Si5 0.422830 0.000000 0.750000
Si Si6 0.443451 0.046573 0.434167
O O1 0.169553 0.151474 0.016157
O O2 0.096392 0.351602 0.994895
O O3 0.180050 0.309616 0.863927
O O4 0.089441 0.099332 0.897389
O O5 0.231919 0.553502 0.845186
O O6 0.198715 0.815837 0.842127
O O7 0.118142 0.587080 0.824736
O O8 0.250000 0.393754 0.000000
O O9 0.462104 0.632350 0.291049
O O10 0.463112 0.853032 0.156551
O O11 0.500000 0.000000 0.500000
#
# Coordination Sequence:
#
# PCOD9531895 Si02
#       6
#    16  16  16   8   8  16
#     4  11  21  38  69 106 138 164 224 302 378 420
#     4  11  23  42  64  97 139 184 229 283 352 437
#     4  10  22  38  67 102 132 169 222 297 368 420
#     4  12  28  48  66  98 140 188 244 290 356 424
#     4  12  28  50  66  90 144 196 244 288 330 450
#     4  12  21  40  68 105 134 174 231 309 374 417
#
# _framework density 28.112545000000001
#
# number of rings (size 3 to 8) (size 9 to 14) (size 15 to 20)
#    0.000    0.800    6.000    1.800    2.800    2.400 
#    0.000    0.000    0.000    0.000    0.000    0.000 
#    0.000    0.000    0.000    0.000    0.000    0.000 
#
# Total GULP energy -224246.056482 kJ/mol
# GULP energy per Si atom -5606.151412 kJ/mol
# Density = 2.804856 g / cm^3
# Si number density = 28.112545 Si / 1000 Ang^3
#
#
#
# Elastic Constant Matrix: (Units=GPa)
#
#
# Indices 1 2 3 4 5 6 
#
# 1 106.3561 64.4760 -2.6374 0.0000 0.0000 0.0000
# 2 64.4760 176.1867 -7.2740 0.0000 0.0000 0.0000
# 3 -2.6374 -7.2740 62.2173 0.0000 0.0000 0.0000
# 4 0.0000 0.0000 0.0000 39.9324 0.0000 0.0000
# 5 0.0000 0.0000 0.0000 0.0000 37.3290 0.0000
# 6 0.0000 0.0000 0.0000 0.0000 0.0000 95.8414
#
#
#
# Elastic Compliance Matrix: (Units=1/GPa)
#
#
# Indices 1 2 3 4 5 6 
#
# 1 0.012083 -0.004422 -0.000005 0.000000 0.000000 0.000000
# 2 -0.004422 0.007322 0.000669 0.000000 0.000000 0.000000
# 3 -0.000005 0.000669 0.016151 0.000000 0.000000 0.000000
# 4 0.000000 0.000000 0.000000 0.025042 0.000000 0.000000
# 5 0.000000 0.000000 0.000000 0.000000 0.026789 0.000000
# 6 0.000000 0.000000 0.000000 0.000000 0.000000 0.010434
#
#
# Mechanical properties :
#
#
# Convention : Reuss Voigt Hill
#
# Bulk Modulus (GPa) = 35.66487 50.43214 43.04851
# Shear Modulus (GPa) = 43.59841 53.96694 48.78268
#
# Velocity S-wave (km/s) = 3.94236 4.38616 4.17017
# Velocity P-wave (km/s) = 5.78247 6.60527 6.20751
#
# Compressibility (1/GPa) = 0.02803879
#
# Stress axis : x y z
#
# Youngs Moduli (GPa) = 82.76094 136.58140 61.91703
#
# Poissons Ratio (x) = 0.60396 0.00030
# Poissons Ratio (y) = 0.36597 -0.04139
# Poissons Ratio (z) = 0.00040 -0.09131
#
# Static dielectric constant tensor:
#      x y z
#    x 2.274410 0.000000 0.000000 
#    y 0.000000 2.147800 0.000000 
#    z 0.000000 0.000000 2.232320 
# 
# From -- ./inp_files/27173.got.cif
#   From: 2010.05.17/outbox.cif.g08.bks.cpg/sg73_14_cif.got.tgz:27173.got - 2010.06.03 17:35:07.
