data_PCOD9531640
_publ_section_title
;
Structure prediction by ZEFSAII (Michael W. Deem and Ramdas Pophale) SiO2 
 PCOD9531640
Probable space group: I B C A 
;
_chemical_formula_sum "Si O2"
_cell_formula_units_Z 96
_cell_length_a 22.805168
_cell_length_b 10.809028
_cell_length_c 16.815869
_cell_angle_alpha 90.000000
_cell_angle_beta 90.000000
_cell_angle_gamma 90.000000
_cell_volume 4145.140286
_symmetry_space_group_name_H-M "I B C A "
_symmetry_group_IT_number 73
_symmetry_cell_setting 'orthorhombic'
loop_
_space_group_symop_operation_xyz
x,y,z
-x,1/2-y,z
x,-y,1/2-z
1/2-x,y,-z
-x,-y,-z
x,1/2+y,-z
-x,y,1/2+z
1/2+x,-y,z
1/2+x,1/2+y,1/2+z
1/2-x,-y,1/2+z
1/2+x,1/2-y,-z
-x,1/2+y,1/2-z
1/2-x,1/2-y,1/2-z
1/2+x,y,1/2-z
1/2-x,1/2+y,z
x,1/2-y,1/2+z
loop_
_atom_site_type_symbol
_atom_site_label
_atom_site_fract_x
_atom_site_fract_y
_atom_site_fract_z
Si Si1 0.840299 0.738375 0.679608
Si Si2 0.716407 0.320667 0.843280
Si Si3 0.630272 0.520090 0.914321
Si Si4 0.859879 0.855430 0.431638
Si Si5 0.063343 0.963739 0.666720
Si Si6 0.052413 0.842871 0.494687
O O1 0.785137 0.666580 0.640797
O O2 0.806764 0.799166 0.754041
O O3 0.870384 0.851510 0.633063
O O4 0.888164 0.634768 0.696930
O O5 0.676437 0.432190 0.872415
O O6 0.696312 0.197315 0.888870
O O7 0.653545 0.543534 0.002899
O O8 0.567529 0.453817 0.932581
O O9 0.890872 0.743748 0.480125
O O10 0.905467 0.914510 0.369633
O O11 0.042487 0.895589 0.584016
O O12 0.029997 0.000000 0.750000
O O13 0.000000 0.750000 0.474433
#
# Coordination Sequence:
#
# PCOD9531640 Si02
#       6
#    16  16  16  16  16  16
#     4  11  22  40  63  94 137 183 227 269 336 403
#     4  10  23  38  63  92 134 184 224 268 325 403
#     4  10  22  40  63  99 128 173 228 280 337 401
#     4  10  21  42  62  98 128 171 219 278 333 402
#     4  11  22  40  66  91 136 171 219 281 336 406
#     4  10  23  46  73  94 127 172 225 283 355 406
#
# _framework density 23.159649999999999
#
# number of rings (size 3 to 8) (size 9 to 14) (size 15 to 20)
#    0.000    1.667    3.333    0.500    2.333    3.333 
#    3.000    0.833    3.667    0.000    0.000    0.000 
#    0.000    0.000    0.000    0.000    0.000    0.000 
#
# Total GULP energy -267601.655992 kJ/mol
# GULP energy per Si atom -5575.034500 kJ/mol
# Density = 2.310694 g / cm^3
# Si number density = 23.159650 Si / 1000 Ang^3
#
#
#
# Elastic Constant Matrix: (Units=GPa)
#
#
# Indices 1 2 3 4 5 6 
#
# 1 53.7993 24.1287 29.0263 0.0000 0.0000 0.0000
# 2 24.1287 85.7345 47.9757 0.0000 0.0000 0.0000
# 3 29.0263 47.9757 85.3366 0.0000 0.0000 0.0000
# 4 0.0000 0.0000 0.0000 -9.1227 0.0000 0.0000
# 5 0.0000 0.0000 0.0000 0.0000 6.9938 0.0000
# 6 0.0000 0.0000 0.0000 0.0000 0.0000 19.1303
#
#
#
# Elastic Compliance Matrix: (Units=1/GPa)
#
#
# Indices 1 2 3 4 5 6 
#
# 1 0.023316 -0.003099 -0.006189 0.000000 0.000000 0.000000
# 2 -0.003099 0.017429 -0.008745 0.000000 0.000000 0.000000
# 3 -0.006189 -0.008745 0.018739 0.000000 0.000000 0.000000
# 4 0.000000 0.000000 0.000000 -0.109617 0.000000 0.000000
# 5 0.000000 0.000000 0.000000 0.000000 0.142985 0.000000
# 6 0.000000 0.000000 0.000000 0.000000 0.000000 0.052273
#
#
# Mechanical properties :
#
#
# Convention : Reuss Voigt Hill
#
# Bulk Modulus (GPa) = 42.69696 47.45909 45.07802
# Shear Modulus (GPa) = 26.45536 11.64958 19.05247
#
# Velocity S-wave (km/s) = 3.38347 2.24523 2.87131
# Velocity P-wave (km/s) = 5.80859 5.22092 5.52258
#
# Compressibility (1/GPa) = 0.02342087
#
# Stress axis : x y z
#
# Youngs Moduli (GPa) = 42.88821 57.37413 53.36340
#
# Poissons Ratio (x) = 0.17781 0.33024
# Poissons Ratio (y) = 0.13291 0.46664
# Poissons Ratio (z) = 0.26542 0.50172
#
# Static dielectric constant tensor:
#      x y z
#    x 1.888350 0.000000 0.000000 
#    y 0.000000 1.923980 0.000000 
#    z 0.000000 0.000000 1.977210 
# 
# From -- ./inp_files/23533.got.cif
#   From: 2010.05.17/outbox.cif.g08.bks.cpg/sg73_12_cif.got.tgz:23533.got - 2010.06.03 17:35:07.
