data_PCOD9531006
_publ_section_title
;
Structure prediction by ZEFSAII (Michael W. Deem and Ramdas Pophale) SiO2 
 PCOD9531006
Probable space group: I B C A 
;
_chemical_formula_sum "Si O2"
_cell_formula_units_Z 64
_cell_length_a 18.078884
_cell_length_b 17.750383
_cell_length_c 9.922726
_cell_angle_alpha 90.000000
_cell_angle_beta 90.000000
_cell_angle_gamma 90.000000
_cell_volume 3184.273376
_symmetry_space_group_name_H-M "I B C A "
_symmetry_group_IT_number 73
_symmetry_cell_setting 'orthorhombic'
loop_
_space_group_symop_operation_xyz
x,y,z
-x,1/2-y,z
x,-y,1/2-z
1/2-x,y,-z
-x,-y,-z
x,1/2+y,-z
-x,y,1/2+z
1/2+x,-y,z
1/2+x,1/2+y,1/2+z
1/2-x,-y,1/2+z
1/2+x,1/2-y,-z
-x,1/2+y,1/2-z
1/2-x,1/2-y,1/2-z
1/2+x,y,1/2-z
1/2-x,1/2+y,z
x,1/2-y,1/2+z
loop_
_atom_site_type_symbol
_atom_site_label
_atom_site_fract_x
_atom_site_fract_y
_atom_site_fract_z
Si Si1 0.779412 0.860160 0.354258
Si Si2 0.563228 0.084477 0.789543
Si Si3 0.187304 0.183564 0.110893
Si Si4 0.972230 0.835692 0.014726
O O1 0.750000 0.883453 0.500000
O O2 0.848325 0.908274 0.303831
O O3 0.712604 0.856172 0.248095
O O4 0.809650 0.773879 0.365640
O O5 0.527044 0.112311 0.928415
O O6 0.536128 0.137947 0.668311
O O7 0.542571 0.000000 0.750000
O O8 0.107999 0.160907 0.055541
O O9 0.250000 0.167132 0.000000
O O10 0.000000 0.750000 0.010146
#
# Coordination Sequence:
#
# PCOD9531006 Si02
#       4
#    16  16  16  16
#     4  10  22  39  67  95 132 167 224 279 330 391
#     4  12  27  46  64 102 143 178 217 277 349 405
#     4  10  20  40  67  99 125 169 226 285 318 383
#     4  12  25  43  73  99 131 179 234 276 329 397
#
# _framework density 20.098777999999999
#
# number of rings (size 3 to 8) (size 9 to 14) (size 15 to 20)
#    0.000    1.000    5.000    1.500    3.500    0.000 
#    4.500    0.000    0.000    0.000    0.000    0.000 
#    0.000    0.000    0.000    0.000    0.000    0.000 
#
# Total GULP energy -179023.328653 kJ/mol
# GULP energy per Si atom -5594.479020 kJ/mol
# Density = 2.005303 g / cm^3
# Si number density = 20.098778 Si / 1000 Ang^3
#
#
#
# Elastic Constant Matrix: (Units=GPa)
#
#
# Indices 1 2 3 4 5 6 
#
# 1 73.9883 12.8981 12.7909 0.0000 0.0000 0.0000
# 2 12.8981 59.4749 15.5125 0.0000 0.0000 0.0000
# 3 12.7909 15.5125 108.5963 0.0000 0.0000 0.0000
# 4 0.0000 0.0000 0.0000 10.3687 0.0000 0.0000
# 5 0.0000 0.0000 0.0000 0.0000 28.8902 0.0000
# 6 0.0000 0.0000 0.0000 0.0000 0.0000 8.1521
#
#
#
# Elastic Compliance Matrix: (Units=1/GPa)
#
#
# Indices 1 2 3 4 5 6 
#
# 1 0.014216 -0.002749 -0.001282 0.000000 0.000000 0.000000
# 2 -0.002749 0.017996 -0.002247 0.000000 0.000000 0.000000
# 3 -0.001282 -0.002247 0.009680 0.000000 0.000000 0.000000
# 4 0.000000 0.000000 0.000000 0.096444 0.000000 0.000000
# 5 0.000000 0.000000 0.000000 0.000000 0.034614 0.000000
# 6 0.000000 0.000000 0.000000 0.000000 0.000000 0.122668
#
#
# Mechanical properties :
#
#
# Convention : Reuss Voigt Hill
#
# Bulk Modulus (GPa) = 34.08563 36.05137 35.06850
# Shear Modulus (GPa) = 15.72558 22.87271 19.29915
#
# Velocity S-wave (km/s) = 2.80020 3.37711 3.10210
# Velocity P-wave (km/s) = 5.23934 5.76043 5.50605
#
# Compressibility (1/GPa) = 0.02933787
#
# Stress axis : x y z
#
# Youngs Moduli (GPa) = 70.34115 55.56799 103.30198
#
# Poissons Ratio (x) = 0.15274 0.13241
# Poissons Ratio (y) = 0.19335 0.23211
# Poissons Ratio (z) = 0.09016 0.12486
#
# Static dielectric constant tensor:
#      x y z
#    x 1.679490 0.000000 0.000000 
#    y 0.000000 1.704630 0.000000 
#    z 0.000000 0.000000 1.709600 
# 
# From -- ./inp_files/5190.got.cif
#   From: 2010.05.17/outbox.cif.g08.bks.cpg/sg73_3_cif.got.tgz:5190.got - 2010.06.03 17:35:07.
