data_PCOD9531657
_publ_section_title
;
Structure prediction by ZEFSAII (Michael W. Deem and Ramdas Pophale) SiO2 
 PCOD9531657
Probable space group: I B C A 
;
_chemical_formula_sum "Si O2"
_cell_formula_units_Z 112
_cell_length_a 14.768994
_cell_length_b 24.778532
_cell_length_c 13.869649
_cell_angle_alpha 90.000000
_cell_angle_beta 90.000000
_cell_angle_gamma 90.000000
_cell_volume 5075.653398
_symmetry_space_group_name_H-M "I B C A "
_symmetry_group_IT_number 73
_symmetry_cell_setting 'orthorhombic'
loop_
_space_group_symop_operation_xyz
x,y,z
-x,1/2-y,z
x,-y,1/2-z
1/2-x,y,-z
-x,-y,-z
x,1/2+y,-z
-x,y,1/2+z
1/2+x,-y,z
1/2+x,1/2+y,1/2+z
1/2-x,-y,1/2+z
1/2+x,1/2-y,-z
-x,1/2+y,1/2-z
1/2-x,1/2-y,1/2-z
1/2+x,y,1/2-z
1/2-x,1/2+y,z
x,1/2-y,1/2+z
loop_
_atom_site_type_symbol
_atom_site_label
_atom_site_fract_x
_atom_site_fract_y
_atom_site_fract_z
Si Si1 0.193298 0.235287 0.900793
Si Si2 0.000000 0.250000 0.490786
Si Si3 0.573552 0.149224 0.400836
Si Si4 0.682614 0.091313 0.083286
Si Si5 0.750000 0.897827 0.000000
Si Si6 0.456720 0.446304 0.955578
Si Si7 0.716031 0.170877 0.247838
Si Si8 0.285628 0.504383 0.863570
O O1 0.210925 0.183235 0.831924
O O2 0.227902 0.283592 0.833038
O O3 0.250000 0.235013 0.000000
O O4 0.090372 0.248294 0.927068
O O5 0.988806 0.196352 0.555786
O O6 0.660155 0.134708 0.468791
O O7 0.520867 0.092564 0.393161
O O8 0.620463 0.171726 0.304324
O O9 0.710360 0.117216 0.184081
O O10 0.699923 0.027646 0.094286
O O11 0.750000 0.112806 0.000000
O O12 0.581964 0.092913 0.040774
O O13 0.719860 0.937155 0.911940
O O14 0.372251 0.469156 0.895499
O O15 0.500000 0.500000 0.000000
O O16 0.281457 0.500000 0.750000
#
# Coordination Sequence:
#
# PCOD9531657 Si02
#       8
#    16   8  16  16   8  16  16  16
#     4  11  24  50  73 101 149 194 256 320 384 456
#     4  12  26  48  72 108 148 192 248 322 386 454
#     4  12  25  43  72 105 142 194 243 306 374 452
#     4  10  21  42  67 106 144 188 242 297 376 435
#     4  12  22  48  74  96 150 190 246 304 370 444
#     4  11  22  43  68 103 155 194 241 309 373 438
#     4  11  24  44  73 105 138 201 251 310 381 459
#     4  11  22  41  70 106 137 191 241 293 362 447
#
# _framework density 22.066125
#
# number of rings (size 3 to 8) (size 9 to 14) (size 15 to 20)
#    0.000    0.857    5.000    3.000    0.000    2.857 
#    7.714    0.714    0.000    0.000    0.000    0.000 
#    0.000    0.000    0.000    0.000    0.000    0.000 
#
# Total GULP energy -312585.788064 kJ/mol
# GULP energy per Si atom -5581.889073 kJ/mol
# Density = 2.201590 g / cm^3
# Si number density = 22.066125 Si / 1000 Ang^3
#
#
#
# Elastic Constant Matrix: (Units=GPa)
#
#
# Indices 1 2 3 4 5 6 
#
# 1 100.7253 23.9950 42.4520 0.0000 0.0000 0.0000
# 2 23.9950 115.7351 38.0954 0.0000 0.0000 0.0000
# 3 42.4520 38.0954 153.3190 0.0001 0.0000 0.0000
# 4 0.0000 0.0000 0.0001 35.4423 0.0000 0.0000
# 5 0.0000 0.0000 0.0000 0.0000 24.2898 0.0000
# 6 0.0000 0.0000 0.0000 0.0000 0.0000 40.7918
#
#
#
# Elastic Compliance Matrix: (Units=1/GPa)
#
#
# Indices 1 2 3 4 5 6 
#
# 1 0.011459 -0.001450 -0.002813 0.000000 0.000000 0.000000
# 2 -0.001450 0.009594 -0.001982 0.000000 0.000000 0.000000
# 3 -0.002813 -0.001982 0.007794 0.000000 0.000000 0.000000
# 4 0.000000 0.000000 0.000000 0.028215 0.000000 0.000000
# 5 0.000000 0.000000 0.000000 0.000000 0.041170 0.000000
# 6 0.000000 0.000000 0.000000 0.000000 0.000000 0.024515
#
#
# Mechanical properties :
#
#
# Convention : Reuss Voigt Hill
#
# Bulk Modulus (GPa) = 61.13771 64.31822 62.72797
# Shear Modulus (GPa) = 35.53995 37.78723 36.66359
#
# Velocity S-wave (km/s) = 4.01760 4.14267 4.08061
# Velocity P-wave (km/s) = 7.02055 7.21758 7.11975
#
# Compressibility (1/GPa) = 0.01635652
#
# Stress axis : x y z
#
# Youngs Moduli (GPa) = 87.26937 104.23717 128.30997
#
# Poissons Ratio (x) = 0.15114 0.36087
# Poissons Ratio (y) = 0.12654 0.25434
# Poissons Ratio (z) = 0.24545 0.20662
#
# Static dielectric constant tensor:
#      x y z
#    x 1.846050 0.000000 0.000000 
#    y 0.000000 1.876890 0.000000 
#    z 0.000000 0.000000 1.869080 
# 
# From -- ./inp_files/17411.got.cif
#   From: 2010.05.17/outbox.cif.g08.bks.cpg/sg73_9_cif.got.tgz:17411.got - 2010.06.03 17:35:07.
