data_PCOD9531436
_publ_section_title
;
Structure prediction by ZEFSAII (Michael W. Deem and Ramdas Pophale) SiO2 
 PCOD9531436
Probable space group: I B C A 
;
_chemical_formula_sum "Si O2"
_cell_formula_units_Z 80
_cell_length_a 28.725881
_cell_length_b 14.434614
_cell_length_c 9.496549
_cell_angle_alpha 90.000000
_cell_angle_beta 90.000000
_cell_angle_gamma 90.000000
_cell_volume 3937.715592
_symmetry_space_group_name_H-M "I B C A "
_symmetry_group_IT_number 73
_symmetry_cell_setting 'orthorhombic'
loop_
_space_group_symop_operation_xyz
x,y,z
-x,1/2-y,z
x,-y,1/2-z
1/2-x,y,-z
-x,-y,-z
x,1/2+y,-z
-x,y,1/2+z
1/2+x,-y,z
1/2+x,1/2+y,1/2+z
1/2-x,-y,1/2+z
1/2+x,1/2-y,-z
-x,1/2+y,1/2-z
1/2-x,1/2-y,1/2-z
1/2+x,y,1/2-z
1/2-x,1/2+y,z
x,1/2-y,1/2+z
loop_
_atom_site_type_symbol
_atom_site_label
_atom_site_fract_x
_atom_site_fract_y
_atom_site_fract_z
Si Si1 0.963937 0.093775 0.173850
Si Si2 0.031415 0.664211 0.023811
Si Si3 0.385242 0.777367 0.064211
Si Si4 0.321416 0.223667 0.689219
Si Si5 0.244120 0.903993 0.667668
O O1 0.976784 0.152669 0.311730
O O2 0.920902 0.138335 0.089605
O O3 0.948775 0.000000 0.250000
O O4 0.009542 0.085533 0.075437
O O5 0.000000 0.750000 0.974142
O O6 0.084281 0.692950 0.998402
O O7 0.364913 0.742704 0.210501
O O8 0.342313 0.801659 0.962706
O O9 0.289224 0.144449 0.758846
O O10 0.293672 0.320994 0.679444
O O11 0.250000 0.921921 0.500000
O O12 0.233420 0.000000 0.750000
#
# Coordination Sequence:
#
# PCOD9531436 Si02
#       5
#    16  16  16  16  16
#     4  11  23  39  61  94 132 173 218 277 324 389
#     4  10  21  39  63  86 124 175 218 253 328 395
#     4  11  22  42  67  92 127 174 222 269 329 392
#     4  11  24  46  69  95 136 172 222 277 335 405
#     4  11  26  45  71 100 132 176 219 272 346 417
#
# _framework density 20.316348000000001
#
# number of rings (size 3 to 8) (size 9 to 14) (size 15 to 20)
#    0.000    1.200    4.000    2.400    5.600    0.800 
#    3.600    0.000    0.000    0.000    0.000    0.000 
#    0.000    0.000    0.000    0.000    0.000    0.000 
#
# Total GULP energy -223068.150560 kJ/mol
# GULP energy per Si atom -5576.703764 kJ/mol
# Density = 2.027011 g / cm^3
# Si number density = 20.316348 Si / 1000 Ang^3
#
#
#
# Elastic Constant Matrix: (Units=GPa)
#
#
# Indices 1 2 3 4 5 6 
#
# 1 63.9594 25.3178 15.5496 0.0000 0.0000 0.0000
# 2 25.3178 97.0865 42.6528 0.0000 0.0000 0.0000
# 3 15.5496 42.6528 108.6672 0.0000 0.0000 0.0000
# 4 0.0000 0.0000 0.0000 29.2554 0.0000 0.0000
# 5 0.0000 0.0000 0.0000 0.0000 66.1228 0.0000
# 6 0.0000 0.0000 0.0000 0.0000 0.0000 11.0708
#
#
#
# Elastic Compliance Matrix: (Units=1/GPa)
#
#
# Indices 1 2 3 4 5 6 
#
# 1 0.017501 -0.004185 -0.000861 0.000000 0.000000 0.000000
# 2 -0.004185 0.013447 -0.004679 0.000000 0.000000 0.000000
# 3 -0.000861 -0.004679 0.011162 0.000000 0.000000 0.000000
# 4 0.000000 0.000000 0.000000 0.034182 0.000000 0.000000
# 5 0.000000 0.000000 0.000000 0.000000 0.015123 0.000000
# 6 0.000000 0.000000 0.000000 0.000000 0.000000 0.090327
#
#
# Mechanical properties :
#
#
# Convention : Reuss Voigt Hill
#
# Bulk Modulus (GPa) = 44.13372 48.52817 46.33095
# Shear Modulus (GPa) = 23.95229 33.70266 28.82747
#
# Velocity S-wave (km/s) = 3.43733 4.07737 3.77096
# Velocity P-wave (km/s) = 6.12569 6.79005 6.46641
#
# Compressibility (1/GPa) = 0.02265841
#
# Stress axis : x y z
#
# Youngs Moduli (GPa) = 57.13925 74.36448 89.58704
#
# Poissons Ratio (x) = 0.31124 0.07718
# Poissons Ratio (y) = 0.23915 0.41920
# Poissons Ratio (z) = 0.04922 0.34797
#
# Static dielectric constant tensor:
#      x y z
#    x 1.726850 0.000000 0.000000 
#    y 0.000000 1.865740 0.000000 
#    z 0.000000 0.000000 1.713670 
# 
# From -- ./inp_files/7717.got.cif
#   From: 2010.05.17/outbox.cif.g08.bks.cpg/sg73_4_cif.got.tgz:7717.got - 2010.06.03 17:35:07.
