data_PCOD9531164
_publ_section_title
;
Structure prediction by ZEFSAII (Michael W. Deem and Ramdas Pophale) SiO2 
 PCOD9531164
Probable space group: I B C A 
;
_chemical_formula_sum "Si O2"
_cell_formula_units_Z 72
_cell_length_a 12.112405
_cell_length_b 11.246330
_cell_length_c 22.190473
_cell_angle_alpha 90.000000
_cell_angle_beta 90.000000
_cell_angle_gamma 90.000000
_cell_volume 3022.788534
_symmetry_space_group_name_H-M "I B C A "
_symmetry_group_IT_number 73
_symmetry_cell_setting 'orthorhombic'
loop_
_space_group_symop_operation_xyz
x,y,z
-x,1/2-y,z
x,-y,1/2-z
1/2-x,y,-z
-x,-y,-z
x,1/2+y,-z
-x,y,1/2+z
1/2+x,-y,z
1/2+x,1/2+y,1/2+z
1/2-x,-y,1/2+z
1/2+x,1/2-y,-z
-x,1/2+y,1/2-z
1/2-x,1/2-y,1/2-z
1/2+x,y,1/2-z
1/2-x,1/2+y,z
x,1/2-y,1/2+z
loop_
_atom_site_type_symbol
_atom_site_label
_atom_site_fract_x
_atom_site_fract_y
_atom_site_fract_z
Si Si1 0.105636 0.837405 0.394309
Si Si2 0.437604 0.121730 0.021086
Si Si3 0.497304 0.416906 0.150952
Si Si4 0.272305 0.308491 0.185025
Si Si5 0.853152 0.500000 0.750000
O O1 0.141915 0.864473 0.463197
O O2 0.201058 0.767732 0.360784
O O3 0.000000 0.750000 0.395740
O O4 0.062185 0.955133 0.360533
O O5 0.500000 0.250000 0.021308
O O6 0.425052 0.099313 0.092293
O O7 0.500000 0.000000 0.000000
O O8 0.394804 0.328149 0.160209
O O9 0.566189 0.415827 0.212200
O O10 0.250000 0.250000 0.250000
O O11 0.219429 0.437340 0.198974
#
# Coordination Sequence:
#
# PCOD9531164 Si02
#       5
#    16  16  16  16   8
#     4  10  20  46  71  95 144 193 231 308 374 432
#     4   9  21  42  75  98 135 190 243 296 370 440
#     4  11  24  43  71 105 138 193 251 294 382 456
#     4  12  26  40  69 108 146 190 252 306 369 461
#     4  12  24  42  70 100 154 194 236 318 382 452
#
# _framework density 23.819065999999999
#
# number of rings (size 3 to 8) (size 9 to 14) (size 15 to 20)
#    0.000    1.333    2.222    3.333    3.111    0.000 
#    0.000    4.444    4.889    0.000    0.000    0.000 
#    0.000    0.000    0.000    0.000    0.000    0.000 
#
# Total GULP energy -200935.777164 kJ/mol
# GULP energy per Si atom -5581.549366 kJ/mol
# Density = 2.376485 g / cm^3
# Si number density = 23.819066 Si / 1000 Ang^3
#
#
#
# Elastic Constant Matrix: (Units=GPa)
#
#
# Indices 1 2 3 4 5 6 
#
# 1 101.8348 18.7444 72.2437 0.0000 0.0000 0.0000
# 2 18.7444 112.7480 24.3242 0.0000 0.0000 0.0000
# 3 72.2437 24.3242 187.5689 0.0000 0.0000 0.0000
# 4 0.0000 0.0000 0.0000 50.1924 0.0000 0.0000
# 5 0.0000 0.0000 0.0000 0.0000 34.8363 0.0000
# 6 0.0000 0.0000 0.0000 0.0000 0.0000 41.5612
#
#
#
# Elastic Compliance Matrix: (Units=1/GPa)
#
#
# Indices 1 2 3 4 5 6 
#
# 1 0.013660 -0.001169 -0.005110 0.000000 0.000000 0.000000
# 2 -0.001169 0.009225 -0.000746 0.000000 0.000000 0.000000
# 3 -0.005110 -0.000746 0.007396 0.000000 0.000000 0.000000
# 4 0.000000 0.000000 0.000000 0.019923 0.000000 0.000000
# 5 0.000000 0.000000 0.000000 0.000000 0.028706 0.000000
# 6 0.000000 0.000000 0.000000 0.000000 0.000000 0.024061
#
#
# Mechanical properties :
#
#
# Convention : Reuss Voigt Hill
#
# Bulk Modulus (GPa) = 61.60761 70.30847 65.95804
# Shear Modulus (GPa) = 40.83971 44.44060 42.64016
#
# Velocity S-wave (km/s) = 4.14524 4.32413 4.23563
# Velocity P-wave (km/s) = 6.98797 7.38326 7.18833
#
# Compressibility (1/GPa) = 0.01623176
#
# Stress axis : x y z
#
# Youngs Moduli (GPa) = 73.20752 108.40583 135.20538
#
# Poissons Ratio (x) = 0.12668 0.69085
# Poissons Ratio (y) = 0.08555 0.10089
# Poissons Ratio (z) = 0.37406 0.08089
#
# Static dielectric constant tensor:
#      x y z
#    x 2.052540 0.000000 0.000000 
#    y 0.000000 1.604330 0.000000 
#    z 0.000000 0.000000 1.919200 
# 
# From -- ./inp_files/25848.got.cif
#   From: 2010.05.17/outbox.cif.g08.bks.cpg/sg73_13_cif.got.tgz:25848.got - 2010.06.03 17:35:07.
