data_PCOD9531270
_publ_section_title
;
Structure prediction by ZEFSAII (Michael W. Deem and Ramdas Pophale) SiO2 
 PCOD9531270
Probable space group: I B C A 
;
_chemical_formula_sum "Si O2"
_cell_formula_units_Z 104
_cell_length_a 8.905657
_cell_length_b 19.058209
_cell_length_c 27.930367
_cell_angle_alpha 90.000000
_cell_angle_beta 90.000000
_cell_angle_gamma 90.000000
_cell_volume 4740.505905
_symmetry_space_group_name_H-M "I B C A "
_symmetry_group_IT_number 73
_symmetry_cell_setting 'orthorhombic'
loop_
_space_group_symop_operation_xyz
x,y,z
-x,1/2-y,z
x,-y,1/2-z
1/2-x,y,-z
-x,-y,-z
x,1/2+y,-z
-x,y,1/2+z
1/2+x,-y,z
1/2+x,1/2+y,1/2+z
1/2-x,-y,1/2+z
1/2+x,1/2-y,-z
-x,1/2+y,1/2-z
1/2-x,1/2-y,1/2-z
1/2+x,y,1/2-z
1/2-x,1/2+y,z
x,1/2-y,1/2+z
loop_
_atom_site_type_symbol
_atom_site_label
_atom_site_fract_x
_atom_site_fract_y
_atom_site_fract_z
Si Si1 0.984429 0.066751 0.652080
Si Si2 0.259401 0.658977 0.801169
Si Si3 0.503029 0.046367 0.568199
Si Si4 0.248275 0.439600 0.214751
Si Si5 0.250000 0.012983 0.500000
Si Si6 0.556362 0.147309 0.145234
Si Si7 0.858351 0.716491 0.858753
O O1 0.089937 0.033701 0.693398
O O2 0.079279 0.138546 0.647063
O O3 0.822619 0.095874 0.668789
O O4 0.985818 0.020421 0.604210
O O5 0.262872 0.630642 0.747215
O O6 0.428912 0.671401 0.818225
O O7 0.164945 0.728813 0.814353
O O8 0.636620 0.032276 0.531740
O O9 0.526629 0.114234 0.600145
O O10 0.351780 0.055030 0.537407
O O11 0.303809 0.500000 0.250000
O O12 0.358958 0.417690 0.172036
O O13 0.684533 0.201418 0.127981
O O14 0.000000 0.750000 0.887559
#
# Coordination Sequence:
#
# PCOD9531270 Si02
#       7
#    16  16  16  16   8  16  16
#     4  10  21  37  58  81 120 161 201 257 305 371
#     4  11  21  35  55  85 119 163 218 254 290 349
#     4  11  21  39  60  94 120 151 198 251 337 391
#     4  11  22  36  54  83 124 170 209 252 304 355
#     4  10  22  36  62  92 124 148 186 258 330 412
#     4  11  22  36  60  85 120 159 203 263 307 368
#     4   9  21  39  57  82 115 167 211 248 296 347
#
# _framework density 21.938587999999999
#
# number of rings (size 3 to 8) (size 9 to 14) (size 15 to 20)
#    0.000    1.538    0.000    6.000    0.000    3.692 
#    0.000    6.154    0.000    0.000    0.000  142.154 
#    0.000    0.000    0.000    0.000    0.000    0.000 
#
# Total GULP energy -289870.512159 kJ/mol
# GULP energy per Si atom -5574.432926 kJ/mol
# Density = 2.188865 g / cm^3
# Si number density = 21.938588 Si / 1000 Ang^3
#
#
#
# Elastic Constant Matrix: (Units=GPa)
#
#
# Indices 1 2 3 4 5 6 
#
# 1 117.8080 9.1184 13.5551 0.0000 0.0000 0.0000
# 2 9.1184 67.0304 22.1093 0.0000 0.0000 0.0000
# 3 13.5551 22.1093 77.9638 0.0000 0.0000 0.0000
# 4 0.0000 0.0000 0.0000 3.8606 0.0000 0.0000
# 5 0.0000 0.0000 0.0000 0.0000 33.4775 0.0000
# 6 0.0000 0.0000 0.0000 0.0000 0.0000 27.7812
#
#
#
# Elastic Compliance Matrix: (Units=1/GPa)
#
#
# Indices 1 2 3 4 5 6 
#
# 1 0.008696 -0.000755 -0.001298 0.000000 0.000000 0.000000
# 2 -0.000755 0.016524 -0.004555 0.000000 0.000000 0.000000
# 3 -0.001298 -0.004555 0.014344 0.000000 0.000000 0.000000
# 4 0.000000 0.000000 0.000000 0.259026 0.000000 0.000000
# 5 0.000000 0.000000 0.000000 0.000000 0.029871 0.000000
# 6 0.000000 0.000000 0.000000 0.000000 0.000000 0.035996
#
#
# Mechanical properties :
#
#
# Convention : Reuss Voigt Hill
#
# Bulk Modulus (GPa) = 37.95240 39.15196 38.55218
# Shear Modulus (GPa) = 12.93817 27.55850 20.24833
#
# Velocity S-wave (km/s) = 2.43110 3.54809 3.04131
# Velocity P-wave (km/s) = 5.02168 5.88814 5.47208
#
# Compressibility (1/GPa) = 0.02634879
#
# Stress axis : x y z
#
# Youngs Moduli (GPa) = 114.99338 60.51963 69.71696
#
# Poissons Ratio (x) = 0.04569 0.09048
# Poissons Ratio (y) = 0.08681 0.31753
# Poissons Ratio (z) = 0.14925 0.27564
#
# Static dielectric constant tensor:
#      x y z
#    x 1.918060 0.000000 0.000000 
#    y 0.000000 1.908850 0.000000 
#    z 0.000000 0.000000 1.795910 
# 
# From -- ./inp_files/24961.got.cif
#   From: 2010.05.17/outbox.cif.g08.bks.cpg/sg73_13_cif.got.tgz:24961.got - 2010.06.03 17:35:07.
