data_PCOD9531055
_publ_section_title
;
Structure prediction by ZEFSAII (Michael W. Deem and Ramdas Pophale) SiO2 
 PCOD9531055
Probable space group: I B C A 
;
_chemical_formula_sum "Si O2"
_cell_formula_units_Z 104
_cell_length_a 19.193270
_cell_length_b 26.088050
_cell_length_c 9.721427
_cell_angle_alpha 90.000000
_cell_angle_beta 90.000000
_cell_angle_gamma 90.000000
_cell_volume 4867.664198
_symmetry_space_group_name_H-M "I B C A "
_symmetry_group_IT_number 73
_symmetry_cell_setting 'orthorhombic'
loop_
_space_group_symop_operation_xyz
x,y,z
-x,1/2-y,z
x,-y,1/2-z
1/2-x,y,-z
-x,-y,-z
x,1/2+y,-z
-x,y,1/2+z
1/2+x,-y,z
1/2+x,1/2+y,1/2+z
1/2-x,-y,1/2+z
1/2+x,1/2-y,-z
-x,1/2+y,1/2-z
1/2-x,1/2-y,1/2-z
1/2+x,y,1/2-z
1/2-x,1/2+y,z
x,1/2-y,1/2+z
loop_
_atom_site_type_symbol
_atom_site_label
_atom_site_fract_x
_atom_site_fract_y
_atom_site_fract_z
Si Si1 0.391036 0.292065 0.330859
Si Si2 0.934238 0.066477 0.044662
Si Si3 0.415923 0.198822 0.140784
Si Si4 0.755092 0.332672 0.847264
Si Si5 0.972152 0.613736 0.231672
Si Si6 0.709041 0.590188 0.133339
Si Si7 0.638520 0.500000 0.250000
O O1 0.422334 0.248741 0.234409
O O2 0.424211 0.287785 0.481188
O O3 0.306822 0.290905 0.343885
O O4 0.410565 0.348014 0.273043
O O5 0.998428 0.085011 0.135644
O O6 0.867973 0.103969 0.076407
O O7 0.907545 0.013122 0.114541
O O8 0.951569 0.073378 0.886109
O O9 0.334975 0.184277 0.159355
O O10 0.466485 0.151882 0.178483
O O11 0.748072 0.366961 0.711199
O O12 0.750000 0.357778 0.000000
O O13 0.688627 0.548892 0.250236
O O14 0.750000 0.569762 0.000000
#
# Coordination Sequence:
#
# PCOD9531055 Si02
#       7
#    16  16  16  16  16  16   8
#     4  11  25  37  62  93 127 177 224 274 328 392
#     4  10  23  41  66  92 132 166 215 273 333 400
#     4  11  23  40  58  92 131 170 230 276 323 389
#     4  10  22  41  62  91 131 174 216 275 342 389
#     4  12  22  41  65  91 128 177 216 270 336 397
#     4  10  20  41  68  95 128 167 217 268 339 408
#     4   8  22  42  62 102 126 164 208 278 330 400
#
# _framework density 21.365485
#
# number of rings (size 3 to 8) (size 9 to 14) (size 15 to 20)
#    0.923    0.615    3.077    1.846    2.154    3.692 
#    0.000    0.000    0.000    0.000    0.000    0.000 
#    0.000    0.000    0.000    0.000    0.000    0.000 
#
# Total GULP energy -289719.435489 kJ/mol
# GULP energy per Si atom -5571.527606 kJ/mol
# Density = 2.131686 g / cm^3
# Si number density = 21.365485 Si / 1000 Ang^3
#
#
#
# Elastic Constant Matrix: (Units=GPa)
#
#
# Indices 1 2 3 4 5 6 
#
# 1 82.2214 -2.7680 8.5995 0.0000 0.0000 0.0000
# 2 -2.7680 26.0099 22.0374 0.0000 0.0000 0.0000
# 3 8.5995 22.0374 99.6294 0.0000 0.0000 0.0000
# 4 0.0000 0.0000 0.0000 19.8435 0.0000 0.0000
# 5 0.0000 0.0000 0.0000 0.0000 15.6494 0.0000
# 6 0.0000 0.0000 0.0000 0.0000 0.0000 23.7610
#
#
#
# Elastic Compliance Matrix: (Units=1/GPa)
#
#
# Indices 1 2 3 4 5 6 
#
# 1 0.012431 0.002747 -0.001680 0.000000 0.000000 0.000000
# 2 0.002747 0.047921 -0.010837 0.000000 0.000000 0.000000
# 3 -0.001680 -0.010837 0.012579 0.000000 0.000000 0.000000
# 4 0.000000 0.000000 0.000000 0.050394 0.000000 0.000000
# 5 0.000000 0.000000 0.000000 0.000000 0.063900 0.000000
# 6 0.000000 0.000000 0.000000 0.000000 0.000000 0.042086
#
#
# Mechanical properties :
#
#
# Convention : Reuss Voigt Hill
#
# Bulk Modulus (GPa) = 18.73030 29.28871 24.00951
# Shear Modulus (GPa) = 18.75126 23.85024 21.30075
#
# Velocity S-wave (km/s) = 2.96572 3.34473 3.16091
# Velocity P-wave (km/s) = 4.52912 5.35299 4.95820
#
# Compressibility (1/GPa) = 0.05338943
#
# Stress axis : x y z
#
# Youngs Moduli (GPa) = 80.44716 20.86771 79.49573
#
# Poissons Ratio (x) = -0.05732 0.13359
# Poissons Ratio (y) = -0.22097 0.86149
# Poissons Ratio (z) = 0.13519 0.22614
#
# Static dielectric constant tensor:
#      x y z
#    x 1.808810 0.000000 0.000000 
#    y 0.000000 1.795310 0.000000 
#    z 0.000000 0.000000 1.765110 
# 
# From -- ./inp_files/6582.got.cif
#   From: 2010.05.17/outbox.cif.g08.bks.cpg/sg73_4_cif.got.tgz:6582.got - 2010.06.03 17:35:07.
