data_PCOD9531827
_publ_section_title
;
Structure prediction by ZEFSAII (Michael W. Deem and Ramdas Pophale) SiO2 
 PCOD9531827
Probable space group: I B C A 
;
_chemical_formula_sum "Si O2"
_cell_formula_units_Z 96
_cell_length_a 13.533396
_cell_length_b 21.841123
_cell_length_c 13.542706
_cell_angle_alpha 90.000000
_cell_angle_beta 90.000000
_cell_angle_gamma 90.000000
_cell_volume 4003.014884
_symmetry_space_group_name_H-M "I B C A "
_symmetry_group_IT_number 73
_symmetry_cell_setting 'orthorhombic'
loop_
_space_group_symop_operation_xyz
x,y,z
-x,1/2-y,z
x,-y,1/2-z
1/2-x,y,-z
-x,-y,-z
x,1/2+y,-z
-x,y,1/2+z
1/2+x,-y,z
1/2+x,1/2+y,1/2+z
1/2-x,-y,1/2+z
1/2+x,1/2-y,-z
-x,1/2+y,1/2-z
1/2-x,1/2-y,1/2-z
1/2+x,y,1/2-z
1/2-x,1/2+y,z
x,1/2-y,1/2+z
loop_
_atom_site_type_symbol
_atom_site_label
_atom_site_fract_x
_atom_site_fract_y
_atom_site_fract_z
Si Si1 0.654772 0.130381 0.820508
Si Si2 0.065085 0.909649 0.619072
Si Si3 0.250000 0.248720 0.000000
Si Si4 0.361102 0.662291 0.381144
Si Si5 0.450835 0.500000 0.250000
Si Si6 0.140615 0.276903 0.672005
Si Si7 0.050571 0.601291 0.895941
O O1 0.640246 0.110476 0.705840
O O2 0.763650 0.119495 0.867298
O O3 0.634167 0.203635 0.823455
O O4 0.568488 0.096834 0.882493
O O5 0.969922 0.864410 0.616267
O O6 0.092261 0.914751 0.503966
O O7 0.016299 0.970492 0.663623
O O8 0.340383 0.293392 0.026857
O O9 0.231031 0.211292 0.097480
O O10 0.352006 0.702339 0.283087
O O11 0.403159 0.557913 0.190968
O O12 0.066579 0.326591 0.625919
#
# Coordination Sequence:
#
# PCOD9531827 Si02
#       7
#    16  16   8  16   8  16  16
#     4  10  22  40  60  96 135 160 205 255 316 385
#     4  11  23  41  69  90 123 173 216 259 318 378
#     4  10  22  36  64  94 136 168 202 246 318 398
#     4  11  22  40  61  93 133 168 197 260 314 374
#     4  10  22  46  60  90 124 160 218 280 312 342
#     4  11  22  39  60  97 132 167 201 257 316 379
#     4  11  23  40  66  91 123 171 216 255 318 379
#
# _framework density 23.981923999999999
#
# number of rings (size 3 to 8) (size 9 to 14) (size 15 to 20)
#    0.000    1.333    3.333    5.000    4.667    0.000 
#    0.000    3.333    0.000    3.000    0.000    0.000 
#    0.000    0.000    0.000    0.000    0.000    0.000 
#
# Total GULP energy -267453.309640 kJ/mol
# GULP energy per Si atom -5571.943951 kJ/mol
# Density = 2.392734 g / cm^3
# Si number density = 23.981924 Si / 1000 Ang^3
#
#
#
# Elastic Constant Matrix: (Units=GPa)
#
#
# Indices 1 2 3 4 5 6 
#
# 1 35.5048 -19.6816 -13.4202 0.0000 0.0000 -0.0001
# 2 -19.6816 44.0447 3.6220 0.0001 0.0000 0.0001
# 3 -13.4202 3.6220 139.2552 0.0001 -0.0001 0.0005
# 4 0.0000 0.0001 0.0001 19.8826 -0.0001 0.0003
# 5 0.0000 0.0000 -0.0001 -0.0001 30.8520 -0.0002
# 6 -0.0001 0.0001 0.0005 0.0003 -0.0002 -143.4278
#
#
#
# Elastic Compliance Matrix: (Units=1/GPa)
#
#
# Indices 1 2 3 4 5 6 
#
# 1 0.038899 0.017111 0.003304 0.000000 0.000000 0.000000
# 2 0.017111 0.030279 0.000861 0.000000 0.000000 0.000000
# 3 0.003304 0.000861 0.007477 0.000000 0.000000 0.000000
# 4 0.000000 0.000000 0.000000 0.050295 0.000000 0.000000
# 5 0.000000 0.000000 0.000000 0.000000 0.032413 0.000000
# 6 0.000000 0.000000 0.000000 0.000000 0.000000 -0.006972
#
#
# Mechanical properties :
#
#
# Convention : Reuss Voigt Hill
#
# Bulk Modulus (GPa) = 8.38881 17.76058 13.07469
# Shear Modulus (GPa) = 33.42797 -1.98634 15.72081
#
# Velocity S-wave (km/s) = 3.73752 -0.91108 2.56311
# Velocity P-wave (km/s) = 4.70436 2.51300 3.77135
#
# Compressibility (1/GPa) = 0.11920643
#
# Stress axis : x y z
#
# Youngs Moduli (GPa) = 25.70765 33.02587 133.74289
#
# Poissons Ratio (x) = -0.56509 -0.44184
# Poissons Ratio (y) = -0.43987 -0.11521
# Poissons Ratio (z) = -0.08493 -0.02845
#
# Static dielectric constant tensor:
#      x y z
#    x 2.072270 0.000000 0.000000 
#    y 0.000000 1.976980 0.000000 
#    z 0.000000 0.000000 1.914540 
# 
# From -- ./inp_files/17200.got.cif
#   From: 2010.05.17/outbox.cif.g08.bks.cpg/sg73_9_cif.got.tgz:17200.got - 2010.06.03 17:35:07.
