data_PCOD9531306
_publ_section_title
;
Structure prediction by ZEFSAII (Michael W. Deem and Ramdas Pophale) SiO2 
 PCOD9531306
Probable space group: I B C A 
;
_chemical_formula_sum "Si O2"
_cell_formula_units_Z 88
_cell_length_a 27.294445
_cell_length_b 8.571907
_cell_length_c 16.703919
_cell_angle_alpha 90.000000
_cell_angle_beta 90.000000
_cell_angle_gamma 90.000000
_cell_volume 3908.139828
_symmetry_space_group_name_H-M "I B C A "
_symmetry_group_IT_number 73
_symmetry_cell_setting 'orthorhombic'
loop_
_space_group_symop_operation_xyz
x,y,z
-x,1/2-y,z
x,-y,1/2-z
1/2-x,y,-z
-x,-y,-z
x,1/2+y,-z
-x,y,1/2+z
1/2+x,-y,z
1/2+x,1/2+y,1/2+z
1/2-x,-y,1/2+z
1/2+x,1/2-y,-z
-x,1/2+y,1/2-z
1/2-x,1/2-y,1/2-z
1/2+x,y,1/2-z
1/2-x,1/2+y,z
x,1/2-y,1/2+z
loop_
_atom_site_type_symbol
_atom_site_label
_atom_site_fract_x
_atom_site_fract_y
_atom_site_fract_z
Si Si1 0.846888 0.500000 0.750000
Si Si2 0.714534 0.419271 0.567861
Si Si3 0.756331 0.847598 0.170522
Si Si4 0.513378 0.067413 0.087680
Si Si5 0.606187 0.295097 0.545869
Si Si6 0.917120 0.554701 0.883661
O O1 0.809247 0.424083 0.813481
O O2 0.883389 0.595069 0.807775
O O3 0.750000 0.487886 0.500000
O O4 0.743533 0.269715 0.597921
O O5 0.715340 0.529359 0.645985
O O6 0.661121 0.360828 0.545370
O O7 0.750000 0.750000 0.250000
O O8 0.500000 0.250000 0.089884
O O9 0.571735 0.083557 0.095881
O O10 0.474064 0.973196 0.140232
O O11 0.500000 0.000000 0.000000
O O12 0.587868 0.317921 0.454179
O O13 0.600017 0.117277 0.579225
#
# Coordination Sequence:
#
# PCOD9531306 Si02
#       6
#     8  16  16  16  16  16
#     4  12  22  40  60  88 122 168 202 244 322 370
#     4  12  25  40  63  94 123 159 215 259 299 369
#     4  12  25  43  61  85 127 168 200 250 315 375
#     4   8  16  34  58  87 117 150 195 250 302 363
#     4  10  21  37  64  92 119 161 206 259 308 362
#     4  10  21  37  65  90 121 160 207 256 312 376
#
# _framework density 22.517106999999999
#
# number of rings (size 3 to 8) (size 9 to 14) (size 15 to 20)
#    0.000    1.455    3.636    1.636    2.545    0.000 
#    0.000    0.000    4.000   30.545    0.000    0.000 
#    0.000    0.000    0.000    0.000    0.000    0.000 
#
# Total GULP energy -244978.903421 kJ/mol
# GULP energy per Si atom -5567.702350 kJ/mol
# Density = 2.246586 g / cm^3
# Si number density = 22.517107 Si / 1000 Ang^3
#
#
#
# Elastic Constant Matrix: (Units=GPa)
#
#
# Indices 1 2 3 4 5 6 
#
# 1 64.7427 -6.3517 -8.7298 0.0000 0.0000 0.0000
# 2 -6.3517 46.4620 4.6244 0.0000 0.0000 0.0000
# 3 -8.7298 4.6244 49.8544 0.0000 0.0000 0.0000
# 4 0.0000 0.0000 0.0000 35.0648 0.0000 0.0000
# 5 0.0000 0.0000 0.0000 0.0000 30.9334 0.0000
# 6 0.0000 0.0000 0.0000 0.0000 0.0000 -27.3590
#
#
#
# Elastic Compliance Matrix: (Units=1/GPa)
#
#
# Indices 1 2 3 4 5 6 
#
# 1 0.015988 0.001925 0.002621 0.000000 0.000000 0.000000
# 2 0.001925 0.021955 -0.001699 0.000000 0.000000 0.000000
# 3 0.002621 -0.001699 0.020675 0.000000 0.000000 0.000000
# 4 0.000000 0.000000 0.000000 0.028519 0.000000 0.000000
# 5 0.000000 0.000000 0.000000 0.000000 0.032328 0.000000
# 6 0.000000 0.000000 0.000000 0.000000 0.000000 -0.036551
#
#
# Mechanical properties :
#
#
# Convention : Reuss Voigt Hill
#
# Bulk Modulus (GPa) = 15.54943 15.57165 15.56054
# Shear Modulus (GPa) = 50.68029 19.16225 34.92127
#
# Velocity S-wave (km/s) = 4.74935 2.92037 3.94239
# Velocity P-wave (km/s) = 6.08241 4.27807 5.25821
#
# Compressibility (1/GPa) = 0.06431105
#
# Stress axis : x y z
#
# Youngs Moduli (GPa) = 62.54683 45.54718 48.36752
#
# Poissons Ratio (x) = -0.08767 -0.12677
# Poissons Ratio (y) = -0.12039 0.08220
# Poissons Ratio (z) = -0.16394 0.07741
#
# Static dielectric constant tensor:
#      x y z
#    x 1.975320 0.000000 0.000000 
#    y 0.000000 1.897000 0.000000 
#    z 0.000000 0.000000 1.920270 
# 
# From -- ./inp_files/24107.got.cif
#   From: 2010.05.17/outbox.cif.g08.bks.cpg/sg73_13_cif.got.tgz:24107.got - 2010.06.03 17:35:07.
