data_PCOD9531614
_publ_section_title
;
Structure prediction by ZEFSAII (Michael W. Deem and Ramdas Pophale) SiO2 
 PCOD9531614
Probable space group: I B C A 
;
_chemical_formula_sum "Si O2"
_cell_formula_units_Z 80
_cell_length_a 13.683104
_cell_length_b 17.206820
_cell_length_c 14.270906
_cell_angle_alpha 90.000000
_cell_angle_beta 90.000000
_cell_angle_gamma 90.000000
_cell_volume 3359.980748
_symmetry_space_group_name_H-M "I B C A "
_symmetry_group_IT_number 73
_symmetry_cell_setting 'orthorhombic'
loop_
_space_group_symop_operation_xyz
x,y,z
-x,1/2-y,z
x,-y,1/2-z
1/2-x,y,-z
-x,-y,-z
x,1/2+y,-z
-x,y,1/2+z
1/2+x,-y,z
1/2+x,1/2+y,1/2+z
1/2-x,-y,1/2+z
1/2+x,1/2-y,-z
-x,1/2+y,1/2-z
1/2-x,1/2-y,1/2-z
1/2+x,y,1/2-z
1/2-x,1/2+y,z
x,1/2-y,1/2+z
loop_
_atom_site_type_symbol
_atom_site_label
_atom_site_fract_x
_atom_site_fract_y
_atom_site_fract_z
Si Si1 0.561850 0.955834 0.845140
Si Si2 0.618244 0.216391 0.659284
Si Si3 0.941523 0.571031 0.451766
Si Si4 0.862302 0.667951 0.985919
Si Si5 0.655581 0.794609 0.163971
O O1 0.559540 0.863504 0.829468
O O2 0.598481 0.000000 0.750000
O O3 0.464983 0.003972 0.875814
O O4 0.610390 0.955022 0.951038
O O5 0.615169 0.263841 0.562020
O O6 0.604135 0.281442 0.737933
O O7 0.730074 0.190285 0.674417
O O8 0.885371 0.637921 0.399409
O O9 0.046849 0.609412 0.480703
O O10 0.750000 0.638465 0.000000
O O11 0.858591 0.712874 0.887975
#
# Coordination Sequence:
#
# PCOD9531614 Si02
#       5
#    16  16  16  16  16
#     4  11  25  43  62  98 141 177 221 277 357 421
#     4  10  22  42  72  98 131 179 228 292 344 414
#     4  11  24  43  65 100 138 181 223 286 354 418
#     4  10  21  41  66  99 130 175 237 287 346 410
#     4  10  21  41  72 100 129 174 237 286 345 410
#
# _framework density 23.809660000000001
#
# number of rings (size 3 to 8) (size 9 to 14) (size 15 to 20)
#    0.000    1.600    2.000    1.800    2.800    0.000 
#    7.200    1.000    0.000    0.000    0.000    0.000 
#    0.000    0.000    0.000    0.000    0.000    0.000 
#
# Total GULP energy -222977.213361 kJ/mol
# GULP energy per Si atom -5574.430334 kJ/mol
# Density = 2.375547 g / cm^3
# Si number density = 23.809660 Si / 1000 Ang^3
#
#
#
# Elastic Constant Matrix: (Units=GPa)
#
#
# Indices 1 2 3 4 5 6 
#
# 1 95.0229 56.5915 34.9833 0.0000 0.0000 0.0000
# 2 56.5915 97.2490 57.4431 0.0000 0.0000 0.0000
# 3 34.9833 57.4431 146.2997 0.0000 0.0000 0.0000
# 4 0.0000 0.0000 0.0000 50.8026 0.0000 0.0000
# 5 0.0000 0.0000 0.0000 0.0000 18.3059 0.0000
# 6 0.0000 0.0000 0.0000 0.0000 0.0000 6.6055
#
#
#
# Elastic Compliance Matrix: (Units=1/GPa)
#
#
# Indices 1 2 3 4 5 6 
#
# 1 0.016111 -0.009244 -0.000223 0.000000 0.000000 0.000000
# 2 -0.009244 0.018691 -0.005129 0.000000 0.000000 0.000000
# 3 -0.000223 -0.005129 0.008902 0.000000 0.000000 0.000000
# 4 0.000000 0.000000 0.000000 0.019684 0.000000 0.000000
# 5 0.000000 0.000000 0.000000 0.000000 0.054627 0.000000
# 6 0.000000 0.000000 0.000000 0.000000 0.000000 0.151390
#
#
# Mechanical properties :
#
#
# Convention : Reuss Voigt Hill
#
# Bulk Modulus (GPa) = 68.89872 70.73416 69.81644
# Shear Modulus (GPa) = 16.47803 27.77973 22.12888
#
# Velocity S-wave (km/s) = 2.63358 3.41947 3.05193
# Velocity P-wave (km/s) = 6.18448 6.73521 6.46571
#
# Compressibility (1/GPa) = 0.01451406
#
# Stress axis : x y z
#
# Youngs Moduli (GPa) = 62.06948 53.50079 112.33025
#
# Poissons Ratio (x) = 0.49454 0.02506
# Poissons Ratio (y) = 0.57374 0.57610
# Poissons Ratio (z) = 0.01385 0.27438
#
# Static dielectric constant tensor:
#      x y z
#    x 1.995390 0.000000 0.000000 
#    y 0.000000 1.925260 0.000000 
#    z 0.000000 0.000000 1.954120 
# 
# From -- ./inp_files/17857.got.cif
#   From: 2010.05.17/outbox.cif.g08.bks.cpg/sg73_9_cif.got.tgz:17857.got - 2010.06.03 17:35:07.
