data_PCOD9531869
_publ_section_title
;
Structure prediction by ZEFSAII (Michael W. Deem and Ramdas Pophale) SiO2 
 PCOD9531869
Probable space group: I B C A 
;
_chemical_formula_sum "Si O2"
_cell_formula_units_Z 96
_cell_length_a 20.481313
_cell_length_b 18.806845
_cell_length_c 10.005598
_cell_angle_alpha 90.000000
_cell_angle_beta 90.000000
_cell_angle_gamma 90.000000
_cell_volume 3854.045077
_symmetry_space_group_name_H-M "I B C A "
_symmetry_group_IT_number 73
_symmetry_cell_setting 'orthorhombic'
loop_
_space_group_symop_operation_xyz
x,y,z
-x,1/2-y,z
x,-y,1/2-z
1/2-x,y,-z
-x,-y,-z
x,1/2+y,-z
-x,y,1/2+z
1/2+x,-y,z
1/2+x,1/2+y,1/2+z
1/2-x,-y,1/2+z
1/2+x,1/2-y,-z
-x,1/2+y,1/2-z
1/2-x,1/2-y,1/2-z
1/2+x,y,1/2-z
1/2-x,1/2+y,z
x,1/2-y,1/2+z
loop_
_atom_site_type_symbol
_atom_site_label
_atom_site_fract_x
_atom_site_fract_y
_atom_site_fract_z
Si Si1 0.566274 0.934228 0.613512
Si Si2 0.620248 0.320057 0.912048
Si Si3 0.526434 0.598268 0.390666
Si Si4 0.254317 0.000000 0.750000
Si Si5 0.750000 0.899608 0.000000
Si Si6 0.810973 0.861670 0.670917
Si Si7 0.828847 0.671671 0.869507
O O1 0.540675 0.906625 0.471860
O O2 0.521990 0.898159 0.730442
O O3 0.636455 0.904048 0.654153
O O4 0.560014 0.019160 0.601798
O O5 0.689077 0.348097 0.971512
O O6 0.627656 0.357428 0.768317
O O7 0.623599 0.238875 0.858914
O O8 0.568625 0.344570 0.024071
O O9 0.230396 0.050566 0.873027
O O10 0.295890 0.055557 0.662823
O O11 0.739721 0.826442 0.707821
O O12 0.819934 0.828328 0.528011
#
# Coordination Sequence:
#
# PCOD9531869 Si02
#       7
#    16  16  16   8   8  16  16
#     4  10  25  46  74  96 134 169 236 284 335 402
#     4  11  25  40  67  97 140 178 218 273 342 405
#     4  10  25  47  71 103 125 179 224 290 339 389
#     4  10  22  38  60  96 126 180 214 270 312 388
#     4  10  22  38  62  96 138 170 218 272 320 402
#     4  10  24  39  63  99 142 177 220 267 348 402
#     4  11  24  42  66  97 138 184 219 276 334 416
#
# _framework density 24.908894
#
# number of rings (size 3 to 8) (size 9 to 14) (size 15 to 20)
#    0.000    1.667    0.000    2.500   16.333    0.667 
#    0.000    1.667    0.000    0.000    0.000    0.000 
#    0.000    0.000    0.000    0.000    0.000    0.000 
#
# Total GULP energy -267205.409412 kJ/mol
# GULP energy per Si atom -5566.779363 kJ/mol
# Density = 2.485220 g / cm^3
# Si number density = 24.908894 Si / 1000 Ang^3
#
#
#
# Elastic Constant Matrix: (Units=GPa)
#
#
# Indices 1 2 3 4 5 6 
#
# 1 46.6415 7.2348 -0.4809 0.0000 0.0000 0.0000
# 2 7.2348 83.8120 -7.1230 0.0000 0.0000 0.0000
# 3 -0.4809 -7.1230 102.1947 0.0000 0.0000 0.0000
# 4 0.0000 0.0000 0.0000 28.6753 0.0000 0.0000
# 5 0.0000 0.0000 0.0000 0.0000 29.2202 0.0000
# 6 0.0000 0.0000 0.0000 0.0000 0.0000 -12.3952
#
#
#
# Elastic Compliance Matrix: (Units=1/GPa)
#
#
# Indices 1 2 3 4 5 6 
#
# 1 0.021731 -0.001878 -0.000029 0.000000 0.000000 0.000000
# 2 -0.001878 0.012165 0.000839 0.000000 0.000000 0.000000
# 3 -0.000029 0.000839 0.009844 0.000000 0.000000 0.000000
# 4 0.000000 0.000000 0.000000 0.034873 0.000000 0.000000
# 5 0.000000 0.000000 0.000000 0.000000 0.034223 0.000000
# 6 0.000000 0.000000 0.000000 0.000000 0.000000 -0.080676
#
#
# Mechanical properties :
#
#
# Convention : Reuss Voigt Hill
#
# Bulk Modulus (GPa) = 24.03620 25.76777 24.90199
# Shear Modulus (GPa) = 103.81378 24.63455 64.22417
#
# Velocity S-wave (km/s) = 6.46281 3.14823 5.08327
# Velocity P-wave (km/s) = 8.08462 4.85617 6.66871
#
# Compressibility (1/GPa) = 0.04160391
#
# Stress axis : x y z
#
# Youngs Moduli (GPa) = 46.01676 82.20367 101.58898
#
# Poissons Ratio (x) = 0.15440 0.00291
# Poissons Ratio (y) = 0.08643 -0.08524
# Poissons Ratio (z) = 0.00132 -0.06897
#
# Static dielectric constant tensor:
#      x y z
#    x 2.007960 0.000000 0.000000 
#    y 0.000000 1.982160 0.000000 
#    z 0.000000 0.000000 1.993820 
# 
# From -- ./inp_files/13680.got.cif
#   From: 2010.05.17/outbox.cif.g08.bks.cpg/sg73_7_cif.got.tgz:13680.got - 2010.06.03 17:35:07.
