data_PCOD9531248
_publ_section_title
;
Structure prediction by ZEFSAII (Michael W. Deem and Ramdas Pophale) SiO2 
 PCOD9531248
Probable space group: I B C A 
;
_chemical_formula_sum "Si O2"
_cell_formula_units_Z 72
_cell_length_a 8.759276
_cell_length_b 18.055349
_cell_length_c 19.852846
_cell_angle_alpha 90.000000
_cell_angle_beta 90.000000
_cell_angle_gamma 90.000000
_cell_volume 3139.763036
_symmetry_space_group_name_H-M "I B C A "
_symmetry_group_IT_number 73
_symmetry_cell_setting 'orthorhombic'
loop_
_space_group_symop_operation_xyz
x,y,z
-x,1/2-y,z
x,-y,1/2-z
1/2-x,y,-z
-x,-y,-z
x,1/2+y,-z
-x,y,1/2+z
1/2+x,-y,z
1/2+x,1/2+y,1/2+z
1/2-x,-y,1/2+z
1/2+x,1/2-y,-z
-x,1/2+y,1/2-z
1/2-x,1/2-y,1/2-z
1/2+x,y,1/2-z
1/2-x,1/2+y,z
x,1/2-y,1/2+z
loop_
_atom_site_type_symbol
_atom_site_label
_atom_site_fract_x
_atom_site_fract_y
_atom_site_fract_z
Si Si1 0.993960 0.522248 0.326313
Si Si2 0.786911 0.657491 0.805199
Si Si3 0.696672 0.380075 0.931099
Si Si4 0.062639 0.355207 0.337450
Si Si5 0.000000 0.750000 0.902141
O O1 0.439838 0.500000 0.250000
O O2 0.874473 0.565677 0.373761
O O3 0.140804 0.576344 0.321547
O O4 0.042526 0.442874 0.352788
O O5 0.832827 0.663681 0.727061
O O6 0.608392 0.667954 0.819057
O O7 0.877961 0.713777 0.851642
O O8 0.839416 0.333419 0.901537
O O9 0.568966 0.317725 0.943718
O O10 0.750000 0.417879 0.000000
#
# Coordination Sequence:
#
# PCOD9531248 Si02
#       5
#    16  16  16  16   8
#     4   9  19  40  65  95 129 163 212 272 330 394
#     4  10  21  36  63  92 120 162 214 277 330 384
#     4  11  25  42  64  94 133 180 221 268 331 398
#     4  11  21  37  63  93 123 160 212 273 337 392
#     4  10  24  44  58  86 130 170 226 276 324 394
#
# _framework density 22.931666
#
# number of rings (size 3 to 8) (size 9 to 14) (size 15 to 20)
#    0.000    1.778    0.000    5.333    0.000   12.444 
#    0.000    3.333    0.000    0.000    0.000    0.000 
#    0.000    0.000    0.000    0.000    0.000    0.000 
#
# Total GULP energy -201018.943255 kJ/mol
# GULP energy per Si atom -5583.859535 kJ/mol
# Density = 2.287947 g / cm^3
# Si number density = 22.931666 Si / 1000 Ang^3
#
#
#
# Elastic Constant Matrix: (Units=GPa)
#
#
# Indices 1 2 3 4 5 6 
#
# 1 146.2866 4.4732 47.1645 0.0000 0.0000 0.0000
# 2 4.4732 84.6824 4.9878 0.0000 0.0000 0.0000
# 3 47.1645 4.9878 93.3695 0.0000 0.0000 0.0000
# 4 0.0000 0.0000 0.0000 19.2749 0.0000 0.0000
# 5 0.0000 0.0000 0.0000 0.0000 21.4020 0.0000
# 6 0.0000 0.0000 0.0000 0.0000 0.0000 26.7891
#
#
#
# Elastic Compliance Matrix: (Units=1/GPa)
#
#
# Indices 1 2 3 4 5 6 
#
# 1 0.008169 -0.000189 -0.004116 0.000000 0.000000 0.000000
# 2 -0.000189 0.011850 -0.000538 0.000000 0.000000 0.000000
# 3 -0.004116 -0.000538 0.012818 0.000000 0.000000 0.000000
# 4 0.000000 0.000000 0.000000 0.051881 0.000000 0.000000
# 5 0.000000 0.000000 0.000000 0.000000 0.046725 0.000000
# 6 0.000000 0.000000 0.000000 0.000000 0.000000 0.037329
#
#
# Mechanical properties :
#
#
# Convention : Reuss Voigt Hill
#
# Bulk Modulus (GPa) = 43.19345 48.62105 45.90725
# Shear Modulus (GPa) = 26.85653 31.34074 29.09864
#
# Velocity S-wave (km/s) = 3.42593 3.70090 3.56607
# Velocity P-wave (km/s) = 5.87588 6.28577 6.08427
#
# Compressibility (1/GPa) = 0.02315166
#
# Stress axis : x y z
#
# Youngs Moduli (GPa) = 122.41685 84.38477 78.01449
#
# Poissons Ratio (x) = 0.01595 0.32113
# Poissons Ratio (y) = 0.02314 0.04194
# Poissons Ratio (z) = 0.50390 0.04536
#
# Static dielectric constant tensor:
#      x y z
#    x 1.905770 0.000000 0.000000 
#    y 0.000000 1.938340 0.000000 
#    z 0.000000 0.000000 1.830970 
# 
# From -- ./inp_files/5364.got.cif
#   From: 2010.05.17/outbox.cif.g08.bks.cpg/sg73_3_cif.got.tgz:5364.got - 2010.06.03 17:35:07.
