data_PCOD9531303
_publ_section_title
;
Structure prediction by ZEFSAII (Michael W. Deem and Ramdas Pophale) SiO2 
 PCOD9531303
Probable space group: I B C A 
;
_chemical_formula_sum "Si O2"
_cell_formula_units_Z 56
_cell_length_a 21.081005
_cell_length_b 17.889865
_cell_length_c 5.501822
_cell_angle_alpha 90.000000
_cell_angle_beta 90.000000
_cell_angle_gamma 90.000000
_cell_volume 2074.936977
_symmetry_space_group_name_H-M "I B C A "
_symmetry_group_IT_number 73
_symmetry_cell_setting 'orthorhombic'
loop_
_space_group_symop_operation_xyz
x,y,z
-x,1/2-y,z
x,-y,1/2-z
1/2-x,y,-z
-x,-y,-z
x,1/2+y,-z
-x,y,1/2+z
1/2+x,-y,z
1/2+x,1/2+y,1/2+z
1/2-x,-y,1/2+z
1/2+x,1/2-y,-z
-x,1/2+y,1/2-z
1/2-x,1/2-y,1/2-z
1/2+x,y,1/2-z
1/2-x,1/2+y,z
x,1/2-y,1/2+z
loop_
_atom_site_type_symbol
_atom_site_label
_atom_site_fract_x
_atom_site_fract_y
_atom_site_fract_z
Si Si1 0.472284 0.588667 0.306611
Si Si2 0.250000 0.684979 0.500000
Si Si3 0.167203 0.414055 0.707737
Si Si4 0.379933 0.221585 0.018844
O O1 0.485612 0.500000 0.250000
O O2 0.508820 0.619979 0.540525
O O3 0.397531 0.592828 0.367739
O O4 0.229332 0.629776 0.712833
O O5 0.312595 0.734356 0.524114
O O6 0.182857 0.500000 0.750000
O O7 0.140305 0.366195 0.478583
O O8 0.411240 0.246288 0.761774
#
# Coordination Sequence:
#
# PCOD9531303 Si02
#       4
#    16   8  16  16
#     4   9  19  37  59  85 119 158 200 252 311 358
#     4  10  22  38  60  90 130 172 198 244 320 380
#     4  10  21  37  63  96 124 159 211 262 300 362
#     4  10  21  39  59  82 120 167 198 234 306 373
#
# _framework density 26.988768
#
# number of rings (size 3 to 8) (size 9 to 14) (size 15 to 20)
#    0.000    2.286    0.000    3.429    0.000    8.000 
#    0.000   14.286    0.000   20.571    0.000    0.000 
#    0.000    0.000    0.000    0.000    0.000    0.286 
#
# Total GULP energy -155932.735892 kJ/mol
# GULP energy per Si atom -5569.026282 kJ/mol
# Density = 2.692734 g / cm^3
# Si number density = 26.988768 Si / 1000 Ang^3
#
#
#
# Elastic Constant Matrix: (Units=GPa)
#
#
# Indices 1 2 3 4 5 6 
#
# 1 99.2393 -12.0390 26.1540 0.0000 0.0000 0.0000
# 2 -12.0390 169.8965 25.4943 0.0000 0.0000 0.0000
# 3 26.1540 25.4943 182.7393 0.0000 0.0000 0.0000
# 4 0.0000 0.0000 0.0000 16.1481 0.0000 0.0000
# 5 0.0000 0.0000 0.0000 0.0000 32.3177 0.0000
# 6 0.0000 0.0000 0.0000 0.0000 0.0000 28.0005
#
#
#
# Elastic Compliance Matrix: (Units=1/GPa)
#
#
# Indices 1 2 3 4 5 6 
#
# 1 0.010636 0.001003 -0.001662 0.000000 0.000000 0.000000
# 2 0.001003 0.006106 -0.000995 0.000000 0.000000 0.000000
# 3 -0.001662 -0.000995 0.005849 0.000000 0.000000 0.000000
# 4 0.000000 0.000000 0.000000 0.061927 0.000000 0.000000
# 5 0.000000 0.000000 0.000000 0.000000 0.030943 0.000000
# 6 0.000000 0.000000 0.000000 0.000000 0.000000 0.035714
#
#
# Mechanical properties :
#
#
# Convention : Reuss Voigt Hill
#
# Bulk Modulus (GPa) = 51.86000 59.01041 55.43521
# Shear Modulus (GPa) = 31.07293 42.77765 36.92529
#
# Velocity S-wave (km/s) = 3.39680 3.98555 3.70289
# Velocity P-wave (km/s) = 5.88570 6.56443 6.23431
#
# Compressibility (1/GPa) = 0.01928268
#
# Stress axis : x y z
#
# Youngs Moduli (GPa) = 94.01654 163.76263 170.96752
#
# Poissons Ratio (x) = -0.16428 0.28419
# Poissons Ratio (y) = -0.09431 0.17020
# Poissons Ratio (z) = 0.15628 0.16302
#
# Static dielectric constant tensor:
#      x y z
#    x 2.132130 0.000000 0.000000 
#    y 0.000000 2.253380 0.000000 
#    z 0.000000 0.000000 2.383630 
# 
# From -- ./inp_files/1444.got.cif
#   From: 2010.05.17/outbox.cif.g08.bks.cpg/sg73_1_cif.got.tgz:1444.got - 2010.06.03 17:35:07.
