data_PCOD9531745
_publ_section_title
;
Structure prediction by ZEFSAII (Michael W. Deem and Ramdas Pophale) SiO2 
 PCOD9531745
Probable space group: I B C A 
;
_chemical_formula_sum "Si O2"
_cell_formula_units_Z 104
_cell_length_a 29.077791
_cell_length_b 8.255945
_cell_length_c 20.790131
_cell_angle_alpha 90.000000
_cell_angle_beta 90.000000
_cell_angle_gamma 90.000000
_cell_volume 4990.975381
_symmetry_space_group_name_H-M "I B C A "
_symmetry_group_IT_number 73
_symmetry_cell_setting 'orthorhombic'
loop_
_space_group_symop_operation_xyz
x,y,z
-x,1/2-y,z
x,-y,1/2-z
1/2-x,y,-z
-x,-y,-z
x,1/2+y,-z
-x,y,1/2+z
1/2+x,-y,z
1/2+x,1/2+y,1/2+z
1/2-x,-y,1/2+z
1/2+x,1/2-y,-z
-x,1/2+y,1/2-z
1/2-x,1/2-y,1/2-z
1/2+x,y,1/2-z
1/2-x,1/2+y,z
x,1/2-y,1/2+z
loop_
_atom_site_type_symbol
_atom_site_label
_atom_site_fract_x
_atom_site_fract_y
_atom_site_fract_z
Si Si1 0.639270 0.095462 0.355238
Si Si2 0.937155 0.159326 0.549097
Si Si3 0.287614 0.847097 0.206411
Si Si4 0.433520 0.000000 0.750000
Si Si5 0.500000 0.750000 0.810887
Si Si6 0.750000 0.343423 0.000000
Si Si7 0.528657 0.520093 0.418799
Si Si8 0.784700 0.594679 0.096707
O O1 0.613680 0.130783 0.423000
O O2 0.672461 0.232075 0.323086
O O3 0.598370 0.058370 0.307400
O O4 0.670108 0.934592 0.362570
O O5 0.949598 0.341053 0.572941
O O6 0.974287 0.025728 0.574006
O O7 0.947850 0.133861 0.473360
O O8 0.250000 0.750000 0.250000
O O9 0.258471 0.906877 0.144700
O O10 0.303390 0.000000 0.250000
O O11 0.465385 0.147825 0.730947
O O12 0.470964 0.623656 0.854331
O O13 0.719050 0.446104 0.952290
O O14 0.781487 0.243350 0.951322
#
# Coordination Sequence:
#
# PCOD9531745 Si02
#       8
#    16  16  16   8   8   8  16  16
#     4  12  25  43  70 108 138 176 256 295 340 432
#     4  10  22  40  71 107 139 178 233 298 345 441
#     4  12  23  44  74  99 142 200 241 293 365 427
#     4  12  30  46  72 102 140 188 242 304 346 440
#     4  12  26  48  74  96 142 196 222 290 378 430
#     4  10  22  42  68  96 140 186 224 274 378 422
#     4  10  21  44  71  99 142 184 225 281 385 422
#     4  11  22  43  68 100 139 190 226 293 362 420
#
# _framework density 20.837610000000002
#
# number of rings (size 3 to 8) (size 9 to 14) (size 15 to 20)
#    0.000    0.923    4.615    2.769    2.154    2.462 
#    0.000    0.000    0.000    0.000    0.000    0.000 
#    0.000    0.000    0.000    0.000    0.000    0.000 
#
# Total GULP energy -290107.802958 kJ/mol
# GULP energy per Si atom -5578.996211 kJ/mol
# Density = 2.079018 g / cm^3
# Si number density = 20.837610 Si / 1000 Ang^3
#
#
#
# Elastic Constant Matrix: (Units=GPa)
#
#
# Indices 1 2 3 4 5 6 
#
# 1 123.7941 36.2286 49.7585 0.0000 0.0000 0.0000
# 2 36.2286 80.1554 29.9103 0.0000 0.0000 0.0000
# 3 49.7585 29.9103 95.0671 0.0000 0.0000 0.0000
# 4 0.0000 0.0000 0.0000 55.9017 0.0000 0.0000
# 5 0.0000 0.0000 0.0000 0.0000 -13.2117 0.0000
# 6 0.0000 0.0000 0.0000 0.0000 0.0000 40.7394
#
#
#
# Elastic Compliance Matrix: (Units=1/GPa)
#
#
# Indices 1 2 3 4 5 6 
#
# 1 0.010897 -0.003169 -0.004707 0.000000 0.000000 0.000000
# 2 -0.003169 0.015057 -0.003079 0.000000 0.000000 0.000000
# 3 -0.004707 -0.003079 0.013951 0.000000 0.000000 0.000000
# 4 0.000000 0.000000 0.000000 0.017889 0.000000 0.000000
# 5 0.000000 0.000000 0.000000 0.000000 -0.075691 0.000000
# 6 0.000000 0.000000 0.000000 0.000000 0.000000 0.024546
#
#
# Mechanical properties :
#
#
# Convention : Reuss Voigt Hill
#
# Bulk Modulus (GPa) = 55.56592 58.97905 57.27249
# Shear Modulus (GPa) = 144.69182 28.89384 86.79283
#
# Velocity S-wave (km/s) = 8.34198 3.72777 6.46084
# Velocity P-wave (km/s) = 10.93201 6.84792 9.12148
#
# Compressibility (1/GPa) = 0.01799664
#
# Stress axis : x y z
#
# Youngs Moduli (GPa) = 91.76731 66.41486 71.67996
#
# Poissons Ratio (x) = 0.21047 0.33737
# Poissons Ratio (y) = 0.29081 0.22067
# Poissons Ratio (z) = 0.43191 0.20446
#
# Static dielectric constant tensor:
#      x y z
#    x 1.785940 0.000000 0.000000 
#    y 0.000000 2.114260 0.000000 
#    z 0.000000 0.000000 1.874890 
# 
# From -- ./inp_files/27637.got.cif
#   From: 2010.05.17/outbox.cif.g08.bks.cpg/sg73_14_cif.got.tgz:27637.got - 2010.06.03 17:35:07.
