data_PCOD9531163
_publ_section_title
;
Structure prediction by ZEFSAII (Michael W. Deem and Ramdas Pophale) SiO2 
 PCOD9531163
Probable space group: I B C A 
;
_chemical_formula_sum "Si O2"
_cell_formula_units_Z 112
_cell_length_a 14.184105
_cell_length_b 26.211185
_cell_length_c 13.635684
_cell_angle_alpha 90.000000
_cell_angle_beta 90.000000
_cell_angle_gamma 90.000000
_cell_volume 5069.504599
_symmetry_space_group_name_H-M "I B C A "
_symmetry_group_IT_number 73
_symmetry_cell_setting 'orthorhombic'
loop_
_space_group_symop_operation_xyz
x,y,z
-x,1/2-y,z
x,-y,1/2-z
1/2-x,y,-z
-x,-y,-z
x,1/2+y,-z
-x,y,1/2+z
1/2+x,-y,z
1/2+x,1/2+y,1/2+z
1/2-x,-y,1/2+z
1/2+x,1/2-y,-z
-x,1/2+y,1/2-z
1/2-x,1/2-y,1/2-z
1/2+x,y,1/2-z
1/2-x,1/2+y,z
x,1/2-y,1/2+z
loop_
_atom_site_type_symbol
_atom_site_label
_atom_site_fract_x
_atom_site_fract_y
_atom_site_fract_z
Si Si1 0.943516 0.802910 0.026441
Si Si2 0.250000 0.366415 0.000000
Si Si3 0.592573 0.146946 0.136491
Si Si4 0.764420 0.000000 0.250000
Si Si5 0.335510 0.682576 0.776698
Si Si6 0.875915 0.710047 0.308227
Si Si7 0.916689 0.054124 0.716504
Si Si8 0.110931 0.414679 0.150356
O O1 0.867524 0.805346 0.112580
O O2 0.000000 0.750000 0.034316
O O3 0.013954 0.848519 0.053525
O O4 0.907405 0.804435 0.916051
O O5 0.309443 0.337603 0.083313
O O6 0.168653 0.398132 0.054159
O O7 0.561872 0.187316 0.220286
O O8 0.597230 0.093170 0.192536
O O9 0.689843 0.963986 0.188828
O O10 0.831463 0.963904 0.312734
O O11 0.223045 0.683126 0.785545
O O12 0.365180 0.729651 0.706556
O O13 0.372585 0.630258 0.730540
O O14 0.997966 0.076525 0.646313
O O15 0.959110 0.000000 0.750000
#
# Coordination Sequence:
#
# PCOD9531163 Si02
#       8
#    16   8  16   8  16  16  16  16
#     4  12  27  40  69 103 144 187 242 286 357 435
#     4  12  26  44  72 108 138 192 240 294 372 442
#     4  12  25  45  69 106 142 190 243 292 365 439
#     4  10  20  46  70 104 134 192 238 298 378 428
#     4  11  24  46  69  99 140 184 242 285 361 423
#     4  11  26  45  69 102 143 191 230 297 350 434
#     4  10  22  42  74  99 139 188 237 299 364 429
#     4  12  23  43  78 101 145 190 235 313 361 431
#
# _framework density 22.092889
#
# number of rings (size 3 to 8) (size 9 to 14) (size 15 to 20)
#    0.429    0.286    6.429    0.429    6.000    0.000 
#    0.000    2.857    9.429    0.000    0.000    0.000 
#    0.000    0.000    0.000    0.000    0.000    0.000 
#
# Total GULP energy -312632.868318 kJ/mol
# GULP energy per Si atom -5582.729791 kJ/mol
# Density = 2.204260 g / cm^3
# Si number density = 22.092889 Si / 1000 Ang^3
#
#
#
# Elastic Constant Matrix: (Units=GPa)
#
#
# Indices 1 2 3 4 5 6 
#
# 1 94.0574 2.6704 42.1892 0.0000 0.0000 0.0000
# 2 2.6704 77.8288 33.7321 -0.0001 0.0000 0.0000
# 3 42.1892 33.7321 143.6992 -0.0003 -0.0001 0.0000
# 4 0.0000 -0.0001 -0.0003 24.6877 0.0000 0.0000
# 5 0.0000 0.0000 -0.0001 0.0000 31.1839 0.0000
# 6 0.0000 0.0000 0.0000 0.0000 0.0000 30.6912
#
#
#
# Elastic Compliance Matrix: (Units=1/GPa)
#
#
# Indices 1 2 3 4 5 6 
#
# 1 0.012357 0.001279 -0.003928 0.000000 0.000000 0.000000
# 2 0.001279 0.014436 -0.003764 0.000000 0.000000 0.000000
# 3 -0.003928 -0.003764 0.008996 0.000000 0.000000 0.000000
# 4 0.000000 0.000000 0.000000 0.040506 0.000000 0.000000
# 5 0.000000 0.000000 0.000000 0.000000 0.032068 0.000000
# 6 0.000000 0.000000 0.000000 0.000000 0.000000 0.032583
#
#
# Mechanical properties :
#
#
# Convention : Reuss Voigt Hill
#
# Bulk Modulus (GPa) = 43.55020 52.52986 48.04003
# Shear Modulus (GPa) = 30.97357 33.11211 32.04284
#
# Velocity S-wave (km/s) = 3.74835 3.87559 3.81250
# Velocity P-wave (km/s) = 6.20392 6.62234 6.41654
#
# Compressibility (1/GPa) = 0.02296201
#
# Stress axis : x y z
#
# Youngs Moduli (GPa) = 80.92257 69.26985 111.16197
#
# Poissons Ratio (x) = -0.08856 0.43667
# Poissons Ratio (y) = -0.10346 0.41843
# Poissons Ratio (z) = 0.31788 0.26074
#
# Static dielectric constant tensor:
#      x y z
#    x 1.899660 0.000000 0.000000 
#    y 0.000000 1.800600 0.000000 
#    z 0.000000 0.000000 1.837070 
# 
# From -- ./inp_files/17422.got.cif
#   From: 2010.05.17/outbox.cif.g08.bks.cpg/sg73_9_cif.got.tgz:17422.got - 2010.06.03 17:35:07.
