data_PCOD9531656
_publ_section_title
;
Structure prediction by ZEFSAII (Michael W. Deem and Ramdas Pophale) SiO2 
 PCOD9531656
Probable space group: I B C A 
;
_chemical_formula_sum "Si O2"
_cell_formula_units_Z 80
_cell_length_a 19.912898
_cell_length_b 13.812800
_cell_length_c 12.742361
_cell_angle_alpha 90.000000
_cell_angle_beta 90.000000
_cell_angle_gamma 90.000000
_cell_volume 3504.823059
_symmetry_space_group_name_H-M "I B C A "
_symmetry_group_IT_number 73
_symmetry_cell_setting 'orthorhombic'
loop_
_space_group_symop_operation_xyz
x,y,z
-x,1/2-y,z
x,-y,1/2-z
1/2-x,y,-z
-x,-y,-z
x,1/2+y,-z
-x,y,1/2+z
1/2+x,-y,z
1/2+x,1/2+y,1/2+z
1/2-x,-y,1/2+z
1/2+x,1/2-y,-z
-x,1/2+y,1/2-z
1/2-x,1/2-y,1/2-z
1/2+x,y,1/2-z
1/2-x,1/2+y,z
x,1/2-y,1/2+z
loop_
_atom_site_type_symbol
_atom_site_label
_atom_site_fract_x
_atom_site_fract_y
_atom_site_fract_z
Si Si1 0.549498 0.113705 0.268255
Si Si2 0.403824 0.889625 0.289565
Si Si3 0.573772 0.798733 0.006144
Si Si4 0.694330 0.386282 0.721566
Si Si5 0.191160 0.783433 0.870553
O O1 0.476397 0.152310 0.242406
O O2 0.563979 0.139102 0.388080
O O3 0.615713 0.138585 0.201635
O O4 0.542678 0.000000 0.250000
O O5 0.402457 0.868687 0.412753
O O6 0.348948 0.832716 0.224887
O O7 0.398575 0.000000 0.250000
O O8 0.500000 0.750000 0.985698
O O9 0.635946 0.728225 0.038051
O O10 0.700688 0.500000 0.750000
O O11 0.711249 0.322643 0.826003
O O12 0.742165 0.349088 0.628305
#
# Coordination Sequence:
#
# PCOD9531656 Si02
#       5
#    16  16  16  16  16
#     4   9  20  40  65  97 136 178 230 287 353 412
#     4  11  24  41  68  99 139 183 231 292 357 423
#     4  11  23  39  66  98 134 175 234 286 353 432
#     4   9  19  38  68  94 138 183 222 283 344 414
#     4  10  21  42  66  98 135 177 229 283 352 410
#
# _framework density 22.825689000000001
#
# number of rings (size 3 to 8) (size 9 to 14) (size 15 to 20)
#    0.000    2.000    2.000    0.600    5.600    3.200 
#    0.000   11.000    0.000    4.800    0.000    0.000 
#    0.000    0.000    0.000    0.000    0.000    0.000 
#
# Total GULP energy -223173.546798 kJ/mol
# GULP energy per Si atom -5579.338670 kJ/mol
# Density = 2.277374 g / cm^3
# Si number density = 22.825689 Si / 1000 Ang^3
#
#
#
# Elastic Constant Matrix: (Units=GPa)
#
#
# Indices 1 2 3 4 5 6 
#
# 1 164.8730 28.0466 48.1742 0.0000 0.0000 0.0000
# 2 28.0466 123.7970 28.6978 0.0000 0.0000 0.0000
# 3 48.1742 28.6978 132.7385 0.0000 0.0000 0.0000
# 4 0.0000 0.0000 0.0000 28.5555 0.0000 0.0000
# 5 0.0000 0.0000 0.0000 0.0000 32.7502 0.0000
# 6 0.0000 0.0000 0.0000 0.0000 0.0000 -16.2890
#
#
#
# Elastic Compliance Matrix: (Units=1/GPa)
#
#
# Indices 1 2 3 4 5 6 
#
# 1 0.006909 -0.001036 -0.002283 0.000000 0.000000 0.000000
# 2 -0.001036 0.008659 -0.001496 0.000000 0.000000 0.000000
# 3 -0.002283 -0.001496 0.008686 0.000000 0.000000 0.000000
# 4 0.000000 0.000000 0.000000 0.035020 0.000000 0.000000
# 5 0.000000 0.000000 0.000000 0.000000 0.030534 0.000000
# 6 0.000000 0.000000 0.000000 0.000000 0.000000 -0.061391
#
#
# Mechanical properties :
#
#
# Convention : Reuss Voigt Hill
#
# Bulk Modulus (GPa) = 68.38605 70.13840 69.26223
# Shear Modulus (GPa) = 116.49212 30.10266 73.29739
#
# Velocity S-wave (km/s) = 7.15167 3.63548 5.67287
# Velocity P-wave (km/s) = 9.91061 6.95822 8.56262
#
# Compressibility (1/GPa) = 0.01462287
#
# Stress axis : x y z
#
# Youngs Moduli (GPa) = 144.74580 115.48342 115.13074
#
# Poissons Ratio (x) = 0.11962 0.26289
# Poissons Ratio (y) = 0.14994 0.17226
# Poissons Ratio (z) = 0.33051 0.17278
#
# Static dielectric constant tensor:
#      x y z
#    x 1.934280 0.000000 0.000000 
#    y 0.000000 1.378750 0.000000 
#    z 0.000000 0.000000 1.829890 
# 
# From -- ./inp_files/13447.got.cif
#   From: 2010.05.17/outbox.cif.g08.bks.cpg/sg73_7_cif.got.tgz:13447.got - 2010.06.03 17:35:07.
