data_PCOD9531271
_publ_section_title
;
Structure prediction by ZEFSAII (Michael W. Deem and Ramdas Pophale) SiO2 
 PCOD9531271
Probable space group: I B C A 
;
_chemical_formula_sum "Si O2"
_cell_formula_units_Z 104
_cell_length_a 8.501287
_cell_length_b 25.362811
_cell_length_c 24.961644
_cell_angle_alpha 90.000000
_cell_angle_beta 90.000000
_cell_angle_gamma 90.000000
_cell_volume 5382.143198
_symmetry_space_group_name_H-M "I B C A "
_symmetry_group_IT_number 73
_symmetry_cell_setting 'orthorhombic'
loop_
_space_group_symop_operation_xyz
x,y,z
-x,1/2-y,z
x,-y,1/2-z
1/2-x,y,-z
-x,-y,-z
x,1/2+y,-z
-x,y,1/2+z
1/2+x,-y,z
1/2+x,1/2+y,1/2+z
1/2-x,-y,1/2+z
1/2+x,1/2-y,-z
-x,1/2+y,1/2-z
1/2-x,1/2-y,1/2-z
1/2+x,y,1/2-z
1/2-x,1/2+y,z
x,1/2-y,1/2+z
loop_
_atom_site_type_symbol
_atom_site_label
_atom_site_fract_x
_atom_site_fract_y
_atom_site_fract_z
Si Si1 0.943710 0.309626 0.819512
Si Si2 0.000000 0.250000 0.519189
Si Si3 0.532706 0.838310 0.597469
Si Si4 0.577906 0.191636 0.288623
Si Si5 0.460032 0.055193 0.058187
Si Si6 0.395282 0.165835 0.570772
Si Si7 0.608882 0.551279 0.566924
O O1 0.762267 0.308650 0.802107
O O2 0.000000 0.250000 0.824108
O O3 0.040558 0.333371 0.769266
O O4 0.988025 0.330318 0.878138
O O5 0.936058 0.205750 0.562192
O O6 0.075109 0.208669 0.476155
O O7 0.500978 0.834255 0.660101
O O8 0.715475 0.826284 0.587512
O O9 0.490841 0.897293 0.580858
O O10 0.500000 0.250000 0.286881
O O11 0.571985 0.105886 0.053586
O O12 0.287965 0.062792 0.084392
O O13 0.545136 0.005500 0.085649
O O14 0.410174 0.045080 0.996911
#
# Coordination Sequence:
#
# PCOD9531271 Si02
#       7
#    16   8  16  16  16  16  16
#     4  11  22  38  59  83 114 153 198 242 290 347
#     4  12  26  36  56  86 130 160 200 232 296 352
#     4  12  24  39  60  86 122 159 196 243 295 350
#     4  11  22  38  59  83 114 153 198 242 290 347
#     4  10  21  37  58  83 115 154 200 243 290 346
#     4  12  24  39  60  86 122 159 196 243 295 350
#     4  10  21  37  58  83 115 154 200 243 290 346
#
# _framework density 19.323157999999999
#
# number of rings (size 3 to 8) (size 9 to 14) (size 15 to 20)
#    0.000    0.923    3.077    6.000    0.000    4.923 
#    0.000    0.000    0.000    0.923    0.000    6.462 
#    0.000    0.000    0.000    0.000    0.000    0.000 
#
# Total GULP energy -289592.773609 kJ/mol
# GULP energy per Si atom -5569.091800 kJ/mol
# Density = 1.927918 g / cm^3
# Si number density = 19.323158 Si / 1000 Ang^3
#
#
#
# Elastic Constant Matrix: (Units=GPa)
#
#
# Indices 1 2 3 4 5 6 
#
# 1 58.5126 8.9044 -0.5447 0.0000 0.0000 0.0000
# 2 8.9044 100.7040 8.9219 0.0000 0.0000 0.0000
# 3 -0.5447 8.9219 76.7125 0.0000 0.0000 0.0000
# 4 0.0000 0.0000 0.0000 16.6312 0.0000 0.0000
# 5 0.0000 0.0000 0.0000 0.0000 24.0759 0.0000
# 6 0.0000 0.0000 0.0000 0.0000 0.0000 16.3301
#
#
#
# Elastic Compliance Matrix: (Units=1/GPa)
#
#
# Indices 1 2 3 4 5 6 
#
# 1 0.017330 -0.001559 0.000304 0.000000 0.000000 0.000000
# 2 -0.001559 0.010174 -0.001194 0.000000 0.000000 0.000000
# 3 0.000304 -0.001194 0.013177 0.000000 0.000000 0.000000
# 4 0.000000 0.000000 0.000000 0.060128 0.000000 0.000000
# 5 0.000000 0.000000 0.000000 0.000000 0.041535 0.000000
# 6 0.000000 0.000000 0.000000 0.000000 0.000000 0.061237
#
#
# Mechanical properties :
#
#
# Convention : Reuss Voigt Hill
#
# Bulk Modulus (GPa) = 27.94663 30.05470 29.00067
# Shear Modulus (GPa) = 22.68532 25.98394 24.33463
#
# Velocity S-wave (km/s) = 3.43008 3.67100 3.55258
# Velocity P-wave (km/s) = 5.49376 5.79274 5.64523
#
# Compressibility (1/GPa) = 0.03578248
#
# Stress axis : x y z
#
# Youngs Moduli (GPa) = 57.70184 98.29185 75.89129
#
# Poissons Ratio (x) = 0.15327 -0.02310
# Poissons Ratio (y) = 0.08998 0.09064
# Poissons Ratio (z) = -0.01756 0.11739
#
# Static dielectric constant tensor:
#      x y z
#    x 1.774110 0.000000 0.000000 
#    y 0.000000 1.716870 0.000000 
#    z 0.000000 0.000000 1.744420 
# 
# From -- ./inp_files/31359.got.cif
#   From: 2010.05.17/outbox.cif.g08.bks.cpg/sg73_16_cif.got.tgz:31359.got - 2010.06.03 17:35:07.
