data_PCOD9531257
_publ_section_title
;
Structure prediction by ZEFSAII (Michael W. Deem and Ramdas Pophale) SiO2 
 PCOD9531257
Probable space group: I B C A 
;
_chemical_formula_sum "Si O2"
_cell_formula_units_Z 64
_cell_length_a 5.097451
_cell_length_b 28.401962
_cell_length_c 19.221587
_cell_angle_alpha 90.000000
_cell_angle_beta 90.000000
_cell_angle_gamma 90.000000
_cell_volume 2782.855419
_symmetry_space_group_name_H-M "I B C A "
_symmetry_group_IT_number 73
_symmetry_cell_setting 'orthorhombic'
loop_
_space_group_symop_operation_xyz
x,y,z
-x,1/2-y,z
x,-y,1/2-z
1/2-x,y,-z
-x,-y,-z
x,1/2+y,-z
-x,y,1/2+z
1/2+x,-y,z
1/2+x,1/2+y,1/2+z
1/2-x,-y,1/2+z
1/2+x,1/2-y,-z
-x,1/2+y,1/2-z
1/2-x,1/2-y,1/2-z
1/2+x,y,1/2-z
1/2-x,1/2+y,z
x,1/2-y,1/2+z
loop_
_atom_site_type_symbol
_atom_site_label
_atom_site_fract_x
_atom_site_fract_y
_atom_site_fract_z
Si Si1 0.713651 0.919177 0.075886
Si Si2 0.718435 0.855809 0.422556
Si Si3 0.035638 0.693575 0.289955
Si Si4 0.383975 0.948085 0.279571
O O1 0.418821 0.900128 0.079207
O O2 0.784527 0.950084 0.142252
O O3 0.922231 0.875732 0.081496
O O4 0.750000 0.941489 0.000000
O O5 0.750000 0.834236 0.500000
O O6 0.828666 0.823354 0.361110
O O7 0.240579 0.678194 0.229508
O O8 0.000000 0.750000 0.291967
O O9 0.663302 0.924125 0.268006
O O10 0.438140 0.000000 0.250000
#
# Coordination Sequence:
#
# PCOD9531257 Si02
#       4
#    16  16  16  16
#     4  10  21  37  57  81 112 146 186 236 286 336
#     4  10  21  37  57  84 113 147 192 235 280 336
#     4  10  21  37  56  82 116 151 187 229 281 336
#     4  10  21  37  55  81 111 141 183 231 280 343
#
# _framework density 22.997959999999999
#
# number of rings (size 3 to 8) (size 9 to 14) (size 15 to 20)
#    0.000    2.000    0.000    3.000    0.000    6.000 
#    0.000   12.500    0.000    0.000    0.000    0.000 
#    0.000    0.000    0.000    0.000    0.000    0.000 
#
# Total GULP energy -178663.342449 kJ/mol
# GULP energy per Si atom -5583.229452 kJ/mol
# Density = 2.294562 g / cm^3
# Si number density = 22.997960 Si / 1000 Ang^3
#
#
#
# Elastic Constant Matrix: (Units=GPa)
#
#
# Indices 1 2 3 4 5 6 
#
# 1 110.0479 -6.0622 12.0250 0.0000 0.0000 0.0000
# 2 -6.0622 49.7243 22.1695 0.0000 0.0000 0.0000
# 3 12.0250 22.1695 181.2409 0.0000 0.0000 0.0000
# 4 0.0000 0.0000 0.0000 16.5478 0.0000 0.0000
# 5 0.0000 0.0000 0.0000 0.0000 35.9732 0.0000
# 6 0.0000 0.0000 0.0000 0.0000 0.0000 15.2700
#
#
#
# Elastic Compliance Matrix: (Units=1/GPa)
#
#
# Indices 1 2 3 4 5 6 
#
# 1 0.009256 0.001483 -0.000796 0.000000 0.000000 0.000000
# 2 0.001483 0.021509 -0.002729 0.000000 0.000000 0.000000
# 3 -0.000796 -0.002729 0.005904 0.000000 0.000000 0.000000
# 4 0.000000 0.000000 0.000000 0.060431 0.000000 0.000000
# 5 0.000000 0.000000 0.000000 0.000000 0.027798 0.000000
# 6 0.000000 0.000000 0.000000 0.000000 0.000000 0.065488
#
#
# Mechanical properties :
#
#
# Convention : Reuss Voigt Hill
#
# Bulk Modulus (GPa) = 30.68917 44.14197 37.41557
# Shear Modulus (GPa) = 24.35097 34.41693 29.38395
#
# Velocity S-wave (km/s) = 3.25750 3.87269 3.57834
# Velocity P-wave (km/s) = 5.24611 6.26358 5.77729
#
# Compressibility (1/GPa) = 0.03258478
#
# Stress axis : x y z
#
# Youngs Moduli (GPa) = 108.04301 46.49305 169.37235
#
# Poissons Ratio (x) = -0.06895 0.13474
# Poissons Ratio (y) = -0.16024 0.46227
# Poissons Ratio (z) = 0.08595 0.12690
#
# Static dielectric constant tensor:
#      x y z
#    x 1.941490 0.000000 0.000000 
#    y 0.000000 2.032060 0.000000 
#    z 0.000000 0.000000 1.900650 
# 
# From -- ./inp_files/1123.got.cif
#   From: 2010.05.17/outbox.cif.g08.bks.cpg/sg73_1_cif.got.tgz:1123.got - 2010.06.03 17:35:07.
