data_PCOD9531140
_publ_section_title
;
Structure prediction by ZEFSAII (Michael W. Deem and Ramdas Pophale) SiO2 
 PCOD9531140
Probable space group: I B C A 
;
_chemical_formula_sum "Si O2"
_cell_formula_units_Z 112
_cell_length_a 12.865619
_cell_length_b 18.384773
_cell_length_c 24.360664
_cell_angle_alpha 90.000000
_cell_angle_beta 90.000000
_cell_angle_gamma 90.000000
_cell_volume 5762.064027
_symmetry_space_group_name_H-M "I B C A "
_symmetry_group_IT_number 73
_symmetry_cell_setting 'orthorhombic'
loop_
_space_group_symop_operation_xyz
x,y,z
-x,1/2-y,z
x,-y,1/2-z
1/2-x,y,-z
-x,-y,-z
x,1/2+y,-z
-x,y,1/2+z
1/2+x,-y,z
1/2+x,1/2+y,1/2+z
1/2-x,-y,1/2+z
1/2+x,1/2-y,-z
-x,1/2+y,1/2-z
1/2-x,1/2-y,1/2-z
1/2+x,y,1/2-z
1/2-x,1/2+y,z
x,1/2-y,1/2+z
loop_
_atom_site_type_symbol
_atom_site_label
_atom_site_fract_x
_atom_site_fract_y
_atom_site_fract_z
Si Si1 0.139438 0.500000 0.750000
Si Si2 0.642619 0.098544 0.657737
Si Si3 0.803583 0.932145 0.332414
Si Si4 0.990887 0.623803 0.761637
Si Si5 0.696229 0.799336 0.596043
Si Si6 0.311703 0.296273 0.294989
Si Si7 0.165456 0.679416 0.042806
Si Si8 0.500000 0.750000 0.029313
O O1 0.208609 0.453377 0.792263
O O2 0.060376 0.554711 0.778610
O O3 0.547645 0.119226 0.698543
O O4 0.743934 0.132693 0.688354
O O5 0.642642 0.134079 0.597621
O O6 0.651114 0.011577 0.653415
O O7 0.776479 0.880334 0.383560
O O8 0.888328 0.885784 0.298114
O O9 0.073329 0.686886 0.773066
O O10 0.683782 0.749758 0.649813
O O11 0.784395 0.757051 0.561457
O O12 0.586648 0.792089 0.564804
O O13 0.250000 0.250000 0.250000
O O14 0.250000 0.646753 0.000000
O O15 0.062411 0.694387 0.008717
#
# Coordination Sequence:
#
# PCOD9531140 Si02
#       8
#     8  16  16  16  16  16  16   8
#     4  12  20  36  54  84 138 168 188 238 290 366
#     4  11  22  38  60  91 125 168 210 256 321 373
#     4  12  22  39  58  95 130 168 207 242 315 395
#     4  12  21  36  59  87 131 169 200 244 304 381
#     4  10  22  39  64  87 119 166 205 256 321 374
#     4  11  23  38  58  91 128 166 209 250 303 383
#     4   9  22  43  64  86 116 159 215 279 323 355
#     4  10  20  44  64  84 114 154 216 278 316 362
#
# _framework density 19.437480000000001
#
# number of rings (size 3 to 8) (size 9 to 14) (size 15 to 20)
#    0.000    1.143    4.286    2.571    0.000    5.143 
#    0.000    2.857    0.000    0.000    0.000    0.000 
#    0.000    0.000    0.000    0.000    0.000    0.000 
#
# Total GULP energy -312515.578279 kJ/mol
# GULP energy per Si atom -5580.635326 kJ/mol
# Density = 1.939324 g / cm^3
# Si number density = 19.437480 Si / 1000 Ang^3
#
#
#
# Elastic Constant Matrix: (Units=GPa)
#
#
# Indices 1 2 3 4 5 6 
#
# 1 93.6544 28.9375 37.1693 0.0000 0.0000 0.0000
# 2 28.9375 86.2698 37.5567 0.0000 0.0000 0.0000
# 3 37.1693 37.5567 118.5694 0.0000 0.0000 0.0000
# 4 0.0000 0.0000 0.0000 34.6802 0.0000 0.0000
# 5 0.0000 0.0000 0.0000 0.0000 30.8731 0.0000
# 6 0.0000 0.0000 0.0000 0.0000 0.0000 33.6469
#
#
#
# Elastic Compliance Matrix: (Units=1/GPa)
#
#
# Indices 1 2 3 4 5 6 
#
# 1 0.012814 -0.002957 -0.003080 0.000000 0.000000 0.000000
# 2 -0.002957 0.014128 -0.003548 0.000000 0.000000 0.000000
# 3 -0.003080 -0.003548 0.010523 0.000000 0.000000 0.000000
# 4 0.000000 0.000000 0.000000 0.028835 0.000000 0.000000
# 5 0.000000 0.000000 0.000000 0.000000 0.032391 0.000000
# 6 0.000000 0.000000 0.000000 0.000000 0.000000 0.029720
#
#
# Mechanical properties :
#
#
# Convention : Reuss Voigt Hill
#
# Bulk Modulus (GPa) = 54.66181 56.20228 55.43204
# Shear Modulus (GPa) = 32.53515 32.82872 32.68193
#
# Velocity S-wave (km/s) = 4.09569 4.11413 4.10492
# Velocity P-wave (km/s) = 7.10979 7.17950 7.14473
#
# Compressibility (1/GPa) = 0.01829431
#
# Stress axis : x y z
#
# Youngs Moduli (GPa) = 78.04134 70.78109 95.02729
#
# Poissons Ratio (x) = 0.20931 0.29270
# Poissons Ratio (y) = 0.23078 0.33716
# Poissons Ratio (z) = 0.24038 0.25113
#
# Static dielectric constant tensor:
#      x y z
#    x 1.706210 0.000000 0.000000 
#    y 0.000000 1.737520 0.000000 
#    z 0.000000 0.000000 1.680920 
# 
# From -- ./inp_files/31898.got.cif
#   From: 2010.05.17/outbox.cif.g08.bks.cpg/sg73_16_cif.got.tgz:31898.got - 2010.06.03 17:35:07.
