data_PCOD9531057
_publ_section_title
;
Structure prediction by ZEFSAII (Michael W. Deem and Ramdas Pophale) SiO2 
 PCOD9531057
Probable space group: I B C A 
;
_chemical_formula_sum "Si O2"
_cell_formula_units_Z 120
_cell_length_a 15.664105
_cell_length_b 19.266180
_cell_length_c 15.512296
_cell_angle_alpha 90.000000
_cell_angle_beta 90.000000
_cell_angle_gamma 90.000000
_cell_volume 4681.416509
_symmetry_space_group_name_H-M "I B C A "
_symmetry_group_IT_number 73
_symmetry_cell_setting 'orthorhombic'
loop_
_space_group_symop_operation_xyz
x,y,z
-x,1/2-y,z
x,-y,1/2-z
1/2-x,y,-z
-x,-y,-z
x,1/2+y,-z
-x,y,1/2+z
1/2+x,-y,z
1/2+x,1/2+y,1/2+z
1/2-x,-y,1/2+z
1/2+x,1/2-y,-z
-x,1/2+y,1/2-z
1/2-x,1/2-y,1/2-z
1/2+x,y,1/2-z
1/2-x,1/2+y,z
x,1/2-y,1/2+z
loop_
_atom_site_type_symbol
_atom_site_label
_atom_site_fract_x
_atom_site_fract_y
_atom_site_fract_z
Si Si1 0.078074 0.660205 0.434051
Si Si2 0.457640 0.611382 0.297977
Si Si3 0.750000 0.105458 0.500000
Si Si4 0.380045 0.770878 0.892708
Si Si5 0.219437 0.685724 0.308477
Si Si6 0.351432 0.112558 0.163066
Si Si7 0.591479 0.971310 0.467408
Si Si8 0.388070 0.886098 0.609710
O O1 0.086709 0.711621 0.513420
O O2 0.126523 0.690078 0.351372
O O3 0.119753 0.585596 0.462209
O O4 0.978882 0.643529 0.419979
O O5 0.440908 0.691132 0.323426
O O6 0.557263 0.589265 0.298729
O O7 0.421815 0.571035 0.379872
O O8 0.406545 0.600990 0.209797
O O9 0.689821 0.075686 0.580334
O O10 0.688911 0.154348 0.437013
O O11 0.290126 0.811786 0.881814
O O12 0.370660 0.690344 0.872094
O O13 0.250000 0.750000 0.250000
O O14 0.213050 0.621210 0.242936
O O15 0.500000 0.000000 0.500000
O O16 0.637915 0.039982 0.433582
#
# Coordination Sequence:
#
# PCOD9531057 Si02
#       8
#    16  16   8  16  16  16  16  16
#     4  10  20  41  68  96 130 181 232 280 354 436
#     4  11  21  42  68  95 133 178 232 294 355 441
#     4  12  26  42  68  94 142 184 230 310 374 438
#     4  10  22  37  62  93 134 175 226 281 343 425
#     4  10  21  37  62  95 136 174 223 281 352 424
#     4  11  23  40  63  94 137 181 226 280 359 439
#     4   9  20  39  70  96 129 175 235 298 351 436
#     4  11  23  44  66  98 130 179 238 296 370 428
#
# _framework density 25.633267
#
# number of rings (size 3 to 8) (size 9 to 14) (size 15 to 20)
#    0.000    1.600    1.333    4.400    3.733    0.000 
#    4.800    0.000    0.000    0.000    0.000    0.000 
#    0.000    0.000    0.000    0.000    0.000    0.000 
#
# Total GULP energy -334930.759940 kJ/mol
# GULP energy per Si atom -5582.179332 kJ/mol
# Density = 2.557492 g / cm^3
# Si number density = 25.633267 Si / 1000 Ang^3
#
#
#
# Elastic Constant Matrix: (Units=GPa)
#
#
# Indices 1 2 3 4 5 6 
#
# 1 128.9193 -0.3234 34.6608 0.0000 0.0000 0.0000
# 2 -0.3234 65.4720 4.9288 0.0000 0.0000 0.0000
# 3 34.6608 4.9288 156.6339 0.0000 0.0000 0.0000
# 4 0.0000 0.0000 0.0000 24.0930 0.0000 0.0000
# 5 0.0000 0.0000 0.0000 0.0000 41.9271 0.0000
# 6 0.0000 0.0000 0.0000 0.0000 0.0000 4.4824
#
#
#
# Elastic Compliance Matrix: (Units=1/GPa)
#
#
# Indices 1 2 3 4 5 6 
#
# 1 0.008250 0.000179 -0.001831 0.000000 0.000000 0.000000
# 2 0.000179 0.015314 -0.000521 0.000000 0.000000 0.000000
# 3 -0.001831 -0.000521 0.006806 0.000000 0.000000 0.000000
# 4 0.000000 0.000000 0.000000 0.041506 0.000000 0.000000
# 5 0.000000 0.000000 0.000000 0.000000 0.023851 0.000000
# 6 0.000000 0.000000 0.000000 0.000000 0.000000 0.223093
#
#
# Mechanical properties :
#
#
# Convention : Reuss Voigt Hill
#
# Bulk Modulus (GPa) = 38.42981 47.72862 43.07922
# Shear Modulus (GPa) = 15.06747 34.88446 24.97596
#
# Velocity S-wave (km/s) = 2.42711 3.69305 3.12486
# Velocity P-wave (km/s) = 4.78322 6.07001 5.46462
#
# Compressibility (1/GPa) = 0.02602146
#
# Stress axis : x y z
#
# Youngs Moduli (GPa) = 121.21876 65.30037 146.93084
#
# Poissons Ratio (x) = -0.01166 0.26905
# Poissons Ratio (y) = -0.02165 0.07661
# Poissons Ratio (z) = 0.22197 0.03405
#
# Static dielectric constant tensor:
#      x y z
#    x 3.049870 0.000000 0.000000 
#    y 0.000000 4.960020 0.000000 
#    z 0.000000 0.000000 2.119600 
# 
# From -- ./inp_files/18284.got.cif
#   From: 2010.05.17/outbox.cif.g08.bks.cpg/sg73_10_cif.got.tgz:18284.got - 2010.06.03 17:35:07.
