data_PCOD9531358
_publ_section_title
;
Structure prediction by ZEFSAII (Michael W. Deem and Ramdas Pophale) SiO2 
 PCOD9531358
Probable space group: I B C A 
;
_chemical_formula_sum "Si O2"
_cell_formula_units_Z 80
_cell_length_a 9.535854
_cell_length_b 13.893599
_cell_length_c 30.593401
_cell_angle_alpha 90.000000
_cell_angle_beta 90.000000
_cell_angle_gamma 90.000000
_cell_volume 4053.238063
_symmetry_space_group_name_H-M "I B C A "
_symmetry_group_IT_number 73
_symmetry_cell_setting 'orthorhombic'
loop_
_space_group_symop_operation_xyz
x,y,z
-x,1/2-y,z
x,-y,1/2-z
1/2-x,y,-z
-x,-y,-z
x,1/2+y,-z
-x,y,1/2+z
1/2+x,-y,z
1/2+x,1/2+y,1/2+z
1/2-x,-y,1/2+z
1/2+x,1/2-y,-z
-x,1/2+y,1/2-z
1/2-x,1/2-y,1/2-z
1/2+x,y,1/2-z
1/2-x,1/2+y,z
x,1/2-y,1/2+z
loop_
_atom_site_type_symbol
_atom_site_label
_atom_site_fract_x
_atom_site_fract_y
_atom_site_fract_z
Si Si1 0.910489 0.071171 0.191675
Si Si2 0.086583 0.548327 0.104364
Si Si3 0.000000 0.250000 0.141207
Si Si4 0.657506 0.500000 0.750000
Si Si5 0.000000 0.750000 0.563274
Si Si6 0.619289 0.101367 0.425514
Si Si7 0.750000 0.279249 0.000000
O O1 0.911072 0.175275 0.169429
O O2 0.930141 0.989751 0.153955
O O3 0.766476 0.052790 0.217539
O O4 0.048292 0.064839 0.222426
O O5 0.034213 0.655597 0.092342
O O6 0.248403 0.543493 0.092024
O O7 0.008536 0.471130 0.074142
O O8 0.906600 0.315409 0.109827
O O9 0.861801 0.770464 0.532863
O O10 0.653114 0.152501 0.470473
#
# Coordination Sequence:
#
# PCOD9531358 Si02
#       7
#    16  16   8   8   8  16   8
#     4  10  21  40  60  85 118 148 191 236 286 352
#     4  10  22  39  60  86 116 159 199 235 290 354
#     4  10  21  38  63  86 116 156 192 234 287 352
#     4  10  22  38  60  86 116 150 182 240 296 334
#     4  10  23  38  59  86 116 158 198 240 293 342
#     4  10  22  38  60  86 117 158 196 242 293 335
#     4  10  22  38  56  88 122 152 200 246 288 338
#
# _framework density 19.737307000000001
#
# number of rings (size 3 to 8) (size 9 to 14) (size 15 to 20)
#    0.000    2.000    0.000    3.000    0.000   16.000 
#    0.000    4.000    0.000    0.000    0.000    0.000 
#    0.000    0.000    0.000    0.000    0.000    0.000 
#
# Total GULP energy -223158.848139 kJ/mol
# GULP energy per Si atom -5578.971203 kJ/mol
# Density = 1.969238 g / cm^3
# Si number density = 19.737307 Si / 1000 Ang^3
#
#
#
# Elastic Constant Matrix: (Units=GPa)
#
#
# Indices 1 2 3 4 5 6 
#
# 1 117.8516 32.4906 15.7429 0.0000 0.0000 0.0000
# 2 32.4906 78.5364 18.9178 0.0000 0.0000 0.0000
# 3 15.7429 18.9178 41.7926 0.0000 0.0000 0.0000
# 4 0.0000 0.0000 0.0000 8.8607 0.0000 0.0000
# 5 0.0000 0.0000 0.0000 0.0000 43.6949 0.0000
# 6 0.0000 0.0000 0.0000 0.0000 0.0000 -83.7769
#
#
#
# Elastic Compliance Matrix: (Units=1/GPa)
#
#
# Indices 1 2 3 4 5 6 
#
# 1 0.009735 -0.003529 -0.002070 0.000000 0.000000 0.000000
# 2 -0.003529 0.015570 -0.005719 0.000000 0.000000 0.000000
# 3 -0.002070 -0.005719 0.027296 0.000000 0.000000 0.000000
# 4 0.000000 0.000000 0.000000 0.112858 0.000000 0.000000
# 5 0.000000 0.000000 0.000000 0.000000 0.022886 0.000000
# 6 0.000000 0.000000 0.000000 0.000000 0.000000 -0.011936
#
#
# Mechanical properties :
#
#
# Convention : Reuss Voigt Hill
#
# Bulk Modulus (GPa) = 33.37049 41.38701 37.37875
# Shear Modulus (GPa) = 23.91987 5.15769 14.53878
#
# Velocity S-wave (km/s) = 3.48503 1.61828 2.71701
# Velocity P-wave (km/s) = 5.75655 4.95038 5.36862
#
# Compressibility (1/GPa) = 0.02996660
#
# Stress axis : x y z
#
# Youngs Moduli (GPa) = 102.72714 64.22482 36.63540
#
# Poissons Ratio (x) = 0.22663 0.07582
# Poissons Ratio (y) = 0.36249 0.20951
# Poissons Ratio (z) = 0.21261 0.36729
#
# Static dielectric constant tensor:
#      x y z
#    x 1.691090 0.000000 0.000000 
#    y 0.000000 1.665040 0.000000 
#    z 0.000000 0.000000 1.725300 
# 
# From -- ./inp_files/14639.got.cif
#   From: 2010.05.17/outbox.cif.g08.bks.cpg/sg73_8_cif.got.tgz:14639.got - 2010.06.03 17:35:07.
