data_PCOD9531817
_publ_section_title
;
Structure prediction by ZEFSAII (Michael W. Deem and Ramdas Pophale) SiO2 
 PCOD9531817
Probable space group: I B C A 
;
_chemical_formula_sum "Si O2"
_cell_formula_units_Z 96
_cell_length_a 23.252563
_cell_length_b 9.926446
_cell_length_c 19.545008
_cell_angle_alpha 90.000000
_cell_angle_beta 90.000000
_cell_angle_gamma 90.000000
_cell_volume 4511.287100
_symmetry_space_group_name_H-M "I B C A "
_symmetry_group_IT_number 73
_symmetry_cell_setting 'orthorhombic'
loop_
_space_group_symop_operation_xyz
x,y,z
-x,1/2-y,z
x,-y,1/2-z
1/2-x,y,-z
-x,-y,-z
x,1/2+y,-z
-x,y,1/2+z
1/2+x,-y,z
1/2+x,1/2+y,1/2+z
1/2-x,-y,1/2+z
1/2+x,1/2-y,-z
-x,1/2+y,1/2-z
1/2-x,1/2-y,1/2-z
1/2+x,y,1/2-z
1/2-x,1/2+y,z
x,1/2-y,1/2+z
loop_
_atom_site_type_symbol
_atom_site_label
_atom_site_fract_x
_atom_site_fract_y
_atom_site_fract_z
Si Si1 0.238075 0.393610 0.082597
Si Si2 0.447992 0.408366 0.189035
Si Si3 0.369632 0.237253 0.461193
Si Si4 0.079618 0.105681 0.804532
Si Si5 0.937416 0.004612 0.962887
Si Si6 0.316301 0.834318 0.401304
O O1 0.287915 0.307996 0.118455
O O2 0.228978 0.545346 0.106271
O O3 0.250000 0.399326 0.000000
O O4 0.178051 0.312394 0.092325
O O5 0.424813 0.500000 0.250000
O O6 0.435263 0.258532 0.215855
O O7 0.515654 0.445879 0.178375
O O8 0.428932 0.423014 0.110720
O O9 0.417118 0.351397 0.447607
O O10 0.332835 0.312214 0.519963
O O11 0.398605 0.099903 0.488559
O O12 0.125762 0.123556 0.863672
O O13 0.103308 0.000000 0.750000
O O14 0.000000 0.000000 0.000000
#
# Coordination Sequence:
#
# PCOD9531817 Si02
#       6
#    16  16  16  16  16  16
#     4  10  22  36  60  89 121 166 213 261 336 407
#     4  10  23  43  65  94 134 177 220 259 331 419
#     4  11  22  38  61  94 136 169 206 268 343 394
#     4  10  22  42  66  87 124 173 219 270 325 391
#     4  12  24  39  64 101 141 171 211 278 336 403
#     4  11  21  39  61  88 125 164 217 274 327 391
#
# _framework density 21.279959999999999
#
# number of rings (size 3 to 8) (size 9 to 14) (size 15 to 20)
#    0.000    1.333    3.333    3.000    4.667    1.333 
#    9.000    0.833    0.000    1.000    0.000    0.000 
#    0.000    0.000    0.000    0.000    0.000    0.000 
#
# Total GULP energy -267429.695724 kJ/mol
# GULP energy per Si atom -5571.451994 kJ/mol
# Density = 2.123153 g / cm^3
# Si number density = 21.279960 Si / 1000 Ang^3
#
#
#
# Elastic Constant Matrix: (Units=GPa)
#
#
# Indices 1 2 3 4 5 6 
#
# 1 46.9913 17.5608 1.3357 0.0000 0.0000 0.0000
# 2 17.5608 96.4088 15.1787 0.0000 0.0000 0.0000
# 3 1.3357 15.1787 35.3714 0.0000 0.0000 0.0000
# 4 0.0000 0.0000 0.0000 24.1406 0.0000 0.0000
# 5 0.0000 0.0000 0.0000 0.0000 12.3212 0.0000
# 6 0.0000 0.0000 0.0000 0.0000 0.0000 38.1850
#
#
#
# Elastic Compliance Matrix: (Units=1/GPa)
#
#
# Indices 1 2 3 4 5 6 
#
# 1 0.022867 -0.004321 0.000991 0.000000 0.000000 0.000000
# 2 -0.004321 0.011941 -0.004961 0.000000 0.000000 0.000000
# 3 0.000991 -0.004961 0.030363 0.000000 0.000000 0.000000
# 4 0.000000 0.000000 0.000000 0.041424 0.000000 0.000000
# 5 0.000000 0.000000 0.000000 0.000000 0.081161 0.000000
# 6 0.000000 0.000000 0.000000 0.000000 0.000000 0.026188
#
#
# Mechanical properties :
#
#
# Convention : Reuss Voigt Hill
#
# Bulk Modulus (GPa) = 20.58114 27.43578 24.00846
# Shear Modulus (GPa) = 20.26569 24.57578 22.42074
#
# Velocity S-wave (km/s) = 3.08934 3.40204 3.24945
# Velocity P-wave (km/s) = 4.73476 5.32471 5.03838
#
# Compressibility (1/GPa) = 0.04858817
#
# Stress axis : x y z
#
# Youngs Moduli (GPa) = 43.73066 83.74745 32.93504
#
# Poissons Ratio (x) = 0.36190 -0.03263
# Poissons Ratio (y) = 0.18897 0.16339
# Poissons Ratio (z) = -0.04333 0.41546
#
# Static dielectric constant tensor:
#      x y z
#    x 1.851520 0.000000 0.000000 
#    y 0.000000 1.841690 0.000000 
#    z 0.000000 0.000000 1.852160 
# 
# From -- ./inp_files/7816.got.cif
#   From: 2010.05.17/outbox.cif.g08.bks.cpg/sg73_4_cif.got.tgz:7816.got - 2010.06.03 17:35:07.
