data_PCOD9531769
_publ_section_title
;
Structure prediction by ZEFSAII (Michael W. Deem and Ramdas Pophale) SiO2 
 PCOD9531769
Probable space group: I B C A 
;
_chemical_formula_sum "Si O2"
_cell_formula_units_Z 104
_cell_length_a 9.419468
_cell_length_b 18.562847
_cell_length_c 26.972357
_cell_angle_alpha 90.000000
_cell_angle_beta 90.000000
_cell_angle_gamma 90.000000
_cell_volume 4716.174431
_symmetry_space_group_name_H-M "I B C A "
_symmetry_group_IT_number 73
_symmetry_cell_setting 'orthorhombic'
loop_
_space_group_symop_operation_xyz
x,y,z
-x,1/2-y,z
x,-y,1/2-z
1/2-x,y,-z
-x,-y,-z
x,1/2+y,-z
-x,y,1/2+z
1/2+x,-y,z
1/2+x,1/2+y,1/2+z
1/2-x,-y,1/2+z
1/2+x,1/2-y,-z
-x,1/2+y,1/2-z
1/2-x,1/2-y,1/2-z
1/2+x,y,1/2-z
1/2-x,1/2+y,z
x,1/2-y,1/2+z
loop_
_atom_site_type_symbol
_atom_site_label
_atom_site_fract_x
_atom_site_fract_y
_atom_site_fract_z
Si Si1 0.120268 0.100152 0.531086
Si Si2 0.131003 0.198655 0.772413
Si Si3 0.990788 0.420577 0.203492
Si Si4 0.726811 0.500000 0.250000
Si Si5 0.628297 0.941261 0.959112
Si Si6 0.060175 0.321000 0.612348
Si Si7 0.125416 0.188752 0.886686
O O1 0.250000 0.132322 0.500000
O O2 0.014025 0.070772 0.489767
O O3 0.038727 0.154048 0.567014
O O4 0.160889 0.023661 0.557241
O O5 0.250000 0.250000 0.750000
O O6 0.077770 0.137426 0.735714
O O7 0.155858 0.174969 0.828666
O O8 0.000000 0.250000 0.778758
O O9 0.112730 0.482701 0.205923
O O10 0.843239 0.441453 0.230901
O O11 0.950085 0.387259 0.150721
O O12 0.602612 0.886929 0.913933
O O13 0.750000 0.922436 0.000000
O O14 0.214967 0.294941 0.594208
O O15 0.000000 0.250000 0.638955
O O16 0.000000 0.250000 0.893598
#
# Coordination Sequence:
#
# PCOD9531769 Si02
#       7
#    16  16  16   8  16  16  16
#     4  10  24  45  71  99 133 182 232 292 357 425
#     4  11  22  41  67  95 136 184 230 286 353 431
#     4  11  23  44  67 100 143 181 237 299 358 440
#     4  10  24  42  66 102 138 188 234 298 366 416
#     4  10  21  47  71  97 135 180 233 288 351 419
#     4  12  26  44  66 101 137 183 232 294 366 426
#     4  11  25  42  68 103 138 185 237 289 352 427
#
# _framework density 22.051772
#
# number of rings (size 3 to 8) (size 9 to 14) (size 15 to 20)
#    0.000    1.231    1.538    4.154    2.154    5.538 
#    0.000    0.000    0.000    0.000    0.000    0.000 
#    0.000    0.000    0.000    0.000    0.000    0.000 
#
# Total GULP energy -289569.551146 kJ/mol
# GULP energy per Si atom -5568.645214 kJ/mol
# Density = 2.200158 g / cm^3
# Si number density = 22.051772 Si / 1000 Ang^3
#
#
#
# Elastic Constant Matrix: (Units=GPa)
#
#
# Indices 1 2 3 4 5 6 
#
# 1 166.4522 37.4276 42.5856 0.0000 0.0000 0.0000
# 2 37.4276 68.9291 35.6960 0.0000 0.0000 0.0000
# 3 42.5856 35.6960 82.4817 0.0000 0.0000 0.0000
# 4 0.0000 0.0000 0.0000 66.5588 0.0000 0.0000
# 5 0.0000 0.0000 0.0000 0.0000 22.6493 0.0000
# 6 0.0000 0.0000 0.0000 0.0000 0.0000 46.8490
#
#
#
# Elastic Compliance Matrix: (Units=1/GPa)
#
#
# Indices 1 2 3 4 5 6 
#
# 1 0.007261 -0.002579 -0.002633 0.000000 0.000000 0.000000
# 2 -0.002579 0.019615 -0.007157 0.000000 0.000000 0.000000
# 3 -0.002633 -0.007157 0.016581 0.000000 0.000000 0.000000
# 4 0.000000 0.000000 0.000000 0.015024 0.000000 0.000000
# 5 0.000000 0.000000 0.000000 0.000000 0.044151 0.000000
# 6 0.000000 0.000000 0.000000 0.000000 0.000000 0.021345
#
#
# Mechanical properties :
#
#
# Convention : Reuss Voigt Hill
#
# Bulk Modulus (GPa) = 53.42378 61.03128 57.22753
# Shear Modulus (GPa) = 32.26745 40.68834 36.47790
#
# Velocity S-wave (km/s) = 3.82941 4.30016 4.07159
# Velocity P-wave (km/s) = 6.62054 7.23820 6.93625
#
# Compressibility (1/GPa) = 0.01871825
#
# Stress axis : x y z
#
# Youngs Moduli (GPa) = 137.71670 50.98252 60.31168
#
# Poissons Ratio (x) = 0.13150 0.15878
# Poissons Ratio (y) = 0.35522 0.43165
# Poissons Ratio (z) = 0.36257 0.36488
#
# Static dielectric constant tensor:
#      x y z
#    x 1.871350 0.000000 0.000000 
#    y 0.000000 2.009960 0.000000 
#    z 0.000000 0.000000 1.853560 
# 
# From -- ./inp_files/31247.got.cif
#   From: 2010.05.17/outbox.cif.g08.bks.cpg/sg73_16_cif.got.tgz:31247.got - 2010.06.03 17:35:07.
