data_PCOD9531870
_publ_section_title
;
Structure prediction by ZEFSAII (Michael W. Deem and Ramdas Pophale) SiO2 
 PCOD9531870
Probable space group: I B C A 
;
_chemical_formula_sum "Si O2"
_cell_formula_units_Z 88
_cell_length_a 19.224314
_cell_length_b 12.674955
_cell_length_c 14.089892
_cell_angle_alpha 90.000000
_cell_angle_beta 90.000000
_cell_angle_gamma 90.000000
_cell_volume 3433.246150
_symmetry_space_group_name_H-M "I B C A "
_symmetry_group_IT_number 73
_symmetry_cell_setting 'orthorhombic'
loop_
_space_group_symop_operation_xyz
x,y,z
-x,1/2-y,z
x,-y,1/2-z
1/2-x,y,-z
-x,-y,-z
x,1/2+y,-z
-x,y,1/2+z
1/2+x,-y,z
1/2+x,1/2+y,1/2+z
1/2-x,-y,1/2+z
1/2+x,1/2-y,-z
-x,1/2+y,1/2-z
1/2-x,1/2-y,1/2-z
1/2+x,y,1/2-z
1/2-x,1/2+y,z
x,1/2-y,1/2+z
loop_
_atom_site_type_symbol
_atom_site_label
_atom_site_fract_x
_atom_site_fract_y
_atom_site_fract_z
Si Si1 0.579627 0.277463 0.677348
Si Si2 0.250000 0.858346 0.000000
Si Si3 0.625467 0.769562 0.022327
Si Si4 0.203739 0.000000 0.750000
Si Si5 0.541749 0.500000 0.750000
Si Si6 0.296022 0.440523 0.409307
Si Si7 0.918399 0.614535 0.847468
O O1 0.500000 0.250000 0.650362
O O2 0.624073 0.232214 0.590505
O O3 0.582806 0.401027 0.705399
O O4 0.591989 0.205813 0.769101
O O5 0.196803 0.786578 0.943364
O O6 0.294357 0.934444 0.931262
O O7 0.630894 0.882668 0.072443
O O8 0.571860 0.681206 0.057183
O O9 0.256127 0.925530 0.689755
O O10 0.149454 0.958358 0.830318
O O11 0.487004 0.451615 0.825596
O O12 0.250000 0.404300 0.500000
#
# Coordination Sequence:
#
# PCOD9531870 Si02
#       7
#    16   8  16   8   8  16  16
#     4  10  24  43  69  97 133 175 228 294 346 407
#     4  10  22  40  56  96 136 172 212 276 320 414
#     4  12  23  41  67  98 133 178 226 280 343 407
#     4  11  20  40  63  92 134 183 209 276 350 396
#     4   9  22  46  63  96 132 173 237 286 350 416
#     4  10  22  38  61  92 135 169 224 266 324 416
#     4  10  22  40  68  94 131 175 226 281 341 414
#
# _framework density 25.631716999999998
#
# number of rings (size 3 to 8) (size 9 to 14) (size 15 to 20)
#    0.545    1.091    2.727    1.091    0.000    8.000 
#    0.000    0.000    0.000    0.000    0.000    0.000 
#    0.000    0.000    0.000    0.000    0.000    0.000 
#
# Total GULP energy -245566.240000 kJ/mol
# GULP energy per Si atom -5581.050909 kJ/mol
# Density = 2.557338 g / cm^3
# Si number density = 25.631717 Si / 1000 Ang^3
#
#
#
# Elastic Constant Matrix: (Units=GPa)
#
#
# Indices 1 2 3 4 5 6 
#
# 1 66.3488 28.1095 9.2773 0.0000 0.0000 0.0000
# 2 28.1095 111.2816 8.8038 0.0000 0.0000 0.0000
# 3 9.2773 8.8038 70.4511 0.0000 0.0000 0.0000
# 4 0.0000 0.0000 0.0000 29.7318 0.0000 0.0000
# 5 0.0000 0.0000 0.0000 0.0000 28.3597 0.0000
# 6 0.0000 0.0000 0.0000 0.0000 0.0000 26.9966
#
#
#
# Elastic Compliance Matrix: (Units=1/GPa)
#
#
# Indices 1 2 3 4 5 6 
#
# 1 0.017084 -0.004179 -0.001727 0.000000 0.000000 0.000000
# 2 -0.004179 0.010098 -0.000712 0.000000 0.000000 0.000000
# 3 -0.001727 -0.000712 0.014511 0.000000 0.000000 0.000000
# 4 0.000000 0.000000 0.000000 0.033634 0.000000 0.000000
# 5 0.000000 0.000000 0.000000 0.000000 0.035261 0.000000
# 6 0.000000 0.000000 0.000000 0.000000 0.000000 0.037042
#
#
# Mechanical properties :
#
#
# Convention : Reuss Voigt Hill
#
# Bulk Modulus (GPa) = 35.14086 37.82920 36.48503
# Shear Modulus (GPa) = 29.35124 30.47702 29.91413
#
# Velocity S-wave (km/s) = 3.38762 3.45198 3.41995
# Velocity P-wave (km/s) = 5.38897 5.53886 5.46443
#
# Compressibility (1/GPa) = 0.02845691
#
# Stress axis : x y z
#
# Youngs Moduli (GPa) = 58.53518 99.02926 68.91490
#
# Poissons Ratio (x) = 0.41381 0.11905
# Poissons Ratio (y) = 0.24460 0.04904
# Poissons Ratio (z) = 0.10112 0.07047
#
# Static dielectric constant tensor:
#      x y z
#    x 2.118810 0.000000 0.000000 
#    y 0.000000 2.071580 0.000000 
#    z 0.000000 0.000000 2.012560 
# 
# From -- ./inp_files/19285.got.cif
#   From: 2010.05.17/outbox.cif.g08.bks.cpg/sg73_10_cif.got.tgz:19285.got - 2010.06.03 17:35:07.
