data_PCOD9531773
_publ_section_title
;
Structure prediction by ZEFSAII (Michael W. Deem and Ramdas Pophale) SiO2 
 PCOD9531773
Probable space group: I B C A 
;
_chemical_formula_sum "Si O2"
_cell_formula_units_Z 56
_cell_length_a 24.762287
_cell_length_b 18.492705
_cell_length_c 5.504230
_cell_angle_alpha 90.000000
_cell_angle_beta 90.000000
_cell_angle_gamma 90.000000
_cell_volume 2520.506186
_symmetry_space_group_name_H-M "I B C A "
_symmetry_group_IT_number 73
_symmetry_cell_setting 'orthorhombic'
loop_
_space_group_symop_operation_xyz
x,y,z
-x,1/2-y,z
x,-y,1/2-z
1/2-x,y,-z
-x,-y,-z
x,1/2+y,-z
-x,y,1/2+z
1/2+x,-y,z
1/2+x,1/2+y,1/2+z
1/2-x,-y,1/2+z
1/2+x,1/2-y,-z
-x,1/2+y,1/2-z
1/2-x,1/2-y,1/2-z
1/2+x,y,1/2-z
1/2-x,1/2+y,z
x,1/2-y,1/2+z
loop_
_atom_site_type_symbol
_atom_site_label
_atom_site_fract_x
_atom_site_fract_y
_atom_site_fract_z
Si Si1 0.021888 0.581746 0.038883
Si Si2 0.187740 0.777984 0.282551
Si Si3 0.119020 0.500000 0.250000
Si Si4 0.698667 0.427109 0.631342
O O1 0.082671 0.561160 0.115648
O O2 0.991081 0.615237 0.273846
O O3 0.000000 0.500000 0.000000
O O4 0.250000 0.750000 0.250000
O O5 0.163217 0.740226 0.518985
O O6 0.182675 0.864205 0.315501
O O7 0.153628 0.543947 0.447771
O O8 0.720129 0.500000 0.750000
O O9 0.750000 0.392886 0.500000
#
# Coordination Sequence:
#
# PCOD9531773 Si02
#       4
#    16  16   8  16
#     4   8  16  32  53  72 107 146 172 222 295 350
#     4  10  22  40  59  68 100 159 206 232 276 334
#     4  10  22  32  50  82 118 144 184 236 292 348
#     4  12  25  34  53  81 121 154 192 241 294 331
#
# _framework density 22.217759999999998
#
# number of rings (size 3 to 8) (size 9 to 14) (size 15 to 20)
#    0.000    2.286    4.286    0.000   16.000    0.000 
#    0.000    0.000    0.000    0.000    0.000    0.000 
#    0.000   61.714    0.000    0.000    0.000    0.000 
#
# Total GULP energy -155908.443129 kJ/mol
# GULP energy per Si atom -5568.158683 kJ/mol
# Density = 2.216719 g / cm^3
# Si number density = 22.217760 Si / 1000 Ang^3
#
#
#
# Elastic Constant Matrix: (Units=GPa)
#
#
# Indices 1 2 3 4 5 6 
#
# 1 71.9131 -8.6596 18.0370 0.0000 0.0000 0.0000
# 2 -8.6596 90.4816 7.1193 0.0000 0.0000 0.0000
# 3 18.0370 7.1193 147.4211 0.0000 0.0000 0.0000
# 4 0.0000 0.0000 0.0000 28.3083 0.0000 0.0000
# 5 0.0000 0.0000 0.0000 0.0000 37.9697 0.0000
# 6 0.0000 0.0000 0.0000 0.0000 0.0000 -3.5901
#
#
#
# Elastic Compliance Matrix: (Units=1/GPa)
#
#
# Indices 1 2 3 4 5 6 
#
# 1 0.014556 0.001539 -0.001855 0.000000 0.000000 0.000000
# 2 0.001539 0.011257 -0.000732 0.000000 0.000000 0.000000
# 3 -0.001855 -0.000732 0.007046 0.000000 0.000000 0.000000
# 4 0.000000 0.000000 0.000000 0.035325 0.000000 0.000000
# 5 0.000000 0.000000 0.000000 0.000000 0.026337 0.000000
# 6 0.000000 0.000000 0.000000 0.000000 0.000000 -0.278547
#
#
# Mechanical properties :
#
#
# Convention : Reuss Voigt Hill
#
# Bulk Modulus (GPa) = 32.50700 38.08991 35.29846
# Shear Modulus (GPa) = -29.12473 32.09219 1.48373
#
# Velocity S-wave (km/s) = -3.62453 3.80470 0.81808
# Velocity P-wave (km/s) = 1.68921 6.04004 4.10053
#
# Compressibility (1/GPa) = 0.03076260
#
# Stress axis : x y z
#
# Youngs Moduli (GPa) = 68.69852 88.83471 141.93186
#
# Poissons Ratio (x) = -0.13673 0.26333
# Poissons Ratio (y) = -0.10573 0.10388
# Poissons Ratio (z) = 0.12746 0.06502
#
# Static dielectric constant tensor:
#      x y z
#    x 1.889540 0.000000 0.000000 
#    y 0.000000 1.744060 0.000000 
#    z 0.000000 0.000000 2.017290 
# 
# From -- ./inp_files/1018.got.cif
#   From: 2010.05.17/outbox.cif.g08.bks.cpg/sg73_1_cif.got.tgz:1018.got - 2010.06.03 17:35:07.
