data_PCOD9531925
_publ_section_title
;
Structure prediction by ZEFSAII (Michael W. Deem and Ramdas Pophale) SiO2 
 PCOD9531925
Probable space group: I B C A 
;
_chemical_formula_sum "Si O2"
_cell_formula_units_Z 104
_cell_length_a 20.872065
_cell_length_b 14.273873
_cell_length_c 18.552764
_cell_angle_alpha 90.000000
_cell_angle_beta 90.000000
_cell_angle_gamma 90.000000
_cell_volume 5527.336019
_symmetry_space_group_name_H-M "I B C A "
_symmetry_group_IT_number 73
_symmetry_cell_setting 'orthorhombic'
loop_
_space_group_symop_operation_xyz
x,y,z
-x,1/2-y,z
x,-y,1/2-z
1/2-x,y,-z
-x,-y,-z
x,1/2+y,-z
-x,y,1/2+z
1/2+x,-y,z
1/2+x,1/2+y,1/2+z
1/2-x,-y,1/2+z
1/2+x,1/2-y,-z
-x,1/2+y,1/2-z
1/2-x,1/2-y,1/2-z
1/2+x,y,1/2-z
1/2-x,1/2+y,z
x,1/2-y,1/2+z
loop_
_atom_site_type_symbol
_atom_site_label
_atom_site_fract_x
_atom_site_fract_y
_atom_site_fract_z
Si Si1 0.934274 0.306660 0.769691
Si Si2 0.934609 0.584057 0.583231
Si Si3 0.500000 0.250000 0.995469
Si Si4 0.290678 0.115053 0.065521
Si Si5 0.084034 0.628160 0.393334
Si Si6 0.265313 0.403640 0.917524
Si Si7 0.300734 0.731975 0.312385
O O1 0.930811 0.383878 0.833147
O O2 0.930500 0.350649 0.690205
O O3 0.872867 0.239243 0.782806
O O4 0.000000 0.250000 0.776988
O O5 0.864709 0.596442 0.546997
O O6 0.946648 0.472393 0.583209
O O7 0.978912 0.661061 0.544109
O O8 0.555666 0.209763 0.943753
O O9 0.291402 0.183777 0.131865
O O10 0.260417 0.015636 0.085902
O O11 0.250000 0.154867 0.000000
O O12 0.160879 0.621967 0.401205
O O13 0.218247 0.358037 0.859346
O O14 0.250000 0.376689 0.000000
O O15 0.250000 0.750000 0.250000
#
# Coordination Sequence:
#
# PCOD9531925 Si02
#       7
#    16  16   8  16  16  16  16
#     4  11  22  42  64  89 125 167 212 252 313 374
#     4  10  23  40  64  89 122 168 207 255 310 379
#     4  12  24  38  62  94 126 158 212 262 304 372
#     4   9  21  39  61  89 122 160 202 253 316 374
#     4  11  23  41  64  90 123 166 208 256 316 371
#     4  10  22  39  63  91 122 159 205 257 313 373
#     4  11  22  36  64  90 120 160 206 258 308 371
#
# _framework density 18.815574000000002
#
# number of rings (size 3 to 8) (size 9 to 14) (size 15 to 20)
#    0.000    1.538    3.077    1.385    6.462    0.615 
#    0.000    0.000    3.385    0.000    0.000    0.000 
#    0.000    0.000    0.000    0.000    0.000    0.000 
#
# Total GULP energy -290202.554653 kJ/mol
# GULP energy per Si atom -5580.818359 kJ/mol
# Density = 1.877275 g / cm^3
# Si number density = 18.815574 Si / 1000 Ang^3
#
#
#
# Elastic Constant Matrix: (Units=GPa)
#
#
# Indices 1 2 3 4 5 6 
#
# 1 91.6616 37.3635 36.5224 0.0000 0.0000 0.0000
# 2 37.3635 89.2208 22.9875 0.0000 0.0000 0.0000
# 3 36.5224 22.9875 87.9367 0.0000 0.0000 0.0000
# 4 0.0000 0.0000 0.0000 30.7506 0.0000 0.0000
# 5 0.0000 0.0000 0.0000 0.0000 32.8001 0.0000
# 6 0.0000 0.0000 0.0000 0.0000 0.0000 31.2294
#
#
#
# Elastic Compliance Matrix: (Units=1/GPa)
#
#
# Indices 1 2 3 4 5 6 
#
# 1 0.014882 -0.004975 -0.004880 0.000000 0.000000 0.000000
# 2 -0.004975 0.013681 -0.001510 0.000000 0.000000 0.000000
# 3 -0.004880 -0.001510 0.013794 0.000000 0.000000 0.000000
# 4 0.000000 0.000000 0.000000 0.032520 0.000000 0.000000
# 5 0.000000 0.000000 0.000000 0.000000 0.030488 0.000000
# 6 0.000000 0.000000 0.000000 0.000000 0.000000 0.032021
#
#
# Mechanical properties :
#
#
# Convention : Reuss Voigt Hill
#
# Bulk Modulus (GPa) = 50.95406 51.39623 51.17514
# Shear Modulus (GPa) = 30.00168 30.41907 30.21038
#
# Velocity S-wave (km/s) = 3.99747 4.02518 4.01135
# Velocity P-wave (km/s) = 6.96031 6.99842 6.97939
#
# Compressibility (1/GPa) = 0.01962552
#
# Stress axis : x y z
#
# Youngs Moduli (GPa) = 67.19447 73.09646 72.49770
#
# Poissons Ratio (x) = 0.36364 0.35382
# Poissons Ratio (y) = 0.33428 0.10947
# Poissons Ratio (z) = 0.32794 0.11038
#
# Static dielectric constant tensor:
#      x y z
#    x 1.647800 0.000000 0.000000 
#    y 0.000000 1.662730 0.000000 
#    z 0.000000 0.000000 1.641030 
# 
# From -- ./inp_files/23206.got.cif
#   From: 2010.05.17/outbox.cif.g08.bks.cpg/sg73_12_cif.got.tgz:23206.got - 2010.06.03 17:35:07.
