data_PCOD9531142
_publ_section_title
;
Structure prediction by ZEFSAII (Michael W. Deem and Ramdas Pophale) SiO2 
 PCOD9531142
Probable space group: I B C A 
;
_chemical_formula_sum "Si O2"
_cell_formula_units_Z 88
_cell_length_a 16.085788
_cell_length_b 19.340319
_cell_length_c 14.365429
_cell_angle_alpha 90.000000
_cell_angle_beta 90.000000
_cell_angle_gamma 90.000000
_cell_volume 4469.146321
_symmetry_space_group_name_H-M "I B C A "
_symmetry_group_IT_number 73
_symmetry_cell_setting 'orthorhombic'
loop_
_space_group_symop_operation_xyz
x,y,z
-x,1/2-y,z
x,-y,1/2-z
1/2-x,y,-z
-x,-y,-z
x,1/2+y,-z
-x,y,1/2+z
1/2+x,-y,z
1/2+x,1/2+y,1/2+z
1/2-x,-y,1/2+z
1/2+x,1/2-y,-z
-x,1/2+y,1/2-z
1/2-x,1/2-y,1/2-z
1/2+x,y,1/2-z
1/2-x,1/2+y,z
x,1/2-y,1/2+z
loop_
_atom_site_type_symbol
_atom_site_label
_atom_site_fract_x
_atom_site_fract_y
_atom_site_fract_z
Si Si1 0.615311 0.156590 0.087775
Si Si2 0.160818 0.300787 0.463462
Si Si3 0.478280 0.374677 0.437443
Si Si4 0.375126 0.950373 0.419169
Si Si5 0.750000 0.561948 0.000000
Si Si6 0.987494 0.071756 0.766211
O O1 0.629384 0.238119 0.099223
O O2 0.696986 0.111531 0.067412
O O3 0.564311 0.124301 0.171754
O O4 0.557745 0.147059 0.996647
O O5 0.250000 0.279208 0.500000
O O6 0.093174 0.316903 0.544659
O O7 0.170079 0.375529 0.414901
O O8 0.435738 0.440017 0.490999
O O9 0.501794 0.393524 0.333387
O O10 0.433032 0.951609 0.328256
O O11 0.312335 0.011983 0.441723
O O12 0.938945 0.000000 0.750000
#
# Coordination Sequence:
#
# PCOD9531142 Si02
#       6
#    16  16  16  16   8  16
#     4  11  23  40  66  94 129 170 218 272 322 392
#     4  10  20  44  65  91 130 170 217 270 327 388
#     4   9  21  42  65  92 125 172 216 267 319 395
#     4   9  21  39  65  88 129 172 214 264 326 381
#     4  12  20  38  66  92 130 178 212 266 332 384
#     4  11  22  40  65  98 128 167 220 268 327 391
#
# _framework density 19.690562
#
# number of rings (size 3 to 8) (size 9 to 14) (size 15 to 20)
#    1.091    0.727    1.818    2.727    0.000    2.909 
#    6.545   12.727    0.000    0.000    0.000    0.000 
#    0.000    0.000    0.000    0.000    0.000    0.000 
#
# Total GULP energy -245196.168858 kJ/mol
# GULP energy per Si atom -5572.640201 kJ/mol
# Density = 1.964575 g / cm^3
# Si number density = 19.690562 Si / 1000 Ang^3
#
#
#
# Elastic Constant Matrix: (Units=GPa)
#
#
# Indices 1 2 3 4 5 6 
#
# 1 56.6569 9.0793 11.5033 0.0000 0.0000 0.0000
# 2 9.0793 95.3100 14.1072 0.0000 0.0000 0.0000
# 3 11.5033 14.1072 106.1246 0.0000 0.0000 0.0000
# 4 0.0000 0.0000 0.0000 25.6982 0.0000 0.0000
# 5 0.0000 0.0000 0.0000 0.0000 0.0901 0.0000
# 6 0.0000 0.0000 0.0000 0.0000 0.0000 -10.1171
#
#
#
# Elastic Compliance Matrix: (Units=1/GPa)
#
#
# Indices 1 2 3 4 5 6 
#
# 1 0.018248 -0.001475 -0.001782 0.000000 0.000000 0.000000
# 2 -0.001475 0.010822 -0.001279 0.000000 0.000000 0.000000
# 3 -0.001782 -0.001279 0.009786 0.000000 0.000000 0.000000
# 4 0.000000 0.000000 0.000000 0.038913 0.000000 0.000000
# 5 0.000000 0.000000 0.000000 0.000000 11.104233 -0.000001
# 6 0.000000 0.000000 0.000000 0.000000 -0.000001 -0.098843
#
#
# Mechanical properties :
#
#
# Convention : Reuss Voigt Hill
#
# Bulk Modulus (GPa) = 33.57338 36.38566 34.97952
# Shear Modulus (GPa) = 0.45036 18.02768 9.23902
#
# Velocity S-wave (km/s) = 0.47877 3.02909 2.16848
# Velocity P-wave (km/s) = 4.17051 5.54551 4.90641
#
# Compressibility (1/GPa) = 0.02978551
#
# Stress axis : x y z
#
# Youngs Moduli (GPa) = 54.79986 92.40596 102.18653
#
# Poissons Ratio (x) = 0.13626 0.18209
# Poissons Ratio (y) = 0.08081 0.13067
# Poissons Ratio (z) = 0.09765 0.11816
#
# Static dielectric constant tensor:
#      x y z
#    x 1.717990 0.000000 0.000000 
#    y 0.000000 1.750390 0.000000 
#    z 0.000000 0.000000 1.669220 
# 
# From -- ./inp_files/22039.got.cif
#   From: 2010.05.17/outbox.cif.g08.bks.cpg/sg73_12_cif.got.tgz:22039.got - 2010.06.03 17:35:07.
