data_PCOD9531796
_publ_section_title
;
Structure prediction by ZEFSAII (Michael W. Deem and Ramdas Pophale) SiO2 
 PCOD9531796
Probable space group: I B C A 
;
_chemical_formula_sum "Si O2"
_cell_formula_units_Z 96
_cell_length_a 28.858445
_cell_length_b 7.946097
_cell_length_c 23.147561
_cell_angle_alpha 90.000000
_cell_angle_beta 90.000000
_cell_angle_gamma 90.000000
_cell_volume 5308.013583
_symmetry_space_group_name_H-M "I B C A "
_symmetry_group_IT_number 73
_symmetry_cell_setting 'orthorhombic'
loop_
_space_group_symop_operation_xyz
x,y,z
-x,1/2-y,z
x,-y,1/2-z
1/2-x,y,-z
-x,-y,-z
x,1/2+y,-z
-x,y,1/2+z
1/2+x,-y,z
1/2+x,1/2+y,1/2+z
1/2-x,-y,1/2+z
1/2+x,1/2-y,-z
-x,1/2+y,1/2-z
1/2-x,1/2-y,1/2-z
1/2+x,y,1/2-z
1/2-x,1/2+y,z
x,1/2-y,1/2+z
loop_
_atom_site_type_symbol
_atom_site_label
_atom_site_fract_x
_atom_site_fract_y
_atom_site_fract_z
Si Si1 0.678793 0.338100 0.043775
Si Si2 0.050567 0.406687 0.887675
Si Si3 0.000000 0.250000 0.785717
Si Si4 0.500000 0.250000 0.018235
Si Si5 0.893265 0.559427 0.624357
Si Si6 0.404800 0.714343 0.051771
Si Si7 0.926560 0.000000 0.250000
Si Si8 0.750000 0.400122 0.500000
O O1 0.655201 0.364989 0.104581
O O2 0.708616 0.499797 0.028536
O O3 0.719997 0.204377 0.045144
O O4 0.638224 0.310472 0.994112
O O5 0.022799 0.395246 0.827144
O O6 0.012333 0.403424 0.938390
O O7 0.086427 0.555075 0.904612
O O8 0.073811 0.220650 0.888302
O O9 0.040121 0.162879 0.749548
O O10 0.547056 0.273403 0.983074
O O11 0.900127 0.391277 0.585769
O O12 0.898541 0.512178 0.690887
#
# Coordination Sequence:
#
# PCOD9531796 Si02
#       8
#    16  16   8   8  16  16   8   8
#     4  11  20  40  59  95 118 152 194 251 311 382
#     4  10  22  36  50  81 122 163 200 250 288 349
#     4   9  22  37  54  76 112 165 229 250 276 342
#     4  11  22  31  52  86 128 161 189 240 308 360
#     4  11  23  40  59  84 121 159 203 251 297 354
#     4  12  23  34  60  89 124 159 201 242 309 371
#     4  10  24  40  56  80 120 172 214 256 288 342
#     4  10  22  36  66  90 122 148 184 252 332 368
#
# _framework density 18.085861000000001
#
# number of rings (size 3 to 8) (size 9 to 14) (size 15 to 20)
#    0.000    1.333    3.333    2.500    9.333    0.000 
#    0.000    0.000    0.000    1.000    0.000    0.000 
#    0.000    0.000    0.000    0.000    0.000    0.000 
#
# Total GULP energy -267207.952155 kJ/mol
# GULP energy per Si atom -5566.832337 kJ/mol
# Density = 1.804470 g / cm^3
# Si number density = 18.085861 Si / 1000 Ang^3
#
#
#
# Elastic Constant Matrix: (Units=GPa)
#
#
# Indices 1 2 3 4 5 6 
#
# 1 121.0443 35.0139 51.9852 0.0000 0.0000 0.0000
# 2 35.0139 76.0741 30.8548 0.0000 0.0000 0.0000
# 3 51.9852 30.8548 97.2089 0.0000 0.0000 0.0000
# 4 0.0000 0.0000 0.0000 17.7411 0.0000 0.0000
# 5 0.0000 0.0000 0.0000 0.0000 13.3652 0.0000
# 6 0.0000 0.0000 0.0000 0.0000 0.0000 -36.8893
#
#
#
# Elastic Compliance Matrix: (Units=1/GPa)
#
#
# Indices 1 2 3 4 5 6 
#
# 1 0.011354 -0.003171 -0.005065 0.000000 0.000000 0.000000
# 2 -0.003171 0.015973 -0.003374 0.000000 0.000000 0.000000
# 3 -0.005065 -0.003374 0.014067 0.000000 0.000000 0.000000
# 4 0.000000 0.000000 0.000000 0.056366 0.000000 0.000000
# 5 0.000000 0.000000 0.000000 0.000000 0.074821 0.000000
# 6 0.000000 0.000000 0.000000 0.000000 0.000000 -0.027108
#
#
# Mechanical properties :
#
#
# Convention : Reuss Voigt Hill
#
# Bulk Modulus (GPa) = 55.02742 58.89278 56.96010
# Shear Modulus (GPa) = 28.61182 10.60831 19.61006
#
# Velocity S-wave (km/s) = 3.98175 2.42451 3.29641
# Velocity P-wave (km/s) = 7.18546 6.36170 6.78609
#
# Compressibility (1/GPa) = 0.01817276
#
# Stress axis : x y z
#
# Youngs Moduli (GPa) = 88.07264 62.60475 71.08894
#
# Poissons Ratio (x) = 0.19855 0.36009
# Poissons Ratio (y) = 0.27932 0.23985
# Poissons Ratio (z) = 0.44612 0.21123
#
# Static dielectric constant tensor:
#      x y z
#    x 1.738360 0.000000 0.000000 
#    y 0.000000 1.807660 0.000000 
#    z 0.000000 0.000000 1.644660 
# 
# From -- ./inp_files/6512.got.cif
#   From: 2010.05.17/outbox.cif.g08.bks.cpg/sg73_4_cif.got.tgz:6512.got - 2010.06.03 17:35:07.
