data_PCOD9531541
_publ_section_title
;
Structure prediction by ZEFSAII (Michael W. Deem and Ramdas Pophale) SiO2 
 PCOD9531541
Probable space group: I B C A 
;
_chemical_formula_sum "Si O2"
_cell_formula_units_Z 120
_cell_length_a 16.122943
_cell_length_b 26.656301
_cell_length_c 13.883641
_cell_angle_alpha 90.000000
_cell_angle_beta 90.000000
_cell_angle_gamma 90.000000
_cell_volume 5966.883762
_symmetry_space_group_name_H-M "I B C A "
_symmetry_group_IT_number 73
_symmetry_cell_setting 'orthorhombic'
loop_
_space_group_symop_operation_xyz
x,y,z
-x,1/2-y,z
x,-y,1/2-z
1/2-x,y,-z
-x,-y,-z
x,1/2+y,-z
-x,y,1/2+z
1/2+x,-y,z
1/2+x,1/2+y,1/2+z
1/2-x,-y,1/2+z
1/2+x,1/2-y,-z
-x,1/2+y,1/2-z
1/2-x,1/2-y,1/2-z
1/2+x,y,1/2-z
1/2-x,1/2+y,z
x,1/2-y,1/2+z
loop_
_atom_site_type_symbol
_atom_site_label
_atom_site_fract_x
_atom_site_fract_y
_atom_site_fract_z
Si Si1 0.092609 0.044825 0.080587
Si Si2 0.108709 0.392757 0.766713
Si Si3 0.791618 0.758602 0.898617
Si Si4 0.080395 0.070183 0.478308
Si Si5 0.465889 0.198857 0.842328
Si Si6 0.718382 0.347606 0.200760
Si Si7 0.369276 0.847623 0.116659
Si Si8 0.250000 0.603007 0.000000
O O1 0.089700 0.060967 0.193492
O O2 0.102600 0.986881 0.050858
O O3 0.173282 0.071988 0.040240
O O4 0.009287 0.065455 0.029621
O O5 0.084136 0.402712 0.875700
O O6 0.058946 0.344797 0.729035
O O7 0.204691 0.376210 0.752520
O O8 0.882128 0.784880 0.896067
O O9 0.739415 0.789000 0.818150
O O10 0.804724 0.698555 0.893186
O O11 0.750000 0.768034 0.000000
O O12 0.137377 0.102871 0.551627
O O13 0.500000 0.250000 0.795435
O O14 0.540847 0.176648 0.905326
O O15 0.640327 0.358070 0.269164
O O16 0.714759 0.367967 0.092531
#
# Coordination Sequence:
#
# PCOD9531541 Si02
#       8
#    16  16  16  16  16  16  16   8
#     4  10  23  43  64  94 126 171 221 280 330 402
#     4  10  21  41  63  87 132 169 209 274 339 390
#     4  10  21  40  66  91 130 175 217 261 335 404
#     4  11  24  40  66  94 129 169 225 274 342 395
#     4   9  20  41  59  90 131 166 211 269 322 393
#     4  10  22  39  65  93 127 169 218 266 330 402
#     4  11  23  39  62  95 133 165 216 283 325 396
#     4  10  22  42  68  90 122 176 216 266 336 406
#
# _framework density 20.111000000000001
#
# number of rings (size 3 to 8) (size 9 to 14) (size 15 to 20)
#    0.000    1.867    2.000    0.800    3.733    1.067 
#    0.000    2.667    0.000    0.000    0.000    0.000 
#    0.000    0.000    0.000    0.000    0.000    0.000 
#
# Total GULP energy -334386.230677 kJ/mol
# GULP energy per Si atom -5573.103845 kJ/mol
# Density = 2.006523 g / cm^3
# Si number density = 20.111000 Si / 1000 Ang^3
#
#
#
# Elastic Constant Matrix: (Units=GPa)
#
#
# Indices 1 2 3 4 5 6 
#
# 1 41.2949 20.0193 32.8467 -0.0002 0.0000 0.0000
# 2 20.0193 136.9095 58.6800 0.0006 0.0000 0.0000
# 3 32.8467 58.6800 131.1268 0.0015 0.0000 0.0000
# 4 -0.0002 0.0006 0.0015 -282.8953 0.0003 -0.0001
# 5 0.0000 0.0000 0.0000 0.0003 5.6422 0.0000
# 6 0.0000 0.0000 0.0000 -0.0001 0.0000 17.1160
#
#
#
# Elastic Compliance Matrix: (Units=1/GPa)
#
#
# Indices 1 2 3 4 5 6 
#
# 1 0.030478 -0.001465 -0.006979 0.000000 0.000000 0.000000
# 2 -0.001465 0.009108 -0.003709 0.000000 0.000000 0.000000
# 3 -0.006979 -0.003709 0.011034 0.000000 0.000000 0.000000
# 4 0.000000 0.000000 0.000000 -0.003535 0.000000 0.000000
# 5 0.000000 0.000000 0.000000 0.000000 0.177237 0.000000
# 6 0.000000 0.000000 0.000000 0.000000 0.000000 0.058425
#
#
# Mechanical properties :
#
#
# Convention : Reuss Voigt Hill
#
# Bulk Modulus (GPa) = 38.00299 59.15813 48.58056
# Shear Modulus (GPa) = 15.83164 -38.84176 -11.50506
#
# Velocity S-wave (km/s) = 2.80878 -4.39950 -2.39441
# Velocity P-wave (km/s) = 5.42739 1.91629 4.06994
#
# Compressibility (1/GPa) = 0.02631372
#
# Stress axis : x y z
#
# Youngs Moduli (GPa) = 32.81107 109.79384 90.62847
#
# Poissons Ratio (x) = 0.16089 0.63247
# Poissons Ratio (y) = 0.04808 0.33612
# Poissons Ratio (z) = 0.22898 0.40720
#
# Static dielectric constant tensor:
#      x y z
#    x 1.754930 0.000000 0.000000 
#    y 0.000000 1.769890 0.000000 
#    z 0.000000 0.000000 1.703270 
# 
# From -- ./inp_files/12241.got.cif
#   From: 2010.05.17/outbox.cif.g08.bks.cpg/sg73_7_cif.got.tgz:12241.got - 2010.06.03 17:35:07.
