data_PCOD9531088
_publ_section_title
;
Structure prediction by ZEFSAII (Michael W. Deem and Ramdas Pophale) SiO2 
 PCOD9531088
Probable space group: I B C A 
;
_chemical_formula_sum "Si O2"
_cell_formula_units_Z 96
_cell_length_a 24.769294
_cell_length_b 7.799910
_cell_length_c 22.132504
_cell_angle_alpha 90.000000
_cell_angle_beta 90.000000
_cell_angle_gamma 90.000000
_cell_volume 4275.961350
_symmetry_space_group_name_H-M "I B C A "
_symmetry_group_IT_number 73
_symmetry_cell_setting 'orthorhombic'
loop_
_space_group_symop_operation_xyz
x,y,z
-x,1/2-y,z
x,-y,1/2-z
1/2-x,y,-z
-x,-y,-z
x,1/2+y,-z
-x,y,1/2+z
1/2+x,-y,z
1/2+x,1/2+y,1/2+z
1/2-x,-y,1/2+z
1/2+x,1/2-y,-z
-x,1/2+y,1/2-z
1/2-x,1/2-y,1/2-z
1/2+x,y,1/2-z
1/2-x,1/2+y,z
x,1/2-y,1/2+z
loop_
_atom_site_type_symbol
_atom_site_label
_atom_site_fract_x
_atom_site_fract_y
_atom_site_fract_z
Si Si1 0.058411 0.452398 0.680883
Si Si2 0.234213 0.728336 0.819600
Si Si3 0.312315 0.688652 0.513563
Si Si4 0.343343 0.495019 0.398913
Si Si5 0.434891 0.458965 0.819795
Si Si6 0.673268 0.046573 0.622780
O O1 0.071168 0.500000 0.750000
O O2 0.101246 0.527733 0.635159
O O3 0.064538 0.247030 0.673827
O O4 0.996994 0.511013 0.669255
O O5 0.250000 0.750000 0.750000
O O6 0.198829 0.568443 0.846276
O O7 0.290706 0.704914 0.854870
O O8 0.198097 0.891130 0.836643
O O9 0.250000 0.729947 0.500000
O O10 0.336952 0.642724 0.449167
O O11 0.340590 0.827871 0.556408
O O12 0.313913 0.517180 0.555390
O O13 0.421798 0.500000 0.750000
O O14 0.389778 0.545199 0.861546
#
# Coordination Sequence:
#
# PCOD9531088 Si02
#       6
#    16  16  16  16  16  16
#     4  10  22  42  68  93 126 163 213 272 322 379
#     4  11  22  37  58  91 131 160 202 262 322 380
#     4  11  22  41  62  86 129 174 215 256 312 381
#     4  11  24  42  61  94 123 171 217 258 318 380
#     4  10  20  42  67  92 129 167 208 261 333 383
#     4  11  23  39  61  93 125 171 209 258 318 384
#
# _framework density 22.451091000000002
#
# number of rings (size 3 to 8) (size 9 to 14) (size 15 to 20)
#    0.000    1.333    5.000    2.000    2.333    1.333 
#    3.000    0.833    0.000    0.000    0.000    0.000 
#    0.000    0.000    0.000    0.000    0.000    0.000 
#
# Total GULP energy -268334.998362 kJ/mol
# GULP energy per Si atom -5590.312466 kJ/mol
# Density = 2.239999 g / cm^3
# Si number density = 22.451091 Si / 1000 Ang^3
#
#
#
# Elastic Constant Matrix: (Units=GPa)
#
#
# Indices 1 2 3 4 5 6 
#
# 1 145.1569 17.9437 93.5021 0.0000 0.0000 0.0000
# 2 17.9437 64.2289 12.6753 0.0000 0.0000 0.0000
# 3 93.5021 12.6753 162.2695 0.0000 0.0000 0.0000
# 4 0.0000 0.0000 0.0000 31.6306 0.0000 0.0000
# 5 0.0000 0.0000 0.0000 0.0000 -14.9602 0.0000
# 6 0.0000 0.0000 0.0000 0.0000 0.0000 20.6924
#
#
#
# Elastic Compliance Matrix: (Units=1/GPa)
#
#
# Indices 1 2 3 4 5 6 
#
# 1 0.011175 -0.001880 -0.006292 0.000000 0.000000 0.000000
# 2 -0.001880 0.016129 -0.000177 0.000000 0.000000 0.000000
# 3 -0.006292 -0.000177 0.009802 0.000000 0.000000 0.000000
# 4 0.000000 0.000000 0.000000 0.031615 0.000000 0.000000
# 5 0.000000 0.000000 0.000000 0.000000 -0.066844 0.000000
# 6 0.000000 0.000000 0.000000 0.000000 0.000000 0.048327
#
#
# Mechanical properties :
#
#
# Convention : Reuss Voigt Hill
#
# Bulk Modulus (GPa) = 48.99942 68.87750 58.93846
# Shear Modulus (GPa) = 67.83906 23.97485 45.90696
#
# Velocity S-wave (km/s) = 5.50291 3.27137 4.52680
# Velocity P-wave (km/s) = 7.88976 6.70930 7.32335
#
# Compressibility (1/GPa) = 0.02040841
#
# Stress axis : x y z
#
# Youngs Moduli (GPa) = 89.48944 61.99852 102.02046
#
# Poissons Ratio (x) = 0.11656 0.64192
# Poissons Ratio (y) = 0.16825 0.01801
# Poissons Ratio (z) = 0.56307 0.01095
#
# Static dielectric constant tensor:
#      x y z
#    x 1.829940 0.000000 0.000000 
#    y 0.000000 2.077370 0.000000 
#    z 0.000000 0.000000 1.794590 
# 
# From -- ./inp_files/30280.got.cif
#   From: 2010.05.17/outbox.cif.g08.bks.cpg/sg73_16_cif.got.tgz:30280.got - 2010.06.03 17:35:07.
