data_PCOD9531785
_publ_section_title
;
Structure prediction by ZEFSAII (Michael W. Deem and Ramdas Pophale) SiO2 
 PCOD9531785
Probable space group: I B C A 
;
_chemical_formula_sum "Si O2"
_cell_formula_units_Z 96
_cell_length_a 17.648549
_cell_length_b 12.316011
_cell_length_c 22.613155
_cell_angle_alpha 90.000000
_cell_angle_beta 90.000000
_cell_angle_gamma 90.000000
_cell_volume 4915.189121
_symmetry_space_group_name_H-M "I B C A "
_symmetry_group_IT_number 73
_symmetry_cell_setting 'orthorhombic'
loop_
_space_group_symop_operation_xyz
x,y,z
-x,1/2-y,z
x,-y,1/2-z
1/2-x,y,-z
-x,-y,-z
x,1/2+y,-z
-x,y,1/2+z
1/2+x,-y,z
1/2+x,1/2+y,1/2+z
1/2-x,-y,1/2+z
1/2+x,1/2-y,-z
-x,1/2+y,1/2-z
1/2-x,1/2-y,1/2-z
1/2+x,y,1/2-z
1/2-x,1/2+y,z
x,1/2-y,1/2+z
loop_
_atom_site_type_symbol
_atom_site_label
_atom_site_fract_x
_atom_site_fract_y
_atom_site_fract_z
Si Si1 0.698676 0.925739 0.113141
Si Si2 0.865193 0.882142 0.148262
Si Si3 0.961508 0.000000 0.250000
Si Si4 0.360252 0.167126 0.589063
Si Si5 0.750000 0.706738 0.500000
Si Si6 0.007777 0.953798 0.564959
Si Si7 0.456644 0.137920 0.843488
O O1 0.779527 0.922233 0.144851
O O2 0.633746 0.860642 0.148685
O O3 0.674304 0.050378 0.105302
O O4 0.709452 0.867976 0.049343
O O5 0.910234 0.935634 0.202356
O O6 0.861780 0.751762 0.143398
O O7 0.910562 0.916310 0.088370
O O8 0.014825 0.913261 0.282417
O O9 0.310057 0.220203 0.536668
O O10 0.446476 0.141686 0.571470
O O11 0.000000 0.000000 0.500000
O O12 0.983670 0.051791 0.607640
O O13 0.500000 0.250000 0.852968
#
# Coordination Sequence:
#
# PCOD9531785 Si02
#       7
#    16  16   8  16   8  16  16
#     4  10  23  40  59  98 126 165 210 263 314 390
#     4  10  23  42  64  89 125 165 217 263 324 368
#     4  10  24  46  64  90 120 170 222 276 306 392
#     4  10  22  37  61  89 129 174 199 257 321 380
#     4  10  22  34  62  90 138 166 206 254 320 376
#     4  10  23  36  61  93 127 166 213 253 306 394
#     4  10  24  41  63  91 128 165 212 268 323 371
#
# _framework density 19.531293999999999
#
# number of rings (size 3 to 8) (size 9 to 14) (size 15 to 20)
#    0.000    2.000    0.000    1.000   14.000    8.667 
#    0.000    1.667    0.000    0.000    0.000    0.000 
#    0.000    0.000    0.000    0.000    0.000    0.000 
#
# Total GULP energy -267974.125413 kJ/mol
# GULP energy per Si atom -5582.794279 kJ/mol
# Density = 1.948684 g / cm^3
# Si number density = 19.531294 Si / 1000 Ang^3
#
#
#
# Elastic Constant Matrix: (Units=GPa)
#
#
# Indices 1 2 3 4 5 6 
#
# 1 170.1324 58.7541 55.4594 0.0000 0.0000 0.0000
# 2 58.7541 118.0142 36.4677 0.0000 0.0000 0.0000
# 3 55.4594 36.4677 92.9543 0.0000 0.0000 0.0000
# 4 0.0000 0.0000 0.0000 12.4208 0.0000 0.0000
# 5 0.0000 0.0000 0.0000 0.0000 13.5429 0.0000
# 6 0.0000 0.0000 0.0000 0.0000 0.0000 26.0624
#
#
#
# Elastic Compliance Matrix: (Units=1/GPa)
#
#
# Indices 1 2 3 4 5 6 
#
# 1 0.008075 -0.002881 -0.003687 0.000000 0.000000 0.000000
# 2 -0.002881 0.010670 -0.002467 0.000000 0.000000 0.000000
# 3 -0.003687 -0.002467 0.013926 0.000000 0.000000 0.000000
# 4 0.000000 0.000000 0.000000 0.080510 0.000000 0.000000
# 5 0.000000 0.000000 0.000000 0.000000 0.073839 0.000000
# 6 0.000000 0.000000 0.000000 0.000000 0.000000 0.038369
#
#
# Mechanical properties :
#
#
# Convention : Reuss Voigt Hill
#
# Bulk Modulus (GPa) = 68.49387 75.82924 72.16156
# Shear Modulus (GPa) = 20.13473 25.76654 22.95063
#
# Velocity S-wave (km/s) = 3.21424 3.63608 3.43165
# Velocity P-wave (km/s) = 6.99429 7.51910 7.26144
#
# Compressibility (1/GPa) = 0.01459985
#
# Stress axis : x y z
#
# Youngs Moduli (GPa) = 123.84566 93.71974 71.80778
#
# Poissons Ratio (x) = 0.26996 0.26479
# Poissons Ratio (y) = 0.35674 0.17719
# Poissons Ratio (z) = 0.45668 0.23125
#
# Static dielectric constant tensor:
#      x y z
#    x 1.721980 0.000000 0.000000 
#    y 0.000000 1.687870 0.000000 
#    z 0.000000 0.000000 1.707290 
# 
# From -- ./inp_files/29815.got.cif
#   From: 2010.05.17/outbox.cif.g08.bks.cpg/sg73_15_cif.got.tgz:29815.got - 2010.06.03 17:35:07.
