data_PCOD9531893
_publ_section_title
;
Structure prediction by ZEFSAII (Michael W. Deem and Ramdas Pophale) SiO2 
 PCOD9531893
Probable space group: I B C A 
;
_chemical_formula_sum "Si O2"
_cell_formula_units_Z 88
_cell_length_a 5.396527
_cell_length_b 25.037259
_cell_length_c 29.654674
_cell_angle_alpha 90.000000
_cell_angle_beta 90.000000
_cell_angle_gamma 90.000000
_cell_volume 4006.768864
_symmetry_space_group_name_H-M "I B C A "
_symmetry_group_IT_number 73
_symmetry_cell_setting 'orthorhombic'
loop_
_space_group_symop_operation_xyz
x,y,z
-x,1/2-y,z
x,-y,1/2-z
1/2-x,y,-z
-x,-y,-z
x,1/2+y,-z
-x,y,1/2+z
1/2+x,-y,z
1/2+x,1/2+y,1/2+z
1/2-x,-y,1/2+z
1/2+x,1/2-y,-z
-x,1/2+y,1/2-z
1/2-x,1/2-y,1/2-z
1/2+x,y,1/2-z
1/2-x,1/2+y,z
x,1/2-y,1/2+z
loop_
_atom_site_type_symbol
_atom_site_label
_atom_site_fract_x
_atom_site_fract_y
_atom_site_fract_z
Si Si1 0.750000 0.942700 0.500000
Si Si2 0.612828 0.200743 0.431070
Si Si3 0.322551 0.469867 0.103529
Si Si4 0.500000 0.750000 0.363945
Si Si5 0.750000 0.877538 0.000000
Si Si6 0.986560 0.186717 0.721580
Si Si7 0.227272 0.853923 0.860918
O O1 0.809755 0.969555 0.548338
O O2 0.497747 0.910103 0.508390
O O3 0.500000 0.250000 0.459600
O O4 0.788412 0.161409 0.457964
O O5 0.403582 0.165954 0.406853
O O6 0.770826 0.230513 0.393569
O O7 0.563589 0.503213 0.117265
O O8 0.337748 0.410940 0.125686
O O9 0.590181 0.806281 0.343510
O O10 0.222936 0.178540 0.754342
O O11 0.023724 0.148120 0.678729
O O12 0.000000 0.250000 0.707880
#
# Coordination Sequence:
#
# PCOD9531893 Si02
#       7
#     8  16  16   8   8  16  16
#     4  12  24  46  66  92 126 176 239 299 338 380
#     4  10  23  37  58  92 130 182 220 270 337 412
#     4  12  27  46  71  97 131 183 235 290 339 399
#     4  10  22  38  66  96 130 184 212 282 338 412
#     4  12  24  38  64  90 130 176 221 281 336 406
#     4  10  23  40  68 106 140 174 213 268 340 416
#     4  11  24  44  68  98 140 174 231 278 351 410
#
# _framework density 21.962833
#
# number of rings (size 3 to 8) (size 9 to 14) (size 15 to 20)
#    0.000    1.091    1.818    4.364   12.727    0.000 
#    0.000    0.000    0.000    3.273    0.000    0.000 
#    0.000    0.000    0.000    0.000    0.000    0.000 
#
# Total GULP energy -245662.774250 kJ/mol
# GULP energy per Si atom -5583.244869 kJ/mol
# Density = 2.191284 g / cm^3
# Si number density = 21.962833 Si / 1000 Ang^3
#
#
#
# Elastic Constant Matrix: (Units=GPa)
#
#
# Indices 1 2 3 4 5 6 
#
# 1 119.5593 49.3386 15.0434 0.0000 0.0000 0.0000
# 2 49.3386 110.4452 32.1352 0.0000 0.0000 0.0000
# 3 15.0434 32.1352 55.8457 0.0000 0.0000 0.0000
# 4 0.0000 0.0000 0.0000 27.1406 0.0000 0.0000
# 5 0.0000 0.0000 0.0000 0.0000 16.2161 0.0000
# 6 0.0000 0.0000 0.0000 0.0000 0.0000 -87.4844
#
#
#
# Elastic Compliance Matrix: (Units=1/GPa)
#
#
# Indices 1 2 3 4 5 6 
#
# 1 0.010256 -0.004537 -0.000152 0.000000 0.000000 0.000000
# 2 -0.004537 0.012882 -0.006191 0.000000 0.000000 0.000000
# 3 -0.000152 -0.006191 0.021510 0.000000 0.000000 0.000000
# 4 0.000000 0.000000 0.000000 0.036845 0.000000 0.000000
# 5 0.000000 0.000000 0.000000 0.000000 0.061667 0.000000
# 6 0.000000 0.000000 0.000000 0.000000 0.000000 -0.011431
#
#
# Mechanical properties :
#
#
# Convention : Reuss Voigt Hill
#
# Bulk Modulus (GPa) = 43.69051 53.20940 48.44996
# Shear Modulus (GPa) = 31.03319 3.79666 17.41493
#
# Velocity S-wave (km/s) = 3.76305 1.31622 2.81895
# Velocity P-wave (km/s) = 6.23032 5.15650 5.71867
#
# Compressibility (1/GPa) = 0.02288827
#
# Stress axis : x y z
#
# Youngs Moduli (GPa) = 97.50833 77.62519 46.49081
#
# Poissons Ratio (x) = 0.35221 0.00705
# Poissons Ratio (y) = 0.44242 0.28781
# Poissons Ratio (z) = 0.01479 0.48055
#
# Static dielectric constant tensor:
#      x y z
#    x 1.830670 0.000000 0.000000 
#    y 0.000000 1.849070 0.000000 
#    z 0.000000 0.000000 1.723320 
# 
# From -- ./inp_files/2317.got.cif
#   From: 2010.05.17/outbox.cif.g08.bks.cpg/sg73_2_cif.got.tgz:2317.got - 2010.06.03 17:35:07.
