data_PCOD9531550
_publ_section_title
;
Structure prediction by ZEFSAII (Michael W. Deem and Ramdas Pophale) SiO2 
 PCOD9531550
Probable space group: I B C A 
;
_chemical_formula_sum "Si O2"
_cell_formula_units_Z 88
_cell_length_a 16.489330
_cell_length_b 31.409818
_cell_length_c 8.427845
_cell_angle_alpha 90.000000
_cell_angle_beta 90.000000
_cell_angle_gamma 90.000000
_cell_volume 4365.007249
_symmetry_space_group_name_H-M "I B C A "
_symmetry_group_IT_number 73
_symmetry_cell_setting 'orthorhombic'
loop_
_space_group_symop_operation_xyz
x,y,z
-x,1/2-y,z
x,-y,1/2-z
1/2-x,y,-z
-x,-y,-z
x,1/2+y,-z
-x,y,1/2+z
1/2+x,-y,z
1/2+x,1/2+y,1/2+z
1/2-x,-y,1/2+z
1/2+x,1/2-y,-z
-x,1/2+y,1/2-z
1/2-x,1/2-y,1/2-z
1/2+x,y,1/2-z
1/2-x,1/2+y,z
x,1/2-y,1/2+z
loop_
_atom_site_type_symbol
_atom_site_label
_atom_site_fract_x
_atom_site_fract_y
_atom_site_fract_z
Si Si1 0.960232 0.582212 0.810751
Si Si2 0.050852 0.143578 0.959297
Si Si3 0.340477 0.518326 0.565589
Si Si4 0.337687 0.281281 0.422523
Si Si5 0.928515 0.716999 0.115749
Si Si6 0.935770 0.000000 0.750000
O O1 0.922049 0.612730 0.680203
O O2 0.890152 0.562131 0.917920
O O3 0.007936 0.541830 0.738063
O O4 0.022991 0.612000 0.902889
O O5 0.972866 0.172513 0.913259
O O6 0.118279 0.177766 0.002776
O O7 0.339253 0.500000 0.750000
O O8 0.250000 0.523193 0.500000
O O9 0.386719 0.495057 0.416906
O O10 0.250000 0.277854 0.500000
O O11 0.353818 0.286709 0.236837
O O12 0.389716 0.239297 0.463876
O O13 0.000000 0.750000 0.169588
#
# Coordination Sequence:
#
# PCOD9531550 Si02
#       6
#    16  16  16  16  16   8
#     4  12  23  45  69  98 129 178 233 276 331 409
#     4  11  23  41  68  93 133 171 223 276 324 404
#     4  12  25  45  69 102 136 175 227 290 353 404
#     4  11  23  41  63  97 131 167 213 273 337 396
#     4  10  21  40  67  91 124 174 218 260 328 410
#     4  12  24  46  78  98 132 188 238 284 338 416
#
# _framework density 20.160333000000001
#
# number of rings (size 3 to 8) (size 9 to 14) (size 15 to 20)
#    0.000    0.727    5.455    3.818    2.545    0.000 
#    6.545    0.000    0.000    0.000    0.000    0.000 
#    0.000    0.000    0.000    0.000    0.000    0.000 
#
# Total GULP energy -245349.123241 kJ/mol
# GULP energy per Si atom -5576.116437 kJ/mol
# Density = 2.011445 g / cm^3
# Si number density = 20.160333 Si / 1000 Ang^3
#
#
#
# Elastic Constant Matrix: (Units=GPa)
#
#
# Indices 1 2 3 4 5 6 
#
# 1 88.6633 17.9275 17.9200 -0.0001 -0.0001 0.0001
# 2 17.9275 95.2609 21.5180 0.0012 -0.0009 0.0007
# 3 17.9200 21.5180 86.0908 0.0021 -0.0029 0.0025
# 4 -0.0001 0.0012 0.0021 29.1814 -0.0015 -0.0008
# 5 -0.0001 -0.0009 -0.0029 -0.0015 27.1658 0.0003
# 6 0.0001 0.0007 0.0025 -0.0008 0.0003 -1.3304
#
#
#
# Elastic Compliance Matrix: (Units=1/GPa)
#
#
# Indices 1 2 3 4 5 6 
#
# 1 0.012060 -0.001804 -0.002059 0.000000 0.000000 -0.000004
# 2 -0.001804 0.011396 -0.002473 0.000000 0.000000 0.000001
# 3 -0.002059 -0.002473 0.012662 -0.000001 0.000001 0.000023
# 4 0.000000 0.000000 -0.000001 0.034268 0.000002 -0.000021
# 5 0.000000 0.000000 0.000001 0.000002 0.036811 0.000009
# 6 -0.000004 0.000001 0.000023 -0.000021 0.000009 -0.751649
#
#
# Mechanical properties :
#
#
# Convention : Reuss Voigt Hill
#
# Bulk Modulus (GPa) = 42.65317 42.74956 42.70136
# Shear Modulus (GPa) = -8.01328 25.18002 8.58337
#
# Velocity S-wave (km/s) = -1.99585 3.53794 2.06562
# Velocity P-wave (km/s) = 3.98644 6.15956 5.18806
#
# Compressibility (1/GPa) = 0.02344492
#
# Stress axis : x y z
#
# Youngs Moduli (GPa) = 82.92106 87.75316 78.97448
#
# Poissons Ratio (x) = 0.15834 0.16263
# Poissons Ratio (y) = 0.14962 0.19528
# Poissons Ratio (z) = 0.17076 0.21699
#
# Static dielectric constant tensor:
#      x y z
#    x 1.698810 0.000000 0.000000 
#    y 0.000000 1.682710 0.000000 
#    z 0.000000 0.000000 1.824500 
# 
# From -- ./inp_files/5718.got.cif
#   From: 2010.05.17/outbox.cif.g08.bks.cpg/sg73_3_cif.got.tgz:5718.got - 2010.06.03 17:35:07.
