data_PCOD9531969
_publ_section_title
;
Structure prediction by ZEFSAII (Michael W. Deem and Ramdas Pophale) SiO2 
 PCOD9531969
Probable space group: I B C A 
;
_chemical_formula_sum "Si O2"
_cell_formula_units_Z 120
_cell_length_a 23.828075
_cell_length_b 24.092901
_cell_length_c 10.684476
_cell_angle_alpha 90.000000
_cell_angle_beta 90.000000
_cell_angle_gamma 90.000000
_cell_volume 6133.823603
_symmetry_space_group_name_H-M "I B C A "
_symmetry_group_IT_number 73
_symmetry_cell_setting 'orthorhombic'
loop_
_space_group_symop_operation_xyz
x,y,z
-x,1/2-y,z
x,-y,1/2-z
1/2-x,y,-z
-x,-y,-z
x,1/2+y,-z
-x,y,1/2+z
1/2+x,-y,z
1/2+x,1/2+y,1/2+z
1/2-x,-y,1/2+z
1/2+x,1/2-y,-z
-x,1/2+y,1/2-z
1/2-x,1/2-y,1/2-z
1/2+x,y,1/2-z
1/2-x,1/2+y,z
x,1/2-y,1/2+z
loop_
_atom_site_type_symbol
_atom_site_label
_atom_site_fract_x
_atom_site_fract_y
_atom_site_fract_z
Si Si1 0.119194 0.347055 0.610307
Si Si2 0.598913 0.200896 0.124687
Si Si3 0.862599 0.500000 0.750000
Si Si4 0.809788 0.763408 0.439382
Si Si5 0.141517 0.682759 0.222515
Si Si6 0.507503 0.637265 0.460474
Si Si7 0.554246 0.401947 0.303881
Si Si8 0.813252 0.917276 0.050275
O O1 0.105957 0.339584 0.756159
O O2 0.160800 0.295872 0.580982
O O3 0.146631 0.405439 0.569321
O O4 0.064052 0.339758 0.524596
O O5 0.607317 0.264017 0.172033
O O6 0.538782 0.184482 0.068188
O O7 0.650327 0.198918 0.027361
O O8 0.904427 0.453797 0.696389
O O9 0.827551 0.469594 0.860602
O O10 0.750000 0.756306 0.500000
O O11 0.808686 0.792602 0.305580
O O12 0.095312 0.650907 0.303601
O O13 0.169182 0.636756 0.133125
O O14 0.522434 0.605686 0.330329
O O15 0.482921 0.599209 0.571988
O O16 0.750000 0.917421 0.000000
#
# Coordination Sequence:
#
# PCOD9531969 Si02
#       8
#    16  16   8  16  16  16  16  16
#     4  11  23  39  61  95 135 174 220 265 328 396
#     4  11  23  37  60  99 139 176 221 256 317 405
#     4  10  24  48  70  94 124 168 224 288 354 396
#     4  11  23  38  59  93 135 181 220 256 317 397
#     4  10  22  40  60  96 134 180 213 266 321 399
#     4  12  22  42  64  97 132 178 217 272 327 403
#     4  11  23  43  66  94 130 168 224 275 348 389
#     4  11  23  45  71  93 126 172 223 281 342 399
#
# _framework density 19.563654
#
# number of rings (size 3 to 8) (size 9 to 14) (size 15 to 20)
#    0.000    1.067    6.667    0.400    1.867    3.733 
#    0.000    4.000    0.000    0.000    0.000    0.000 
#    0.000    0.000    0.000    0.000    0.000    0.000 
#
# Total GULP energy -334508.334560 kJ/mol
# GULP energy per Si atom -5575.138909 kJ/mol
# Density = 1.951913 g / cm^3
# Si number density = 19.563654 Si / 1000 Ang^3
#
#
#
# Elastic Constant Matrix: (Units=GPa)
#
#
# Indices 1 2 3 4 5 6 
#
# 1 134.8180 33.3416 40.4378 0.0000 0.0000 0.0000
# 2 33.3416 65.6002 45.7877 0.0000 0.0000 0.0000
# 3 40.4378 45.7877 81.1157 0.0000 0.0000 0.0000
# 4 0.0000 0.0000 0.0000 17.8503 0.0000 0.0000
# 5 0.0000 0.0000 0.0000 0.0000 43.9678 0.0000
# 6 0.0000 0.0000 0.0000 0.0000 0.0000 16.3641
#
#
#
# Elastic Compliance Matrix: (Units=1/GPa)
#
#
# Indices 1 2 3 4 5 6 
#
# 1 0.008938 -0.002364 -0.003121 0.000000 0.000000 0.000000
# 2 -0.002364 0.025780 -0.013373 0.000000 0.000000 0.000000
# 3 -0.003121 -0.013373 0.021433 0.000000 0.000000 0.000000
# 4 0.000000 0.000000 0.000000 0.056021 0.000000 0.000000
# 5 0.000000 0.000000 0.000000 0.000000 0.022744 0.000000
# 6 0.000000 0.000000 0.000000 0.000000 0.000000 0.061109
#
#
# Mechanical properties :
#
#
# Convention : Reuss Voigt Hill
#
# Bulk Modulus (GPa) = 54.25009 57.85204 56.05107
# Shear Modulus (GPa) = 20.84299 26.43423 23.63861
#
# Velocity S-wave (km/s) = 3.26758 3.67984 3.47982
# Velocity P-wave (km/s) = 6.48277 6.90582 6.69764
#
# Compressibility (1/GPa) = 0.01843315
#
# Stress axis : x y z
#
# Youngs Moduli (GPa) = 111.87746 38.78981 46.65682
#
# Poissons Ratio (x) = 0.09171 0.14563
# Poissons Ratio (y) = 0.26451 0.62396
# Poissons Ratio (z) = 0.34921 0.51875
#
# Static dielectric constant tensor:
#      x y z
#    x 1.685150 0.000000 0.000000 
#    y 0.000000 1.686050 0.000000 
#    z 0.000000 0.000000 1.812020 
# 
# From -- ./inp_files/13107.got.cif
#   From: 2010.05.17/outbox.cif.g08.bks.cpg/sg73_7_cif.got.tgz:13107.got - 2010.06.03 17:35:07.
