data_PCOD9531666
_publ_section_title
;
Structure prediction by ZEFSAII (Michael W. Deem and Ramdas Pophale) SiO2 
 PCOD9531666
Probable space group: I B C A 
;
_chemical_formula_sum "Si O2"
_cell_formula_units_Z 120
_cell_length_a 17.473803
_cell_length_b 20.927466
_cell_length_c 15.743592
_cell_angle_alpha 90.000000
_cell_angle_beta 90.000000
_cell_angle_gamma 90.000000
_cell_volume 5757.154793
_symmetry_space_group_name_H-M "I B C A "
_symmetry_group_IT_number 73
_symmetry_cell_setting 'orthorhombic'
loop_
_space_group_symop_operation_xyz
x,y,z
-x,1/2-y,z
x,-y,1/2-z
1/2-x,y,-z
-x,-y,-z
x,1/2+y,-z
-x,y,1/2+z
1/2+x,-y,z
1/2+x,1/2+y,1/2+z
1/2-x,-y,1/2+z
1/2+x,1/2-y,-z
-x,1/2+y,1/2-z
1/2-x,1/2-y,1/2-z
1/2+x,y,1/2-z
1/2-x,1/2+y,z
x,1/2-y,1/2+z
loop_
_atom_site_type_symbol
_atom_site_label
_atom_site_fract_x
_atom_site_fract_y
_atom_site_fract_z
Si Si1 0.262388 0.007980 0.101690
Si Si2 0.916781 0.057696 0.085388
Si Si3 0.427278 0.134882 0.712894
Si Si4 0.978871 0.073747 0.427767
Si Si5 0.142751 0.000000 0.250000
Si Si6 0.333066 0.744961 0.791056
Si Si7 0.679896 0.137825 0.567097
Si Si8 0.542657 0.693809 0.157067
O O1 0.328995 0.956012 0.106645
O O2 0.193123 0.994563 0.164115
O O3 0.290877 0.079096 0.125557
O O4 0.250000 0.012103 0.000000
O O5 0.934620 0.129178 0.111352
O O6 0.956600 0.992529 0.119777
O O7 0.951173 0.055945 0.990156
O O8 0.486104 0.123113 0.637322
O O9 0.360426 0.183248 0.686423
O O10 0.474157 0.172204 0.782836
O O11 0.402329 0.066580 0.749883
O O12 0.901091 0.106271 0.467112
O O13 0.250000 0.750000 0.750000
O O14 0.334230 0.698928 0.873548
O O15 0.388198 0.716245 0.717571
O O16 0.750000 0.150085 0.500000
O O17 0.500000 0.750000 0.103902
#
# Coordination Sequence:
#
# PCOD9531666 Si02
#       8
#    16  16  16  16   8  16  16  16
#     4  10  23  40  63 100 141 170 229 295 344 414
#     4  10  22  39  67  94 132 170 220 277 342 403
#     4  11  23  41  67  94 130 173 231 276 335 414
#     4  10  21  42  68  96 132 176 220 286 342 408
#     4  12  24  38  72 102 130 186 228 288 366 414
#     4  11  24  43  64  91 138 176 221 282 334 404
#     4  10  22  42  67  96 133 181 226 276 356 417
#     4  10  23  42  63  92 130 175 222 275 327 412
#
# _framework density 20.843630000000001
#
# number of rings (size 3 to 8) (size 9 to 14) (size 15 to 20)
#    0.000    1.600    1.333    2.400    3.733    6.400 
#    4.800    0.667    0.000    0.000    0.000    0.000 
#    0.000    0.000    0.000    0.000    0.000    0.000 
#
# Total GULP energy -334140.529515 kJ/mol
# GULP energy per Si atom -5569.008825 kJ/mol
# Density = 2.079619 g / cm^3
# Si number density = 20.843630 Si / 1000 Ang^3
#
#
#
# Elastic Constant Matrix: (Units=GPa)
#
#
# Indices 1 2 3 4 5 6 
#
# 1 105.5533 54.1169 19.1320 0.0000 0.0000 0.0000
# 2 54.1169 126.6601 13.3251 0.0000 0.0000 0.0000
# 3 19.1320 13.3251 27.1860 0.0000 0.0000 0.0000
# 4 0.0000 0.0000 0.0000 143.1296 0.0000 0.0000
# 5 0.0000 0.0000 0.0000 0.0000 24.3230 0.0000
# 6 0.0000 0.0000 0.0000 0.0000 0.0000 30.6804
#
#
#
# Elastic Compliance Matrix: (Units=1/GPa)
#
#
# Indices 1 2 3 4 5 6 
#
# 1 0.013258 -0.004938 -0.006910 0.000000 0.000000 0.000000
# 2 -0.004938 0.010163 -0.001507 0.000000 0.000000 0.000000
# 3 -0.006910 -0.001507 0.042385 0.000000 0.000000 0.000000
# 4 0.000000 0.000000 0.000000 0.006987 0.000000 0.000000
# 5 0.000000 0.000000 0.000000 0.000000 0.041113 0.000000
# 6 0.000000 0.000000 0.000000 0.000000 0.000000 0.032594
#
#
# Mechanical properties :
#
#
# Convention : Reuss Voigt Hill
#
# Bulk Modulus (GPa) = 25.57704 48.06083 36.81893
# Shear Modulus (GPa) = 26.84689 51.14830 38.99759
#
# Velocity S-wave (km/s) = 3.59278 4.95907 4.33015
# Velocity P-wave (km/s) = 5.43216 7.47647 6.53475
#
# Compressibility (1/GPa) = 0.03909756
#
# Stress axis : x y z
#
# Youngs Moduli (GPa) = 75.42702 98.39326 23.59327
#
# Poissons Ratio (x) = 0.48583 0.16303
# Poissons Ratio (y) = 0.37243 0.03555
# Poissons Ratio (z) = 0.52120 0.14825
#
# Static dielectric constant tensor:
#      x y z
#    x 1.763180 0.000000 0.000000 
#    y 0.000000 1.820290 0.000000 
#    z 0.000000 0.000000 1.810070 
# 
# From -- ./inp_files/22679.got.cif
#   From: 2010.05.17/outbox.cif.g08.bks.cpg/sg73_12_cif.got.tgz:22679.got - 2010.06.03 17:35:07.
