data_PCOD9531127
_publ_section_title
;
Structure prediction by ZEFSAII (Michael W. Deem and Ramdas Pophale) SiO2 
 PCOD9531127
Probable space group: I B C A 
;
_chemical_formula_sum "Si O2"
_cell_formula_units_Z 80
_cell_length_a 15.674142
_cell_length_b 11.392670
_cell_length_c 23.257446
_cell_angle_alpha 90.000000
_cell_angle_beta 90.000000
_cell_angle_gamma 90.000000
_cell_volume 4153.089745
_symmetry_space_group_name_H-M "I B C A "
_symmetry_group_IT_number 73
_symmetry_cell_setting 'orthorhombic'
loop_
_space_group_symop_operation_xyz
x,y,z
-x,1/2-y,z
x,-y,1/2-z
1/2-x,y,-z
-x,-y,-z
x,1/2+y,-z
-x,y,1/2+z
1/2+x,-y,z
1/2+x,1/2+y,1/2+z
1/2-x,-y,1/2+z
1/2+x,1/2-y,-z
-x,1/2+y,1/2-z
1/2-x,1/2-y,1/2-z
1/2+x,y,1/2-z
1/2-x,1/2+y,z
x,1/2-y,1/2+z
loop_
_atom_site_type_symbol
_atom_site_label
_atom_site_fract_x
_atom_site_fract_y
_atom_site_fract_z
Si Si1 0.661013 0.369714 0.242157
Si Si2 0.084794 0.684102 0.904132
Si Si3 0.500000 0.250000 0.516348
Si Si4 0.000000 0.250000 0.289497
Si Si5 0.422194 0.592787 0.386424
Si Si6 0.756821 0.274044 0.348429
O O1 0.628707 0.500000 0.250000
O O2 0.582633 0.280648 0.246966
O O3 0.729354 0.346694 0.291812
O O4 0.701205 0.342703 0.179717
O O5 0.082626 0.547050 0.888400
O O6 0.172230 0.742296 0.883063
O O7 0.000000 0.750000 0.880474
O O8 0.072306 0.702303 0.972814
O O9 0.533262 0.353467 0.557165
O O10 0.024478 0.142406 0.331858
O O11 0.329199 0.653375 0.381121
#
# Coordination Sequence:
#
# PCOD9531127 Si02
#       6
#    16  16   8   8  16  16
#     4  10  21  36  57  85 120 157 198 239 288 351
#     4  10  23  38  63  91 114 157 201 245 296 358
#     4   9  22  39  64  88 114 155 198 243 306 354
#     4   9  22  33  60  86 116 169 190 243 306 340
#     4  10  20  43  58  85 125 150 198 249 300 360
#     4  10  22  38  57  89 120 156 197 242 300 347
#
# _framework density 19.262767
#
# number of rings (size 3 to 8) (size 9 to 14) (size 15 to 20)
#    0.600    1.600    0.000    1.800    4.200    0.800 
#    3.600    4.000    0.000    0.000    0.000    0.000 
#    0.000    0.000    0.000    0.000    0.000    0.000 
#
# Total GULP energy -223082.989390 kJ/mol
# GULP energy per Si atom -5577.074735 kJ/mol
# Density = 1.921892 g / cm^3
# Si number density = 19.262767 Si / 1000 Ang^3
#
#
#
# Elastic Constant Matrix: (Units=GPa)
#
#
# Indices 1 2 3 4 5 6 
#
# 1 123.0774 29.0822 35.0070 0.0000 0.0000 0.0000
# 2 29.0822 105.1244 24.8210 0.0000 0.0000 0.0000
# 3 35.0070 24.8210 58.3381 0.0000 0.0000 0.0000
# 4 0.0000 0.0000 0.0000 11.6791 0.0000 0.0000
# 5 0.0000 0.0000 0.0000 0.0000 38.8861 0.0000
# 6 0.0000 0.0000 0.0000 0.0000 0.0000 18.8064
#
#
#
# Elastic Compliance Matrix: (Units=1/GPa)
#
#
# Indices 1 2 3 4 5 6 
#
# 1 0.010006 -0.001501 -0.005365 0.000000 0.000000 0.000000
# 2 -0.001501 0.010800 -0.003694 0.000000 0.000000 0.000000
# 3 -0.005365 -0.003694 0.021933 0.000000 0.000000 0.000000
# 4 0.000000 0.000000 0.000000 0.085623 0.000000 0.000000
# 5 0.000000 0.000000 0.000000 0.000000 0.025716 0.000000
# 6 0.000000 0.000000 0.000000 0.000000 0.000000 0.053173
#
#
# Mechanical properties :
#
#
# Convention : Reuss Voigt Hill
#
# Bulk Modulus (GPa) = 46.26006 51.59559 48.92782
# Shear Modulus (GPa) = 21.22434 27.04964 24.13699
#
# Velocity S-wave (km/s) = 3.32299 3.75139 3.54367
# Velocity P-wave (km/s) = 6.22819 6.75331 6.49606
#
# Compressibility (1/GPa) = 0.02161692
#
# Stress axis : x y z
#
# Youngs Moduli (GPa) = 99.94204 92.59180 45.59356
#
# Poissons Ratio (x) = 0.13900 0.24463
# Poissons Ratio (y) = 0.15003 0.16843
# Poissons Ratio (z) = 0.53624 0.34206
#
# Static dielectric constant tensor:
#      x y z
#    x 1.676120 0.000000 0.000000 
#    y 0.000000 1.660700 0.000000 
#    z 0.000000 0.000000 1.680050 
# 
# From -- ./inp_files/10855.got.cif
#   From: 2010.05.17/outbox.cif.g08.bks.cpg/sg73_6_cif.got.tgz:10855.got - 2010.06.03 17:35:07.
