data_PCOD9531017
_publ_section_title
;
Structure prediction by ZEFSAII (Michael W. Deem and Ramdas Pophale) SiO2 
 PCOD9531017
Probable space group: I B C A 
;
_chemical_formula_sum "Si O2"
_cell_formula_units_Z 64
_cell_length_a 17.085383
_cell_length_b 10.373014
_cell_length_c 15.498080
_cell_angle_alpha 90.000000
_cell_angle_beta 90.000000
_cell_angle_gamma 90.000000
_cell_volume 2746.676939
_symmetry_space_group_name_H-M "I B C A "
_symmetry_group_IT_number 73
_symmetry_cell_setting 'orthorhombic'
loop_
_space_group_symop_operation_xyz
x,y,z
-x,1/2-y,z
x,-y,1/2-z
1/2-x,y,-z
-x,-y,-z
x,1/2+y,-z
-x,y,1/2+z
1/2+x,-y,z
1/2+x,1/2+y,1/2+z
1/2-x,-y,1/2+z
1/2+x,1/2-y,-z
-x,1/2+y,1/2-z
1/2-x,1/2-y,1/2-z
1/2+x,y,1/2-z
1/2-x,1/2+y,z
x,1/2-y,1/2+z
loop_
_atom_site_type_symbol
_atom_site_label
_atom_site_fract_x
_atom_site_fract_y
_atom_site_fract_z
Si Si1 0.298977 0.980802 0.912543
Si Si2 0.026108 0.126374 0.821440
Si Si3 0.536640 0.883603 0.129906
Si Si4 0.696106 0.299160 0.174987
O O1 0.314732 0.833141 0.881073
O O2 0.380599 0.063562 0.905304
O O3 0.240301 0.076210 0.861855
O O4 0.250000 0.965882 0.000000
O O5 0.113541 0.149158 0.791497
O O6 0.000000 0.250000 0.874481
O O7 0.969077 0.124818 0.736584
O O8 0.021944 0.002657 0.881110
O O9 0.500000 0.750000 0.098214
O O10 0.750000 0.250000 0.250000
#
# Coordination Sequence:
#
# PCOD9531017 Si02
#       4
#    16  16  16  16
#     4  12  28  49  70 108 163 207 244 311 401 469
#     4  10  20  40  69 108 143 185 256 322 368 429
#     4  10  22  40  73 107 148 191 253 316 376 447
#     4  12  26  44  78 111 146 200 265 320 373 454
#
# _framework density 23.300884
#
# number of rings (size 3 to 8) (size 9 to 14) (size 15 to 20)
#    0.000    1.000    2.500    4.500   14.000    0.000 
#    0.000    2.500    0.000    0.000    0.000    0.000 
#    0.000    0.000    0.000    0.000    0.000    0.000 
#
# Total GULP energy -178156.774073 kJ/mol
# GULP energy per Si atom -5567.399190 kJ/mol
# Density = 2.324785 g / cm^3
# Si number density = 23.300884 Si / 1000 Ang^3
#
#
#
# Elastic Constant Matrix: (Units=GPa)
#
#
# Indices 1 2 3 4 5 6 
#
# 1 165.0264 25.0155 27.4762 0.0000 0.0000 0.0000
# 2 25.0155 135.0583 -1.2726 0.0000 0.0000 0.0000
# 3 27.4762 -1.2726 56.8705 0.0000 0.0000 0.0000
# 4 0.0000 0.0000 0.0000 14.0406 0.0000 0.0000
# 5 0.0000 0.0000 0.0000 0.0000 22.4939 0.0000
# 6 0.0000 0.0000 0.0000 0.0000 0.0000 38.9680
#
#
#
# Elastic Compliance Matrix: (Units=1/GPa)
#
#
# Indices 1 2 3 4 5 6 
#
# 1 0.006808 -0.001292 -0.003318 0.000000 0.000000 0.000000
# 2 -0.001292 0.007651 0.000796 0.000000 0.000000 0.000000
# 3 -0.003318 0.000796 0.019205 0.000000 0.000000 0.000000
# 4 0.000000 0.000000 0.000000 0.071222 0.000000 0.000000
# 5 0.000000 0.000000 0.000000 0.000000 0.044456 0.000000
# 6 0.000000 0.000000 0.000000 0.000000 0.000000 0.025662
#
#
# Mechanical properties :
#
#
# Convention : Reuss Voigt Hill
#
# Bulk Modulus (GPa) = 38.41111 51.04371 44.72741
# Shear Modulus (GPa) = 26.13530 35.48290 30.80910
#
# Velocity S-wave (km/s) = 3.35273 3.90656 3.64019
# Velocity P-wave (km/s) = 5.61323 6.50401 6.07497
#
# Compressibility (1/GPa) = 0.02603414
#
# Stress axis : x y z
#
# Youngs Moduli (GPa) = 146.88673 130.70101 52.07055
#
# Poissons Ratio (x) = 0.16890 0.17277
# Poissons Ratio (y) = 0.18981 -0.04142
# Poissons Ratio (z) = 0.48738 -0.10398
#
# Static dielectric constant tensor:
#      x y z
#    x 1.872040 0.000000 0.000000 
#    y 0.000000 5.194450 0.000000 
#    z 0.000000 0.000000 1.960730 
# 
# From -- ./inp_files/17643.got.cif
#   From: 2010.05.17/outbox.cif.g08.bks.cpg/sg73_9_cif.got.tgz:17643.got - 2010.06.03 17:35:07.
