data_PCOD9531406
_publ_section_title
;
Structure prediction by ZEFSAII (Michael W. Deem and Ramdas Pophale) SiO2 
 PCOD9531406
Probable space group: I B C A 
;
_chemical_formula_sum "Si O2"
_cell_formula_units_Z 120
_cell_length_a 8.570082
_cell_length_b 28.673222
_cell_length_c 22.474620
_cell_angle_alpha 90.000000
_cell_angle_beta 90.000000
_cell_angle_gamma 90.000000
_cell_volume 5522.730260
_symmetry_space_group_name_H-M "I B C A "
_symmetry_group_IT_number 73
_symmetry_cell_setting 'orthorhombic'
loop_
_space_group_symop_operation_xyz
x,y,z
-x,1/2-y,z
x,-y,1/2-z
1/2-x,y,-z
-x,-y,-z
x,1/2+y,-z
-x,y,1/2+z
1/2+x,-y,z
1/2+x,1/2+y,1/2+z
1/2-x,-y,1/2+z
1/2+x,1/2-y,-z
-x,1/2+y,1/2-z
1/2-x,1/2-y,1/2-z
1/2+x,y,1/2-z
1/2-x,1/2+y,z
x,1/2-y,1/2+z
loop_
_atom_site_type_symbol
_atom_site_label
_atom_site_fract_x
_atom_site_fract_y
_atom_site_fract_z
Si Si1 0.052122 0.137925 0.248863
Si Si2 0.091736 0.133244 0.984664
Si Si3 0.354445 0.612253 0.380966
Si Si4 0.634764 0.444058 0.312784
Si Si5 0.107604 0.000000 0.250000
Si Si6 0.312176 0.796162 0.280316
Si Si7 0.833757 0.273194 0.917259
Si Si8 0.848169 0.684780 0.940504
O O1 0.061842 0.120366 0.317387
O O2 0.217464 0.154837 0.223878
O O3 0.960762 0.100760 0.209433
O O4 0.968882 0.188005 0.248494
O O5 0.158367 0.177711 0.949211
O O6 0.971089 0.109518 0.937440
O O7 0.250000 0.105103 0.000000
O O8 0.003499 0.156107 0.042181
O O9 0.230091 0.570120 0.371854
O O10 0.247862 0.658366 0.389633
O O11 0.775037 0.458825 0.268200
O O12 0.506399 0.485001 0.304271
O O13 0.250000 0.750000 0.250000
O O14 0.337891 0.783077 0.348034
O O15 0.684581 0.239908 0.930383
O O16 0.000000 0.250000 0.935035
O O17 0.750000 0.676371 0.000000
#
# Coordination Sequence:
#
# PCOD9531406 Si02
#       8
#    16  16  16  16   8  16  16  16
#     4  12  22  41  58  90 131 174 211 256 317 384
#     4  11  25  41  59  84 116 168 236 298 324 363
#     4  11  21  41  62  89 126 166 202 259 331 386
#     4  11  22  41  69  98 138 164 195 255 311 414
#     4  10  22  42  68 106 138 156 200 236 324 404
#     4  12  24  37  54  83 131 178 227 262 307 382
#     4  12  21  37  58  80 119 175 231 289 336 366
#     4  10  21  39  60  80 117 166 228 288 330 358
#
# _framework density 21.728383999999998
#
# number of rings (size 3 to 8) (size 9 to 14) (size 15 to 20)
#    0.000    0.800    6.667    2.400    0.000    1.067 
#    4.800    1.333    0.000    0.000    0.000   12.133 
#    0.000    0.000    0.000    0.000    0.000    0.000 
#
# Total GULP energy -334315.869893 kJ/mol
# GULP energy per Si atom -5571.931165 kJ/mol
# Density = 2.167893 g / cm^3
# Si number density = 21.728384 Si / 1000 Ang^3
#
#
#
# Elastic Constant Matrix: (Units=GPa)
#
#
# Indices 1 2 3 4 5 6 
#
# 1 108.7087 23.0080 13.9976 0.0000 0.0000 0.0000
# 2 23.0080 48.4342 6.4008 0.0000 0.0000 0.0000
# 3 13.9976 6.4008 37.1376 0.0000 0.0000 0.0000
# 4 0.0000 0.0000 0.0000 7.1498 0.0000 0.0000
# 5 0.0000 0.0000 0.0000 0.0000 30.0387 0.0000
# 6 0.0000 0.0000 0.0000 0.0000 0.0000 35.0566
#
#
#
# Elastic Compliance Matrix: (Units=1/GPa)
#
#
# Indices 1 2 3 4 5 6 
#
# 1 0.010585 -0.004606 -0.003196 0.000000 0.000000 0.000000
# 2 -0.004606 0.023132 -0.002251 0.000000 0.000000 0.000000
# 3 -0.003196 -0.002251 0.028519 0.000000 0.000000 0.000000
# 4 0.000000 0.000000 0.000000 0.139864 0.000000 0.000000
# 5 0.000000 0.000000 0.000000 0.000000 0.033290 0.000000
# 6 0.000000 0.000000 0.000000 0.000000 0.000000 0.028525
#
#
# Mechanical properties :
#
#
# Convention : Reuss Voigt Hill
#
# Bulk Modulus (GPa) = 23.73533 31.23258 27.48396
# Shear Modulus (GPa) = 16.77484 24.50727 20.64106
#
# Velocity S-wave (km/s) = 2.78155 3.36205 3.08548
# Velocity P-wave (km/s) = 4.61122 5.42923 5.03686
#
# Compressibility (1/GPa) = 0.04213128
#
# Stress axis : x y z
#
# Youngs Moduli (GPa) = 94.47097 43.23004 35.06388
#
# Poissons Ratio (x) = 0.19912 0.11206
# Poissons Ratio (y) = 0.43514 0.07892
# Poissons Ratio (z) = 0.30192 0.09730
#
# Static dielectric constant tensor:
#      x y z
#    x 1.893540 0.000000 0.000000 
#    y 0.000000 1.835780 0.000000 
#    z 0.000000 0.000000 1.829840 
# 
# From -- ./inp_files/28524.got.cif
#   From: 2010.05.17/outbox.cif.g08.bks.cpg/sg73_15_cif.got.tgz:28524.got - 2010.06.03 17:35:07.
