data_PCOD9531445
_publ_section_title
;
Structure prediction by ZEFSAII (Michael W. Deem and Ramdas Pophale) SiO2 
 PCOD9531445
Probable space group: I B C A 
;
_chemical_formula_sum "Si O2"
_cell_formula_units_Z 104
_cell_length_a 20.120858
_cell_length_b 27.829426
_cell_length_c 9.567128
_cell_angle_alpha 90.000000
_cell_angle_beta 90.000000
_cell_angle_gamma 90.000000
_cell_volume 5357.131776
_symmetry_space_group_name_H-M "I B C A "
_symmetry_group_IT_number 73
_symmetry_cell_setting 'orthorhombic'
loop_
_space_group_symop_operation_xyz
x,y,z
-x,1/2-y,z
x,-y,1/2-z
1/2-x,y,-z
-x,-y,-z
x,1/2+y,-z
-x,y,1/2+z
1/2+x,-y,z
1/2+x,1/2+y,1/2+z
1/2-x,-y,1/2+z
1/2+x,1/2-y,-z
-x,1/2+y,1/2-z
1/2-x,1/2-y,1/2-z
1/2+x,y,1/2-z
1/2-x,1/2+y,z
x,1/2-y,1/2+z
loop_
_atom_site_type_symbol
_atom_site_label
_atom_site_fract_x
_atom_site_fract_y
_atom_site_fract_z
Si Si1 0.297860 0.964334 0.634695
Si Si2 0.576754 0.507372 0.465283
Si Si3 0.896660 0.083293 0.227426
Si Si4 0.225781 0.787480 0.858090
Si Si5 0.570305 0.808503 0.675350
Si Si6 0.500000 0.750000 0.925828
Si Si7 0.246927 0.394645 0.838385
O O1 0.250000 0.959382 0.500000
O O2 0.368934 0.983845 0.585545
O O3 0.304688 0.917337 0.730503
O O4 0.265698 0.000000 0.750000
O O5 0.500000 0.500000 0.500000
O O6 0.596279 0.457761 0.389514
O O7 0.582842 0.554383 0.366221
O O8 0.934613 0.133438 0.196162
O O9 0.818780 0.096197 0.230159
O O10 0.250000 0.750000 0.750000
O O11 0.148036 0.797550 0.846927
O O12 0.263537 0.838109 0.847145
O O13 0.250000 0.764823 0.000000
O O14 0.544986 0.780896 0.815790
O O15 0.534805 0.787169 0.535730
O O16 0.250000 0.413000 0.000000
#
# Coordination Sequence:
#
# PCOD9531445 Si02
#       7
#    16  16  16  16  16   8  16
#     4  12  23  39  64  91 121 165 213 264 317 391
#     4  11  25  41  60  92 129 168 218 266 322 382
#     4  10  22  43  63  87 131 170 209 271 318 381
#     4  10  21  39  63  94 131 164 204 273 330 381
#     4  10  22  41  67  93 130 169 219 266 324 389
#     4  10  22  42  64  98 122 176 220 266 318 394
#     4  10  21  41  65  94 123 167 217 262 326 389
#
# _framework density 19.413373
#
# number of rings (size 3 to 8) (size 9 to 14) (size 15 to 20)
#    0.000    1.538    1.538    3.231    4.308    0.615 
#    2.769    1.538    0.000    0.000    0.000    0.000 
#    0.000    0.000    0.000    0.000    0.000    0.000 
#
# Total GULP energy -289830.115244 kJ/mol
# GULP energy per Si atom -5573.656062 kJ/mol
# Density = 1.936919 g / cm^3
# Si number density = 19.413373 Si / 1000 Ang^3
#
#
#
# Elastic Constant Matrix: (Units=GPa)
#
#
# Indices 1 2 3 4 5 6 
#
# 1 61.1142 25.1970 43.6773 0.0000 0.0000 0.0000
# 2 25.1970 102.0060 74.5792 0.0000 0.0000 0.0000
# 3 43.6773 74.5792 166.4678 0.0000 0.0000 0.0000
# 4 0.0000 0.0000 0.0000 28.7651 0.0000 0.0000
# 5 0.0000 0.0000 0.0000 0.0000 24.6205 0.0000
# 6 0.0000 0.0000 0.0000 0.0000 0.0000 30.0451
#
#
#
# Elastic Compliance Matrix: (Units=1/GPa)
#
#
# Indices 1 2 3 4 5 6 
#
# 1 0.020328 -0.001668 -0.004586 0.000000 0.000000 0.000000
# 2 -0.001668 0.014715 -0.006155 0.000000 0.000000 0.000000
# 3 -0.004586 -0.006155 0.009968 0.000000 0.000000 0.000000
# 4 0.000000 0.000000 0.000000 0.034764 0.000000 0.000000
# 5 0.000000 0.000000 0.000000 0.000000 0.040616 0.000000
# 6 0.000000 0.000000 0.000000 0.000000 0.000000 0.033283
#
#
# Mechanical properties :
#
#
# Convention : Reuss Voigt Hill
#
# Bulk Modulus (GPa) = 49.52261 68.49946 59.01104
# Shear Modulus (GPa) = 26.99405 29.09510 28.04457
#
# Velocity S-wave (km/s) = 3.73297 3.87552 3.80491
# Velocity P-wave (km/s) = 6.64417 7.44228 7.05452
#
# Compressibility (1/GPa) = 0.02019280
#
# Stress axis : x y z
#
# Youngs Moduli (GPa) = 49.19236 67.95562 100.32100
#
# Poissons Ratio (x) = 0.11337 0.46010
# Poissons Ratio (y) = 0.08206 0.61747
# Poissons Ratio (z) = 0.22561 0.41827
#
# Static dielectric constant tensor:
#      x y z
#    x 1.629520 0.000000 0.000000 
#    y 0.000000 1.761140 0.000000 
#    z 0.000000 0.000000 1.690840 
# 
# From -- ./inp_files/6587.got.cif
#   From: 2010.05.17/outbox.cif.g08.bks.cpg/sg73_4_cif.got.tgz:6587.got - 2010.06.03 17:35:07.
