data_PCOD9531423
_publ_section_title
;
Structure prediction by ZEFSAII (Michael W. Deem and Ramdas Pophale) SiO2 
 PCOD9531423
Probable space group: I B C A 
;
_chemical_formula_sum "Si O2"
_cell_formula_units_Z 112
_cell_length_a 11.774282
_cell_length_b 21.936094
_cell_length_c 19.107776
_cell_angle_alpha 90.000000
_cell_angle_beta 90.000000
_cell_angle_gamma 90.000000
_cell_volume 4935.189953
_symmetry_space_group_name_H-M "I B C A "
_symmetry_group_IT_number 73
_symmetry_cell_setting 'orthorhombic'
loop_
_space_group_symop_operation_xyz
x,y,z
-x,1/2-y,z
x,-y,1/2-z
1/2-x,y,-z
-x,-y,-z
x,1/2+y,-z
-x,y,1/2+z
1/2+x,-y,z
1/2+x,1/2+y,1/2+z
1/2-x,-y,1/2+z
1/2+x,1/2-y,-z
-x,1/2+y,1/2-z
1/2-x,1/2-y,1/2-z
1/2+x,y,1/2-z
1/2-x,1/2+y,z
x,1/2-y,1/2+z
loop_
_atom_site_type_symbol
_atom_site_label
_atom_site_fract_x
_atom_site_fract_y
_atom_site_fract_z
Si Si1 0.000000 0.750000 0.198933
Si Si2 0.305657 0.379493 0.797661
Si Si3 0.344604 0.943538 0.595130
Si Si4 0.918022 0.571867 0.137406
Si Si5 0.271845 0.300391 0.653268
Si Si6 0.873254 0.107168 0.442247
Si Si7 0.038004 0.162003 0.176373
Si Si8 0.431398 0.500000 0.750000
O O1 0.122824 0.745180 0.162269
O O2 0.016410 0.810736 0.246396
O O3 0.188516 0.390246 0.836849
O O4 0.283913 0.341842 0.725116
O O5 0.406108 0.348453 0.843641
O O6 0.352084 0.447418 0.781986
O O7 0.207372 0.942632 0.596660
O O8 0.377944 0.910453 0.522682
O O9 0.401862 0.902742 0.656304
O O10 0.381783 0.012715 0.593298
O O11 0.005398 0.610829 0.092610
O O12 0.987402 0.539634 0.199870
O O13 0.304333 0.333893 0.581557
O O14 0.135594 0.290708 0.649531
#
# Coordination Sequence:
#
# PCOD9531423 Si02
#       8
#     8  16  16  16  16  16  16   8
#     4  10  22  38  66  96 112 148 206 270 332 380
#     4  11  22  32  55  87 123 153 200 254 311 369
#     4  10  22  39  60  81 123 167 205 245 298 376
#     4  12  22  34  57  88 123 165 207 249 298 371
#     4  10  21  39  62  87 119 154 201 261 319 375
#     4  10  22  40  58  84 119 165 210 242 299 370
#     4  10  21  40  57  87 117 156 196 256 323 371
#     4  12  20  32  50  84 122 156 200 246 308 364
#
# _framework density 22.694163
#
# number of rings (size 3 to 8) (size 9 to 14) (size 15 to 20)
#    0.000    1.429    2.857    3.000    6.000    0.000 
#    0.000    0.714    0.000    0.000    0.000    0.000 
#    0.000    0.000    0.000    0.000    0.000    0.000 
#
# Total GULP energy -312025.987991 kJ/mol
# GULP energy per Si atom -5571.892643 kJ/mol
# Density = 2.264251 g / cm^3
# Si number density = 22.694163 Si / 1000 Ang^3
#
#
#
# Elastic Constant Matrix: (Units=GPa)
#
#
# Indices 1 2 3 4 5 6 
#
# 1 194.6856 34.0335 47.4224 0.0000 0.0000 0.0000
# 2 34.0335 65.0498 22.9238 0.0000 0.0000 0.0000
# 3 47.4224 22.9238 73.1917 0.0000 0.0000 0.0000
# 4 0.0000 0.0000 0.0000 12.1661 0.0000 0.0000
# 5 0.0000 0.0000 0.0000 0.0000 25.3644 0.0000
# 6 0.0000 0.0000 0.0000 0.0000 0.0000 37.9023
#
#
#
# Elastic Compliance Matrix: (Units=1/GPa)
#
#
# Indices 1 2 3 4 5 6 
#
# 1 0.006345 -0.002103 -0.003452 0.000000 0.000000 0.000000
# 2 -0.002103 0.017977 -0.004268 0.000000 0.000000 0.000000
# 3 -0.003452 -0.004268 0.017236 0.000000 0.000000 0.000000
# 4 0.000000 0.000000 0.000000 0.082196 0.000000 0.000000
# 5 0.000000 0.000000 0.000000 0.000000 0.039425 0.000000
# 6 0.000000 0.000000 0.000000 0.000000 0.000000 0.026384
#
#
# Mechanical properties :
#
#
# Convention : Reuss Voigt Hill
#
# Bulk Modulus (GPa) = 45.63732 60.18739 52.91236
# Shear Modulus (GPa) = 23.09320 30.32306 26.70813
#
# Velocity S-wave (km/s) = 3.19342 3.65932 3.43428
# Velocity P-wave (km/s) = 5.80953 6.66579 6.25234
#
# Compressibility (1/GPa) = 0.02191189
#
# Stress axis : x y z
#
# Youngs Moduli (GPa) = 157.60228 55.62614 58.01692
#
# Poissons Ratio (x) = 0.11698 0.20030
# Poissons Ratio (y) = 0.33144 0.24761
# Poissons Ratio (z) = 0.54411 0.23741
#
# Static dielectric constant tensor:
#      x y z
#    x 1.923720 0.000000 0.000000 
#    y 0.000000 1.939790 0.000000 
#    z 0.000000 0.000000 1.844460 
# 
# From -- ./inp_files/25607.got.cif
#   From: 2010.05.17/outbox.cif.g08.bks.cpg/sg73_13_cif.got.tgz:25607.got - 2010.06.03 17:35:07.
