data_PCOD9531714
_publ_section_title
;
Structure prediction by ZEFSAII (Michael W. Deem and Ramdas Pophale) SiO2 
 PCOD9531714
Probable space group: I B C A 
;
_chemical_formula_sum "Si O2"
_cell_formula_units_Z 120
_cell_length_a 14.116911
_cell_length_b 18.126342
_cell_length_c 23.108016
_cell_angle_alpha 90.000000
_cell_angle_beta 90.000000
_cell_angle_gamma 90.000000
_cell_volume 5913.062999
_symmetry_space_group_name_H-M "I B C A "
_symmetry_group_IT_number 73
_symmetry_cell_setting 'orthorhombic'
loop_
_space_group_symop_operation_xyz
x,y,z
-x,1/2-y,z
x,-y,1/2-z
1/2-x,y,-z
-x,-y,-z
x,1/2+y,-z
-x,y,1/2+z
1/2+x,-y,z
1/2+x,1/2+y,1/2+z
1/2-x,-y,1/2+z
1/2+x,1/2-y,-z
-x,1/2+y,1/2-z
1/2-x,1/2-y,1/2-z
1/2+x,y,1/2-z
1/2-x,1/2+y,z
x,1/2-y,1/2+z
loop_
_atom_site_type_symbol
_atom_site_label
_atom_site_fract_x
_atom_site_fract_y
_atom_site_fract_z
Si Si1 0.933154 0.318359 0.857428
Si Si2 0.655132 0.053479 0.832644
Si Si3 0.228564 0.334853 0.261834
Si Si4 0.235858 0.870445 0.930402
Si Si5 0.511654 0.000000 0.250000
Si Si6 0.239036 0.203950 0.932876
Si Si7 0.691699 0.424683 0.853571
Si Si8 0.085591 0.062866 0.360026
O O1 0.862156 0.335815 0.804818
O O2 0.868616 0.293241 0.910766
O O3 0.000000 0.250000 0.841129
O O4 0.992192 0.390836 0.874199
O O5 0.704792 0.117061 0.794122
O O6 0.653307 0.082941 0.898578
O O7 0.560017 0.035159 0.797471
O O8 0.723825 0.982004 0.836245
O O9 0.250000 0.250000 0.250000
O O10 0.313728 0.372320 0.297776
O O11 0.218277 0.784058 0.918539
O O12 0.330179 0.895191 0.894493
O O13 0.250000 0.881300 0.000000
O O14 0.575470 0.054083 0.210254
O O15 0.282332 0.132723 0.902749
O O16 0.250000 0.194742 0.000000
O O17 0.606936 0.477228 0.873696
#
# Coordination Sequence:
#
# PCOD9531714 Si02
#       8
#    16  16  16  16   8  16  16  16
#     4  11  21  40  64 103 130 165 220 280 344 389
#     4  11  20  40  61  91 135 172 217 272 329 411
#     4  11  22  37  64  96 131 176 223 266 323 410
#     4  10  23  42  69  95 124 176 233 279 331 403
#     4  12  22  38  62  96 136 182 200 276 354 388
#     4  10  21  43  68  91 126 176 234 275 327 409
#     4  10  22  36  59  90 128 170 221 262 334 391
#     4  11  24  39  65  98 135 167 220 281 340 399
#
# _framework density 20.294052000000001
#
# number of rings (size 3 to 8) (size 9 to 14) (size 15 to 20)
#    0.000    1.333    4.000    2.400    5.600    2.133 
#    0.000    2.667    0.000    0.000    0.000    0.000 
#    0.000    0.000    0.000    0.000    0.000    0.000 
#
# Total GULP energy -334260.842393 kJ/mol
# GULP energy per Si atom -5571.014040 kJ/mol
# Density = 2.024786 g / cm^3
# Si number density = 20.294052 Si / 1000 Ang^3
#
#
#
# Elastic Constant Matrix: (Units=GPa)
#
#
# Indices 1 2 3 4 5 6 
#
# 1 57.9446 27.0081 41.0698 0.0000 0.0000 0.0000
# 2 27.0081 153.8716 57.6077 0.0000 0.0000 0.0000
# 3 41.0698 57.6077 116.7643 0.0000 0.0000 0.0000
# 4 0.0000 0.0000 0.0000 41.7522 0.0000 0.0000
# 5 0.0000 0.0000 0.0000 0.0000 18.3240 0.0000
# 6 0.0000 0.0000 0.0000 0.0000 0.0000 31.7583
#
#
#
# Elastic Compliance Matrix: (Units=1/GPa)
#
#
# Indices 1 2 3 4 5 6 
#
# 1 0.023182 -0.001247 -0.007539 0.000000 0.000000 0.000000
# 2 -0.001247 0.008038 -0.003527 0.000000 0.000000 0.000000
# 3 -0.007539 -0.003527 0.012956 0.000000 0.000000 0.000000
# 4 0.000000 0.000000 0.000000 0.023951 0.000000 0.000000
# 5 0.000000 0.000000 0.000000 0.000000 0.054573 0.000000
# 6 0.000000 0.000000 0.000000 0.000000 0.000000 0.031488
#
#
# Mechanical properties :
#
#
# Convention : Reuss Voigt Hill
#
# Bulk Modulus (GPa) = 51.14805 64.43910 57.79358
# Shear Modulus (GPa) = 26.97863 31.89322 29.43593
#
# Velocity S-wave (km/s) = 3.65003 3.96858 3.81264
# Velocity P-wave (km/s) = 6.55910 7.26782 6.92254
#
# Compressibility (1/GPa) = 0.01955109
#
# Stress axis : x y z
#
# Youngs Moduli (GPa) = 43.13627 124.40377 77.18264
#
# Poissons Ratio (x) = 0.15508 0.58188
# Poissons Ratio (y) = 0.05377 0.27225
# Poissons Ratio (z) = 0.32520 0.43882
#
# Static dielectric constant tensor:
#      x y z
#    x 1.793550 0.000000 0.000000 
#    y 0.000000 1.764810 0.000000 
#    z 0.000000 0.000000 1.708210 
# 
# From -- ./inp_files/29669.got.cif
#   From: 2010.05.17/outbox.cif.g08.bks.cpg/sg73_15_cif.got.tgz:29669.got - 2010.06.03 17:35:07.
