data_PCOD9531831
_publ_section_title
;
Structure prediction by ZEFSAII (Michael W. Deem and Ramdas Pophale) SiO2 
 PCOD9531831
Probable space group: I B C A 
;
_chemical_formula_sum "Si O2"
_cell_formula_units_Z 72
_cell_length_a 13.383322
_cell_length_b 8.835556
_cell_length_c 28.359651
_cell_angle_alpha 90.000000
_cell_angle_beta 90.000000
_cell_angle_gamma 90.000000
_cell_volume 3353.502952
_symmetry_space_group_name_H-M "I B C A "
_symmetry_group_IT_number 73
_symmetry_cell_setting 'orthorhombic'
loop_
_space_group_symop_operation_xyz
x,y,z
-x,1/2-y,z
x,-y,1/2-z
1/2-x,y,-z
-x,-y,-z
x,1/2+y,-z
-x,y,1/2+z
1/2+x,-y,z
1/2+x,1/2+y,1/2+z
1/2-x,-y,1/2+z
1/2+x,1/2-y,-z
-x,1/2+y,1/2-z
1/2-x,1/2-y,1/2-z
1/2+x,y,1/2-z
1/2-x,1/2+y,z
x,1/2-y,1/2+z
loop_
_atom_site_type_symbol
_atom_site_label
_atom_site_fract_x
_atom_site_fract_y
_atom_site_fract_z
Si Si1 0.244357 0.258330 0.346348
Si Si2 0.343365 0.886849 0.061270
Si Si3 0.750000 0.852712 0.000000
Si Si4 0.043785 0.907758 0.617790
Si Si5 0.384633 0.502655 0.304035
O O1 0.284625 0.180133 0.393892
O O2 0.152818 0.367070 0.361607
O O3 0.332234 0.349411 0.321256
O O4 0.197580 0.133509 0.312003
O O5 0.334706 0.757944 0.021481
O O6 0.446566 0.955517 0.080732
O O7 0.289686 0.035126 0.039994
O O8 0.000000 0.750000 0.597679
O O9 0.973639 0.956883 0.660586
O O10 0.416622 0.500000 0.250000
#
# Coordination Sequence:
#
# PCOD9531831 Si02
#       5
#    16  16   8  16  16
#     4  11  21  44  70  92 139 183 216 278 349 395
#     4  11  20  43  68 102 131 178 215 277 349 390
#     4  10  22  36  80 102 124 174 238 272 320 436
#     4  10  23  42  66  97 142 174 217 284 337 399
#     4  11  24  42  68 101 133 182 235 278 324 404
#
# _framework density 21.470085999999998
#
# number of rings (size 3 to 8) (size 9 to 14) (size 15 to 20)
#    0.000    1.333    4.444    0.667    0.000    1.778 
#   12.000    1.111    0.000    0.000    0.000    0.000 
#    0.000    0.000    0.000    0.000    0.000    0.000 
#
# Total GULP energy -201166.300122 kJ/mol
# GULP energy per Si atom -5587.952781 kJ/mol
# Density = 2.142122 g / cm^3
# Si number density = 21.470086 Si / 1000 Ang^3
#
#
#
# Elastic Constant Matrix: (Units=GPa)
#
#
# Indices 1 2 3 4 5 6 
#
# 1 65.9609 41.9736 36.9859 0.0000 0.0000 0.0000
# 2 41.9736 127.3090 71.0128 0.0000 0.0000 0.0000
# 3 36.9859 71.0128 97.5501 0.0000 0.0000 0.0000
# 4 0.0000 0.0000 0.0000 31.0196 0.0000 0.0000
# 5 0.0000 0.0000 0.0000 0.0000 27.2130 0.0000
# 6 0.0000 0.0000 0.0000 0.0000 0.0000 -5.0049
#
#
#
# Elastic Compliance Matrix: (Units=1/GPa)
#
#
# Indices 1 2 3 4 5 6 
#
# 1 0.020432 -0.004067 -0.004786 0.000000 0.000000 0.000000
# 2 -0.004067 0.014034 -0.008675 0.000000 0.000000 0.000000
# 3 -0.004786 -0.008675 0.018381 0.000000 0.000000 0.000000
# 4 0.000000 0.000000 0.000000 0.032238 0.000000 0.000000
# 5 0.000000 0.000000 0.000000 0.000000 0.036747 0.000000
# 6 0.000000 0.000000 0.000000 0.000000 0.000000 -0.199806
#
#
# Mechanical properties :
#
#
# Convention : Reuss Voigt Hill
#
# Bulk Modulus (GPa) = 56.20558 65.64049 60.92303
# Shear Modulus (GPa) = -135.17886 20.03539 -57.57174
#
# Velocity S-wave (km/s) = -7.94344 3.05811 -5.18392
# Velocity P-wave (km/s) = 7.60891 6.56572 2.71908
#
# Compressibility (1/GPa) = 0.01779183
#
# Stress axis : x y z
#
# Youngs Moduli (GPa) = 48.94259 71.25375 54.40473
#
# Poissons Ratio (x) = 0.28976 0.26041
# Poissons Ratio (y) = 0.19903 0.47194
# Poissons Ratio (z) = 0.23426 0.61810
#
# Static dielectric constant tensor:
#      x y z
#    x 1.769560 0.000000 0.000000 
#    y 0.000000 1.820740 0.000000 
#    z 0.000000 0.000000 1.774670 
# 
# From -- ./inp_files/4767.got.cif
#   From: 2010.05.17/outbox.cif.g08.bks.cpg/sg73_3_cif.got.tgz:4767.got - 2010.06.03 17:35:07.
