data_PCOD9531336
_publ_section_title
;
Structure prediction by ZEFSAII (Michael W. Deem and Ramdas Pophale) SiO2 
 PCOD9531336
Probable space group: I B C A 
;
_chemical_formula_sum "Si O2"
_cell_formula_units_Z 112
_cell_length_a 21.263239
_cell_length_b 12.966981
_cell_length_c 19.638514
_cell_angle_alpha 90.000000
_cell_angle_beta 90.000000
_cell_angle_gamma 90.000000
_cell_volume 5414.731396
_symmetry_space_group_name_H-M "I B C A "
_symmetry_group_IT_number 73
_symmetry_cell_setting 'orthorhombic'
loop_
_space_group_symop_operation_xyz
x,y,z
-x,1/2-y,z
x,-y,1/2-z
1/2-x,y,-z
-x,-y,-z
x,1/2+y,-z
-x,y,1/2+z
1/2+x,-y,z
1/2+x,1/2+y,1/2+z
1/2-x,-y,1/2+z
1/2+x,1/2-y,-z
-x,1/2+y,1/2-z
1/2-x,1/2-y,1/2-z
1/2+x,y,1/2-z
1/2-x,1/2+y,z
x,1/2-y,1/2+z
loop_
_atom_site_type_symbol
_atom_site_label
_atom_site_fract_x
_atom_site_fract_y
_atom_site_fract_z
Si Si1 0.083695 0.587523 0.694711
Si Si2 0.486339 0.140052 0.414204
Si Si3 0.359947 0.646846 0.507052
Si Si4 0.351073 0.726241 0.865359
Si Si5 0.557229 0.048908 0.680397
Si Si6 0.276513 0.299259 0.425490
Si Si7 0.114479 0.547277 0.935870
O O1 0.099364 0.500000 0.750000
O O2 0.124824 0.691164 0.690761
O O3 0.096155 0.531107 0.623497
O O4 0.008609 0.606748 0.698721
O O5 0.500000 0.250000 0.378343
O O6 0.429494 0.161113 0.464572
O O7 0.549022 0.102650 0.453394
O O8 0.463530 0.048334 0.365559
O O9 0.356860 0.717248 0.439164
O O10 0.306883 0.687294 0.558655
O O11 0.354712 0.525733 0.492174
O O12 0.394835 0.626282 0.856191
O O13 0.277208 0.699363 0.868653
O O14 0.583818 0.000000 0.750000
O O15 0.250000 0.332647 0.500000
O O16 0.335401 0.371203 0.409748
#
# Coordination Sequence:
#
# PCOD9531336 Si02
#       7
#    16  16  16  16  16  16  16
#     4   9  20  40  66  89 120 162 213 265 326 374
#     4  11  22  37  63  96 127 159 210 274 333 386
#     4  10  22  38  62  92 128 164 210 263 328 393
#     4  10  22  42  62  94 124 169 217 258 326 396
#     4  10  23  41  64  94 124 171 211 272 327 385
#     4  10  22  39  57  87 126 170 205 251 319 389
#     4  10  21  38  59  91 123 166 204 258 325 389
#
# _framework density 20.684313
#
# number of rings (size 3 to 8) (size 9 to 14) (size 15 to 20)
#    0.000    2.000    1.429    0.857    4.000    9.714 
#    0.000    1.429    0.000    0.000    0.000    0.000 
#    0.000    0.000    0.000    0.000    0.000    0.000 
#
# Total GULP energy -312296.481008 kJ/mol
# GULP energy per Si atom -5576.722875 kJ/mol
# Density = 2.063723 g / cm^3
# Si number density = 20.684313 Si / 1000 Ang^3
#
#
#
# Elastic Constant Matrix: (Units=GPa)
#
#
# Indices 1 2 3 4 5 6 
#
# 1 113.5629 42.0906 13.1892 0.0000 0.0000 0.0000
# 2 42.0906 109.0416 15.3509 0.0000 0.0000 0.0000
# 3 13.1892 15.3509 14.2497 0.0000 0.0000 0.0000
# 4 0.0000 0.0000 0.0000 14.9851 0.0000 0.0000
# 5 0.0000 0.0000 0.0000 0.0000 20.1640 0.0000
# 6 0.0000 0.0000 0.0000 0.0000 0.0000 55.0775
#
#
#
# Elastic Compliance Matrix: (Units=1/GPa)
#
#
# Indices 1 2 3 4 5 6 
#
# 1 0.010758 -0.003243 -0.006464 0.000000 0.000000 0.000000
# 2 -0.003243 0.011788 -0.009697 0.000000 0.000000 0.000000
# 3 -0.006464 -0.009697 0.086607 0.000000 0.000000 0.000000
# 4 0.000000 0.000000 0.000000 0.066733 0.000000 0.000000
# 5 0.000000 0.000000 0.000000 0.000000 0.049593 0.000000
# 6 0.000000 0.000000 0.000000 0.000000 0.000000 0.018156
#
#
# Mechanical properties :
#
#
# Convention : Reuss Voigt Hill
#
# Bulk Modulus (GPa) = 14.21577 42.01284 28.11430
# Shear Modulus (GPa) = 16.34559 29.12686 22.73622
#
# Velocity S-wave (km/s) = 2.81417 3.75662 3.31902
# Velocity P-wave (km/s) = 4.17697 6.25874 5.32066
#
# Compressibility (1/GPa) = 0.07034443
#
# Stress axis : x y z
#
# Youngs Moduli (GPa) = 92.95119 84.83418 11.54638
#
# Poissons Ratio (x) = 0.27509 0.07464
# Poissons Ratio (y) = 0.30141 0.11197
# Poissons Ratio (z) = 0.60087 0.82266
#
# Static dielectric constant tensor:
#      x y z
#    x 1.753930 0.000000 0.000000 
#    y 0.000000 1.810310 0.000000 
#    z 0.000000 0.000000 1.764010 
# 
# From -- ./inp_files/30157.got.cif
#   From: 2010.05.17/outbox.cif.g08.bks.cpg/sg73_16_cif.got.tgz:30157.got - 2010.06.03 17:35:07.
