data_PCOD9531131
_publ_section_title
;
Structure prediction by ZEFSAII (Michael W. Deem and Ramdas Pophale) SiO2 
 PCOD9531131
Probable space group: I B C A 
;
_chemical_formula_sum "Si O2"
_cell_formula_units_Z 72
_cell_length_a 17.874476
_cell_length_b 13.773256
_cell_length_c 15.177336
_cell_angle_alpha 90.000000
_cell_angle_beta 90.000000
_cell_angle_gamma 90.000000
_cell_volume 3736.504310
_symmetry_space_group_name_H-M "I B C A "
_symmetry_group_IT_number 73
_symmetry_cell_setting 'orthorhombic'
loop_
_space_group_symop_operation_xyz
x,y,z
-x,1/2-y,z
x,-y,1/2-z
1/2-x,y,-z
-x,-y,-z
x,1/2+y,-z
-x,y,1/2+z
1/2+x,-y,z
1/2+x,1/2+y,1/2+z
1/2-x,-y,1/2+z
1/2+x,1/2-y,-z
-x,1/2+y,1/2-z
1/2-x,1/2-y,1/2-z
1/2+x,y,1/2-z
1/2-x,1/2+y,z
x,1/2-y,1/2+z
loop_
_atom_site_type_symbol
_atom_site_label
_atom_site_fract_x
_atom_site_fract_y
_atom_site_fract_z
Si Si1 0.861996 0.019259 0.849009
Si Si2 0.652787 0.808756 0.076967
Si Si3 0.423679 0.296433 0.766044
Si Si4 0.179812 0.734860 0.609870
Si Si5 0.990276 0.000000 0.250000
O O1 0.830100 0.118630 0.887151
O O2 0.951036 0.027967 0.827813
O O3 0.829898 0.000000 0.750000
O O4 0.848028 0.924091 0.906816
O O5 0.594992 0.759613 0.144083
O O6 0.734147 0.766378 0.102611
O O7 0.640009 0.779168 0.976286
O O8 0.500000 0.250000 0.729339
O O9 0.357650 0.276077 0.697840
O O10 0.440413 0.409353 0.777380
#
# Coordination Sequence:
#
# PCOD9531131 Si02
#       5
#    16  16  16  16   8
#     4  10  20  43  67  89 137 173 207 274 325 368
#     4  11  25  42  68  98 132 169 219 271 322 387
#     4  12  21  42  63  95 127 173 215 261 321 383
#     4  11  25  42  68  98 132 169 219 271 322 387
#     4  10  22  38  66  96 126 172 224 254 326 390
#
# _framework density 19.269347
#
# number of rings (size 3 to 8) (size 9 to 14) (size 15 to 20)
#    0.667    0.444    6.667    0.667    0.000    8.000 
#    0.000    2.222    0.000    0.000    0.000    0.000 
#    0.000    0.000    0.000    0.000    0.000    0.000 
#
# Total GULP energy -200939.290313 kJ/mol
# GULP energy per Si atom -5581.646953 kJ/mol
# Density = 1.922549 g / cm^3
# Si number density = 19.269347 Si / 1000 Ang^3
#
#
#
# Elastic Constant Matrix: (Units=GPa)
#
#
# Indices 1 2 3 4 5 6 
#
# 1 35.2066 21.8256 -5.3846 0.0000 0.0000 0.0000
# 2 21.8256 148.5474 18.0051 0.0000 0.0000 0.0000
# 3 -5.3846 18.0051 70.7281 0.0000 0.0000 0.0000
# 4 0.0000 0.0000 0.0000 32.5726 0.0000 0.0000
# 5 0.0000 0.0000 0.0000 0.0000 -4.8979 0.0000
# 6 0.0000 0.0000 0.0000 0.0000 0.0000 26.1597
#
#
#
# Elastic Compliance Matrix: (Units=1/GPa)
#
#
# Indices 1 2 3 4 5 6 
#
# 1 0.032197 -0.005188 0.003772 0.000000 0.000000 0.000000
# 2 -0.005188 0.007782 -0.002376 0.000000 0.000000 0.000000
# 3 0.003772 -0.002376 0.015031 0.000000 0.000000 0.000000
# 4 0.000000 0.000000 0.000000 0.030701 0.000000 0.000000
# 5 0.000000 0.000000 0.000000 0.000000 -0.204170 0.000000
# 6 0.000000 0.000000 0.000000 0.000000 0.000000 0.038227
#
#
# Mechanical properties :
#
#
# Convention : Reuss Voigt Hill
#
# Bulk Modulus (GPa) = 21.08571 35.93050 28.50811
# Shear Modulus (GPa) = -87.96426 25.43595 -31.26415
#
# Velocity S-wave (km/s) = -6.76380 3.63715 -4.03237
# Velocity P-wave (km/s) = 7.07335 6.02706 2.61790
#
# Compressibility (1/GPa) = 0.04742548
#
# Stress axis : x y z
#
# Youngs Moduli (GPa) = 31.05910 128.50056 66.53073
#
# Poissons Ratio (x) = 0.66663 -0.25094
# Poissons Ratio (y) = 0.16113 0.15808
# Poissons Ratio (z) = -0.11715 0.30532
#
# Static dielectric constant tensor:
#      x y z
#    x 1.711610 0.000000 0.000000 
#    y 0.000000 1.660610 0.000000 
#    z 0.000000 0.000000 1.691300 
# 
# From -- ./inp_files/18476.got.cif
#   From: 2010.05.17/outbox.cif.g08.bks.cpg/sg73_10_cif.got.tgz:18476.got - 2010.06.03 17:35:07.
