data_PCOD9531923
_publ_section_title
;
Structure prediction by ZEFSAII (Michael W. Deem and Ramdas Pophale) SiO2 
 PCOD9531923
Probable space group: I B C A 
;
_chemical_formula_sum "Si O2"
_cell_formula_units_Z 64
_cell_length_a 17.660355
_cell_length_b 6.087651
_cell_length_c 26.085553
_cell_angle_alpha 90.000000
_cell_angle_beta 90.000000
_cell_angle_gamma 90.000000
_cell_volume 2804.459832
_symmetry_space_group_name_H-M "I B C A "
_symmetry_group_IT_number 73
_symmetry_cell_setting 'orthorhombic'
loop_
_space_group_symop_operation_xyz
x,y,z
-x,1/2-y,z
x,-y,1/2-z
1/2-x,y,-z
-x,-y,-z
x,1/2+y,-z
-x,y,1/2+z
1/2+x,-y,z
1/2+x,1/2+y,1/2+z
1/2-x,-y,1/2+z
1/2+x,1/2-y,-z
-x,1/2+y,1/2-z
1/2-x,1/2-y,1/2-z
1/2+x,y,1/2-z
1/2-x,1/2+y,z
x,1/2-y,1/2+z
loop_
_atom_site_type_symbol
_atom_site_label
_atom_site_fract_x
_atom_site_fract_y
_atom_site_fract_z
Si Si1 0.837689 0.182861 0.982832
Si Si2 0.848843 0.252205 0.362296
Si Si3 0.445528 0.928449 0.696509
Si Si4 0.306665 0.629591 0.696884
O O1 0.840506 0.195037 0.921391
O O2 0.750000 0.180328 0.000000
O O3 0.867156 0.431684 0.001267
O O4 0.920724 0.375350 0.339436
O O5 0.771541 0.313119 0.331259
O O6 0.852993 0.000046 0.346884
O O7 0.500000 0.750000 0.671989
O O8 0.365002 0.819567 0.711117
O O9 0.483396 0.000000 0.750000
O O10 0.293721 0.500000 0.750000
#
# Coordination Sequence:
#
# PCOD9531923 Si02
#       4
#    16  16  16  16
#     4  10  22  39  63 101 141 175 225 303 361 417
#     4  12  24  38  70 102 131 182 233 292 354 411
#     4  12  27  44  63  96 144 190 226 278 348 435
#     4  12  22  39  64 100 138 170 232 289 342 420
#
# _framework density 22.820791
#
# number of rings (size 3 to 8) (size 9 to 14) (size 15 to 20)
#    0.000    0.500    5.000    5.250    3.500    0.000 
#    0.000    0.000    0.000    1.500    0.000    0.000 
#    0.000    0.000    0.000    0.000    0.000    0.000 
#
# Total GULP energy -178498.672033 kJ/mol
# GULP energy per Si atom -5578.083501 kJ/mol
# Density = 2.276885 g / cm^3
# Si number density = 22.820791 Si / 1000 Ang^3
#
#
#
# Elastic Constant Matrix: (Units=GPa)
#
#
# Indices 1 2 3 4 5 6 
#
# 1 70.8729 35.7804 18.9416 0.0000 0.0000 0.0000
# 2 35.7804 106.3801 8.0173 0.0000 0.0000 0.0000
# 3 18.9416 8.0173 114.6442 0.0000 0.0000 0.0000
# 4 0.0000 0.0000 0.0000 21.6770 0.0000 0.0000
# 5 0.0000 0.0000 0.0000 0.0000 2.3852 0.0000
# 6 0.0000 0.0000 0.0000 0.0000 0.0000 48.2354
#
#
#
# Elastic Compliance Matrix: (Units=1/GPa)
#
#
# Indices 1 2 3 4 5 6 
#
# 1 0.017692 -0.005761 -0.002520 0.000000 0.000000 0.000000
# 2 -0.005761 0.011326 0.000160 0.000000 0.000000 0.000000
# 3 -0.002520 0.000160 0.009128 0.000000 0.000000 0.000000
# 4 0.000000 0.000000 0.000000 0.046132 0.000000 0.000000
# 5 0.000000 0.000000 0.000000 0.000000 0.419255 0.000000
# 6 0.000000 0.000000 0.000000 0.000000 0.000000 0.020732
#
#
# Mechanical properties :
#
#
# Convention : Reuss Voigt Hill
#
# Bulk Modulus (GPa) = 45.65542 46.37508 46.01525
# Shear Modulus (GPa) = 9.12730 29.73671 19.43200
#
# Velocity S-wave (km/s) = 2.00206 3.61370 2.92122
# Velocity P-wave (km/s) = 5.03923 6.14632 5.62010
#
# Compressibility (1/GPa) = 0.02190320
#
# Stress axis : x y z
#
# Youngs Moduli (GPa) = 56.52425 88.29445 109.55484
#
# Poissons Ratio (x) = 0.50862 0.27610
# Poissons Ratio (y) = 0.32561 -0.01750
# Poissons Ratio (z) = 0.14245 -0.01410
#
# Static dielectric constant tensor:
#      x y z
#    x 1.766390 0.000000 0.000000 
#    y 0.000000 2.101930 0.000000 
#    z 0.000000 0.000000 1.783610 
# 
# From -- ./inp_files/1545.got.cif
#   From: 2010.05.17/outbox.cif.g08.bks.cpg/sg73_1_cif.got.tgz:1545.got - 2010.06.03 17:35:07.
