data_PCOD9531828
_publ_section_title
;
Structure prediction by ZEFSAII (Michael W. Deem and Ramdas Pophale) SiO2 
 PCOD9531828
Probable space group: I B C A 
;
_chemical_formula_sum "Si O2"
_cell_formula_units_Z 104
_cell_length_a 8.840970
_cell_length_b 19.167213
_cell_length_c 27.192634
_cell_angle_alpha 90.000000
_cell_angle_beta 90.000000
_cell_angle_gamma 90.000000
_cell_volume 4607.975521
_symmetry_space_group_name_H-M "I B C A "
_symmetry_group_IT_number 73
_symmetry_cell_setting 'orthorhombic'
loop_
_space_group_symop_operation_xyz
x,y,z
-x,1/2-y,z
x,-y,1/2-z
1/2-x,y,-z
-x,-y,-z
x,1/2+y,-z
-x,y,1/2+z
1/2+x,-y,z
1/2+x,1/2+y,1/2+z
1/2-x,-y,1/2+z
1/2+x,1/2-y,-z
-x,1/2+y,1/2-z
1/2-x,1/2-y,1/2-z
1/2+x,y,1/2-z
1/2-x,1/2+y,z
x,1/2-y,1/2+z
loop_
_atom_site_type_symbol
_atom_site_label
_atom_site_fract_x
_atom_site_fract_y
_atom_site_fract_z
Si Si1 0.000000 0.750000 0.139234
Si Si2 0.301100 0.872759 0.367230
Si Si3 0.943157 0.886530 0.791619
Si Si4 0.942924 0.548060 0.183793
Si Si5 0.274549 0.653966 0.654833
Si Si6 0.855092 0.546575 0.452679
Si Si7 0.195448 0.402220 0.050750
O O1 0.897543 0.807568 0.112923
O O2 0.867960 0.704378 0.165570
O O3 0.425492 0.929041 0.352191
O O4 0.193821 0.903918 0.408038
O O5 0.208290 0.855903 0.316937
O O6 0.959974 0.907631 0.734615
O O7 0.079253 0.838897 0.811378
O O8 0.944941 0.965715 0.812249
O O9 0.782479 0.575637 0.165938
O O10 0.309763 0.650302 0.596779
O O11 0.750000 0.563307 0.500000
O O12 0.812983 0.466256 0.440474
O O13 0.032819 0.561332 0.458556
O O14 0.250000 0.367579 0.000000
#
# Coordination Sequence:
#
# PCOD9531828 Si02
#       7
#     8  16  16  16  16  16  16
#     4  10  28  44  62  84 124 184 222 266 290 366
#     4  11  23  42  62  87 131 170 210 258 314 365
#     4  11  20  39  65 102 125 157 210 254 329 384
#     4  10  22  36  66 100 133 157 191 264 325 395
#     4  11  23  42  62  87 131 170 210 258 314 365
#     4  11  23  38  67 102 129 157 201 263 333 399
#     4  11  23  38  67 102 129 157 201 263 333 399
#
# _framework density 22.569565000000001
#
# number of rings (size 3 to 8) (size 9 to 14) (size 15 to 20)
#    0.000    1.231    1.538    5.538    8.615    3.077 
#    0.000   13.077    0.000    0.000    0.000    0.000 
#    0.000    0.000    0.000    0.000    0.000    0.000 
#
# Total GULP energy -290148.610771 kJ/mol
# GULP energy per Si atom -5579.780976 kJ/mol
# Density = 2.251820 g / cm^3
# Si number density = 22.569565 Si / 1000 Ang^3
#
#
#
# Elastic Constant Matrix: (Units=GPa)
#
#
# Indices 1 2 3 4 5 6 
#
# 1 101.9120 5.1655 22.1444 0.0000 0.0000 0.0000
# 2 5.1655 48.4000 26.8183 0.0000 0.0000 0.0000
# 3 22.1444 26.8183 81.3739 0.0000 0.0000 0.0000
# 4 0.0000 0.0000 0.0000 36.6942 0.0000 0.0000
# 5 0.0000 0.0000 0.0000 0.0000 29.5708 0.0000
# 6 0.0000 0.0000 0.0000 0.0000 0.0000 39.0462
#
#
#
# Elastic Compliance Matrix: (Units=1/GPa)
#
#
# Indices 1 2 3 4 5 6 
#
# 1 0.010442 0.000563 -0.003027 0.000000 0.000000 0.000000
# 2 0.000563 0.025307 -0.008494 0.000000 0.000000 0.000000
# 3 -0.003027 -0.008494 0.015912 0.000000 0.000000 0.000000
# 4 0.000000 0.000000 0.000000 0.027252 0.000000 0.000000
# 5 0.000000 0.000000 0.000000 0.000000 0.033817 0.000000
# 6 0.000000 0.000000 0.000000 0.000000 0.000000 0.025611
#
#
# Mechanical properties :
#
#
# Convention : Reuss Voigt Hill
#
# Bulk Modulus (GPa) = 33.61877 37.77137 35.69507
# Shear Modulus (GPa) = 29.38208 32.89941 31.14075
#
# Velocity S-wave (km/s) = 3.61202 3.82211 3.71855
# Velocity P-wave (km/s) = 5.68538 6.02079 5.85549
#
# Compressibility (1/GPa) = 0.02974528
#
# Stress axis : x y z
#
# Youngs Moduli (GPa) = 95.77084 39.51416 62.84592
#
# Poissons Ratio (x) = -0.02224 0.19023
# Poissons Ratio (y) = -0.05390 0.53379
# Poissons Ratio (z) = 0.28990 0.33562
#
# Static dielectric constant tensor:
#      x y z
#    x 1.847890 0.000000 0.000000 
#    y 0.000000 1.844870 0.000000 
#    z 0.000000 0.000000 1.917020 
# 
# From -- ./inp_files/31279.got.cif
#   From: 2010.05.17/outbox.cif.g08.bks.cpg/sg73_16_cif.got.tgz:31279.got - 2010.06.03 17:35:07.
