data_PCOD9531441
_publ_section_title
;
Structure prediction by ZEFSAII (Michael W. Deem and Ramdas Pophale) SiO2 
 PCOD9531441
Probable space group: I B C A 
;
_chemical_formula_sum "Si O2"
_cell_formula_units_Z 120
_cell_length_a 8.957595
_cell_length_b 25.397413
_cell_length_c 23.053686
_cell_angle_alpha 90.000000
_cell_angle_beta 90.000000
_cell_angle_gamma 90.000000
_cell_volume 5244.707564
_symmetry_space_group_name_H-M "I B C A "
_symmetry_group_IT_number 73
_symmetry_cell_setting 'orthorhombic'
loop_
_space_group_symop_operation_xyz
x,y,z
-x,1/2-y,z
x,-y,1/2-z
1/2-x,y,-z
-x,-y,-z
x,1/2+y,-z
-x,y,1/2+z
1/2+x,-y,z
1/2+x,1/2+y,1/2+z
1/2-x,-y,1/2+z
1/2+x,1/2-y,-z
-x,1/2+y,1/2-z
1/2-x,1/2-y,1/2-z
1/2+x,y,1/2-z
1/2-x,1/2+y,z
x,1/2-y,1/2+z
loop_
_atom_site_type_symbol
_atom_site_label
_atom_site_fract_x
_atom_site_fract_y
_atom_site_fract_z
Si Si1 0.250000 0.025353 0.000000
Si Si2 0.640680 0.613555 0.356886
Si Si3 0.067982 0.694784 0.390077
Si Si4 0.776960 0.498722 0.870732
Si Si5 0.994670 0.042374 0.201673
Si Si6 0.596358 0.302589 0.650930
Si Si7 0.884620 0.345666 0.221641
Si Si8 0.627356 0.374354 0.960830
O O1 0.238509 0.995586 0.939524
O O2 0.385042 0.068302 0.991223
O O3 0.613045 0.551292 0.357548
O O4 0.498573 0.647895 0.372513
O O5 0.717615 0.641128 0.301209
O O6 0.775324 0.616750 0.403081
O O7 0.241995 0.699750 0.377756
O O8 0.000000 0.750000 0.409699
O O9 0.981166 0.680553 0.329893
O O10 0.020705 0.653121 0.439485
O O11 0.629946 0.479418 0.837490
O O12 0.851721 0.548448 0.839824
O O13 0.045141 0.096452 0.230537
O O14 0.955634 0.000000 0.250000
O O15 0.500000 0.250000 0.641684
O O16 0.617408 0.312565 0.719874
O O17 0.750000 0.343632 0.000000
#
# Coordination Sequence:
#
# PCOD9531441 Si02
#       8
#     8  16  16  16  16  16  16  16
#     4   8  18  40  70  88 116 166 218 266 340 368
#     4   9  19  37  58  84 119 163 207 265 317 365
#     4  11  23  40  63  94 124 165 216 260 316 383
#     4  10  21  39  63  90 127 169 213 274 322 386
#     4  11  23  38  61  95 132 170 217 265 330 391
#     4  12  23  35  58  92 132 168 212 261 314 381
#     4  10  22  39  58  85 128 178 215 258 315 378
#     4   8  17  39  67  83 114 159 206 257 321 378
#
# _framework density 22.880206999999999
#
# number of rings (size 3 to 8) (size 9 to 14) (size 15 to 20)
#    0.400    1.600    0.000    4.800    0.000    6.400 
#    0.000    2.667    0.000    1.600    1.733    0.000 
#    0.000    0.000    0.000    0.000    0.000    0.000 
#
# Total GULP energy -335117.636841 kJ/mol
# GULP energy per Si atom -5585.293947 kJ/mol
# Density = 2.282813 g / cm^3
# Si number density = 22.880207 Si / 1000 Ang^3
#
#
#
# Elastic Constant Matrix: (Units=GPa)
#
#
# Indices 1 2 3 4 5 6 
#
# 1 116.6894 27.4272 22.5272 0.0000 0.0000 0.0000
# 2 27.4272 38.8672 8.7738 0.0000 0.0000 0.0000
# 3 22.5272 8.7738 76.2488 0.0000 0.0000 0.0000
# 4 0.0000 0.0000 0.0000 -100.9979 0.0000 0.0000
# 5 0.0000 0.0000 0.0000 0.0000 2.2766 0.0000
# 6 0.0000 0.0000 0.0000 0.0000 0.0000 21.1894
#
#
#
# Elastic Compliance Matrix: (Units=1/GPa)
#
#
# Indices 1 2 3 4 5 6 
#
# 1 0.010668 -0.006998 -0.002346 0.000000 0.000000 0.000000
# 2 -0.006998 0.031006 -0.001500 0.000000 0.000000 0.000000
# 3 -0.002346 -0.001500 0.013981 0.000000 0.000000 0.000000
# 4 0.000000 0.000000 0.000000 -0.009901 0.000000 0.000000
# 5 0.000000 0.000000 0.000000 0.000000 0.439244 0.000000
# 6 0.000000 0.000000 0.000000 0.000000 0.000000 0.047193
#
#
# Mechanical properties :
#
#
# Convention : Reuss Voigt Hill
#
# Bulk Modulus (GPa) = 29.44243 38.80688 34.12466
# Shear Modulus (GPa) = 8.84641 -3.96789 2.43926
#
# Velocity S-wave (km/s) = 1.96845 -1.31832 1.03364
# Velocity P-wave (km/s) = 4.24999 3.83150 4.04616
#
# Compressibility (1/GPa) = 0.03396458
#
# Stress axis : x y z
#
# Youngs Moduli (GPa) = 93.74174 32.25226 71.52659
#
# Poissons Ratio (x) = 0.22570 0.16783
# Poissons Ratio (y) = 0.65601 0.10730
# Poissons Ratio (z) = 0.21996 0.04839
#
# Static dielectric constant tensor:
#      x y z
#    x 1.885810 0.000000 0.000000 
#    y 0.000000 1.915320 0.000000 
#    z 0.000000 0.000000 1.908380 
# 
# From -- ./inp_files/28604.got.cif
#   From: 2010.05.17/outbox.cif.g08.bks.cpg/sg73_15_cif.got.tgz:28604.got - 2010.06.03 17:35:07.
