data_PCOD9531505
_publ_section_title
;
Structure prediction by ZEFSAII (Michael W. Deem and Ramdas Pophale) SiO2 
 PCOD9531505
Probable space group: I B C A 
;
_chemical_formula_sum "Si O2"
_cell_formula_units_Z 80
_cell_length_a 26.736374
_cell_length_b 17.162581
_cell_length_c 8.130318
_cell_angle_alpha 90.000000
_cell_angle_beta 90.000000
_cell_angle_gamma 90.000000
_cell_volume 3730.719868
_symmetry_space_group_name_H-M "I B C A "
_symmetry_group_IT_number 73
_symmetry_cell_setting 'orthorhombic'
loop_
_space_group_symop_operation_xyz
x,y,z
-x,1/2-y,z
x,-y,1/2-z
1/2-x,y,-z
-x,-y,-z
x,1/2+y,-z
-x,y,1/2+z
1/2+x,-y,z
1/2+x,1/2+y,1/2+z
1/2-x,-y,1/2+z
1/2+x,1/2-y,-z
-x,1/2+y,1/2-z
1/2-x,1/2-y,1/2-z
1/2+x,y,1/2-z
1/2-x,1/2+y,z
x,1/2-y,1/2+z
loop_
_atom_site_type_symbol
_atom_site_label
_atom_site_fract_x
_atom_site_fract_y
_atom_site_fract_z
Si Si1 0.037248 0.823803 0.151902
Si Si2 0.705634 0.178871 0.896590
Si Si3 0.351610 0.306685 0.218104
Si Si4 0.972571 0.559846 0.876099
Si Si5 0.777523 0.421227 0.170661
O O1 0.089459 0.797214 0.229941
O O2 0.000000 0.750000 0.121603
O O3 0.010469 0.886753 0.269790
O O4 0.051833 0.873940 0.989987
O O5 0.676425 0.227059 0.760384
O O6 0.737228 0.113766 0.801059
O O7 0.750000 0.222800 0.000000
O O8 0.666023 0.161512 0.040150
O O9 0.325204 0.364994 0.345757
O O10 0.945063 0.500000 0.750000
O O11 0.000000 0.500000 0.000000
O O12 0.796522 0.500000 0.250000
O O13 0.750000 0.433263 0.000000
#
# Coordination Sequence:
#
# PCOD9531505 Si02
#       5
#    16  16  16  16  16
#     4  11  24  40  68  99 131 172 233 287 327 400
#     4  10  21  40  62  94 129 170 208 268 332 394
#     4  11  23  38  66  93 130 170 219 267 338 393
#     4   9  21  44  64  85 128 177 211 275 349 389
#     4  11  22  42  66  95 133 172 216 269 330 407
#
# _framework density 21.443581999999999
#
# number of rings (size 3 to 8) (size 9 to 14) (size 15 to 20)
#    0.000    1.600    0.000    6.600    5.600    2.400 
#    0.000    3.000    0.000    0.000    0.000    0.000 
#    0.000    0.000    0.000    0.000    0.000    0.000 
#
# Total GULP energy -222852.931603 kJ/mol
# GULP energy per Si atom -5571.323290 kJ/mol
# Density = 2.139478 g / cm^3
# Si number density = 21.443582 Si / 1000 Ang^3
#
#
#
# Elastic Constant Matrix: (Units=GPa)
#
#
# Indices 1 2 3 4 5 6 
#
# 1 96.3877 22.1335 1.6454 0.0000 0.0000 0.0000
# 2 22.1335 85.3235 4.6554 0.0000 0.0000 0.0000
# 3 1.6454 4.6554 77.8758 0.0000 0.0000 0.0000
# 4 0.0000 0.0000 0.0000 30.7522 0.0000 0.0000
# 5 0.0000 0.0000 0.0000 0.0000 13.4482 0.0000
# 6 0.0000 0.0000 0.0000 0.0000 0.0000 -19.4825
#
#
#
# Elastic Compliance Matrix: (Units=1/GPa)
#
#
# Indices 1 2 3 4 5 6 
#
# 1 0.011032 -0.002858 -0.000062 0.000000 0.000000 0.000000
# 2 -0.002858 0.012499 -0.000687 0.000000 0.000000 0.000000
# 3 -0.000062 -0.000687 0.012883 0.000000 0.000000 0.000000
# 4 0.000000 0.000000 0.000000 0.032518 0.000000 0.000000
# 5 0.000000 0.000000 0.000000 0.000000 0.074359 0.000000
# 6 0.000000 0.000000 0.000000 0.000000 0.000000 -0.051328
#
#
# Mechanical properties :
#
#
# Convention : Reuss Voigt Hill
#
# Bulk Modulus (GPa) = 34.24693 35.16175 34.70434
# Shear Modulus (GPa) = 45.90850 20.35373 33.13111
#
# Velocity S-wave (km/s) = 4.63200 3.08421 3.93496
# Velocity P-wave (km/s) = 6.67927 5.39593 6.07160
#
# Compressibility (1/GPa) = 0.02919970
#
# Stress axis : x y z
#
# Youngs Moduli (GPa) = 90.64363 80.00591 77.61965
#
# Poissons Ratio (x) = 0.22869 0.00483
# Poissons Ratio (y) = 0.25910 0.05331
# Poissons Ratio (z) = 0.00564 0.05495
#
# Static dielectric constant tensor:
#      x y z
#    x 1.623430 0.000000 0.000000 
#    y 0.000000 1.795590 0.000000 
#    z 0.000000 0.000000 1.860210 
# 
# From -- ./inp_files/7723.got.cif
#   From: 2010.05.17/outbox.cif.g08.bks.cpg/sg73_4_cif.got.tgz:7723.got - 2010.06.03 17:35:07.
