data_PCOD9531310
_publ_section_title
;
Structure prediction by ZEFSAII (Michael W. Deem and Ramdas Pophale) SiO2 
 PCOD9531310
Probable space group: I B C A 
;
_chemical_formula_sum "Si O2"
_cell_formula_units_Z 88
_cell_length_a 17.988931
_cell_length_b 15.110768
_cell_length_c 14.001298
_cell_angle_alpha 90.000000
_cell_angle_beta 90.000000
_cell_angle_gamma 90.000000
_cell_volume 3805.924712
_symmetry_space_group_name_H-M "I B C A "
_symmetry_group_IT_number 73
_symmetry_cell_setting 'orthorhombic'
loop_
_space_group_symop_operation_xyz
x,y,z
-x,1/2-y,z
x,-y,1/2-z
1/2-x,y,-z
-x,-y,-z
x,1/2+y,-z
-x,y,1/2+z
1/2+x,-y,z
1/2+x,1/2+y,1/2+z
1/2-x,-y,1/2+z
1/2+x,1/2-y,-z
-x,1/2+y,1/2-z
1/2-x,1/2-y,1/2-z
1/2+x,y,1/2-z
1/2-x,1/2+y,z
x,1/2-y,1/2+z
loop_
_atom_site_type_symbol
_atom_site_label
_atom_site_fract_x
_atom_site_fract_y
_atom_site_fract_z
Si Si1 0.740815 0.782819 0.891102
Si Si2 0.100004 0.313148 0.681386
Si Si3 0.746732 0.570194 0.888773
Si Si4 0.375246 0.500000 0.750000
Si Si5 0.000000 0.250000 0.011249
Si Si6 0.119775 0.500000 0.750000
Si Si7 0.924782 0.830542 0.159653
O O1 0.810697 0.813897 0.829237
O O2 0.741351 0.676582 0.885793
O O3 0.662348 0.823962 0.866503
O O4 0.750000 0.808952 0.000000
O O5 0.067539 0.265295 0.586071
O O6 0.079166 0.414385 0.704552
O O7 0.073392 0.252583 0.768362
O O8 0.819854 0.538229 0.831701
O O9 0.674301 0.534131 0.834562
O O10 0.750000 0.543362 0.000000
O O11 0.427470 0.422910 0.711868
O O12 0.979100 0.324702 0.931863
#
# Coordination Sequence:
#
# PCOD9531310 Si02
#       7
#    16  16  16   8   8   8  16
#     4  11  20  41  79 106 144 186 246 302 375 430
#     4  12  25  49  73 111 142 194 245 318 366 458
#     4  10  21  37  68 119 150 184 235 316 383 454
#     4  11  24  40  73 108 148 186 248 316 380 435
#     4  12  30  50  78  94 156 208 250 288 394 456
#     4  11  24  40  73 108 148 186 248 316 380 435
#     4  12  25  49  73 111 142 194 245 318 366 458
#
# _framework density 23.121846000000001
#
# number of rings (size 3 to 8) (size 9 to 14) (size 15 to 20)
#    0.000    0.727    5.455    3.273    2.545    1.455 
#    0.000    5.455    0.000    0.000    0.000    0.000 
#    0.000    0.000    0.000    0.000    0.000    0.000 
#
# Total GULP energy -245815.827938 kJ/mol
# GULP energy per Si atom -5586.723362 kJ/mol
# Density = 2.306922 g / cm^3
# Si number density = 23.121846 Si / 1000 Ang^3
#
#
#
# Elastic Constant Matrix: (Units=GPa)
#
#
# Indices 1 2 3 4 5 6 
#
# 1 99.8822 33.8755 39.7402 0.0000 0.0000 0.0000
# 2 33.8755 130.4246 23.8597 0.0000 0.0000 0.0000
# 3 39.7402 23.8597 154.2193 0.0000 0.0000 0.0000
# 4 0.0000 0.0000 0.0000 21.8282 0.0000 0.0000
# 5 0.0000 0.0000 0.0000 0.0000 45.6842 0.0000
# 6 0.0000 0.0000 0.0000 0.0000 0.0000 -548.3444
#
#
#
# Elastic Compliance Matrix: (Units=1/GPa)
#
#
# Indices 1 2 3 4 5 6 
#
# 1 0.011965 -0.002618 -0.002678 0.000000 0.000000 0.000000
# 2 -0.002618 0.008463 -0.000635 0.000000 0.000000 0.000000
# 3 -0.002678 -0.000635 0.007273 0.000000 0.000000 0.000000
# 4 0.000000 0.000000 0.000000 0.045812 0.000000 0.000000
# 5 0.000000 0.000000 0.000000 0.000000 0.021889 0.000000
# 6 0.000000 0.000000 0.000000 0.000000 0.000000 -0.001824
#
#
# Mechanical properties :
#
#
# Convention : Reuss Voigt Hill
#
# Bulk Modulus (GPa) = 63.13357 64.38632 63.75995
# Shear Modulus (GPa) = 45.15864 -77.02968 -15.93552
#
# Velocity S-wave (km/s) = 4.42415 -5.77815 -2.62811
# Velocity P-wave (km/s) = 7.31174 4.07542 4.29258
#
# Compressibility (1/GPa) = 0.01583943
#
# Stress axis : x y z
#
# Youngs Moduli (GPa) = 83.57549 118.15690 137.50166
#
# Poissons Ratio (x) = 0.30931 0.36827
# Poissons Ratio (y) = 0.21878 0.08729
# Poissons Ratio (z) = 0.22384 0.07501
#
# Static dielectric constant tensor:
#      x y z
#    x 1.925130 0.000000 0.000000 
#    y 0.000000 1.879690 0.000000 
#    z 0.000000 0.000000 1.877680 
# 
# From -- ./inp_files/18588.got.cif
#   From: 2010.05.17/outbox.cif.g08.bks.cpg/sg73_10_cif.got.tgz:18588.got - 2010.06.03 17:35:07.
