data_PCOD9531897
_publ_section_title
;
Structure prediction by ZEFSAII (Michael W. Deem and Ramdas Pophale) SiO2 
 PCOD9531897
Probable space group: I B C A 
;
_chemical_formula_sum "Si O2"
_cell_formula_units_Z 120
_cell_length_a 24.451164
_cell_length_b 17.712173
_cell_length_c 12.232544
_cell_angle_alpha 90.000000
_cell_angle_beta 90.000000
_cell_angle_gamma 90.000000
_cell_volume 5297.709872
_symmetry_space_group_name_H-M "I B C A "
_symmetry_group_IT_number 73
_symmetry_cell_setting 'orthorhombic'
loop_
_space_group_symop_operation_xyz
x,y,z
-x,1/2-y,z
x,-y,1/2-z
1/2-x,y,-z
-x,-y,-z
x,1/2+y,-z
-x,y,1/2+z
1/2+x,-y,z
1/2+x,1/2+y,1/2+z
1/2-x,-y,1/2+z
1/2+x,1/2-y,-z
-x,1/2+y,1/2-z
1/2-x,1/2-y,1/2-z
1/2+x,y,1/2-z
1/2-x,1/2+y,z
x,1/2-y,1/2+z
loop_
_atom_site_type_symbol
_atom_site_label
_atom_site_fract_x
_atom_site_fract_y
_atom_site_fract_z
Si Si1 0.082052 0.429242 0.988053
Si Si2 0.250000 0.464210 0.000000
Si Si3 0.317083 0.146212 0.382173
Si Si4 0.846446 0.960981 0.867902
Si Si5 0.951384 0.804449 0.686676
Si Si6 0.812253 0.181576 0.540692
Si Si7 0.517464 0.420816 0.293594
Si Si8 0.882115 0.838026 0.176143
O O1 0.099795 0.506549 0.928890
O O2 0.063009 0.368474 0.899637
O O3 0.134709 0.392263 0.047267
O O4 0.039163 0.435630 0.085460
O O5 0.234039 0.406678 0.096006
O O6 0.298534 0.512931 0.049130
O O7 0.311506 0.231468 0.422663
O O8 0.333095 0.142286 0.256701
O O9 0.843498 0.000000 0.750000
O O10 0.834779 0.872185 0.862734
O O11 0.903359 0.745651 0.706967
O O12 0.000000 0.750000 0.644257
O O13 0.975366 0.851358 0.788420
O O14 0.750000 0.165735 0.500000
O O15 0.856684 0.165705 0.444227
O O16 0.495499 0.500000 0.250000
O O17 0.567907 0.393923 0.212445
#
# Coordination Sequence:
#
# PCOD9531897 Si02
#       8
#    16   8  16  16  16  16  16  16
#     4  10  22  44  64  94 134 172 211 274 350 398
#     4  10  22  42  58  94 132 172 226 284 336 388
#     4  10  22  38  67  88 128 175 216 281 329 398
#     4  11  26  42  63  97 139 178 227 286 346 411
#     4  10  22  41  66  98 127 166 222 278 331 409
#     4  12  24  41  64 102 130 178 236 278 337 411
#     4  10  22  43  67  96 130 176 218 268 346 419
#     4  10  23  42  65  95 132 177 224 276 338 407
#
# _framework density 22.651298000000001
#
# number of rings (size 3 to 8) (size 9 to 14) (size 15 to 20)
#    0.000    1.600    2.667    0.800    3.733    4.267 
#    0.000    0.000    0.000    0.000    0.000    0.000 
#    0.000    0.000    0.000    0.000    0.000    0.000 
#
# Total GULP energy -335248.492879 kJ/mol
# GULP energy per Si atom -5587.474881 kJ/mol
# Density = 2.259974 g / cm^3
# Si number density = 22.651298 Si / 1000 Ang^3
#
#
#
# Elastic Constant Matrix: (Units=GPa)
#
#
# Indices 1 2 3 4 5 6 
#
# 1 39.2981 9.0294 -4.7844 0.0000 0.0000 0.0000
# 2 9.0294 84.8552 -6.1522 0.0000 0.0000 0.0000
# 3 -4.7844 -6.1522 29.8946 0.0000 0.0000 0.0000
# 4 0.0000 0.0000 0.0000 25.0303 0.0000 0.0000
# 5 0.0000 0.0000 0.0000 0.0000 12.0883 0.0000
# 6 0.0000 0.0000 0.0000 0.0000 0.0000 11.9014
#
#
#
# Elastic Compliance Matrix: (Units=1/GPa)
#
#
# Indices 1 2 3 4 5 6 
#
# 1 0.026484 -0.002549 0.003714 0.000000 0.000000 0.000000
# 2 -0.002549 0.012209 0.002105 0.000000 0.000000 0.000000
# 3 0.003714 0.002105 0.034478 0.000000 0.000000 0.000000
# 4 0.000000 0.000000 0.000000 0.039952 0.000000 0.000000
# 5 0.000000 0.000000 0.000000 0.000000 0.082725 0.000000
# 6 0.000000 0.000000 0.000000 0.000000 0.000000 0.084023
#
#
# Mechanical properties :
#
#
# Convention : Reuss Voigt Hill
#
# Bulk Modulus (GPa) = 12.54539 16.69262 14.61900
# Shear Modulus (GPa) = 16.67212 20.20101 18.43656
#
# Velocity S-wave (km/s) = 2.71594 2.98958 2.85604
# Velocity P-wave (km/s) = 3.92245 4.39343 4.16460
#
# Compressibility (1/GPa) = 0.07971058
#
# Stress axis : x y z
#
# Youngs Moduli (GPa) = 37.75817 81.90945 29.00374
#
# Poissons Ratio (x) = 0.20878 -0.10772
# Poissons Ratio (y) = 0.09624 -0.06104
# Poissons Ratio (z) = -0.14023 -0.17238
#
# Static dielectric constant tensor:
#      x y z
#    x 1.909700 0.000000 0.000000 
#    y 0.000000 1.841760 0.000000 
#    z 0.000000 0.000000 1.828490 
# 
# From -- ./inp_files/14374.got.cif
#   From: 2010.05.17/outbox.cif.g08.bks.cpg/sg73_8_cif.got.tgz:14374.got - 2010.06.03 17:35:07.
