data_PCOD9531227
_publ_section_title
;
Structure prediction by ZEFSAII (Michael W. Deem and Ramdas Pophale) SiO2 
 PCOD9531227
Probable space group: I B C A 
;
_chemical_formula_sum "Si O2"
_cell_formula_units_Z 104
_cell_length_a 24.112912
_cell_length_b 14.287085
_cell_length_c 12.597281
_cell_angle_alpha 90.000000
_cell_angle_beta 90.000000
_cell_angle_gamma 90.000000
_cell_volume 4339.803910
_symmetry_space_group_name_H-M "I B C A "
_symmetry_group_IT_number 73
_symmetry_cell_setting 'orthorhombic'
loop_
_space_group_symop_operation_xyz
x,y,z
-x,1/2-y,z
x,-y,1/2-z
1/2-x,y,-z
-x,-y,-z
x,1/2+y,-z
-x,y,1/2+z
1/2+x,-y,z
1/2+x,1/2+y,1/2+z
1/2-x,-y,1/2+z
1/2+x,1/2-y,-z
-x,1/2+y,1/2-z
1/2-x,1/2-y,1/2-z
1/2+x,y,1/2-z
1/2-x,1/2+y,z
x,1/2-y,1/2+z
loop_
_atom_site_type_symbol
_atom_site_label
_atom_site_fract_x
_atom_site_fract_y
_atom_site_fract_z
Si Si1 0.323945 0.619984 0.316900
Si Si2 0.184713 0.009860 0.976742
Si Si3 0.223709 0.000000 0.750000
Si Si4 0.814012 0.722108 0.532644
Si Si5 0.500000 0.750000 0.833412
Si Si6 0.080599 0.500000 0.750000
Si Si7 0.492702 0.881526 0.640898
Si Si8 0.576444 0.781972 0.527783
O O1 0.331624 0.557101 0.425678
O O2 0.269059 0.585518 0.253747
O O3 0.318893 0.726357 0.353758
O O4 0.378575 0.588702 0.255216
O O5 0.185972 0.983294 0.852880
O O6 0.164255 0.116487 0.976830
O O7 0.250000 0.019046 0.000000
O O8 0.750000 0.730606 0.500000
O O9 0.858077 0.777920 0.461326
O O10 0.506686 0.839173 0.756765
O O11 0.446958 0.767266 0.908881
O O12 0.039687 0.522376 0.846995
O O13 0.548502 0.875676 0.573141
O O14 0.451727 0.804464 0.589624
#
# Coordination Sequence:
#
# PCOD9531227 Si02
#       8
#    16  16   8  16   8   8  16  16
#     4  10  21  36  57  86 123 159 200 259 305 353
#     4   9  19  36  55  80 117 164 210 249 296 354
#     4   9  18  36  54  77 122 167 208 255 294 342
#     4  11  21  36  61  87 120 167 207 239 296 368
#     4   8  16  36  58  78 108 144 186 238 298 344
#     4  11  20  36  62  89 112 149 200 249 314 380
#     4   9  19  36  62  84 111 148 191 249 309 365
#     4   9  19  37  58  86 117 151 195 253 302 352
#
# _framework density 23.964214999999999
#
# number of rings (size 3 to 8) (size 9 to 14) (size 15 to 20)
#    0.000    2.769    0.000    3.231    0.000    1.846 
#    0.000   19.231    0.000    1.846    0.000    0.000 
#    0.000    0.000    0.000    0.000    0.000    0.000 
#
# Total GULP energy -289873.622552 kJ/mol
# GULP energy per Si atom -5574.492741 kJ/mol
# Density = 2.390967 g / cm^3
# Si number density = 23.964215 Si / 1000 Ang^3
#
#
#
# Elastic Constant Matrix: (Units=GPa)
#
#
# Indices 1 2 3 4 5 6 
#
# 1 108.5606 3.3315 13.1549 0.0000 0.0000 0.0000
# 2 3.3315 46.2487 0.4288 0.0000 0.0000 0.0000
# 3 13.1549 0.4288 96.6669 0.0000 0.0000 0.0000
# 4 0.0000 0.0000 0.0000 13.8143 0.0000 0.0000
# 5 0.0000 0.0000 0.0000 0.0000 23.9373 0.0000
# 6 0.0000 0.0000 0.0000 0.0000 0.0000 15.1213
#
#
#
# Elastic Compliance Matrix: (Units=1/GPa)
#
#
# Indices 1 2 3 4 5 6 
#
# 1 0.009386 -0.000664 -0.001274 0.000000 0.000000 0.000000
# 2 -0.000664 0.021670 -0.000006 0.000000 0.000000 0.000000
# 3 -0.001274 -0.000006 0.010518 0.000000 0.000000 0.000000
# 4 0.000000 0.000000 0.000000 0.072389 0.000000 0.000000
# 5 0.000000 0.000000 0.000000 0.000000 0.041776 0.000000
# 6 0.000000 0.000000 0.000000 0.000000 0.000000 0.066132
#
#
# Mechanical properties :
#
#
# Convention : Reuss Voigt Hill
#
# Bulk Modulus (GPa) = 26.53520 31.70074 29.11797
# Shear Modulus (GPa) = 20.98003 26.21197 23.59600
#
# Velocity S-wave (km/s) = 2.96205 3.31085 3.14129
# Velocity P-wave (km/s) = 4.77443 5.27946 5.03328
#
# Compressibility (1/GPa) = 0.03768579
#
# Stress axis : x y z
#
# Youngs Moduli (GPa) = 106.53875 46.14646 95.07278
#
# Poissons Ratio (x) = 0.03066 0.12116
# Poissons Ratio (y) = 0.07078 0.00054
# Poissons Ratio (z) = 0.13577 0.00026
#
# Static dielectric constant tensor:
#      x y z
#    x 1.941260 0.000000 0.000000 
#    y 0.000000 2.016200 0.000000 
#    z 0.000000 0.000000 2.033870 
# 
# From -- ./inp_files/14341.got.cif
#   From: 2010.05.17/outbox.cif.g08.bks.cpg/sg73_8_cif.got.tgz:14341.got - 2010.06.03 17:35:07.
