data_PCOD9531573
_publ_section_title
;
Structure prediction by ZEFSAII (Michael W. Deem and Ramdas Pophale) SiO2 
 PCOD9531573
Probable space group: I B C A 
;
_chemical_formula_sum "Si O2"
_cell_formula_units_Z 104
_cell_length_a 8.849138
_cell_length_b 18.637885
_cell_length_c 24.642124
_cell_angle_alpha 90.000000
_cell_angle_beta 90.000000
_cell_angle_gamma 90.000000
_cell_volume 4064.206202
_symmetry_space_group_name_H-M "I B C A "
_symmetry_group_IT_number 73
_symmetry_cell_setting 'orthorhombic'
loop_
_space_group_symop_operation_xyz
x,y,z
-x,1/2-y,z
x,-y,1/2-z
1/2-x,y,-z
-x,-y,-z
x,1/2+y,-z
-x,y,1/2+z
1/2+x,-y,z
1/2+x,1/2+y,1/2+z
1/2-x,-y,1/2+z
1/2+x,1/2-y,-z
-x,1/2+y,1/2-z
1/2-x,1/2-y,1/2-z
1/2+x,y,1/2-z
1/2-x,1/2+y,z
x,1/2-y,1/2+z
loop_
_atom_site_type_symbol
_atom_site_label
_atom_site_fract_x
_atom_site_fract_y
_atom_site_fract_z
Si Si1 0.988227 0.430196 0.306782
Si Si2 0.553195 0.622562 0.592399
Si Si3 0.000000 0.750000 0.323490
Si Si4 0.335255 0.215414 0.679693
Si Si5 0.743281 0.000000 0.750000
Si Si6 0.501627 0.457987 0.075665
Si Si7 0.226848 0.328518 0.941067
Si Si8 0.750000 0.406843 0.000000
O O1 0.876816 0.364099 0.301282
O O2 0.863218 0.492626 0.298483
O O3 0.123884 0.437702 0.264412
O O4 0.062131 0.430672 0.365878
O O5 0.547521 0.677072 0.643091
O O6 0.562951 0.535801 0.591399
O O7 0.387711 0.636925 0.570094
O O8 0.676627 0.641251 0.547092
O O9 0.166391 0.733903 0.298400
O O10 0.500000 0.250000 0.690763
O O11 0.315268 0.215692 0.613363
O O12 0.386909 0.395894 0.057618
O O13 0.627906 0.457069 0.029695
O O14 0.250000 0.293450 0.000000
#
# Coordination Sequence:
#
# PCOD9531573 Si02
#       8
#    16  16   8  16   8  16  16   8
#     4  10  25  47  77 110 140 183 238 316 381 447
#     4  11  24  39  56  93 137 186 240 284 340 422
#     4  10  26  44  64  98 144 204 244 290 354 446
#     4  10  24  47  70 105 145 196 246 294 363 448
#     4  10  24  50  78 112 138 174 244 318 402 448
#     4  11  24  38  68  99 140 184 233 306 363 419
#     4  10  21  41  57  93 140 186 240 298 338 412
#     4  12  24  36  62 106 136 188 242 288 358 430
#
# _framework density 25.589252999999999
#
# number of rings (size 3 to 8) (size 9 to 14) (size 15 to 20)
#    0.000    1.538    1.538    1.385   15.077    0.000 
#   13.846    0.769    0.000    0.000    0.000    0.000 
#    0.000    0.000    0.000    0.000    0.000    0.000 
#
# Total GULP energy -289895.622642 kJ/mol
# GULP energy per Si atom -5574.915820 kJ/mol
# Density = 2.553101 g / cm^3
# Si number density = 25.589253 Si / 1000 Ang^3
#
#
#
# Elastic Constant Matrix: (Units=GPa)
#
#
# Indices 1 2 3 4 5 6 
#
# 1 157.6365 32.8371 66.1538 0.0000 0.0000 0.0000
# 2 32.8371 62.7973 21.6689 0.0000 0.0000 0.0000
# 3 66.1538 21.6689 88.7051 0.0000 0.0000 0.0000
# 4 0.0000 0.0000 0.0000 5.2980 0.0000 0.0000
# 5 0.0000 0.0000 0.0000 0.0000 99.7451 0.0000
# 6 0.0000 0.0000 0.0000 0.0000 0.0000 32.4586
#
#
#
# Elastic Compliance Matrix: (Units=1/GPa)
#
#
# Indices 1 2 3 4 5 6 
#
# 1 0.009665 -0.002803 -0.006523 0.000000 0.000000 0.000000
# 2 -0.002803 0.018203 -0.002356 0.000000 0.000000 0.000000
# 3 -0.006523 -0.002356 0.016714 0.000000 0.000000 0.000000
# 4 0.000000 0.000000 0.000000 0.188750 0.000000 0.000000
# 5 0.000000 0.000000 0.000000 0.000000 0.010026 0.000000
# 6 0.000000 0.000000 0.000000 0.000000 0.000000 0.030809
#
#
# Mechanical properties :
#
#
# Convention : Reuss Voigt Hill
#
# Bulk Modulus (GPa) = 47.13227 61.16205 54.14716
# Shear Modulus (GPa) = 16.41477 40.06561 28.24019
#
# Velocity S-wave (km/s) = 2.53548 3.96121 3.32565
# Velocity P-wave (km/s) = 5.19907 6.69888 5.99605
#
# Compressibility (1/GPa) = 0.02121689
#
# Stress axis : x y z
#
# Youngs Moduli (GPa) = 103.46421 54.93600 59.83092
#
# Poissons Ratio (x) = 0.15399 0.39029
# Poissons Ratio (y) = 0.29001 0.14097
# Poissons Ratio (z) = 0.67493 0.12944
#
# Static dielectric constant tensor:
#      x y z
#    x 2.080010 0.000000 0.000000 
#    y 0.000000 2.204870 0.000000 
#    z 0.000000 0.000000 2.101210 
# 
# From -- ./inp_files/31301.got.cif
#   From: 2010.05.17/outbox.cif.g08.bks.cpg/sg73_16_cif.got.tgz:31301.got - 2010.06.03 17:35:07.
