data_PCOD9531518
_publ_section_title
;
Structure prediction by ZEFSAII (Michael W. Deem and Ramdas Pophale) SiO2 
 PCOD9531518
Probable space group: I B C A 
;
_chemical_formula_sum "Si O2"
_cell_formula_units_Z 120
_cell_length_a 28.229761
_cell_length_b 10.198231
_cell_length_c 17.527231
_cell_angle_alpha 90.000000
_cell_angle_beta 90.000000
_cell_angle_gamma 90.000000
_cell_volume 5045.978047
_symmetry_space_group_name_H-M "I B C A "
_symmetry_group_IT_number 73
_symmetry_cell_setting 'orthorhombic'
loop_
_space_group_symop_operation_xyz
x,y,z
-x,1/2-y,z
x,-y,1/2-z
1/2-x,y,-z
-x,-y,-z
x,1/2+y,-z
-x,y,1/2+z
1/2+x,-y,z
1/2+x,1/2+y,1/2+z
1/2-x,-y,1/2+z
1/2+x,1/2-y,-z
-x,1/2+y,1/2-z
1/2-x,1/2-y,1/2-z
1/2+x,y,1/2-z
1/2-x,1/2+y,z
x,1/2-y,1/2+z
loop_
_atom_site_type_symbol
_atom_site_label
_atom_site_fract_x
_atom_site_fract_y
_atom_site_fract_z
Si Si1 0.729204 0.250039 0.577799
Si Si2 0.713809 0.977876 0.106760
Si Si3 0.340443 0.000000 0.750000
Si Si4 0.859780 0.375298 0.980288
Si Si5 0.098606 0.439151 0.329692
Si Si6 0.078614 0.811047 0.260026
Si Si7 0.953675 0.670179 0.426066
Si Si8 0.492058 0.597359 0.364979
O O1 0.750000 0.189552 0.500000
O O2 0.745451 0.399508 0.580570
O O3 0.673576 0.232885 0.561504
O O4 0.755156 0.147709 0.633398
O O5 0.690613 0.045171 0.180493
O O6 0.671915 0.941674 0.046885
O O7 0.375830 0.106633 0.782855
O O8 0.873793 0.465890 0.907737
O O9 0.908303 0.322437 0.018080
O O10 0.115469 0.500000 0.250000
O O11 0.097584 0.288408 0.303598
O O12 0.043219 0.463655 0.346199
O O13 0.058380 0.770748 0.341962
O O14 0.037837 0.882774 0.212261
O O15 0.965679 0.513985 0.415009
O O16 0.000000 0.750000 0.451217
O O17 0.500000 0.750000 0.390900
#
# Coordination Sequence:
#
# PCOD9531518 Si02
#       8
#    16  16   8  16  16  16  16  16
#     4  10  23  47  75 103 141 186 232 298 386 445
#     4  11  24  47  76 108 138 189 236 303 373 458
#     4  12  22  42  76 104 142 186 244 292 376 444
#     4  11  25  45  68 104 148 191 238 302 373 444
#     4  11  24  41  63  98 141 188 241 301 354 416
#     4  11  20  40  67  95 138 194 239 288 366 431
#     4  12  23  39  68 105 141 190 259 305 350 434
#     4  10  21  40  63  92 141 197 241 297 361 418
#
# _framework density 23.781317000000001
#
# number of rings (size 3 to 8) (size 9 to 14) (size 15 to 20)
#    0.000    1.067    2.667    4.800    0.000    5.867 
#    3.600    0.000    0.000    0.800    0.000    0.000 
#    0.000    0.000    0.000    0.000    0.000    0.000 
#
# Total GULP energy -334344.651854 kJ/mol
# GULP energy per Si atom -5572.410864 kJ/mol
# Density = 2.372719 g / cm^3
# Si number density = 23.781317 Si / 1000 Ang^3
#
#
#
# Elastic Constant Matrix: (Units=GPa)
#
#
# Indices 1 2 3 4 5 6 
#
# 1 90.4309 28.9919 35.7163 0.0000 0.0000 0.0000
# 2 28.9919 100.8785 6.6820 0.0000 0.0000 0.0000
# 3 35.7163 6.6820 119.3943 0.0000 0.0000 0.0000
# 4 0.0000 0.0000 0.0000 147.6221 0.0000 0.0000
# 5 0.0000 0.0000 0.0000 0.0000 9.0007 0.0000
# 6 0.0000 0.0000 0.0000 0.0000 0.0000 15.4469
#
#
#
# Elastic Compliance Matrix: (Units=1/GPa)
#
#
# Indices 1 2 3 4 5 6 
#
# 1 0.013794 -0.003705 -0.003919 0.000000 0.000000 0.000000
# 2 -0.003705 0.010945 0.000496 0.000000 0.000000 0.000000
# 3 -0.003919 0.000496 0.009520 0.000000 0.000000 0.000000
# 4 0.000000 0.000000 0.000000 0.006774 0.000000 0.000000
# 5 0.000000 0.000000 0.000000 0.000000 0.111102 0.000000
# 6 0.000000 0.000000 0.000000 0.000000 0.000000 0.064738
#
#
# Mechanical properties :
#
#
# Convention : Reuss Voigt Hill
#
# Bulk Modulus (GPa) = 49.99300 50.38714 50.19007
# Shear Modulus (GPa) = 21.02641 50.36819 35.69730
#
# Velocity S-wave (km/s) = 2.97670 4.60714 3.87856
# Velocity P-wave (km/s) = 5.73428 7.03808 6.41937
#
# Compressibility (1/GPa) = 0.02000280
#
# Stress axis : x y z
#
# Youngs Moduli (GPa) = 72.49687 91.36781 105.03961
#
# Poissons Ratio (x) = 0.33849 0.41165
# Poissons Ratio (y) = 0.26858 -0.05207
# Poissons Ratio (z) = 0.28411 -0.04529
#
# Static dielectric constant tensor:
#      x y z
#    x 1.946350 0.000000 0.000000 
#    y 0.000000 2.011370 0.000000 
#    z 0.000000 0.000000 1.908550 
# 
# From -- ./inp_files/23977.got.cif
#   From: 2010.05.17/outbox.cif.g08.bks.cpg/sg73_12_cif.got.tgz:23977.got - 2010.06.03 17:35:07.
