data_PCOD9531708
_publ_section_title
;
Structure prediction by ZEFSAII (Michael W. Deem and Ramdas Pophale) SiO2 
 PCOD9531708
Probable space group: I B C A 
;
_chemical_formula_sum "Si O2"
_cell_formula_units_Z 120
_cell_length_a 18.955225
_cell_length_b 26.851555
_cell_length_c 10.836011
_cell_angle_alpha 90.000000
_cell_angle_beta 90.000000
_cell_angle_gamma 90.000000
_cell_volume 5515.283260
_symmetry_space_group_name_H-M "I B C A "
_symmetry_group_IT_number 73
_symmetry_cell_setting 'orthorhombic'
loop_
_space_group_symop_operation_xyz
x,y,z
-x,1/2-y,z
x,-y,1/2-z
1/2-x,y,-z
-x,-y,-z
x,1/2+y,-z
-x,y,1/2+z
1/2+x,-y,z
1/2+x,1/2+y,1/2+z
1/2-x,-y,1/2+z
1/2+x,1/2-y,-z
-x,1/2+y,1/2-z
1/2-x,1/2-y,1/2-z
1/2+x,y,1/2-z
1/2-x,1/2+y,z
x,1/2-y,1/2+z
loop_
_atom_site_type_symbol
_atom_site_label
_atom_site_fract_x
_atom_site_fract_y
_atom_site_fract_z
Si Si1 0.250000 0.900184 0.000000
Si Si2 0.497479 0.895470 0.473495
Si Si3 0.179301 0.273361 0.425579
Si Si4 0.444488 0.205445 0.630629
Si Si5 0.128429 0.931464 0.663599
Si Si6 0.120689 0.464724 0.051452
Si Si7 0.894923 0.840338 0.870246
Si Si8 0.759235 0.854904 0.235270
O O1 0.316494 0.936775 0.980742
O O2 0.264124 0.867723 0.121150
O O3 0.538901 0.844172 0.446733
O O4 0.445048 0.903656 0.359353
O O5 0.548827 0.941644 0.497973
O O6 0.444021 0.885210 0.585765
O O7 0.250000 0.262374 0.500000
O O8 0.133008 0.225680 0.399123
O O9 0.130748 0.309124 0.510848
O O10 0.204179 0.303053 0.303777
O O11 0.500000 0.250000 0.608739
O O12 0.440816 0.191661 0.774884
O O13 0.126701 0.949509 0.804570
O O14 0.196031 0.895762 0.658022
O O15 0.129061 0.975975 0.563525
O O16 0.822037 0.855874 0.805346
#
# Coordination Sequence:
#
# PCOD9531708 Si02
#       8
#     8  16  16  16  16  16  16  16
#     4  10  22  42  64 102 134 176 220 288 340 406
#     4  12  23  42  65  97 134 182 221 285 342 408
#     4  10  23  46  67  98 128 179 231 278 340 411
#     4  12  25  42  64 101 140 180 230 284 350 411
#     4  10  21  43  67  95 134 176 221 282 343 409
#     4  10  23  40  66 100 132 172 227 277 344 411
#     4  11  24  41  66  99 130 176 227 270 341 410
#     4  10  21  44  69  98 137 176 232 276 349 407
#
# _framework density 21.757722000000001
#
# number of rings (size 3 to 8) (size 9 to 14) (size 15 to 20)
#    0.000    1.333    2.667    2.000    1.867    4.267 
#    9.600    0.000    0.000    1.600    0.000    0.000 
#    0.000    0.000    0.000    0.000    0.000    0.000 
#
# Total GULP energy -335429.265952 kJ/mol
# GULP energy per Si atom -5590.487766 kJ/mol
# Density = 2.170820 g / cm^3
# Si number density = 21.757722 Si / 1000 Ang^3
#
#
#
# Elastic Constant Matrix: (Units=GPa)
#
#
# Indices 1 2 3 4 5 6 
#
# 1 102.2379 45.0340 8.8107 0.0000 0.0000 0.0000
# 2 45.0340 103.7830 26.9876 0.0000 0.0000 0.0000
# 3 8.8107 26.9876 51.8634 0.0000 0.0000 0.0000
# 4 0.0000 0.0000 0.0000 18.6977 0.0000 0.0000
# 5 0.0000 0.0000 0.0000 0.0000 25.4482 0.0000
# 6 0.0000 0.0000 0.0000 0.0000 0.0000 30.2418
#
#
#
# Elastic Compliance Matrix: (Units=1/GPa)
#
#
# Indices 1 2 3 4 5 6 
#
# 1 0.012120 -0.005463 0.000784 0.000000 0.000000 0.000000
# 2 -0.005463 0.013606 -0.006152 0.000000 0.000000 0.000000
# 3 0.000784 -0.006152 0.022349 0.000000 0.000000 0.000000
# 4 0.000000 0.000000 0.000000 0.053483 0.000000 0.000000
# 5 0.000000 0.000000 0.000000 0.000000 0.039296 0.000000
# 6 0.000000 0.000000 0.000000 0.000000 0.000000 0.033067
#
#
# Mechanical properties :
#
#
# Convention : Reuss Voigt Hill
#
# Bulk Modulus (GPa) = 37.86014 46.61656 42.23835
# Shear Modulus (GPa) = 24.46348 26.68099 25.57224
#
# Velocity S-wave (km/s) = 3.35678 3.50562 3.43201
# Velocity P-wave (km/s) = 5.69759 6.15286 5.92960
#
# Compressibility (1/GPa) = 0.02641300
#
# Stress axis : x y z
#
# Youngs Moduli (GPa) = 82.50902 73.49861 44.74388
#
# Poissons Ratio (x) = 0.40152 -0.03507
# Poissons Ratio (y) = 0.45074 0.27526
# Poissons Ratio (z) = -0.06466 0.45215
#
# Static dielectric constant tensor:
#      x y z
#    x 1.780170 0.000000 0.000000 
#    y 0.000000 1.835860 0.000000 
#    z 0.000000 0.000000 1.795600 
# 
# From -- ./inp_files/12262.got.cif
#   From: 2010.05.17/outbox.cif.g08.bks.cpg/sg73_7_cif.got.tgz:12262.got - 2010.06.03 17:35:07.
