data_PCOD9531102
_publ_section_title
;
Structure prediction by ZEFSAII (Michael W. Deem and Ramdas Pophale) SiO2 
 PCOD9531102
Probable space group: I B C A 
;
_chemical_formula_sum "Si O2"
_cell_formula_units_Z 64
_cell_length_a 10.612102
_cell_length_b 27.683499
_cell_length_c 8.951246
_cell_angle_alpha 90.000000
_cell_angle_beta 90.000000
_cell_angle_gamma 90.000000
_cell_volume 2629.698080
_symmetry_space_group_name_H-M "I B C A "
_symmetry_group_IT_number 73
_symmetry_cell_setting 'orthorhombic'
loop_
_space_group_symop_operation_xyz
x,y,z
-x,1/2-y,z
x,-y,1/2-z
1/2-x,y,-z
-x,-y,-z
x,1/2+y,-z
-x,y,1/2+z
1/2+x,-y,z
1/2+x,1/2+y,1/2+z
1/2-x,-y,1/2+z
1/2+x,1/2-y,-z
-x,1/2+y,1/2-z
1/2-x,1/2-y,1/2-z
1/2+x,y,1/2-z
1/2-x,1/2+y,z
x,1/2-y,1/2+z
loop_
_atom_site_type_symbol
_atom_site_label
_atom_site_fract_x
_atom_site_fract_y
_atom_site_fract_z
Si Si1 0.884494 0.685433 0.279821
Si Si2 0.250000 0.865537 0.500000
Si Si3 0.886604 0.000000 0.750000
Si Si4 0.250000 0.562920 0.500000
Si Si5 0.500000 0.750000 0.961911
Si Si6 0.995549 0.594286 0.380615
O O1 0.753323 0.665649 0.346243
O O2 0.900942 0.721629 0.143651
O O3 0.937976 0.711871 0.427017
O O4 0.966698 0.636841 0.262245
O O5 0.123756 0.896987 0.490921
O O6 0.801347 0.971398 0.631337
O O7 0.974464 0.959289 0.821319
O O8 0.365980 0.595866 0.553000
#
# Coordination Sequence:
#
# PCOD9531102 Si02
#       6
#    16   8   8   8   8  16
#     4   9  22  41  70 100 145 175 237 295 355 425
#     4   8  21  44  69 102 146 180 229 304 351 420
#     4  12  26  46  72 110 148 190 250 300 360 432
#     4  12  27  46  77 104 144 200 245 292 367 438
#     4  10  20  42  70 106 128 190 236 290 358 428
#     4  10  24  45  71 106 144 188 235 302 355 430
#
# _framework density 24.337395000000001
#
# number of rings (size 3 to 8) (size 9 to 14) (size 15 to 20)
#    1.500    0.500    0.000    2.250    3.500    5.000 
#    0.000    5.000    0.000    0.000    0.000    0.000 
#    0.000    0.000    0.000    0.000    0.000    0.000 
#
# Total GULP energy -178778.366093 kJ/mol
# GULP energy per Si atom -5586.823940 kJ/mol
# Density = 2.428200 g / cm^3
# Si number density = 24.337395 Si / 1000 Ang^3
#
#
#
# Elastic Constant Matrix: (Units=GPa)
#
#
# Indices 1 2 3 4 5 6 
#
# 1 105.7276 18.3154 12.7996 -0.0005 -0.0003 0.0011
# 2 18.3154 112.4680 15.4082 0.0005 -0.0002 0.0000
# 3 12.7996 15.4082 74.8221 -0.0002 0.0004 0.0031
# 4 -0.0005 0.0005 -0.0002 32.7592 -0.0001 0.0006
# 5 -0.0003 -0.0002 0.0004 -0.0001 27.2429 0.0007
# 6 0.0011 0.0000 0.0031 0.0006 0.0007 34.1069
#
#
#
# Elastic Compliance Matrix: (Units=1/GPa)
#
#
# Indices 1 2 3 4 5 6 
#
# 1 0.009873 -0.001416 -0.001397 0.000000 0.000000 0.000000
# 2 -0.001416 0.009353 -0.001684 0.000000 0.000000 0.000000
# 3 -0.001397 -0.001684 0.013951 0.000000 0.000000 -0.000001
# 4 0.000000 0.000000 0.000000 0.030526 0.000000 -0.000001
# 5 0.000000 0.000000 0.000000 0.000000 0.036707 -0.000001
# 6 0.000000 0.000000 -0.000001 -0.000001 -0.000001 0.029320
#
#
# Mechanical properties :
#
#
# Convention : Reuss Voigt Hill
#
# Bulk Modulus (GPa) = 41.35363 42.89600 42.12482
# Shear Modulus (GPa) = 34.06374 35.25477 34.65925
#
# Velocity S-wave (km/s) = 3.74524 3.81016 3.77784
# Velocity P-wave (km/s) = 5.97755 6.08442 6.03123
#
# Compressibility (1/GPa) = 0.02418167
#
# Stress axis : x y z
#
# Youngs Moduli (GPa) = 101.28867 106.92047 71.68056
#
# Poissons Ratio (x) = 0.15144 0.10015
# Poissons Ratio (y) = 0.14346 0.12069
# Poissons Ratio (z) = 0.14152 0.18003
#
# Static dielectric constant tensor:
#      x y z
#    x 1.936290 0.000000 0.000000 
#    y 0.000000 1.966600 0.000000 
#    z 0.000000 0.000000 1.998740 
# 
# From -- ./inp_files/4065.got.cif
#   From: 2010.05.17/outbox.cif.g08.bks.cpg/sg73_3_cif.got.tgz:4065.got - 2010.06.03 17:35:07.
