data_PCOD9531868
_publ_section_title
;
Structure prediction by ZEFSAII (Michael W. Deem and Ramdas Pophale) SiO2 
 PCOD9531868
Probable space group: I B C A 
;
_chemical_formula_sum "Si O2"
_cell_formula_units_Z 120
_cell_length_a 24.768299
_cell_length_b 23.598632
_cell_length_c 9.336277
_cell_angle_alpha 90.000000
_cell_angle_beta 90.000000
_cell_angle_gamma 90.000000
_cell_volume 5457.034985
_symmetry_space_group_name_H-M "I B C A "
_symmetry_group_IT_number 73
_symmetry_cell_setting 'orthorhombic'
loop_
_space_group_symop_operation_xyz
x,y,z
-x,1/2-y,z
x,-y,1/2-z
1/2-x,y,-z
-x,-y,-z
x,1/2+y,-z
-x,y,1/2+z
1/2+x,-y,z
1/2+x,1/2+y,1/2+z
1/2-x,-y,1/2+z
1/2+x,1/2-y,-z
-x,1/2+y,1/2-z
1/2-x,1/2-y,1/2-z
1/2+x,y,1/2-z
1/2-x,1/2+y,z
x,1/2-y,1/2+z
loop_
_atom_site_type_symbol
_atom_site_label
_atom_site_fract_x
_atom_site_fract_y
_atom_site_fract_z
Si Si1 0.114313 0.272764 0.457194
Si Si2 0.383428 0.829436 0.145642
Si Si3 0.456769 0.637417 0.419058
Si Si4 0.806819 0.868098 0.949338
Si Si5 0.000000 0.250000 0.412876
Si Si6 0.044357 0.049364 0.972188
Si Si7 0.151076 0.441575 0.297780
Si Si8 0.623360 0.433394 0.762096
O O1 0.135285 0.211728 0.514528
O O2 0.117277 0.290932 0.289308
O O3 0.148497 0.319888 0.536967
O O4 0.050944 0.276107 0.495668
O O5 0.355079 0.888925 0.187541
O O6 0.441873 0.847147 0.083529
O O7 0.469610 0.696801 0.340720
O O8 0.509726 0.600583 0.412638
O O9 0.406973 0.599338 0.364996
O O10 0.822183 0.899905 0.803503
O O11 0.750000 0.843151 0.000000
O O12 0.817528 0.915501 0.069015
O O13 0.092434 0.039968 0.860082
O O14 0.076822 0.066634 0.114697
O O15 0.000000 0.000000 0.000000
O O16 0.177473 0.500000 0.250000
O O17 0.635259 0.500000 0.750000
#
# Coordination Sequence:
#
# PCOD9531868 Si02
#       8
#    16  16  16  16   8  16  16  16
#     4  10  23  43  65  96 131 179 232 275 354 422
#     4  10  23  40  64  94 136 181 228 285 344 417
#     4  11  23  36  60  93 139 181 225 278 341 432
#     4  10  24  47  69  91 130 179 236 303 357 413
#     4  10  22  38  60  94 136 176 212 272 338 414
#     4  11  22  36  58  95 141 186 219 275 345 424
#     4  10  22  40  66  96 133 177 234 284 350 426
#     4  11  24  39  61  99 134 175 243 285 357 439
#
# _framework density 21.989964000000001
#
# number of rings (size 3 to 8) (size 9 to 14) (size 15 to 20)
#    0.000    1.600    1.333    3.200   11.200    2.667 
#    0.000    2.667    0.000    0.000    0.000    0.000 
#    0.000    0.000    0.000    0.000    0.000    0.000 
#
# Total GULP energy -334212.157885 kJ/mol
# GULP energy per Si atom -5570.202631 kJ/mol
# Density = 2.193991 g / cm^3
# Si number density = 21.989964 Si / 1000 Ang^3
#
#
#
# Elastic Constant Matrix: (Units=GPa)
#
#
# Indices 1 2 3 4 5 6 
#
# 1 48.5161 10.4192 -4.5916 0.0000 0.0000 0.0000
# 2 10.4192 115.7667 26.4489 0.0000 0.0000 0.0000
# 3 -4.5916 26.4489 68.2676 0.0000 0.0000 0.0000
# 4 0.0000 0.0000 0.0000 30.4647 0.0000 0.0000
# 5 0.0000 0.0000 0.0000 0.0000 8.1746 0.0000
# 6 0.0000 0.0000 0.0000 0.0000 0.0000 14.3000
#
#
#
# Elastic Compliance Matrix: (Units=1/GPa)
#
#
# Indices 1 2 3 4 5 6 
#
# 1 0.021369 -0.002470 0.002394 0.000000 0.000000 0.000000
# 2 -0.002470 0.009762 -0.003948 0.000000 0.000000 0.000000
# 3 0.002394 -0.003948 0.016339 0.000000 0.000000 0.000000
# 4 0.000000 0.000000 0.000000 0.032825 0.000000 0.000000
# 5 0.000000 0.000000 0.000000 0.000000 0.122329 0.000000
# 6 0.000000 0.000000 0.000000 0.000000 0.000000 0.069930
#
#
# Mechanical properties :
#
#
# Convention : Reuss Voigt Hill
#
# Bulk Modulus (GPa) = 25.36683 33.01148 29.18916
# Shear Modulus (GPa) = 17.02164 23.93947 20.48056
#
# Velocity S-wave (km/s) = 2.78522 3.30306 3.05513
# Velocity P-wave (km/s) = 4.68016 5.43981 5.07422
#
# Compressibility (1/GPa) = 0.03942156
#
# Stress axis : x y z
#
# Youngs Moduli (GPa) = 46.79714 102.43303 61.20318
#
# Poissons Ratio (x) = 0.25303 -0.14654
# Poissons Ratio (y) = 0.11560 0.24166
# Poissons Ratio (z) = -0.11205 0.40445
#
# Static dielectric constant tensor:
#      x y z
#    x 1.800180 0.000000 0.000000 
#    y 0.000000 1.904560 0.000000 
#    z 0.000000 0.000000 1.878630 
# 
# From -- ./inp_files/7401.got.cif
#   From: 2010.05.17/outbox.cif.g08.bks.cpg/sg73_4_cif.got.tgz:7401.got - 2010.06.03 17:35:07.
