data_PCOD9531804
_publ_section_title
;
Structure prediction by ZEFSAII (Michael W. Deem and Ramdas Pophale) SiO2 
 PCOD9531804
Probable space group: I B C A 
;
_chemical_formula_sum "Si O2"
_cell_formula_units_Z 96
_cell_length_a 8.748784
_cell_length_b 20.505095
_cell_length_c 25.552507
_cell_angle_alpha 90.000000
_cell_angle_beta 90.000000
_cell_angle_gamma 90.000000
_cell_volume 4583.982975
_symmetry_space_group_name_H-M "I B C A "
_symmetry_group_IT_number 73
_symmetry_cell_setting 'orthorhombic'
loop_
_space_group_symop_operation_xyz
x,y,z
-x,1/2-y,z
x,-y,1/2-z
1/2-x,y,-z
-x,-y,-z
x,1/2+y,-z
-x,y,1/2+z
1/2+x,-y,z
1/2+x,1/2+y,1/2+z
1/2-x,-y,1/2+z
1/2+x,1/2-y,-z
-x,1/2+y,1/2-z
1/2-x,1/2-y,1/2-z
1/2+x,y,1/2-z
1/2-x,1/2+y,z
x,1/2-y,1/2+z
loop_
_atom_site_type_symbol
_atom_site_label
_atom_site_fract_x
_atom_site_fract_y
_atom_site_fract_z
Si Si1 0.191199 0.415753 0.292188
Si Si2 0.250000 0.353909 0.000000
Si Si3 0.988172 0.045668 0.949978
Si Si4 0.454746 0.000000 0.750000
Si Si5 0.082301 0.181296 0.600664
Si Si6 0.359331 0.298211 0.782636
Si Si7 0.820098 0.072839 0.596361
O O1 0.342708 0.442065 0.264298
O O2 0.122642 0.358936 0.256692
O O3 0.249278 0.401053 0.349357
O O4 0.069159 0.474521 0.294350
O O5 0.378187 0.397407 0.029545
O O6 0.184325 0.314775 0.048906
O O7 0.162201 0.067285 0.936942
O O8 0.899967 0.999209 0.907447
O O9 0.000000 0.000000 0.000000
O O10 0.166741 0.174269 0.657835
O O11 0.000000 0.250000 0.604019
O O12 0.960295 0.123358 0.588458
O O13 0.500000 0.250000 0.788644
O O14 0.250000 0.250000 0.750000
#
# Coordination Sequence:
#
# PCOD9531804 Si02
#       7
#    16   8  16   8  16  16  16
#     4  11  22  39  63  99 131 179 221 287 341 421
#     4  12  26  44  72 104 140 184 244 290 356 432
#     4  12  23  43  69 102 138 184 232 287 356 431
#     4  10  22  36  56  90 146 160 214 280 354 404
#     4  11  26  47  68 101 139 188 237 302 350 417
#     4  11  24  46  72  95 140 186 240 291 355 424
#     4  12  23  41  72  99 139 182 236 286 356 420
#
# _framework density 20.942487
#
# number of rings (size 3 to 8) (size 9 to 14) (size 15 to 20)
#    0.000    0.667    3.333    5.000    0.000    8.000 
#    0.000    0.833    0.000    0.000    0.000    0.000 
#    0.000    0.000    0.000    0.000    0.000    0.000 
#
# Total GULP energy -267230.594133 kJ/mol
# GULP energy per Si atom -5567.304044 kJ/mol
# Density = 2.089482 g / cm^3
# Si number density = 20.942487 Si / 1000 Ang^3
#
#
#
# Elastic Constant Matrix: (Units=GPa)
#
#
# Indices 1 2 3 4 5 6 
#
# 1 98.2058 15.9928 45.4560 0.0000 0.0000 0.0000
# 2 15.9928 59.7559 35.3392 0.0000 0.0000 0.0000
# 3 45.4560 35.3392 152.1128 0.0000 0.0000 0.0000
# 4 0.0000 0.0000 0.0000 26.5955 0.0000 0.0000
# 5 0.0000 0.0000 0.0000 0.0000 189.8887 0.0000
# 6 0.0000 0.0000 0.0000 0.0000 0.0000 36.8241
#
#
#
# Elastic Compliance Matrix: (Units=1/GPa)
#
#
# Indices 1 2 3 4 5 6 
#
# 1 0.011898 -0.001254 -0.003264 0.000000 0.000000 0.000000
# 2 -0.001254 0.019532 -0.004163 0.000000 0.000000 0.000000
# 3 -0.003264 -0.004163 0.008517 0.000000 0.000000 0.000000
# 4 0.000000 0.000000 0.000000 0.037600 0.000000 0.000000
# 5 0.000000 0.000000 0.000000 0.000000 0.005266 0.000000
# 6 0.000000 0.000000 0.000000 0.000000 0.000000 0.027156
#
#
# Mechanical properties :
#
#
# Convention : Reuss Voigt Hill
#
# Bulk Modulus (GPa) = 44.27804 55.96119 50.11962
# Shear Modulus (GPa) = 37.07554 64.88076 50.97815
#
# Velocity S-wave (km/s) = 4.21212 5.57205 4.93911
# Velocity P-wave (km/s) = 6.69660 8.25689 7.51734
#
# Compressibility (1/GPa) = 0.02258456
#
# Stress axis : x y z
#
# Youngs Moduli (GPa) = 84.04966 51.19711 117.41683
#
# Poissons Ratio (x) = 0.06420 0.38326
# Poissons Ratio (y) = 0.10539 0.48882
# Poissons Ratio (z) = 0.27435 0.21314
#
# Static dielectric constant tensor:
#      x y z
#    x 2.517530 0.000000 0.000000 
#    y 0.000000 1.908140 0.000000 
#    z 0.000000 0.000000 1.843460 
# 
# From -- ./inp_files/31205.got.cif
#   From: 2010.05.17/outbox.cif.g08.bks.cpg/sg73_16_cif.got.tgz:31205.got - 2010.06.03 17:35:07.
