data_PCOD9531155
_publ_section_title
;
Structure prediction by ZEFSAII (Michael W. Deem and Ramdas Pophale) SiO2 
 PCOD9531155
Probable space group: I B C A 
;
_chemical_formula_sum "Si O2"
_cell_formula_units_Z 88
_cell_length_a 13.669890
_cell_length_b 26.802839
_cell_length_c 11.078409
_cell_angle_alpha 90.000000
_cell_angle_beta 90.000000
_cell_angle_gamma 90.000000
_cell_volume 4059.038888
_symmetry_space_group_name_H-M "I B C A "
_symmetry_group_IT_number 73
_symmetry_cell_setting 'orthorhombic'
loop_
_space_group_symop_operation_xyz
x,y,z
-x,1/2-y,z
x,-y,1/2-z
1/2-x,y,-z
-x,-y,-z
x,1/2+y,-z
-x,y,1/2+z
1/2+x,-y,z
1/2+x,1/2+y,1/2+z
1/2-x,-y,1/2+z
1/2+x,1/2-y,-z
-x,1/2+y,1/2-z
1/2-x,1/2-y,1/2-z
1/2+x,y,1/2-z
1/2-x,1/2+y,z
x,1/2-y,1/2+z
loop_
_atom_site_type_symbol
_atom_site_label
_atom_site_fract_x
_atom_site_fract_y
_atom_site_fract_z
Si Si1 0.534492 0.365417 0.671636
Si Si2 0.616084 0.945546 0.804337
Si Si3 0.750000 0.598850 0.500000
Si Si4 0.263121 0.625348 0.629873
Si Si5 0.193996 0.738678 0.376183
Si Si6 0.431497 0.329560 0.428097
O O1 0.487309 0.420288 0.662629
O O2 0.651474 0.364523 0.668048
O O3 0.487877 0.335372 0.557077
O O4 0.512579 0.347923 0.808253
O O5 0.672852 0.909992 0.711038
O O6 0.605994 0.000000 0.750000
O O7 0.687046 0.938037 0.917416
O O8 0.667590 0.636131 0.556884
O O9 0.250000 0.601240 0.500000
O O10 0.314021 0.679238 0.619858
O O11 0.250000 0.751757 0.500000
O O12 0.250000 0.750000 0.250000
O O13 0.100984 0.773901 0.391600
#
# Coordination Sequence:
#
# PCOD9531155 Si02
#       6
#    16  16   8  16  16  16
#     4  11  24  45  72 110 147 187 250 309 361 443
#     4  11  25  44  73 105 141 194 248 310 378 431
#     4  10  20  44  74  98 140 196 250 296 368 444
#     4  11  24  46  71 104 146 190 238 301 369 442
#     4  11  22  42  75 100 138 193 235 288 359 435
#     4  11  22  45  74 104 148 193 241 303 364 440
#
# _framework density 21.680008999999998
#
# number of rings (size 3 to 8) (size 9 to 14) (size 15 to 20)
#    0.000    1.091    4.545    1.091    3.818    0.727 
#    0.000   14.545    0.000    0.000    0.000    0.000 
#    0.000    0.000    0.000    0.000    0.000    0.000 
#
# Total GULP energy -245527.912538 kJ/mol
# GULP energy per Si atom -5580.179830 kJ/mol
# Density = 2.163066 g / cm^3
# Si number density = 21.680009 Si / 1000 Ang^3
#
#
#
# Elastic Constant Matrix: (Units=GPa)
#
#
# Indices 1 2 3 4 5 6 
#
# 1 110.8957 50.2030 38.8888 -0.0001 0.0000 0.0000
# 2 50.2030 129.0925 28.8013 -0.0015 0.0000 0.0000
# 3 38.8888 28.8013 146.1788 -0.0055 -0.0003 0.0002
# 4 -0.0001 -0.0015 -0.0055 -67.1884 0.0004 0.0004
# 5 0.0000 0.0000 -0.0003 0.0004 25.7934 0.0000
# 6 0.0000 0.0000 0.0002 0.0004 0.0000 22.0131
#
#
#
# Elastic Compliance Matrix: (Units=1/GPa)
#
#
# Indices 1 2 3 4 5 6 
#
# 1 0.011643 -0.004013 -0.002307 0.000000 0.000000 0.000000
# 2 -0.004013 0.009486 -0.000801 0.000000 0.000000 0.000000
# 3 -0.002307 -0.000801 0.007613 -0.000001 0.000000 0.000000
# 4 0.000000 0.000000 -0.000001 -0.014884 0.000000 0.000000
# 5 0.000000 0.000000 0.000000 0.000000 0.038770 0.000000
# 6 0.000000 0.000000 0.000000 0.000000 0.000000 0.045427
#
#
# Mechanical properties :
#
#
# Convention : Reuss Voigt Hill
#
# Bulk Modulus (GPa) = 68.97091 69.10590 69.03840
# Shear Modulus (GPa) = 42.68727 14.00856 28.34791
#
# Velocity S-wave (km/s) = 4.44212 2.54471 3.61994
# Velocity P-wave (km/s) = 7.62838 6.37014 7.02747
#
# Compressibility (1/GPa) = 0.01449887
#
# Stress axis : x y z
#
# Youngs Moduli (GPa) = 85.88651 105.41959 131.36280
#
# Poissons Ratio (x) = 0.42308 0.30303
# Poissons Ratio (y) = 0.34469 0.10526
# Poissons Ratio (z) = 0.19812 0.08447
#
# Static dielectric constant tensor:
#      x y z
#    x 1.984660 0.000000 0.000000 
#    y 0.000000 1.846580 0.000000 
#    z 0.000000 0.000000 1.766840 
# 
# From -- ./inp_files/10929.got.cif
#   From: 2010.05.17/outbox.cif.g08.bks.cpg/sg73_6_cif.got.tgz:10929.got - 2010.06.03 17:35:07.
