data_PCOD9531301
_publ_section_title
;
Structure prediction by ZEFSAII (Michael W. Deem and Ramdas Pophale) SiO2 
 PCOD9531301
Probable space group: I B C A 
;
_chemical_formula_sum "Si O2"
_cell_formula_units_Z 56
_cell_length_a 13.116513
_cell_length_b 17.625146
_cell_length_c 9.847830
_cell_angle_alpha 90.000000
_cell_angle_beta 90.000000
_cell_angle_gamma 90.000000
_cell_volume 2276.625836
_symmetry_space_group_name_H-M "I B C A "
_symmetry_group_IT_number 73
_symmetry_cell_setting 'orthorhombic'
loop_
_space_group_symop_operation_xyz
x,y,z
-x,1/2-y,z
x,-y,1/2-z
1/2-x,y,-z
-x,-y,-z
x,1/2+y,-z
-x,y,1/2+z
1/2+x,-y,z
1/2+x,1/2+y,1/2+z
1/2-x,-y,1/2+z
1/2+x,1/2-y,-z
-x,1/2+y,1/2-z
1/2-x,1/2-y,1/2-z
1/2+x,y,1/2-z
1/2-x,1/2+y,z
x,1/2-y,1/2+z
loop_
_atom_site_type_symbol
_atom_site_label
_atom_site_fract_x
_atom_site_fract_y
_atom_site_fract_z
Si Si1 0.085789 0.312930 0.921031
Si Si2 0.424632 0.434976 0.633794
Si Si3 0.215704 0.155736 0.684209
Si Si4 0.750000 0.015639 0.000000
O O1 0.174986 0.303522 0.808007
O O2 0.000000 0.250000 0.914032
O O3 0.027460 0.393366 0.910020
O O4 0.145864 0.310974 0.063723
O O5 0.441103 0.500000 0.750000
O O6 0.353781 0.367344 0.692087
O O7 0.353632 0.468320 0.514827
O O8 0.249718 0.072242 0.627340
#
# Coordination Sequence:
#
# PCOD9531301 Si02
#       4
#    16  16  16   8
#     4  10  22  38  57  83 119 159 194 239 293 347
#     4  10  21  37  63  88 115 157 195 241 298 345
#     4   9  22  39  55  87 123 146 198 253 281 344
#     4   8  18  36  58  88 114 146 196 244 286 338
#
# _framework density 24.597805000000001
#
# number of rings (size 3 to 8) (size 9 to 14) (size 15 to 20)
#    0.000    2.857    0.000    0.000    0.000   22.857 
#    0.000    0.000    0.000    0.000    0.000    0.000 
#    0.000    0.000    0.000    0.000    0.000    0.000 
#
# Total GULP energy -156465.215564 kJ/mol
# GULP energy per Si atom -5588.043413 kJ/mol
# Density = 2.454182 g / cm^3
# Si number density = 24.597805 Si / 1000 Ang^3
#
#
#
# Elastic Constant Matrix: (Units=GPa)
#
#
# Indices 1 2 3 4 5 6 
#
# 1 210.1318 69.9955 35.5936 0.0000 0.0000 0.0000
# 2 69.9955 100.0166 14.8151 0.0000 0.0000 0.0000
# 3 35.5936 14.8151 40.9732 0.0000 0.0000 0.0000
# 4 0.0000 0.0000 0.0000 16.7230 0.0000 0.0000
# 5 0.0000 0.0000 0.0000 0.0000 34.5787 0.0000
# 6 0.0000 0.0000 0.0000 0.0000 0.0000 60.1201
#
#
#
# Elastic Compliance Matrix: (Units=1/GPa)
#
#
# Indices 1 2 3 4 5 6 
#
# 1 0.006909 -0.004170 -0.004494 0.000000 0.000000 0.000000
# 2 -0.004170 0.013080 -0.001108 0.000000 0.000000 0.000000
# 3 -0.004494 -0.001108 0.028711 0.000000 0.000000 0.000000
# 4 0.000000 0.000000 0.000000 0.059798 0.000000 0.000000
# 5 0.000000 0.000000 0.000000 0.000000 0.028920 0.000000
# 6 0.000000 0.000000 0.000000 0.000000 0.000000 0.016633
#
#
# Mechanical properties :
#
#
# Convention : Reuss Voigt Hill
#
# Bulk Modulus (GPa) = 34.29637 65.77000 50.03319
# Shear Modulus (GPa) = 27.27573 37.66552 32.47062
#
# Velocity S-wave (km/s) = 3.33358 3.91737 3.63721
# Velocity P-wave (km/s) = 5.36564 6.87439 6.16634
#
# Compressibility (1/GPa) = 0.02915761
#
# Stress axis : x y z
#
# Youngs Moduli (GPa) = 144.73719 76.45031 34.82998
#
# Poissons Ratio (x) = 0.31876 0.15654
# Poissons Ratio (y) = 0.60348 0.03858
# Poissons Ratio (z) = 0.65050 0.08467
#
# Static dielectric constant tensor:
#      x y z
#    x 1.951930 0.000000 0.000000 
#    y 0.000000 2.069840 0.000000 
#    z 0.000000 0.000000 1.977150 
# 
# From -- ./inp_files/4534.got.cif
#   From: 2010.05.17/outbox.cif.g08.bks.cpg/sg73_3_cif.got.tgz:4534.got - 2010.06.03 17:35:07.
