data_PCOD9531837
_publ_section_title
;
Structure prediction by ZEFSAII (Michael W. Deem and Ramdas Pophale) SiO2 
 PCOD9531837
Probable space group: I B C A 
;
_chemical_formula_sum "Si O2"
_cell_formula_units_Z 96
_cell_length_a 21.730216
_cell_length_b 8.011218
_cell_length_c 23.615631
_cell_angle_alpha 90.000000
_cell_angle_beta 90.000000
_cell_angle_gamma 90.000000
_cell_volume 4111.138873
_symmetry_space_group_name_H-M "I B C A "
_symmetry_group_IT_number 73
_symmetry_cell_setting 'orthorhombic'
loop_
_space_group_symop_operation_xyz
x,y,z
-x,1/2-y,z
x,-y,1/2-z
1/2-x,y,-z
-x,-y,-z
x,1/2+y,-z
-x,y,1/2+z
1/2+x,-y,z
1/2+x,1/2+y,1/2+z
1/2-x,-y,1/2+z
1/2+x,1/2-y,-z
-x,1/2+y,1/2-z
1/2-x,1/2-y,1/2-z
1/2+x,y,1/2-z
1/2-x,1/2+y,z
x,1/2-y,1/2+z
loop_
_atom_site_type_symbol
_atom_site_label
_atom_site_fract_x
_atom_site_fract_y
_atom_site_fract_z
Si Si1 0.635592 0.365554 0.171374
Si Si2 0.617202 0.500398 0.867758
Si Si3 0.295460 0.998761 0.075946
Si Si4 0.988581 0.051509 0.184738
Si Si5 0.317085 0.187857 0.772363
Si Si6 0.168066 0.363327 0.533940
O O1 0.690421 0.471196 0.141930
O O2 0.573383 0.468323 0.159775
O O3 0.639874 0.316209 0.237703
O O4 0.644576 0.184196 0.142212
O O5 0.549999 0.522412 0.842007
O O6 0.656267 0.353170 0.834991
O O7 0.611773 0.441018 0.932311
O O8 0.225027 0.028461 0.059421
O O9 0.317299 0.821341 0.053926
O O10 0.331706 0.123029 0.033380
O O11 0.000000 0.250000 0.178918
O O12 0.989354 0.000000 0.250000
O O13 0.250000 0.250000 0.750000
O O14 0.323121 0.000000 0.750000
#
# Coordination Sequence:
#
# PCOD9531837 Si02
#       6
#    16  16  16  16  16  16
#     4  11  23  40  61  89 125 164 209 258 311 375
#     4  11  22  40  61  89 123 164 208 256 311 376
#     4  11  22  39  62  91 122 162 205 256 314 375
#     4  12  24  41  63  89 122 166 212 258 311 373
#     4  10  22  37  59  91 128 164 204 257 321 381
#     4  11  22  39  63  91 124 162 206 255 313 376
#
# _framework density 23.351194
#
# number of rings (size 3 to 8) (size 9 to 14) (size 15 to 20)
#    0.000    1.000    0.000   10.000    0.000    6.000 
#    0.000    0.833    0.000    0.000    0.000    0.000 
#    0.000    0.000    0.000    0.000    0.000    0.000 
#
# Total GULP energy -268020.911419 kJ/mol
# GULP energy per Si atom -5583.768988 kJ/mol
# Density = 2.329805 g / cm^3
# Si number density = 23.351194 Si / 1000 Ang^3
#
#
#
# Elastic Constant Matrix: (Units=GPa)
#
#
# Indices 1 2 3 4 5 6 
#
# 1 79.6721 8.3685 11.7323 0.0000 0.0000 0.0000
# 2 8.3685 138.8087 9.7073 0.0000 0.0000 0.0000
# 3 11.7323 9.7073 89.2276 0.0000 0.0000 0.0000
# 4 0.0000 0.0000 0.0000 34.4766 0.0000 0.0000
# 5 0.0000 0.0000 0.0000 0.0000 17.5331 0.0000
# 6 0.0000 0.0000 0.0000 0.0000 0.0000 33.6368
#
#
#
# Elastic Compliance Matrix: (Units=1/GPa)
#
#
# Indices 1 2 3 4 5 6 
#
# 1 0.012859 -0.000662 -0.001619 0.000000 0.000000 0.000000
# 2 -0.000662 0.007293 -0.000706 0.000000 0.000000 0.000000
# 3 -0.001619 -0.000706 0.011497 0.000000 0.000000 0.000000
# 4 0.000000 0.000000 0.000000 0.029005 0.000000 0.000000
# 5 0.000000 0.000000 0.000000 0.000000 0.057035 0.000000
# 6 0.000000 0.000000 0.000000 0.000000 0.000000 0.029729
#
#
# Mechanical properties :
#
#
# Convention : Reuss Voigt Hill
#
# Bulk Modulus (GPa) = 38.94801 40.81384 39.88093
# Shear Modulus (GPa) = 30.87329 35.65599 33.26464
#
# Velocity S-wave (km/s) = 3.64005 3.91185 3.77840
# Velocity P-wave (km/s) = 5.86363 6.15790 6.01256
#
# Compressibility (1/GPa) = 0.02567525
#
# Stress axis : x y z
#
# Youngs Moduli (GPa) = 77.76428 137.10884 86.97921
#
# Poissons Ratio (x) = 0.09077 0.14080
# Poissons Ratio (y) = 0.05148 0.06144
# Poissons Ratio (z) = 0.12589 0.09686
#
# Static dielectric constant tensor:
#      x y z
#    x 1.940100 0.000000 0.000000 
#    y 0.000000 1.934430 0.000000 
#    z 0.000000 0.000000 2.121040 
# 
# From -- ./inp_files/32611.got.cif
#   From: 2010.05.17/outbox.cif.g08.bks.cpg/sg73_17_cif.got.tgz:32611.got - 2010.06.03 17:35:07.
