data_PCOD9531512
_publ_section_title
;
Structure prediction by ZEFSAII (Michael W. Deem and Ramdas Pophale) SiO2 
 PCOD9531512
Probable space group: I B C A 
;
_chemical_formula_sum "Si O2"
_cell_formula_units_Z 88
_cell_length_a 24.732059
_cell_length_b 10.300599
_cell_length_c 14.189713
_cell_angle_alpha 90.000000
_cell_angle_beta 90.000000
_cell_angle_gamma 90.000000
_cell_volume 3614.900650
_symmetry_space_group_name_H-M "I B C A "
_symmetry_group_IT_number 73
_symmetry_cell_setting 'orthorhombic'
loop_
_space_group_symop_operation_xyz
x,y,z
-x,1/2-y,z
x,-y,1/2-z
1/2-x,y,-z
-x,-y,-z
x,1/2+y,-z
-x,y,1/2+z
1/2+x,-y,z
1/2+x,1/2+y,1/2+z
1/2-x,-y,1/2+z
1/2+x,1/2-y,-z
-x,1/2+y,1/2-z
1/2-x,1/2-y,1/2-z
1/2+x,y,1/2-z
1/2-x,1/2+y,z
x,1/2-y,1/2+z
loop_
_atom_site_type_symbol
_atom_site_label
_atom_site_fract_x
_atom_site_fract_y
_atom_site_fract_z
Si Si1 0.147461 0.195732 0.219371
Si Si2 0.750000 0.965514 0.500000
Si Si3 0.650000 0.950742 0.393222
Si Si4 0.684350 0.100176 0.664833
Si Si5 0.923064 0.916686 0.046822
Si Si6 0.448078 0.310879 0.900657
O O1 0.171132 0.084908 0.152834
O O2 0.193422 0.269434 0.276774
O O3 0.106703 0.284019 0.158901
O O4 0.120791 0.122007 0.308052
O O5 0.700834 0.888915 0.449025
O O6 0.720017 0.051994 0.578449
O O7 0.606912 0.997770 0.467591
O O8 0.623395 0.113167 0.623070
O O9 0.686264 0.000000 0.750000
O O10 0.959517 0.034839 0.087484
O O11 0.942100 0.784354 0.994195
O O12 0.500000 0.250000 0.849603
#
# Coordination Sequence:
#
# PCOD9531512 Si02
#       6
#    16   8  16  16  16  16
#     4  10  21  40  63  89 129 172 200 275 332 376
#     4  10  24  40  62 100 120 174 224 264 316 404
#     4   9  21  41  61  90 130 166 214 256 328 390
#     4  11  22  41  64  90 132 166 220 265 326 390
#     4  10  21  41  65  91 132 175 206 271 338 380
#     4  11  22  40  66  99 127 169 227 268 326 404
#
# _framework density 24.343682999999999
#
# number of rings (size 3 to 8) (size 9 to 14) (size 15 to 20)
#    0.000    1.818    1.818    1.636    2.545    1.455 
#    0.000   10.909    0.000    0.000    0.000    0.000 
#    0.000    0.000    0.000    0.000    0.000    0.000 
#
# Total GULP energy -245110.872534 kJ/mol
# GULP energy per Si atom -5570.701649 kJ/mol
# Density = 2.428828 g / cm^3
# Si number density = 24.343683 Si / 1000 Ang^3
#
#
#
# Elastic Constant Matrix: (Units=GPa)
#
#
# Indices 1 2 3 4 5 6 
#
# 1 60.8813 7.0276 22.8199 0.0000 0.0000 0.0000
# 2 7.0276 64.7475 17.4090 0.0000 0.0000 0.0000
# 3 22.8199 17.4090 100.0776 0.0000 0.0000 0.0000
# 4 0.0000 0.0000 0.0000 32.1696 0.0000 0.0000
# 5 0.0000 0.0000 0.0000 0.0000 1.7971 0.0000
# 6 0.0000 0.0000 0.0000 0.0000 0.0000 -84.9769
#
#
#
# Elastic Compliance Matrix: (Units=1/GPa)
#
#
# Indices 1 2 3 4 5 6 
#
# 1 0.018009 -0.000892 -0.003951 0.000000 0.000000 0.000000
# 2 -0.000892 0.016247 -0.002623 0.000000 0.000000 0.000000
# 3 -0.003951 -0.002623 0.011349 0.000000 0.000000 0.000000
# 4 0.000000 0.000000 0.000000 0.031085 0.000000 0.000000
# 5 0.000000 0.000000 0.000000 0.000000 0.556464 0.000000
# 6 0.000000 0.000000 0.000000 0.000000 0.000000 -0.011768
#
#
# Mechanical properties :
#
#
# Convention : Reuss Voigt Hill
#
# Bulk Modulus (GPa) = 32.60213 35.57995 34.09104
# Shear Modulus (GPa) = 7.73342 1.69461 4.71402
#
# Velocity S-wave (km/s) = 1.78428 0.83524 1.39307
# Velocity P-wave (km/s) = 4.20314 3.94684 4.07701
#
# Compressibility (1/GPa) = 0.03067284
#
# Stress axis : x y z
#
# Youngs Moduli (GPa) = 55.52637 61.55118 88.10981
#
# Poissons Ratio (x) = 0.05492 0.34815
# Poissons Ratio (y) = 0.04955 0.23109
# Poissons Ratio (z) = 0.21940 0.16143
#
# Static dielectric constant tensor:
#      x y z
#    x 1.969650 0.000000 0.000000 
#    y 0.000000 2.256280 0.000000 
#    z 0.000000 0.000000 1.959390 
# 
# From -- ./inp_files/19751.got.cif
#   From: 2010.05.17/outbox.cif.g08.bks.cpg/sg73_10_cif.got.tgz:19751.got - 2010.06.03 17:35:07.
