data_PCOD9531659
_publ_section_title
;
Structure prediction by ZEFSAII (Michael W. Deem and Ramdas Pophale) SiO2 
 PCOD9531659
Probable space group: I B C A 
;
_chemical_formula_sum "Si O2"
_cell_formula_units_Z 112
_cell_length_a 26.359254
_cell_length_b 13.857231
_cell_length_c 14.819563
_cell_angle_alpha 90.000000
_cell_angle_beta 90.000000
_cell_angle_gamma 90.000000
_cell_volume 5413.086525
_symmetry_space_group_name_H-M "I B C A "
_symmetry_group_IT_number 73
_symmetry_cell_setting 'orthorhombic'
loop_
_space_group_symop_operation_xyz
x,y,z
-x,1/2-y,z
x,-y,1/2-z
1/2-x,y,-z
-x,-y,-z
x,1/2+y,-z
-x,y,1/2+z
1/2+x,-y,z
1/2+x,1/2+y,1/2+z
1/2-x,-y,1/2+z
1/2+x,1/2-y,-z
-x,1/2+y,1/2-z
1/2-x,1/2-y,1/2-z
1/2+x,y,1/2-z
1/2-x,1/2+y,z
x,1/2-y,1/2+z
loop_
_atom_site_type_symbol
_atom_site_label
_atom_site_fract_x
_atom_site_fract_y
_atom_site_fract_z
Si Si1 0.891717 0.613022 0.239873
Si Si2 0.336888 0.173744 0.368576
Si Si3 0.058334 0.763278 0.612388
Si Si4 0.283066 0.166675 0.798980
Si Si5 0.629743 0.596004 0.309175
Si Si6 0.716977 0.475257 0.089081
Si Si7 0.060818 0.760423 0.401309
O O1 0.903557 0.500000 0.250000
O O2 0.912273 0.669576 0.151493
O O3 0.830841 0.626436 0.243287
O O4 0.917155 0.666560 0.326380
O O5 0.308723 0.275279 0.383763
O O6 0.342481 0.166424 0.260299
O O7 0.396214 0.174325 0.397399
O O8 0.301327 0.085926 0.398938
O O9 0.077781 0.855465 0.666349
O O10 0.064446 0.785587 0.506795
O O11 0.000000 0.750000 0.631501
O O12 0.250000 0.250000 0.750000
O O13 0.250159 0.076203 0.833033
O O14 0.625397 0.500000 0.250000
O O15 0.663379 0.579752 0.397926
O O16 0.750000 0.465968 0.000000
O O17 0.000000 0.750000 0.383063
#
# Coordination Sequence:
#
# PCOD9531659 Si02
#       7
#    16  16  16  16  16  16  16
#     4  11  25  42  67 103 139 179 228 288 345 418
#     4  10  22  43  64  95 131 178 223 271 333 411
#     4  11  23  45  71 100 137 181 230 291 354 413
#     4  11  22  41  65  88 133 177 220 272 330 400
#     4  10  21  42  67  94 130 178 233 275 340 422
#     4  11  25  40  64 100 132 176 226 278 336 403
#     4  10  23  47  71  98 138 178 231 290 347 413
#
# _framework density 20.690598999999999
#
# number of rings (size 3 to 8) (size 9 to 14) (size 15 to 20)
#    0.000    1.429    4.286    0.429    6.000    2.286 
#    5.143    1.429    0.000    0.000    0.000    0.000 
#    0.000    0.000    0.000    0.000    0.000    0.000 
#
# Total GULP energy -311772.508606 kJ/mol
# GULP energy per Si atom -5567.366225 kJ/mol
# Density = 2.064351 g / cm^3
# Si number density = 20.690599 Si / 1000 Ang^3
#
#
#
# Elastic Constant Matrix: (Units=GPa)
#
#
# Indices 1 2 3 4 5 6 
#
# 1 149.1088 47.7689 48.8507 0.0000 0.0000 0.0000
# 2 47.7689 84.9226 23.3920 0.0000 0.0000 0.0000
# 3 48.8507 23.3920 84.2759 0.0000 0.0000 0.0000
# 4 0.0000 0.0000 0.0000 19.0792 0.0000 0.0000
# 5 0.0000 0.0000 0.0000 0.0000 21.3695 0.0000
# 6 0.0000 0.0000 0.0000 0.0000 0.0000 23.4479
#
#
#
# Elastic Compliance Matrix: (Units=1/GPa)
#
#
# Indices 1 2 3 4 5 6 
#
# 1 0.009445 -0.004120 -0.004332 0.000000 0.000000 0.000000
# 2 -0.004120 0.014547 -0.001650 0.000000 0.000000 0.000000
# 3 -0.004332 -0.001650 0.014834 0.000000 0.000000 0.000000
# 4 0.000000 0.000000 0.000000 0.052413 0.000000 0.000000
# 5 0.000000 0.000000 0.000000 0.000000 0.046796 0.000000
# 6 0.000000 0.000000 0.000000 0.000000 0.000000 0.042648
#
#
# Mechanical properties :
#
#
# Convention : Reuss Voigt Hill
#
# Bulk Modulus (GPa) = 53.69152 62.03672 57.86412
# Shear Modulus (GPa) = 24.14359 25.99904 25.07132
#
# Velocity S-wave (km/s) = 3.41968 3.54865 3.48476
# Velocity P-wave (km/s) = 6.44968 6.84388 6.64970
#
# Compressibility (1/GPa) = 0.01862492
#
# Stress axis : x y z
#
# Youngs Moduli (GPa) = 105.87072 68.74128 67.41062
#
# Poissons Ratio (x) = 0.28321 0.29199
# Poissons Ratio (y) = 0.43618 0.11121
# Poissons Ratio (z) = 0.45858 0.11340
#
# Static dielectric constant tensor:
#      x y z
#    x 1.808140 0.000000 0.000000 
#    y 0.000000 1.815320 0.000000 
#    z 0.000000 0.000000 1.765140 
# 
# From -- ./inp_files/19816.got.cif
#   From: 2010.05.17/outbox.cif.g08.bks.cpg/sg73_10_cif.got.tgz:19816.got - 2010.06.03 17:35:07.
