data_PCOD9531589
_publ_section_title
;
Structure prediction by ZEFSAII (Michael W. Deem and Ramdas Pophale) SiO2 
 PCOD9531589
Probable space group: I B C A 
;
_chemical_formula_sum "Si O2"
_cell_formula_units_Z 80
_cell_length_a 15.688637
_cell_length_b 7.608295
_cell_length_c 28.463147
_cell_angle_alpha 90.000000
_cell_angle_beta 90.000000
_cell_angle_gamma 90.000000
_cell_volume 3397.468772
_symmetry_space_group_name_H-M "I B C A "
_symmetry_group_IT_number 73
_symmetry_cell_setting 'orthorhombic'
loop_
_space_group_symop_operation_xyz
x,y,z
-x,1/2-y,z
x,-y,1/2-z
1/2-x,y,-z
-x,-y,-z
x,1/2+y,-z
-x,y,1/2+z
1/2+x,-y,z
1/2+x,1/2+y,1/2+z
1/2-x,-y,1/2+z
1/2+x,1/2-y,-z
-x,1/2+y,1/2-z
1/2-x,1/2-y,1/2-z
1/2+x,y,1/2-z
1/2-x,1/2+y,z
x,1/2-y,1/2+z
loop_
_atom_site_type_symbol
_atom_site_label
_atom_site_fract_x
_atom_site_fract_y
_atom_site_fract_z
Si Si1 0.000000 0.750000 0.292015
Si Si2 0.707567 0.110094 0.654307
Si Si3 0.750000 0.773408 0.500000
Si Si4 0.111557 0.522656 0.646699
Si Si5 0.500000 0.750000 0.926006
Si Si6 0.353407 0.973702 0.443008
Si Si7 0.864006 0.000000 0.250000
O O1 0.073173 0.663227 0.260169
O O2 0.955126 0.591763 0.322097
O O3 0.663512 0.300266 0.661639
O O4 0.655558 0.008137 0.612954
O O5 0.693537 0.020670 0.704311
O O6 0.806885 0.105628 0.639609
O O7 0.669967 0.877090 0.520533
O O8 0.720553 0.664301 0.455584
O O9 0.056810 0.613783 0.605050
O O10 0.559969 0.878004 0.954525
#
# Coordination Sequence:
#
# PCOD9531589 Si02
#       7
#     8  16   8  16   8  16   8
#     4  12  24  41  64  97 136 176 228 283 330 385
#     4  11  24  44  66  95 135 179 227 272 329 409
#     4  10  22  40  68  92 124 176 220 270 338 406
#     4  11  24  43  68  96 134 182 226 276 334 395
#     4  10  22  41  68  99 134 168 216 285 342 393
#     4  10  21  41  64  94 129 168 220 274 332 396
#     4  12  26  42  68 100 138 184 226 276 336 400
#
# _framework density 23.546944
#
# number of rings (size 3 to 8) (size 9 to 14) (size 15 to 20)
#    0.000    1.200    0.000    7.200    0.000    7.200 
#    0.000    0.000    0.000    1.200    0.000    0.000 
#    0.000    0.000    0.000    0.000    0.000    0.000 
#
# Total GULP energy -223032.669450 kJ/mol
# GULP energy per Si atom -5575.816736 kJ/mol
# Density = 2.349335 g / cm^3
# Si number density = 23.546944 Si / 1000 Ang^3
#
#
#
# Elastic Constant Matrix: (Units=GPa)
#
#
# Indices 1 2 3 4 5 6 
#
# 1 99.0371 15.4682 11.0088 0.0000 0.0000 0.0000
# 2 15.4682 75.3443 31.3685 0.0000 0.0000 0.0000
# 3 11.0088 31.3685 97.3174 0.0000 0.0000 0.0000
# 4 0.0000 0.0000 0.0000 74.5856 0.0000 0.0000
# 5 0.0000 0.0000 0.0000 0.0000 31.1486 0.0000
# 6 0.0000 0.0000 0.0000 0.0000 0.0000 37.9773
#
#
#
# Elastic Compliance Matrix: (Units=1/GPa)
#
#
# Indices 1 2 3 4 5 6 
#
# 1 0.010459 -0.001911 -0.000567 0.000000 0.000000 0.000000
# 2 -0.001911 0.015679 -0.004838 0.000000 0.000000 0.000000
# 3 -0.000567 -0.004838 0.011899 0.000000 0.000000 0.000000
# 4 0.000000 0.000000 0.000000 0.013407 0.000000 0.000000
# 5 0.000000 0.000000 0.000000 0.000000 0.032104 0.000000
# 6 0.000000 0.000000 0.000000 0.000000 0.000000 0.026332
#
#
# Mechanical properties :
#
#
# Convention : Reuss Voigt Hill
#
# Bulk Modulus (GPa) = 42.72574 43.04333 42.88453
# Shear Modulus (GPa) = 37.78916 42.99919 40.39417
#
# Velocity S-wave (km/s) = 4.01040 4.27793 4.14632
# Velocity P-wave (km/s) = 6.29513 6.53608 6.41674
#
# Compressibility (1/GPa) = 0.02340510
#
# Stress axis : x y z
#
# Youngs Moduli (GPa) = 95.61373 63.78028 84.03980
#
# Poissons Ratio (x) = 0.12189 0.04766
# Poissons Ratio (y) = 0.18272 0.40655
# Poissons Ratio (z) = 0.05423 0.30854
#
# Static dielectric constant tensor:
#      x y z
#    x 1.898790 0.000000 0.000000 
#    y 0.000000 2.096220 0.000000 
#    z 0.000000 0.000000 3.198100 
# 
# From -- ./inp_files/32341.got.cif
#   From: 2010.05.17/outbox.cif.g08.bks.cpg/sg73_17_cif.got.tgz:32341.got - 2010.06.03 17:35:07.
