data_PCOD9531549
_publ_section_title
;
Structure prediction by ZEFSAII (Michael W. Deem and Ramdas Pophale) SiO2 
 PCOD9531549
Probable space group: I B C A 
;
_chemical_formula_sum "Si O2"
_cell_formula_units_Z 120
_cell_length_a 11.538850
_cell_length_b 17.495210
_cell_length_c 27.539587
_cell_angle_alpha 90.000000
_cell_angle_beta 90.000000
_cell_angle_gamma 90.000000
_cell_volume 5559.543217
_symmetry_space_group_name_H-M "I B C A "
_symmetry_group_IT_number 73
_symmetry_cell_setting 'orthorhombic'
loop_
_space_group_symop_operation_xyz
x,y,z
-x,1/2-y,z
x,-y,1/2-z
1/2-x,y,-z
-x,-y,-z
x,1/2+y,-z
-x,y,1/2+z
1/2+x,-y,z
1/2+x,1/2+y,1/2+z
1/2-x,-y,1/2+z
1/2+x,1/2-y,-z
-x,1/2+y,1/2-z
1/2-x,1/2-y,1/2-z
1/2+x,y,1/2-z
1/2-x,1/2+y,z
x,1/2-y,1/2+z
loop_
_atom_site_type_symbol
_atom_site_label
_atom_site_fract_x
_atom_site_fract_y
_atom_site_fract_z
Si Si1 0.155460 0.151363 0.823061
Si Si2 0.000000 0.250000 0.887859
Si Si3 0.100319 0.606082 0.557269
Si Si4 0.324078 0.364091 0.881370
Si Si5 0.373005 0.287422 0.976220
Si Si6 0.425992 0.825495 0.215484
Si Si7 0.371986 0.554575 0.205050
Si Si8 0.517462 0.988697 0.874033
O O1 0.121686 0.178761 0.769458
O O2 0.283205 0.117952 0.814678
O O3 0.088970 0.077412 0.845990
O O4 0.109996 0.220377 0.856876
O O5 0.961143 0.180703 0.920745
O O6 0.213562 0.601900 0.590929
O O7 0.120584 0.628910 0.501968
O O8 0.019546 0.537059 0.572356
O O9 0.358446 0.296659 0.918589
O O10 0.327069 0.336069 0.825576
O O11 0.416184 0.432305 0.878952
O O12 0.500000 0.250000 0.983959
O O13 0.250000 0.255230 0.000000
O O14 0.500000 0.750000 0.203524
O O15 0.511503 0.899003 0.218219
O O16 0.333026 0.500000 0.250000
O O17 0.406430 0.501406 0.160164
#
# Coordination Sequence:
#
# PCOD9531549 Si02
#       8
#    16   8  16  16  16  16  16  16
#     4  11  23  37  60  82 124 160 209 249 303 364
#     4  10  22  40  58  92 118 158 212 248 304 376
#     4  10  21  40  67  86 122 161 204 259 317 375
#     4  10  23  38  64  87 126 161 202 261 318 376
#     4  10  21  43  66  96 124 165 207 263 329 387
#     4  11  24  40  56  89 122 162 209 254 308 371
#     4  11  24  37  60  84 122 168 204 258 307 369
#     4  10  22  41  55  93 120 159 213 248 310 373
#
# _framework density 21.584508
#
# number of rings (size 3 to 8) (size 9 to 14) (size 15 to 20)
#    0.000    1.600    2.667    1.200    7.467    1.067 
#    2.400    1.333    0.000    0.000    0.000    0.000 
#    0.000    0.000    0.000    0.000    0.000    0.000 
#
# Total GULP energy -334281.459878 kJ/mol
# GULP energy per Si atom -5571.357665 kJ/mol
# Density = 2.153538 g / cm^3
# Si number density = 21.584508 Si / 1000 Ang^3
#
#
#
# Elastic Constant Matrix: (Units=GPa)
#
#
# Indices 1 2 3 4 5 6 
#
# 1 40.2911 1.4848 -8.1189 0.0000 0.0000 0.0000
# 2 1.4848 26.9381 -9.8460 0.0000 0.0000 0.0000
# 3 -8.1189 -9.8460 65.2002 0.0000 0.0000 0.0000
# 4 0.0000 0.0000 0.0000 7.8235 0.0000 0.0000
# 5 0.0000 0.0000 0.0000 0.0000 23.9008 0.0000
# 6 0.0000 0.0000 0.0000 0.0000 0.0000 26.2042
#
#
#
# Elastic Compliance Matrix: (Units=1/GPa)
#
#
# Indices 1 2 3 4 5 6 
#
# 1 0.025460 -0.000259 0.003131 0.000000 0.000000 0.000000
# 2 -0.000259 0.039293 0.005902 0.000000 0.000000 0.000000
# 3 0.003131 0.005902 0.016618 0.000000 0.000000 0.000000
# 4 0.000000 0.000000 0.000000 0.127819 0.000000 0.000000
# 5 0.000000 0.000000 0.000000 0.000000 0.041840 0.000000
# 6 0.000000 0.000000 0.000000 0.000000 0.000000 0.038162
#
#
# Mechanical properties :
#
#
# Convention : Reuss Voigt Hill
#
# Bulk Modulus (GPa) = 10.10921 11.05214 10.58068
# Shear Modulus (GPa) = 16.41402 21.51302 18.96352
#
# Velocity S-wave (km/s) = 2.76062 3.16046 2.96729
# Velocity P-wave (km/s) = 3.85423 4.29529 4.08073
#
# Compressibility (1/GPa) = 0.09891967
#
# Stress axis : x y z
#
# Youngs Moduli (GPa) = 39.27752 25.44956 60.17396
#
# Poissons Ratio (x) = 0.00659 -0.18842
# Poissons Ratio (y) = 0.01017 -0.35512
# Poissons Ratio (z) = -0.12299 -0.15019
#
# Static dielectric constant tensor:
#      x y z
#    x 1.808700 0.000000 0.000000 
#    y 0.000000 1.522540 0.000000 
#    z 0.000000 0.000000 1.910360 
# 
# From -- ./inp_files/23961.got.cif
#   From: 2010.05.17/outbox.cif.g08.bks.cpg/sg73_12_cif.got.tgz:23961.got - 2010.06.03 17:35:07.
