data_PCOD9531808
_publ_section_title
;
Structure prediction by ZEFSAII (Michael W. Deem and Ramdas Pophale) SiO2 
 PCOD9531808
Probable space group: I B C A 
;
_chemical_formula_sum "Si O2"
_cell_formula_units_Z 104
_cell_length_a 20.020541
_cell_length_b 8.166918
_cell_length_c 27.211037
_cell_angle_alpha 90.000000
_cell_angle_beta 90.000000
_cell_angle_gamma 90.000000
_cell_volume 4449.170990
_symmetry_space_group_name_H-M "I B C A "
_symmetry_group_IT_number 73
_symmetry_cell_setting 'orthorhombic'
loop_
_space_group_symop_operation_xyz
x,y,z
-x,1/2-y,z
x,-y,1/2-z
1/2-x,y,-z
-x,-y,-z
x,1/2+y,-z
-x,y,1/2+z
1/2+x,-y,z
1/2+x,1/2+y,1/2+z
1/2-x,-y,1/2+z
1/2+x,1/2-y,-z
-x,1/2+y,1/2-z
1/2-x,1/2-y,1/2-z
1/2+x,y,1/2-z
1/2-x,1/2+y,z
x,1/2-y,1/2+z
loop_
_atom_site_type_symbol
_atom_site_label
_atom_site_fract_x
_atom_site_fract_y
_atom_site_fract_z
Si Si1 0.925645 0.804187 0.743048
Si Si2 0.807726 0.558642 0.961454
Si Si3 0.381464 0.357676 0.141369
Si Si4 0.547706 0.598598 0.053886
Si Si5 0.885871 0.234285 0.649821
Si Si6 0.000000 0.750000 0.077000
Si Si7 0.247134 0.789096 0.605046
O O1 0.878949 0.780543 0.695819
O O2 0.905939 0.721099 0.794570
O O3 0.000000 0.750000 0.729451
O O4 0.925503 0.000000 0.750000
O O5 0.884461 0.565175 0.977326
O O6 0.796172 0.442045 0.914019
O O7 0.790467 0.738644 0.942090
O O8 0.750000 0.522288 0.000000
O O9 0.407129 0.544648 0.142033
O O10 0.433886 0.258429 0.109766
O O11 0.308946 0.344585 0.117620
O O12 0.500000 0.750000 0.040120
O O13 0.578520 0.654745 0.108011
O O14 0.507375 0.428968 0.053028
O O15 0.805080 0.217262 0.645796
#
# Coordination Sequence:
#
# PCOD9531808 Si02
#       7
#    16  16  16  16  16   8  16
#     4  10  22  36  57  91 129 177 231 279 330 396
#     4  11  24  43  72 103 131 174 224 282 347 418
#     4  11  21  38  63  94 137 176 230 281 329 408
#     4  11  23  41  73 103 139 183 225 281 350 408
#     4  10  22  39  62  94 138 183 225 281 338 401
#     4  12  22  38  66 104 134 178 230 278 332 414
#     4  11  22  42  68  94 130 177 224 270 347 417
#
# _framework density 23.375142
#
# number of rings (size 3 to 8) (size 9 to 14) (size 15 to 20)
#    0.000    1.231    5.385    0.923    2.154    0.615 
#    0.000    0.000    1.692    5.538    2.000    0.000 
#    0.000    0.000    0.000    0.000    0.000    0.000 
#
# Total GULP energy -290184.395355 kJ/mol
# GULP energy per Si atom -5580.469141 kJ/mol
# Density = 2.332194 g / cm^3
# Si number density = 23.375142 Si / 1000 Ang^3
#
#
#
# Elastic Constant Matrix: (Units=GPa)
#
#
# Indices 1 2 3 4 5 6 
#
# 1 139.7790 29.4707 31.9618 0.0000 0.0000 0.0000
# 2 29.4707 95.9498 25.6900 0.0000 0.0000 0.0000
# 3 31.9618 25.6900 63.4944 0.0000 0.0000 0.0000
# 4 0.0000 0.0000 0.0000 26.7300 0.0000 0.0000
# 5 0.0000 0.0000 0.0000 0.0000 25.0348 0.0000
# 6 0.0000 0.0000 0.0000 0.0000 0.0000 39.6493
#
#
#
# Elastic Compliance Matrix: (Units=1/GPa)
#
#
# Indices 1 2 3 4 5 6 
#
# 1 0.008299 -0.001604 -0.003529 0.000000 0.000000 0.000000
# 2 -0.001604 0.011998 -0.004047 0.000000 0.000000 0.000000
# 3 -0.003529 -0.004047 0.019163 0.000000 0.000000 0.000000
# 4 0.000000 0.000000 0.000000 0.037411 0.000000 0.000000
# 5 0.000000 0.000000 0.000000 0.000000 0.039944 0.000000
# 6 0.000000 0.000000 0.000000 0.000000 0.000000 0.025221
#
#
# Mechanical properties :
#
#
# Convention : Reuss Voigt Hill
#
# Bulk Modulus (GPa) = 47.39126 52.60759 49.99942
# Shear Modulus (GPa) = 29.86306 32.42286 31.14296
#
# Velocity S-wave (km/s) = 3.57817 3.72837 3.65404
# Velocity P-wave (km/s) = 6.11468 6.41007 6.26412
#
# Compressibility (1/GPa) = 0.02110094
#
# Stress axis : x y z
#
# Youngs Moduli (GPa) = 120.49288 83.34408 52.18370
#
# Poissons Ratio (x) = 0.13371 0.18413
# Poissons Ratio (y) = 0.19331 0.21119
# Poissons Ratio (z) = 0.42517 0.33730
#
# Static dielectric constant tensor:
#      x y z
#    x 2.014700 0.000000 0.000000 
#    y 0.000000 1.934260 0.000000 
#    z 0.000000 0.000000 1.954850 
# 
# From -- ./inp_files/34666.got.cif
#   From: 2010.05.17/outbox.cif.g08.bks.cpg/sg73_18_cif.got.tgz:34666.got - 2010.06.03 17:35:07.
