data_PCOD9531600
_publ_section_title
;
Structure prediction by ZEFSAII (Michael W. Deem and Ramdas Pophale) SiO2 
 PCOD9531600
Probable space group: I B C A 
;
_chemical_formula_sum "Si O2"
_cell_formula_units_Z 96
_cell_length_a 13.493024
_cell_length_b 21.225453
_cell_length_c 14.556791
_cell_angle_alpha 90.000000
_cell_angle_beta 90.000000
_cell_angle_gamma 90.000000
_cell_volume 4169.000117
_symmetry_space_group_name_H-M "I B C A "
_symmetry_group_IT_number 73
_symmetry_cell_setting 'orthorhombic'
loop_
_space_group_symop_operation_xyz
x,y,z
-x,1/2-y,z
x,-y,1/2-z
1/2-x,y,-z
-x,-y,-z
x,1/2+y,-z
-x,y,1/2+z
1/2+x,-y,z
1/2+x,1/2+y,1/2+z
1/2-x,-y,1/2+z
1/2+x,1/2-y,-z
-x,1/2+y,1/2-z
1/2-x,1/2-y,1/2-z
1/2+x,y,1/2-z
1/2-x,1/2+y,z
x,1/2-y,1/2+z
loop_
_atom_site_type_symbol
_atom_site_label
_atom_site_fract_x
_atom_site_fract_y
_atom_site_fract_z
Si Si1 0.211439 0.319856 0.131091
Si Si2 0.904200 0.366528 0.477227
Si Si3 0.379939 0.992354 0.587659
Si Si4 0.333986 0.941265 0.393869
Si Si5 0.521769 0.500000 0.250000
Si Si6 0.000000 0.750000 0.608017
Si Si7 0.706170 0.194814 0.657654
O O1 0.306845 0.343967 0.077675
O O2 0.212862 0.243863 0.119046
O O3 0.226432 0.327053 0.238731
O O4 0.121147 0.357082 0.084663
O O5 0.911460 0.437170 0.441160
O O6 0.983039 0.313730 0.449903
O O7 0.384157 0.955582 0.491645
O O8 0.263797 0.985539 0.615044
O O9 0.449179 0.970925 0.671880
O O10 0.300705 0.869340 0.396824
O O11 0.407077 0.954216 0.308700
O O12 0.101130 0.767375 0.661318
#
# Coordination Sequence:
#
# PCOD9531600 Si02
#       7
#    16  16  16  16   8   8  16
#     4   9  20  39  68  90 130 174 230 278 344 408
#     4  10  21  41  65  96 131 177 224 283 350 425
#     4  11  26  46  69 105 142 189 240 292 366 441
#     4  11  25  44  70 101 143 189 240 297 363 433
#     4  12  26  42  66 102 144 188 238 288 366 426
#     4  10  22  40  64  94 138 168 222 294 338 408
#     4  10  22  41  64 100 128 177 232 286 343 423
#
# _framework density 23.027104999999999
#
# number of rings (size 3 to 8) (size 9 to 14) (size 15 to 20)
#    0.000    1.667    0.000    4.000    7.000    6.000 
#    3.000    0.000    0.000    0.000    0.000    0.000 
#    0.000    0.000    0.000    0.000    0.000    0.000 
#
# Total GULP energy -267971.719240 kJ/mol
# GULP energy per Si atom -5582.744151 kJ/mol
# Density = 2.297469 g / cm^3
# Si number density = 23.027105 Si / 1000 Ang^3
#
#
#
# Elastic Constant Matrix: (Units=GPa)
#
#
# Indices 1 2 3 4 5 6 
#
# 1 94.7357 18.3464 37.6374 0.0000 0.0000 0.0000
# 2 18.3464 115.0387 53.1132 0.0000 0.0000 0.0000
# 3 37.6374 53.1132 118.7370 0.0000 0.0000 0.0000
# 4 0.0000 0.0000 0.0000 55.5106 0.0000 0.0000
# 5 0.0000 0.0000 0.0000 0.0000 44.2083 0.0000
# 6 0.0000 0.0000 0.0000 0.0000 0.0000 22.8153
#
#
#
# Elastic Compliance Matrix: (Units=1/GPa)
#
#
# Indices 1 2 3 4 5 6 
#
# 1 0.012080 -0.000200 -0.003740 0.000000 0.000000 0.000000
# 2 -0.000200 0.010959 -0.004839 0.000000 0.000000 0.000000
# 3 -0.003740 -0.004839 0.011772 0.000000 0.000000 0.000000
# 4 0.000000 0.000000 0.000000 0.018015 0.000000 0.000000
# 5 0.000000 0.000000 0.000000 0.000000 0.022620 0.000000
# 6 0.000000 0.000000 0.000000 0.000000 0.000000 0.043830
#
#
# Mechanical properties :
#
#
# Convention : Reuss Voigt Hill
#
# Bulk Modulus (GPa) = 57.95755 60.74503 59.35129
# Shear Modulus (GPa) = 35.06720 39.13447 37.10083
#
# Velocity S-wave (km/s) = 3.90663 4.12697 4.01831
# Velocity P-wave (km/s) = 6.75077 7.01043 6.88183
#
# Compressibility (1/GPa) = 0.01725401
#
# Stress axis : x y z
#
# Youngs Moduli (GPa) = 82.78039 91.25265 84.94873
#
# Poissons Ratio (x) = 0.01824 0.31769
# Poissons Ratio (y) = 0.01655 0.41103
# Poissons Ratio (z) = 0.30958 0.44154
#
# Static dielectric constant tensor:
#      x y z
#    x 1.957370 0.000000 0.000000 
#    y 0.000000 1.879160 0.000000 
#    z 0.000000 0.000000 1.879120 
# 
# From -- ./inp_files/17091.got.cif
#   From: 2010.05.17/outbox.cif.g08.bks.cpg/sg73_9_cif.got.tgz:17091.got - 2010.06.03 17:35:07.
