data_PCOD9531087
_publ_section_title
;
Structure prediction by ZEFSAII (Michael W. Deem and Ramdas Pophale) SiO2 
 PCOD9531087
Probable space group: I B C A 
;
_chemical_formula_sum "Si O2"
_cell_formula_units_Z 56
_cell_length_a 12.719984
_cell_length_b 31.140912
_cell_length_c 5.651214
_cell_angle_alpha 90.000000
_cell_angle_beta 90.000000
_cell_angle_gamma 90.000000
_cell_volume 2238.513128
_symmetry_space_group_name_H-M "I B C A "
_symmetry_group_IT_number 73
_symmetry_cell_setting 'orthorhombic'
loop_
_space_group_symop_operation_xyz
x,y,z
-x,1/2-y,z
x,-y,1/2-z
1/2-x,y,-z
-x,-y,-z
x,1/2+y,-z
-x,y,1/2+z
1/2+x,-y,z
1/2+x,1/2+y,1/2+z
1/2-x,-y,1/2+z
1/2+x,1/2-y,-z
-x,1/2+y,1/2-z
1/2-x,1/2-y,1/2-z
1/2+x,y,1/2-z
1/2-x,1/2+y,z
x,1/2-y,1/2+z
loop_
_atom_site_type_symbol
_atom_site_label
_atom_site_fract_x
_atom_site_fract_y
_atom_site_fract_z
Si Si1 0.879043 0.732617 0.867898
Si Si2 0.903063 0.547561 0.661000
Si Si3 0.250000 0.154852 0.500000
Si Si4 0.635753 0.422383 0.660078
O O1 0.840196 0.748691 0.121771
O O2 0.000000 0.750000 0.870384
O O3 0.840858 0.683208 0.875306
O O4 0.934549 0.500000 0.750000
O O5 0.851275 0.549650 0.400683
O O6 0.007934 0.576095 0.640264
O O7 0.837152 0.563169 0.887839
O O8 0.314476 0.124673 0.682101
#
# Coordination Sequence:
#
# PCOD9531087 Si02
#       4
#    16  16   8  16
#     4  10  24  45  70  95 128 183 228 272 349 424
#     4  10  20  42  67  90 126 180 231 263 328 419
#     4  12  26  42  64 102 144 166 230 298 338 410
#     4  10  22  36  63  97 126 172 218 282 340 371
#
# _framework density 25.016605999999999
#
# number of rings (size 3 to 8) (size 9 to 14) (size 15 to 20)
#    0.000    1.714    0.000    5.143    0.000   14.857 
#    0.000    4.286    0.000    0.000    0.000    0.000 
#    0.000    0.000    0.000    2.571    0.000    1.143 
#
# Total GULP energy -155915.740064 kJ/mol
# GULP energy per Si atom -5568.419288 kJ/mol
# Density = 2.495967 g / cm^3
# Si number density = 25.016606 Si / 1000 Ang^3
#
#
#
# Elastic Constant Matrix: (Units=GPa)
#
#
# Indices 1 2 3 4 5 6 
#
# 1 85.4521 62.1525 49.4386 -0.0282 -0.0572 0.0160
# 2 62.1525 129.3844 41.4113 -0.0335 0.0063 0.0020
# 3 49.4386 41.4113 275.7305 -0.0868 -0.0485 0.0190
# 4 -0.0282 -0.0335 -0.0868 20.3513 0.0536 0.0241
# 5 -0.0572 0.0063 -0.0485 0.0536 24.1336 -0.0183
# 6 0.0160 0.0020 0.0190 0.0241 -0.0183 39.9426
#
#
#
# Elastic Compliance Matrix: (Units=1/GPa)
#
#
# Indices 1 2 3 4 5 6 
#
# 1 0.019131 -0.008501 -0.002154 0.000003 0.000043 -0.000006
# 2 -0.008501 0.011897 -0.000262 0.000007 -0.000024 0.000003
# 3 -0.002154 -0.000262 0.004052 0.000014 0.000003 -0.000001
# 4 0.000003 0.000007 0.000014 0.049137 -0.000109 -0.000030
# 5 0.000043 -0.000024 0.000003 -0.000109 0.041436 0.000019
# 6 -0.000006 0.000003 -0.000001 -0.000030 0.000019 0.025036
#
#
# Mechanical properties :
#
#
# Convention : Reuss Voigt Hill
#
# Bulk Modulus (GPa) = 75.49243 88.50797 82.00020
# Shear Modulus (GPa) = 28.25829 39.38983 33.82406
#
# Velocity S-wave (km/s) = 3.36457 3.97236 3.68103
# Velocity P-wave (km/s) = 6.73322 7.51638 7.13555
#
# Compressibility (1/GPa) = 0.01324636
#
# Stress axis : x y z
#
# Youngs Moduli (GPa) = 52.26990 84.05819 246.77421
#
# Poissons Ratio (x) = 0.71457 0.53144
# Poissons Ratio (y) = 0.44434 0.06478
# Poissons Ratio (z) = 0.11257 0.02206
#
# Static dielectric constant tensor:
#      x y z
#    x 2.424990 0.000020 0.000140 
#    y 0.000020 2.038630 -0.000010 
#    z 0.000140 -0.000010 2.017760 
# 
# From -- ./inp_files/704.got.cif
#   From: 2010.05.17/outbox.cif.g08.bks.cpg/sg73_1_cif.got.tgz:704.got - 2010.06.03 17:35:07.
