data_PCOD9531439
_publ_section_title
;
Structure prediction by ZEFSAII (Michael W. Deem and Ramdas Pophale) SiO2 
 PCOD9531439
Probable space group: I B C A 
;
_chemical_formula_sum "Si O2"
_cell_formula_units_Z 64
_cell_length_a 8.197288
_cell_length_b 22.106895
_cell_length_c 14.551684
_cell_angle_alpha 90.000000
_cell_angle_beta 90.000000
_cell_angle_gamma 90.000000
_cell_volume 2637.006482
_symmetry_space_group_name_H-M "I B C A "
_symmetry_group_IT_number 73
_symmetry_cell_setting 'orthorhombic'
loop_
_space_group_symop_operation_xyz
x,y,z
-x,1/2-y,z
x,-y,1/2-z
1/2-x,y,-z
-x,-y,-z
x,1/2+y,-z
-x,y,1/2+z
1/2+x,-y,z
1/2+x,1/2+y,1/2+z
1/2-x,-y,1/2+z
1/2+x,1/2-y,-z
-x,1/2+y,1/2-z
1/2-x,1/2-y,1/2-z
1/2+x,y,1/2-z
1/2-x,1/2+y,z
x,1/2-y,1/2+z
loop_
_atom_site_type_symbol
_atom_site_label
_atom_site_fract_x
_atom_site_fract_y
_atom_site_fract_z
Si Si1 0.525044 0.051654 0.825946
Si Si2 0.648914 0.709572 0.084881
Si Si3 0.938517 0.398592 0.997511
Si Si4 0.139912 0.115890 0.320567
O O1 0.459963 0.046666 0.929305
O O2 0.432575 0.109160 0.780437
O O3 0.714664 0.067625 0.830387
O O4 0.501217 0.000000 0.750000
O O5 0.500000 0.750000 0.120715
O O6 0.559475 0.652342 0.037569
O O7 0.778488 0.680530 0.155572
O O8 0.750000 0.739292 0.000000
O O9 0.750000 0.382415 0.000000
O O10 0.000350 0.402554 0.893264
#
# Coordination Sequence:
#
# PCOD9531439 Si02
#       4
#    16  16  16  16
#     4  11  22  39  61  86 123 165 207 256 306 356
#     4   9  18  35  61  92 124 161 204 248 304 364
#     4  10  21  39  63  90 124 161 203 256 306 362
#     4  10  22  39  60  91 124 160 206 255 302 362
#
# _framework density 24.269943999999999
#
# number of rings (size 3 to 8) (size 9 to 14) (size 15 to 20)
#    0.000    2.000    0.000    5.250    0.000    1.000 
#    0.000   12.500    0.000   15.000    0.000   21.000 
#    0.000    0.000    0.000    0.000    0.000    0.000 
#
# Total GULP energy -178761.595801 kJ/mol
# GULP energy per Si atom -5586.299869 kJ/mol
# Density = 2.421470 g / cm^3
# Si number density = 24.269944 Si / 1000 Ang^3
#
#
#
# Elastic Constant Matrix: (Units=GPa)
#
#
# Indices 1 2 3 4 5 6 
#
# 1 150.0028 12.6159 37.5355 0.0000 0.0000 0.0000
# 2 12.6159 63.9502 28.1543 0.0000 0.0000 0.0000
# 3 37.5355 28.1543 118.5026 0.0001 0.0000 0.0000
# 4 0.0000 0.0000 0.0001 12.7258 0.0000 0.0000
# 5 0.0000 0.0000 0.0000 0.0000 45.9069 0.0000
# 6 0.0000 0.0000 0.0000 0.0000 0.0000 26.6555
#
#
#
# Elastic Compliance Matrix: (Units=1/GPa)
#
#
# Indices 1 2 3 4 5 6 
#
# 1 0.007253 -0.000468 -0.002186 0.000000 0.000000 0.000000
# 2 -0.000468 0.017494 -0.004008 0.000000 0.000000 0.000000
# 3 -0.002186 -0.004008 0.010083 0.000000 0.000000 0.000000
# 4 0.000000 0.000000 0.000000 0.078580 0.000000 0.000000
# 5 0.000000 0.000000 0.000000 0.000000 0.021783 0.000000
# 6 0.000000 0.000000 0.000000 0.000000 0.000000 0.037516
#
#
# Mechanical properties :
#
#
# Convention : Reuss Voigt Hill
#
# Bulk Modulus (GPa) = 46.49977 54.34077 50.42027
# Shear Modulus (GPa) = 25.87950 34.00096 29.94023
#
# Velocity S-wave (km/s) = 3.26900 3.74699 3.51612
# Velocity P-wave (km/s) = 5.78355 6.41550 6.10770
#
# Compressibility (1/GPa) = 0.02150548
#
# Stress axis : x y z
#
# Youngs Moduli (GPa) = 137.87460 57.16214 99.17389
#
# Poissons Ratio (x) = 0.02678 0.21680
# Poissons Ratio (y) = 0.06458 0.39748
# Poissons Ratio (z) = 0.30141 0.22910
#
# Static dielectric constant tensor:
#      x y z
#    x 1.880640 0.000000 0.000000 
#    y 0.000000 2.045480 0.000000 
#    z 0.000000 0.000000 1.934940 
# 
# From -- ./inp_files/4658.got.cif
#   From: 2010.05.17/outbox.cif.g08.bks.cpg/sg73_3_cif.got.tgz:4658.got - 2010.06.03 17:35:07.
