data_PCOD9531354
_publ_section_title
;
Structure prediction by ZEFSAII (Michael W. Deem and Ramdas Pophale) SiO2 
 PCOD9531354
Probable space group: I B C A 
;
_chemical_formula_sum "Si O2"
_cell_formula_units_Z 96
_cell_length_a 28.032124
_cell_length_b 8.239486
_cell_length_c 16.331697
_cell_angle_alpha 90.000000
_cell_angle_beta 90.000000
_cell_angle_gamma 90.000000
_cell_volume 3772.136845
_symmetry_space_group_name_H-M "I B C A "
_symmetry_group_IT_number 73
_symmetry_cell_setting 'orthorhombic'
loop_
_space_group_symop_operation_xyz
x,y,z
-x,1/2-y,z
x,-y,1/2-z
1/2-x,y,-z
-x,-y,-z
x,1/2+y,-z
-x,y,1/2+z
1/2+x,-y,z
1/2+x,1/2+y,1/2+z
1/2-x,-y,1/2+z
1/2+x,1/2-y,-z
-x,1/2+y,1/2-z
1/2-x,1/2-y,1/2-z
1/2+x,y,1/2-z
1/2-x,1/2+y,z
x,1/2-y,1/2+z
loop_
_atom_site_type_symbol
_atom_site_label
_atom_site_fract_x
_atom_site_fract_y
_atom_site_fract_z
Si Si1 0.362488 0.330429 0.688695
Si Si2 0.090880 0.362027 0.679630
Si Si3 0.500000 0.750000 0.448008
Si Si4 0.104672 0.884371 0.040772
Si Si5 0.039143 0.470791 0.165229
Si Si6 0.250000 0.712062 0.000000
Si Si7 0.687194 0.545647 0.081806
O O1 0.365742 0.234391 0.774232
O O2 0.366078 0.213688 0.609989
O O3 0.412115 0.427576 0.677840
O O4 0.322085 0.459024 0.667356
O O5 0.082140 0.500000 0.750000
O O6 0.097826 0.449967 0.592887
O O7 0.052108 0.219478 0.663524
O O8 0.446933 0.696321 0.479738
O O9 0.512183 0.579397 0.401470
O O10 0.137412 0.901594 0.960787
O O11 0.012135 0.500000 0.250000
O O12 0.207267 0.596948 0.024857
O O13 0.271808 0.820350 0.072928
#
# Coordination Sequence:
#
# PCOD9531354 Si02
#       7
#    16  16   8  16  16   8  16
#     4   9  19  37  60  89 125 170 214 272 339 401
#     4   9  19  36  60  93 124 175 221 272 335 403
#     4  10  22  38  58  94 132 180 234 270 332 406
#     4  10  21  38  62  91 135 176 221 280 334 411
#     4   9  19  34  56  85 123 168 218 263 313 393
#     4  10  24  38  70  98 116 170 230 280 360 430
#     4  11  21  42  67  95 126 165 224 289 345 427
#
# _framework density 25.449766
#
# number of rings (size 3 to 8) (size 9 to 14) (size 15 to 20)
#    0.000    2.333    1.667    1.000    2.333    5.333 
#    0.000    3.333    0.000    7.000    0.000    3.500 
#    0.000    0.000    0.000    0.000    0.000    0.000 
#
# Total GULP energy -267672.306158 kJ/mol
# GULP energy per Si atom -5576.506378 kJ/mol
# Density = 2.539184 g / cm^3
# Si number density = 25.449766 Si / 1000 Ang^3
#
#
#
# Elastic Constant Matrix: (Units=GPa)
#
#
# Indices 1 2 3 4 5 6 
#
# 1 84.8730 28.1901 10.5826 0.0000 0.0000 0.0000
# 2 28.1901 160.9958 33.4504 0.0000 0.0000 0.0000
# 3 10.5826 33.4504 108.1035 0.0000 0.0000 0.0000
# 4 0.0000 0.0000 0.0000 39.0034 0.0000 0.0000
# 5 0.0000 0.0000 0.0000 0.0000 60.9612 0.0000
# 6 0.0000 0.0000 0.0000 0.0000 0.0000 27.4727
#
#
#
# Elastic Compliance Matrix: (Units=1/GPa)
#
#
# Indices 1 2 3 4 5 6 
#
# 1 0.012545 -0.002075 -0.000586 0.000000 0.000000 0.000000
# 2 -0.002075 0.006981 -0.001957 0.000000 0.000000 0.000000
# 3 -0.000586 -0.001957 0.009913 0.000000 0.000000 0.000000
# 4 0.000000 0.000000 0.000000 0.025639 0.000000 0.000000
# 5 0.000000 0.000000 0.000000 0.000000 0.016404 0.000000
# 6 0.000000 0.000000 0.000000 0.000000 0.000000 0.036400
#
#
# Mechanical properties :
#
#
# Convention : Reuss Voigt Hill
#
# Bulk Modulus (GPa) = 49.49681 55.37982 52.43832
# Shear Modulus (GPa) = 40.37082 44.27073 42.32077
#
# Velocity S-wave (km/s) = 3.98715 4.17530 4.08231
# Velocity P-wave (km/s) = 6.37868 6.71207 6.54749
#
# Compressibility (1/GPa) = 0.02020332
#
# Stress axis : x y z
#
# Youngs Moduli (GPa) = 79.71618 143.24061 100.87409
#
# Poissons Ratio (x) = 0.29719 0.05912
# Poissons Ratio (y) = 0.16539 0.19742
# Poissons Ratio (z) = 0.04672 0.28034
#
# Static dielectric constant tensor:
#      x y z
#    x 2.002980 0.000000 0.000000 
#    y 0.000000 2.107720 0.000000 
#    z 0.000000 0.000000 2.244080 
# 
# From -- ./inp_files/27549.got.cif
#   From: 2010.05.17/outbox.cif.g08.bks.cpg/sg73_14_cif.got.tgz:27549.got - 2010.06.03 17:35:07.
