data_PCOD9531438
_publ_section_title
;
Structure prediction by ZEFSAII (Michael W. Deem and Ramdas Pophale) SiO2 
 PCOD9531438
Probable space group: I B C A 
;
_chemical_formula_sum "Si O2"
_cell_formula_units_Z 96
_cell_length_a 13.265191
_cell_length_b 24.991794
_cell_length_c 14.872077
_cell_angle_alpha 90.000000
_cell_angle_beta 90.000000
_cell_angle_gamma 90.000000
_cell_volume 4930.404662
_symmetry_space_group_name_H-M "I B C A "
_symmetry_group_IT_number 73
_symmetry_cell_setting 'orthorhombic'
loop_
_space_group_symop_operation_xyz
x,y,z
-x,1/2-y,z
x,-y,1/2-z
1/2-x,y,-z
-x,-y,-z
x,1/2+y,-z
-x,y,1/2+z
1/2+x,-y,z
1/2+x,1/2+y,1/2+z
1/2-x,-y,1/2+z
1/2+x,1/2-y,-z
-x,1/2+y,1/2-z
1/2-x,1/2-y,1/2-z
1/2+x,y,1/2-z
1/2-x,1/2+y,z
x,1/2-y,1/2+z
loop_
_atom_site_type_symbol
_atom_site_label
_atom_site_fract_x
_atom_site_fract_y
_atom_site_fract_z
Si Si1 0.080972 0.089418 0.654870
Si Si2 0.368923 0.230871 0.995013
Si Si3 0.500000 0.250000 0.657231
Si Si4 0.077247 0.676238 0.807384
Si Si5 0.952590 0.500000 0.250000
Si Si6 0.632578 0.142345 0.016378
Si Si7 0.683087 0.597028 0.800962
O O1 0.073118 0.102629 0.548735
O O2 0.198661 0.088958 0.681186
O O3 0.024506 0.140776 0.697370
O O4 0.023669 0.036187 0.686216
O O5 0.429019 0.216865 0.087086
O O6 0.381270 0.295585 0.991206
O O7 0.250000 0.219706 0.000000
O O8 0.409241 0.203898 0.904007
O O9 0.571686 0.280756 0.727546
O O10 0.164927 0.633174 0.787222
O O11 0.877265 0.541845 0.203586
O O12 0.625135 0.129593 0.120596
O O13 0.750000 0.131127 0.000000
#
# Coordination Sequence:
#
# PCOD9531438 Si02
#       7
#    16  16   8  16   8  16  16
#     4  10  21  39  63  87 126 156 208 270 318 382
#     4  11  24  40  61  94 134 172 220 261 304 377
#     4  12  22  38  60  90 130 174 220 258 306 382
#     4  11  24  37  61  94 125 173 216 256 318 375
#     4  10  22  38  62  96 112 158 212 264 328 392
#     4   9  18  37  59  85 117 165 201 248 315 373
#     4  10  21  40  63  87 122 163 208 262 327 375
#
# _framework density 19.471018999999998
#
# number of rings (size 3 to 8) (size 9 to 14) (size 15 to 20)
#    0.000    1.667    1.667    3.000    2.333    1.333 
#    0.000    0.000    0.000    4.000    0.000    0.000 
#    0.000    0.000    0.000    0.000    0.000    0.000 
#
# Total GULP energy -267442.117782 kJ/mol
# GULP energy per Si atom -5571.710787 kJ/mol
# Density = 1.942670 g / cm^3
# Si number density = 19.471019 Si / 1000 Ang^3
#
#
#
# Elastic Constant Matrix: (Units=GPa)
#
#
# Indices 1 2 3 4 5 6 
#
# 1 114.8426 30.9799 38.5393 0.0000 0.0000 0.0000
# 2 30.9799 97.9157 53.4333 -0.0001 0.0000 0.0000
# 3 38.5393 53.4333 112.3749 0.0000 0.0000 0.0000
# 4 0.0000 -0.0001 0.0000 24.1834 0.0000 0.0000
# 5 0.0000 0.0000 0.0000 0.0000 25.2825 0.0000
# 6 0.0000 0.0000 0.0000 0.0000 0.0000 19.0490
#
#
#
# Elastic Compliance Matrix: (Units=1/GPa)
#
#
# Indices 1 2 3 4 5 6 
#
# 1 0.010059 -0.001756 -0.002615 0.000000 0.000000 0.000000
# 2 -0.001756 0.014098 -0.006101 0.000000 0.000000 0.000000
# 3 -0.002615 -0.006101 0.012697 0.000000 0.000000 0.000000
# 4 0.000000 0.000000 0.000000 0.041351 0.000000 0.000000
# 5 0.000000 0.000000 0.000000 0.000000 0.039553 0.000000
# 6 0.000000 0.000000 0.000000 0.000000 0.000000 0.052496
#
#
# Mechanical properties :
#
#
# Convention : Reuss Voigt Hill
#
# Bulk Modulus (GPa) = 62.85484 63.44867 63.15176
# Shear Modulus (GPa) = 25.44531 27.18170 26.31351
#
# Velocity S-wave (km/s) = 3.61893 3.74037 3.68015
# Velocity P-wave (km/s) = 7.05787 7.16316 7.11071
#
# Compressibility (1/GPa) = 0.01590967
#
# Stress axis : x y z
#
# Youngs Moduli (GPa) = 99.41680 70.93288 78.76062
#
# Poissons Ratio (x) = 0.12452 0.20595
# Poissons Ratio (y) = 0.17453 0.48054
# Poissons Ratio (z) = 0.25997 0.43279
#
# Static dielectric constant tensor:
#      x y z
#    x 1.707180 0.000000 0.000000 
#    y 0.000000 1.682380 0.000000 
#    z 0.000000 0.000000 1.749980 
# 
# From -- ./inp_files/17217.got.cif
#   From: 2010.05.17/outbox.cif.g08.bks.cpg/sg73_9_cif.got.tgz:17217.got - 2010.06.03 17:35:07.
