data_PCOD9531021
_publ_section_title
;
Structure prediction by ZEFSAII (Michael W. Deem and Ramdas Pophale) SiO2 
 PCOD9531021
Probable space group: I B C A 
;
_chemical_formula_sum "Si O2"
_cell_formula_units_Z 88
_cell_length_a 27.230647
_cell_length_b 16.870188
_cell_length_c 9.297861
_cell_angle_alpha 90.000000
_cell_angle_beta 90.000000
_cell_angle_gamma 90.000000
_cell_volume 4271.308422
_symmetry_space_group_name_H-M "I B C A "
_symmetry_group_IT_number 73
_symmetry_cell_setting 'orthorhombic'
loop_
_space_group_symop_operation_xyz
x,y,z
-x,1/2-y,z
x,-y,1/2-z
1/2-x,y,-z
-x,-y,-z
x,1/2+y,-z
-x,y,1/2+z
1/2+x,-y,z
1/2+x,1/2+y,1/2+z
1/2-x,-y,1/2+z
1/2+x,1/2-y,-z
-x,1/2+y,1/2-z
1/2-x,1/2-y,1/2-z
1/2+x,y,1/2-z
1/2-x,1/2+y,z
x,1/2-y,1/2+z
loop_
_atom_site_type_symbol
_atom_site_label
_atom_site_fract_x
_atom_site_fract_y
_atom_site_fract_z
Si Si1 0.605558 0.414429 0.230486
Si Si2 0.901074 0.175159 0.835289
Si Si3 0.467309 0.579199 0.517586
Si Si4 0.317869 0.783098 0.253336
Si Si5 0.750000 0.725395 0.500000
Si Si6 0.561824 0.825699 0.014083
O O1 0.629102 0.500000 0.250000
O O2 0.555664 0.416380 0.323521
O O3 0.639524 0.344103 0.286336
O O4 0.592493 0.394677 0.066561
O O5 0.844502 0.200510 0.801638
O O6 0.926897 0.178465 0.681075
O O7 0.920904 0.095352 0.912090
O O8 0.920110 0.246822 0.935350
O O9 0.500000 0.500000 0.500000
O O10 0.505555 0.650530 0.493607
O O11 0.288553 0.816097 0.392335
O O12 0.282657 0.771957 0.117359
#
# Coordination Sequence:
#
# PCOD9531021 Si02
#       6
#    16  16  16  16   8  16
#     4  11  22  41  61  88 132 175 209 264 323 389
#     4  11  23  39  63  91 127 169 222 271 316 374
#     4  12  24  39  58  88 134 179 223 252 306 367
#     4  10  21  39  65  94 120 157 210 277 339 383
#     4  10  20  40  70  94 114 148 210 286 336 404
#     4  11  23  39  60  88 127 177 227 263 302 367
#
# _framework density 20.602585999999999
#
# number of rings (size 3 to 8) (size 9 to 14) (size 15 to 20)
#    0.000    1.091    1.818    7.091    0.000    2.909 
#    0.000    0.909    0.000    0.000    0.000    0.000 
#    0.000    0.000    0.000    0.000    0.000    0.000 
#
# Total GULP energy -245497.139863 kJ/mol
# GULP energy per Si atom -5579.480451 kJ/mol
# Density = 2.055569 g / cm^3
# Si number density = 20.602586 Si / 1000 Ang^3
#
#
#
# Elastic Constant Matrix: (Units=GPa)
#
#
# Indices 1 2 3 4 5 6 
#
# 1 87.0940 23.6764 19.0127 0.0000 0.0000 0.0000
# 2 23.6764 71.9959 26.5904 0.0000 0.0000 0.0000
# 3 19.0127 26.5904 128.8031 0.0000 0.0000 0.0000
# 4 0.0000 0.0000 0.0000 23.4723 0.0000 0.0000
# 5 0.0000 0.0000 0.0000 0.0000 44.9926 0.0000
# 6 0.0000 0.0000 0.0000 0.0000 0.0000 12.1608
#
#
#
# Elastic Compliance Matrix: (Units=1/GPa)
#
#
# Indices 1 2 3 4 5 6 
#
# 1 0.012752 -0.003787 -0.001100 0.000000 0.000000 0.000000
# 2 -0.003787 0.016161 -0.002777 0.000000 0.000000 0.000000
# 3 -0.001100 -0.002777 0.008500 0.000000 0.000000 0.000000
# 4 0.000000 0.000000 0.000000 0.042603 0.000000 0.000000
# 5 0.000000 0.000000 0.000000 0.000000 0.022226 0.000000
# 6 0.000000 0.000000 0.000000 0.000000 0.000000 0.082232
#
#
# Mechanical properties :
#
#
# Convention : Reuss Voigt Hill
#
# Bulk Modulus (GPa) = 45.28484 47.38356 46.33420
# Shear Modulus (GPa) = 24.13555 30.69937 27.41746
#
# Velocity S-wave (km/s) = 3.42640 3.86434 3.65194
# Velocity P-wave (km/s) = 6.13853 6.55435 6.34985
#
# Compressibility (1/GPa) = 0.02208245
#
# Stress axis : x y z
#
# Youngs Moduli (GPa) = 78.42171 61.87810 117.65296
#
# Poissons Ratio (x) = 0.23433 0.12947
# Poissons Ratio (y) = 0.29698 0.32675
# Poissons Ratio (z) = 0.08630 0.17185
#
# Static dielectric constant tensor:
#      x y z
#    x 1.799040 0.000000 0.000000 
#    y 0.000000 1.803530 0.000000 
#    z 0.000000 0.000000 1.747560 
# 
# From -- ./inp_files/5715.got.cif
#   From: 2010.05.17/outbox.cif.g08.bks.cpg/sg73_3_cif.got.tgz:5715.got - 2010.06.03 17:35:07.
