data_PCOD9531356
_publ_section_title
;
Structure prediction by ZEFSAII (Michael W. Deem and Ramdas Pophale) SiO2 
 PCOD9531356
Probable space group: I B C A 
;
_chemical_formula_sum "Si O2"
_cell_formula_units_Z 72
_cell_length_a 25.873289
_cell_length_b 15.251221
_cell_length_c 9.206707
_cell_angle_alpha 90.000000
_cell_angle_beta 90.000000
_cell_angle_gamma 90.000000
_cell_volume 3632.959664
_symmetry_space_group_name_H-M "I B C A "
_symmetry_group_IT_number 73
_symmetry_cell_setting 'orthorhombic'
loop_
_space_group_symop_operation_xyz
x,y,z
-x,1/2-y,z
x,-y,1/2-z
1/2-x,y,-z
-x,-y,-z
x,1/2+y,-z
-x,y,1/2+z
1/2+x,-y,z
1/2+x,1/2+y,1/2+z
1/2-x,-y,1/2+z
1/2+x,1/2-y,-z
-x,1/2+y,1/2-z
1/2-x,1/2-y,1/2-z
1/2+x,y,1/2-z
1/2-x,1/2+y,z
x,1/2-y,1/2+z
loop_
_atom_site_type_symbol
_atom_site_label
_atom_site_fract_x
_atom_site_fract_y
_atom_site_fract_z
Si Si1 0.073260 0.774947 0.281924
Si Si2 0.128537 0.908205 0.829644
Si Si3 0.500000 0.750000 0.467701
Si Si4 0.756948 0.658069 0.828744
Si Si5 0.147661 0.413416 0.824717
O O1 0.089788 0.672255 0.289968
O O2 0.039695 0.797588 0.423809
O O3 0.037394 0.798714 0.144482
O O4 0.124297 0.830164 0.258381
O O5 0.187360 0.881151 0.788321
O O6 0.115422 0.000000 0.750000
O O7 0.132508 0.914436 0.005303
O O8 0.750000 0.750000 0.750000
O O9 0.708990 0.594019 0.800203
O O10 0.750000 0.675665 0.000000
O O11 0.126661 0.500000 0.750000
#
# Coordination Sequence:
#
# PCOD9531356 Si02
#       5
#    16  16   8  16  16
#     4  11  22  45  66  92 124 165 216 261 330 366
#     4  11  24  40  65  97 132 169 209 256 312 380
#     4  10  24  42  70  88 124 164 208 282 318 376
#     4  10  21  38  62  97 131 169 207 249 309 374
#     4  11  24  40  65  97 132 169 209 256 312 380
#
# _framework density 19.818553000000001
#
# number of rings (size 3 to 8) (size 9 to 14) (size 15 to 20)
#    0.000    1.333    4.444    0.667    3.111    1.778 
#    0.000    6.667    0.000    0.000    0.000    0.000 
#    0.000    0.000    0.000    0.000    0.000    0.000 
#
# Total GULP energy -200667.555436 kJ/mol
# GULP energy per Si atom -5574.098762 kJ/mol
# Density = 1.977345 g / cm^3
# Si number density = 19.818553 Si / 1000 Ang^3
#
#
#
# Elastic Constant Matrix: (Units=GPa)
#
#
# Indices 1 2 3 4 5 6 
#
# 1 83.4601 18.6249 30.5037 0.0000 0.0000 0.0000
# 2 18.6249 125.3662 34.0470 0.0000 0.0000 0.0000
# 3 30.5037 34.0470 72.4369 0.0000 0.0000 0.0000
# 4 0.0000 0.0000 0.0000 21.4039 0.0000 0.0000
# 5 0.0000 0.0000 0.0000 0.0000 27.3126 0.0000
# 6 0.0000 0.0000 0.0000 0.0000 0.0000 -4.9122
#
#
#
# Elastic Compliance Matrix: (Units=1/GPa)
#
#
# Indices 1 2 3 4 5 6 
#
# 1 0.014195 -0.000557 -0.005716 0.000000 0.000000 0.000000
# 2 -0.000557 0.009166 -0.004074 0.000000 0.000000 0.000000
# 3 -0.005716 -0.004074 0.018127 0.000000 0.000000 0.000000
# 4 0.000000 0.000000 0.000000 0.046720 0.000000 0.000000
# 5 0.000000 0.000000 0.000000 0.000000 0.036613 0.000000
# 6 0.000000 0.000000 0.000000 0.000000 0.000000 -0.203575
#
#
# Mechanical properties :
#
#
# Convention : Reuss Voigt Hill
#
# Bulk Modulus (GPa) = 48.08829 49.73494 48.91162
# Shear Modulus (GPa) = -97.79073 21.96670 -37.91201
#
# Velocity S-wave (km/s) = -7.03208 3.33286 -4.37848
# Velocity P-wave (km/s) = 6.45109 6.32141 0.91003
#
# Compressibility (1/GPa) = 0.02079508
#
# Stress axis : x y z
#
# Youngs Moduli (GPa) = 70.44666 109.10302 55.16647
#
# Poissons Ratio (x) = 0.06072 0.31534
# Poissons Ratio (y) = 0.03920 0.22473
# Poissons Ratio (z) = 0.40268 0.44445
#
# Static dielectric constant tensor:
#      x y z
#    x 1.740980 0.000000 0.000000 
#    y 0.000000 1.713690 0.000000 
#    z 0.000000 0.000000 1.709010 
# 
# From -- ./inp_files/4778.got.cif
#   From: 2010.05.17/outbox.cif.g08.bks.cpg/sg73_3_cif.got.tgz:4778.got - 2010.06.03 17:35:07.
