data_PCOD9531732
_publ_section_title
;
Structure prediction by ZEFSAII (Michael W. Deem and Ramdas Pophale) SiO2 
 PCOD9531732
Probable space group: I B C A 
;
_chemical_formula_sum "Si O2"
_cell_formula_units_Z 64
_cell_length_a 20.750827
_cell_length_b 11.450465
_cell_length_c 11.761887
_cell_angle_alpha 90.000000
_cell_angle_beta 90.000000
_cell_angle_gamma 90.000000
_cell_volume 2794.702195
_symmetry_space_group_name_H-M "I B C A "
_symmetry_group_IT_number 73
_symmetry_cell_setting 'orthorhombic'
loop_
_space_group_symop_operation_xyz
x,y,z
-x,1/2-y,z
x,-y,1/2-z
1/2-x,y,-z
-x,-y,-z
x,1/2+y,-z
-x,y,1/2+z
1/2+x,-y,z
1/2+x,1/2+y,1/2+z
1/2-x,-y,1/2+z
1/2+x,1/2-y,-z
-x,1/2+y,1/2-z
1/2-x,1/2-y,1/2-z
1/2+x,y,1/2-z
1/2-x,1/2+y,z
x,1/2-y,1/2+z
loop_
_atom_site_type_symbol
_atom_site_label
_atom_site_fract_x
_atom_site_fract_y
_atom_site_fract_z
Si Si1 0.687537 0.445740 0.932736
Si Si2 0.010700 0.883811 0.079701
Si Si3 0.150266 0.347278 0.805642
Si Si4 0.123808 0.589894 0.158354
O O1 0.699107 0.571751 0.875902
O O2 0.660452 0.371656 0.827523
O O3 0.750000 0.402914 0.000000
O O4 0.635692 0.455221 0.032212
O O5 0.079389 0.882385 0.144874
O O6 0.000000 0.750000 0.027105
O O7 0.952487 0.890035 0.170402
O O8 0.000000 0.000000 0.000000
O O9 0.158460 0.212382 0.828092
O O10 0.148181 0.500000 0.250000
#
# Coordination Sequence:
#
# PCOD9531732 Si02
#       4
#    16  16  16  16
#     4  11  26  46  71 101 145 199 247 304 374 431
#     4  10  21  43  73 111 149 195 239 314 384 458
#     4  10  25  48  71 104 151 189 245 320 373 442
#     4  11  26  42  73 108 143 193 252 299 382 458
#
# _framework density 22.900473000000002
#
# number of rings (size 3 to 8) (size 9 to 14) (size 15 to 20)
#    0.000    1.500    2.500    0.000   10.500    2.000 
#    0.000    3.750    0.000    0.000    0.000    0.000 
#    0.000    0.000    0.000    0.000    0.000    0.000 
#
# Total GULP energy -178550.346004 kJ/mol
# GULP energy per Si atom -5579.698313 kJ/mol
# Density = 2.284835 g / cm^3
# Si number density = 22.900473 Si / 1000 Ang^3
#
#
#
# Elastic Constant Matrix: (Units=GPa)
#
#
# Indices 1 2 3 4 5 6 
#
# 1 94.9641 8.9352 40.1019 0.0000 0.0000 0.0000
# 2 8.9352 141.0960 71.9223 0.0000 0.0000 0.0000
# 3 40.1019 71.9223 172.4720 0.0000 0.0000 0.0000
# 4 0.0000 0.0000 0.0000 22.0710 0.0000 0.0000
# 5 0.0000 0.0000 0.0000 0.0000 22.6904 0.0000
# 6 0.0000 0.0000 0.0000 0.0000 0.0000 -18.4036
#
#
#
# Elastic Compliance Matrix: (Units=1/GPa)
#
#
# Indices 1 2 3 4 5 6 
#
# 1 0.011752 0.000824 -0.003076 0.000000 0.000000 0.000000
# 2 0.000824 0.009058 -0.003969 0.000000 0.000000 0.000000
# 3 -0.003076 -0.003969 0.008168 0.000000 0.000000 0.000000
# 4 0.000000 0.000000 0.000000 0.045308 0.000000 0.000000
# 5 0.000000 0.000000 0.000000 0.000000 0.044071 0.000000
# 6 0.000000 0.000000 0.000000 0.000000 0.000000 -0.054337
#
#
# Mechanical properties :
#
#
# Convention : Reuss Voigt Hill
#
# Bulk Modulus (GPa) = 60.47377 72.27233 66.37305
# Shear Modulus (GPa) = 60.99407 24.44308 42.71858
#
# Velocity S-wave (km/s) = 5.16645 3.27059 4.32371
# Velocity P-wave (km/s) = 7.87745 6.77423 7.34658
#
# Compressibility (1/GPa) = 0.01653609
#
# Stress axis : x y z
#
# Youngs Moduli (GPa) = 85.09402 110.39564 122.42441
#
# Poissons Ratio (x) = -0.09093 0.37657
# Poissons Ratio (y) = -0.07009 0.48589
# Poissons Ratio (z) = 0.26174 0.43815
#
# Static dielectric constant tensor:
#      x y z
#    x 1.981720 0.000000 0.000000 
#    y 0.000000 2.064670 0.000000 
#    z 0.000000 0.000000 1.807870 
# 
# From -- ./inp_files/9440.got.cif
#   From: 2010.05.17/outbox.cif.g08.bks.cpg/sg73_5_cif.got.tgz:9440.got - 2010.06.03 17:35:07.
