data_PCOD9531262
_publ_section_title
;
Structure prediction by ZEFSAII (Michael W. Deem and Ramdas Pophale) SiO2 
 PCOD9531262
Probable space group: I B C A 
;
_chemical_formula_sum "Si O2"
_cell_formula_units_Z 64
_cell_length_a 27.725726
_cell_length_b 18.822447
_cell_length_c 5.224560
_cell_angle_alpha 90.000000
_cell_angle_beta 90.000000
_cell_angle_gamma 90.000000
_cell_volume 2726.520272
_symmetry_space_group_name_H-M "I B C A "
_symmetry_group_IT_number 73
_symmetry_cell_setting 'orthorhombic'
loop_
_space_group_symop_operation_xyz
x,y,z
-x,1/2-y,z
x,-y,1/2-z
1/2-x,y,-z
-x,-y,-z
x,1/2+y,-z
-x,y,1/2+z
1/2+x,-y,z
1/2+x,1/2+y,1/2+z
1/2-x,-y,1/2+z
1/2+x,1/2-y,-z
-x,1/2+y,1/2-z
1/2-x,1/2-y,1/2-z
1/2+x,y,1/2-z
1/2-x,1/2+y,z
x,1/2-y,1/2+z
loop_
_atom_site_type_symbol
_atom_site_label
_atom_site_fract_x
_atom_site_fract_y
_atom_site_fract_z
Si Si1 0.927851 0.720961 0.052123
Si Si2 0.216325 0.922186 0.250632
Si Si3 0.820762 0.276622 0.092855
Si Si4 0.467334 0.420682 0.255382
O O1 0.949892 0.773127 0.267798
O O2 0.873835 0.747475 0.983094
O O3 0.932440 0.643678 0.177485
O O4 0.250000 0.922949 0.500000
O O5 0.181962 0.854974 0.290531
O O6 0.191951 0.000000 0.250000
O O7 0.250000 0.914902 0.000000
O O8 0.797967 0.273896 0.809804
O O9 0.445404 0.500000 0.250000
O O10 0.491571 0.415867 0.534575
#
# Coordination Sequence:
#
# PCOD9531262 Si02
#       4
#    16  16  16  16
#     4  10  21  37  57  85 119 156 198 244 300 360
#     4  10  21  37  59  87 119 156 198 247 302 362
#     4  10  21  37  57  85 119 156 198 245 302 367
#     4  10  21  37  59  87 119 158 203 251 303 359
#
# _framework density 23.473144000000001
#
# number of rings (size 3 to 8) (size 9 to 14) (size 15 to 20)
#    0.000    2.000    0.000    3.000    0.000    6.000 
#    0.000    5.000    0.000   12.000    0.000    0.000 
#    0.000    0.000    0.000    0.000    0.000    0.000 
#
# Total GULP energy -178475.311728 kJ/mol
# GULP energy per Si atom -5577.353491 kJ/mol
# Density = 2.341972 g / cm^3
# Si number density = 23.473144 Si / 1000 Ang^3
#
#
#
# Elastic Constant Matrix: (Units=GPa)
#
#
# Indices 1 2 3 4 5 6 
#
# 1 75.6907 50.0771 7.8525 0.0000 0.0000 0.0000
# 2 50.0771 242.0261 42.4046 0.0000 0.0000 0.0000
# 3 7.8525 42.4046 200.6762 0.0000 0.0000 0.0000
# 4 0.0000 0.0000 0.0000 52.8592 0.0000 0.0000
# 5 0.0000 0.0000 0.0000 0.0000 19.8203 0.0000
# 6 0.0000 0.0000 0.0000 0.0000 0.0000 36.4596
#
#
#
# Elastic Compliance Matrix: (Units=1/GPa)
#
#
# Indices 1 2 3 4 5 6 
#
# 1 0.015308 -0.003180 0.000073 0.000000 0.000000 0.000000
# 2 -0.003180 0.004951 -0.000922 0.000000 0.000000 0.000000
# 3 0.000073 -0.000922 0.005175 0.000000 0.000000 0.000000
# 4 0.000000 0.000000 0.000000 0.018918 0.000000 0.000000
# 5 0.000000 0.000000 0.000000 0.000000 0.050453 0.000000
# 6 0.000000 0.000000 0.000000 0.000000 0.000000 0.027428
#
#
# Mechanical properties :
#
#
# Convention : Reuss Voigt Hill
#
# Bulk Modulus (GPa) = 57.54895 79.89570 68.72233
# Shear Modulus (GPa) = 36.74208 49.69840 43.22024
#
# Velocity S-wave (km/s) = 3.96066 4.60635 4.29565
# Velocity P-wave (km/s) = 6.74432 7.89951 7.34466
#
# Compressibility (1/GPa) = 0.01737651
#
# Stress axis : x y z
#
# Youngs Moduli (GPa) = 65.32496 201.96748 193.23362
#
# Poissons Ratio (x) = 0.64229 -0.01410
# Poissons Ratio (y) = 0.20774 0.17813
# Poissons Ratio (z) = -0.00477 0.18618
#
# Static dielectric constant tensor:
#      x y z
#    x 2.101950 0.000000 0.000000 
#    y 0.000000 1.935710 0.000000 
#    z 0.000000 0.000000 2.098500 
# 
# From -- ./inp_files/2924.got.cif
#   From: 2010.05.17/outbox.cif.g08.bks.cpg/sg73_2_cif.got.tgz:2924.got - 2010.06.03 17:35:07.
