data_PCOD9531671
_publ_section_title
;
Structure prediction by ZEFSAII (Michael W. Deem and Ramdas Pophale) SiO2 
 PCOD9531671
Probable space group: I B C A 
;
_chemical_formula_sum "Si O2"
_cell_formula_units_Z 80
_cell_length_a 27.497888
_cell_length_b 12.710138
_cell_length_c 10.121676
_cell_angle_alpha 90.000000
_cell_angle_beta 90.000000
_cell_angle_gamma 90.000000
_cell_volume 3537.545511
_symmetry_space_group_name_H-M "I B C A "
_symmetry_group_IT_number 73
_symmetry_cell_setting 'orthorhombic'
loop_
_space_group_symop_operation_xyz
x,y,z
-x,1/2-y,z
x,-y,1/2-z
1/2-x,y,-z
-x,-y,-z
x,1/2+y,-z
-x,y,1/2+z
1/2+x,-y,z
1/2+x,1/2+y,1/2+z
1/2-x,-y,1/2+z
1/2+x,1/2-y,-z
-x,1/2+y,1/2-z
1/2-x,1/2-y,1/2-z
1/2+x,y,1/2-z
1/2-x,1/2+y,z
x,1/2-y,1/2+z
loop_
_atom_site_type_symbol
_atom_site_label
_atom_site_fract_x
_atom_site_fract_y
_atom_site_fract_z
Si Si1 0.693996 0.362897 0.513804
Si Si2 0.344584 0.779885 0.259257
Si Si3 0.027163 0.412609 0.089068
Si Si4 0.621551 0.039395 0.563633
Si Si5 0.435522 0.693423 0.131661
O O1 0.750000 0.393273 0.500000
O O2 0.685215 0.296242 0.645684
O O3 0.678169 0.294635 0.385381
O O4 0.658380 0.462459 0.510675
O O5 0.349654 0.892305 0.329695
O O6 0.399336 0.735309 0.242812
O O7 0.077220 0.470438 0.121176
O O8 0.046967 0.296387 0.048864
O O9 0.982751 0.371761 0.182441
O O10 0.000000 0.500000 0.000000
O O11 0.595963 0.119087 0.462097
#
# Coordination Sequence:
#
# PCOD9531671 Si02
#       5
#    16  16  16  16  16
#     4  12  28  49  76 106 140 193 252 311 380 440
#     4  12  24  50  75 104 149 189 242 311 371 437
#     4   9  19  39  72 107 148 194 239 286 358 440
#     4  11  22  46  74 103 151 190 243 300 368 437
#     4  10  21  42  69 111 148 194 234 296 361 443
#
# _framework density 22.614550000000001
#
# number of rings (size 3 to 8) (size 9 to 14) (size 15 to 20)
#    0.000    1.200    4.000    1.200    0.000    1.600 
#    7.200   28.000    0.000    0.000    0.000    0.000 
#    0.000    0.000    0.000    0.000    0.000    0.000 
#
# Total GULP energy -223276.435516 kJ/mol
# GULP energy per Si atom -5581.910888 kJ/mol
# Density = 2.256308 g / cm^3
# Si number density = 22.614550 Si / 1000 Ang^3
#
#
#
# Elastic Constant Matrix: (Units=GPa)
#
#
# Indices 1 2 3 4 5 6 
#
# 1 128.8770 52.7739 3.2432 0.0000 0.0000 0.0000
# 2 52.7739 137.4202 32.4354 0.0000 0.0000 0.0000
# 3 3.2432 32.4354 41.3551 0.0000 0.0000 0.0000
# 4 0.0000 0.0000 0.0000 20.6938 0.0000 0.0000
# 5 0.0000 0.0000 0.0000 0.0000 11.4983 0.0000
# 6 0.0000 0.0000 0.0000 0.0000 0.0000 4.0201
#
#
#
# Elastic Compliance Matrix: (Units=1/GPa)
#
#
# Indices 1 2 3 4 5 6 
#
# 1 0.009426 -0.004228 0.002577 0.000000 0.000000 0.000000
# 2 -0.004228 0.010827 -0.008160 0.000000 0.000000 0.000000
# 3 0.002577 -0.008160 0.030379 0.000000 0.000000 0.000000
# 4 0.000000 0.000000 0.000000 0.048324 0.000000 0.000000
# 5 0.000000 0.000000 0.000000 0.000000 0.086969 0.000000
# 6 0.000000 0.000000 0.000000 0.000000 0.000000 0.248748
#
#
# Mechanical properties :
#
#
# Convention : Reuss Voigt Hill
#
# Bulk Modulus (GPa) = 32.24865 53.83972 43.04419
# Shear Modulus (GPa) = 10.76123 21.85577 16.30850
#
# Velocity S-wave (km/s) = 2.18378 3.11215 2.68834
# Velocity P-wave (km/s) = 4.54418 6.06409 5.35830
#
# Compressibility (1/GPa) = 0.03100905
#
# Stress axis : x y z
#
# Youngs Moduli (GPa) = 106.09129 92.36450 32.91782
#
# Poissons Ratio (x) = 0.39052 -0.08483
# Poissons Ratio (y) = 0.44856 0.26861
# Poissons Ratio (z) = -0.27339 0.75369
#
# Static dielectric constant tensor:
#      x y z
#    x 1.828410 0.000000 0.000000 
#    y 0.000000 1.861820 0.000000 
#    z 0.000000 0.000000 1.873180 
# 
# From -- ./inp_files/14586.got.cif
#   From: 2010.05.17/outbox.cif.g08.bks.cpg/sg73_8_cif.got.tgz:14586.got - 2010.06.03 17:35:07.
