data_PCOD9531175
_publ_section_title
;
Structure prediction by ZEFSAII (Michael W. Deem and Ramdas Pophale) SiO2 
 PCOD9531175
Probable space group: I B C A 
;
_chemical_formula_sum "Si O2"
_cell_formula_units_Z 112
_cell_length_a 5.676021
_cell_length_b 28.885915
_cell_length_c 30.684378
_cell_angle_alpha 90.000000
_cell_angle_beta 90.000000
_cell_angle_gamma 90.000000
_cell_volume 5030.920409
_symmetry_space_group_name_H-M "I B C A "
_symmetry_group_IT_number 73
_symmetry_cell_setting 'orthorhombic'
loop_
_space_group_symop_operation_xyz
x,y,z
-x,1/2-y,z
x,-y,1/2-z
1/2-x,y,-z
-x,-y,-z
x,1/2+y,-z
-x,y,1/2+z
1/2+x,-y,z
1/2+x,1/2+y,1/2+z
1/2-x,-y,1/2+z
1/2+x,1/2-y,-z
-x,1/2+y,1/2-z
1/2-x,1/2-y,1/2-z
1/2+x,y,1/2-z
1/2-x,1/2+y,z
x,1/2-y,1/2+z
loop_
_atom_site_type_symbol
_atom_site_label
_atom_site_fract_x
_atom_site_fract_y
_atom_site_fract_z
Si Si1 0.431345 0.200506 0.047670
Si Si2 0.519245 0.017077 0.198758
Si Si3 0.553368 0.134849 0.424196
Si Si4 0.750000 0.626111 0.000000
Si Si5 0.063980 0.650669 0.770543
Si Si6 0.168956 0.889000 0.657523
Si Si7 0.822487 0.187660 0.864350
Si Si8 0.000000 0.750000 0.305706
O O1 0.500000 0.250000 0.027223
O O2 0.170518 0.179234 0.050867
O O3 0.508615 0.204478 0.097586
O O4 0.582472 0.159421 0.027608
O O5 0.446083 0.067864 0.182202
O O6 0.534141 0.000000 0.250000
O O7 0.786142 0.010049 0.182039
O O8 0.418664 0.105170 0.461752
O O9 0.748818 0.109271 0.393494
O O10 0.371964 0.158090 0.390610
O O11 0.305814 0.637930 0.746096
O O12 0.098717 0.624223 0.815822
O O13 0.079113 0.706005 0.777722
O O14 0.988062 0.846404 0.662980
O O15 0.701560 0.227735 0.836366
#
# Coordination Sequence:
#
# PCOD9531175 Si02
#       8
#    16  16  16   8  16  16  16   8
#     4  10  21  33  55  84 129 178 232 292 345 393
#     4  10  25  45  74 106 139 170 218 288 367 455
#     4  10  21  41  58  93 125 180 230 286 344 427
#     4  10  22  34  58  88 134 168 238 282 358 392
#     4  12  28  42  63  86 130 178 236 293 337 406
#     4  11  25  43  70  95 137 176 232 282 375 428
#     4  10  22  38  61  89 128 182 234 291 331 413
#     4  12  22  44  60  90 130 184 254 288 342 380
#
# _framework density 22.262328
#
# number of rings (size 3 to 8) (size 9 to 14) (size 15 to 20)
#    0.000    1.429    1.429    2.571   10.000    2.286 
#    0.000    0.000    0.000    0.000    0.000    1.000 
#    0.000    0.000    0.000    0.000    0.000    0.000 
#
# Total GULP energy -312074.060933 kJ/mol
# GULP energy per Si atom -5572.751088 kJ/mol
# Density = 2.221166 g / cm^3
# Si number density = 22.262328 Si / 1000 Ang^3
#
#
#
# Elastic Constant Matrix: (Units=GPa)
#
#
# Indices 1 2 3 4 5 6 
#
# 1 96.4151 -10.0625 37.9387 0.0000 0.0000 0.0000
# 2 -10.0625 37.4008 10.8710 0.0000 0.0000 0.0000
# 3 37.9387 10.8710 83.6703 0.0000 0.0000 0.0000
# 4 0.0000 0.0000 0.0000 13.8733 0.0000 0.0000
# 5 0.0000 0.0000 0.0000 0.0000 19.8698 0.0000
# 6 0.0000 0.0000 0.0000 0.0000 0.0000 21.2986
#
#
#
# Elastic Compliance Matrix: (Units=1/GPa)
#
#
# Indices 1 2 3 4 5 6 
#
# 1 0.013705 0.005709 -0.006956 0.000000 0.000000 0.000000
# 2 0.005709 0.030165 -0.006508 0.000000 0.000000 0.000000
# 3 -0.006956 -0.006508 0.015951 0.000000 0.000000 0.000000
# 4 0.000000 0.000000 0.000000 0.072081 0.000000 0.000000
# 5 0.000000 0.000000 0.000000 0.000000 0.050328 0.000000
# 6 0.000000 0.000000 0.000000 0.000000 0.000000 0.046951
#
#
# Mechanical properties :
#
#
# Convention : Reuss Voigt Hill
#
# Bulk Modulus (GPa) = 22.56754 32.77560 27.67157
# Shear Modulus (GPa) = 19.27072 22.92428 21.09750
#
# Velocity S-wave (km/s) = 2.94533 3.21243 3.08178
# Velocity P-wave (km/s) = 4.66109 5.33985 5.01197
#
# Compressibility (1/GPa) = 0.04431143
#
# Stress axis : x y z
#
# Youngs Moduli (GPa) = 72.96742 33.15107 62.69109
#
# Poissons Ratio (x) = -0.18926 0.43607
# Poissons Ratio (y) = -0.41657 0.40798
# Poissons Ratio (z) = 0.50755 0.21574
#
# Static dielectric constant tensor:
#      x y z
#    x 2.079420 0.000000 0.000000 
#    y 0.000000 1.840470 0.000000 
#    z 0.000000 0.000000 1.927220 
# 
# From -- ./inp_files/33379.got.cif
#   From: 2010.05.17/outbox.cif.g08.bks.cpg/sg73_17_cif.got.tgz:33379.got - 2010.06.03 17:35:07.
