data_PCOD9531462
_publ_section_title
;
Structure prediction by ZEFSAII (Michael W. Deem and Ramdas Pophale) SiO2 
 PCOD9531462
Probable space group: I B C A 
;
_chemical_formula_sum "Si O2"
_cell_formula_units_Z 120
_cell_length_a 12.782766
_cell_length_b 23.683949
_cell_length_c 19.144804
_cell_angle_alpha 90.000000
_cell_angle_beta 90.000000
_cell_angle_gamma 90.000000
_cell_volume 5796.020069
_symmetry_space_group_name_H-M "I B C A "
_symmetry_group_IT_number 73
_symmetry_cell_setting 'orthorhombic'
loop_
_space_group_symop_operation_xyz
x,y,z
-x,1/2-y,z
x,-y,1/2-z
1/2-x,y,-z
-x,-y,-z
x,1/2+y,-z
-x,y,1/2+z
1/2+x,-y,z
1/2+x,1/2+y,1/2+z
1/2-x,-y,1/2+z
1/2+x,1/2-y,-z
-x,1/2+y,1/2-z
1/2-x,1/2-y,1/2-z
1/2+x,y,1/2-z
1/2-x,1/2+y,z
x,1/2-y,1/2+z
loop_
_atom_site_type_symbol
_atom_site_label
_atom_site_fract_x
_atom_site_fract_y
_atom_site_fract_z
Si Si1 0.960306 0.404172 0.289127
Si Si2 0.210504 0.758186 0.419471
Si Si3 0.338447 0.360941 0.942716
Si Si4 0.424756 0.641803 0.025264
Si Si5 0.253769 0.946845 0.845589
Si Si6 0.159719 0.926342 0.353359
Si Si7 0.356405 0.653891 0.864691
Si Si8 0.406666 0.000000 0.250000
O O1 0.850759 0.405483 0.330080
O O2 0.923018 0.409459 0.207878
O O3 0.041707 0.357100 0.316597
O O4 0.020728 0.463802 0.301435
O O5 0.250000 0.754238 0.500000
O O6 0.175011 0.696074 0.396782
O O7 0.118863 0.804392 0.430555
O O8 0.301002 0.784773 0.370867
O O9 0.451426 0.357230 0.976341
O O10 0.316391 0.419588 0.904968
O O11 0.250000 0.358549 0.000000
O O12 0.386455 0.589326 0.071272
O O13 0.383528 0.641197 0.946210
O O14 0.304128 0.008775 0.853104
O O15 0.170219 0.954999 0.784371
O O16 0.263391 0.888383 0.343481
#
# Coordination Sequence:
#
# PCOD9531462 Si02
#       8
#    16  16  16  16  16  16  16   8
#     4  12  21  38  63  89 120 174 223 262 322 398
#     4   8  18  39  65  91 125 166 211 264 335 399
#     4  11  23  38  59  94 132 166 214 275 324 398
#     4  10  21  39  65  94 125 172 212 270 343 399
#     4  12  23  37  57  91 122 166 219 268 324 394
#     4  11  21  38  61  92 126 171 217 269 333 397
#     4  10  21  39  66  95 126 166 222 276 329 405
#     4  12  20  40  60  80 118 168 222 264 316 396
#
# _framework density 20.703862000000001
#
# number of rings (size 3 to 8) (size 9 to 14) (size 15 to 20)
#    0.000    1.333    4.000    3.200    0.000    1.067 
#    0.000    4.000    0.000   19.200    0.000    0.000 
#    0.000    0.000    0.000    0.000    0.000    0.000 
#
# Total GULP energy -334445.260316 kJ/mol
# GULP energy per Si atom -5574.087672 kJ/mol
# Density = 2.065674 g / cm^3
# Si number density = 20.703862 Si / 1000 Ang^3
#
#
#
# Elastic Constant Matrix: (Units=GPa)
#
#
# Indices 1 2 3 4 5 6 
#
# 1 96.5329 -0.0853 20.2380 0.0000 0.0000 0.0000
# 2 -0.0853 46.1803 24.0520 0.0000 0.0000 0.0000
# 3 20.2380 24.0520 57.6416 0.0000 0.0000 0.0000
# 4 0.0000 0.0000 0.0000 13.6703 0.0000 0.0000
# 5 0.0000 0.0000 0.0000 0.0000 45.4538 0.0000
# 6 0.0000 0.0000 0.0000 0.0000 0.0000 28.8029
#
#
#
# Elastic Compliance Matrix: (Units=1/GPa)
#
#
# Indices 1 2 3 4 5 6 
#
# 1 0.011440 0.002700 -0.005143 0.000000 0.000000 0.000000
# 2 0.002700 0.028304 -0.012758 0.000000 0.000000 0.000000
# 3 -0.005143 -0.012758 0.024478 0.000000 0.000000 0.000000
# 4 0.000000 0.000000 0.000000 0.073152 0.000000 0.000000
# 5 0.000000 0.000000 0.000000 0.000000 0.022000 0.000000
# 6 0.000000 0.000000 0.000000 0.000000 0.000000 0.034719
#
#
# Mechanical properties :
#
#
# Convention : Reuss Voigt Hill
#
# Bulk Modulus (GPa) = 29.56946 32.08493 30.82719
# Shear Modulus (GPa) = 21.20727 27.99541 24.60134
#
# Velocity S-wave (km/s) = 3.20396 3.68119 3.45084
# Velocity P-wave (km/s) = 5.29153 5.79646 5.54974
#
# Compressibility (1/GPa) = 0.03381868
#
# Stress axis : x y z
#
# Youngs Moduli (GPa) = 87.41430 35.33063 40.85320
#
# Poissons Ratio (x) = -0.09538 0.21011
# Poissons Ratio (y) = -0.23600 0.52121
# Poissons Ratio (z) = 0.44957 0.45076
#
# Static dielectric constant tensor:
#      x y z
#    x 1.768280 0.000000 0.000000 
#    y 0.000000 1.798710 0.000000 
#    z 0.000000 0.000000 1.745650 
# 
# From -- ./inp_files/25640.got.cif
#   From: 2010.05.17/outbox.cif.g08.bks.cpg/sg73_13_cif.got.tgz:25640.got - 2010.06.03 17:35:07.
