data_PCOD9531961
_publ_section_title
;
Structure prediction by ZEFSAII (Michael W. Deem and Ramdas Pophale) SiO2 
 PCOD9531961
Probable space group: I B C A 
;
_chemical_formula_sum "Si O2"
_cell_formula_units_Z 88
_cell_length_a 11.087858
_cell_length_b 10.550441
_cell_length_c 30.970722
_cell_angle_alpha 90.000000
_cell_angle_beta 90.000000
_cell_angle_gamma 90.000000
_cell_volume 3623.010548
_symmetry_space_group_name_H-M "I B C A "
_symmetry_group_IT_number 73
_symmetry_cell_setting 'orthorhombic'
loop_
_space_group_symop_operation_xyz
x,y,z
-x,1/2-y,z
x,-y,1/2-z
1/2-x,y,-z
-x,-y,-z
x,1/2+y,-z
-x,y,1/2+z
1/2+x,-y,z
1/2+x,1/2+y,1/2+z
1/2-x,-y,1/2+z
1/2+x,1/2-y,-z
-x,1/2+y,1/2-z
1/2-x,1/2-y,1/2-z
1/2+x,y,1/2-z
1/2-x,1/2+y,z
x,1/2-y,1/2+z
loop_
_atom_site_type_symbol
_atom_site_label
_atom_site_fract_x
_atom_site_fract_y
_atom_site_fract_z
Si Si1 0.000000 0.750000 0.966848
Si Si2 0.000000 0.250000 0.676105
Si Si3 0.628736 0.500000 0.250000
Si Si4 0.721201 0.079469 0.091916
Si Si5 0.244033 0.324785 0.182424
Si Si6 0.533568 0.537052 0.105022
Si Si7 0.000000 0.750000 0.218150
Si Si8 0.250000 0.792239 0.000000
O O1 0.024244 0.867623 0.935506
O O2 0.877132 0.778784 0.992658
O O3 0.132667 0.264928 0.696963
O O4 0.984585 0.377164 0.647619
O O5 0.710508 0.546599 0.209256
O O6 0.541454 0.381785 0.240217
O O7 0.758191 0.174698 0.130234
O O8 0.831704 0.979130 0.100160
O O9 0.584250 0.046633 0.101734
O O10 0.728689 0.126959 0.043234
O O11 0.377458 0.283649 0.193517
#
# Coordination Sequence:
#
# PCOD9531961 Si02
#       8
#     8   8   8  16  16  16   8   8
#     4   9  20  37  57  86 129 176 230 283 356 421
#     4   9  21  42  68  95 145 182 230 306 370 432
#     4  12  28  52  76 118 156 198 252 328 388 464
#     4  10  23  39  65  98 138 181 241 295 364 439
#     4  11  26  45  74 108 146 196 246 311 373 459
#     4   9  20  38  61  93 130 182 228 291 363 424
#     4  12  29  49  83 117 150 200 264 307 396 465
#     4  10  22  40  58  98 134 184 236 292 362 436
#
# _framework density 24.289192
#
# number of rings (size 3 to 8) (size 9 to 14) (size 15 to 20)
#    0.000    1.818    0.000    2.727    7.636    5.818 
#    0.000    0.000    0.000    0.000    0.000    0.000 
#    0.000    0.000    0.000    0.000    0.000    0.000 
#
# Total GULP energy -245157.328609 kJ/mol
# GULP energy per Si atom -5571.757468 kJ/mol
# Density = 2.423391 g / cm^3
# Si number density = 24.289192 Si / 1000 Ang^3
#
#
#
# Elastic Constant Matrix: (Units=GPa)
#
#
# Indices 1 2 3 4 5 6 
#
# 1 195.5284 13.1446 37.2359 0.0000 0.0000 0.0000
# 2 13.1446 43.4199 23.8773 0.0000 0.0000 0.0000
# 3 37.2359 23.8773 100.2222 0.0000 0.0000 0.0000
# 4 0.0000 0.0000 0.0000 -46.7923 0.0000 0.0000
# 5 0.0000 0.0000 0.0000 0.0000 81.6866 0.0000
# 6 0.0000 0.0000 0.0000 0.0000 0.0000 50.5432
#
#
#
# Elastic Compliance Matrix: (Units=1/GPa)
#
#
# Indices 1 2 3 4 5 6 
#
# 1 0.005518 -0.000625 -0.001901 0.000000 0.000000 0.000000
# 2 -0.000625 0.026574 -0.006099 0.000000 0.000000 0.000000
# 3 -0.001901 -0.006099 0.012137 0.000000 0.000000 0.000000
# 4 0.000000 0.000000 0.000000 -0.021371 0.000000 0.000000
# 5 0.000000 0.000000 0.000000 0.000000 0.012242 0.000000
# 6 0.000000 0.000000 0.000000 0.000000 0.000000 0.019785
#
#
# Mechanical properties :
#
#
# Convention : Reuss Voigt Hill
#
# Bulk Modulus (GPa) = 37.06561 54.18736 45.62649
# Shear Modulus (GPa) = 61.63001 34.74834 48.18918
#
# Velocity S-wave (km/s) = 5.04267 3.78644 4.45902
# Velocity P-wave (km/s) = 7.01412 6.44002 6.73319
#
# Compressibility (1/GPa) = 0.02697918
#
# Stress axis : x y z
#
# Youngs Moduli (GPa) = 181.21004 37.63077 82.39076
#
# Poissons Ratio (x) = 0.02352 0.15666
# Poissons Ratio (y) = 0.11326 0.50249
# Poissons Ratio (z) = 0.34455 0.22951
#
# Static dielectric constant tensor:
#      x y z
#    x 0.617510 0.000000 0.000000 
#    y 0.000000 1.949370 0.000000 
#    z 0.000000 0.000000 2.040540 
# 
# From -- ./inp_files/14730.got.cif
#   From: 2010.05.17/outbox.cif.g08.bks.cpg/sg73_8_cif.got.tgz:14730.got - 2010.06.03 17:35:07.
