data_PCOD9531945
_publ_section_title
;
Structure prediction by ZEFSAII (Michael W. Deem and Ramdas Pophale) SiO2 
 PCOD9531945
Probable space group: I B C A 
;
_chemical_formula_sum "Si O2"
_cell_formula_units_Z 104
_cell_length_a 9.404279
_cell_length_b 16.383805
_cell_length_c 30.231079
_cell_angle_alpha 90.000000
_cell_angle_beta 90.000000
_cell_angle_gamma 90.000000
_cell_volume 4657.940360
_symmetry_space_group_name_H-M "I B C A "
_symmetry_group_IT_number 73
_symmetry_cell_setting 'orthorhombic'
loop_
_space_group_symop_operation_xyz
x,y,z
-x,1/2-y,z
x,-y,1/2-z
1/2-x,y,-z
-x,-y,-z
x,1/2+y,-z
-x,y,1/2+z
1/2+x,-y,z
1/2+x,1/2+y,1/2+z
1/2-x,-y,1/2+z
1/2+x,1/2-y,-z
-x,1/2+y,1/2-z
1/2-x,1/2-y,1/2-z
1/2+x,y,1/2-z
1/2-x,1/2+y,z
x,1/2-y,1/2+z
loop_
_atom_site_type_symbol
_atom_site_label
_atom_site_fract_x
_atom_site_fract_y
_atom_site_fract_z
Si Si1 0.903800 0.570379 0.022611
Si Si2 0.953573 0.545289 0.843389
Si Si3 0.500000 0.750000 0.883845
Si Si4 0.211722 0.597345 0.261047
Si Si5 0.014563 0.374871 0.806126
Si Si6 0.703378 0.465150 0.902141
Si Si7 0.340828 0.322455 0.541129
O O1 0.872645 0.538705 0.071904
O O2 0.004587 0.648895 0.023629
O O3 0.750000 0.580269 0.000000
O O4 0.000000 0.500000 0.000000
O O5 0.883289 0.600309 0.805698
O O6 0.026606 0.470017 0.817905
O O7 0.828595 0.503757 0.872616
O O8 0.080366 0.579040 0.873708
O O9 0.521567 0.674895 0.851001
O O10 0.367765 0.733726 0.916379
O O11 0.228768 0.500000 0.250000
O O12 0.132275 0.636137 0.219544
O O13 0.358128 0.640585 0.272503
O O14 0.766376 0.403796 0.938758
O O15 0.250000 0.291246 0.500000
#
# Coordination Sequence:
#
# PCOD9531945 Si02
#       7
#    16  16   8  16  16  16  16
#     4  12  20  36  65 104 131 161 214 280 353 405
#     4  11  21  35  65 105 136 160 207 276 346 394
#     4  12  28  48  64  88 132 190 236 262 320 402
#     4  10  22  39  67 103 132 161 212 280 346 384
#     4  11  23  42  65  92 133 181 217 271 324 403
#     4  12  19  35  62 101 136 167 202 274 344 401
#     4  12  26  45  67  94 134 178 224 280 337 404
#
# _framework density 22.327465
#
# number of rings (size 3 to 8) (size 9 to 14) (size 15 to 20)
#    0.000    0.615    7.692    1.385    2.154    1.231 
#    0.000    1.538    0.000    1.846    0.000    0.000 
#    0.000    0.000    0.000    0.000    0.000    0.000 
#
# Total GULP energy -290833.808359 kJ/mol
# GULP energy per Si atom -5592.957853 kJ/mol
# Density = 2.227665 g / cm^3
# Si number density = 22.327465 Si / 1000 Ang^3
#
#
#
# Elastic Constant Matrix: (Units=GPa)
#
#
# Indices 1 2 3 4 5 6 
#
# 1 123.2802 13.1605 59.3194 0.0000 0.0000 0.0000
# 2 13.1605 30.9637 18.1594 0.0000 0.0000 0.0000
# 3 59.3194 18.1594 126.4970 0.0000 0.0000 0.0000
# 4 0.0000 0.0000 0.0000 33.4268 0.0000 0.0000
# 5 0.0000 0.0000 0.0000 0.0000 72.9992 0.0000
# 6 0.0000 0.0000 0.0000 0.0000 0.0000 10.7481
#
#
#
# Elastic Compliance Matrix: (Units=1/GPa)
#
#
# Indices 1 2 3 4 5 6 
#
# 1 0.010559 -0.001730 -0.004703 0.000000 0.000000 0.000000
# 2 -0.001730 0.035548 -0.004292 0.000000 0.000000 0.000000
# 3 -0.004703 -0.004292 0.010727 0.000000 0.000000 0.000000
# 4 0.000000 0.000000 0.000000 0.029916 0.000000 0.000000
# 5 0.000000 0.000000 0.000000 0.000000 0.013699 0.000000
# 6 0.000000 0.000000 0.000000 0.000000 0.000000 0.093040
#
#
# Mechanical properties :
#
#
# Convention : Reuss Voigt Hill
#
# Bulk Modulus (GPa) = 28.26097 51.33552 39.79824
# Shear Modulus (GPa) = 22.05224 36.10825 29.08025
#
# Velocity S-wave (km/s) = 3.14614 4.02582 3.61285
# Velocity P-wave (km/s) = 5.08749 6.68219 5.93861
#
# Compressibility (1/GPa) = 0.03538449
#
# Stress axis : x y z
#
# Youngs Moduli (GPa) = 94.70212 28.13078 93.22188
#
# Poissons Ratio (x) = 0.04866 0.43846
# Poissons Ratio (y) = 0.16380 0.40011
# Poissons Ratio (z) = 0.44542 0.12074
#
# Static dielectric constant tensor:
#      x y z
#    x 1.879100 0.000000 0.000000 
#    y 0.000000 1.865780 0.000000 
#    z 0.000000 0.000000 1.834930 
# 
# From -- ./inp_files/33594.got.cif
#   From: 2010.05.17/outbox.cif.g08.bks.cpg/sg73_17_cif.got.tgz:33594.got - 2010.06.03 17:35:07.
