data_PCOD9531332
_publ_section_title
;
Structure prediction by ZEFSAII (Michael W. Deem and Ramdas Pophale) SiO2 
 PCOD9531332
Probable space group: I B C A 
;
_chemical_formula_sum "Si O2"
_cell_formula_units_Z 112
_cell_length_a 14.095809
_cell_length_b 27.717485
_cell_length_c 14.526639
_cell_angle_alpha 90.000000
_cell_angle_beta 90.000000
_cell_angle_gamma 90.000000
_cell_volume 5675.563298
_symmetry_space_group_name_H-M "I B C A "
_symmetry_group_IT_number 73
_symmetry_cell_setting 'orthorhombic'
loop_
_space_group_symop_operation_xyz
x,y,z
-x,1/2-y,z
x,-y,1/2-z
1/2-x,y,-z
-x,-y,-z
x,1/2+y,-z
-x,y,1/2+z
1/2+x,-y,z
1/2+x,1/2+y,1/2+z
1/2-x,-y,1/2+z
1/2+x,1/2-y,-z
-x,1/2+y,1/2-z
1/2-x,1/2-y,1/2-z
1/2+x,y,1/2-z
1/2-x,1/2+y,z
x,1/2-y,1/2+z
loop_
_atom_site_type_symbol
_atom_site_label
_atom_site_fract_x
_atom_site_fract_y
_atom_site_fract_z
Si Si1 0.396610 0.441642 0.653733
Si Si2 0.290346 0.462595 0.902780
Si Si3 0.601596 0.946032 0.283560
Si Si4 0.257894 0.305009 0.721025
Si Si5 0.076064 0.357911 0.644879
Si Si6 0.846911 0.149725 0.449957
Si Si7 0.633802 0.377421 0.331153
O O1 0.356501 0.494790 0.637236
O O2 0.510616 0.435402 0.651681
O O3 0.347218 0.405220 0.583704
O O4 0.369781 0.418356 0.751609
O O5 0.200185 0.449230 0.838318
O O6 0.346669 0.412136 0.917205
O O7 0.250000 0.480015 0.000000
O O8 0.602369 0.909233 0.195970
O O9 0.581944 0.000000 0.250000
O O10 0.250000 0.250000 0.750000
O O11 0.155675 0.322440 0.684677
O O12 0.338471 0.317626 0.642609
O O13 0.286544 0.338964 0.806529
O O14 0.079526 0.351002 0.534204
O O15 0.966778 0.351119 0.670240
O O16 0.750000 0.162116 0.500000
#
# Coordination Sequence:
#
# PCOD9531332 Si02
#       7
#    16  16  16  16  16  16  16
#     4  10  21  38  58  86 123 166 211 251 299 378
#     4  12  25  36  56  89 128 169 212 260 315 367
#     4  11  23  37  59  85 125 170 211 254 311 369
#     4  10  21  41  68  93 121 154 206 261 326 392
#     4  10  21  40  67  91 124 165 211 258 316 379
#     4   9  20  37  64  93 117 162 208 256 308 374
#     4  10  21  41  62  88 123 164 204 259 318 377
#
# _framework density 19.733723000000001
#
# number of rings (size 3 to 8) (size 9 to 14) (size 15 to 20)
#    0.000    1.714    1.429    3.429    8.000    1.143 
#    0.000    2.143    0.000   12.000    0.000    0.000 
#    0.000    0.000    0.000    0.000    0.000    0.000 
#
# Total GULP energy -311758.743606 kJ/mol
# GULP energy per Si atom -5567.120422 kJ/mol
# Density = 1.968881 g / cm^3
# Si number density = 19.733723 Si / 1000 Ang^3
#
#
#
# Elastic Constant Matrix: (Units=GPa)
#
#
# Indices 1 2 3 4 5 6 
#
# 1 68.4783 18.8653 15.1749 0.0000 0.0000 0.0000
# 2 18.8653 132.9149 32.6201 -0.0002 0.0000 0.0000
# 3 15.1749 32.6201 55.0082 -0.0001 0.0000 0.0000
# 4 0.0000 -0.0002 -0.0001 14.5388 0.0000 0.0000
# 5 0.0000 0.0000 0.0000 0.0000 23.9841 0.0000
# 6 0.0000 0.0000 0.0000 0.0000 0.0000 8.7741
#
#
#
# Elastic Compliance Matrix: (Units=1/GPa)
#
#
# Indices 1 2 3 4 5 6 
#
# 1 0.015764 -0.001370 -0.003537 0.000000 0.000000 0.000000
# 2 -0.001370 0.008924 -0.004914 0.000000 0.000000 0.000000
# 3 -0.003537 -0.004914 0.022069 0.000000 0.000000 0.000000
# 4 0.000000 0.000000 0.000000 0.068782 0.000000 0.000000
# 5 0.000000 0.000000 0.000000 0.000000 0.041694 0.000000
# 6 0.000000 0.000000 0.000000 0.000000 0.000000 0.113972
#
#
# Mechanical properties :
#
#
# Convention : Reuss Voigt Hill
#
# Bulk Modulus (GPa) = 36.87812 43.30246 40.09029
# Shear Modulus (GPa) = 16.67311 22.10881 19.39096
#
# Velocity S-wave (km/s) = 2.90988 3.35080 3.13809
# Velocity P-wave (km/s) = 5.47889 6.07960 5.78705
#
# Compressibility (1/GPa) = 0.02711635
#
# Stress axis : x y z
#
# Youngs Moduli (GPa) = 63.43490 112.05690 45.31261
#
# Poissons Ratio (x) = 0.15346 0.16026
# Poissons Ratio (y) = 0.08688 0.22267
# Poissons Ratio (z) = 0.22435 0.55067
#
# Static dielectric constant tensor:
#      x y z
#    x 1.784770 0.000000 0.000000 
#    y 0.000000 1.664290 0.000000 
#    z 0.000000 0.000000 1.344410 
# 
# From -- ./inp_files/17267.got.cif
#   From: 2010.05.17/outbox.cif.g08.bks.cpg/sg73_9_cif.got.tgz:17267.got - 2010.06.03 17:35:07.
