data_PCOD9531683
_publ_section_title
;
Structure prediction by ZEFSAII (Michael W. Deem and Ramdas Pophale) SiO2 
 PCOD9531683
Probable space group: I B C A 
;
_chemical_formula_sum "Si O2"
_cell_formula_units_Z 80
_cell_length_a 18.496821
_cell_length_b 7.916414
_cell_length_c 18.315335
_cell_angle_alpha 90.000000
_cell_angle_beta 90.000000
_cell_angle_gamma 90.000000
_cell_volume 2681.886898
_symmetry_space_group_name_H-M "I B C A "
_symmetry_group_IT_number 73
_symmetry_cell_setting 'orthorhombic'
loop_
_space_group_symop_operation_xyz
x,y,z
-x,1/2-y,z
x,-y,1/2-z
1/2-x,y,-z
-x,-y,-z
x,1/2+y,-z
-x,y,1/2+z
1/2+x,-y,z
1/2+x,1/2+y,1/2+z
1/2-x,-y,1/2+z
1/2+x,1/2-y,-z
-x,1/2+y,1/2-z
1/2-x,1/2-y,1/2-z
1/2+x,y,1/2-z
1/2-x,1/2+y,z
x,1/2-y,1/2+z
loop_
_atom_site_type_symbol
_atom_site_label
_atom_site_fract_x
_atom_site_fract_y
_atom_site_fract_z
Si Si1 0.430018 0.586105 0.883715
Si Si2 0.361221 0.381890 0.332646
Si Si3 0.598539 0.299539 0.475683
Si Si4 0.707487 0.754872 0.841271
Si Si5 0.000000 0.250000 0.255787
Si Si6 0.250000 0.156793 0.500000
O O1 0.452321 0.424428 0.930883
O O2 0.352516 0.597290 0.841277
O O3 0.483719 0.605721 0.816469
O O4 0.425046 0.732481 0.945846
O O5 0.380963 0.342978 0.416767
O O6 0.334343 0.422798 0.172909
O O7 0.287660 0.283289 0.309014
O O8 0.428988 0.303977 0.288717
O O9 0.671509 0.414937 0.481815
O O10 0.730477 0.755286 0.926991
#
# Coordination Sequence:
#
# PCOD9531683 Si02
#       6
#    16  16  16  16   8   8
#     4  11  25  45  75 112 155 199 259 321 393 462
#     4  11  25  47  79 114 158 203 258 315 388 462
#     4  10  21  42  75 113 149 196 252 323 391 462
#     4  10  21  43  77 115 150 200 258 322 382 460
#     4  12  32  52  72 112 164 214 256 316 384 468
#     4   8  16  34  68 106 136 170 242 314 368 422
#
# _framework density 29.829744000000002
#
# number of rings (size 3 to 8) (size 9 to 14) (size 15 to 20)
#    0.000    1.600    0.000    4.800    0.000   13.600 
#    0.000    6.000    0.000    6.000    0.000    0.000 
#    0.000    0.000    0.000    0.000    0.000    0.000 
#
# Total GULP energy -223801.167453 kJ/mol
# GULP energy per Si atom -5595.029186 kJ/mol
# Density = 2.976185 g / cm^3
# Si number density = 29.829744 Si / 1000 Ang^3
#
#
#
# Elastic Constant Matrix: (Units=GPa)
#
#
# Indices 1 2 3 4 5 6 
#
# 1 214.2090 48.8243 98.0932 0.0000 0.0000 0.0000
# 2 48.8243 143.0515 69.0945 0.0000 0.0000 0.0000
# 3 98.0932 69.0945 184.7530 0.0000 0.0000 0.0000
# 4 0.0000 0.0000 0.0000 67.7727 0.0000 0.0000
# 5 0.0000 0.0000 0.0000 0.0000 65.9093 0.0000
# 6 0.0000 0.0000 0.0000 0.0000 0.0000 24.1885
#
#
#
# Elastic Compliance Matrix: (Units=1/GPa)
#
#
# Indices 1 2 3 4 5 6 
#
# 1 0.006216 -0.000644 -0.003060 0.000000 0.000000 0.000000
# 2 -0.000644 0.008598 -0.002874 0.000000 0.000000 0.000000
# 3 -0.003060 -0.002874 0.008112 0.000000 0.000000 0.000000
# 4 0.000000 0.000000 0.000000 0.014755 0.000000 0.000000
# 5 0.000000 0.000000 0.000000 0.000000 0.015172 0.000000
# 6 0.000000 0.000000 0.000000 0.000000 0.000000 0.041342
#
#
# Mechanical properties :
#
#
# Convention : Reuss Voigt Hill
#
# Bulk Modulus (GPa) = 102.33479 108.22638 105.28058
# Shear Modulus (GPa) = 45.20483 53.30756 49.25619
#
# Velocity S-wave (km/s) = 3.89707 4.23195 4.06796
# Velocity P-wave (km/s) = 7.39123 7.76140 7.57858
#
# Compressibility (1/GPa) = 0.00977185
#
# Stress axis : x y z
#
# Youngs Moduli (GPa) = 160.87002 116.30245 123.27574
#
# Poissons Ratio (x) = 0.07487 0.37718
# Poissons Ratio (y) = 0.10357 0.35427
# Poissons Ratio (z) = 0.49221 0.33423
#
# Static dielectric constant tensor:
#      x y z
#    x 2.400840 0.000000 0.000000 
#    y 0.000000 2.459550 0.000000 
#    z 0.000000 0.000000 2.337070 
# 
# From -- ./inp_files/23047.got.cif
#   From: 2010.05.17/outbox.cif.g08.bks.cpg/sg73_12_cif.got.tgz:23047.got - 2010.06.03 17:35:07.
