data_PCOD9531045
_publ_section_title
;
Structure prediction by ZEFSAII (Michael W. Deem and Ramdas Pophale) SiO2 
 PCOD9531045
Probable space group: I B C A 
;
_chemical_formula_sum "Si O2"
_cell_formula_units_Z 96
_cell_length_a 9.516913
_cell_length_b 18.447355
_cell_length_c 29.567979
_cell_angle_alpha 90.000000
_cell_angle_beta 90.000000
_cell_angle_gamma 90.000000
_cell_volume 5191.009763
_symmetry_space_group_name_H-M "I B C A "
_symmetry_group_IT_number 73
_symmetry_cell_setting 'orthorhombic'
loop_
_space_group_symop_operation_xyz
x,y,z
-x,1/2-y,z
x,-y,1/2-z
1/2-x,y,-z
-x,-y,-z
x,1/2+y,-z
-x,y,1/2+z
1/2+x,-y,z
1/2+x,1/2+y,1/2+z
1/2-x,-y,1/2+z
1/2+x,1/2-y,-z
-x,1/2+y,1/2-z
1/2-x,1/2-y,1/2-z
1/2+x,y,1/2-z
1/2-x,1/2+y,z
x,1/2-y,1/2+z
loop_
_atom_site_type_symbol
_atom_site_label
_atom_site_fract_x
_atom_site_fract_y
_atom_site_fract_z
Si Si1 0.736049 0.917300 0.368874
Si Si2 0.872559 0.294143 0.693045
Si Si3 0.325430 0.823484 0.953085
Si Si4 0.841949 0.157934 0.454212
Si Si5 0.886739 0.308829 0.794678
Si Si6 0.400528 0.066257 0.133401
O O1 0.794569 0.857497 0.333878
O O2 0.741172 0.877695 0.417217
O O3 0.570652 0.937415 0.366253
O O4 0.829918 0.988250 0.363048
O O5 0.923517 0.323449 0.742160
O O6 0.759336 0.232460 0.703030
O O7 0.000000 0.250000 0.669996
O O8 0.305647 0.739727 0.938066
O O9 0.490117 0.838198 0.962276
O O10 0.250000 0.831690 0.000000
O O11 0.750000 0.142669 0.500000
O O12 0.835227 0.102667 0.412196
O O13 0.874156 0.379656 0.824916
O O14 0.000000 0.250000 0.812922
#
# Coordination Sequence:
#
# PCOD9531045 Si02
#       6
#    16  16  16  16  16  16
#     4  11  24  41  57  89 124 161 199 244 305 367
#     4  10  22  39  64  93 118 151 209 254 296 361
#     4   9  19  38  61  85 116 152 202 251 294 354
#     4   9  19  37  62  87 111 155 203 247 300 355
#     4  10  20  41  66  87 116 160 200 250 304 358
#     4  11  24  39  61  85 125 163 196 244 309 364
#
# _framework density 18.493513
#
# number of rings (size 3 to 8) (size 9 to 14) (size 15 to 20)
#    0.000    2.000    1.667    1.000    4.667    2.667 
#    6.000    5.000    0.000    0.000    0.000    0.000 
#    0.000    0.000    0.000    0.000    0.000    0.000 
#
# Total GULP energy -267463.956306 kJ/mol
# GULP energy per Si atom -5572.165756 kJ/mol
# Density = 1.845142 g / cm^3
# Si number density = 18.493513 Si / 1000 Ang^3
#
#
#
# Elastic Constant Matrix: (Units=GPa)
#
#
# Indices 1 2 3 4 5 6 
#
# 1 66.9818 52.1294 28.8709 0.0000 0.0000 0.0000
# 2 52.1294 126.2394 65.6568 0.0000 0.0000 0.0000
# 3 28.8709 65.6568 60.0295 0.0000 0.0000 0.0000
# 4 0.0000 0.0000 0.0000 -9.9126 0.0000 0.0000
# 5 0.0000 0.0000 0.0000 0.0000 28.7066 0.0000
# 6 0.0000 0.0000 0.0000 0.0000 0.0000 39.2204
#
#
#
# Elastic Compliance Matrix: (Units=1/GPa)
#
#
# Indices 1 2 3 4 5 6 
#
# 1 0.022058 -0.008329 -0.001499 0.000000 0.000000 0.000000
# 2 -0.008329 0.021518 -0.019529 0.000000 0.000000 0.000000
# 3 -0.001499 -0.019529 0.038739 0.000000 0.000000 0.000000
# 4 0.000000 0.000000 0.000000 -0.100882 0.000000 0.000000
# 5 0.000000 0.000000 0.000000 0.000000 0.034835 0.000000
# 6 0.000000 0.000000 0.000000 0.000000 0.000000 0.025497
#
#
# Mechanical properties :
#
#
# Convention : Reuss Voigt Hill
#
# Bulk Modulus (GPa) = 42.37144 60.72943 51.55043
# Shear Modulus (GPa) = 46.14838 18.70912 32.42875
#
# Velocity S-wave (km/s) = 5.00080 3.18411 4.19205
# Velocity P-wave (km/s) = 7.50368 6.81378 7.16704
#
# Compressibility (1/GPa) = 0.02360080
#
# Stress axis : x y z
#
# Youngs Moduli (GPa) = 45.33593 46.47274 25.81359
#
# Poissons Ratio (x) = 0.38707 0.03869
# Poissons Ratio (y) = 0.37760 0.50412
# Poissons Ratio (z) = 0.06794 0.90758
#
# Static dielectric constant tensor:
#      x y z
#    x 1.664640 0.000000 0.000000 
#    y 0.000000 1.661420 0.000000 
#    z 0.000000 0.000000 1.656170 
# 
# From -- ./inp_files/31189.got.cif
#   From: 2010.05.17/outbox.cif.g08.bks.cpg/sg73_16_cif.got.tgz:31189.got - 2010.06.03 17:35:07.
