data_PCOD9531558
_publ_section_title
;
Structure prediction by ZEFSAII (Michael W. Deem and Ramdas Pophale) SiO2 
 PCOD9531558
Probable space group: I B C A 
;
_chemical_formula_sum "Si O2"
_cell_formula_units_Z 120
_cell_length_a 15.491344
_cell_length_b 27.379328
_cell_length_c 12.145748
_cell_angle_alpha 90.000000
_cell_angle_beta 90.000000
_cell_angle_gamma 90.000000
_cell_volume 5151.528996
_symmetry_space_group_name_H-M "I B C A "
_symmetry_group_IT_number 73
_symmetry_cell_setting 'orthorhombic'
loop_
_space_group_symop_operation_xyz
x,y,z
-x,1/2-y,z
x,-y,1/2-z
1/2-x,y,-z
-x,-y,-z
x,1/2+y,-z
-x,y,1/2+z
1/2+x,-y,z
1/2+x,1/2+y,1/2+z
1/2-x,-y,1/2+z
1/2+x,1/2-y,-z
-x,1/2+y,1/2-z
1/2-x,1/2-y,1/2-z
1/2+x,y,1/2-z
1/2-x,1/2+y,z
x,1/2-y,1/2+z
loop_
_atom_site_type_symbol
_atom_site_label
_atom_site_fract_x
_atom_site_fract_y
_atom_site_fract_z
Si Si1 0.563926 0.611662 0.510952
Si Si2 0.250000 0.650841 0.000000
Si Si3 0.521404 0.304353 0.343504
Si Si4 0.290698 0.302893 0.729227
Si Si5 0.787394 0.374684 0.392718
Si Si6 0.455887 0.033734 0.836384
Si Si7 0.036862 0.625801 0.681073
Si Si8 0.229758 0.487115 0.874072
O O1 0.666012 0.618862 0.535575
O O2 0.511041 0.656454 0.566583
O O3 0.522076 0.559816 0.548719
O O4 0.551990 0.614938 0.379822
O O5 0.213698 0.684225 0.099800
O O6 0.500000 0.250000 0.379844
O O7 0.618526 0.306629 0.295668
O O8 0.466078 0.321711 0.237543
O O9 0.250000 0.250000 0.750000
O O10 0.232364 0.344189 0.785592
O O11 0.750000 0.349515 0.500000
O O12 0.888886 0.377831 0.407545
O O13 0.752885 0.429322 0.381110
O O14 0.441279 0.084010 0.768713
O O15 0.508538 0.000000 0.750000
O O16 0.370458 0.002569 0.861377
O O17 0.266234 0.500000 0.750000
O O18 0.250000 0.505789 0.000000
#
# Coordination Sequence:
#
# PCOD9531558 Si02
#       8
#    16   8  16  16  16  16  16  16
#     4  11  25  42  73 100 147 190 242 305 368 448
#     4  12  26  46  70 112 140 196 250 306 372 442
#     4  11  24  47  70 104 143 188 236 299 369 447
#     4  12  26  47  74 110 146 188 249 301 371 449
#     4  11  23  42  71 100 146 191 242 301 366 441
#     4  10  21  41  68  97 139 184 237 300 368 434
#     4  11  21  44  66 100 139 189 232 295 372 432
#     4  10  21  40  68 105 142 195 246 308 374 438
#
# _framework density 23.294053999999999
#
# number of rings (size 3 to 8) (size 9 to 14) (size 15 to 20)
#    0.000    1.067    4.000    4.000    1.867    1.067 
#    4.800    0.000    0.000    0.800    0.000    0.000 
#    0.000    0.000    0.000    0.000    0.000    0.000 
#
# Total GULP energy -334225.559690 kJ/mol
# GULP energy per Si atom -5570.425995 kJ/mol
# Density = 2.324104 g / cm^3
# Si number density = 23.294054 Si / 1000 Ang^3
#
#
#
# Elastic Constant Matrix: (Units=GPa)
#
#
# Indices 1 2 3 4 5 6 
#
# 1 73.2004 -2.3626 13.8553 0.0000 0.0000 0.0000
# 2 -2.3626 113.8625 25.2259 -0.0001 -0.0001 -0.0003
# 3 13.8553 25.2259 112.0435 -0.0002 -0.0004 -0.0011
# 4 0.0000 -0.0001 -0.0002 27.4915 -0.0001 -0.0005
# 5 0.0000 -0.0001 -0.0004 -0.0001 30.9267 0.0000
# 6 0.0000 -0.0003 -0.0011 -0.0005 0.0000 34.8568
#
#
#
# Elastic Compliance Matrix: (Units=1/GPa)
#
#
# Indices 1 2 3 4 5 6 
#
# 1 0.014043 0.000712 -0.001897 0.000000 0.000000 0.000000
# 2 0.000712 0.009280 -0.002177 0.000000 0.000000 0.000000
# 3 -0.001897 -0.002177 0.009650 0.000000 0.000000 0.000000
# 4 0.000000 0.000000 0.000000 0.036375 0.000000 0.000001
# 5 0.000000 0.000000 0.000000 0.000000 0.032335 0.000000
# 6 0.000000 0.000000 0.000000 0.000001 0.000000 0.028689
#
#
# Mechanical properties :
#
#
# Convention : Reuss Voigt Hill
#
# Bulk Modulus (GPa) = 38.09848 41.39375 39.74611
# Shear Modulus (GPa) = 34.28298 36.14751 35.21524
#
# Velocity S-wave (km/s) = 3.84050 3.94355 3.89237
# Velocity P-wave (km/s) = 6.00474 6.20839 6.10741
#
# Compressibility (1/GPa) = 0.02624777
#
# Stress axis : x y z
#
# Youngs Moduli (GPa) = 71.20923 107.76262 103.62846
#
# Poissons Ratio (x) = -0.07669 0.19656
# Poissons Ratio (y) = -0.05067 0.22563
# Poissons Ratio (z) = 0.13507 0.23463
#
# Static dielectric constant tensor:
#      x y z
#    x 1.959230 0.000000 0.000000 
#    y 0.000000 1.835630 0.000000 
#    z 0.000000 0.000000 2.070900 
# 
# From -- ./inp_files/12219.got.cif
#   From: 2010.05.17/outbox.cif.g08.bks.cpg/sg73_7_cif.got.tgz:12219.got - 2010.06.03 17:35:07.
