data_PCOD9531149
_publ_section_title
;
Structure prediction by ZEFSAII (Michael W. Deem and Ramdas Pophale) SiO2 
 PCOD9531149
Probable space group: I B C A 
;
_chemical_formula_sum "Si O2"
_cell_formula_units_Z 80
_cell_length_a 26.851366
_cell_length_b 9.832674
_cell_length_c 14.675721
_cell_angle_alpha 90.000000
_cell_angle_beta 90.000000
_cell_angle_gamma 90.000000
_cell_volume 3874.694547
_symmetry_space_group_name_H-M "I B C A "
_symmetry_group_IT_number 73
_symmetry_cell_setting 'orthorhombic'
loop_
_space_group_symop_operation_xyz
x,y,z
-x,1/2-y,z
x,-y,1/2-z
1/2-x,y,-z
-x,-y,-z
x,1/2+y,-z
-x,y,1/2+z
1/2+x,-y,z
1/2+x,1/2+y,1/2+z
1/2-x,-y,1/2+z
1/2+x,1/2-y,-z
-x,1/2+y,1/2-z
1/2-x,1/2-y,1/2-z
1/2+x,y,1/2-z
1/2-x,1/2+y,z
x,1/2-y,1/2+z
loop_
_atom_site_type_symbol
_atom_site_label
_atom_site_fract_x
_atom_site_fract_y
_atom_site_fract_z
Si Si1 0.197908 0.947613 0.544640
Si Si2 0.592958 0.288342 0.188379
Si Si3 0.666464 0.000000 0.750000
Si Si4 0.956162 0.034065 0.071420
Si Si5 0.636516 0.186435 0.022159
Si Si6 0.000000 0.250000 0.706581
O O1 0.250000 0.907121 0.500000
O O2 0.195310 0.966802 0.655476
O O3 0.156026 0.840430 0.510632
O O4 0.181677 0.091683 0.505450
O O5 0.628707 0.371168 0.257174
O O6 0.568454 0.401735 0.119652
O O7 0.624606 0.184707 0.129061
O O8 0.547454 0.213313 0.233873
O O9 0.982546 0.123565 0.147763
O O10 0.912561 0.128439 0.027872
O O11 0.000000 0.000000 0.000000
#
# Coordination Sequence:
#
# PCOD9531149 Si02
#       6
#    16  16   8  16  16   8
#     4  11  24  45  74 101 130 180 234 292 356 425
#     4  11  21  40  62  94 132 184 220 280 349 406
#     4  10  20  44  68  88 140 176 218 288 358 400
#     4  12  23  39  63  97 137 182 228 281 335 415
#     4  11  22  44  69  96 137 175 228 281 354 413
#     4  12  22  36  62  94 136 180 234 274 332 420
#
# _framework density 20.646789999999999
#
# number of rings (size 3 to 8) (size 9 to 14) (size 15 to 20)
#    0.000    0.800    6.000    3.000    0.000    0.000 
#    0.000   11.000    0.000    0.000    0.000    0.000 
#    0.000    0.000    0.000    0.000    0.000    0.000 
#
# Total GULP energy -223173.131813 kJ/mol
# GULP energy per Si atom -5579.328295 kJ/mol
# Density = 2.059980 g / cm^3
# Si number density = 20.646790 Si / 1000 Ang^3
#
#
#
# Elastic Constant Matrix: (Units=GPa)
#
#
# Indices 1 2 3 4 5 6 
#
# 1 111.8614 16.9620 50.2847 0.0000 0.0000 0.0000
# 2 16.9620 55.0391 27.8085 0.0000 0.0000 0.0000
# 3 50.2847 27.8085 69.9115 0.0000 0.0000 0.0000
# 4 0.0000 0.0000 0.0000 4.6942 0.0000 0.0000
# 5 0.0000 0.0000 0.0000 0.0000 36.6312 0.0000
# 6 0.0000 0.0000 0.0000 0.0000 0.0000 29.3609
#
#
#
# Elastic Compliance Matrix: (Units=1/GPa)
#
#
# Indices 1 2 3 4 5 6 
#
# 1 0.013248 0.000916 -0.009893 0.000000 0.000000 0.000000
# 2 0.000916 0.022802 -0.009729 0.000000 0.000000 0.000000
# 3 -0.009893 -0.009729 0.025289 0.000000 0.000000 0.000000
# 4 0.000000 0.000000 0.000000 0.213028 0.000000 0.000000
# 5 0.000000 0.000000 0.000000 0.000000 0.027299 0.000000
# 6 0.000000 0.000000 0.000000 0.000000 0.000000 0.034059
#
#
# Mechanical properties :
#
#
# Convention : Reuss Voigt Hill
#
# Bulk Modulus (GPa) = 41.79294 47.43582 44.61438
# Shear Modulus (GPa) = 13.11946 23.58772 18.35359
#
# Velocity S-wave (km/s) = 2.52350 3.38367 2.98473
# Velocity P-wave (km/s) = 5.36437 6.18792 5.79081
#
# Compressibility (1/GPa) = 0.02392749
#
# Stress axis : x y z
#
# Youngs Moduli (GPa) = 75.48333 43.85567 39.54263
#
# Poissons Ratio (x) = -0.04016 0.39119
# Poissons Ratio (y) = -0.06912 0.38469
# Poissons Ratio (z) = 0.74676 0.42665
#
# Static dielectric constant tensor:
#      x y z
#    x 1.816710 0.000000 0.000000 
#    y 0.000000 1.734130 0.000000 
#    z 0.000000 0.000000 1.808070 
# 
# From -- ./inp_files/19721.got.cif
#   From: 2010.05.17/outbox.cif.g08.bks.cpg/sg73_10_cif.got.tgz:19721.got - 2010.06.03 17:35:07.
