data_PCOD9531941
_publ_section_title
;
Structure prediction by ZEFSAII (Michael W. Deem and Ramdas Pophale) SiO2 
 PCOD9531941
Probable space group: I B C A 
;
_chemical_formula_sum "Si O2"
_cell_formula_units_Z 112
_cell_length_a 32.178414
_cell_length_b 14.239682
_cell_length_c 11.820174
_cell_angle_alpha 90.000000
_cell_angle_beta 90.000000
_cell_angle_gamma 90.000000
_cell_volume 5416.126451
_symmetry_space_group_name_H-M "I B C A "
_symmetry_group_IT_number 73
_symmetry_cell_setting 'orthorhombic'
loop_
_space_group_symop_operation_xyz
x,y,z
-x,1/2-y,z
x,-y,1/2-z
1/2-x,y,-z
-x,-y,-z
x,1/2+y,-z
-x,y,1/2+z
1/2+x,-y,z
1/2+x,1/2+y,1/2+z
1/2-x,-y,1/2+z
1/2+x,1/2-y,-z
-x,1/2+y,1/2-z
1/2-x,1/2-y,1/2-z
1/2+x,y,1/2-z
1/2-x,1/2+y,z
x,1/2-y,1/2+z
loop_
_atom_site_type_symbol
_atom_site_label
_atom_site_fract_x
_atom_site_fract_y
_atom_site_fract_z
Si Si1 0.349973 0.527458 0.619981
Si Si2 0.839095 0.389539 0.252837
Si Si3 0.558504 0.511868 0.464031
Si Si4 0.201603 0.334063 0.986960
Si Si5 0.009150 0.356773 0.891900
Si Si6 0.796338 0.618161 0.478458
Si Si7 0.429377 0.605715 0.200913
O O1 0.344241 0.500000 0.750000
O O2 0.398323 0.523521 0.587069
O O3 0.326298 0.623845 0.588141
O O4 0.328078 0.450601 0.539510
O O5 0.846418 0.500000 0.250000
O O6 0.819391 0.369584 0.372773
O O7 0.807105 0.370277 0.152876
O O8 0.884779 0.347626 0.228622
O O9 0.530616 0.574006 0.378697
O O10 0.535647 0.420187 0.517959
O O11 0.565450 0.586018 0.567951
O O12 0.250000 0.361347 0.000000
O O13 0.200528 0.222597 0.975087
O O14 0.034408 0.346695 0.774040
O O15 0.000000 0.250000 0.930952
O O16 0.750000 0.582557 0.500000
O O17 0.430236 0.500000 0.250000
#
# Coordination Sequence:
#
# PCOD9531941 Si02
#       7
#    16  16  16  16  16  16  16
#     4  12  26  44  67 100 138 173 227 289 342 398
#     4  11  21  42  72  91 128 186 231 266 329 427
#     4  10  22  43  62  93 136 170 211 275 341 397
#     4  11  26  42  64  99 136 179 225 283 344 402
#     4  10  22  39  66  95 125 167 221 270 324 395
#     4  11  26  43  67 100 134 177 229 281 345 404
#     4   9  18  39  64  85 121 169 219 261 319 399
#
# _framework density 20.678985999999998
#
# number of rings (size 3 to 8) (size 9 to 14) (size 15 to 20)
#    0.000    1.429    2.857    2.143    4.000    6.857 
#    0.000    0.000    0.000    0.000    0.000    0.000 
#    0.000    0.000    0.000    0.000    0.000    0.000 
#
# Total GULP energy -312531.728681 kJ/mol
# GULP energy per Si atom -5580.923726 kJ/mol
# Density = 2.063192 g / cm^3
# Si number density = 20.678986 Si / 1000 Ang^3
#
#
#
# Elastic Constant Matrix: (Units=GPa)
#
#
# Indices 1 2 3 4 5 6 
#
# 1 115.7289 10.9984 6.2061 0.0000 0.0000 0.0000
# 2 10.9984 74.1972 -17.9544 0.0000 0.0000 0.0000
# 3 6.2061 -17.9544 70.2281 0.0000 0.0000 0.0000
# 4 0.0000 0.0000 0.0000 13.3334 0.0000 0.0000
# 5 0.0000 0.0000 0.0000 0.0000 22.8426 0.0000
# 6 0.0000 0.0000 0.0000 0.0000 0.0000 24.2837
#
#
#
# Elastic Compliance Matrix: (Units=1/GPa)
#
#
# Indices 1 2 3 4 5 6 
#
# 1 0.008857 -0.001601 -0.001192 0.000000 0.000000 0.000000
# 2 -0.001601 0.014656 0.003888 0.000000 0.000000 0.000000
# 3 -0.001192 0.003888 0.015339 0.000000 0.000000 0.000000
# 4 0.000000 0.000000 0.000000 0.075000 0.000000 0.000000
# 5 0.000000 0.000000 0.000000 0.000000 0.043778 0.000000
# 6 0.000000 0.000000 0.000000 0.000000 0.000000 0.041180
#
#
# Mechanical properties :
#
#
# Convention : Reuss Voigt Hill
#
# Bulk Modulus (GPa) = 24.36553 28.73938 26.55245
# Shear Modulus (GPa) = 23.77559 29.48554 26.63057
#
# Velocity S-wave (km/s) = 3.39447 3.78017 3.59250
# Velocity P-wave (km/s) = 5.21263 5.74290 5.48418
#
# Compressibility (1/GPa) = 0.04104159
#
# Stress axis : x y z
#
# Youngs Moduli (GPa) = 112.90512 68.23194 65.19425
#
# Poissons Ratio (x) = 0.10926 0.07772
# Poissons Ratio (y) = 0.18080 -0.25350
# Poissons Ratio (z) = 0.13459 -0.26531
#
# Static dielectric constant tensor:
#      x y z
#    x 1.817260 0.000000 0.000000 
#    y 0.000000 1.748690 0.000000 
#    z 0.000000 0.000000 1.747470 
# 
# From -- ./inp_files/14797.got.cif
#   From: 2010.05.17/outbox.cif.g08.bks.cpg/sg73_8_cif.got.tgz:14797.got - 2010.06.03 17:35:07.
