data_PCOD9531629
_publ_section_title
;
Structure prediction by ZEFSAII (Michael W. Deem and Ramdas Pophale) SiO2 
 PCOD9531629
Probable space group: I B C A 
;
_chemical_formula_sum "Si O2"
_cell_formula_units_Z 96
_cell_length_a 17.349790
_cell_length_b 20.989395
_cell_length_c 11.810622
_cell_angle_alpha 90.000000
_cell_angle_beta 90.000000
_cell_angle_gamma 90.000000
_cell_volume 4300.974951
_symmetry_space_group_name_H-M "I B C A "
_symmetry_group_IT_number 73
_symmetry_cell_setting 'orthorhombic'
loop_
_space_group_symop_operation_xyz
x,y,z
-x,1/2-y,z
x,-y,1/2-z
1/2-x,y,-z
-x,-y,-z
x,1/2+y,-z
-x,y,1/2+z
1/2+x,-y,z
1/2+x,1/2+y,1/2+z
1/2-x,-y,1/2+z
1/2+x,1/2-y,-z
-x,1/2+y,1/2-z
1/2-x,1/2-y,1/2-z
1/2+x,y,1/2-z
1/2-x,1/2+y,z
x,1/2-y,1/2+z
loop_
_atom_site_type_symbol
_atom_site_label
_atom_site_fract_x
_atom_site_fract_y
_atom_site_fract_z
Si Si1 0.589930 0.465779 0.399085
Si Si2 0.848799 0.600909 0.699612
Si Si3 0.696277 0.361542 0.892787
Si Si4 0.960267 0.681905 0.344091
Si Si5 0.515044 0.174634 0.600699
Si Si6 0.093709 0.984807 0.375566
O O1 0.621461 0.408327 0.326142
O O2 0.498648 0.474376 0.377864
O O3 0.606933 0.461326 0.531396
O O4 0.630240 0.532094 0.356852
O O5 0.759798 0.618499 0.698506
O O6 0.868224 0.689314 0.360539
O O7 0.898718 0.653557 0.634228
O O8 0.642532 0.423430 0.911451
O O9 0.750000 0.346928 0.000000
O O10 0.992409 0.654778 0.466750
O O11 0.000000 0.750000 0.333584
O O12 0.971482 0.650162 0.217425
O O13 0.500000 0.250000 0.596475
O O14 0.117792 0.000000 0.250000
#
# Coordination Sequence:
#
# PCOD9531629 Si02
#       6
#    16  16  16  16  16  16
#     4  10  22  39  60  94 134 181 226 275 325 418
#     4  11  21  40  63  92 134 175 221 283 337 393
#     4  12  23  39  66  95 135 178 220 275 348 406
#     4  10  22  42  70  97 122 171 231 281 341 420
#     4  10  21  41  69  95 124 173 227 283 337 413
#     4  11  22  37  62  95 133 184 227 263 336 413
#
# _framework density 22.320520999999999
#
# number of rings (size 3 to 8) (size 9 to 14) (size 15 to 20)
#    0.000    1.333    5.000    1.000    2.333    1.333 
#    0.000    3.333    0.000    0.000    0.000    0.000 
#    0.000    0.000    0.000    0.000    0.000    0.000 
#
# Total GULP energy -267493.288627 kJ/mol
# GULP energy per Si atom -5572.776846 kJ/mol
# Density = 2.226972 g / cm^3
# Si number density = 22.320521 Si / 1000 Ang^3
#
#
#
# Elastic Constant Matrix: (Units=GPa)
#
#
# Indices 1 2 3 4 5 6 
#
# 1 143.1398 29.2611 43.0042 0.0000 0.0000 0.0000
# 2 29.2611 55.2075 14.8627 0.0000 0.0000 0.0000
# 3 43.0042 14.8627 200.1785 0.0000 0.0000 0.0000
# 4 0.0000 0.0000 0.0000 24.1004 0.0000 0.0000
# 5 0.0000 0.0000 0.0000 0.0000 26.3921 0.0000
# 6 0.0000 0.0000 0.0000 0.0000 0.0000 38.4892
#
#
#
# Elastic Compliance Matrix: (Units=1/GPa)
#
#
# Indices 1 2 3 4 5 6 
#
# 1 0.008241 -0.003971 -0.001476 0.000000 0.000000 0.000000
# 2 -0.003971 0.020396 -0.000661 0.000000 0.000000 0.000000
# 3 -0.001476 -0.000661 0.005362 0.000000 0.000000 0.000000
# 4 0.000000 0.000000 0.000000 0.041493 0.000000 0.000000
# 5 0.000000 0.000000 0.000000 0.000000 0.037890 0.000000
# 6 0.000000 0.000000 0.000000 0.000000 0.000000 0.025981
#
#
# Mechanical properties :
#
#
# Convention : Reuss Voigt Hill
#
# Bulk Modulus (GPa) = 45.90620 63.64244 54.77432
# Shear Modulus (GPa) = 31.47818 38.55618 35.01718
#
# Velocity S-wave (km/s) = 3.75944 4.16069 3.96515
# Velocity P-wave (km/s) = 6.28140 7.18726 6.74954
#
# Compressibility (1/GPa) = 0.02178355
#
# Stress axis : x y z
#
# Youngs Moduli (GPa) = 121.34114 49.02896 186.50967
#
# Poissons Ratio (x) = 0.19468 0.27522
# Poissons Ratio (y) = 0.48182 0.12334
# Poissons Ratio (z) = 0.17906 0.03242
#
# Static dielectric constant tensor:
#      x y z
#    x 1.811760 0.000000 0.000000 
#    y 0.000000 1.863870 0.000000 
#    z 0.000000 0.000000 1.955660 
# 
# From -- ./inp_files/12114.got.cif
#   From: 2010.05.17/outbox.cif.g08.bks.cpg/sg73_7_cif.got.tgz:12114.got - 2010.06.03 17:35:07.
