data_PCOD9531934
_publ_section_title
;
Structure prediction by ZEFSAII (Michael W. Deem and Ramdas Pophale) SiO2 
 PCOD9531934
Probable space group: I B C A 
;
_chemical_formula_sum "Si O2"
_cell_formula_units_Z 72
_cell_length_a 25.184300
_cell_length_b 15.222732
_cell_length_c 7.157594
_cell_angle_alpha 90.000000
_cell_angle_beta 90.000000
_cell_angle_gamma 90.000000
_cell_volume 2744.034365
_symmetry_space_group_name_H-M "I B C A "
_symmetry_group_IT_number 73
_symmetry_cell_setting 'orthorhombic'
loop_
_space_group_symop_operation_xyz
x,y,z
-x,1/2-y,z
x,-y,1/2-z
1/2-x,y,-z
-x,-y,-z
x,1/2+y,-z
-x,y,1/2+z
1/2+x,-y,z
1/2+x,1/2+y,1/2+z
1/2-x,-y,1/2+z
1/2+x,1/2-y,-z
-x,1/2+y,1/2-z
1/2-x,1/2-y,1/2-z
1/2+x,y,1/2-z
1/2-x,1/2+y,z
x,1/2-y,1/2+z
loop_
_atom_site_type_symbol
_atom_site_label
_atom_site_fract_x
_atom_site_fract_y
_atom_site_fract_z
Si Si1 0.429797 0.395482 0.722203
Si Si2 0.750000 0.094268 0.000000
Si Si3 0.953309 0.397067 0.204545
Si Si4 0.335710 0.132092 0.727867
Si Si5 0.180035 0.829800 0.664503
O O1 0.423479 0.500000 0.750000
O O2 0.486531 0.361148 0.793520
O O3 0.435886 0.383607 0.503775
O O4 0.376086 0.346212 0.768187
O O5 0.804724 0.061637 0.901037
O O6 0.723609 0.130333 0.803341
O O7 0.960730 0.500000 0.250000
O O8 0.899440 0.370513 0.310944
O O9 0.314455 0.225353 0.649140
O O10 0.322756 0.133903 0.951281
#
# Coordination Sequence:
#
# PCOD9531934 Si02
#       5
#    16   8  16  16  16
#     4  10  22  39  65  91 124 159 202 250 310 370
#     4  12  24  40  68  80 136 160 210 244 316 348
#     4  10  22  39  65  91 124 159 202 250 310 370
#     4  11  24  39  63  95 120 163 208 252 301 365
#     4  11  24  39  63  95 120 163 208 252 301 365
#
# _framework density 26.238737
#
# number of rings (size 3 to 8) (size 9 to 14) (size 15 to 20)
#    0.000    1.333    2.222    4.000    6.222    0.889 
#    0.000    5.556    0.000    0.000    0.000    0.000 
#    0.000    0.000    0.000    0.000    0.000    0.000 
#
# Total GULP energy -200718.027799 kJ/mol
# GULP energy per Si atom -5575.500772 kJ/mol
# Density = 2.617902 g / cm^3
# Si number density = 26.238737 Si / 1000 Ang^3
#
#
#
# Elastic Constant Matrix: (Units=GPa)
#
#
# Indices 1 2 3 4 5 6 
#
# 1 197.4553 -2.8984 48.5163 0.0000 0.0000 0.0000
# 2 -2.8984 46.7040 12.0547 0.0000 0.0000 0.0000
# 3 48.5163 12.0547 104.4410 0.0000 0.0000 0.0000
# 4 0.0000 0.0000 0.0000 23.0976 0.0000 0.0000
# 5 0.0000 0.0000 0.0000 0.0000 72.2021 0.0000
# 6 0.0000 0.0000 0.0000 0.0000 0.0000 41.9563
#
#
#
# Elastic Compliance Matrix: (Units=1/GPa)
#
#
# Indices 1 2 3 4 5 6 
#
# 1 0.005770 0.001082 -0.002805 0.000000 0.000000 0.000000
# 2 0.001082 0.022272 -0.003073 0.000000 0.000000 0.000000
# 3 -0.002805 -0.003073 0.011233 0.000000 0.000000 0.000000
# 4 0.000000 0.000000 0.000000 0.043295 0.000000 0.000000
# 5 0.000000 0.000000 0.000000 0.000000 0.013850 0.000000
# 6 0.000000 0.000000 0.000000 0.000000 0.000000 0.023834
#
#
# Mechanical properties :
#
#
# Convention : Reuss Voigt Hill
#
# Bulk Modulus (GPa) = 33.69119 51.54952 42.62036
# Shear Modulus (GPa) = 35.78095 46.84637 41.31366
#
# Velocity S-wave (km/s) = 3.69679 4.22997 3.97234
# Velocity P-wave (km/s) = 5.57583 6.59893 6.10883
#
# Compressibility (1/GPa) = 0.02968135
#
# Stress axis : x y z
#
# Youngs Moduli (GPa) = 173.32408 44.89980 89.02708
#
# Poissons Ratio (x) = -0.04858 0.24972
# Poissons Ratio (y) = -0.18755 0.27361
# Poissons Ratio (z) = 0.48618 0.13799
#
# Static dielectric constant tensor:
#      x y z
#    x 2.394520 0.000000 0.000000 
#    y 0.000000 2.053660 0.000000 
#    z 0.000000 0.000000 2.045130 
# 
# From -- ./inp_files/6988.got.cif
#   From: 2010.05.17/outbox.cif.g08.bks.cpg/sg73_4_cif.got.tgz:6988.got - 2010.06.03 17:35:07.
