data_PCOD9531664
_publ_section_title
;
Structure prediction by ZEFSAII (Michael W. Deem and Ramdas Pophale) SiO2 
 PCOD9531664
Probable space group: I B C A 
;
_chemical_formula_sum "Si O2"
_cell_formula_units_Z 80
_cell_length_a 19.602132
_cell_length_b 13.897344
_cell_length_c 12.630514
_cell_angle_alpha 90.000000
_cell_angle_beta 90.000000
_cell_angle_gamma 90.000000
_cell_volume 3440.773951
_symmetry_space_group_name_H-M "I B C A "
_symmetry_group_IT_number 73
_symmetry_cell_setting 'orthorhombic'
loop_
_space_group_symop_operation_xyz
x,y,z
-x,1/2-y,z
x,-y,1/2-z
1/2-x,y,-z
-x,-y,-z
x,1/2+y,-z
-x,y,1/2+z
1/2+x,-y,z
1/2+x,1/2+y,1/2+z
1/2-x,-y,1/2+z
1/2+x,1/2-y,-z
-x,1/2+y,1/2-z
1/2-x,1/2-y,1/2-z
1/2+x,y,1/2-z
1/2-x,1/2+y,z
x,1/2-y,1/2+z
loop_
_atom_site_type_symbol
_atom_site_label
_atom_site_fract_x
_atom_site_fract_y
_atom_site_fract_z
Si Si1 0.600160 0.564817 0.920311
Si Si2 0.295694 0.277624 0.399011
Si Si3 0.573352 0.774346 0.973569
Si Si4 0.262269 0.408908 0.197699
Si Si5 0.947929 0.976764 0.131592
O O1 0.672412 0.545768 0.864872
O O2 0.531030 0.513812 0.877806
O O3 0.593992 0.679991 0.908253
O O4 0.592047 0.539829 0.044569
O O5 0.250000 0.308065 0.500000
O O6 0.372539 0.290734 0.435708
O O7 0.283055 0.340672 0.295755
O O8 0.278042 0.165713 0.376258
O O9 0.500000 0.750000 0.020793
O O10 0.567832 0.867065 0.900166
O O11 0.225016 0.500000 0.250000
O O12 0.929279 0.000000 0.250000
#
# Coordination Sequence:
#
# PCOD9531664 Si02
#       5
#    16  16  16  16  16
#     4  10  21  42  68 105 145 188 238 301 362 436
#     4  11  24  47  71 102 146 184 253 300 353 460
#     4  10  22  43  70 102 143 188 231 300 371 422
#     4  11  24  44  74 102 142 196 238 298 377 418
#     4  10  22  41  70 108 145 185 248 295 360 443
#
# _framework density 23.250584
#
# number of rings (size 3 to 8) (size 9 to 14) (size 15 to 20)
#    0.000    1.600    2.000    1.800    0.000    5.600 
#    3.600   10.000    0.000    1.200    0.000    0.000 
#    0.000    0.000    0.000    0.000    0.000    0.000 
#
# Total GULP energy -223712.292654 kJ/mol
# GULP energy per Si atom -5592.807316 kJ/mol
# Density = 2.319766 g / cm^3
# Si number density = 23.250584 Si / 1000 Ang^3
#
#
#
# Elastic Constant Matrix: (Units=GPa)
#
#
# Indices 1 2 3 4 5 6 
#
# 1 70.5136 37.9909 67.2381 0.0000 0.0000 0.0000
# 2 37.9909 104.3541 41.5997 0.0000 0.0000 0.0000
# 3 67.2381 41.5997 163.9859 0.0000 0.0000 0.0000
# 4 0.0000 0.0000 0.0000 21.7988 0.0000 0.0000
# 5 0.0000 0.0000 0.0000 0.0000 4.3054 0.0000
# 6 0.0000 0.0000 0.0000 0.0000 0.0000 16.8556
#
#
#
# Elastic Compliance Matrix: (Units=1/GPa)
#
#
# Indices 1 2 3 4 5 6 
#
# 1 0.026128 -0.005831 -0.009234 0.000000 0.000000 0.000000
# 2 -0.005831 0.011962 -0.000644 0.000000 0.000000 0.000000
# 3 -0.009234 -0.000644 0.010048 0.000000 0.000000 0.000000
# 4 0.000000 0.000000 0.000000 0.045874 0.000000 0.000000
# 5 0.000000 0.000000 0.000000 0.000000 0.232265 0.000000
# 6 0.000000 0.000000 0.000000 0.000000 0.000000 0.059327
#
#
# Mechanical properties :
#
#
# Convention : Reuss Voigt Hill
#
# Bulk Modulus (GPa) = 59.80686 70.27900 65.04293
# Shear Modulus (GPa) = 11.83164 21.39364 16.61264
#
# Velocity S-wave (km/s) = 2.25827 3.03666 2.67592
# Velocity P-wave (km/s) = 5.70774 6.52591 6.13049
#
# Compressibility (1/GPa) = 0.01672049
#
# Stress axis : x y z
#
# Youngs Moduli (GPa) = 38.27241 83.59653 99.52682
#
# Poissons Ratio (x) = 0.48747 0.91904
# Poissons Ratio (y) = 0.22317 0.06406
# Poissons Ratio (z) = 0.35341 0.05381
#
# Static dielectric constant tensor:
#      x y z
#    x 1.929630 0.000000 0.000000 
#    y 0.000000 1.901980 0.000000 
#    z 0.000000 0.000000 1.887350 
# 
# From -- ./inp_files/13401.got.cif
#   From: 2010.05.17/outbox.cif.g08.bks.cpg/sg73_7_cif.got.tgz:13401.got - 2010.06.03 17:35:07.
