data_PCOD9531722
_publ_section_title
;
Structure prediction by ZEFSAII (Michael W. Deem and Ramdas Pophale) SiO2 
 PCOD9531722
Probable space group: I B C A 
;
_chemical_formula_sum "Si O2"
_cell_formula_units_Z 96
_cell_length_a 18.052287
_cell_length_b 10.364749
_cell_length_c 26.365803
_cell_angle_alpha 90.000000
_cell_angle_beta 90.000000
_cell_angle_gamma 90.000000
_cell_volume 4933.237471
_symmetry_space_group_name_H-M "I B C A "
_symmetry_group_IT_number 73
_symmetry_cell_setting 'orthorhombic'
loop_
_space_group_symop_operation_xyz
x,y,z
-x,1/2-y,z
x,-y,1/2-z
1/2-x,y,-z
-x,-y,-z
x,1/2+y,-z
-x,y,1/2+z
1/2+x,-y,z
1/2+x,1/2+y,1/2+z
1/2-x,-y,1/2+z
1/2+x,1/2-y,-z
-x,1/2+y,1/2-z
1/2-x,1/2-y,1/2-z
1/2+x,y,1/2-z
1/2-x,1/2+y,z
x,1/2-y,1/2+z
loop_
_atom_site_type_symbol
_atom_site_label
_atom_site_fract_x
_atom_site_fract_y
_atom_site_fract_z
Si Si1 0.051444 0.877102 0.508706
Si Si2 0.210040 0.632206 0.277260
Si Si3 0.226891 0.139485 0.389055
Si Si4 0.701809 0.374920 0.949442
Si Si5 0.946777 0.371759 0.770514
Si Si6 0.418154 0.811497 0.381128
O O1 0.116756 0.870098 0.467635
O O2 0.087230 0.884780 0.565261
O O3 0.000000 0.750000 0.506343
O O4 0.000000 0.000000 0.500000
O O5 0.233142 0.500000 0.250000
O O6 0.250000 0.750000 0.250000
O O7 0.232171 0.627072 0.335588
O O8 0.123033 0.647942 0.266175
O O9 0.272204 0.242458 0.422947
O O10 0.146120 0.204459 0.380600
O O11 0.216668 0.000063 0.414680
O O12 0.750000 0.390649 0.000000
O O13 0.986073 0.500000 0.750000
O O14 0.915742 0.387791 0.828001
O O15 0.000000 0.250000 0.769966
O O16 0.500000 0.750000 0.381935
#
# Coordination Sequence:
#
# PCOD9531722 Si02
#       6
#    16  16  16  16  16  16
#     4  11  25  46  69 100 138 181 229 281 342 412
#     4  11  23  43  68  97 133 172 227 282 342 404
#     4  12  25  44  68 102 134 184 228 285 348 406
#     4  12  26  42  71 100 140 181 230 282 341 416
#     4  10  23  44  67  97 133 176 224 285 339 407
#     4  10  21  43  69  93 133 181 221 275 350 404
#
# _framework density 19.459837
#
# number of rings (size 3 to 8) (size 9 to 14) (size 15 to 20)
#    0.000    1.000    3.333    3.500    4.667    0.667 
#    9.000    0.000    0.000    0.000    0.000    0.000 
#    0.000    0.000    0.000    0.000    0.000    0.000 
#
# Total GULP energy -268246.362752 kJ/mol
# GULP energy per Si atom -5588.465891 kJ/mol
# Density = 1.941555 g / cm^3
# Si number density = 19.459837 Si / 1000 Ang^3
#
#
#
# Elastic Constant Matrix: (Units=GPa)
#
#
# Indices 1 2 3 4 5 6 
#
# 1 102.7813 42.6104 51.2198 0.0000 0.0000 0.0000
# 2 42.6104 137.2402 58.5099 0.0000 0.0000 0.0000
# 3 51.2198 58.5099 159.0926 0.0000 0.0000 0.0000
# 4 0.0000 0.0000 0.0000 41.3203 0.0000 0.0000
# 5 0.0000 0.0000 0.0000 0.0000 36.2277 0.0000
# 6 0.0000 0.0000 0.0000 0.0000 0.0000 35.0819
#
#
#
# Elastic Compliance Matrix: (Units=1/GPa)
#
#
# Indices 1 2 3 4 5 6 
#
# 1 0.012284 -0.002524 -0.003027 0.000000 0.000000 0.000000
# 2 -0.002524 0.009160 -0.002556 0.000000 0.000000 0.000000
# 3 -0.003027 -0.002556 0.008200 0.000000 0.000000 0.000000
# 4 0.000000 0.000000 0.000000 0.024201 0.000000 0.000000
# 5 0.000000 0.000000 0.000000 0.000000 0.027603 0.000000
# 6 0.000000 0.000000 0.000000 0.000000 0.000000 0.028505
#
#
# Mechanical properties :
#
#
# Convention : Reuss Voigt Hill
#
# Bulk Modulus (GPa) = 74.45512 78.19937 76.32725
# Shear Modulus (GPa) = 38.27221 38.97757 38.62489
#
# Velocity S-wave (km/s) = 4.43959 4.48032 4.46000
# Velocity P-wave (km/s) = 8.03890 8.18759 8.11358
#
# Compressibility (1/GPa) = 0.01343091
#
# Stress axis : x y z
#
# Youngs Moduli (GPa) = 81.40729 109.17232 121.94778
#
# Poissons Ratio (x) = 0.27550 0.36910
# Poissons Ratio (y) = 0.20543 0.31173
# Poissons Ratio (z) = 0.24640 0.27908
#
# Static dielectric constant tensor:
#      x y z
#    x 1.684770 0.000000 0.000000 
#    y 0.000000 1.686070 0.000000 
#    z 0.000000 0.000000 1.692240 
# 
# From -- ./inp_files/27511.got.cif
#   From: 2010.05.17/outbox.cif.g08.bks.cpg/sg73_14_cif.got.tgz:27511.got - 2010.06.03 17:35:07.
