data_PCOD9531975
_publ_section_title
;
Structure prediction by ZEFSAII (Michael W. Deem and Ramdas Pophale) SiO2 
 PCOD9531975
Probable space group: I B C A 
;
_chemical_formula_sum "Si O2"
_cell_formula_units_Z 88
_cell_length_a 17.498168
_cell_length_b 12.968585
_cell_length_c 18.523830
_cell_angle_alpha 90.000000
_cell_angle_beta 90.000000
_cell_angle_gamma 90.000000
_cell_volume 4203.547520
_symmetry_space_group_name_H-M "I B C A "
_symmetry_group_IT_number 73
_symmetry_cell_setting 'orthorhombic'
loop_
_space_group_symop_operation_xyz
x,y,z
-x,1/2-y,z
x,-y,1/2-z
1/2-x,y,-z
-x,-y,-z
x,1/2+y,-z
-x,y,1/2+z
1/2+x,-y,z
1/2+x,1/2+y,1/2+z
1/2-x,-y,1/2+z
1/2+x,1/2-y,-z
-x,1/2+y,1/2-z
1/2-x,1/2-y,1/2-z
1/2+x,y,1/2-z
1/2-x,1/2+y,z
x,1/2-y,1/2+z
loop_
_atom_site_type_symbol
_atom_site_label
_atom_site_fract_x
_atom_site_fract_y
_atom_site_fract_z
Si Si1 0.548830 0.054476 0.619691
Si Si2 0.147723 0.000000 0.750000
Si Si3 0.254179 0.176465 0.321088
Si Si4 0.107185 0.338717 0.090909
Si Si5 0.500000 0.750000 0.470455
Si Si6 0.500000 0.250000 0.784478
Si Si7 0.097922 0.585506 0.693364
O O1 0.537054 0.159625 0.577111
O O2 0.461266 0.027561 0.640847
O O3 0.595108 0.063471 0.694606
O O4 0.593415 0.961686 0.580589
O O5 0.201138 0.075828 0.706133
O O6 0.250000 0.250000 0.250000
O O7 0.309049 0.205200 0.388279
O O8 0.169021 0.143298 0.342304
O O9 0.056696 0.311003 0.161928
O O10 0.067401 0.288639 0.022429
O O11 0.549316 0.328068 0.736111
O O12 0.126446 0.500000 0.750000
#
# Coordination Sequence:
#
# PCOD9531975 Si02
#       7
#    16   8  16  16   8   8  16
#     4  11  22  39  65  93 125 164 227 272 325 382
#     4  10  22  40  62 100 130 156 204 296 332 380
#     4  11  22  36  63  95 135 163 206 274 350 380
#     4  10  22  42  59  89 132 176 217 271 320 402
#     4  11  25  40  68  88 123 191 226 254 326 419
#     4  11  19  36  62  92 133 165 210 270 338 373
#     4  12  21  36  64 102 127 164 211 278 337 391
#
# _framework density 20.934699999999999
#
# number of rings (size 3 to 8) (size 9 to 14) (size 15 to 20)
#    0.000    1.091    5.455    2.182    2.545    0.000 
#    0.000    0.909    0.000    0.000    0.000    0.000 
#    0.000    0.000    0.000    0.000    0.000    0.000 
#
# Total GULP energy -245627.402867 kJ/mol
# GULP energy per Si atom -5582.440974 kJ/mol
# Density = 2.088705 g / cm^3
# Si number density = 20.934700 Si / 1000 Ang^3
#
#
#
# Elastic Constant Matrix: (Units=GPa)
#
#
# Indices 1 2 3 4 5 6 
#
# 1 123.2140 25.8883 29.0899 0.0000 0.0000 0.0000
# 2 25.8883 81.5999 34.3529 0.0000 0.0000 0.0000
# 3 29.0899 34.3529 78.7167 0.0000 0.0000 0.0000
# 4 0.0000 0.0000 0.0000 33.0686 0.0000 0.0000
# 5 0.0000 0.0000 0.0000 0.0000 14.0743 0.0000
# 6 0.0000 0.0000 0.0000 0.0000 0.0000 25.5211
#
#
#
# Elastic Compliance Matrix: (Units=1/GPa)
#
#
# Indices 1 2 3 4 5 6 
#
# 1 0.009103 -0.001803 -0.002577 0.000000 0.000000 0.000000
# 2 -0.001803 0.015370 -0.006041 0.000000 0.000000 0.000000
# 3 -0.002577 -0.006041 0.016293 0.000000 0.000000 0.000000
# 4 0.000000 0.000000 0.000000 0.030240 0.000000 0.000000
# 5 0.000000 0.000000 0.000000 0.000000 0.071052 0.000000
# 6 0.000000 0.000000 0.000000 0.000000 0.000000 0.039183
#
#
# Mechanical properties :
#
#
# Convention : Reuss Voigt Hill
#
# Bulk Modulus (GPa) = 50.19372 51.35474 50.77423
# Shear Modulus (GPa) = 23.95484 27.47942 25.71713
#
# Velocity S-wave (km/s) = 3.38637 3.62695 3.50872
# Velocity P-wave (km/s) = 6.27044 6.49029 6.38131
#
# Compressibility (1/GPa) = 0.01992281
#
# Stress axis : x y z
#
# Youngs Moduli (GPa) = 109.85066 65.06020 61.37685
#
# Poissons Ratio (x) = 0.11731 0.15818
# Poissons Ratio (y) = 0.19807 0.37081
# Poissons Ratio (z) = 0.28311 0.39306
#
# Static dielectric constant tensor:
#      x y z
#    x 1.792290 0.000000 0.000000 
#    y 0.000000 1.797840 0.000000 
#    z 0.000000 0.000000 1.784460 
# 
# From -- ./inp_files/12764.got.cif
#   From: 2010.05.17/outbox.cif.g08.bks.cpg/sg73_7_cif.got.tgz:12764.got - 2010.06.03 17:35:07.
