data_PCOD9531998
_publ_section_title
;
Structure prediction by ZEFSAII (Michael W. Deem and Ramdas Pophale) SiO2 
 PCOD9531998
Probable space group: I B C A 
;
_chemical_formula_sum "Si O2"
_cell_formula_units_Z 80
_cell_length_a 27.605759
_cell_length_b 9.104708
_cell_length_c 15.316903
_cell_angle_alpha 90.000000
_cell_angle_beta 90.000000
_cell_angle_gamma 90.000000
_cell_volume 3849.786775
_symmetry_space_group_name_H-M "I B C A "
_symmetry_group_IT_number 73
_symmetry_cell_setting 'orthorhombic'
loop_
_space_group_symop_operation_xyz
x,y,z
-x,1/2-y,z
x,-y,1/2-z
1/2-x,y,-z
-x,-y,-z
x,1/2+y,-z
-x,y,1/2+z
1/2+x,-y,z
1/2+x,1/2+y,1/2+z
1/2-x,-y,1/2+z
1/2+x,1/2-y,-z
-x,1/2+y,1/2-z
1/2-x,1/2-y,1/2-z
1/2+x,y,1/2-z
1/2-x,1/2+y,z
x,1/2-y,1/2+z
loop_
_atom_site_type_symbol
_atom_site_label
_atom_site_fract_x
_atom_site_fract_y
_atom_site_fract_z
Si Si1 0.893396 0.440717 0.541778
Si Si2 0.217759 0.784110 0.666460
Si Si3 0.216896 0.429703 0.071470
Si Si4 0.891787 0.733936 0.123155
Si Si5 0.048769 0.662570 0.289253
O O1 0.837039 0.394131 0.542872
O O2 0.909137 0.392537 0.444239
O O3 0.895092 0.613673 0.566705
O O4 0.920833 0.359963 0.621463
O O5 0.250000 0.750000 0.750000
O O6 0.212019 0.043355 0.849224
O O7 0.251339 0.708767 0.595043
O O8 0.163837 0.717903 0.656481
O O9 0.250000 0.508239 0.000000
O O10 0.922778 0.754332 0.211138
O O11 0.039107 0.500000 0.250000
O O12 0.000000 0.750000 0.308311
#
# Coordination Sequence:
#
# PCOD9531998 Si02
#       5
#    16  16  16  16  16
#     4  10  22  40  64  89 126 165 205 257 314 365
#     4  11  22  36  57  87 124 165 205 251 300 362
#     4  11  21  36  58  87 124 163 204 245 299 363
#     4  10  22  41  62  91 124 163 207 259 313 372
#     4  10  23  44  66  90 122 161 207 263 321 375
#
# _framework density 20.780370999999999
#
# number of rings (size 3 to 8) (size 9 to 14) (size 15 to 20)
#    0.000    1.600    2.000    2.400    2.800    5.600 
#    0.000    6.000    0.000    0.000    0.000    0.000 
#    0.000    0.000    0.000    0.000    0.000    0.000 
#
# Total GULP energy -223090.030328 kJ/mol
# GULP energy per Si atom -5577.250758 kJ/mol
# Density = 2.073307 g / cm^3
# Si number density = 20.780371 Si / 1000 Ang^3
#
#
#
# Elastic Constant Matrix: (Units=GPa)
#
#
# Indices 1 2 3 4 5 6 
#
# 1 82.5919 10.8125 24.4285 0.0000 0.0000 0.0000
# 2 10.8125 23.7999 10.9941 0.0000 0.0000 0.0000
# 3 24.4285 10.9941 103.3510 0.0000 0.0000 0.0000
# 4 0.0000 0.0000 0.0000 32.5993 0.0000 0.0000
# 5 0.0000 0.0000 0.0000 0.0000 20.5832 0.0000
# 6 0.0000 0.0000 0.0000 0.0000 0.0000 -14.5170
#
#
#
# Elastic Compliance Matrix: (Units=1/GPa)
#
#
# Indices 1 2 3 4 5 6 
#
# 1 0.013543 -0.004916 -0.002678 0.000000 0.000000 0.000000
# 2 -0.004916 0.045973 -0.003729 0.000000 0.000000 0.000000
# 3 -0.002678 -0.003729 0.010705 0.000000 0.000000 0.000000
# 4 0.000000 0.000000 0.000000 0.030675 0.000000 0.000000
# 5 0.000000 0.000000 0.000000 0.000000 0.048583 0.000000
# 6 0.000000 0.000000 0.000000 0.000000 0.000000 -0.068885
#
#
# Mechanical properties :
#
#
# Convention : Reuss Voigt Hill
#
# Bulk Modulus (GPa) = 21.01877 33.57921 27.29899
# Shear Modulus (GPa) = 41.98179 18.63361 30.30770
#
# Velocity S-wave (km/s) = 4.49961 2.99773 3.82314
# Velocity P-wave (km/s) = 6.09360 5.30811 5.71437
#
# Compressibility (1/GPa) = 0.04757653
#
# Stress axis : x y z
#
# Youngs Moduli (GPa) = 73.83660 21.75209 93.41045
#
# Poissons Ratio (x) = 0.10693 0.25018
# Poissons Ratio (y) = 0.36296 0.34828
# Poissons Ratio (z) = 0.19775 0.08110
#
# Static dielectric constant tensor:
#      x y z
#    x 1.670770 0.000000 0.000000 
#    y 0.000000 1.967750 0.000000 
#    z 0.000000 0.000000 1.658820 
# 
# From -- ./inp_files/19710.got.cif
#   From: 2010.05.17/outbox.cif.g08.bks.cpg/sg73_10_cif.got.tgz:19710.got - 2010.06.03 17:35:07.
