data_PCOD9531449
_publ_section_title
;
Structure prediction by ZEFSAII (Michael W. Deem and Ramdas Pophale) SiO2 
 PCOD9531449
Probable space group: I B C A 
;
_chemical_formula_sum "Si O2"
_cell_formula_units_Z 96
_cell_length_a 12.965621
_cell_length_b 18.575221
_cell_length_c 17.116148
_cell_angle_alpha 90.000000
_cell_angle_beta 90.000000
_cell_angle_gamma 90.000000
_cell_volume 4122.240683
_symmetry_space_group_name_H-M "I B C A "
_symmetry_group_IT_number 73
_symmetry_cell_setting 'orthorhombic'
loop_
_space_group_symop_operation_xyz
x,y,z
-x,1/2-y,z
x,-y,1/2-z
1/2-x,y,-z
-x,-y,-z
x,1/2+y,-z
-x,y,1/2+z
1/2+x,-y,z
1/2+x,1/2+y,1/2+z
1/2-x,-y,1/2+z
1/2+x,1/2-y,-z
-x,1/2+y,1/2-z
1/2-x,1/2-y,1/2-z
1/2+x,y,1/2-z
1/2-x,1/2+y,z
x,1/2-y,1/2+z
loop_
_atom_site_type_symbol
_atom_site_label
_atom_site_fract_x
_atom_site_fract_y
_atom_site_fract_z
Si Si1 0.347233 0.486137 0.841028
Si Si2 0.121238 0.738538 0.150917
Si Si3 0.071095 0.687641 0.806219
Si Si4 0.052851 0.559694 0.691649
Si Si5 0.268909 0.370055 0.090117
Si Si6 0.247177 0.882414 0.408094
O O1 0.328060 0.500000 0.750000
O O2 0.461360 0.517851 0.851870
O O3 0.327965 0.403625 0.863771
O O4 0.268374 0.534056 0.891184
O O5 0.131035 0.765914 0.239820
O O6 0.201361 0.787145 0.102016
O O7 0.158572 0.658623 0.134576
O O8 0.000000 0.750000 0.129705
O O9 0.021183 0.625290 0.750492
O O10 0.144544 0.647732 0.866965
O O11 0.000000 0.750000 0.842957
O O12 0.099386 0.500000 0.750000
O O13 0.132887 0.591916 0.630801
O O14 0.250000 0.384964 0.000000
O O15 0.250000 0.868975 0.500000
#
# Coordination Sequence:
#
# PCOD9531449 Si02
#       6
#    16  16  16  16  16  16
#     4  11  23  41  65  90 124 171 220 268 319 384
#     4  10  22  43  67  92 130 174 221 268 314 382
#     4  10  21  39  64  90 123 168 219 264 314 389
#     4  10  22  41  63  90 123 165 217 269 320 381
#     4  11  22  39  64  97 134 171 211 264 331 392
#     4  12  24  39  63  96 132 168 209 270 337 387
#
# _framework density 23.288305999999999
#
# number of rings (size 3 to 8) (size 9 to 14) (size 15 to 20)
#    0.000    1.333    0.000    8.000    0.000    4.000 
#    0.000    8.333    0.000    0.000    0.000    0.000 
#    0.000    0.000    0.000    0.000    0.000    0.000 
#
# Total GULP energy -268283.738974 kJ/mol
# GULP energy per Si atom -5589.244562 kJ/mol
# Density = 2.323530 g / cm^3
# Si number density = 23.288306 Si / 1000 Ang^3
#
#
#
# Elastic Constant Matrix: (Units=GPa)
#
#
# Indices 1 2 3 4 5 6 
#
# 1 84.9499 15.5676 7.9784 0.0000 0.0000 0.0000
# 2 15.5676 84.9848 2.9190 0.0000 0.0000 0.0000
# 3 7.9784 2.9190 116.9500 0.0000 0.0000 0.0000
# 4 0.0000 0.0000 0.0000 31.9496 0.0000 0.0000
# 5 0.0000 0.0000 0.0000 0.0000 -12.2817 0.0000
# 6 0.0000 0.0000 0.0000 0.0000 0.0000 50.6651
#
#
#
# Elastic Compliance Matrix: (Units=1/GPa)
#
#
# Indices 1 2 3 4 5 6 
#
# 1 0.012251 -0.002217 -0.000780 0.000000 0.000000 0.000000
# 2 -0.002217 0.012178 -0.000153 0.000000 0.000000 0.000000
# 3 -0.000780 -0.000153 0.008608 0.000000 0.000000 0.000000
# 4 0.000000 0.000000 0.000000 0.031299 0.000000 0.000000
# 5 0.000000 0.000000 0.000000 0.000000 -0.081422 0.000000
# 6 0.000000 0.000000 0.000000 0.000000 0.000000 0.019737
#
#
# Mechanical properties :
#
#
# Convention : Reuss Voigt Hill
#
# Bulk Modulus (GPa) = 37.40250 37.75719 37.57984
# Shear Modulus (GPa) = 279.87378 31.42792 155.65085
#
# Velocity S-wave (km/s) = 10.97446 3.67756 8.18423
# Velocity P-wave (km/s) = 13.29212 5.85497 10.27037
#
# Compressibility (1/GPa) = 0.02673618
#
# Stress axis : x y z
#
# Youngs Moduli (GPa) = 81.62399 82.11367 116.17479
#
# Poissons Ratio (x) = 0.18208 0.09067
# Poissons Ratio (y) = 0.18099 0.01774
# Poissons Ratio (z) = 0.06370 0.01254
#
# Static dielectric constant tensor:
#      x y z
#    x 1.946430 0.000000 0.000000 
#    y 0.000000 1.941680 0.000000 
#    z 0.000000 0.000000 1.798700 
# 
# From -- ./inp_files/17041.got.cif
#   From: 2010.05.17/outbox.cif.g08.bks.cpg/sg73_9_cif.got.tgz:17041.got - 2010.06.03 17:35:07.
