data_PCOD9531820
_publ_section_title
;
Structure prediction by ZEFSAII (Michael W. Deem and Ramdas Pophale) SiO2 
 PCOD9531820
Probable space group: I B C A 
;
_chemical_formula_sum "Si O2"
_cell_formula_units_Z 104
_cell_length_a 24.378597
_cell_length_b 19.964168
_cell_length_c 10.320166
_cell_angle_alpha 90.000000
_cell_angle_beta 90.000000
_cell_angle_gamma 90.000000
_cell_volume 5022.808343
_symmetry_space_group_name_H-M "I B C A "
_symmetry_group_IT_number 73
_symmetry_cell_setting 'orthorhombic'
loop_
_space_group_symop_operation_xyz
x,y,z
-x,1/2-y,z
x,-y,1/2-z
1/2-x,y,-z
-x,-y,-z
x,1/2+y,-z
-x,y,1/2+z
1/2+x,-y,z
1/2+x,1/2+y,1/2+z
1/2-x,-y,1/2+z
1/2+x,1/2-y,-z
-x,1/2+y,1/2-z
1/2-x,1/2-y,1/2-z
1/2+x,y,1/2-z
1/2-x,1/2+y,z
x,1/2-y,1/2+z
loop_
_atom_site_type_symbol
_atom_site_label
_atom_site_fract_x
_atom_site_fract_y
_atom_site_fract_z
Si Si1 0.000000 0.250000 0.372210
Si Si2 0.570331 0.148697 0.499430
Si Si3 0.868101 0.607160 0.054471
Si Si4 0.385246 0.720904 0.233513
Si Si5 0.750000 0.454495 0.500000
Si Si6 0.545272 0.490761 0.890940
Si Si7 0.870201 0.132686 0.233972
Si Si8 0.296363 0.500000 0.750000
O O1 0.014771 0.312158 0.464974
O O2 0.052917 0.237905 0.283185
O O3 0.609506 0.197534 0.415737
O O4 0.591640 0.125668 0.639873
O O5 0.564718 0.084874 0.408781
O O6 0.868157 0.663066 0.166234
O O7 0.804861 0.587672 0.027606
O O8 0.904715 0.543121 0.095138
O O9 0.892217 0.629409 0.913862
O O10 0.350820 0.789720 0.245029
O O11 0.739822 0.500327 0.376906
O O12 0.519802 0.500000 0.750000
O O13 0.500000 0.500000 0.000000
O O14 0.831020 0.068368 0.245154
#
# Coordination Sequence:
#
# PCOD9531820 Si02
#       8
#     8  16  16  16   8  16  16   8
#     4  10  22  36  60  94 134 176 228 274 334 394
#     4  11  22  38  62  93 128 181 220 270 328 401
#     4  11  24  46  66  99 136 175 226 282 339 409
#     4  11  22  40  64  96 134 176 228 272 333 408
#     4  10  24  42  74  94 134 172 228 286 344 396
#     4  12  27  42  66  97 137 179 221 282 338 405
#     4  10  22  40  66  91 130 174 213 275 334 395
#     4  10  22  44  66 100 120 168 220 280 340 404
#
# _framework density 20.705546999999999
#
# number of rings (size 3 to 8) (size 9 to 14) (size 15 to 20)
#    0.000    1.231    1.538    5.077    3.231    3.692 
#    0.000    3.846    0.000    0.000    0.000    0.000 
#    0.000    0.000    0.000    0.000    0.000    0.000 
#
# Total GULP energy -290125.173335 kJ/mol
# GULP energy per Si atom -5579.330256 kJ/mol
# Density = 2.065842 g / cm^3
# Si number density = 20.705547 Si / 1000 Ang^3
#
#
#
# Elastic Constant Matrix: (Units=GPa)
#
#
# Indices 1 2 3 4 5 6 
#
# 1 66.3782 26.6353 29.3617 0.0000 0.0000 0.0000
# 2 26.6353 118.9043 38.3903 0.0000 0.0000 0.0000
# 3 29.3617 38.3903 148.0026 0.0000 0.0000 0.0000
# 4 0.0000 0.0000 0.0000 33.5849 0.0000 0.0000
# 5 0.0000 0.0000 0.0000 0.0000 23.5550 0.0000
# 6 0.0000 0.0000 0.0000 0.0000 0.0000 -9.5109
#
#
#
# Elastic Compliance Matrix: (Units=1/GPa)
#
#
# Indices 1 2 3 4 5 6 
#
# 1 0.017472 -0.003050 -0.002675 0.000000 0.000000 0.000000
# 2 -0.003050 0.009711 -0.001914 0.000000 0.000000 0.000000
# 3 -0.002675 -0.001914 0.007784 0.000000 0.000000 0.000000
# 4 0.000000 0.000000 0.000000 0.029775 0.000000 0.000000
# 5 0.000000 0.000000 0.000000 0.000000 0.042454 0.000000
# 6 0.000000 0.000000 0.000000 0.000000 0.000000 -0.105142
#
#
# Mechanical properties :
#
#
# Convention : Reuss Voigt Hill
#
# Bulk Modulus (GPa) = 50.78948 58.00664 54.39806
# Shear Modulus (GPa) = 209.24127 25.45232 117.34680
#
# Velocity S-wave (km/s) = 10.06355 3.50987 7.53639
# Velocity P-wave (km/s) = 12.63392 6.67094 10.10241
#
# Compressibility (1/GPa) = 0.01968912
#
# Stress axis : x y z
#
# Youngs Moduli (GPa) = 57.23296 102.97250 128.47221
#
# Poissons Ratio (x) = 0.31409 0.34368
# Poissons Ratio (y) = 0.17457 0.24588
# Poissons Ratio (z) = 0.15310 0.19708
#
# Static dielectric constant tensor:
#      x y z
#    x 1.989990 0.000000 0.000000 
#    y 0.000000 1.804220 0.000000 
#    z 0.000000 0.000000 1.766050 
# 
# From -- ./inp_files/7920.got.cif
#   From: 2010.05.17/outbox.cif.g08.bks.cpg/sg73_4_cif.got.tgz:7920.got - 2010.06.03 17:35:07.
