data_PCOD9531444
_publ_section_title
;
Structure prediction by ZEFSAII (Michael W. Deem and Ramdas Pophale) SiO2 
 PCOD9531444
Probable space group: I B C A 
;
_chemical_formula_sum "Si O2"
_cell_formula_units_Z 96
_cell_length_a 22.298479
_cell_length_b 8.246331
_cell_length_c 24.022437
_cell_angle_alpha 90.000000
_cell_angle_beta 90.000000
_cell_angle_gamma 90.000000
_cell_volume 4417.261057
_symmetry_space_group_name_H-M "I B C A "
_symmetry_group_IT_number 73
_symmetry_cell_setting 'orthorhombic'
loop_
_space_group_symop_operation_xyz
x,y,z
-x,1/2-y,z
x,-y,1/2-z
1/2-x,y,-z
-x,-y,-z
x,1/2+y,-z
-x,y,1/2+z
1/2+x,-y,z
1/2+x,1/2+y,1/2+z
1/2-x,-y,1/2+z
1/2+x,1/2-y,-z
-x,1/2+y,1/2-z
1/2-x,1/2-y,1/2-z
1/2+x,y,1/2-z
1/2-x,1/2+y,z
x,1/2-y,1/2+z
loop_
_atom_site_type_symbol
_atom_site_label
_atom_site_fract_x
_atom_site_fract_y
_atom_site_fract_z
Si Si1 0.575917 0.072461 0.811076
Si Si2 0.565955 0.953326 0.185493
Si Si3 0.273410 0.809900 0.557676
Si Si4 0.939422 0.850904 0.580770
Si Si5 0.108650 0.426655 0.499843
Si Si6 0.166552 0.029230 0.600081
O O1 0.506123 0.043977 0.824691
O O2 0.585746 0.265775 0.818944
O O3 0.623457 0.984833 0.850290
O O4 0.584131 0.000000 0.750000
O O5 0.576522 0.000000 0.250000
O O6 0.588176 0.080202 0.138528
O O7 0.250000 0.726253 0.500000
O O8 0.331201 0.910196 0.536901
O O9 0.296367 0.693097 0.605778
O O10 0.216897 0.904384 0.581212
O O11 0.903546 0.726200 0.540701
O O12 0.000000 0.750000 0.591967
O O13 0.942967 0.011938 0.541450
O O14 0.123210 0.560060 0.452636
#
# Coordination Sequence:
#
# PCOD9531444 Si02
#       6
#    16  16  16  16  16  16
#     4  10  23  45  70  96 135 178 234 284 346 410
#     4  10  24  43  71 101 138 185 235 277 346 431
#     4  10  21  39  63  92 126 177 230 275 334 421
#     4  12  25  40  65 103 147 184 225 285 353 425
#     4  11  23  40  64  96 142 176 227 279 358 412
#     4  11  22  40  64  95 130 177 228 284 344 403
#
# _framework density 21.732925000000002
#
# number of rings (size 3 to 8) (size 9 to 14) (size 15 to 20)
#    0.000    1.333    1.667    4.000    9.333    0.000 
#    0.000    0.833    0.000    1.000    0.000    0.000 
#    0.000    0.000    0.000    0.000    0.000    0.000 
#
# Total GULP energy -267576.875195 kJ/mol
# GULP energy per Si atom -5574.518233 kJ/mol
# Density = 2.168346 g / cm^3
# Si number density = 21.732925 Si / 1000 Ang^3
#
#
#
# Elastic Constant Matrix: (Units=GPa)
#
#
# Indices 1 2 3 4 5 6 
#
# 1 45.4733 23.3592 45.9635 0.0000 0.0000 0.0000
# 2 23.3592 81.9112 57.5236 0.0000 0.0000 0.0000
# 3 45.9635 57.5236 112.5542 0.0000 0.0000 0.0000
# 4 0.0000 0.0000 0.0000 35.9388 0.0000 0.0000
# 5 0.0000 0.0000 0.0000 0.0000 31.9318 0.0000
# 6 0.0000 0.0000 0.0000 0.0000 0.0000 20.5775
#
#
#
# Elastic Compliance Matrix: (Units=1/GPa)
#
#
# Indices 1 2 3 4 5 6 
#
# 1 0.037449 0.000094 -0.015341 0.000000 0.000000 0.000000
# 2 0.000094 0.019043 -0.009771 0.000000 0.000000 0.000000
# 3 -0.015341 -0.009771 0.020143 0.000000 0.000000 0.000000
# 4 0.000000 0.000000 0.000000 0.027825 0.000000 0.000000
# 5 0.000000 0.000000 0.000000 0.000000 0.031317 0.000000
# 6 0.000000 0.000000 0.000000 0.000000 0.000000 0.048597
#
#
# Mechanical properties :
#
#
# Convention : Reuss Voigt Hill
#
# Bulk Modulus (GPa) = 37.59479 54.84792 46.22136
# Shear Modulus (GPa) = 20.55273 25.22909 22.89091
#
# Velocity S-wave (km/s) = 3.07855 3.41085 3.24895
# Velocity P-wave (km/s) = 5.47474 6.38779 5.94881
#
# Compressibility (1/GPa) = 0.02659943
#
# Stress axis : x y z
#
# Youngs Moduli (GPa) = 26.70295 52.51165 49.64493
#
# Poissons Ratio (x) = -0.00493 0.76160
# Poissons Ratio (y) = -0.00251 0.48508
# Poissons Ratio (z) = 0.40965 0.51309
#
# Static dielectric constant tensor:
#      x y z
#    x 1.802290 0.000000 0.000000 
#    y 0.000000 1.943180 0.000000 
#    z 0.000000 0.000000 1.789870 
# 
# From -- ./inp_files/30297.got.cif
#   From: 2010.05.17/outbox.cif.g08.bks.cpg/sg73_16_cif.got.tgz:30297.got - 2010.06.03 17:35:07.
