data_PCOD9531965
_publ_section_title
;
Structure prediction by ZEFSAII (Michael W. Deem and Ramdas Pophale) SiO2 
 PCOD9531965
Probable space group: I B C A 
;
_chemical_formula_sum "Si O2"
_cell_formula_units_Z 80
_cell_length_a 24.036959
_cell_length_b 9.403273
_cell_length_c 15.620227
_cell_angle_alpha 90.000000
_cell_angle_beta 90.000000
_cell_angle_gamma 90.000000
_cell_volume 3530.578796
_symmetry_space_group_name_H-M "I B C A "
_symmetry_group_IT_number 73
_symmetry_cell_setting 'orthorhombic'
loop_
_space_group_symop_operation_xyz
x,y,z
-x,1/2-y,z
x,-y,1/2-z
1/2-x,y,-z
-x,-y,-z
x,1/2+y,-z
-x,y,1/2+z
1/2+x,-y,z
1/2+x,1/2+y,1/2+z
1/2-x,-y,1/2+z
1/2+x,1/2-y,-z
-x,1/2+y,1/2-z
1/2-x,1/2-y,1/2-z
1/2+x,y,1/2-z
1/2-x,1/2+y,z
x,1/2-y,1/2+z
loop_
_atom_site_type_symbol
_atom_site_label
_atom_site_fract_x
_atom_site_fract_y
_atom_site_fract_z
Si Si1 0.123378 0.986768 0.560891
Si Si2 0.321865 0.530656 0.115916
Si Si3 0.644224 0.711550 0.204170
Si Si4 0.714033 0.712293 0.360134
Si Si5 0.537407 0.114730 0.685413
O O1 0.142455 0.123189 0.616384
O O2 0.135726 0.001333 0.461301
O O3 0.164134 0.857994 0.586497
O O4 0.062446 0.951108 0.598056
O O5 0.355672 0.621149 0.185820
O O6 0.292325 0.381383 0.134167
O O7 0.270304 0.642019 0.105065
O O8 0.697748 0.673525 0.262049
O O9 0.591328 0.664958 0.259729
O O10 0.500000 0.250000 0.667971
O O11 0.510077 0.000000 0.750000
#
# Coordination Sequence:
#
# PCOD9531965 Si02
#       5
#    16  16  16  16  16
#     4  10  22  40  60  88 125 158 200 256 308 356
#     4  12  23  38  60  91 126 164 207 253 305 357
#     4  10  22  41  61  88 124 163 207 253 301 367
#     4  11  23  37  58  87 123 169 208 244 297 365
#     4   9  20  40  67  92 119 158 204 255 309 371
#
# _framework density 22.659175999999999
#
# number of rings (size 3 to 8) (size 9 to 14) (size 15 to 20)
#    0.000    1.600    0.000    6.000    0.000    6.400 
#    0.000    1.000    0.000    9.600    0.000    0.000 
#    0.000    0.000    0.000    0.000    0.000    0.000 
#
# Total GULP energy -223381.656220 kJ/mol
# GULP energy per Si atom -5584.541406 kJ/mol
# Density = 2.260760 g / cm^3
# Si number density = 22.659176 Si / 1000 Ang^3
#
#
#
# Elastic Constant Matrix: (Units=GPa)
#
#
# Indices 1 2 3 4 5 6 
#
# 1 44.0805 24.7978 11.1342 0.0000 0.0000 0.0000
# 2 24.7978 157.6349 13.8406 0.0000 0.0000 0.0000
# 3 11.1342 13.8406 74.3626 0.0000 0.0000 0.0000
# 4 0.0000 0.0000 0.0000 10.0986 0.0000 0.0000
# 5 0.0000 0.0000 0.0000 0.0000 14.5585 0.0000
# 6 0.0000 0.0000 0.0000 0.0000 0.0000 38.8769
#
#
#
# Elastic Compliance Matrix: (Units=1/GPa)
#
#
# Indices 1 2 3 4 5 6 
#
# 1 0.025587 -0.003750 -0.003133 0.000000 0.000000 0.000000
# 2 -0.003750 0.006999 -0.000741 0.000000 0.000000 0.000000
# 3 -0.003133 -0.000741 0.014055 0.000000 0.000000 0.000000
# 4 0.000000 0.000000 0.000000 0.099024 0.000000 0.000000
# 5 0.000000 0.000000 0.000000 0.000000 0.068688 0.000000
# 6 0.000000 0.000000 0.000000 0.000000 0.000000 0.025722
#
#
# Mechanical properties :
#
#
# Convention : Reuss Voigt Hill
#
# Bulk Modulus (GPa) = 31.85558 41.73591 36.79574
# Shear Modulus (GPa) = 18.81206 27.79382 23.30294
#
# Velocity S-wave (km/s) = 2.88448 3.50609 3.21036
# Velocity P-wave (km/s) = 5.01824 5.90332 5.47868
#
# Compressibility (1/GPa) = 0.03139167
#
# Stress axis : x y z
#
# Youngs Moduli (GPa) = 39.08278 142.88240 71.15063
#
# Poissons Ratio (x) = 0.53581 0.22292
# Poissons Ratio (y) = 0.14656 0.05273
# Poissons Ratio (z) = 0.12245 0.10590
#
# Static dielectric constant tensor:
#      x y z
#    x 1.858580 0.000000 0.000000 
#    y 0.000000 1.866260 0.000000 
#    z 0.000000 0.000000 1.928770 
# 
# From -- ./inp_files/23828.got.cif
#   From: 2010.05.17/outbox.cif.g08.bks.cpg/sg73_12_cif.got.tgz:23828.got - 2010.06.03 17:35:07.
