data_PCOD9531143
_publ_section_title
;
Structure prediction by ZEFSAII (Michael W. Deem and Ramdas Pophale) SiO2 
 PCOD9531143
Probable space group: I B C A 
;
_chemical_formula_sum "Si O2"
_cell_formula_units_Z 88
_cell_length_a 9.654002
_cell_length_b 13.000386
_cell_length_c 29.468182
_cell_angle_alpha 90.000000
_cell_angle_beta 90.000000
_cell_angle_gamma 90.000000
_cell_volume 3698.426355
_symmetry_space_group_name_H-M "I B C A "
_symmetry_group_IT_number 73
_symmetry_cell_setting 'orthorhombic'
loop_
_space_group_symop_operation_xyz
x,y,z
-x,1/2-y,z
x,-y,1/2-z
1/2-x,y,-z
-x,-y,-z
x,1/2+y,-z
-x,y,1/2+z
1/2+x,-y,z
1/2+x,1/2+y,1/2+z
1/2-x,-y,1/2+z
1/2+x,1/2-y,-z
-x,1/2+y,1/2-z
1/2-x,1/2-y,1/2-z
1/2+x,y,1/2-z
1/2-x,1/2+y,z
x,1/2-y,1/2+z
loop_
_atom_site_type_symbol
_atom_site_label
_atom_site_fract_x
_atom_site_fract_y
_atom_site_fract_z
Si Si1 0.525673 0.600867 0.046322
Si Si2 0.000000 0.250000 0.123628
Si Si3 0.368387 0.048854 0.175886
Si Si4 0.698363 0.587639 0.428558
Si Si5 0.000000 0.250000 0.281691
Si Si6 0.000000 0.750000 0.534095
Si Si7 0.404168 0.616030 0.201724
O O1 0.571798 0.669430 0.089819
O O2 0.610921 0.496748 0.043779
O O3 0.640162 0.911356 0.056957
O O4 0.554264 0.664721 0.001078
O O5 0.897995 0.308645 0.157928
O O6 0.332146 0.052069 0.122797
O O7 0.430592 0.160299 0.189082
O O8 0.223915 0.041065 0.201199
O O9 0.463405 0.955448 0.192443
O O10 0.622656 0.696539 0.437754
O O11 0.093654 0.185739 0.246158
#
# Coordination Sequence:
#
# PCOD9531143 Si02
#       7
#    16   8  16  16   8   8  16
#     4  11  25  46  73 103 146 187 237 294 358 425
#     4  10  20  44  66 102 132 182 226 286 348 414
#     4  12  24  47  71 108 138 190 239 295 357 423
#     4  12  24  47  72 109 139 189 241 296 359 422
#     4  11  27  43  71 104 150 186 239 295 353 429
#     4  11  27  43  69 104 148 184 231 289 355 425
#     4  11  25  46  72 101 144 187 238 295 356 425
#
# _framework density 23.793904000000001
#
# number of rings (size 3 to 8) (size 9 to 14) (size 15 to 20)
#    0.000    0.727    3.636    2.727    0.000   10.182 
#    6.545    0.000    0.000    0.000    0.000    0.000 
#    0.000    0.000    0.000    0.000    0.000    0.000 
#
# Total GULP energy -246206.618251 kJ/mol
# GULP energy per Si atom -5595.604960 kJ/mol
# Density = 2.373975 g / cm^3
# Si number density = 23.793904 Si / 1000 Ang^3
#
#
#
# Elastic Constant Matrix: (Units=GPa)
#
#
# Indices 1 2 3 4 5 6 
#
# 1 110.3182 45.8758 -5.2351 0.0000 0.0000 0.0000
# 2 45.8758 116.5598 21.7332 0.0000 0.0000 0.0000
# 3 -5.2351 21.7332 74.9999 0.0000 0.0000 0.0000
# 4 0.0000 0.0000 0.0000 35.4668 0.0000 0.0000
# 5 0.0000 0.0000 0.0000 0.0000 10.7921 0.0000
# 6 0.0000 0.0000 0.0000 0.0000 0.0000 35.6942
#
#
#
# Elastic Compliance Matrix: (Units=1/GPa)
#
#
# Indices 1 2 3 4 5 6 
#
# 1 0.011163 -0.004798 0.002170 0.000000 0.000000 0.000000
# 2 -0.004798 0.011132 -0.003561 0.000000 0.000000 0.000000
# 3 0.002170 -0.003561 0.014517 0.000000 0.000000 0.000000
# 4 0.000000 0.000000 0.000000 0.028195 0.000000 0.000000
# 5 0.000000 0.000000 0.000000 0.000000 0.092660 0.000000
# 6 0.000000 0.000000 0.000000 0.000000 0.000000 0.028016
#
#
# Mechanical properties :
#
#
# Convention : Reuss Voigt Hill
#
# Bulk Modulus (GPa) = 40.92841 47.40285 44.16563
# Shear Modulus (GPa) = 24.24777 32.35758 28.30267
#
# Velocity S-wave (km/s) = 3.19576 3.69170 3.45264
# Velocity P-wave (km/s) = 5.55479 6.17552 5.87336
#
# Compressibility (1/GPa) = 0.02443290
#
# Stress axis : x y z
#
# Youngs Moduli (GPa) = 89.58248 89.83440 68.88690
#
# Poissons Ratio (x) = 0.43103 -0.14945
# Poissons Ratio (y) = 0.42982 0.24528
# Poissons Ratio (z) = -0.19435 0.31986
#
# Static dielectric constant tensor:
#      x y z
#    x 1.898460 0.000000 0.000000 
#    y 0.000000 1.904430 0.000000 
#    z 0.000000 0.000000 1.931710 
# 
# From -- ./inp_files/33936.got.cif
#   From: 2010.05.17/outbox.cif.g08.bks.cpg/sg73_17_cif.got.tgz:33936.got - 2010.06.03 17:35:07.
