data_PCOD9531920
_publ_section_title
;
Structure prediction by ZEFSAII (Michael W. Deem and Ramdas Pophale) SiO2 
 PCOD9531920
Probable space group: I B C A 
;
_chemical_formula_sum "Si O2"
_cell_formula_units_Z 120
_cell_length_a 28.621059
_cell_length_b 13.781590
_cell_length_c 14.403565
_cell_angle_alpha 90.000000
_cell_angle_beta 90.000000
_cell_angle_gamma 90.000000
_cell_volume 5681.395479
_symmetry_space_group_name_H-M "I B C A "
_symmetry_group_IT_number 73
_symmetry_cell_setting 'orthorhombic'
loop_
_space_group_symop_operation_xyz
x,y,z
-x,1/2-y,z
x,-y,1/2-z
1/2-x,y,-z
-x,-y,-z
x,1/2+y,-z
-x,y,1/2+z
1/2+x,-y,z
1/2+x,1/2+y,1/2+z
1/2-x,-y,1/2+z
1/2+x,1/2-y,-z
-x,1/2+y,1/2-z
1/2-x,1/2-y,1/2-z
1/2+x,y,1/2-z
1/2-x,1/2+y,z
x,1/2-y,1/2+z
loop_
_atom_site_type_symbol
_atom_site_label
_atom_site_fract_x
_atom_site_fract_y
_atom_site_fract_z
Si Si1 0.309293 0.234832 0.667208
Si Si2 0.572530 0.746830 0.030992
Si Si3 0.676444 0.811063 0.040236
Si Si4 0.214183 0.851642 0.830660
Si Si5 0.497267 0.589449 0.573983
Si Si6 0.693681 0.466325 0.497513
Si Si7 0.611339 0.871872 0.372318
Si Si8 0.043000 0.500000 0.750000
O O1 0.313039 0.264817 0.560310
O O2 0.270180 0.151225 0.676943
O O3 0.301600 0.330788 0.726835
O O4 0.356890 0.185712 0.700045
O O5 0.551443 0.649106 0.077002
O O6 0.535211 0.831996 0.039429
O O7 0.622227 0.789860 0.062450
O O8 0.581664 0.707705 0.927580
O O9 0.690081 0.922545 0.028720
O O10 0.705264 0.749862 0.114615
O O11 0.187704 0.933145 0.889784
O O12 0.500000 0.500000 0.500000
O O13 0.511262 0.559168 0.677849
O O14 0.750000 0.438892 0.500000
O O15 0.650300 0.419132 0.556838
O O16 0.577154 0.942510 0.319531
#
# Coordination Sequence:
#
# PCOD9531920 Si02
#       8
#    16  16  16  16  16  16  16   8
#     4  10  22  39  61  95 138 182 233 283 340 406
#     4  10  23  46  72  96 138 180 223 292 371 433
#     4  11  23  40  64  95 132 183 230 282 343 421
#     4  11  21  40  62  91 141 186 230 287 340 405
#     4  11  24  48  74 102 136 178 231 304 377 459
#     4  12  22  39  67  97 141 192 236 283 343 415
#     4  11  23  41  70 104 137 186 235 291 351 439
#     4  12  26  44  74 114 140 176 248 304 378 446
#
# _framework density 21.121572
#
# number of rings (size 3 to 8) (size 9 to 14) (size 15 to 20)
#    0.000    1.067    5.333    2.000    3.733    0.533 
#    4.800    0.000    0.000    0.000    0.000    0.000 
#    0.000    0.000    0.000    0.000    0.000    0.000 
#
# Total GULP energy -334197.308038 kJ/mol
# GULP energy per Si atom -5569.955134 kJ/mol
# Density = 2.107350 g / cm^3
# Si number density = 21.121572 Si / 1000 Ang^3
#
#
#
# Elastic Constant Matrix: (Units=GPa)
#
#
# Indices 1 2 3 4 5 6 
#
# 1 97.4995 17.3550 36.2286 0.0000 0.0000 0.0000
# 2 17.3550 81.1234 29.3033 0.0000 0.0000 0.0000
# 3 36.2286 29.3033 79.2875 0.0000 0.0000 0.0000
# 4 0.0000 0.0000 0.0000 22.8722 0.0000 0.0000
# 5 0.0000 0.0000 0.0000 0.0000 24.7724 0.0000
# 6 0.0000 0.0000 0.0000 0.0000 0.0000 26.6714
#
#
#
# Elastic Compliance Matrix: (Units=1/GPa)
#
#
# Indices 1 2 3 4 5 6 
#
# 1 0.012388 -0.000699 -0.005402 0.000000 0.000000 0.000000
# 2 -0.000699 0.014266 -0.004953 0.000000 0.000000 0.000000
# 3 -0.005402 -0.004953 0.016911 0.000000 0.000000 0.000000
# 4 0.000000 0.000000 0.000000 0.043721 0.000000 0.000000
# 5 0.000000 0.000000 0.000000 0.000000 0.040367 0.000000
# 6 0.000000 0.000000 0.000000 0.000000 0.000000 0.037493
#
#
# Mechanical properties :
#
#
# Convention : Reuss Voigt Hill
#
# Bulk Modulus (GPa) = 46.60503 47.07601 46.84052
# Shear Modulus (GPa) = 25.71919 26.53143 26.12531
#
# Velocity S-wave (km/s) = 3.49330 3.54804 3.52078
# Velocity P-wave (km/s) = 6.19548 6.25470 6.22516
#
# Compressibility (1/GPa) = 0.02145691
#
# Stress axis : x y z
#
# Youngs Moduli (GPa) = 80.72195 70.09918 59.13214
#
# Poissons Ratio (x) = 0.04899 0.31944
# Poissons Ratio (y) = 0.05641 0.29288
# Poissons Ratio (z) = 0.43608 0.34720
#
# Static dielectric constant tensor:
#      x y z
#    x 1.832690 0.000000 0.000000 
#    y 0.000000 1.812810 0.000000 
#    z 0.000000 0.000000 1.747170 
# 
# From -- ./inp_files/20150.got.cif
#   From: 2010.05.17/outbox.cif.g08.bks.cpg/sg73_11_cif.got.tgz:20150.got - 2010.06.03 17:35:07.
