data_PCOD9531378
_publ_section_title
;
Structure prediction by ZEFSAII (Michael W. Deem and Ramdas Pophale) SiO2 
 PCOD9531378
Probable space group: I B C A 
;
_chemical_formula_sum "Si O2"
_cell_formula_units_Z 88
_cell_length_a 20.126498
_cell_length_b 17.377773
_cell_length_c 10.310170
_cell_angle_alpha 90.000000
_cell_angle_beta 90.000000
_cell_angle_gamma 90.000000
_cell_volume 3606.020245
_symmetry_space_group_name_H-M "I B C A "
_symmetry_group_IT_number 73
_symmetry_cell_setting 'orthorhombic'
loop_
_space_group_symop_operation_xyz
x,y,z
-x,1/2-y,z
x,-y,1/2-z
1/2-x,y,-z
-x,-y,-z
x,1/2+y,-z
-x,y,1/2+z
1/2+x,-y,z
1/2+x,1/2+y,1/2+z
1/2-x,-y,1/2+z
1/2+x,1/2-y,-z
-x,1/2+y,1/2-z
1/2-x,1/2-y,1/2-z
1/2+x,y,1/2-z
1/2-x,1/2+y,z
x,1/2-y,1/2+z
loop_
_atom_site_type_symbol
_atom_site_label
_atom_site_fract_x
_atom_site_fract_y
_atom_site_fract_z
Si Si1 0.931983 0.701112 0.928351
Si Si2 0.396379 0.187207 0.708210
Si Si3 0.224992 0.407325 0.730517
Si Si4 0.347286 0.046619 0.112883
Si Si5 0.250000 0.569358 0.500000
Si Si6 0.025998 0.586603 0.233134
O O1 0.901640 0.739246 0.799172
O O2 0.946487 0.615655 0.873211
O O3 0.000000 0.750000 0.954744
O O4 0.886258 0.703133 0.055596
O O5 0.344775 0.132551 0.783574
O O6 0.467023 0.144253 0.703187
O O7 0.217711 0.500000 0.750000
O O8 0.285665 0.395426 0.633163
O O9 0.249375 0.381286 0.871811
O O10 0.315930 0.985747 0.012041
O O11 0.419052 0.085312 0.116739
O O12 0.352110 0.000000 0.250000
O O13 0.000857 0.500000 0.250000
#
# Coordination Sequence:
#
# PCOD9531378 Si02
#       6
#    16  16  16  16   8  16
#     4  10  23  43  61  86 130 178 203 258 328 372
#     4  11  23  42  65  90 127 171 219 255 314 382
#     4   9  19  36  63  95 125 165 208 259 316 378
#     4   8  17  34  55  90 128 157 193 254 327 367
#     4   8  16  34  58  84 134 160 192 254 334 366
#     4  10  21  38  64  98 123 154 212 272 318 380
#
# _framework density 24.403635000000001
#
# number of rings (size 3 to 8) (size 9 to 14) (size 15 to 20)
#    0.000    2.909    0.000    2.182    7.636    0.727 
#   19.636    0.909    0.000    0.000    0.000    0.000 
#    0.000    0.000    0.000    0.000    0.000    0.000 
#
# Total GULP energy -245340.924828 kJ/mol
# GULP energy per Si atom -5575.930110 kJ/mol
# Density = 2.434809 g / cm^3
# Si number density = 24.403635 Si / 1000 Ang^3
#
#
#
# Elastic Constant Matrix: (Units=GPa)
#
#
# Indices 1 2 3 4 5 6 
#
# 1 85.7338 2.9951 -10.7232 0.0000 0.0000 0.0000
# 2 2.9951 66.3450 6.4907 0.0000 0.0000 0.0000
# 3 -10.7232 6.4907 67.8140 0.0000 0.0000 0.0000
# 4 0.0000 0.0000 0.0000 12.9776 0.0000 0.0000
# 5 0.0000 0.0000 0.0000 0.0000 17.2274 0.0000
# 6 0.0000 0.0000 0.0000 0.0000 0.0000 5.1930
#
#
#
# Elastic Compliance Matrix: (Units=1/GPa)
#
#
# Indices 1 2 3 4 5 6 
#
# 1 0.011934 -0.000730 0.001957 0.000000 0.000000 0.000000
# 2 -0.000730 0.015260 -0.001576 0.000000 0.000000 0.000000
# 3 0.001957 -0.001576 0.015207 0.000000 0.000000 0.000000
# 4 0.000000 0.000000 0.000000 0.077056 0.000000 0.000000
# 5 0.000000 0.000000 0.000000 0.000000 0.058047 0.000000
# 6 0.000000 0.000000 0.000000 0.000000 0.000000 0.192565
#
#
# Mechanical properties :
#
#
# Convention : Reuss Voigt Hill
#
# Bulk Modulus (GPa) = 23.97955 24.15756 24.06856
# Shear Modulus (GPa) = 12.99821 21.82161 17.40991
#
# Velocity S-wave (km/s) = 2.31039 2.99355 2.67388
# Velocity P-wave (km/s) = 4.11883 4.67645 4.40647
#
# Compressibility (1/GPa) = 0.04170220
#
# Stress axis : x y z
#
# Youngs Moduli (GPa) = 83.79216 65.53130 65.76121
#
# Poissons Ratio (x) = 0.04785 -0.12870
# Poissons Ratio (y) = 0.06119 0.10364
# Poissons Ratio (z) = -0.16398 0.10328
#
# Static dielectric constant tensor:
#      x y z
#    x 2.078940 0.000000 0.000000 
#    y 0.000000 1.947260 0.000000 
#    z 0.000000 0.000000 2.058740 
# 
# From -- ./inp_files/12738.got.cif
#   From: 2010.05.17/outbox.cif.g08.bks.cpg/sg73_7_cif.got.tgz:12738.got - 2010.06.03 17:35:07.
