data_PCOD9531942
_publ_section_title
;
Structure prediction by ZEFSAII (Michael W. Deem and Ramdas Pophale) SiO2 
 PCOD9531942
Probable space group: I B C A 
;
_chemical_formula_sum "Si O2"
_cell_formula_units_Z 104
_cell_length_a 30.773027
_cell_length_b 19.451194
_cell_length_c 8.564721
_cell_angle_alpha 90.000000
_cell_angle_beta 90.000000
_cell_angle_gamma 90.000000
_cell_volume 5126.603190
_symmetry_space_group_name_H-M "I B C A "
_symmetry_group_IT_number 73
_symmetry_cell_setting 'orthorhombic'
loop_
_space_group_symop_operation_xyz
x,y,z
-x,1/2-y,z
x,-y,1/2-z
1/2-x,y,-z
-x,-y,-z
x,1/2+y,-z
-x,y,1/2+z
1/2+x,-y,z
1/2+x,1/2+y,1/2+z
1/2-x,-y,1/2+z
1/2+x,1/2-y,-z
-x,1/2+y,1/2-z
1/2-x,1/2-y,1/2-z
1/2+x,y,1/2-z
1/2-x,1/2+y,z
x,1/2-y,1/2+z
loop_
_atom_site_type_symbol
_atom_site_label
_atom_site_fract_x
_atom_site_fract_y
_atom_site_fract_z
Si Si1 0.000000 0.750000 0.558513
Si Si2 0.871453 0.672198 0.764942
Si Si3 0.563597 0.801126 0.196106
Si Si4 0.653364 0.537087 0.086083
Si Si5 0.133153 0.603764 0.926618
Si Si6 0.726404 0.810703 0.664424
Si Si7 0.711730 0.922703 0.296928
O O1 0.029912 0.700624 0.662308
O O2 0.033285 0.792552 0.454174
O O3 0.906418 0.732300 0.788380
O O4 0.877286 0.600666 0.860697
O O5 0.866467 0.650595 0.583119
O O6 0.824691 0.698162 0.825036
O O7 0.593706 0.867255 0.176276
O O8 0.667327 0.500000 0.250000
O O9 0.631895 0.475468 0.985031
O O10 0.690287 0.570025 0.971194
O O11 0.175638 0.609313 0.818277
O O12 0.750000 0.810401 0.500000
O O13 0.750000 0.750000 0.750000
O O14 0.744005 0.881921 0.733303
O O15 0.719575 0.000000 0.250000
#
# Coordination Sequence:
#
# PCOD9531942 Si02
#       7
#     8  16  16  16  16  16  16
#     4  10  24  40  68  98 126 164 212 280 336 418
#     4  11  23  39  65  89 133 177 215 274 328 402
#     4  11  22  42  66  99 128 166 218 267 342 405
#     4   9  20  40  64  95 125 177 225 268 327 384
#     4  10  22  39  66  96 128 174 216 272 328 399
#     4  12  27  41  58  92 136 176 229 280 324 368
#     4  10  22  42  64  94 132 179 231 268 318 379
#
# _framework density 20.286338000000001
#
# number of rings (size 3 to 8) (size 9 to 14) (size 15 to 20)
#    0.000    1.538    3.077    0.923    6.462    1.846 
#    0.000    0.000    0.000    5.538    0.000    0.000 
#    0.000    0.000    0.000    0.000    0.000    0.000 
#
# Total GULP energy -290203.787098 kJ/mol
# GULP energy per Si atom -5580.842060 kJ/mol
# Density = 2.024017 g / cm^3
# Si number density = 20.286338 Si / 1000 Ang^3
#
#
#
# Elastic Constant Matrix: (Units=GPa)
#
#
# Indices 1 2 3 4 5 6 
#
# 1 116.0172 50.8239 31.9130 0.0000 0.0000 0.0000
# 2 50.8239 89.4291 27.0184 0.0000 0.0000 0.0000
# 3 31.9130 27.0184 62.4659 0.0000 0.0000 0.0000
# 4 0.0000 0.0000 0.0000 5.2786 0.0000 0.0000
# 5 0.0000 0.0000 0.0000 0.0000 4.6325 0.0000
# 6 0.0000 0.0000 0.0000 0.0000 0.0000 26.7434
#
#
#
# Elastic Compliance Matrix: (Units=1/GPa)
#
#
# Indices 1 2 3 4 5 6 
#
# 1 0.012183 -0.005801 -0.003715 0.000000 0.000000 0.000000
# 2 -0.005801 0.015625 -0.003795 0.000000 0.000000 0.000000
# 3 -0.003715 -0.003795 0.019548 0.000000 0.000000 0.000000
# 4 0.000000 0.000000 0.000000 0.189444 0.000000 0.000000
# 5 0.000000 0.000000 0.000000 0.000000 0.215866 0.000000
# 6 0.000000 0.000000 0.000000 0.000000 0.000000 0.037392
#
#
# Mechanical properties :
#
#
# Convention : Reuss Voigt Hill
#
# Bulk Modulus (GPa) = 48.22863 54.15807 51.19335
# Shear Modulus (GPa) = 9.54943 17.87470 13.71206
#
# Velocity S-wave (km/s) = 2.17199 2.97159 2.60268
# Velocity P-wave (km/s) = 5.48777 6.20714 5.85850
#
# Compressibility (1/GPa) = 0.02073457
#
# Stress axis : x y z
#
# Youngs Moduli (GPa) = 82.08442 63.99818 51.15648
#
# Poissons Ratio (x) = 0.37127 0.19003
# Poissons Ratio (y) = 0.47619 0.19412
# Poissons Ratio (z) = 0.30492 0.24285
#
# Static dielectric constant tensor:
#      x y z
#    x 1.690140 0.000000 0.000000 
#    y 0.000000 1.693660 0.000000 
#    z 0.000000 0.000000 1.844690 
# 
# From -- ./inp_files/8474.got.cif
#   From: 2010.05.17/outbox.cif.g08.bks.cpg/sg73_5_cif.got.tgz:8474.got - 2010.06.03 17:35:07.
