data_PCOD9531713
_publ_section_title
;
Structure prediction by ZEFSAII (Michael W. Deem and Ramdas Pophale) SiO2 
 PCOD9531713
Probable space group: I B C A 
;
_chemical_formula_sum "Si O2"
_cell_formula_units_Z 112
_cell_length_a 12.806594
_cell_length_b 13.728926
_cell_length_c 26.895223
_cell_angle_alpha 90.000000
_cell_angle_beta 90.000000
_cell_angle_gamma 90.000000
_cell_volume 4728.739122
_symmetry_space_group_name_H-M "I B C A "
_symmetry_group_IT_number 73
_symmetry_cell_setting 'orthorhombic'
loop_
_space_group_symop_operation_xyz
x,y,z
-x,1/2-y,z
x,-y,1/2-z
1/2-x,y,-z
-x,-y,-z
x,1/2+y,-z
-x,y,1/2+z
1/2+x,-y,z
1/2+x,1/2+y,1/2+z
1/2-x,-y,1/2+z
1/2+x,1/2-y,-z
-x,1/2+y,1/2-z
1/2-x,1/2-y,1/2-z
1/2+x,y,1/2-z
1/2-x,1/2+y,z
x,1/2-y,1/2+z
loop_
_atom_site_type_symbol
_atom_site_label
_atom_site_fract_x
_atom_site_fract_y
_atom_site_fract_z
Si Si1 0.387042 0.389476 0.459699
Si Si2 0.263143 0.398663 0.837127
Si Si3 0.271620 0.724714 0.424417
Si Si4 0.000000 0.250000 0.466321
Si Si5 0.750000 0.059278 0.000000
Si Si6 0.769758 0.357333 0.227943
Si Si7 0.430573 0.972939 0.304671
Si Si8 0.394864 0.543887 0.144102
O O1 0.288907 0.318594 0.445317
O O2 0.464681 0.337007 0.497337
O O3 0.343114 0.487809 0.483975
O O4 0.436150 0.408415 0.405790
O O5 0.247823 0.299132 0.866504
O O6 0.216115 0.410087 0.781474
O O7 0.381736 0.428301 0.827727
O O8 0.211168 0.485685 0.868411
O O9 0.395189 0.729157 0.435137
O O10 0.225598 0.633699 0.455330
O O11 0.750000 0.250000 0.250000
O O12 0.661870 0.395890 0.202868
O O13 0.861412 0.382495 0.188747
O O14 0.467919 0.000000 0.250000
O O15 0.528362 0.956453 0.339171
#
# Coordination Sequence:
#
# PCOD9531713 Si02
#       8
#    16  16  16   8   8  16  16  16
#     4  12  26  47  71 107 139 192 247 311 376 448
#     4  10  22  42  66  98 140 187 226 291 371 430
#     4  12  25  49  71 104 146 189 247 312 374 451
#     4  12  26  48  72 104 148 182 258 318 356 456
#     4  12  22  50  70  92 146 190 236 308 380 428
#     4  10  21  43  68 101 145 182 229 304 364 430
#     4   9  20  40  68  98 134 184 233 281 350 439
#     4  11  22  42  71 102 137 187 246 288 370 454
#
# _framework density 23.68496
#
# number of rings (size 3 to 8) (size 9 to 14) (size 15 to 20)
#    0.000    1.143    4.286    3.000    2.000    0.571 
#   10.286    2.857    0.000    0.000    0.000    0.000 
#    0.000    0.000    0.000    0.000    0.000    0.000 
#
# Total GULP energy -312620.855384 kJ/mol
# GULP energy per Si atom -5582.515275 kJ/mol
# Density = 2.363105 g / cm^3
# Si number density = 23.684960 Si / 1000 Ang^3
#
#
#
# Elastic Constant Matrix: (Units=GPa)
#
#
# Indices 1 2 3 4 5 6 
#
# 1 88.4624 27.1257 32.7484 0.0000 0.0000 0.0000
# 2 27.1257 96.0647 29.3452 0.0000 0.0000 0.0000
# 3 32.7484 29.3452 98.0874 0.0000 0.0000 0.0000
# 4 0.0000 0.0000 0.0000 44.8716 0.0000 0.0000
# 5 0.0000 0.0000 0.0000 0.0000 31.6779 0.0000
# 6 0.0000 0.0000 0.0000 0.0000 0.0000 25.8701
#
#
#
# Elastic Compliance Matrix: (Units=1/GPa)
#
#
# Indices 1 2 3 4 5 6 
#
# 1 0.013497 -0.002680 -0.003705 0.000000 0.000000 0.000000
# 2 -0.002680 0.011989 -0.002692 0.000000 0.000000 0.000000
# 3 -0.003705 -0.002692 0.012237 0.000000 0.000000 0.000000
# 4 0.000000 0.000000 0.000000 0.022286 0.000000 0.000000
# 5 0.000000 0.000000 0.000000 0.000000 0.031568 0.000000
# 6 0.000000 0.000000 0.000000 0.000000 0.000000 0.038655
#
#
# Mechanical properties :
#
#
# Convention : Reuss Voigt Hill
#
# Bulk Modulus (GPa) = 51.09700 51.22811 51.16255
# Shear Modulus (GPa) = 32.27729 33.37693 32.82711
#
# Velocity S-wave (km/s) = 3.69558 3.75801 3.72693
# Velocity P-wave (km/s) = 6.31112 6.36444 6.33784
#
# Compressibility (1/GPa) = 0.01957062
#
# Stress axis : x y z
#
# Youngs Moduli (GPa) = 74.08868 83.41239 81.71755
#
# Poissons Ratio (x) = 0.22351 0.30274
# Poissons Ratio (y) = 0.19852 0.21999
# Poissons Ratio (z) = 0.27448 0.22455
#
# Static dielectric constant tensor:
#      x y z
#    x 1.918430 0.000000 0.000000 
#    y 0.000000 1.968780 0.000000 
#    z 0.000000 0.000000 2.000830 
# 
# From -- ./inp_files/34045.got.cif
#   From: 2010.05.17/outbox.cif.g08.bks.cpg/sg73_18_cif.got.tgz:34045.got - 2010.06.03 17:35:07.
