data_PCOD9531641
_publ_section_title
;
Structure prediction by ZEFSAII (Michael W. Deem and Ramdas Pophale) SiO2 
 PCOD9531641
Probable space group: I B C A 
;
_chemical_formula_sum "Si O2"
_cell_formula_units_Z 64
_cell_length_a 9.277212
_cell_length_b 30.875564
_cell_length_c 10.833513
_cell_angle_alpha 90.000000
_cell_angle_beta 90.000000
_cell_angle_gamma 90.000000
_cell_volume 3103.142286
_symmetry_space_group_name_H-M "I B C A "
_symmetry_group_IT_number 73
_symmetry_cell_setting 'orthorhombic'
loop_
_space_group_symop_operation_xyz
x,y,z
-x,1/2-y,z
x,-y,1/2-z
1/2-x,y,-z
-x,-y,-z
x,1/2+y,-z
-x,y,1/2+z
1/2+x,-y,z
1/2+x,1/2+y,1/2+z
1/2-x,-y,1/2+z
1/2+x,1/2-y,-z
-x,1/2+y,1/2-z
1/2-x,1/2-y,1/2-z
1/2+x,y,1/2-z
1/2-x,1/2+y,z
x,1/2-y,1/2+z
loop_
_atom_site_type_symbol
_atom_site_label
_atom_site_fract_x
_atom_site_fract_y
_atom_site_fract_z
Si Si1 0.010636 0.457649 0.176719
Si Si2 0.750000 0.558515 0.000000
Si Si3 0.250341 0.308463 0.642125
Si Si4 0.737014 0.903105 0.241654
Si Si5 0.000000 0.750000 0.250248
O O1 0.962014 0.500000 0.250000
O O2 0.876125 0.426703 0.152297
O O3 0.113167 0.428839 0.265628
O O4 0.116958 0.467106 0.061658
O O5 0.805013 0.587130 0.115025
O O6 0.250000 0.320733 0.500000
O O7 0.249714 0.352572 0.719568
O O8 0.391787 0.280177 0.672487
O O9 0.108379 0.280224 0.672159
#
# Coordination Sequence:
#
# PCOD9531641 Si02
#       5
#    16   8  16  16   8
#     4  10  21  42  63  93 129 171 219 263 323 373
#     4   8  24  42  58  96 130 170 210 280 310 384
#     4  11  23  44  67  98 128 168 216 263 327 394
#     4  10  22  42  63  93 128 173 211 264 327 379
#     4  10  24  44  66  98 130 164 212 268 330 384
#
# _framework density 20.624255999999999
#
# number of rings (size 3 to 8) (size 9 to 14) (size 15 to 20)
#    1.500    0.500    0.000    3.000    0.000    5.000 
#   11.250    0.000    0.000    0.000    0.000    0.000 
#    0.000    0.000    0.000    0.000    0.000    0.000 
#
# Total GULP energy -178374.279925 kJ/mol
# GULP energy per Si atom -5574.196248 kJ/mol
# Density = 2.057731 g / cm^3
# Si number density = 20.624256 Si / 1000 Ang^3
#
#
#
# Elastic Constant Matrix: (Units=GPa)
#
#
# Indices 1 2 3 4 5 6 
#
# 1 107.2939 28.7140 -2.7837 0.0000 0.0000 0.0002
# 2 28.7140 115.2757 7.2516 -0.0003 0.0000 0.0034
# 3 -2.7837 7.2516 64.2558 0.0002 0.0000 0.0207
# 4 0.0000 -0.0003 0.0002 113.7537 0.0001 0.0184
# 5 0.0000 0.0000 0.0000 0.0001 18.5653 -0.0066
# 6 0.0002 0.0034 0.0207 0.0184 -0.0066-1643.3249
#
#
#
# Elastic Compliance Matrix: (Units=1/GPa)
#
#
# Indices 1 2 3 4 5 6 
#
# 1 0.010019 -0.002541 0.000721 0.000000 0.000000 0.000000
# 2 -0.002541 0.009381 -0.001169 0.000000 0.000000 0.000000
# 3 0.000721 -0.001169 0.015726 0.000000 0.000000 0.000000
# 4 0.000000 0.000000 0.000000 0.008791 0.000000 0.000000
# 5 0.000000 0.000000 0.000000 0.000000 0.053864 0.000000
# 6 0.000000 0.000000 0.000000 0.000000 0.000000 -0.000609
#
#
# Mechanical properties :
#
#
# Convention : Reuss Voigt Hill
#
# Bulk Modulus (GPa) = 34.30739 39.24325 36.77532
# Shear Modulus (GPa) = 44.30015 -285.29162 -120.49573
#
# Velocity S-wave (km/s) = 4.63964 -11.77406 -7.65187
# Velocity P-wave (km/s) = 6.73590 12.87513 7.75876
#
# Compressibility (1/GPa) = 0.02914823
#
# Stress axis : x y z
#
# Youngs Moduli (GPa) = 99.81126 106.59498 63.58920
#
# Poissons Ratio (x) = 0.27085 -0.04584
# Poissons Ratio (y) = 0.25362 0.07432
# Poissons Ratio (z) = -0.07194 0.12459
#
# Static dielectric constant tensor:
#      x y z
#    x 2.150260 0.000000 0.000000 
#    y 0.000000 1.702260 0.000000 
#    z 0.000000 0.000000 1.742170 
# 
# From -- ./inp_files/9055.got.cif
#   From: 2010.05.17/outbox.cif.g08.bks.cpg/sg73_5_cif.got.tgz:9055.got - 2010.06.03 17:35:07.
