data_PCOD9531834
_publ_section_title
;
Structure prediction by ZEFSAII (Michael W. Deem and Ramdas Pophale) SiO2 
 PCOD9531834
Probable space group: I B C A 
;
_chemical_formula_sum "Si O2"
_cell_formula_units_Z 104
_cell_length_a 9.318142
_cell_length_b 28.224870
_cell_length_c 19.701876
_cell_angle_alpha 90.000000
_cell_angle_beta 90.000000
_cell_angle_gamma 90.000000
_cell_volume 5181.659322
_symmetry_space_group_name_H-M "I B C A "
_symmetry_group_IT_number 73
_symmetry_cell_setting 'orthorhombic'
loop_
_space_group_symop_operation_xyz
x,y,z
-x,1/2-y,z
x,-y,1/2-z
1/2-x,y,-z
-x,-y,-z
x,1/2+y,-z
-x,y,1/2+z
1/2+x,-y,z
1/2+x,1/2+y,1/2+z
1/2-x,-y,1/2+z
1/2+x,1/2-y,-z
-x,1/2+y,1/2-z
1/2-x,1/2-y,1/2-z
1/2+x,y,1/2-z
1/2-x,1/2+y,z
x,1/2-y,1/2+z
loop_
_atom_site_type_symbol
_atom_site_label
_atom_site_fract_x
_atom_site_fract_y
_atom_site_fract_z
Si Si1 0.732954 0.045713 0.172846
Si Si2 0.369907 0.488757 0.450959
Si Si3 0.181091 0.129311 0.571544
Si Si4 0.148574 0.812286 0.309725
Si Si5 0.343143 0.377067 0.434679
Si Si6 0.498292 0.500000 0.750000
Si Si7 0.808630 0.202409 0.174064
O O1 0.780558 0.092382 0.131888
O O2 0.612334 0.042840 0.232722
O O3 0.881248 0.020261 0.195647
O O4 0.641647 0.016111 0.118383
O O5 0.250000 0.508106 0.500000
O O6 0.500000 0.500000 0.500000
O O7 0.338211 0.434127 0.433795
O O8 0.250000 0.117165 0.500000
O O9 0.231442 0.179122 0.602713
O O10 0.011779 0.132953 0.558050
O O11 0.200357 0.850663 0.365060
O O12 0.211406 0.818348 0.234506
O O13 0.199433 0.759149 0.329096
O O14 0.974952 0.810967 0.309968
O O15 0.250000 0.361675 0.500000
#
# Coordination Sequence:
#
# PCOD9531834 Si02
#       7
#    16  16  16  16  16   8  16
#     4  11  22  39  57  82 118 152 193 243 292 353
#     4  11  21  36  58  81 111 152 193 234 284 346
#     4  11  23  38  57  84 115 151 192 238 293 349
#     4   9  19  39  60  84 114 149 188 237 291 346
#     4  10  22  37  57  86 116 151 193 237 288 346
#     4  10  24  38  56  82 114 156 196 242 300 348
#     4   9  20  37  60  84 113 148 190 236 290 352
#
# _framework density 20.070789999999999
#
# number of rings (size 3 to 8) (size 9 to 14) (size 15 to 20)
#    0.000    1.846    0.000    4.154    0.000    8.000 
#    0.000    0.000    0.000    0.000    0.000    0.000 
#    0.000    0.000    0.000    0.000    0.000    0.000 
#
# Total GULP energy -289622.468546 kJ/mol
# GULP energy per Si atom -5569.662857 kJ/mol
# Density = 2.002511 g / cm^3
# Si number density = 20.070790 Si / 1000 Ang^3
#
#
#
# Elastic Constant Matrix: (Units=GPa)
#
#
# Indices 1 2 3 4 5 6 
#
# 1 98.2823 11.4885 33.1620 0.0000 0.0000 0.0000
# 2 11.4885 61.6277 42.8502 0.0000 0.0000 0.0000
# 3 33.1620 42.8502 73.2278 0.0001 0.0000 0.0000
# 4 0.0000 0.0000 0.0001 -0.6382 0.0000 0.0000
# 5 0.0000 0.0000 0.0000 0.0000 42.7766 0.0000
# 6 0.0000 0.0000 0.0000 0.0000 0.0000 20.3786
#
#
#
# Elastic Compliance Matrix: (Units=1/GPa)
#
#
# Indices 1 2 3 4 5 6 
#
# 1 0.012262 0.002656 -0.007107 -0.000001 0.000000 0.000000
# 2 0.002656 0.027932 -0.017548 -0.000002 0.000000 0.000000
# 3 -0.007107 -0.017548 0.027143 0.000004 0.000000 0.000000
# 4 -0.000001 -0.000002 0.000004 -1.566858 0.000000 0.000000
# 5 0.000000 0.000000 0.000000 0.000000 0.023377 0.000000
# 6 0.000000 0.000000 0.000000 0.000000 0.000000 0.049071
#
#
# Mechanical properties :
#
#
# Convention : Reuss Voigt Hill
#
# Bulk Modulus (GPa) = 42.84600 45.34877 44.09738
# Shear Modulus (GPa) = -3.63559 22.21252 9.28847
#
# Velocity S-wave (km/s) = -1.34734 3.33033 2.15358
# Velocity P-wave (km/s) = 4.35584 6.11814 5.31060
#
# Compressibility (1/GPa) = 0.02333940
#
# Stress axis : x y z
#
# Youngs Moduli (GPa) = 81.54990 35.80060 36.84201
#
# Poissons Ratio (x) = -0.09508 0.26185
# Poissons Ratio (y) = -0.21658 0.64650
# Poissons Ratio (z) = 0.57960 0.62822
#
# Static dielectric constant tensor:
#      x y z
#    x 1.697010 0.000000 0.000000 
#    y 0.000000 1.727080 0.000000 
#    z 0.000000 0.000000 1.748900 
# 
# From -- ./inp_files/25063.got.cif
#   From: 2010.05.17/outbox.cif.g08.bks.cpg/sg73_13_cif.got.tgz:25063.got - 2010.06.03 17:35:07.
