data_PCOD9531813
_publ_section_title
;
Structure prediction by ZEFSAII (Michael W. Deem and Ramdas Pophale) SiO2 
 PCOD9531813
Probable space group: I B C A 
;
_chemical_formula_sum "Si O2"
_cell_formula_units_Z 120
_cell_length_a 11.554686
_cell_length_b 23.170179
_cell_length_c 22.095066
_cell_angle_alpha 90.000000
_cell_angle_beta 90.000000
_cell_angle_gamma 90.000000
_cell_volume 5915.382607
_symmetry_space_group_name_H-M "I B C A "
_symmetry_group_IT_number 73
_symmetry_cell_setting 'orthorhombic'
loop_
_space_group_symop_operation_xyz
x,y,z
-x,1/2-y,z
x,-y,1/2-z
1/2-x,y,-z
-x,-y,-z
x,1/2+y,-z
-x,y,1/2+z
1/2+x,-y,z
1/2+x,1/2+y,1/2+z
1/2-x,-y,1/2+z
1/2+x,1/2-y,-z
-x,1/2+y,1/2-z
1/2-x,1/2-y,1/2-z
1/2+x,y,1/2-z
1/2-x,1/2+y,z
x,1/2-y,1/2+z
loop_
_atom_site_type_symbol
_atom_site_label
_atom_site_fract_x
_atom_site_fract_y
_atom_site_fract_z
Si Si1 0.174631 0.902491 0.706942
Si Si2 0.208350 0.612747 0.670262
Si Si3 0.577044 0.390676 0.854070
Si Si4 0.488851 0.682050 0.260433
Si Si5 0.746520 0.297616 0.571912
Si Si6 0.000000 0.750000 0.559420
Si Si7 0.133138 0.184002 0.035995
Si Si8 0.968683 0.485392 0.319814
O O1 0.207639 0.910301 0.777314
O O2 0.290909 0.898553 0.669109
O O3 0.099407 0.844014 0.704736
O O4 0.089746 0.952384 0.684873
O O5 0.124640 0.658402 0.705316
O O6 0.266216 0.648234 0.615693
O O7 0.125148 0.559254 0.653190
O O8 0.518248 0.348528 0.805042
O O9 0.583432 0.362118 0.918850
O O10 0.523597 0.454097 0.853111
O O11 0.500000 0.750000 0.255958
O O12 0.750000 0.312977 0.500000
O O13 0.618327 0.272453 0.589085
O O14 0.833267 0.242693 0.573329
O O15 0.041755 0.800798 0.515406
O O16 0.250000 0.167428 0.000000
O O17 0.933248 0.500000 0.250000
#
# Coordination Sequence:
#
# PCOD9531813 Si02
#       8
#    16  16  16  16  16   8  16  16
#     4  10  22  37  57  79 122 155 189 250 293 364
#     4  10  22  36  60  83 119 159 200 244 297 375
#     4  11  23  37  60  85 121 157 203 249 290 375
#     4  10  23  32  51  91 119 152 191 237 313 364
#     4   9  20  37  58  88 114 158 203 241 311 361
#     4   8  18  38  62  76 126 152 190 256 288 376
#     4   9  21  38  59  89 117 159 202 240 312 357
#     4  11  21  40  54  87 113 159 208 229 309 359
#
# _framework density 20.286093000000001
#
# number of rings (size 3 to 8) (size 9 to 14) (size 15 to 20)
#    0.000    2.400    4.000    0.000    7.467    5.333 
#    0.000    0.667    0.000    1.600    0.000    0.000 
#    0.000    0.000    0.000    0.000    0.000    0.000 
#
# Total GULP energy -335023.613517 kJ/mol
# GULP energy per Si atom -5583.726892 kJ/mol
# Density = 2.023992 g / cm^3
# Si number density = 20.286093 Si / 1000 Ang^3
#
#
#
# Elastic Constant Matrix: (Units=GPa)
#
#
# Indices 1 2 3 4 5 6 
#
# 1 60.6083 10.7238 -18.4498 0.0000 0.0000 0.0000
# 2 10.7238 127.2235 18.2478 0.0000 0.0000 0.0000
# 3 -18.4498 18.2478 46.8792 0.0000 0.0000 0.0000
# 4 0.0000 0.0000 0.0000 33.5355 0.0000 0.0000
# 5 0.0000 0.0000 0.0000 0.0000 -2.9216 0.0000
# 6 0.0000 0.0000 0.0000 0.0000 0.0000 4.8589
#
#
#
# Elastic Compliance Matrix: (Units=1/GPa)
#
#
# Indices 1 2 3 4 5 6 
#
# 1 0.019732 -0.002941 0.008911 0.000000 0.000000 0.000000
# 2 -0.002941 0.008763 -0.004569 0.000000 0.000000 0.000000
# 3 0.008911 -0.004569 0.026617 0.000000 0.000000 0.000000
# 4 0.000000 0.000000 0.000000 0.029819 0.000000 0.000000
# 5 0.000000 0.000000 0.000000 0.000000 -0.342277 0.000000
# 6 0.000000 0.000000 0.000000 0.000000 0.000000 0.205808
#
#
# Mechanical properties :
#
#
# Convention : Reuss Voigt Hill
#
# Bulk Modulus (GPa) = 17.26702 28.41718 22.84210
# Shear Modulus (GPa) = -142.71832 22.04049 -60.33892
#
# Velocity S-wave (km/s) = -8.39676 3.29976 -5.45972
# Velocity P-wave (km/s) = 9.24538 5.34383 5.33482
#
# Compressibility (1/GPa) = 0.05791388
#
# Stress axis : x y z
#
# Youngs Moduli (GPa) = 50.67819 114.11077 37.57032
#
# Poissons Ratio (x) = 0.33564 -0.33478
# Poissons Ratio (y) = 0.14906 0.17165
# Poissons Ratio (z) = -0.45158 0.52134
#
# Static dielectric constant tensor:
#      x y z
#    x 1.803120 0.000000 0.000000 
#    y 0.000000 1.725860 0.000000 
#    z 0.000000 0.000000 1.724000 
# 
# From -- ./inp_files/31913.got.cif
#   From: 2010.05.17/outbox.cif.g08.bks.cpg/sg73_16_cif.got.tgz:31913.got - 2010.06.03 17:35:07.
