data_PCOD9531220
_publ_section_title
;
Structure prediction by ZEFSAII (Michael W. Deem and Ramdas Pophale) SiO2 
 PCOD9531220
Probable space group: I B C A 
;
_chemical_formula_sum "Si O2"
_cell_formula_units_Z 96
_cell_length_a 28.314300
_cell_length_b 17.569674
_cell_length_c 9.646611
_cell_angle_alpha 90.000000
_cell_angle_beta 90.000000
_cell_angle_gamma 90.000000
_cell_volume 4798.928712
_symmetry_space_group_name_H-M "I B C A "
_symmetry_group_IT_number 73
_symmetry_cell_setting 'orthorhombic'
loop_
_space_group_symop_operation_xyz
x,y,z
-x,1/2-y,z
x,-y,1/2-z
1/2-x,y,-z
-x,-y,-z
x,1/2+y,-z
-x,y,1/2+z
1/2+x,-y,z
1/2+x,1/2+y,1/2+z
1/2-x,-y,1/2+z
1/2+x,1/2-y,-z
-x,1/2+y,1/2-z
1/2-x,1/2-y,1/2-z
1/2+x,y,1/2-z
1/2-x,1/2+y,z
x,1/2-y,1/2+z
loop_
_atom_site_type_symbol
_atom_site_label
_atom_site_fract_x
_atom_site_fract_y
_atom_site_fract_z
Si Si1 0.430686 0.301961 0.463205
Si Si2 0.237439 0.060703 0.152332
Si Si3 0.319570 0.205999 0.953018
Si Si4 0.818495 0.657671 0.763637
Si Si5 0.570403 0.158842 0.779934
Si Si6 0.489251 0.052314 0.867564
O O1 0.375074 0.307438 0.428560
O O2 0.437439 0.304455 0.628571
O O3 0.443902 0.221738 0.394201
O O4 0.457618 0.374932 0.404433
O O5 0.208338 0.136745 0.116929
O O6 0.283925 0.087316 0.237344
O O7 0.211970 0.000000 0.250000
O O8 0.250000 0.028775 0.000000
O O9 0.304514 0.285566 0.886430
O O10 0.313989 0.203458 0.118354
O O11 0.873820 0.638769 0.786081
O O12 0.537602 0.086464 0.804455
O O13 0.466145 0.000000 0.750000
O O14 0.500000 0.000000 0.000000
#
# Coordination Sequence:
#
# PCOD9531220 Si02
#       6
#    16  16  16  16  16  16
#     4  10  22  40  61  85 115 155 197 245 291 351
#     4  10  21  36  55  85 120 152 187 234 293 349
#     4   9  19  37  59  83 113 145 194 239 284 340
#     4   9  19  37  59  85 110 150 192 239 284 342
#     4  10  22  40  61  85 116 154 201 242 293 352
#     4  12  25  40  58  86 120 158 196 244 301 353
#
# _framework density 20.004465
#
# number of rings (size 3 to 8) (size 9 to 14) (size 15 to 20)
#    0.000    2.000    1.667    1.000    2.333    4.000 
#    3.000    0.000    0.000    0.000    0.000    0.000 
#    0.000    0.000    0.000    0.000    0.000    0.000 
#
# Total GULP energy -267994.738219 kJ/mol
# GULP energy per Si atom -5583.223713 kJ/mol
# Density = 1.995893 g / cm^3
# Si number density = 20.004465 Si / 1000 Ang^3
#
#
#
# Elastic Constant Matrix: (Units=GPa)
#
#
# Indices 1 2 3 4 5 6 
#
# 1 51.6524 16.1623 14.5940 0.0000 0.0000 0.0000
# 2 16.1623 56.1045 25.4257 0.0000 0.0000 0.0000
# 3 14.5940 25.4257 56.2426 0.0000 0.0000 0.0000
# 4 0.0000 0.0000 0.0000 47.4436 0.0000 0.0000
# 5 0.0000 0.0000 0.0000 0.0000 22.2301 0.0000
# 6 0.0000 0.0000 0.0000 0.0000 0.0000 18.5317
#
#
#
# Elastic Compliance Matrix: (Units=1/GPa)
#
#
# Indices 1 2 3 4 5 6 
#
# 1 0.021827 -0.004680 -0.003548 0.000000 0.000000 0.000000
# 2 -0.004680 0.023420 -0.009373 0.000000 0.000000 0.000000
# 3 -0.003548 -0.009373 0.022938 0.000000 0.000000 0.000000
# 4 0.000000 0.000000 0.000000 0.021078 0.000000 0.000000
# 5 0.000000 0.000000 0.000000 0.000000 0.044984 0.000000
# 6 0.000000 0.000000 0.000000 0.000000 0.000000 0.053961
#
#
# Mechanical properties :
#
#
# Convention : Reuss Voigt Hill
#
# Bulk Modulus (GPa) = 30.31885 30.70707 30.51296
# Shear Modulus (GPa) = 21.33063 24.82891 23.07977
#
# Velocity S-wave (km/s) = 3.26896 3.52684 3.40035
# Velocity P-wave (km/s) = 5.42559 5.65405 5.54100
#
# Compressibility (1/GPa) = 0.03298278
#
# Stress axis : x y z
#
# Youngs Moduli (GPa) = 45.81469 42.69891 43.59558
#
# Poissons Ratio (x) = 0.19983 0.15468
# Poissons Ratio (y) = 0.21441 0.40863
# Poissons Ratio (z) = 0.16256 0.40022
#
# Static dielectric constant tensor:
#      x y z
#    x 1.740520 0.000000 0.000000 
#    y 0.000000 1.664150 0.000000 
#    z 0.000000 0.000000 1.710190 
# 
# From -- ./inp_files/7798.got.cif
#   From: 2010.05.17/outbox.cif.g08.bks.cpg/sg73_4_cif.got.tgz:7798.got - 2010.06.03 17:35:07.
