data_PCOD9531008
_publ_section_title
;
Structure prediction by ZEFSAII (Michael W. Deem and Ramdas Pophale) SiO2 
 PCOD9531008
Probable space group: I B C A 
;
_chemical_formula_sum "Si O2"
_cell_formula_units_Z 120
_cell_length_a 11.845268
_cell_length_b 18.103774
_cell_length_c 26.894805
_cell_angle_alpha 90.000000
_cell_angle_beta 90.000000
_cell_angle_gamma 90.000000
_cell_volume 5767.431038
_symmetry_space_group_name_H-M "I B C A "
_symmetry_group_IT_number 73
_symmetry_cell_setting 'orthorhombic'
loop_
_space_group_symop_operation_xyz
x,y,z
-x,1/2-y,z
x,-y,1/2-z
1/2-x,y,-z
-x,-y,-z
x,1/2+y,-z
-x,y,1/2+z
1/2+x,-y,z
1/2+x,1/2+y,1/2+z
1/2-x,-y,1/2+z
1/2+x,1/2-y,-z
-x,1/2+y,1/2-z
1/2-x,1/2-y,1/2-z
1/2+x,y,1/2-z
1/2-x,1/2+y,z
x,1/2-y,1/2+z
loop_
_atom_site_type_symbol
_atom_site_label
_atom_site_fract_x
_atom_site_fract_y
_atom_site_fract_z
Si Si1 0.306421 0.643415 0.802070
Si Si2 0.620948 0.965090 0.522146
Si Si3 0.500000 0.250000 0.179221
Si Si4 0.868566 0.751905 0.347709
Si Si5 0.801034 0.187497 0.049761
Si Si6 0.872791 0.615461 0.124865
Si Si7 0.911607 0.526318 0.627977
Si Si8 0.812678 0.411926 0.695265
O O1 0.406292 0.702957 0.791628
O O2 0.196540 0.687560 0.818949
O O3 0.344651 0.594326 0.848350
O O4 0.298379 0.591882 0.753946
O O5 0.750000 0.977951 0.500000
O O6 0.612307 0.875571 0.530015
O O7 0.500000 0.000000 0.500000
O O8 0.637222 0.994620 0.577900
O O9 0.430275 0.310298 0.147323
O O10 0.844210 0.758004 0.407057
O O11 0.829463 0.828698 0.323877
O O12 0.000000 0.750000 0.340264
O O13 0.703676 0.141791 0.079282
O O14 0.750000 0.223430 0.000000
O O15 0.803200 0.571255 0.166924
O O16 0.969120 0.558541 0.111486
O O17 0.907518 0.463989 0.671090
#
# Coordination Sequence:
#
# PCOD9531008 Si02
#       8
#    16  16   8  16  16  16  16  16
#     4  11  24  41  66  98 130 179 226 272 344 405
#     4  11  23  41  72  99 133 184 229 278 353 418
#     4  10  20  40  68  88 126 172 230 262 334 418
#     4  11  24  41  64  96 137 178 222 280 334 410
#     4  10  20  43  66  93 135 177 225 282 350 400
#     4  10  21  40  67  91 132 178 223 281 339 410
#     4  11  23  41  68 100 133 171 226 284 334 413
#     4  11  23  43  65  95 139 174 224 275 344 400
#
# _framework density 20.80649
#
# number of rings (size 3 to 8) (size 9 to 14) (size 15 to 20)
#    0.000    1.333    5.333    2.400    0.933    3.200 
#    1.200    4.667    0.000    0.000    0.000    0.000 
#    0.000    0.000    0.000    0.000    0.000    0.000 
#
# Total GULP energy -334347.277877 kJ/mol
# GULP energy per Si atom -5572.454631 kJ/mol
# Density = 2.075913 g / cm^3
# Si number density = 20.806490 Si / 1000 Ang^3
#
#
#
# Elastic Constant Matrix: (Units=GPa)
#
#
# Indices 1 2 3 4 5 6 
#
# 1 89.0946 3.2442 39.9381 0.0000 0.0000 0.0000
# 2 3.2442 31.2851 17.4222 0.0000 0.0000 0.0000
# 3 39.9381 17.4222 76.3917 0.0000 0.0000 0.0000
# 4 0.0000 0.0000 0.0000 30.8680 0.0000 0.0000
# 5 0.0000 0.0000 0.0000 0.0000 22.2664 0.0000
# 6 0.0000 0.0000 0.0000 0.0000 0.0000 2.9087
#
#
#
# Elastic Compliance Matrix: (Units=1/GPa)
#
#
# Indices 1 2 3 4 5 6 
#
# 1 0.014935 0.003207 -0.008540 0.000000 0.000000 0.000000
# 2 0.003207 0.037303 -0.010184 0.000000 0.000000 0.000000
# 3 -0.008540 -0.010184 0.019878 0.000000 0.000000 0.000000
# 4 0.000000 0.000000 0.000000 0.032396 0.000000 0.000000
# 5 0.000000 0.000000 0.000000 0.000000 0.044911 0.000000
# 6 0.000000 0.000000 0.000000 0.000000 0.000000 0.343798
#
#
# Mechanical properties :
#
#
# Convention : Reuss Voigt Hill
#
# Bulk Modulus (GPa) = 24.34148 35.33115 29.83632
# Shear Modulus (GPa) = 9.29457 20.28641 14.79049
#
# Velocity S-wave (km/s) = 2.11586 3.12589 2.66909
# Velocity P-wave (km/s) = 4.20637 5.48142 4.88567
#
# Compressibility (1/GPa) = 0.04108214
#
# Stress axis : x y z
#
# Youngs Moduli (GPa) = 66.95551 26.80763 50.30788
#
# Poissons Ratio (x) = -0.08597 0.42961
# Poissons Ratio (y) = -0.21472 0.51233
# Poissons Ratio (z) = 0.57178 0.27301
#
# Static dielectric constant tensor:
#      x y z
#    x 1.776110 0.000000 0.000000 
#    y 0.000000 2.084070 0.000000 
#    z 0.000000 0.000000 1.763140 
# 
# From -- ./inp_files/31837.got.cif
#   From: 2010.05.17/outbox.cif.g08.bks.cpg/sg73_16_cif.got.tgz:31837.got - 2010.06.03 17:35:07.
