data_PCOD9531581
_publ_section_title
;
Structure prediction by ZEFSAII (Michael W. Deem and Ramdas Pophale) SiO2 
 PCOD9531581
Probable space group: I B C A 
;
_chemical_formula_sum "Si O2"
_cell_formula_units_Z 80
_cell_length_a 13.978699
_cell_length_b 17.308710
_cell_length_c 14.171743
_cell_angle_alpha 90.000000
_cell_angle_beta 90.000000
_cell_angle_gamma 90.000000
_cell_volume 3428.899237
_symmetry_space_group_name_H-M "I B C A "
_symmetry_group_IT_number 73
_symmetry_cell_setting 'orthorhombic'
loop_
_space_group_symop_operation_xyz
x,y,z
-x,1/2-y,z
x,-y,1/2-z
1/2-x,y,-z
-x,-y,-z
x,1/2+y,-z
-x,y,1/2+z
1/2+x,-y,z
1/2+x,1/2+y,1/2+z
1/2-x,-y,1/2+z
1/2+x,1/2-y,-z
-x,1/2+y,1/2-z
1/2-x,1/2-y,1/2-z
1/2+x,y,1/2-z
1/2-x,1/2+y,z
x,1/2-y,1/2+z
loop_
_atom_site_type_symbol
_atom_site_label
_atom_site_fract_x
_atom_site_fract_y
_atom_site_fract_z
Si Si1 0.266563 0.969401 0.397693
Si Si2 0.138140 0.375768 0.903983
Si Si3 0.117114 0.625069 0.808415
Si Si4 0.069566 0.080900 0.604332
Si Si5 0.696009 0.220982 0.844055
O O1 0.250000 0.930754 0.500000
O O2 0.219750 0.916840 0.318157
O O3 0.203565 0.047481 0.401841
O O4 0.373518 0.000467 0.386710
O O5 0.090588 0.366876 0.801472
O O6 0.214582 0.305712 0.908064
O O7 0.075248 0.387522 0.996745
O O8 0.128674 0.705792 0.863415
O O9 0.037296 0.574703 0.859509
O O10 0.127031 0.146756 0.662512
O O11 0.750000 0.250000 0.750000
#
# Coordination Sequence:
#
# PCOD9531581 Si02
#       5
#    16  16  16  16  16
#     4   9  20  38  59  86 121 160 201 255 310 354
#     4   9  20  40  59  83 128 166 192 251 318 357
#     4  11  21  38  64  94 119 158 217 251 293 375
#     4  10  21  41  63  87 128 167 198 252 315 362
#     4   9  19  38  62  85 118 159 200 249 307 362
#
# _framework density 23.331102999999999
#
# number of rings (size 3 to 8) (size 9 to 14) (size 15 to 20)
#    0.000    2.400    0.000    3.000    0.000    4.800 
#    0.000   32.000    0.000    2.400    0.000    0.000 
#    0.000    0.000    0.000    0.000    0.000    0.000 
#
# Total GULP energy -223300.852503 kJ/mol
# GULP energy per Si atom -5582.521313 kJ/mol
# Density = 2.327800 g / cm^3
# Si number density = 23.331103 Si / 1000 Ang^3
#
#
#
# Elastic Constant Matrix: (Units=GPa)
#
#
# Indices 1 2 3 4 5 6 
#
# 1 90.7871 19.6783 39.1892 0.0000 0.0000 0.0000
# 2 19.6783 56.4080 18.2961 0.0000 0.0000 0.0000
# 3 39.1892 18.2961 129.1727 0.0000 0.0000 0.0000
# 4 0.0000 0.0000 0.0000 21.8470 0.0000 0.0000
# 5 0.0000 0.0000 0.0000 0.0000 34.6323 0.0000
# 6 0.0000 0.0000 0.0000 0.0000 0.0000 31.7131
#
#
#
# Elastic Compliance Matrix: (Units=1/GPa)
#
#
# Indices 1 2 3 4 5 6 
#
# 1 0.013300 -0.003491 -0.003540 0.000000 0.000000 0.000000
# 2 -0.003491 0.019498 -0.001703 0.000000 0.000000 0.000000
# 3 -0.003540 -0.001703 0.009057 0.000000 0.000000 0.000000
# 4 0.000000 0.000000 0.000000 0.045773 0.000000 0.000000
# 5 0.000000 0.000000 0.000000 0.000000 0.028875 0.000000
# 6 0.000000 0.000000 0.000000 0.000000 0.000000 0.031533
#
#
# Mechanical properties :
#
#
# Convention : Reuss Voigt Hill
#
# Bulk Modulus (GPa) = 41.00685 47.85502 44.43093
# Shear Modulus (GPa) = 28.79643 30.91875 29.85759
#
# Velocity S-wave (km/s) = 3.51700 3.64430 3.58122
# Velocity P-wave (km/s) = 5.84009 6.18576 6.01541
#
# Compressibility (1/GPa) = 0.02438617
#
# Stress axis : x y z
#
# Youngs Moduli (GPa) = 75.18898 51.28688 110.41365
#
# Poissons Ratio (x) = 0.17906 0.39092
# Poissons Ratio (y) = 0.26251 0.18798
# Poissons Ratio (z) = 0.26620 0.08732
#
# Static dielectric constant tensor:
#      x y z
#    x 1.890460 0.000000 0.000000 
#    y 0.000000 1.919180 0.000000 
#    z 0.000000 0.000000 1.962110 
# 
# From -- ./inp_files/16860.got.cif
#   From: 2010.05.17/outbox.cif.g08.bks.cpg/sg73_9_cif.got.tgz:16860.got - 2010.06.03 17:35:07.
