data_PCOD9531335
_publ_section_title
;
Structure prediction by ZEFSAII (Michael W. Deem and Ramdas Pophale) SiO2 
 PCOD9531335
Probable space group: I B C A 
;
_chemical_formula_sum "Si O2"
_cell_formula_units_Z 72
_cell_length_a 8.252230
_cell_length_b 30.253077
_cell_length_c 13.358927
_cell_angle_alpha 90.000000
_cell_angle_beta 90.000000
_cell_angle_gamma 90.000000
_cell_volume 3335.127591
_symmetry_space_group_name_H-M "I B C A "
_symmetry_group_IT_number 73
_symmetry_cell_setting 'orthorhombic'
loop_
_space_group_symop_operation_xyz
x,y,z
-x,1/2-y,z
x,-y,1/2-z
1/2-x,y,-z
-x,-y,-z
x,1/2+y,-z
-x,y,1/2+z
1/2+x,-y,z
1/2+x,1/2+y,1/2+z
1/2-x,-y,1/2+z
1/2+x,1/2-y,-z
-x,1/2+y,1/2-z
1/2-x,1/2-y,1/2-z
1/2+x,y,1/2-z
1/2-x,1/2+y,z
x,1/2-y,1/2+z
loop_
_atom_site_type_symbol
_atom_site_label
_atom_site_fract_x
_atom_site_fract_y
_atom_site_fract_z
Si Si1 0.861117 0.648451 0.830406
Si Si2 0.236993 0.839581 0.389438
Si Si3 0.481245 0.500000 0.250000
Si Si4 0.732948 0.051477 0.884000
Si Si5 0.806610 0.256147 0.637353
O O1 0.838336 0.646658 0.709144
O O2 0.791024 0.603766 0.874932
O O3 0.774865 0.691942 0.878677
O O4 0.051035 0.653904 0.854985
O O5 0.250000 0.861103 0.500000
O O6 0.278484 0.787440 0.405658
O O7 0.583285 0.527334 0.169380
O O8 0.379383 0.534651 0.315199
O O9 0.750000 0.038924 0.000000
O O10 0.750000 0.250000 0.750000
O O11 0.000000 0.250000 0.624514
#
# Coordination Sequence:
#
# PCOD9531335 Si02
#       5
#    16  16   8  16  16
#     4  10  21  38  60  91 120 154 207 254 288 354
#     4  10  21  38  59  86 126 168 200 242 298 345
#     4  10  24  44  64  92 124 152 196 250 306 374
#     4  11  23  42  67  92 121 158 197 247 308 362
#     4   8  16  33  54  80 118 158 195 240 286 335
#
# _framework density 21.588377999999999
#
# number of rings (size 3 to 8) (size 9 to 14) (size 15 to 20)
#    0.000    2.222    0.000    2.000    0.000    4.444 
#    0.000   36.667    0.000    0.000    0.000    0.000 
#    0.000    0.000    0.000    0.000    0.000    0.000 
#
# Total GULP energy -200549.892245 kJ/mol
# GULP energy per Si atom -5570.830340 kJ/mol
# Density = 2.153924 g / cm^3
# Si number density = 21.588378 Si / 1000 Ang^3
#
#
#
# Elastic Constant Matrix: (Units=GPa)
#
#
# Indices 1 2 3 4 5 6 
#
# 1 54.7034 33.8567 42.8068 -0.0001 0.0002 0.0000
# 2 33.8567 131.5093 20.8391 0.0000 0.0003 0.0000
# 3 42.8068 20.8391 188.2546 -0.0004 0.0011 0.0002
# 4 -0.0001 0.0000 -0.0004 6.0972 0.0002 0.0000
# 5 0.0002 0.0003 0.0011 0.0002 -234.0192 -0.0003
# 6 0.0000 0.0000 0.0002 0.0000 -0.0003 13.5239
#
#
#
# Elastic Compliance Matrix: (Units=1/GPa)
#
#
# Indices 1 2 3 4 5 6 
#
# 1 0.026037 -0.005868 -0.005271 0.000000 0.000000 0.000000
# 2 -0.005868 0.009062 0.000331 0.000000 0.000000 0.000000
# 3 -0.005271 0.000331 0.006474 0.000000 0.000000 0.000000
# 4 0.000000 0.000000 0.000000 0.164008 0.000000 -0.000001
# 5 0.000000 0.000000 0.000000 0.000000 -0.004273 0.000000
# 6 0.000000 0.000000 0.000000 -0.000001 0.000000 0.073943
#
#
# Mechanical properties :
#
#
# Convention : Reuss Voigt Hill
#
# Bulk Modulus (GPa) = 50.10639 63.27473 56.69056
# Shear Modulus (GPa) = 16.47344 -24.41529 -3.97093
#
# Velocity S-wave (km/s) = 2.76537 -3.36660 -1.35771
# Velocity P-wave (km/s) = 5.78417 3.77641 4.88456
#
# Compressibility (1/GPa) = 0.01995754
#
# Stress axis : x y z
#
# Youngs Moduli (GPa) = 38.40733 110.34823 154.46800
#
# Poissons Ratio (x) = 0.64751 0.81418
# Poissons Ratio (y) = 0.22537 -0.05115
# Poissons Ratio (z) = 0.20244 -0.03654
#
# Static dielectric constant tensor:
#      x y z
#    x 1.779450 0.000000 0.000000 
#    y 0.000000 1.806800 0.000000 
#    z 0.000000 0.000000 1.850780 
# 
# From -- ./inp_files/15517.got.cif
#   From: 2010.05.17/outbox.cif.g08.bks.cpg/sg73_8_cif.got.tgz:15517.got - 2010.06.03 17:35:07.
