data_PCOD9531110
_publ_section_title
;
Structure prediction by ZEFSAII (Michael W. Deem and Ramdas Pophale) SiO2 
 PCOD9531110
Probable space group: I B C A 
;
_chemical_formula_sum "Si O2"
_cell_formula_units_Z 64
_cell_length_a 17.010488
_cell_length_b 9.934258
_cell_length_c 15.555999
_cell_angle_alpha 90.000000
_cell_angle_beta 90.000000
_cell_angle_gamma 90.000000
_cell_volume 2628.755015
_symmetry_space_group_name_H-M "I B C A "
_symmetry_group_IT_number 73
_symmetry_cell_setting 'orthorhombic'
loop_
_space_group_symop_operation_xyz
x,y,z
-x,1/2-y,z
x,-y,1/2-z
1/2-x,y,-z
-x,-y,-z
x,1/2+y,-z
-x,y,1/2+z
1/2+x,-y,z
1/2+x,1/2+y,1/2+z
1/2-x,-y,1/2+z
1/2+x,1/2-y,-z
-x,1/2+y,1/2-z
1/2-x,1/2-y,1/2-z
1/2+x,y,1/2-z
1/2-x,1/2+y,z
x,1/2-y,1/2+z
loop_
_atom_site_type_symbol
_atom_site_label
_atom_site_fract_x
_atom_site_fract_y
_atom_site_fract_z
Si Si1 0.914921 0.782012 0.011278
Si Si2 0.690142 0.162351 0.140300
Si Si3 0.500000 0.250000 0.844322
Si Si4 0.060501 0.500000 0.750000
Si Si5 0.800396 0.556697 0.587887
O O1 0.926937 0.770377 0.910182
O O2 0.000000 0.750000 0.048982
O O3 0.849458 0.680823 0.045710
O O4 0.888181 0.923916 0.051540
O O5 0.621994 0.088727 0.193369
O O6 0.709154 0.319137 0.155599
O O7 0.767066 0.073717 0.132348
O O8 0.504222 0.387256 0.791839
O O9 0.750000 0.581117 0.500000
#
# Coordination Sequence:
#
# PCOD9531110 Si02
#       5
#    16  16   8   8  16
#     4   8  21  46  74 104 136 198 257 306 359 453
#     4  10  24  42  75 105 151 188 248 309 385 456
#     4  10  24  48  74 106 152 196 256 312 380 452
#     4  12  26  46  68 116 156 198 240 314 408 458
#     4  10  20  42  71 106 140 188 251 307 364 449
#
# _framework density 24.346125000000001
#
# number of rings (size 3 to 8) (size 9 to 14) (size 15 to 20)
#    2.250    0.000    0.000    2.250    1.750    2.000 
#    4.500    0.000    0.000    1.500    0.000    0.000 
#    0.000    0.000    0.000    0.000    0.000    0.000 
#
# Total GULP energy -178260.686648 kJ/mol
# GULP energy per Si atom -5570.646458 kJ/mol
# Density = 2.429071 g / cm^3
# Si number density = 24.346125 Si / 1000 Ang^3
#
#
#
# Elastic Constant Matrix: (Units=GPa)
#
#
# Indices 1 2 3 4 5 6 
#
# 1 77.9768 19.8916 -4.1315 0.0000 0.0000 0.0000
# 2 19.8916 117.8646 39.1262 0.0000 0.0000 0.0000
# 3 -4.1315 39.1262 61.7474 0.0000 0.0000 0.0000
# 4 0.0000 0.0000 0.0000 2369.2462 0.0000 0.0000
# 5 0.0000 0.0000 0.0000 0.0000 5.4124 0.0000
# 6 0.0000 0.0000 0.0000 0.0000 0.0000 31.5683
#
#
#
# Elastic Compliance Matrix: (Units=1/GPa)
#
#
# Indices 1 2 3 4 5 6 
#
# 1 0.013840 -0.003347 0.003047 0.000000 0.000000 0.000000
# 2 -0.003347 0.011554 -0.007545 0.000000 0.000000 0.000000
# 3 0.003047 -0.007545 0.021180 0.000000 0.000000 0.000000
# 4 0.000000 0.000000 0.000000 0.000422 0.000000 0.000000
# 5 0.000000 0.000000 0.000000 0.000000 0.184760 0.000000
# 6 0.000000 0.000000 0.000000 0.000000 0.000000 0.031677
#
#
# Mechanical properties :
#
#
# Convention : Reuss Voigt Hill
#
# Bulk Modulus (GPa) = 32.38055 40.81792 36.59923
# Shear Modulus (GPa) = 17.27607 494.75889 256.01748
#
# Velocity S-wave (km/s) = 2.66673 14.27095 10.26575
# Velocity P-wave (km/s) = 4.77607 16.98083 12.47316
#
# Compressibility (1/GPa) = 0.03088274
#
# Stress axis : x y z
#
# Youngs Moduli (GPa) = 72.25645 86.55140 47.21485
#
# Poissons Ratio (x) = 0.28970 -0.14386
# Poissons Ratio (y) = 0.24185 0.35624
# Poissons Ratio (z) = -0.22016 0.65303
#
# Static dielectric constant tensor:
#      x y z
#    x 1.967690 0.000000 0.000000 
#    y 0.000000 2.070520 0.000000 
#    z 0.000000 0.000000 1.982770 
# 
# From -- ./inp_files/22945.got.cif
#   From: 2010.05.17/outbox.cif.g08.bks.cpg/sg73_12_cif.got.tgz:22945.got - 2010.06.03 17:35:07.
