data_PCOD9531159
_publ_section_title
;
Structure prediction by ZEFSAII (Michael W. Deem and Ramdas Pophale) SiO2 
 PCOD9531159
Probable space group: I B C A 
;
_chemical_formula_sum "Si O2"
_cell_formula_units_Z 88
_cell_length_a 10.010761
_cell_length_b 27.832195
_cell_length_c 11.208366
_cell_angle_alpha 90.000000
_cell_angle_beta 90.000000
_cell_angle_gamma 90.000000
_cell_volume 3122.891212
_symmetry_space_group_name_H-M "I B C A "
_symmetry_group_IT_number 73
_symmetry_cell_setting 'orthorhombic'
loop_
_space_group_symop_operation_xyz
x,y,z
-x,1/2-y,z
x,-y,1/2-z
1/2-x,y,-z
-x,-y,-z
x,1/2+y,-z
-x,y,1/2+z
1/2+x,-y,z
1/2+x,1/2+y,1/2+z
1/2-x,-y,1/2+z
1/2+x,1/2-y,-z
-x,1/2+y,1/2-z
1/2-x,1/2-y,1/2-z
1/2+x,y,1/2-z
1/2-x,1/2+y,z
x,1/2-y,1/2+z
loop_
_atom_site_type_symbol
_atom_site_label
_atom_site_fract_x
_atom_site_fract_y
_atom_site_fract_z
Si Si1 0.784290 0.916512 0.363847
Si Si2 0.573165 0.893126 0.057087
Si Si3 0.596212 0.993306 0.119643
Si Si4 0.603199 0.289030 0.860023
Si Si5 0.250000 0.778853 0.000000
Si Si6 0.928278 0.152373 0.859283
O O1 0.750000 0.904620 0.500000
O O2 0.940512 0.905058 0.361284
O O3 0.693783 0.877327 0.298373
O O4 0.718099 0.969168 0.360798
O O5 0.654007 0.940341 0.092971
O O6 0.624951 0.839736 0.076021
O O7 0.524275 0.887519 0.918782
O O8 0.524557 0.000000 0.250000
O O9 0.500000 0.000000 0.000000
O O10 0.500000 0.250000 0.909815
O O11 0.733748 0.256568 0.885957
O O12 0.534378 0.308193 0.738451
O O13 0.132601 0.815651 0.034519
#
# Coordination Sequence:
#
# PCOD9531159 Si02
#       6
#    16  16  16  16   8  16
#     4  10  20  45  72  95 141 190 238 302 381 435
#     4  11  24  46  72 104 146 194 243 307 375 449
#     4  12  25  45  74 113 145 193 255 304 378 460
#     4  12  26  43  72 106 147 198 252 307 369 451
#     4  12  24  46  66 108 146 194 250 314 370 438
#     4  11  21  43  69  99 143 190 246 296 373 444
#
# _framework density 28.179016000000001
#
# number of rings (size 3 to 8) (size 9 to 14) (size 15 to 20)
#    0.000    0.727    8.182    1.636    2.545    0.727 
#    1.636    0.000    0.000    0.000    0.000    0.000 
#    0.000    0.000    0.000    0.000    0.000    0.000 
#
# Total GULP energy -245005.560868 kJ/mol
# GULP energy per Si atom -5568.308202 kJ/mol
# Density = 2.811488 g / cm^3
# Si number density = 28.179016 Si / 1000 Ang^3
#
#
#
# Elastic Constant Matrix: (Units=GPa)
#
#
# Indices 1 2 3 4 5 6 
#
# 1 68.6190 61.9009 11.8166 -0.0002 0.0000 0.0005
# 2 61.9009 249.9119 44.6409 -0.0001 0.0000 0.0000
# 3 11.8166 44.6409 134.9858 -0.0012 0.0000 0.0018
# 4 -0.0002 -0.0001 -0.0012 58.4093 0.0001 0.0006
# 5 0.0000 0.0000 0.0000 0.0001 15.4892 -0.0001
# 6 0.0005 0.0000 0.0018 0.0006 -0.0001 -4.5377
#
#
#
# Elastic Compliance Matrix: (Units=1/GPa)
#
#
# Indices 1 2 3 4 5 6 
#
# 1 0.018768 -0.004629 -0.000112 0.000000 0.000000 0.000002
# 2 -0.004629 0.005394 -0.001379 0.000000 0.000000 -0.000001
# 3 -0.000112 -0.001379 0.007874 0.000000 0.000000 0.000003
# 4 0.000000 0.000000 0.000000 0.017121 0.000000 0.000002
# 5 0.000000 0.000000 0.000000 0.000000 0.064561 -0.000001
# 6 0.000002 -0.000001 0.000003 0.000002 -0.000001 -0.220377
#
#
# Mechanical properties :
#
#
# Convention : Reuss Voigt Hill
#
# Bulk Modulus (GPa) = 50.51263 76.69262 63.60262
# Shear Modulus (GPa) = -56.93401 36.21607 -10.35897
#
# Velocity S-wave (km/s) = -4.49981 3.58888 -1.91940
# Velocity P-wave (km/s) = 3.00552 6.66698 4.20806
#
# Compressibility (1/GPa) = 0.01979703
#
# Stress axis : x y z
#
# Youngs Moduli (GPa) = 53.28221 185.38607 127.00095
#
# Poissons Ratio (x) = 0.85808 0.01425
# Poissons Ratio (y) = 0.24662 0.17510
# Poissons Ratio (z) = 0.00598 0.25559
#
# Static dielectric constant tensor:
#      x y z
#    x 2.504120 0.000000 0.000000 
#    y 0.000000 2.200030 0.000000 
#    z 0.000000 0.000000 2.414690 
# 
# From -- ./inp_files/10921.got.cif
#   From: 2010.05.17/outbox.cif.g08.bks.cpg/sg73_6_cif.got.tgz:10921.got - 2010.06.03 17:35:07.
