data_PCOD9531291
_publ_section_title
;
Structure prediction by ZEFSAII (Michael W. Deem and Ramdas Pophale) SiO2 
 PCOD9531291
Probable space group: I B C A 
;
_chemical_formula_sum "Si O2"
_cell_formula_units_Z 80
_cell_length_a 17.958072
_cell_length_b 22.565732
_cell_length_c 9.218594
_cell_angle_alpha 90.000000
_cell_angle_beta 90.000000
_cell_angle_gamma 90.000000
_cell_volume 3735.715745
_symmetry_space_group_name_H-M "I B C A "
_symmetry_group_IT_number 73
_symmetry_cell_setting 'orthorhombic'
loop_
_space_group_symop_operation_xyz
x,y,z
-x,1/2-y,z
x,-y,1/2-z
1/2-x,y,-z
-x,-y,-z
x,1/2+y,-z
-x,y,1/2+z
1/2+x,-y,z
1/2+x,1/2+y,1/2+z
1/2-x,-y,1/2+z
1/2+x,1/2-y,-z
-x,1/2+y,1/2-z
1/2-x,1/2-y,1/2-z
1/2+x,y,1/2-z
1/2-x,1/2+y,z
x,1/2-y,1/2+z
loop_
_atom_site_type_symbol
_atom_site_label
_atom_site_fract_x
_atom_site_fract_y
_atom_site_fract_z
Si Si1 0.854749 0.932409 0.391949
Si Si2 0.774511 0.000000 0.750000
Si Si3 0.980289 0.000000 0.250000
Si Si4 0.827738 0.320075 0.800237
Si Si5 0.346250 0.298882 0.364324
Si Si6 0.608276 0.908129 0.288481
O O1 0.925199 0.975449 0.372831
O O2 0.852980 0.882257 0.267344
O O3 0.859077 0.903309 0.549512
O O4 0.782232 0.971886 0.363771
O O5 0.831000 0.051836 0.700771
O O6 0.033261 0.945855 0.206958
O O7 0.737604 0.317920 0.814417
O O8 0.853359 0.267856 0.692374
O O9 0.854085 0.306388 0.963481
O O10 0.400033 0.344891 0.284679
#
# Coordination Sequence:
#
# PCOD9531291 Si02
#       6
#    16   8   8  16  16  16
#     4  11  22  40  63  89 124 165 207 256 307 364
#     4  10  22  34  58  92 122 154 206 250 308 362
#     4  10  26  42  58  92 126 170 208 254 306 370
#     4  10  21  37  61  93 126 159 202 254 310 367
#     4  10  21  37  61  93 126 159 202 254 310 367
#     4  11  22  40  63  89 124 165 207 256 307 364
#
# _framework density 21.414905999999998
#
# number of rings (size 3 to 8) (size 9 to 14) (size 15 to 20)
#    0.000    1.600    2.000    2.400    0.000   11.200 
#    0.000    1.000    0.000    4.800    0.000    0.000 
#    0.000    0.000    0.000    0.000    0.000    0.000 
#
# Total GULP energy -223491.196399 kJ/mol
# GULP energy per Si atom -5587.279910 kJ/mol
# Density = 2.136617 g / cm^3
# Si number density = 21.414906 Si / 1000 Ang^3
#
#
#
# Elastic Constant Matrix: (Units=GPa)
#
#
# Indices 1 2 3 4 5 6 
#
# 1 77.6382 33.0939 21.1835 0.0000 0.0000 0.0000
# 2 33.0939 111.4101 46.9428 0.0000 0.0000 0.0000
# 3 21.1835 46.9428 115.5185 0.0000 0.0000 0.0000
# 4 0.0000 0.0000 0.0000 11.0575 0.0000 0.0000
# 5 0.0000 0.0000 0.0000 0.0000 11.0918 0.0000
# 6 0.0000 0.0000 0.0000 0.0000 0.0000 24.1141
#
#
#
# Elastic Compliance Matrix: (Units=1/GPa)
#
#
# Indices 1 2 3 4 5 6 
#
# 1 0.014868 -0.003943 -0.001124 0.000000 0.000000 0.000000
# 2 -0.003943 0.011876 -0.004103 0.000000 0.000000 0.000000
# 3 -0.001124 -0.004103 0.010530 0.000000 0.000000 0.000000
# 4 0.000000 0.000000 0.000000 0.090436 0.000000 0.000000
# 5 0.000000 0.000000 0.000000 0.000000 0.090156 0.000000
# 6 0.000000 0.000000 0.000000 0.000000 0.000000 0.041470
#
#
# Mechanical properties :
#
#
# Convention : Reuss Voigt Hill
#
# Bulk Modulus (GPa) = 52.81549 56.33411 54.57480
# Shear Modulus (GPa) = 17.60646 22.80912 20.20779
#
# Velocity S-wave (km/s) = 2.87044 3.26713 3.07519
# Velocity P-wave (km/s) = 5.97515 6.37145 6.17648
#
# Compressibility (1/GPa) = 0.01893384
#
# Stress axis : x y z
#
# Youngs Moduli (GPa) = 67.26035 84.20513 94.96623
#
# Poissons Ratio (x) = 0.33199 0.10676
# Poissons Ratio (y) = 0.26519 0.38964
# Poissons Ratio (z) = 0.07562 0.34549
#
# Static dielectric constant tensor:
#      x y z
#    x 1.783530 0.000000 0.000000 
#    y 0.000000 1.763460 0.000000 
#    z 0.000000 0.000000 1.842490 
# 
# From -- ./inp_files/6209.got.cif
#   From: 2010.05.17/outbox.cif.g08.bks.cpg/sg73_4_cif.got.tgz:6209.got - 2010.06.03 17:35:07.
