data_PCOD9531951
_publ_section_title
;
Structure prediction by ZEFSAII (Michael W. Deem and Ramdas Pophale) SiO2 
 PCOD9531951
Probable space group: I B C A 
;
_chemical_formula_sum "Si O2"
_cell_formula_units_Z 120
_cell_length_a 17.144384
_cell_length_b 25.845279
_cell_length_c 12.979313
_cell_angle_alpha 90.000000
_cell_angle_beta 90.000000
_cell_angle_gamma 90.000000
_cell_volume 5751.151603
_symmetry_space_group_name_H-M "I B C A "
_symmetry_group_IT_number 73
_symmetry_cell_setting 'orthorhombic'
loop_
_space_group_symop_operation_xyz
x,y,z
-x,1/2-y,z
x,-y,1/2-z
1/2-x,y,-z
-x,-y,-z
x,1/2+y,-z
-x,y,1/2+z
1/2+x,-y,z
1/2+x,1/2+y,1/2+z
1/2-x,-y,1/2+z
1/2+x,1/2-y,-z
-x,1/2+y,1/2-z
1/2-x,1/2-y,1/2-z
1/2+x,y,1/2-z
1/2-x,1/2+y,z
x,1/2-y,1/2+z
loop_
_atom_site_type_symbol
_atom_site_label
_atom_site_fract_x
_atom_site_fract_y
_atom_site_fract_z
Si Si1 0.167516 0.955177 0.325371
Si Si2 0.362669 0.183809 0.086396
Si Si3 0.160333 0.199525 0.400333
Si Si4 0.267035 0.863275 0.242616
Si Si5 0.750000 0.515197 0.000000
Si Si6 0.544645 0.383452 0.920953
Si Si7 0.366681 0.105541 0.447008
Si Si8 0.007351 0.194107 0.260700
O O1 0.205231 0.909291 0.257764
O O2 0.097315 0.931932 0.391199
O O3 0.139611 0.000000 0.250000
O O4 0.231777 0.979684 0.401671
O O5 0.335974 0.241902 0.058680
O O6 0.293662 0.153734 0.144010
O O7 0.428602 0.187567 0.175190
O O8 0.403639 0.152577 0.995352
O O9 0.226306 0.184169 0.317502
O O10 0.160423 0.155288 0.486764
O O11 0.077917 0.196025 0.341398
O O12 0.336971 0.883487 0.169524
O O13 0.677499 0.554007 0.016891
O O14 0.459340 0.398476 0.962005
O O15 0.525145 0.350145 0.819783
O O16 0.000000 0.250000 0.205964
#
# Coordination Sequence:
#
# PCOD9531951 Si02
#       8
#    16  16  16  16   8  16  16  16
#     4  12  26  49  72  94 138 184 234 306 361 403
#     4  11  25  40  70 106 145 182 229 280 345 427
#     4  11  22  43  69 102 143 189 225 272 347 425
#     4  12  23  47  68 103 136 185 236 287 351 422
#     4  12  26  50  72  98 128 182 244 306 364 402
#     4  12  26  45  70 107 143 179 238 292 350 428
#     4  12  24  43  75 100 137 184 238 291 348 436
#     4  10  22  39  67  98 143 186 217 272 343 420
#
# _framework density 20.865386000000001
#
# number of rings (size 3 to 8) (size 9 to 14) (size 15 to 20)
#    0.000    0.533    6.667    1.200    1.867    0.533 
#    7.200    0.000    0.000    0.000    0.000    0.000 
#    0.000    0.000    0.000    0.000    0.000    0.000 
#
# Total GULP energy -335581.288001 kJ/mol
# GULP energy per Si atom -5593.021467 kJ/mol
# Density = 2.081790 g / cm^3
# Si number density = 20.865386 Si / 1000 Ang^3
#
#
#
# Elastic Constant Matrix: (Units=GPa)
#
#
# Indices 1 2 3 4 5 6 
#
# 1 99.8873 50.3821 16.7267 0.0000 0.0000 0.0000
# 2 50.3821 103.7496 39.1241 0.0000 0.0000 0.0000
# 3 16.7267 39.1241 57.0703 -0.0003 0.0000 0.0000
# 4 0.0000 0.0000 -0.0003 -9.4444 0.0000 0.0000
# 5 0.0000 0.0000 0.0000 0.0000 38.9457 0.0000
# 6 0.0000 0.0000 0.0000 0.0000 0.0000 34.9649
#
#
#
# Elastic Compliance Matrix: (Units=1/GPa)
#
#
# Indices 1 2 3 4 5 6 
#
# 1 0.013280 -0.006718 0.000713 0.000000 0.000000 0.000000
# 2 -0.006718 0.016398 -0.009272 0.000000 0.000000 0.000000
# 3 0.000713 -0.009272 0.023670 -0.000001 0.000000 0.000000
# 4 0.000000 0.000000 -0.000001 -0.105883 0.000000 0.000000
# 5 0.000000 0.000000 0.000000 0.000000 0.025677 0.000000
# 6 0.000000 0.000000 0.000000 0.000000 0.000000 0.028600
#
#
# Mechanical properties :
#
#
# Convention : Reuss Voigt Hill
#
# Bulk Modulus (GPa) = 43.87226 52.57478 48.22352
# Shear Modulus (GPa) = 125.33486 23.19153 74.26319
#
# Velocity S-wave (km/s) = 7.75878 3.33751 5.97234
# Velocity P-wave (km/s) = 10.06663 6.33275 8.40954
#
# Compressibility (1/GPa) = 0.02279344
#
# Stress axis : x y z
#
# Youngs Moduli (GPa) = 75.29905 60.98488 42.24807
#
# Poissons Ratio (x) = 0.40970 -0.03013
# Poissons Ratio (y) = 0.50586 0.39173
# Poissons Ratio (z) = -0.05370 0.56546
#
# Static dielectric constant tensor:
#      x y z
#    x 1.759650 0.000000 0.000000 
#    y 0.000000 1.727630 0.000000 
#    z 0.000000 0.000000 1.747130 
# 
# From -- ./inp_files/12251.got.cif
#   From: 2010.05.17/outbox.cif.g08.bks.cpg/sg73_7_cif.got.tgz:12251.got - 2010.06.03 17:35:07.
