data_PCOD9531788
_publ_section_title
;
Structure prediction by ZEFSAII (Michael W. Deem and Ramdas Pophale) SiO2 
 PCOD9531788
Probable space group: I B C A 
;
_chemical_formula_sum "Si O2"
_cell_formula_units_Z 72
_cell_length_a 28.251437
_cell_length_b 12.467556
_cell_length_c 8.352325
_cell_angle_alpha 90.000000
_cell_angle_beta 90.000000
_cell_angle_gamma 90.000000
_cell_volume 2941.909140
_symmetry_space_group_name_H-M "I B C A "
_symmetry_group_IT_number 73
_symmetry_cell_setting 'orthorhombic'
loop_
_space_group_symop_operation_xyz
x,y,z
-x,1/2-y,z
x,-y,1/2-z
1/2-x,y,-z
-x,-y,-z
x,1/2+y,-z
-x,y,1/2+z
1/2+x,-y,z
1/2+x,1/2+y,1/2+z
1/2-x,-y,1/2+z
1/2+x,1/2-y,-z
-x,1/2+y,1/2-z
1/2-x,1/2-y,1/2-z
1/2+x,y,1/2-z
1/2-x,1/2+y,z
x,1/2-y,1/2+z
loop_
_atom_site_type_symbol
_atom_site_label
_atom_site_fract_x
_atom_site_fract_y
_atom_site_fract_z
Si Si1 0.831128 0.392151 0.407900
Si Si2 0.000000 0.750000 0.425860
Si Si3 0.199978 0.633192 0.932150
Si Si4 0.930872 0.824541 0.688785
Si Si5 0.363923 0.872209 0.257478
O O1 0.808307 0.334881 0.252809
O O2 0.803421 0.503431 0.421924
O O3 0.886167 0.399526 0.349512
O O4 0.834973 0.351616 0.591246
O O5 0.962588 0.811624 0.533929
O O6 0.969451 0.662428 0.327394
O O7 0.250000 0.669800 0.000000
O O8 0.161868 0.651096 0.073239
O O9 0.907412 0.709359 0.733682
O O10 0.374988 0.000000 0.250000
#
# Coordination Sequence:
#
# PCOD9531788 Si02
#       5
#    16   8  16  16  16
#     4  10  22  38  66  89 130 169 210 263 322 389
#     4  10  22  34  70  86 128 160 218 266 310 396
#     4  10  23  40  65  95 125 172 214 261 322 385
#     4  11  20  42  62  94 121 173 210 261 328 379
#     4  10  22  40  66  90 131 172 210 270 331 384
#
# _framework density 24.473905999999999
#
# number of rings (size 3 to 8) (size 9 to 14) (size 15 to 20)
#    0.000    1.778    2.222    1.333    9.333    0.000 
#    0.000    3.333   19.556    0.000    0.000    0.000 
#    0.000    0.000    0.000    0.000    0.000    0.000 
#
# Total GULP energy -200845.121779 kJ/mol
# GULP energy per Si atom -5579.031161 kJ/mol
# Density = 2.441820 g / cm^3
# Si number density = 24.473906 Si / 1000 Ang^3
#
#
#
# Elastic Constant Matrix: (Units=GPa)
#
#
# Indices 1 2 3 4 5 6 
#
# 1 91.2879 -15.3766 34.0827 0.0000 0.0000 0.0000
# 2 -15.3766 70.7466 36.7948 0.0000 0.0000 0.0000
# 3 34.0827 36.7948 188.2061 0.0000 0.0000 0.0000
# 4 0.0000 0.0000 0.0000 109.5218 0.0000 0.0000
# 5 0.0000 0.0000 0.0000 0.0000 64.7380 0.0000
# 6 0.0000 0.0000 0.0000 0.0000 0.0000 2460.4087
#
#
#
# Elastic Compliance Matrix: (Units=1/GPa)
#
#
# Indices 1 2 3 4 5 6 
#
# 1 0.012908 0.004476 -0.003213 0.000000 0.000000 0.000000
# 2 0.004476 0.017287 -0.004190 0.000000 0.000000 0.000000
# 3 -0.003213 -0.004190 0.006714 0.000000 0.000000 0.000000
# 4 0.000000 0.000000 0.000000 0.009131 0.000000 0.000000
# 5 0.000000 0.000000 0.000000 0.000000 0.015447 0.000000
# 6 0.000000 0.000000 0.000000 0.000000 0.000000 0.000406
#
#
# Mechanical properties :
#
#
# Convention : Reuss Voigt Hill
#
# Bulk Modulus (GPa) = 32.19974 51.24915 41.72444
# Shear Modulus (GPa) = 64.02163 546.58301 305.30232
#
# Velocity S-wave (km/s) = 5.12015 14.96054 11.18109
# Velocity P-wave (km/s) = 6.93829 17.87203 13.55635
#
# Compressibility (1/GPa) = 0.03105615
#
# Stress axis : x y z
#
# Youngs Moduli (GPa) = 77.47248 57.84610 148.93515
#
# Poissons Ratio (x) = -0.25894 0.47848
# Poissons Ratio (y) = -0.34679 0.62409
# Poissons Ratio (z) = 0.24889 0.24239
#
# Static dielectric constant tensor:
#      x y z
#    x 1.946410 0.000000 0.000000 
#    y 0.000000 2.019970 0.000000 
#    z 0.000000 0.000000 1.993290 
# 
# From -- ./inp_files/6939.got.cif
#   From: 2010.05.17/outbox.cif.g08.bks.cpg/sg73_4_cif.got.tgz:6939.got - 2010.06.03 17:35:07.
