data_PCOD9531068
_publ_section_title
;
Structure prediction by ZEFSAII (Michael W. Deem and Ramdas Pophale) SiO2 
 PCOD9531068
Probable space group: I B C A 
;
_chemical_formula_sum "Si O2"
_cell_formula_units_Z 104
_cell_length_a 12.422449
_cell_length_b 24.480635
_cell_length_c 15.612999
_cell_angle_alpha 90.000000
_cell_angle_beta 90.000000
_cell_angle_gamma 90.000000
_cell_volume 4748.060379
_symmetry_space_group_name_H-M "I B C A "
_symmetry_group_IT_number 73
_symmetry_cell_setting 'orthorhombic'
loop_
_space_group_symop_operation_xyz
x,y,z
-x,1/2-y,z
x,-y,1/2-z
1/2-x,y,-z
-x,-y,-z
x,1/2+y,-z
-x,y,1/2+z
1/2+x,-y,z
1/2+x,1/2+y,1/2+z
1/2-x,-y,1/2+z
1/2+x,1/2-y,-z
-x,1/2+y,1/2-z
1/2-x,1/2-y,1/2-z
1/2+x,y,1/2-z
1/2-x,1/2+y,z
x,1/2-y,1/2+z
loop_
_atom_site_type_symbol
_atom_site_label
_atom_site_fract_x
_atom_site_fract_y
_atom_site_fract_z
Si Si1 0.454642 0.451328 0.130069
Si Si2 0.817291 0.524531 0.587255
Si Si3 0.724723 0.596746 0.118168
Si Si4 0.383286 0.937571 0.675003
Si Si5 0.250000 0.189097 0.500000
Si Si6 0.722563 0.662134 0.717090
Si Si7 0.872707 0.251732 0.351625
O O1 0.573231 0.441167 0.094999
O O2 0.350834 0.418376 0.096556
O O3 0.441087 0.442008 0.232626
O O4 0.439097 0.516667 0.116297
O O5 0.750000 0.534789 0.500000
O O6 0.834647 0.459535 0.598923
O O7 0.738080 0.538862 0.665728
O O8 0.726751 0.619945 0.214031
O O9 0.686848 0.647548 0.062073
O O10 0.361320 0.873517 0.660733
O O11 0.175285 0.224414 0.439106
O O12 0.814523 0.694227 0.666920
O O13 0.660978 0.706787 0.775117
O O14 0.000000 0.250000 0.355019
#
# Coordination Sequence:
#
# PCOD9531068 Si02
#       7
#    16  16  16  16   8  16  16
#     4   9  20  36  60  88 127 171 211 248 304 380
#     4  11  22  38  62  94 138 167 208 267 309 381
#     4   9  19  38  64  90 126 172 208 245 322 380
#     4   9  20  36  58  91 122 164 212 247 310 377
#     4  10  20  42  62  92 122 168 206 258 328 392
#     4   9  20  40  64  92 121 158 221 265 308 390
#     4  10  22  41  68  90 124 160 212 276 328 368
#
# _framework density 21.903680999999999
#
# number of rings (size 3 to 8) (size 9 to 14) (size 15 to 20)
#    0.000    2.462    0.769    0.923    0.000   14.769 
#    1.385    8.462    0.000    0.000    0.000    0.000 
#    0.000    0.000    0.000    0.000    0.000    0.000 
#
# Total GULP energy -289668.155626 kJ/mol
# GULP energy per Si atom -5570.541454 kJ/mol
# Density = 2.185383 g / cm^3
# Si number density = 21.903681 Si / 1000 Ang^3
#
#
#
# Elastic Constant Matrix: (Units=GPa)
#
#
# Indices 1 2 3 4 5 6 
#
# 1 147.2710 50.7493 39.3652 0.0000 0.0000 0.0000
# 2 50.7493 104.2367 46.3607 -0.0001 0.0000 0.0000
# 3 39.3652 46.3607 70.0916 -0.0001 0.0001 0.0000
# 4 0.0000 -0.0001 -0.0001 19.6106 0.0000 0.0000
# 5 0.0000 0.0000 0.0001 0.0000 13.7403 0.0000
# 6 0.0000 0.0000 0.0000 0.0000 0.0000 8.3549
#
#
#
# Elastic Compliance Matrix: (Units=1/GPa)
#
#
# Indices 1 2 3 4 5 6 
#
# 1 0.008557 -0.002874 -0.002905 0.000000 0.000000 0.000000
# 2 -0.002874 0.014557 -0.008015 0.000000 0.000000 0.000000
# 3 -0.002905 -0.008015 0.021199 0.000000 0.000000 0.000000
# 4 0.000000 0.000000 0.000000 0.050993 0.000000 0.000000
# 5 0.000000 0.000000 0.000000 0.000000 0.072779 0.000000
# 6 0.000000 0.000000 0.000000 0.000000 0.000000 0.119691
#
#
# Mechanical properties :
#
#
# Convention : Reuss Voigt Hill
#
# Bulk Modulus (GPa) = 59.78354 66.06108 62.92231
# Shear Modulus (GPa) = 15.57927 20.68275 18.13101
#
# Velocity S-wave (km/s) = 2.66984 3.07621 2.88020
# Velocity P-wave (km/s) = 6.07101 6.54544 6.31268
#
# Compressibility (1/GPa) = 0.01672701
#
# Stress axis : x y z
#
# Youngs Moduli (GPa) = 116.86201 68.69324 47.17099
#
# Poissons Ratio (x) = 0.19744 0.13702
# Poissons Ratio (y) = 0.33589 0.37805
# Poissons Ratio (z) = 0.33946 0.55054
#
# Static dielectric constant tensor:
#      x y z
#    x 1.804550 0.000000 0.000000 
#    y 0.000000 1.844030 0.000000 
#    z 0.000000 0.000000 1.874590 
# 
# From -- ./inp_files/21460.got.cif
#   From: 2010.05.17/outbox.cif.g08.bks.cpg/sg73_11_cif.got.tgz:21460.got - 2010.06.03 17:35:07.
