data_PCOD9531040
_publ_section_title
;
Structure prediction by ZEFSAII (Michael W. Deem and Ramdas Pophale) SiO2 
 PCOD9531040
Probable space group: I B C A 
;
_chemical_formula_sum "Si O2"
_cell_formula_units_Z 80
_cell_length_a 9.202750
_cell_length_b 18.078405
_cell_length_c 24.507927
_cell_angle_alpha 90.000000
_cell_angle_beta 90.000000
_cell_angle_gamma 90.000000
_cell_volume 4077.409343
_symmetry_space_group_name_H-M "I B C A "
_symmetry_group_IT_number 73
_symmetry_cell_setting 'orthorhombic'
loop_
_space_group_symop_operation_xyz
x,y,z
-x,1/2-y,z
x,-y,1/2-z
1/2-x,y,-z
-x,-y,-z
x,1/2+y,-z
-x,y,1/2+z
1/2+x,-y,z
1/2+x,1/2+y,1/2+z
1/2-x,-y,1/2+z
1/2+x,1/2-y,-z
-x,1/2+y,1/2-z
1/2-x,1/2-y,1/2-z
1/2+x,y,1/2-z
1/2-x,1/2+y,z
x,1/2-y,1/2+z
loop_
_atom_site_type_symbol
_atom_site_label
_atom_site_fract_x
_atom_site_fract_y
_atom_site_fract_z
Si Si1 0.994084 0.915047 0.598968
Si Si2 0.370879 0.308591 0.803111
Si Si3 0.139432 0.200169 0.819526
Si Si4 0.419940 0.827524 0.010052
Si Si5 0.644785 0.073034 0.887451
O O1 0.986985 0.874519 0.540198
O O2 0.822131 0.926786 0.613167
O O3 0.086218 0.862910 0.639977
O O4 0.077292 0.992840 0.602030
O O5 0.500000 0.250000 0.800122
O O6 0.256315 0.260762 0.838687
O O7 0.314217 0.324910 0.741560
O O8 0.404270 0.385407 0.832314
O O9 0.000000 0.250000 0.811162
O O10 0.500000 0.750000 0.015934
O O11 0.250000 0.812573 0.000000
O O12 0.418450 0.876414 0.064219
#
# Coordination Sequence:
#
# PCOD9531040 Si02
#       5
#    16  16  16  16  16
#     4  11  24  40  63  89 129 166 203 259 318 372
#     4  10  22  38  65  93 123 161 215 258 307 376
#     4  10  20  41  64  90 123 166 207 260 311 368
#     4  10  23  41  66  93 121 164 212 259 312 379
#     4  11  24  41  59  93 127 162 208 257 315 377
#
# _framework density 19.620301000000001
#
# number of rings (size 3 to 8) (size 9 to 14) (size 15 to 20)
#    0.000    1.600    2.000    1.800    5.600    2.400 
#    0.000    2.000    0.000    0.000    0.000    0.000 
#    0.000    0.000    0.000    0.000    0.000    0.000 
#
# Total GULP energy -222982.300282 kJ/mol
# GULP energy per Si atom -5574.557507 kJ/mol
# Density = 1.957564 g / cm^3
# Si number density = 19.620301 Si / 1000 Ang^3
#
#
#
# Elastic Constant Matrix: (Units=GPa)
#
#
# Indices 1 2 3 4 5 6 
#
# 1 31.8116 32.1648 9.7839 0.0000 0.0000 0.0000
# 2 32.1648 151.5605 61.1112 0.0000 0.0000 0.0000
# 3 9.7839 61.1112 91.8914 0.0000 0.0000 0.0000
# 4 0.0000 0.0000 0.0000 -0.0774 0.0000 0.0000
# 5 0.0000 0.0000 0.0000 0.0000 23.0552 0.0000
# 6 0.0000 0.0000 0.0000 0.0000 0.0000 42.2793
#
#
#
# Elastic Compliance Matrix: (Units=1/GPa)
#
#
# Indices 1 2 3 4 5 6 
#
# 1 0.040266 -0.009315 0.001907 0.000000 0.000000 0.000000
# 2 -0.009315 0.011170 -0.006437 0.000000 0.000000 0.000000
# 3 0.001907 -0.006437 0.014960 0.000000 0.000000 0.000000
# 4 0.000000 0.000000 0.000000-12.922418 0.000000 0.000000
# 5 0.000000 0.000000 0.000000 0.000000 0.043374 0.000000
# 6 0.000000 0.000000 0.000000 0.000000 0.000000 0.023652
#
#
# Mechanical properties :
#
#
# Convention : Reuss Voigt Hill
#
# Bulk Modulus (GPa) = 25.83418 53.48703 39.66060
# Shear Modulus (GPa) = -0.39221 24.53167 12.06973
#
# Velocity S-wave (km/s) = -0.44758 3.53982 2.48294
# Velocity P-wave (km/s) = 3.59563 6.63531 5.33647
#
# Compressibility (1/GPa) = 0.03870841
#
# Stress axis : x y z
#
# Youngs Moduli (GPa) = 24.83460 89.52366 66.84444
#
# Poissons Ratio (x) = 0.83387 -0.12749
# Poissons Ratio (y) = 0.23132 0.43027
# Poissons Ratio (z) = -0.04737 0.57625
#
# Static dielectric constant tensor:
#      x y z
#    x 1.575860 0.000000 0.000000 
#    y 0.000000 1.657750 0.000000 
#    z 0.000000 0.000000 1.740570 
# 
# From -- ./inp_files/20743.got.cif
#   From: 2010.05.17/outbox.cif.g08.bks.cpg/sg73_11_cif.got.tgz:20743.got - 2010.06.03 17:35:07.
