data_PCOD9531539
_publ_section_title
;
Structure prediction by ZEFSAII (Michael W. Deem and Ramdas Pophale) SiO2 
 PCOD9531539
Probable space group: I B C A 
;
_chemical_formula_sum "Si O2"
_cell_formula_units_Z 88
_cell_length_a 13.253099
_cell_length_b 19.753608
_cell_length_c 17.573219
_cell_angle_alpha 90.000000
_cell_angle_beta 90.000000
_cell_angle_gamma 90.000000
_cell_volume 4600.607622
_symmetry_space_group_name_H-M "I B C A "
_symmetry_group_IT_number 73
_symmetry_cell_setting 'orthorhombic'
loop_
_space_group_symop_operation_xyz
x,y,z
-x,1/2-y,z
x,-y,1/2-z
1/2-x,y,-z
-x,-y,-z
x,1/2+y,-z
-x,y,1/2+z
1/2+x,-y,z
1/2+x,1/2+y,1/2+z
1/2-x,-y,1/2+z
1/2+x,1/2-y,-z
-x,1/2+y,1/2-z
1/2-x,1/2-y,1/2-z
1/2+x,y,1/2-z
1/2-x,1/2+y,z
x,1/2-y,1/2+z
loop_
_atom_site_type_symbol
_atom_site_label
_atom_site_fract_x
_atom_site_fract_y
_atom_site_fract_z
Si Si1 0.413651 0.621602 0.796062
Si Si2 0.603986 0.944216 0.345901
Si Si3 0.500000 0.750000 0.886092
Si Si4 0.867321 0.345796 0.483154
Si Si5 0.681277 0.406119 0.812416
Si Si6 0.508459 0.331018 0.364073
O O1 0.485627 0.560593 0.824586
O O2 0.455197 0.689209 0.836516
O O3 0.298948 0.608416 0.818572
O O4 0.431822 0.635440 0.706829
O O5 0.620557 0.909886 0.426992
O O6 0.654354 0.900757 0.277550
O O7 0.650770 0.018242 0.337986
O O8 0.413019 0.782175 0.937792
O O9 0.750000 0.336531 0.500000
O O10 0.933754 0.351436 0.559262
O O11 0.606015 0.357914 0.858242
O O12 0.500000 0.250000 0.357440
#
# Coordination Sequence:
#
# PCOD9531539 Si02
#       6
#    16  16   8  16  16  16
#     4  10  21  40  66  90 127 162 211 274 313 377
#     4   9  22  42  59  95 121 161 216 255 315 391
#     4  10  22  38  58  92 122 164 214 256 318 388
#     4  11  23  39  61  86 133 166 199 269 328 379
#     4  10  22  40  69  89 122 170 213 263 321 375
#     4  11  23  39  60 100 127 162 221 264 317 407
#
# _framework density 19.127908000000001
#
# number of rings (size 3 to 8) (size 9 to 14) (size 15 to 20)
#    0.000    1.818    1.818    1.091    2.545    8.727 
#    0.000    4.545    0.000    0.000    0.000    0.000 
#    0.000    0.000    0.000    0.000    0.000    0.000 
#
# Total GULP energy -245715.148564 kJ/mol
# GULP energy per Si atom -5584.435195 kJ/mol
# Density = 1.908437 g / cm^3
# Si number density = 19.127908 Si / 1000 Ang^3
#
#
#
# Elastic Constant Matrix: (Units=GPa)
#
#
# Indices 1 2 3 4 5 6 
#
# 1 189.6361 55.8675 51.6280 0.0000 0.0000 0.0000
# 2 55.8675 83.1907 40.1941 -0.0001 0.0000 0.0000
# 3 51.6280 40.1941 111.8039 -0.0003 0.0000 0.0000
# 4 0.0000 -0.0001 -0.0003 199.5386 0.0000 0.0000
# 5 0.0000 0.0000 0.0000 0.0000 10.8294 0.0000
# 6 0.0000 0.0000 0.0000 0.0000 0.0000 22.0651
#
#
#
# Elastic Compliance Matrix: (Units=1/GPa)
#
#
# Indices 1 2 3 4 5 6 
#
# 1 0.006871 -0.003729 -0.001832 0.000000 0.000000 0.000000
# 2 -0.003729 0.016571 -0.004236 0.000000 0.000000 0.000000
# 3 -0.001832 -0.004236 0.011313 0.000000 0.000000 0.000000
# 4 0.000000 0.000000 0.000000 0.005012 0.000000 0.000000
# 5 0.000000 0.000000 0.000000 0.000000 0.092341 0.000000
# 6 0.000000 0.000000 0.000000 0.000000 0.000000 0.045320
#
#
# Mechanical properties :
#
#
# Convention : Reuss Voigt Hill
#
# Bulk Modulus (GPa) = 65.95558 75.55665 70.75612
# Shear Modulus (GPa) = 24.74334 62.28269 43.51301
#
# Velocity S-wave (km/s) = 3.60053 5.71243 4.77471
# Velocity P-wave (km/s) = 7.20009 9.11568 8.21392
#
# Compressibility (1/GPa) = 0.01516172
#
# Stress axis : x y z
#
# Youngs Moduli (GPa) = 145.54844 60.34593 88.39422
#
# Poissons Ratio (x) = 0.22502 0.16195
# Poissons Ratio (y) = 0.54272 0.37440
# Poissons Ratio (z) = 0.26666 0.25560
#
# Static dielectric constant tensor:
#      x y z
#    x 1.655760 0.000000 0.000000 
#    y 0.000000 1.671640 0.000000 
#    z 0.000000 0.000000 1.671350 
# 
# From -- ./inp_files/11888.got.cif
#   From: 2010.05.17/outbox.cif.g08.bks.cpg/sg73_6_cif.got.tgz:11888.got - 2010.06.03 17:35:07.
