data_PCOD9531463
_publ_section_title
;
Structure prediction by ZEFSAII (Michael W. Deem and Ramdas Pophale) SiO2 
 PCOD9531463
Probable space group: I B C A 
;
_chemical_formula_sum "Si O2"
_cell_formula_units_Z 88
_cell_length_a 16.804121
_cell_length_b 22.894446
_cell_length_c 11.381388
_cell_angle_alpha 90.000000
_cell_angle_beta 90.000000
_cell_angle_gamma 90.000000
_cell_volume 4378.659437
_symmetry_space_group_name_H-M "I B C A "
_symmetry_group_IT_number 73
_symmetry_cell_setting 'orthorhombic'
loop_
_space_group_symop_operation_xyz
x,y,z
-x,1/2-y,z
x,-y,1/2-z
1/2-x,y,-z
-x,-y,-z
x,1/2+y,-z
-x,y,1/2+z
1/2+x,-y,z
1/2+x,1/2+y,1/2+z
1/2-x,-y,1/2+z
1/2+x,1/2-y,-z
-x,1/2+y,1/2-z
1/2-x,1/2-y,1/2-z
1/2+x,y,1/2-z
1/2-x,1/2+y,z
x,1/2-y,1/2+z
loop_
_atom_site_type_symbol
_atom_site_label
_atom_site_fract_x
_atom_site_fract_y
_atom_site_fract_z
Si Si1 0.821497 0.000000 0.750000
Si Si2 0.411333 0.526680 0.496431
Si Si3 0.608407 0.338445 0.432104
Si Si4 0.000000 0.250000 0.456341
Si Si5 0.647866 0.811489 0.835427
Si Si6 0.303374 0.063588 0.114805
Si Si7 0.250000 0.738197 0.500000
O O1 0.873071 0.015353 0.866151
O O2 0.760206 0.052596 0.718483
O O3 0.500000 0.500000 0.500000
O O4 0.404611 0.594481 0.533273
O O5 0.360078 0.491280 0.592574
O O6 0.529096 0.302759 0.461830
O O7 0.638920 0.322619 0.302324
O O8 0.676735 0.306302 0.505148
O O9 0.072002 0.274946 0.378899
O O10 0.646768 0.877640 0.881561
O O11 0.727584 0.781144 0.890132
O O12 0.250000 0.067371 0.000000
#
# Coordination Sequence:
#
# PCOD9531463 Si02
#       7
#     8  16  16   8  16  16   8
#     4  10  24  42  66 100 134 174 216 280 338 404
#     4  11  25  43  66 102 133 171 226 275 347 409
#     4  11  24  40  67  91 134 168 225 271 333 398
#     4  10  24  42  58  96 130 174 222 268 330 404
#     4  11  21  42  65  91 131 177 216 276 334 392
#     4  10  21  39  65  94 127 165 214 266 334 400
#     4  10  24  40  62 100 126 170 232 268 328 402
#
# _framework density 20.097474999999999
#
# number of rings (size 3 to 8) (size 9 to 14) (size 15 to 20)
#    0.000    1.455    0.909    3.273    6.364    3.636 
#    0.000    0.000    0.000    0.000    0.000    0.000 
#    0.000    0.000    0.000    0.000    0.000    0.000 
#
# Total GULP energy -245128.637965 kJ/mol
# GULP energy per Si atom -5571.105408 kJ/mol
# Density = 2.005173 g / cm^3
# Si number density = 20.097475 Si / 1000 Ang^3
#
#
#
# Elastic Constant Matrix: (Units=GPa)
#
#
# Indices 1 2 3 4 5 6 
#
# 1 69.2033 40.9881 39.5428 0.0000 0.0000 0.0000
# 2 40.9881 174.6984 39.1460 0.0000 0.0000 0.0000
# 3 39.5428 39.1460 55.3632 0.0000 0.0000 0.0000
# 4 0.0000 0.0000 0.0000 16.2966 0.0000 0.0000
# 5 0.0000 0.0000 0.0000 0.0000 18.2224 0.0000
# 6 0.0000 0.0000 0.0000 0.0000 0.0000 40.7905
#
#
#
# Elastic Compliance Matrix: (Units=1/GPa)
#
#
# Indices 1 2 3 4 5 6 
#
# 1 0.025122 -0.002226 -0.016369 0.000000 0.000000 0.000000
# 2 -0.002226 0.006999 -0.003359 0.000000 0.000000 0.000000
# 3 -0.016369 -0.003359 0.032129 0.000000 0.000000 0.000000
# 4 0.000000 0.000000 0.000000 0.061362 0.000000 0.000000
# 5 0.000000 0.000000 0.000000 0.000000 0.054878 0.000000
# 6 0.000000 0.000000 0.000000 0.000000 0.000000 0.024516
#
#
# Mechanical properties :
#
#
# Convention : Reuss Voigt Hill
#
# Bulk Modulus (GPa) = 49.15988 59.84654 54.50321
# Shear Modulus (GPa) = 19.55457 27.03443 23.29450
#
# Velocity S-wave (km/s) = 3.12266 3.67163 3.40821
# Velocity P-wave (km/s) = 6.12496 6.91500 6.53194
#
# Compressibility (1/GPa) = 0.02034179
#
# Stress axis : x y z
#
# Youngs Moduli (GPa) = 39.80566 142.87522 31.12454
#
# Poissons Ratio (x) = 0.31807 0.50948
# Poissons Ratio (y) = 0.08862 0.10454
# Poissons Ratio (z) = 0.65158 0.47989
#
# Static dielectric constant tensor:
#      x y z
#    x 1.752000 0.000000 0.000000 
#    y 0.000000 1.658630 0.000000 
#    z 0.000000 0.000000 1.805640 
# 
# From -- ./inp_files/10992.got.cif
#   From: 2010.05.17/outbox.cif.g08.bks.cpg/sg73_6_cif.got.tgz:10992.got - 2010.06.03 17:35:07.
