data_PCOD9531092
_publ_section_title
;
Structure prediction by ZEFSAII (Michael W. Deem and Ramdas Pophale) SiO2 
 PCOD9531092
Probable space group: I B C A 
;
_chemical_formula_sum "Si O2"
_cell_formula_units_Z 120
_cell_length_a 21.794915
_cell_length_b 20.505023
_cell_length_c 11.330196
_cell_angle_alpha 90.000000
_cell_angle_beta 90.000000
_cell_angle_gamma 90.000000
_cell_volume 5063.523887
_symmetry_space_group_name_H-M "I B C A "
_symmetry_group_IT_number 73
_symmetry_cell_setting 'orthorhombic'
loop_
_space_group_symop_operation_xyz
x,y,z
-x,1/2-y,z
x,-y,1/2-z
1/2-x,y,-z
-x,-y,-z
x,1/2+y,-z
-x,y,1/2+z
1/2+x,-y,z
1/2+x,1/2+y,1/2+z
1/2-x,-y,1/2+z
1/2+x,1/2-y,-z
-x,1/2+y,1/2-z
1/2-x,1/2-y,1/2-z
1/2+x,y,1/2-z
1/2-x,1/2+y,z
x,1/2-y,1/2+z
loop_
_atom_site_type_symbol
_atom_site_label
_atom_site_fract_x
_atom_site_fract_y
_atom_site_fract_z
Si Si1 0.065342 0.433376 0.329348
Si Si2 0.074489 0.928877 0.199312
Si Si3 0.689921 0.100856 0.050921
Si Si4 0.682358 0.227565 0.172444
Si Si5 0.379557 0.616567 0.052645
Si Si6 0.624286 0.325891 0.338790
Si Si7 0.750000 0.329055 0.000000
Si Si8 0.934426 0.253139 0.472149
O O1 0.069432 0.500000 0.250000
O O2 0.096513 0.437483 0.458833
O O3 0.101726 0.376074 0.259939
O O4 0.993860 0.411709 0.345662
O O5 0.131211 0.932858 0.108959
O O6 0.097088 0.890251 0.314515
O O7 0.064895 0.000000 0.250000
O O8 0.710232 0.156368 0.147783
O O9 0.750000 0.064395 0.000000
O O10 0.663604 0.136926 0.936025
O O11 0.664672 0.264944 0.291870
O O12 0.720374 0.281008 0.097859
O O13 0.615253 0.217851 0.115427
O O14 0.306345 0.627371 0.046817
O O15 0.410084 0.682561 0.004897
O O16 0.566488 0.296521 0.409874
O O17 0.000000 0.250000 0.415631
#
# Coordination Sequence:
#
# PCOD9531092 Si02
#       8
#    16  16  16  16  16  16   8  16
#     4  11  26  45  75 101 136 193 244 299 356 431
#     4  11  28  47  69 100 139 185 240 303 358 419
#     4  11  26  43  68 103 139 188 234 294 366 435
#     4  10  21  39  64 100 137 180 226 282 361 429
#     4  11  24  46  72 102 139 190 230 295 363 432
#     4  11  23  40  67 101 137 178 234 292 347 435
#     4  10  20  42  68 100 136 180 230 272 360 442
#     4  10  21  36  62  99 136 172 217 289 355 417
#
# _framework density 23.698912
#
# number of rings (size 3 to 8) (size 9 to 14) (size 15 to 20)
#    0.000    1.333    3.333    1.600    9.333    2.133 
#    1.200    1.333    0.000    0.000    0.000    0.000 
#    0.000    0.000    0.000    0.000    0.000    0.000 
#
# Total GULP energy -335237.245312 kJ/mol
# GULP energy per Si atom -5587.287422 kJ/mol
# Density = 2.364497 g / cm^3
# Si number density = 23.698912 Si / 1000 Ang^3
#
#
#
# Elastic Constant Matrix: (Units=GPa)
#
#
# Indices 1 2 3 4 5 6 
#
# 1 167.0082 17.2652 40.4462 0.0000 0.0000 0.0000
# 2 17.2652 43.6897 15.8295 0.0000 0.0000 0.0000
# 3 40.4462 15.8295 98.0354 0.0000 0.0000 0.0000
# 4 0.0000 0.0000 0.0000 36.8768 0.0000 0.0000
# 5 0.0000 0.0000 0.0000 0.0000 20.8476 0.0000
# 6 0.0000 0.0000 0.0000 0.0000 0.0000 28.6100
#
#
#
# Elastic Compliance Matrix: (Units=1/GPa)
#
#
# Indices 1 2 3 4 5 6 
#
# 1 0.006779 -0.001769 -0.002511 0.000000 0.000000 0.000000
# 2 -0.001769 0.024773 -0.003270 0.000000 0.000000 0.000000
# 3 -0.002511 -0.003270 0.011764 0.000000 0.000000 0.000000
# 4 0.000000 0.000000 0.000000 0.027117 0.000000 0.000000
# 5 0.000000 0.000000 0.000000 0.000000 0.047967 0.000000
# 6 0.000000 0.000000 0.000000 0.000000 0.000000 0.034953
#
#
# Mechanical properties :
#
#
# Convention : Reuss Voigt Hill
#
# Bulk Modulus (GPa) = 35.44171 50.64612 43.04392
# Shear Modulus (GPa) = 28.11223 32.94637 30.52930
#
# Velocity S-wave (km/s) = 3.44790 3.73259 3.59307
# Velocity P-wave (km/s) = 5.55321 6.32403 5.95111
#
# Compressibility (1/GPa) = 0.02821534
#
# Stress axis : x y z
#
# Youngs Moduli (GPa) = 147.52011 40.36722 85.00230
#
# Poissons Ratio (x) = 0.07141 0.21344
# Poissons Ratio (y) = 0.26096 0.27797
# Poissons Ratio (z) = 0.37043 0.13201
#
# Static dielectric constant tensor:
#      x y z
#    x 1.937310 0.000000 0.000000 
#    y 0.000000 1.966710 0.000000 
#    z 0.000000 0.000000 1.962220 
# 
# From -- ./inp_files/13106.got.cif
#   From: 2010.05.17/outbox.cif.g08.bks.cpg/sg73_7_cif.got.tgz:13106.got - 2010.06.03 17:35:07.
