data_PCOD9531709
_publ_section_title
;
Structure prediction by ZEFSAII (Michael W. Deem and Ramdas Pophale) SiO2 
 PCOD9531709
Probable space group: I B C A 
;
_chemical_formula_sum "Si O2"
_cell_formula_units_Z 96
_cell_length_a 19.281306
_cell_length_b 14.974389
_cell_length_c 15.506673
_cell_angle_alpha 90.000000
_cell_angle_beta 90.000000
_cell_angle_gamma 90.000000
_cell_volume 4477.176202
_symmetry_space_group_name_H-M "I B C A "
_symmetry_group_IT_number 73
_symmetry_cell_setting 'orthorhombic'
loop_
_space_group_symop_operation_xyz
x,y,z
-x,1/2-y,z
x,-y,1/2-z
1/2-x,y,-z
-x,-y,-z
x,1/2+y,-z
-x,y,1/2+z
1/2+x,-y,z
1/2+x,1/2+y,1/2+z
1/2-x,-y,1/2+z
1/2+x,1/2-y,-z
-x,1/2+y,1/2-z
1/2-x,1/2-y,1/2-z
1/2+x,y,1/2-z
1/2-x,1/2+y,z
x,1/2-y,1/2+z
loop_
_atom_site_type_symbol
_atom_site_label
_atom_site_fract_x
_atom_site_fract_y
_atom_site_fract_z
Si Si1 0.271819 0.405723 0.285445
Si Si2 0.048169 0.085243 0.507594
Si Si3 0.073202 0.208087 0.647997
Si Si4 0.913450 0.814380 0.026482
Si Si5 0.664122 0.248155 0.688272
Si Si6 0.326541 0.021719 0.960812
O O1 0.240703 0.500000 0.250000
O O2 0.308478 0.347812 0.209564
O O3 0.222877 0.327828 0.324064
O O4 0.319768 0.439847 0.363961
O O5 0.060845 0.110938 0.607486
O O6 0.994419 0.157913 0.469798
O O7 0.121888 0.062645 0.465913
O O8 0.000000 0.000000 0.500000
O O9 0.097680 0.262063 0.563245
O O10 0.125780 0.216334 0.724949
O O11 0.000000 0.250000 0.675292
O O12 0.886236 0.759979 0.107595
O O13 0.865934 0.902961 0.017259
O O14 0.250000 0.004788 0.000000
#
# Coordination Sequence:
#
# PCOD9531709 Si02
#       6
#    16  16  16  16  16  16
#     4  11  26  43  64 102 142 175 233 287 342 425
#     4   9  22  40  65  95 131 177 226 279 345 412
#     4  10  22  41  65  93 133 176 227 283 343 409
#     4  10  21  43  67  95 136 177 226 285 346 419
#     4  11  24  44  70 100 137 184 230 284 351 415
#     4  11  21  42  66  96 137 182 224 289 351 410
#
# _framework density 21.442086
#
# number of rings (size 3 to 8) (size 9 to 14) (size 15 to 20)
#    0.000    1.667    3.333    0.000    4.667    2.000 
#    0.000    0.833    0.000    0.000    0.000    0.000 
#    0.000    0.000    0.000    0.000    0.000    0.000 
#
# Total GULP energy -267738.302379 kJ/mol
# GULP energy per Si atom -5577.881300 kJ/mol
# Density = 2.139328 g / cm^3
# Si number density = 21.442086 Si / 1000 Ang^3
#
#
#
# Elastic Constant Matrix: (Units=GPa)
#
#
# Indices 1 2 3 4 5 6 
#
# 1 97.4798 21.7895 26.9394 0.0000 0.0000 0.0000
# 2 21.7895 116.4402 15.9966 0.0000 0.0000 0.0000
# 3 26.9394 15.9966 55.3981 0.0000 0.0000 0.0000
# 4 0.0000 0.0000 0.0000 12.4475 0.0000 0.0000
# 5 0.0000 0.0000 0.0000 0.0000 36.2987 0.0000
# 6 0.0000 0.0000 0.0000 0.0000 0.0000 37.1896
#
#
#
# Elastic Compliance Matrix: (Units=1/GPa)
#
#
# Indices 1 2 3 4 5 6 
#
# 1 0.012103 -0.001516 -0.005448 0.000000 0.000000 0.000000
# 2 -0.001516 0.009133 -0.001900 0.000000 0.000000 0.000000
# 3 -0.005448 -0.001900 0.021249 0.000000 0.000000 0.000000
# 4 0.000000 0.000000 0.000000 0.080337 0.000000 0.000000
# 5 0.000000 0.000000 0.000000 0.000000 0.027549 0.000000
# 6 0.000000 0.000000 0.000000 0.000000 0.000000 0.026889
#
#
# Mechanical properties :
#
#
# Convention : Reuss Voigt Hill
#
# Bulk Modulus (GPa) = 40.39259 44.30768 42.35013
# Shear Modulus (GPa) = 24.60140 30.82667 27.71403
#
# Velocity S-wave (km/s) = 3.39092 3.79578 3.59904
# Velocity P-wave (km/s) = 5.84893 6.31817 6.08807
#
# Compressibility (1/GPa) = 0.02475702
#
# Stress axis : x y z
#
# Youngs Moduli (GPa) = 82.62403 109.49474 47.06140
#
# Poissons Ratio (x) = 0.16604 0.25637
# Poissons Ratio (y) = 0.12529 0.08940
# Poissons Ratio (z) = 0.45011 0.20801
#
# Static dielectric constant tensor:
#      x y z
#    x 1.372820 0.000000 0.000000 
#    y 0.000000 1.881540 0.000000 
#    z 0.000000 0.000000 1.741540 
# 
# From -- ./inp_files/18606.got.cif
#   From: 2010.05.17/outbox.cif.g08.bks.cpg/sg73_10_cif.got.tgz:18606.got - 2010.06.03 17:35:07.
