data_PCOD9531191
_publ_section_title
;
Structure prediction by ZEFSAII (Michael W. Deem and Ramdas Pophale) SiO2 
 PCOD9531191
Probable space group: I B C A 
;
_chemical_formula_sum "Si O2"
_cell_formula_units_Z 72
_cell_length_a 14.332988
_cell_length_b 7.659396
_cell_length_c 25.787658
_cell_angle_alpha 90.000000
_cell_angle_beta 90.000000
_cell_angle_gamma 90.000000
_cell_volume 2831.021469
_symmetry_space_group_name_H-M "I B C A "
_symmetry_group_IT_number 73
_symmetry_cell_setting 'orthorhombic'
loop_
_space_group_symop_operation_xyz
x,y,z
-x,1/2-y,z
x,-y,1/2-z
1/2-x,y,-z
-x,-y,-z
x,1/2+y,-z
-x,y,1/2+z
1/2+x,-y,z
1/2+x,1/2+y,1/2+z
1/2-x,-y,1/2+z
1/2+x,1/2-y,-z
-x,1/2+y,1/2-z
1/2-x,1/2-y,1/2-z
1/2+x,y,1/2-z
1/2-x,1/2+y,z
x,1/2-y,1/2+z
loop_
_atom_site_type_symbol
_atom_site_label
_atom_site_fract_x
_atom_site_fract_y
_atom_site_fract_z
Si Si1 0.364829 0.987600 0.113739
Si Si2 0.754235 0.000000 0.750000
Si Si3 0.279599 0.699238 0.440460
Si Si4 0.969884 0.049565 0.942110
Si Si5 0.112689 0.248162 0.790135
O O1 0.325793 0.112332 0.067897
O O2 0.470196 0.942344 0.098829
O O3 0.366507 0.115700 0.162604
O O4 0.296754 0.827020 0.104634
O O5 0.675379 0.844876 0.746016
O O6 0.832382 0.934364 0.707020
O O7 0.250000 0.691868 0.500000
O O8 0.360387 0.553970 0.434250
O O9 0.000000 0.250000 0.932749
O O10 0.000000 0.000000 0.000000
O O11 0.000000 0.250000 0.782592
#
# Coordination Sequence:
#
# PCOD9531191 Si02
#       5
#    16   8  16  16  16
#     4  11  23  37  58  86 117 158 200 253 299 365
#     4  10  24  42  70  96 122 164 206 268 336 406
#     4  11  21  35  55  80 117 160 204 244 294 350
#     4  10  21  35  52  77 113 157 200 242 292 344
#     4  11  22  43  67  95 128 161 209 264 335 396
#
# _framework density 25.432517000000001
#
# number of rings (size 3 to 8) (size 9 to 14) (size 15 to 20)
#    0.000    1.333    2.222    4.667    3.111    0.000 
#    0.000    0.000    0.000    5.333    0.000    0.000 
#    0.000    0.000    0.000    0.000    0.000    0.000 
#
# Total GULP energy -200452.368154 kJ/mol
# GULP energy per Si atom -5568.121338 kJ/mol
# Density = 2.537463 g / cm^3
# Si number density = 25.432517 Si / 1000 Ang^3
#
#
#
# Elastic Constant Matrix: (Units=GPa)
#
#
# Indices 1 2 3 4 5 6 
#
# 1 176.1751 36.7937 17.4893 0.0000 0.0000 0.0000
# 2 36.7937 72.6366 5.0552 0.0000 0.0000 0.0000
# 3 17.4893 5.0552 61.0846 0.0000 0.0000 0.0000
# 4 0.0000 0.0000 0.0000 28.3218 0.0000 0.0000
# 5 0.0000 0.0000 0.0000 0.0000 26.8695 0.0000
# 6 0.0000 0.0000 0.0000 0.0000 0.0000 35.9808
#
#
#
# Elastic Compliance Matrix: (Units=1/GPa)
#
#
# Indices 1 2 3 4 5 6 
#
# 1 0.006499 -0.003181 -0.001598 0.000000 0.000000 0.000000
# 2 -0.003181 0.015404 -0.000364 0.000000 0.000000 0.000000
# 3 -0.001598 -0.000364 0.016858 0.000000 0.000000 0.000000
# 4 0.000000 0.000000 0.000000 0.035309 0.000000 0.000000
# 5 0.000000 0.000000 0.000000 0.000000 0.037217 0.000000
# 6 0.000000 0.000000 0.000000 0.000000 0.000000 0.027793
#
#
# Mechanical properties :
#
#
# Convention : Reuss Voigt Hill
#
# Bulk Modulus (GPa) = 35.11707 47.61919 41.36813
# Shear Modulus (GPa) = 31.47501 34.93828 33.20665
#
# Velocity S-wave (km/s) = 3.52176 3.71045 3.61734
# Velocity P-wave (km/s) = 5.51135 6.09270 5.80930
#
# Compressibility (1/GPa) = 0.02847618
#
# Stress axis : x y z
#
# Youngs Moduli (GPa) = 153.86785 64.91916 59.31808
#
# Poissons Ratio (x) = 0.20650 0.09476
# Poissons Ratio (y) = 0.48944 0.02159
# Poissons Ratio (z) = 0.24581 0.02363
#
# Static dielectric constant tensor:
#      x y z
#    x 2.176120 0.000000 0.000000 
#    y 0.000000 2.001520 0.000000 
#    z 0.000000 0.000000 2.466490 
# 
# From -- ./inp_files/4888.got.cif
#   From: 2010.05.17/outbox.cif.g08.bks.cpg/sg73_3_cif.got.tgz:4888.got - 2010.06.03 17:35:07.
