data_PCOD9531153
_publ_section_title
;
Structure prediction by ZEFSAII (Michael W. Deem and Ramdas Pophale) SiO2 
 PCOD9531153
Probable space group: I B C A 
;
_chemical_formula_sum "Si O2"
_cell_formula_units_Z 112
_cell_length_a 13.767359
_cell_length_b 14.544873
_cell_length_c 24.230120
_cell_angle_alpha 90.000000
_cell_angle_beta 90.000000
_cell_angle_gamma 90.000000
_cell_volume 4851.947978
_symmetry_space_group_name_H-M "I B C A "
_symmetry_group_IT_number 73
_symmetry_cell_setting 'orthorhombic'
loop_
_space_group_symop_operation_xyz
x,y,z
-x,1/2-y,z
x,-y,1/2-z
1/2-x,y,-z
-x,-y,-z
x,1/2+y,-z
-x,y,1/2+z
1/2+x,-y,z
1/2+x,1/2+y,1/2+z
1/2-x,-y,1/2+z
1/2+x,1/2-y,-z
-x,1/2+y,1/2-z
1/2-x,1/2-y,1/2-z
1/2+x,y,1/2-z
1/2-x,1/2+y,z
x,1/2-y,1/2+z
loop_
_atom_site_type_symbol
_atom_site_label
_atom_site_fract_x
_atom_site_fract_y
_atom_site_fract_z
Si Si1 0.938377 0.093858 0.507801
Si Si2 0.000000 0.750000 0.409712
Si Si3 0.250000 0.006376 0.000000
Si Si4 0.715264 0.582618 0.894653
Si Si5 0.554153 0.999142 0.313025
Si Si6 0.083722 0.825872 0.704528
Si Si7 0.611900 0.148761 0.825829
Si Si8 0.612104 0.272533 0.092845
O O1 0.901731 0.150124 0.453614
O O2 0.988213 0.163740 0.549420
O O3 0.834620 0.061882 0.529221
O O4 0.000000 0.000000 0.500000
O O5 0.910416 0.769631 0.368826
O O6 0.280653 0.948850 0.052832
O O7 0.629420 0.527136 0.861870
O O8 0.795812 0.596413 0.848497
O O9 0.665123 0.676330 0.918421
O O10 0.473171 0.919118 0.309274
O O11 0.596856 0.000000 0.250000
O O12 0.488873 0.089602 0.324413
O O13 0.134933 0.827367 0.763025
O O14 0.151004 0.806183 0.651885
O O15 0.000000 0.750000 0.712684
O O16 0.500000 0.250000 0.104121
#
# Coordination Sequence:
#
# PCOD9531153 Si02
#       8
#    16   8   8  16  16  16  16  16
#     4  12  28  50  74 106 143 202 248 303 369 435
#     4  12  26  46  76 102 152 198 248 308 372 434
#     4  12  30  44  72 104 156 186 254 302 356 442
#     4  12  26  46  73 110 145 197 248 304 369 448
#     4  10  23  46  73 105 149 189 242 307 366 441
#     4  10  20  44  71 102 141 188 235 307 366 437
#     4  11  26  44  74 106 148 191 245 304 370 443
#     4  11  23  43  76 101 144 191 244 300 365 431
#
# _framework density 23.083513
#
# number of rings (size 3 to 8) (size 9 to 14) (size 15 to 20)
#    0.000    0.857    4.286    2.571    8.000    2.286 
#    0.000    0.000    0.000    0.000    0.000    0.000 
#    0.000    0.000    0.000    0.000    0.000    0.000 
#
# Total GULP energy -312271.426610 kJ/mol
# GULP energy per Si atom -5576.275475 kJ/mol
# Density = 2.303097 g / cm^3
# Si number density = 23.083513 Si / 1000 Ang^3
#
#
#
# Elastic Constant Matrix: (Units=GPa)
#
#
# Indices 1 2 3 4 5 6 
#
# 1 55.3264 1.1378 4.2290 0.0000 0.0000 0.0000
# 2 1.1378 72.1060 20.8595 0.0000 0.0000 0.0000
# 3 4.2290 20.8595 115.5635 0.0000 0.0000 0.0000
# 4 0.0000 0.0000 0.0000 20.8939 0.0000 0.0000
# 5 0.0000 0.0000 0.0000 0.0000 12.9911 0.0000
# 6 0.0000 0.0000 0.0000 0.0000 0.0000 4.1469
#
#
#
# Elastic Compliance Matrix: (Units=1/GPa)
#
#
# Indices 1 2 3 4 5 6 
#
# 1 0.018126 -0.000099 -0.000645 0.000000 0.000000 0.000000
# 2 -0.000099 0.014633 -0.002638 0.000000 0.000000 0.000000
# 3 -0.000645 -0.002638 0.009153 0.000000 0.000000 0.000000
# 4 0.000000 0.000000 0.000000 0.047861 0.000000 0.000000
# 5 0.000000 0.000000 0.000000 0.000000 0.076976 0.000000
# 6 0.000000 0.000000 0.000000 0.000000 0.000000 0.241145
#
#
# Mechanical properties :
#
#
# Convention : Reuss Voigt Hill
#
# Bulk Modulus (GPa) = 28.45174 32.82761 30.63967
# Shear Modulus (GPa) = 11.72678 22.05767 16.89223
#
# Velocity S-wave (km/s) = 2.25637 3.09457 2.70809
# Velocity P-wave (km/s) = 4.37499 5.19813 4.80422
#
# Compressibility (1/GPa) = 0.03514724
#
# Stress axis : x y z
#
# Youngs Moduli (GPa) = 55.16958 68.33827 109.25407
#
# Poissons Ratio (x) = 0.00679 0.07051
# Poissons Ratio (y) = 0.00548 0.28818
# Poissons Ratio (z) = 0.03561 0.18025
#
# Static dielectric constant tensor:
#      x y z
#    x 1.861620 0.000000 0.000000 
#    y 0.000000 2.225790 0.000000 
#    z 0.000000 0.000000 2.078340 
# 
# From -- ./inp_files/29594.got.cif
#   From: 2010.05.17/outbox.cif.g08.bks.cpg/sg73_15_cif.got.tgz:29594.got - 2010.06.03 17:35:07.
