data_PCOD9531418
_publ_section_title
;
Structure prediction by ZEFSAII (Michael W. Deem and Ramdas Pophale) SiO2 
 PCOD9531418
Probable space group: I B C A 
;
_chemical_formula_sum "Si O2"
_cell_formula_units_Z 120
_cell_length_a 26.185026
_cell_length_b 21.998814
_cell_length_c 9.731562
_cell_angle_alpha 90.000000
_cell_angle_beta 90.000000
_cell_angle_gamma 90.000000
_cell_volume 5605.764270
_symmetry_space_group_name_H-M "I B C A "
_symmetry_group_IT_number 73
_symmetry_cell_setting 'orthorhombic'
loop_
_space_group_symop_operation_xyz
x,y,z
-x,1/2-y,z
x,-y,1/2-z
1/2-x,y,-z
-x,-y,-z
x,1/2+y,-z
-x,y,1/2+z
1/2+x,-y,z
1/2+x,1/2+y,1/2+z
1/2-x,-y,1/2+z
1/2+x,1/2-y,-z
-x,1/2+y,1/2-z
1/2-x,1/2-y,1/2-z
1/2+x,y,1/2-z
1/2-x,1/2+y,z
x,1/2-y,1/2+z
loop_
_atom_site_type_symbol
_atom_site_label
_atom_site_fract_x
_atom_site_fract_y
_atom_site_fract_z
Si Si1 0.064293 0.930157 0.943620
Si Si2 0.946371 0.432112 0.046148
Si Si3 0.381481 0.883180 0.785424
Si Si4 0.791613 0.805421 0.115142
Si Si5 0.432794 0.769365 0.699246
Si Si6 0.396605 0.138647 0.194610
Si Si7 0.719602 0.167159 0.131149
Si Si8 0.500000 0.750000 0.937690
O O1 0.099154 0.911434 0.814853
O O2 0.004580 0.916242 0.910718
O O3 0.087807 0.894787 0.073693
O O4 0.060688 0.000806 0.984087
O O5 0.907738 0.426293 0.173415
O O6 0.932084 0.386195 0.925441
O O7 0.388141 0.817068 0.714402
O O8 0.321830 0.881705 0.820267
O O9 0.842152 0.845695 0.127538
O O10 0.761376 0.815956 0.255871
O O11 0.805026 0.733668 0.094313
O O12 0.750000 0.821621 0.000000
O O13 0.416054 0.701448 0.736913
O O14 0.457705 0.770429 0.548977
O O15 0.471179 0.790424 0.822416
O O16 0.750000 0.144280 0.000000
#
# Coordination Sequence:
#
# PCOD9531418 Si02
#       8
#    16  16  16  16  16  16  16   8
#     4  11  26  44  64  90 126 177 224 265 315 379
#     4  11  26  44  64  90 126 177 224 265 315 379
#     4  12  23  40  66  93 128 166 219 267 319 391
#     4  10  21  39  61  92 131 166 203 254 320 394
#     4  11  24  36  56  95 126 167 206 258 331 394
#     4  12  23  40  66  93 128 166 219 267 319 391
#     4  10  21  39  61  92 131 166 203 254 320 394
#     4  10  24  34  48  80 138 164 192 246 324 392
#
# _framework density 21.406535999999999
#
# number of rings (size 3 to 8) (size 9 to 14) (size 15 to 20)
#    0.000    1.067    1.333    4.800   11.200    2.133 
#    0.000    0.000    0.000   12.000    0.000    0.000 
#    0.000    0.000    0.000    0.000    0.000    0.000 
#
# Total GULP energy -335020.568058 kJ/mol
# GULP energy per Si atom -5583.676134 kJ/mol
# Density = 2.135781 g / cm^3
# Si number density = 21.406536 Si / 1000 Ang^3
#
#
#
# Elastic Constant Matrix: (Units=GPa)
#
#
# Indices 1 2 3 4 5 6 
#
# 1 81.9820 24.9314 17.8810 0.0000 0.0000 0.0000
# 2 24.9314 30.8848 -4.5969 0.0000 0.0000 0.0000
# 3 17.8810 -4.5969 110.7794 0.0000 0.0000 0.0000
# 4 0.0000 0.0000 0.0000 30.4906 0.0000 0.0000
# 5 0.0000 0.0000 0.0000 0.0000 21.4363 0.0000
# 6 0.0000 0.0000 0.0000 0.0000 0.0000 30.2418
#
#
#
# Elastic Compliance Matrix: (Units=1/GPa)
#
#
# Indices 1 2 3 4 5 6 
#
# 1 0.017355 -0.014516 -0.003404 0.000000 0.000000 0.000000
# 2 -0.014516 0.044721 0.004199 0.000000 0.000000 0.000000
# 3 -0.003404 0.004199 0.009751 0.000000 0.000000 0.000000
# 4 0.000000 0.000000 0.000000 0.032797 0.000000 0.000000
# 5 0.000000 0.000000 0.000000 0.000000 0.046650 0.000000
# 6 0.000000 0.000000 0.000000 0.000000 0.000000 0.033067
#
#
# Mechanical properties :
#
#
# Convention : Reuss Voigt Hill
#
# Bulk Modulus (GPa) = 22.53018 33.34189 27.93604
# Shear Modulus (GPa) = 22.06765 28.79579 25.43172
#
# Velocity S-wave (km/s) = 3.21422 3.67166 3.45053
# Velocity P-wave (km/s) = 4.93181 5.79518 5.38084
#
# Compressibility (1/GPa) = 0.04438491
#
# Stress axis : x y z
#
# Youngs Moduli (GPa) = 57.62186 22.36082 102.55836
#
# Poissons Ratio (x) = 0.32459 0.34906
# Poissons Ratio (y) = 0.83643 -0.43062
# Poissons Ratio (z) = 0.19612 -0.09389
#
# Static dielectric constant tensor:
#      x y z
#    x 1.818080 0.000000 0.000000 
#    y 0.000000 1.818640 0.000000 
#    z 0.000000 0.000000 1.760410 
# 
# From -- ./inp_files/8065.got.cif
#   From: 2010.05.17/outbox.cif.g08.bks.cpg/sg73_5_cif.got.tgz:8065.got - 2010.06.03 17:35:07.
