data_PCOD9531574
_publ_section_title
;
Structure prediction by ZEFSAII (Michael W. Deem and Ramdas Pophale) SiO2 
 PCOD9531574
Probable space group: I B C A 
;
_chemical_formula_sum "Si O2"
_cell_formula_units_Z 120
_cell_length_a 23.201558
_cell_length_b 9.372272
_cell_length_c 22.039396
_cell_angle_alpha 90.000000
_cell_angle_beta 90.000000
_cell_angle_gamma 90.000000
_cell_volume 4792.495585
_symmetry_space_group_name_H-M "I B C A "
_symmetry_group_IT_number 73
_symmetry_cell_setting 'orthorhombic'
loop_
_space_group_symop_operation_xyz
x,y,z
-x,1/2-y,z
x,-y,1/2-z
1/2-x,y,-z
-x,-y,-z
x,1/2+y,-z
-x,y,1/2+z
1/2+x,-y,z
1/2+x,1/2+y,1/2+z
1/2-x,-y,1/2+z
1/2+x,1/2-y,-z
-x,1/2+y,1/2-z
1/2-x,1/2-y,1/2-z
1/2+x,y,1/2-z
1/2-x,1/2+y,z
x,1/2-y,1/2+z
loop_
_atom_site_type_symbol
_atom_site_label
_atom_site_fract_x
_atom_site_fract_y
_atom_site_fract_z
Si Si1 0.298733 0.737265 0.455142
Si Si2 0.790059 0.860631 0.780333
Si Si3 0.492740 0.500000 0.250000
Si Si4 0.993782 0.081616 0.112526
Si Si5 0.878110 0.546654 0.618142
Si Si6 0.688564 0.729806 0.103792
Si Si7 0.106808 0.815588 0.198656
Si Si8 0.378491 0.002205 0.578854
O O1 0.250000 0.805670 0.500000
O O2 0.335206 0.860610 0.423515
O O3 0.247235 0.656367 0.419101
O O4 0.346064 0.611721 0.467274
O O5 0.750000 0.750000 0.750000
O O6 0.785220 0.844452 0.850471
O O7 0.854315 0.832393 0.757779
O O8 0.768685 0.000000 0.750000
O O9 0.516622 0.434270 0.313535
O O10 0.453890 0.624573 0.280172
O O11 0.000000 0.250000 0.100349
O O12 0.052195 0.011621 0.085341
O O13 0.938038 0.999509 0.086722
O O14 0.848219 0.396327 0.633272
O O15 0.891841 0.656140 0.672938
O O16 0.645877 0.840848 0.068973
O O17 0.132211 0.918238 0.144958
#
# Coordination Sequence:
#
# PCOD9531574 Si02
#       8
#    16  16   8  16  16  16  16  16
#     4  11  27  49  76 103 136 180 247 328 399 464
#     4  12  24  35  56  89 140 198 245 290 357 438
#     4  10  22  36  64  94 154 210 268 294 338 436
#     4  11  23  41  67 107 154 205 250 309 368 443
#     4  11  26  42  72 107 148 192 252 312 378 450
#     4  12  24  42  67 102 144 186 244 306 378 451
#     4  10  21  41  57  94 145 200 248 299 342 422
#     4  10  21  44  70  97 144 190 236 300 374 441
#
# _framework density 25.039147
#
# number of rings (size 3 to 8) (size 9 to 14) (size 15 to 20)
#    0.000    1.067    3.333    3.200    5.600    6.400 
#    0.000    0.000    0.000    4.800    0.000    0.000 
#    0.000    0.000    0.000    0.000    0.000    0.000 
#
# Total GULP energy -334285.139587 kJ/mol
# GULP energy per Si atom -5571.418993 kJ/mol
# Density = 2.498216 g / cm^3
# Si number density = 25.039147 Si / 1000 Ang^3
#
#
#
# Elastic Constant Matrix: (Units=GPa)
#
#
# Indices 1 2 3 4 5 6 
#
# 1 131.2596 38.8216 11.5815 0.0000 0.0000 0.0000
# 2 38.8216 167.4695 9.5233 0.0000 0.0000 0.0000
# 3 11.5815 9.5233 35.6139 0.0000 0.0000 0.0000
# 4 0.0000 0.0000 0.0000 21.0428 0.0000 0.0000
# 5 0.0000 0.0000 0.0000 0.0000 27.1937 0.0000
# 6 0.0000 0.0000 0.0000 0.0000 0.0000 41.9803
#
#
#
# Elastic Compliance Matrix: (Units=1/GPa)
#
#
# Indices 1 2 3 4 5 6 
#
# 1 0.008350 -0.001809 -0.002232 0.000000 0.000000 0.000000
# 2 -0.001809 0.006455 -0.001138 0.000000 0.000000 0.000000
# 3 -0.002232 -0.001138 0.029109 0.000000 0.000000 0.000000
# 4 0.000000 0.000000 0.000000 0.047522 0.000000 0.000000
# 5 0.000000 0.000000 0.000000 0.000000 0.036773 0.000000
# 6 0.000000 0.000000 0.000000 0.000000 0.000000 0.023821
#
#
# Mechanical properties :
#
#
# Convention : Reuss Voigt Hill
#
# Bulk Modulus (GPa) = 29.79962 50.46620 40.13291
# Shear Modulus (GPa) = 28.80617 36.33779 32.57198
#
# Velocity S-wave (km/s) = 3.39550 3.81365 3.61063
# Velocity P-wave (km/s) = 5.22490 6.29210 5.78317
#
# Compressibility (1/GPa) = 0.03355748
#
# Stress axis : x y z
#
# Youngs Moduli (GPa) = 119.75490 154.91267 34.35362
#
# Poissons Ratio (x) = 0.28021 0.07667
# Poissons Ratio (y) = 0.21661 0.03909
# Poissons Ratio (z) = 0.26727 0.17628
#
# Static dielectric constant tensor:
#      x y z
#    x 1.892710 0.000000 0.000000 
#    y 0.000000 1.959660 0.000000 
#    z 0.000000 0.000000 2.406060 
# 
# From -- ./inp_files/32904.got.cif
#   From: 2010.05.17/outbox.cif.g08.bks.cpg/sg73_17_cif.got.tgz:32904.got - 2010.06.03 17:35:07.
