data_PCOD9531485
_publ_section_title
;
Structure prediction by ZEFSAII (Michael W. Deem and Ramdas Pophale) SiO2 
 PCOD9531485
Probable space group: I B C A 
;
_chemical_formula_sum "Si O2"
_cell_formula_units_Z 96
_cell_length_a 21.310395
_cell_length_b 25.893515
_cell_length_c 7.789729
_cell_angle_alpha 90.000000
_cell_angle_beta 90.000000
_cell_angle_gamma 90.000000
_cell_volume 4298.380506
_symmetry_space_group_name_H-M "I B C A "
_symmetry_group_IT_number 73
_symmetry_cell_setting 'orthorhombic'
loop_
_space_group_symop_operation_xyz
x,y,z
-x,1/2-y,z
x,-y,1/2-z
1/2-x,y,-z
-x,-y,-z
x,1/2+y,-z
-x,y,1/2+z
1/2+x,-y,z
1/2+x,1/2+y,1/2+z
1/2-x,-y,1/2+z
1/2+x,1/2-y,-z
-x,1/2+y,1/2-z
1/2-x,1/2-y,1/2-z
1/2+x,y,1/2-z
1/2-x,1/2+y,z
x,1/2-y,1/2+z
loop_
_atom_site_type_symbol
_atom_site_label
_atom_site_fract_x
_atom_site_fract_y
_atom_site_fract_z
Si Si1 0.137858 0.842380 0.198092
Si Si2 0.913135 0.046458 0.858430
Si Si3 0.734929 0.191889 0.701371
Si Si4 0.457719 0.418241 0.809287
Si Si5 0.104147 0.158376 0.900534
Si Si6 0.477888 0.305383 0.994424
O O1 0.125313 0.901105 0.150468
O O2 0.212297 0.835695 0.185876
O O3 0.119959 0.835813 0.399074
O O4 0.090265 0.805620 0.089762
O O5 0.979031 0.059899 0.767801
O O6 0.884710 0.000000 0.750000
O O7 0.928835 0.040842 0.058699
O O8 0.750000 0.182686 0.500000
O O9 0.750000 0.250000 0.750000
O O10 0.661452 0.179047 0.714509
O O11 0.410340 0.399643 0.661288
O O12 0.474650 0.363744 0.909180
O O13 0.037986 0.187415 0.879299
O O14 0.500000 0.250000 0.914964
#
# Coordination Sequence:
#
# PCOD9531485 Si02
#       6
#    16  16  16  16  16  16
#     4  10  21  40  56  86 120 150 200 244 292 358
#     4  11  21  38  62  86 117 154 197 253 309 349
#     4  10  23  38  59  83 119 167 199 237 292 357
#     4  11  21  37  57  92 117 151 196 252 299 364
#     4  11  20  37  57  82 122 154 195 241 296 346
#     4  11  21  34  57  85 119 156 191 243 302 353
#
# _framework density 22.333993
#
# number of rings (size 3 to 8) (size 9 to 14) (size 15 to 20)
#    0.000    1.333    5.000    1.500    0.000    8.000 
#    0.000    0.000    0.000    7.000    0.000    0.000 
#    0.000    0.000    0.000    0.000    0.000    0.000 
#
# Total GULP energy -267621.185221 kJ/mol
# GULP energy per Si atom -5575.441359 kJ/mol
# Density = 2.228316 g / cm^3
# Si number density = 22.333993 Si / 1000 Ang^3
#
#
#
# Elastic Constant Matrix: (Units=GPa)
#
#
# Indices 1 2 3 4 5 6 
#
# 1 94.3735 -7.9338 5.6070 0.0000 0.0000 0.0000
# 2 -7.9338 53.9752 1.4927 0.0000 0.0000 0.0000
# 3 5.6070 1.4927 51.1160 0.0000 0.0000 0.0000
# 4 0.0000 0.0000 0.0000 29.6100 0.0000 0.0000
# 5 0.0000 0.0000 0.0000 0.0000 22.1912 0.0000
# 6 0.0000 0.0000 0.0000 0.0000 0.0000 21.2485
#
#
#
# Elastic Compliance Matrix: (Units=1/GPa)
#
#
# Indices 1 2 3 4 5 6 
#
# 1 0.010806 0.001622 -0.001233 0.000000 0.000000 0.000000
# 2 0.001622 0.018786 -0.000727 0.000000 0.000000 0.000000
# 3 -0.001233 -0.000727 0.019720 0.000000 0.000000 0.000000
# 4 0.000000 0.000000 0.000000 0.033772 0.000000 0.000000
# 5 0.000000 0.000000 0.000000 0.000000 0.045063 0.000000
# 6 0.000000 0.000000 0.000000 0.000000 0.000000 0.047062
#
#
# Mechanical properties :
#
#
# Convention : Reuss Voigt Hill
#
# Bulk Modulus (GPa) = 20.56025 21.97741 21.26883
# Shear Modulus (GPa) = 26.02883 27.96320 26.99602
#
# Velocity S-wave (km/s) = 3.41755 3.54227 3.48047
# Velocity P-wave (km/s) = 4.97983 5.15673 5.06905
#
# Compressibility (1/GPa) = 0.04863755
#
# Stress axis : x y z
#
# Youngs Moduli (GPa) = 92.54266 53.23229 50.71053
#
# Poissons Ratio (x) = -0.08637 0.06251
# Poissons Ratio (y) = -0.15014 0.03684
# Poissons Ratio (z) = 0.11408 0.03868
#
# Static dielectric constant tensor:
#      x y z
#    x 1.681310 0.000000 0.000000 
#    y 0.000000 1.879230 0.000000 
#    z 0.000000 0.000000 2.054550 
# 
# From -- ./inp_files/6435.got.cif
#   From: 2010.05.17/outbox.cif.g08.bks.cpg/sg73_4_cif.got.tgz:6435.got - 2010.06.03 17:35:07.
