data_PCOD9531625
_publ_section_title
;
Structure prediction by ZEFSAII (Michael W. Deem and Ramdas Pophale) SiO2 
 PCOD9531625
Probable space group: I B C A 
;
_chemical_formula_sum "Si O2"
_cell_formula_units_Z 96
_cell_length_a 18.090102
_cell_length_b 19.604945
_cell_length_c 10.075919
_cell_angle_alpha 90.000000
_cell_angle_beta 90.000000
_cell_angle_gamma 90.000000
_cell_volume 3573.479635
_symmetry_space_group_name_H-M "I B C A "
_symmetry_group_IT_number 73
_symmetry_cell_setting 'orthorhombic'
loop_
_space_group_symop_operation_xyz
x,y,z
-x,1/2-y,z
x,-y,1/2-z
1/2-x,y,-z
-x,-y,-z
x,1/2+y,-z
-x,y,1/2+z
1/2+x,-y,z
1/2+x,1/2+y,1/2+z
1/2-x,-y,1/2+z
1/2+x,1/2-y,-z
-x,1/2+y,1/2-z
1/2-x,1/2-y,1/2-z
1/2+x,y,1/2-z
1/2-x,1/2+y,z
x,1/2-y,1/2+z
loop_
_atom_site_type_symbol
_atom_site_label
_atom_site_fract_x
_atom_site_fract_y
_atom_site_fract_z
Si Si1 0.405349 0.074344 0.960472
Si Si2 0.335829 0.780537 0.530436
Si Si3 0.354919 0.341990 0.798087
Si Si4 0.136593 0.641429 0.585830
Si Si5 0.737512 0.570373 0.692972
Si Si6 0.006927 0.914572 0.709667
O O1 0.391645 0.156504 0.959966
O O2 0.321945 0.051187 0.921528
O O3 0.460706 0.056862 0.837345
O O4 0.438035 0.049388 0.101293
O O5 0.250000 0.795196 0.500000
O O6 0.336573 0.735319 0.664779
O O7 0.362532 0.723137 0.427153
O O8 0.305834 0.377625 0.686105
O O9 0.439977 0.356211 0.768960
O O10 0.338117 0.379953 0.938365
O O11 0.186764 0.610271 0.699765
O O12 0.055346 0.615314 0.614287
O O13 0.766154 0.500000 0.750000
#
# Coordination Sequence:
#
# PCOD9531625 Si02
#       6
#    16  16  16  16  16  16
#     4  11  26  43  70 106 145 184 237 295 345 435
#     4  10  21  41  69 104 141 189 225 290 359 424
#     4  10  21  43  68  98 139 190 225 295 363 418
#     4   9  20  45  67  94 141 192 225 287 362 423
#     4  11  24  46  73 103 137 187 245 300 354 423
#     4  11  23  44  66 104 147 184 239 282 364 422
#
# _framework density 26.864570000000001
#
# number of rings (size 3 to 8) (size 9 to 14) (size 15 to 20)
#    1.000    0.667    3.333    0.500    2.333    7.333 
#    6.000    6.667    0.000    0.000    0.000    0.000 
#    0.000    0.000    0.000    0.000    0.000    0.000 
#
# Total GULP energy -268232.972041 kJ/mol
# GULP energy per Si atom -5588.186918 kJ/mol
# Density = 2.680343 g / cm^3
# Si number density = 26.864570 Si / 1000 Ang^3
#
#
#
# Elastic Constant Matrix: (Units=GPa)
#
#
# Indices 1 2 3 4 5 6 
#
# 1 144.2043 7.4221 32.4152 0.0000 0.0000 0.0000
# 2 7.4221 100.7258 9.6004 0.0000 0.0000 0.0000
# 3 32.4152 9.6004 141.3206 0.0000 0.0000 0.0000
# 4 0.0000 0.0000 0.0000 25.4200 0.0000 0.0000
# 5 0.0000 0.0000 0.0000 0.0000 37.9931 0.0000
# 6 0.0000 0.0000 0.0000 0.0000 0.0000 35.1665
#
#
#
# Elastic Compliance Matrix: (Units=1/GPa)
#
#
# Indices 1 2 3 4 5 6 
#
# 1 0.007326 -0.000382 -0.001654 0.000000 0.000000 0.000000
# 2 -0.000382 0.010013 -0.000593 0.000000 0.000000 0.000000
# 3 -0.001654 -0.000593 0.007496 0.000000 0.000000 0.000000
# 4 0.000000 0.000000 0.000000 0.039339 0.000000 0.000000
# 5 0.000000 0.000000 0.000000 0.000000 0.026321 0.000000
# 6 0.000000 0.000000 0.000000 0.000000 0.000000 0.028436
#
#
# Mechanical properties :
#
#
# Convention : Reuss Voigt Hill
#
# Bulk Modulus (GPa) = 51.08215 53.90288 52.49252
# Shear Modulus (GPa) = 38.25138 42.17011 40.21074
#
# Velocity S-wave (km/s) = 3.77750 3.96628 3.87304
# Velocity P-wave (km/s) = 6.17106 6.40963 6.29148
#
# Compressibility (1/GPa) = 0.01957631
#
# Stress axis : x y z
#
# Youngs Moduli (GPa) = 136.49688 99.87434 133.40707
#
# Poissons Ratio (x) = 0.03817 0.22072
# Poissons Ratio (y) = 0.05216 0.07905
# Poissons Ratio (z) = 0.22583 0.05918
#
# Static dielectric constant tensor:
#      x y z
#    x 2.055750 0.000000 0.000000 
#    y 0.000000 2.062450 0.000000 
#    z 0.000000 0.000000 2.346710 
# 
# From -- ./inp_files/12014.got.cif
#   From: 2010.05.17/outbox.cif.g08.bks.cpg/sg73_7_cif.got.tgz:12014.got - 2010.06.03 17:35:07.
