data_PCOD9531225
_publ_section_title
;
Structure prediction by ZEFSAII (Michael W. Deem and Ramdas Pophale) SiO2 
 PCOD9531225
Probable space group: I B C A 
;
_chemical_formula_sum "Si O2"
_cell_formula_units_Z 112
_cell_length_a 14.048832
_cell_length_b 27.495215
_cell_length_c 14.110299
_cell_angle_alpha 90.000000
_cell_angle_beta 90.000000
_cell_angle_gamma 90.000000
_cell_volume 5450.465007
_symmetry_space_group_name_H-M "I B C A "
_symmetry_group_IT_number 73
_symmetry_cell_setting 'orthorhombic'
loop_
_space_group_symop_operation_xyz
x,y,z
-x,1/2-y,z
x,-y,1/2-z
1/2-x,y,-z
-x,-y,-z
x,1/2+y,-z
-x,y,1/2+z
1/2+x,-y,z
1/2+x,1/2+y,1/2+z
1/2-x,-y,1/2+z
1/2+x,1/2-y,-z
-x,1/2+y,1/2-z
1/2-x,1/2-y,1/2-z
1/2+x,y,1/2-z
1/2-x,1/2+y,z
x,1/2-y,1/2+z
loop_
_atom_site_type_symbol
_atom_site_label
_atom_site_fract_x
_atom_site_fract_y
_atom_site_fract_z
Si Si1 0.572179 0.913309 0.161119
Si Si2 0.146559 0.805720 0.627847
Si Si3 0.653220 0.500000 0.250000
Si Si4 0.947577 0.594964 0.668770
Si Si5 0.000000 0.250000 0.234983
Si Si6 0.865900 0.688856 0.403305
Si Si7 0.954396 0.946196 0.495979
Si Si8 0.797277 0.500372 0.408657
O O1 0.540273 0.898220 0.265456
O O2 0.626292 0.868945 0.113033
O O3 0.634730 0.961960 0.147281
O O4 0.472532 0.924939 0.107103
O O5 0.125067 0.860502 0.665599
O O6 0.079841 0.773302 0.695715
O O7 0.119886 0.801187 0.515711
O O8 0.259607 0.795300 0.628542
O O9 0.595277 0.543860 0.296142
O O10 0.719897 0.482079 0.335172
O O11 0.984060 0.587556 0.563242
O O12 0.945048 0.286840 0.164194
O O13 0.853739 0.956072 0.543384
O O14 0.000000 0.000000 0.500000
O O15 0.750000 0.526628 0.500000
#
# Coordination Sequence:
#
# PCOD9531225 Si02
#       8
#    16  16   8  16   8  16  16  16
#     4  11  21  38  61  88 123 170 217 263 318 382
#     4  11  25  43  73 100 130 172 220 268 332 408
#     4  12  22  34  56  86 128 168 216 268 304 368
#     4  12  22  40  60  91 126 175 220 262 319 382
#     4  12  24  50  70 104 132 164 208 284 350 388
#     4  11  24  43  72 101 128 166 217 270 331 408
#     4  10  21  36  57  82 121 170 211 259 314 365
#     4  11  22  35  55  87 127 171 220 267 310 371
#
# _framework density 20.548705999999999
#
# number of rings (size 3 to 8) (size 9 to 14) (size 15 to 20)
#    0.000    0.857    2.857    6.857    2.000    0.000 
#    0.000    0.000    0.000    0.000    0.000    0.000 
#    0.000    0.000    0.000    0.000    0.000    0.000 
#
# Total GULP energy -312624.040232 kJ/mol
# GULP energy per Si atom -5582.572147 kJ/mol
# Density = 2.050194 g / cm^3
# Si number density = 20.548706 Si / 1000 Ang^3
#
#
#
# Elastic Constant Matrix: (Units=GPa)
#
#
# Indices 1 2 3 4 5 6 
#
# 1 84.1625 16.8351 31.0432 0.0000 0.0000 0.0000
# 2 16.8351 52.4656 8.3007 0.0000 0.0000 0.0000
# 3 31.0432 8.3007 94.3851 0.0000 0.0000 0.0000
# 4 0.0000 0.0000 0.0000 23.4924 0.0000 0.0000
# 5 0.0000 0.0000 0.0000 0.0000 40.4922 0.0000
# 6 0.0000 0.0000 0.0000 0.0000 0.0000 22.1060
#
#
#
# Elastic Compliance Matrix: (Units=1/GPa)
#
#
# Indices 1 2 3 4 5 6 
#
# 1 0.014264 -0.003889 -0.004349 0.000000 0.000000 0.000000
# 2 -0.003889 0.020389 -0.000514 0.000000 0.000000 0.000000
# 3 -0.004349 -0.000514 0.012071 0.000000 0.000000 0.000000
# 4 0.000000 0.000000 0.000000 0.042567 0.000000 0.000000
# 5 0.000000 0.000000 0.000000 0.000000 0.024696 0.000000
# 6 0.000000 0.000000 0.000000 0.000000 0.000000 0.045236
#
#
# Mechanical properties :
#
#
# Convention : Reuss Voigt Hill
#
# Bulk Modulus (GPa) = 34.22413 38.15235 36.18824
# Shear Modulus (GPa) = 26.81428 28.87375 27.84401
#
# Velocity S-wave (km/s) = 3.61628 3.75258 3.68506
# Velocity P-wave (km/s) = 5.84191 6.11416 5.97958
#
# Compressibility (1/GPa) = 0.02921915
#
# Stress axis : x y z
#
# Youngs Moduli (GPa) = 70.10685 49.04536 82.84578
#
# Poissons Ratio (x) = 0.19073 0.36033
# Poissons Ratio (y) = 0.27264 0.04259
# Poissons Ratio (z) = 0.30492 0.02521
#
# Static dielectric constant tensor:
#      x y z
#    x 1.811210 0.000000 -0.000010 
#    y 0.000000 1.731070 0.000010 
#    z -0.000010 0.000010 4.879610 
# 
# From -- ./inp_files/17412.got.cif
#   From: 2010.05.17/outbox.cif.g08.bks.cpg/sg73_9_cif.got.tgz:17412.got - 2010.06.03 17:35:07.
