data_PCOD9531494
_publ_section_title
;
Structure prediction by ZEFSAII (Michael W. Deem and Ramdas Pophale) SiO2 
 PCOD9531494
Probable space group: I B C A 
;
_chemical_formula_sum "Si O2"
_cell_formula_units_Z 104
_cell_length_a 17.422397
_cell_length_b 12.043692
_cell_length_c 23.831537
_cell_angle_alpha 90.000000
_cell_angle_beta 90.000000
_cell_angle_gamma 90.000000
_cell_volume 5000.571012
_symmetry_space_group_name_H-M "I B C A "
_symmetry_group_IT_number 73
_symmetry_cell_setting 'orthorhombic'
loop_
_space_group_symop_operation_xyz
x,y,z
-x,1/2-y,z
x,-y,1/2-z
1/2-x,y,-z
-x,-y,-z
x,1/2+y,-z
-x,y,1/2+z
1/2+x,-y,z
1/2+x,1/2+y,1/2+z
1/2-x,-y,1/2+z
1/2+x,1/2-y,-z
-x,1/2+y,1/2-z
1/2-x,1/2-y,1/2-z
1/2+x,y,1/2-z
1/2-x,1/2+y,z
x,1/2-y,1/2+z
loop_
_atom_site_type_symbol
_atom_site_label
_atom_site_fract_x
_atom_site_fract_y
_atom_site_fract_z
Si Si1 0.664288 0.089767 0.615629
Si Si2 0.506634 0.879937 0.840158
Si Si3 0.084117 0.802630 0.513049
Si Si4 0.600008 0.500000 0.750000
Si Si5 0.620452 0.150065 0.909677
Si Si6 0.545379 0.456231 0.921936
Si Si7 0.169651 0.649465 0.841135
O O1 0.595623 0.086706 0.660928
O O2 0.634489 0.175031 0.567776
O O3 0.742876 0.129003 0.642345
O O4 0.667045 0.965144 0.590275
O O5 0.500000 0.750000 0.834010
O O6 0.455274 0.941587 0.794856
O O7 0.476260 0.922275 0.900905
O O8 0.125946 0.725388 0.466021
O O9 0.068804 0.923849 0.484488
O O10 0.000000 0.750000 0.520179
O O11 0.649340 0.404506 0.781179
O O12 0.530241 0.116438 0.906727
O O13 0.645656 0.224455 0.856362
O O14 0.616298 0.418666 0.884276
#
# Coordination Sequence:
#
# PCOD9531494 Si02
#       7
#    16  16  16   8  16  16  16
#     4  11  23  36  58  95 125 150 196 249 296 347
#     4  10  22  38  59  88 117 151 197 250 296 349
#     4   9  18  36  62  88 123 167 199 228 279 351
#     4  10  24  44  64  80 108 160 208 244 302 370
#     4   9  20  39  61  85 122 168 197 228 283 357
#     4   8  18  37  60  87 119 163 204 226 273 360
#     4  10  21  40  61  86 116 149 197 254 301 343
#
# _framework density 20.797626000000001
#
# number of rings (size 3 to 8) (size 9 to 14) (size 15 to 20)
#    0.000    2.462    0.000    1.846    0.000   16.000 
#    0.000    6.154    0.000    0.000    0.000    0.000 
#    0.000    0.000    0.000    0.000    0.000    0.000 
#
# Total GULP energy -290159.873846 kJ/mol
# GULP energy per Si atom -5579.997574 kJ/mol
# Density = 2.075029 g / cm^3
# Si number density = 20.797626 Si / 1000 Ang^3
#
#
#
# Elastic Constant Matrix: (Units=GPa)
#
#
# Indices 1 2 3 4 5 6 
#
# 1 96.0944 14.8336 41.2583 0.0000 0.0000 0.0000
# 2 14.8336 107.4055 37.4629 0.0000 0.0000 0.0000
# 3 41.2583 37.4629 103.1109 0.0000 0.0000 0.0000
# 4 0.0000 0.0000 0.0000 24.5741 0.0000 0.0000
# 5 0.0000 0.0000 0.0000 0.0000 21.5743 0.0000
# 6 0.0000 0.0000 0.0000 0.0000 0.0000 17.5887
#
#
#
# Elastic Compliance Matrix: (Units=1/GPa)
#
#
# Indices 1 2 3 4 5 6 
#
# 1 0.012565 0.000021 -0.005035 0.000000 0.000000 0.000000
# 2 0.000021 0.010662 -0.003882 0.000000 0.000000 0.000000
# 3 -0.005035 -0.003882 0.013124 0.000000 0.000000 0.000000
# 4 0.000000 0.000000 0.000000 0.040693 0.000000 0.000000
# 5 0.000000 0.000000 0.000000 0.000000 0.046352 0.000000
# 6 0.000000 0.000000 0.000000 0.000000 0.000000 0.056855
#
#
# Mechanical properties :
#
#
# Convention : Reuss Voigt Hill
#
# Bulk Modulus (GPa) = 53.88662 54.85782 54.37222
# Shear Modulus (GPa) = 24.48237 26.95116 25.71676
#
# Velocity S-wave (km/s) = 3.43472 3.60373 3.52024
# Velocity P-wave (km/s) = 6.45724 6.61439 6.53628
#
# Compressibility (1/GPa) = 0.01855748
#
# Stress axis : x y z
#
# Youngs Moduli (GPa) = 79.58530 93.79398 76.19878
#
# Poissons Ratio (x) = -0.00197 0.38369
# Poissons Ratio (y) = -0.00167 0.29581
# Poissons Ratio (z) = 0.40074 0.36411
#
# Static dielectric constant tensor:
#      x y z
#    x 1.709480 0.000000 0.000000 
#    y 0.000000 1.796900 0.000000 
#    z 0.000000 0.000000 1.784740 
# 
# From -- ./inp_files/32422.got.cif
#   From: 2010.05.17/outbox.cif.g08.bks.cpg/sg73_17_cif.got.tgz:32422.got - 2010.06.03 17:35:07.
