data_PCOD9531407
_publ_section_title
;
Structure prediction by ZEFSAII (Michael W. Deem and Ramdas Pophale) SiO2 
 PCOD9531407
Probable space group: I B C A 
;
_chemical_formula_sum "Si O2"
_cell_formula_units_Z 80
_cell_length_a 16.427593
_cell_length_b 10.253111
_cell_length_c 22.899755
_cell_angle_alpha 90.000000
_cell_angle_beta 90.000000
_cell_angle_gamma 90.000000
_cell_volume 3857.095834
_symmetry_space_group_name_H-M "I B C A "
_symmetry_group_IT_number 73
_symmetry_cell_setting 'orthorhombic'
loop_
_space_group_symop_operation_xyz
x,y,z
-x,1/2-y,z
x,-y,1/2-z
1/2-x,y,-z
-x,-y,-z
x,1/2+y,-z
-x,y,1/2+z
1/2+x,-y,z
1/2+x,1/2+y,1/2+z
1/2-x,-y,1/2+z
1/2+x,1/2-y,-z
-x,1/2+y,1/2-z
1/2-x,1/2-y,1/2-z
1/2+x,y,1/2-z
1/2-x,1/2+y,z
x,1/2-y,1/2+z
loop_
_atom_site_type_symbol
_atom_site_label
_atom_site_fract_x
_atom_site_fract_y
_atom_site_fract_z
Si Si1 0.929693 0.362277 0.377708
Si Si2 0.811884 0.360950 0.269273
Si Si3 0.846801 0.979202 0.504440
Si Si4 0.936103 0.364387 0.167024
Si Si5 0.596687 0.237368 0.448411
O O1 0.852142 0.341448 0.333546
O O2 0.890577 0.406118 0.440094
O O3 0.969687 0.494136 0.350505
O O4 0.000000 0.250000 0.381053
O O5 0.772645 0.500000 0.250000
O O6 0.750000 0.250000 0.250000
O O7 0.889464 0.361922 0.226872
O O8 0.750000 0.981022 0.500000
O O9 0.871995 0.883158 0.452804
O O10 0.876111 0.128759 0.504740
O O11 0.877423 0.325761 0.113120
O O12 0.000000 0.250000 0.169175
O O13 0.500000 0.250000 0.451968
#
# Coordination Sequence:
#
# PCOD9531407 Si02
#       5
#    16  16  16  16  16
#     4  10  22  40  62  89 123 162 210 256 307 380
#     4  10  22  39  59  89 126 157 203 254 311 372
#     4  11  23  38  59  90 124 159 207 259 312 366
#     4   9  20  38  61  87 119 155 202 252 306 365
#     4  10  21  39  60  85 120 162 205 252 308 375
#
# _framework density 20.740995000000002
#
# number of rings (size 3 to 8) (size 9 to 14) (size 15 to 20)
#    0.000    2.000    0.000    2.400    2.800    4.800 
#    3.600    0.000    0.000    0.000    0.000    0.000 
#    0.000    0.000    0.000    0.000    0.000    0.000 
#
# Total GULP energy -222706.492611 kJ/mol
# GULP energy per Si atom -5567.662315 kJ/mol
# Density = 2.069379 g / cm^3
# Si number density = 20.740995 Si / 1000 Ang^3
#
#
#
# Elastic Constant Matrix: (Units=GPa)
#
#
# Indices 1 2 3 4 5 6 
#
# 1 77.7651 32.6176 -6.2311 0.0000 0.0000 0.0000
# 2 32.6176 81.2783 2.7273 0.0000 0.0000 0.0000
# 3 -6.2311 2.7273 29.1233 0.0000 0.0000 0.0000
# 4 0.0000 0.0000 0.0000 26.3526 0.0000 0.0000
# 5 0.0000 0.0000 0.0000 0.0000 11.5395 0.0000
# 6 0.0000 0.0000 0.0000 0.0000 0.0000 34.6132
#
#
#
# Elastic Compliance Matrix: (Units=1/GPa)
#
#
# Indices 1 2 3 4 5 6 
#
# 1 0.015917 -0.006522 0.004016 0.000000 0.000000 0.000000
# 2 -0.006522 0.015015 -0.002802 0.000000 0.000000 0.000000
# 3 0.004016 -0.002802 0.035458 0.000000 0.000000 0.000000
# 4 0.000000 0.000000 0.000000 0.037947 0.000000 0.000000
# 5 0.000000 0.000000 0.000000 0.000000 0.086659 0.000000
# 6 0.000000 0.000000 0.000000 0.000000 0.000000 0.028891
#
#
# Mechanical properties :
#
#
# Convention : Reuss Voigt Hill
#
# Bulk Modulus (GPa) = 17.92921 27.37715 22.65318
# Shear Modulus (GPa) = 20.07277 25.10457 22.58867
#
# Velocity S-wave (km/s) = 3.11430 3.48283 3.30371
# Velocity P-wave (km/s) = 4.64703 5.42233 5.04958
#
# Compressibility (1/GPa) = 0.05577490
#
# Stress axis : x y z
#
# Youngs Moduli (GPa) = 62.82693 66.60074 28.20201
#
# Poissons Ratio (x) = 0.43439 -0.11327
# Poissons Ratio (y) = 0.40977 0.07901
# Poissons Ratio (z) = -0.25233 0.18659
#
# Static dielectric constant tensor:
#      x y z
#    x 2.434690 0.000000 0.000000 
#    y 0.000000 1.544440 0.000000 
#    z 0.000000 0.000000 1.876450 
# 
# From -- ./inp_files/10793.got.cif
#   From: 2010.05.17/outbox.cif.g08.bks.cpg/sg73_6_cif.got.tgz:10793.got - 2010.06.03 17:35:07.
