data_PCOD9531233
_publ_section_title
;
Structure prediction by ZEFSAII (Michael W. Deem and Ramdas Pophale) SiO2 
 PCOD9531233
Probable space group: I B C A 
;
_chemical_formula_sum "Si O2"
_cell_formula_units_Z 128
_cell_length_a 22.961921
_cell_length_b 12.274794
_cell_length_c 24.620657
_cell_angle_alpha 90.000000
_cell_angle_beta 90.000000
_cell_angle_gamma 90.000000
_cell_volume 6939.402347
_symmetry_space_group_name_H-M "I B C A "
_symmetry_group_IT_number 73
_symmetry_cell_setting 'orthorhombic'
loop_
_space_group_symop_operation_xyz
x,y,z
-x,1/2-y,z
x,-y,1/2-z
1/2-x,y,-z
-x,-y,-z
x,1/2+y,-z
-x,y,1/2+z
1/2+x,-y,z
1/2+x,1/2+y,1/2+z
1/2-x,-y,1/2+z
1/2+x,1/2-y,-z
-x,1/2+y,1/2-z
1/2-x,1/2-y,1/2-z
1/2+x,y,1/2-z
1/2-x,1/2+y,z
x,1/2-y,1/2+z
loop_
_atom_site_type_symbol
_atom_site_label
_atom_site_fract_x
_atom_site_fract_y
_atom_site_fract_z
Si Si1 0.007115 0.622281 0.220603
Si Si2 0.804931 0.550553 0.106272
Si Si3 0.825395 0.400890 0.638918
Si Si4 0.311264 0.689073 0.072171
Si Si5 0.324365 0.738808 0.949509
Si Si6 0.618804 0.613910 0.354816
Si Si7 0.312893 0.693642 0.754695
Si Si8 0.124628 0.602728 0.712518
O O1 0.018490 0.500000 0.250000
O O2 0.942787 0.603430 0.196713
O O3 0.000000 0.750000 0.245445
O O4 0.059320 0.633086 0.177592
O O5 0.735743 0.555054 0.115521
O O6 0.824804 0.428719 0.095743
O O7 0.821473 0.631013 0.057341
O O8 0.834521 0.598714 0.160166
O O9 0.833848 0.284611 0.610779
O O10 0.874687 0.488952 0.627765
O O11 0.820339 0.383513 0.703397
O O12 0.240764 0.700131 0.067735
O O13 0.334137 0.703974 0.011093
O O14 0.369477 0.688942 0.906679
O O15 0.671645 0.636593 0.311668
O O16 0.250000 0.750000 0.750000
O O17 0.359351 0.791106 0.753076
O O18 0.137109 0.500000 0.750000
#
# Coordination Sequence:
#
# PCOD9531233 Si02
#       8
#    16  16  16  16  16  16  16  16
#     4  11  23  43  63  87 123 168 216 253 300 369
#     4  11  20  38  56  86 124 158 200 246 310 375
#     4  11  23  34  56  91 124 157 196 249 314 365
#     4  10  22  36  57  86 124 157 201 252 310 376
#     4  10  21  36  58  86 116 164 205 247 307 373
#     4  12  23  40  60  90 120 162 205 250 305 369
#     4  12  21  34  56  89 129 156 195 243 306 380
#     4  11  23  36  59  87 124 165 201 246 307 367
#
# _framework density 18.445392999999999
#
# number of rings (size 3 to 8) (size 9 to 14) (size 15 to 20)
#    0.000    1.000    5.000    2.625    3.500    1.000 
#    0.000    0.000    0.000    0.750    3.250    0.000 
#    0.000    0.000    0.000    0.000    0.000    0.000 
#
# Total GULP energy -356868.685530 kJ/mol
# GULP energy per Si atom -5576.073211 kJ/mol
# Density = 1.840341 g / cm^3
# Si number density = 18.445393 Si / 1000 Ang^3
#
#
#
# Elastic Constant Matrix: (Units=GPa)
#
#
# Indices 1 2 3 4 5 6 
#
# 1 65.1110 3.2838 7.7173 0.0000 0.0000 0.0000
# 2 3.2838 127.6248 24.6241 0.0000 0.0000 0.0000
# 3 7.7173 24.6241 58.2841 0.0000 0.0000 0.0000
# 4 0.0000 0.0000 0.0000 20.9357 0.0000 0.0000
# 5 0.0000 0.0000 0.0000 0.0000 13.9487 0.0000
# 6 0.0000 0.0000 0.0000 0.0000 0.0000 20.6997
#
#
#
# Elastic Compliance Matrix: (Units=1/GPa)
#
#
# Indices 1 2 3 4 5 6 
#
# 1 0.015603 -0.000003 -0.002065 0.000000 0.000000 0.000000
# 2 -0.000003 0.008531 -0.003604 0.000000 0.000000 0.000000
# 3 -0.002065 -0.003604 0.018953 0.000000 0.000000 0.000000
# 4 0.000000 0.000000 0.000000 0.047765 0.000000 0.000000
# 5 0.000000 0.000000 0.000000 0.000000 0.071691 0.000000
# 6 0.000000 0.000000 0.000000 0.000000 0.000000 0.048310
#
#
# Mechanical properties :
#
#
# Convention : Reuss Voigt Hill
#
# Bulk Modulus (GPa) = 31.50176 35.80783 33.65479
# Shear Modulus (GPa) = 21.47966 25.47646 23.47806
#
# Velocity S-wave (km/s) = 3.41618 3.72046 3.57156
# Velocity P-wave (km/s) = 5.71628 6.15717 5.94082
#
# Compressibility (1/GPa) = 0.03174426
#
# Stress axis : x y z
#
# Youngs Moduli (GPa) = 64.08919 117.22148 52.76144
#
# Poissons Ratio (x) = 0.00036 0.10894
# Poissons Ratio (y) = 0.00020 0.19014
# Poissons Ratio (z) = 0.13232 0.42244
#
# Static dielectric constant tensor:
#      x y z
#    x 1.619680 0.000000 0.000000 
#    y 0.000000 1.711730 0.000000 
#    z 0.000000 0.000000 1.619540 
# 
# From -- ./inp_files/30562.got.cif
#   From: 2010.05.17/outbox.cif.g08.bks.cpg/sg73_16_cif.got.tgz:30562.got - 2010.06.03 17:35:07.
