data_PCOD9531119
_publ_section_title
;
Structure prediction by ZEFSAII (Michael W. Deem and Ramdas Pophale) SiO2 
 PCOD9531119
Probable space group: I B C A 
;
_chemical_formula_sum "Si O2"
_cell_formula_units_Z 112
_cell_length_a 22.228600
_cell_length_b 14.688159
_cell_length_c 14.064403
_cell_angle_alpha 90.000000
_cell_angle_beta 90.000000
_cell_angle_gamma 90.000000
_cell_volume 4591.988356
_symmetry_space_group_name_H-M "I B C A "
_symmetry_group_IT_number 73
_symmetry_cell_setting 'orthorhombic'
loop_
_space_group_symop_operation_xyz
x,y,z
-x,1/2-y,z
x,-y,1/2-z
1/2-x,y,-z
-x,-y,-z
x,1/2+y,-z
-x,y,1/2+z
1/2+x,-y,z
1/2+x,1/2+y,1/2+z
1/2-x,-y,1/2+z
1/2+x,1/2-y,-z
-x,1/2+y,1/2-z
1/2-x,1/2-y,1/2-z
1/2+x,y,1/2-z
1/2-x,1/2+y,z
x,1/2-y,1/2+z
loop_
_atom_site_type_symbol
_atom_site_label
_atom_site_fract_x
_atom_site_fract_y
_atom_site_fract_z
Si Si1 0.708140 0.720053 0.590737
Si Si2 0.536117 0.000000 0.250000
Si Si3 0.853301 0.980950 0.109028
Si Si4 0.087433 0.672997 0.404398
Si Si5 0.500000 0.750000 0.956212
Si Si6 0.240474 0.901509 0.114767
Si Si7 0.063298 0.849379 0.703778
Si Si8 0.355922 0.456804 0.384551
O O1 0.750000 0.694752 0.500000
O O2 0.646013 0.771909 0.561103
O O3 0.743811 0.799712 0.647271
O O4 0.685596 0.629448 0.643709
O O5 0.492271 0.080684 0.215499
O O6 0.580150 0.037704 0.332958
O O7 0.876805 0.905300 0.180015
O O8 0.896759 0.068131 0.110458
O O9 0.789558 0.021938 0.138533
O O10 0.856756 0.948335 0.999527
O O11 0.032570 0.679477 0.475557
O O12 0.070617 0.707723 0.299560
O O13 0.450276 0.709752 0.887601
O O14 0.176842 0.946793 0.135762
O O15 0.250000 0.894150 0.000000
#
# Coordination Sequence:
#
# PCOD9531119 Si02
#       8
#    16   8  16  16   8  16  16  16
#     4  10  21  40  74 103 138 189 240 307 379 452
#     4  12  28  44  64 102 152 186 258 316 358 450
#     4  10  20  42  73  96 135 188 240 299 375 451
#     4  11  24  44  68 106 144 188 247 314 364 454
#     4  12  28  40  70  96 148 194 242 312 380 438
#     4   8  18  39  67 101 136 176 240 298 365 455
#     4  12  26  45  69 106 140 196 256 301 377 455
#     4  11  23  42  71 103 144 193 241 305 381 447
#
# _framework density 24.390307
#
# number of rings (size 3 to 8) (size 9 to 14) (size 15 to 20)
#    0.000    1.429    1.429    4.286    6.000    1.143 
#    5.143    0.714    0.000    0.000    0.000    0.000 
#    0.000    0.000    0.000    0.000    0.000    0.000 
#
# Total GULP energy -313390.851646 kJ/mol
# GULP energy per Si atom -5596.265208 kJ/mol
# Density = 2.433479 g / cm^3
# Si number density = 24.390307 Si / 1000 Ang^3
#
#
#
# Elastic Constant Matrix: (Units=GPa)
#
#
# Indices 1 2 3 4 5 6 
#
# 1 64.2854 3.4578 31.0519 0.0000 0.0000 0.0000
# 2 3.4578 59.0110 13.5609 0.0000 0.0000 0.0000
# 3 31.0519 13.5609 115.5052 0.0000 0.0000 0.0000
# 4 0.0000 0.0000 0.0000 102.0358 0.0000 0.0000
# 5 0.0000 0.0000 0.0000 0.0000 -0.7023 0.0000
# 6 0.0000 0.0000 0.0000 0.0000 0.0000 32.9526
#
#
#
# Elastic Compliance Matrix: (Units=1/GPa)
#
#
# Indices 1 2 3 4 5 6 
#
# 1 0.017877 0.000058 -0.004813 0.000000 0.000000 0.000000
# 2 0.000058 0.017416 -0.002060 0.000000 0.000000 0.000000
# 3 -0.004813 -0.002060 0.010193 0.000000 0.000000 0.000000
# 4 0.000000 0.000000 0.000000 0.009800 0.000000 0.000000
# 5 0.000000 0.000000 0.000000 0.000000 -1.423817 0.000000
# 6 0.000000 0.000000 0.000000 0.000000 0.000000 0.030347
#
#
# Mechanical properties :
#
#
# Convention : Reuss Voigt Hill
#
# Bulk Modulus (GPa) = 31.39031 37.21588 34.30310
# Shear Modulus (GPa) = -3.80536 39.57260 17.88362
#
# Velocity S-wave (km/s) = -1.25043 4.03236 2.71075
# Velocity P-wave (km/s) = 3.28834 6.08042 4.88798
#
# Compressibility (1/GPa) = 0.03185696
#
# Stress axis : x y z
#
# Youngs Moduli (GPa) = 55.93693 57.41823 98.10255
#
# Poissons Ratio (x) = -0.00336 0.47216
# Poissons Ratio (y) = -0.00327 0.20214
# Poissons Ratio (z) = 0.26922 0.11831
#
# Static dielectric constant tensor:
#      x y z
#    x 1.939590 0.000000 0.000000 
#    y 0.000000 1.966840 0.000000 
#    z 0.000000 0.000000 2.005500 
# 
# From -- ./inp_files/19443.got.cif
#   From: 2010.05.17/outbox.cif.g08.bks.cpg/sg73_10_cif.got.tgz:19443.got - 2010.06.03 17:35:07.
