data_PCOD9531762
_publ_section_title
;
Structure prediction by ZEFSAII (Michael W. Deem and Ramdas Pophale) SiO2 
 PCOD9531762
Probable space group: I B C A 
;
_chemical_formula_sum "Si O2"
_cell_formula_units_Z 88
_cell_length_a 14.515937
_cell_length_b 19.330717
_cell_length_c 13.736636
_cell_angle_alpha 90.000000
_cell_angle_beta 90.000000
_cell_angle_gamma 90.000000
_cell_volume 3854.547730
_symmetry_space_group_name_H-M "I B C A "
_symmetry_group_IT_number 73
_symmetry_cell_setting 'orthorhombic'
loop_
_space_group_symop_operation_xyz
x,y,z
-x,1/2-y,z
x,-y,1/2-z
1/2-x,y,-z
-x,-y,-z
x,1/2+y,-z
-x,y,1/2+z
1/2+x,-y,z
1/2+x,1/2+y,1/2+z
1/2-x,-y,1/2+z
1/2+x,1/2-y,-z
-x,1/2+y,1/2-z
1/2-x,1/2-y,1/2-z
1/2+x,y,1/2-z
1/2-x,1/2+y,z
x,1/2-y,1/2+z
loop_
_atom_site_type_symbol
_atom_site_label
_atom_site_fract_x
_atom_site_fract_y
_atom_site_fract_z
Si Si1 0.413132 0.644912 0.150713
Si Si2 0.766005 0.755282 0.864539
Si Si3 0.712956 0.108204 0.161579
Si Si4 0.918560 0.419124 0.742502
Si Si5 0.358295 0.883827 0.435300
Si Si6 0.750000 0.008050 0.000000
O O1 0.372917 0.722140 0.131617
O O2 0.355541 0.615986 0.245293
O O3 0.516936 0.625712 0.173267
O O4 0.392038 0.613527 0.045203
O O5 0.750000 0.750000 0.750000
O O6 0.728126 0.681161 0.893916
O O7 0.706285 0.817874 0.910231
O O8 0.812962 0.089222 0.207583
O O9 0.943517 0.000000 0.250000
O O10 0.691095 0.054240 0.075311
O O11 0.931286 0.386272 0.849599
O O12 0.304130 0.956115 0.428900
#
# Coordination Sequence:
#
# PCOD9531762 Si02
#       6
#    16  16  16  16  16   8
#     4  11  26  43  76 100 144 195 242 303 372 439
#     4  10  21  45  76  99 140 193 241 302 372 439
#     4  11  26  46  70 109 148 190 250 314 370 451
#     4  12  26  43  70 107 150 187 245 307 374 447
#     4  12  23  45  75 102 143 194 246 294 372 447
#     4  12  24  40  80 102 146 198 244 304 386 440
#
# _framework density 22.830176000000002
#
# number of rings (size 3 to 8) (size 9 to 14) (size 15 to 20)
#    0.000    0.727    7.273    0.000    5.091    2.909 
#    0.000    0.000    8.000    0.000    0.000    0.000 
#    0.000    0.000    0.000    0.000    0.000    0.000 
#
# Total GULP energy -245290.664574 kJ/mol
# GULP energy per Si atom -5574.787831 kJ/mol
# Density = 2.277821 g / cm^3
# Si number density = 22.830176 Si / 1000 Ang^3
#
#
#
# Elastic Constant Matrix: (Units=GPa)
#
#
# Indices 1 2 3 4 5 6 
#
# 1 56.1564 8.3214 16.7212 0.0000 0.0000 0.0000
# 2 8.3214 134.5765 38.4543 0.0000 0.0000 0.0000
# 3 16.7212 38.4543 144.9309 0.0000 0.0000 0.0000
# 4 0.0000 0.0000 0.0000 45.0770 0.0000 0.0000
# 5 0.0000 0.0000 0.0000 0.0000 43.4656 0.0000
# 6 0.0000 0.0000 0.0000 0.0000 0.0000 6.2624
#
#
#
# Elastic Compliance Matrix: (Units=1/GPa)
#
#
# Indices 1 2 3 4 5 6 
#
# 1 0.018482 -0.000577 -0.001979 0.000000 0.000000 0.000000
# 2 -0.000577 0.008058 -0.002072 0.000000 0.000000 0.000000
# 3 -0.001979 -0.002072 0.007678 0.000000 0.000000 0.000000
# 4 0.000000 0.000000 0.000000 0.022184 0.000000 0.000000
# 5 0.000000 0.000000 0.000000 0.000000 0.023007 0.000000
# 6 0.000000 0.000000 0.000000 0.000000 0.000000 0.159684
#
#
# Mechanical properties :
#
#
# Convention : Reuss Voigt Hill
#
# Bulk Modulus (GPa) = 40.06017 51.40642 45.73329
# Shear Modulus (GPa) = 19.48027 37.10545 28.29286
#
# Velocity S-wave (km/s) = 2.92424 4.03585 3.52415
# Velocity P-wave (km/s) = 5.38393 6.65456 6.05268
#
# Compressibility (1/GPa) = 0.02496245
#
# Stress axis : x y z
#
# Youngs Moduli (GPa) = 54.10583 124.09519 130.24537
#
# Poissons Ratio (x) = 0.07164 0.25778
# Poissons Ratio (y) = 0.03124 0.26980
# Poissons Ratio (z) = 0.10709 0.25706
#
# Static dielectric constant tensor:
#      x y z
#    x 1.916980 0.000000 0.000000 
#    y 0.000000 1.944800 0.000000 
#    z 0.000000 0.000000 1.911830 
# 
# From -- ./inp_files/11094.got.cif
#   From: 2010.05.17/outbox.cif.g08.bks.cpg/sg73_6_cif.got.tgz:11094.got - 2010.06.03 17:35:07.
