data_PCOD9531533
_publ_section_title
;
Structure prediction by ZEFSAII (Michael W. Deem and Ramdas Pophale) SiO2 
 PCOD9531533
Probable space group: I B C A 
;
_chemical_formula_sum "Si O2"
_cell_formula_units_Z 120
_cell_length_a 20.578257
_cell_length_b 21.224451
_cell_length_c 11.281677
_cell_angle_alpha 90.000000
_cell_angle_beta 90.000000
_cell_angle_gamma 90.000000
_cell_volume 4927.410149
_symmetry_space_group_name_H-M "I B C A "
_symmetry_group_IT_number 73
_symmetry_cell_setting 'orthorhombic'
loop_
_space_group_symop_operation_xyz
x,y,z
-x,1/2-y,z
x,-y,1/2-z
1/2-x,y,-z
-x,-y,-z
x,1/2+y,-z
-x,y,1/2+z
1/2+x,-y,z
1/2+x,1/2+y,1/2+z
1/2-x,-y,1/2+z
1/2+x,1/2-y,-z
-x,1/2+y,1/2-z
1/2-x,1/2-y,1/2-z
1/2+x,y,1/2-z
1/2-x,1/2+y,z
x,1/2-y,1/2+z
loop_
_atom_site_type_symbol
_atom_site_label
_atom_site_fract_x
_atom_site_fract_y
_atom_site_fract_z
Si Si1 0.038197 0.071298 0.727266
Si Si2 0.869819 0.150484 0.378839
Si Si3 0.250000 0.683835 0.000000
Si Si4 0.563315 0.770416 0.492138
Si Si5 0.334313 0.264384 0.834176
Si Si6 0.418203 0.150209 0.724901
Si Si7 0.167670 0.540889 0.374988
Si Si8 0.312385 0.450877 0.142080
O O1 0.080073 0.097461 0.839460
O O2 0.095268 0.069943 0.629992
O O3 0.975530 0.114515 0.704834
O O4 0.015818 0.000000 0.750000
O O5 0.810004 0.139140 0.466310
O O6 0.909246 0.206652 0.437056
O O7 0.834805 0.182912 0.265909
O O8 0.272342 0.731869 0.105030
O O9 0.500000 0.750000 0.564825
O O10 0.623578 0.796516 0.563202
O O11 0.546790 0.816452 0.385817
O O12 0.378455 0.205477 0.789940
O O13 0.365059 0.101910 0.673909
O O14 0.167345 0.500000 0.250000
O O15 0.237896 0.575202 0.362129
O O16 0.173281 0.518444 0.512501
O O17 0.314877 0.500000 0.250000
#
# Coordination Sequence:
#
# PCOD9531533 Si02
#       8
#    16  16   8  16  16  16  16  16
#     4  11  24  45  67 101 141 186 241 300 356 430
#     4  10  22  42  69  97 139 180 230 290 361 429
#     4  10  22  46  64 106 136 178 230 292 364 432
#     4  10  21  40  65  96 135 183 234 282 361 439
#     4  10  24  40  69 102 138 181 231 295 364 439
#     4  11  24  42  69 104 140 188 237 303 367 436
#     4   9  22  46  72 101 139 197 247 300 367 435
#     4  10  22  46  72 106 144 190 245 308 371 443
#
# _framework density 24.353565
#
# number of rings (size 3 to 8) (size 9 to 14) (size 15 to 20)
#    0.000    1.867    1.333    0.800    5.600    0.000 
#    9.600    3.333    0.000    0.000    0.000    0.000 
#    0.000    0.000    0.000    0.000    0.000    0.000 
#
# Total GULP energy -334629.850531 kJ/mol
# GULP energy per Si atom -5577.164176 kJ/mol
# Density = 2.429813 g / cm^3
# Si number density = 24.353565 Si / 1000 Ang^3
#
#
#
# Elastic Constant Matrix: (Units=GPa)
#
#
# Indices 1 2 3 4 5 6 
#
# 1 114.3366 19.4666 5.4235 0.0000 0.0000 0.0000
# 2 19.4666 88.7591 16.9609 0.0000 0.0000 0.0000
# 3 5.4235 16.9609 76.9003 0.0000 0.0000 0.0000
# 4 0.0000 0.0000 0.0000 17.8203 0.0000 0.0000
# 5 0.0000 0.0000 0.0000 0.0000 21.3485 0.0000
# 6 0.0000 0.0000 0.0000 0.0000 0.0000 19.3945
#
#
#
# Elastic Compliance Matrix: (Units=1/GPa)
#
#
# Indices 1 2 3 4 5 6 
#
# 1 0.009089 -0.001953 -0.000210 0.000000 0.000000 0.000000
# 2 -0.001953 0.012182 -0.002549 0.000000 0.000000 0.000000
# 3 -0.000210 -0.002549 0.013581 0.000000 0.000000 0.000000
# 4 0.000000 0.000000 0.000000 0.056116 0.000000 0.000000
# 5 0.000000 0.000000 0.000000 0.000000 0.046842 0.000000
# 6 0.000000 0.000000 0.000000 0.000000 0.000000 0.051561
#
#
# Mechanical properties :
#
#
# Convention : Reuss Voigt Hill
#
# Bulk Modulus (GPa) = 39.32888 40.41087 39.86988
# Shear Modulus (GPa) = 24.12309 27.58899 25.85604
#
# Velocity S-wave (km/s) = 3.15069 3.36944 3.26190
# Velocity P-wave (km/s) = 5.42402 5.63622 5.53114
#
# Compressibility (1/GPa) = 0.02542661
#
# Stress axis : x y z
#
# Youngs Moduli (GPa) = 110.02776 82.08892 73.63288
#
# Poissons Ratio (x) = 0.16033 0.01548
# Poissons Ratio (y) = 0.21490 0.18769
# Poissons Ratio (z) = 0.02313 0.20925
#
# Static dielectric constant tensor:
#      x y z
#    x 1.925560 0.000000 0.000000 
#    y 0.000000 1.960510 0.000000 
#    z 0.000000 0.000000 2.025350 
# 
# From -- ./inp_files/13101.got.cif
#   From: 2010.05.17/outbox.cif.g08.bks.cpg/sg73_7_cif.got.tgz:13101.got - 2010.06.03 17:35:07.
