data_PCOD9531277
_publ_section_title
;
Structure prediction by ZEFSAII (Michael W. Deem and Ramdas Pophale) SiO2 
 PCOD9531277
Probable space group: I B C A 
;
_chemical_formula_sum "Si O2"
_cell_formula_units_Z 104
_cell_length_a 8.777970
_cell_length_b 20.966205
_cell_length_c 22.932404
_cell_angle_alpha 90.000000
_cell_angle_beta 90.000000
_cell_angle_gamma 90.000000
_cell_volume 4220.496109
_symmetry_space_group_name_H-M "I B C A "
_symmetry_group_IT_number 73
_symmetry_cell_setting 'orthorhombic'
loop_
_space_group_symop_operation_xyz
x,y,z
-x,1/2-y,z
x,-y,1/2-z
1/2-x,y,-z
-x,-y,-z
x,1/2+y,-z
-x,y,1/2+z
1/2+x,-y,z
1/2+x,1/2+y,1/2+z
1/2-x,-y,1/2+z
1/2+x,1/2-y,-z
-x,1/2+y,1/2-z
1/2-x,1/2-y,1/2-z
1/2+x,y,1/2-z
1/2-x,1/2+y,z
x,1/2-y,1/2+z
loop_
_atom_site_type_symbol
_atom_site_label
_atom_site_fract_x
_atom_site_fract_y
_atom_site_fract_z
Si Si1 0.829517 0.280160 0.121716
Si Si2 0.994496 0.567972 0.468400
Si Si3 0.703206 0.044727 0.351772
Si Si4 0.760698 0.601388 0.878368
Si Si5 0.750000 0.658344 0.500000
Si Si6 0.487257 0.132658 0.787529
Si Si7 0.548175 0.656283 0.346141
O O1 0.647375 0.280846 0.138936
O O2 0.000000 0.250000 0.113781
O O3 0.874110 0.321427 0.178480
O O4 0.799224 0.302867 0.055967
O O5 0.149836 0.595294 0.440008
O O6 0.000000 0.500000 0.500000
O O7 0.893568 0.560341 0.409794
O O8 0.897680 0.613840 0.509861
O O9 0.595889 0.064476 0.297425
O O10 0.848430 0.091201 0.353776
O O11 0.738836 0.970679 0.356025
O O12 0.862035 0.633852 0.827714
O O13 0.605748 0.640507 0.881441
O O14 0.509776 0.153659 0.722357
#
# Coordination Sequence:
#
# PCOD9531277 Si02
#       7
#    16  16  16  16   8  16  16
#     4  11  26  50  76 100 137 194 253 324 402 457
#     4  11  23  38  68 103 146 200 247 296 365 455
#     4  10  21  37  59 104 150 195 243 285 369 453
#     4  11  21  36  61 107 145 192 256 298 366 452
#     4  12  22  50  78  96 150 202 242 312 378 468
#     4  10  22  42  66 101 146 196 247 309 381 457
#     4  11  22  41  68 104 147 193 246 317 382 444
#
# _framework density 24.641653000000002
#
# number of rings (size 3 to 8) (size 9 to 14) (size 15 to 20)
#    0.000    1.231    4.615    4.615    2.154    4.308 
#    0.000    3.077    0.000    0.000    0.000    0.000 
#    0.000    0.000    0.000    0.000    0.000    0.000 
#
# Total GULP energy -289862.592134 kJ/mol
# GULP energy per Si atom -5574.280618 kJ/mol
# Density = 2.458557 g / cm^3
# Si number density = 24.641653 Si / 1000 Ang^3
#
#
#
# Elastic Constant Matrix: (Units=GPa)
#
#
# Indices 1 2 3 4 5 6 
#
# 1 214.6034 61.1074 63.6857 0.0000 0.0000 0.0000
# 2 61.1074 50.2651 44.9219 0.0000 0.0000 0.0000
# 3 63.6857 44.9219 142.8227 0.0000 0.0000 0.0000
# 4 0.0000 0.0000 0.0000 8.4152 0.0000 0.0000
# 5 0.0000 0.0000 0.0000 0.0000 45.1939 0.0000
# 6 0.0000 0.0000 0.0000 0.0000 0.0000 54.0438
#
#
#
# Elastic Compliance Matrix: (Units=1/GPa)
#
#
# Indices 1 2 3 4 5 6 
#
# 1 0.007168 -0.008148 -0.000633 0.000000 0.000000 0.000000
# 2 -0.008148 0.036935 -0.007984 0.000000 0.000000 0.000000
# 3 -0.000633 -0.007984 0.009795 0.000000 0.000000 0.000000
# 4 0.000000 0.000000 0.000000 0.118833 0.000000 0.000000
# 5 0.000000 0.000000 0.000000 0.000000 0.022127 0.000000
# 6 0.000000 0.000000 0.000000 0.000000 0.000000 0.018504
#
#
# Mechanical properties :
#
#
# Convention : Reuss Voigt Hill
#
# Bulk Modulus (GPa) = 49.09723 83.01347 66.05535
# Shear Modulus (GPa) = 19.70981 37.39566 28.55273
#
# Velocity S-wave (km/s) = 2.83124 3.89984 3.40769
# Velocity P-wave (km/s) = 5.53676 7.35117 6.50751
#
# Compressibility (1/GPa) = 0.02036775
#
# Stress axis : x y z
#
# Youngs Moduli (GPa) = 139.51311 27.07455 102.08922
#
# Poissons Ratio (x) = 0.22060 0.06467
# Poissons Ratio (y) = 1.13672 0.81508
# Poissons Ratio (z) = 0.08838 0.21616
#
# Static dielectric constant tensor:
#      x y z
#    x 2.065290 0.000000 0.000000 
#    y 0.000000 2.152440 0.000000 
#    z 0.000000 0.000000 1.891570 
# 
# From -- ./inp_files/28488.got.cif
#   From: 2010.05.17/outbox.cif.g08.bks.cpg/sg73_15_cif.got.tgz:28488.got - 2010.06.03 17:35:07.
