data_PCOD9531900
_publ_section_title
;
Structure prediction by ZEFSAII (Michael W. Deem and Ramdas Pophale) SiO2 
 PCOD9531900
Probable space group: I B C A 
;
_chemical_formula_sum "Si O2"
_cell_formula_units_Z 80
_cell_length_a 8.096387
_cell_length_b 17.928782
_cell_length_c 22.046061
_cell_angle_alpha 90.000000
_cell_angle_beta 90.000000
_cell_angle_gamma 90.000000
_cell_volume 3200.170004
_symmetry_space_group_name_H-M "I B C A "
_symmetry_group_IT_number 73
_symmetry_cell_setting 'orthorhombic'
loop_
_space_group_symop_operation_xyz
x,y,z
-x,1/2-y,z
x,-y,1/2-z
1/2-x,y,-z
-x,-y,-z
x,1/2+y,-z
-x,y,1/2+z
1/2+x,-y,z
1/2+x,1/2+y,1/2+z
1/2-x,-y,1/2+z
1/2+x,1/2-y,-z
-x,1/2+y,1/2-z
1/2-x,1/2-y,1/2-z
1/2+x,y,1/2-z
1/2-x,1/2+y,z
x,1/2-y,1/2+z
loop_
_atom_site_type_symbol
_atom_site_label
_atom_site_fract_x
_atom_site_fract_y
_atom_site_fract_z
Si Si1 0.947818 0.013956 0.318999
Si Si2 0.750000 0.053730 0.500000
Si Si3 0.500000 0.250000 0.775896
Si Si4 0.758497 0.070733 0.897493
Si Si5 0.999834 0.329332 0.453490
Si Si6 0.303291 0.163599 0.172691
O O1 0.796417 0.073860 0.322290
O O2 0.093419 0.058621 0.350531
O O3 0.982597 0.000000 0.250000
O O4 0.903397 0.940367 0.357409
O O5 0.910123 0.105961 0.491737
O O6 0.758735 0.998523 0.556556
O O7 0.365084 0.207998 0.816454
O O8 0.585009 0.191701 0.729277
O O9 0.817944 0.143270 0.933345
O O10 0.112243 0.319447 0.392357
O O11 0.000000 0.250000 0.485427
#
# Coordination Sequence:
#
# PCOD9531900 Si02
#       6
#    16   8   8  16  16  16
#     4  11  25  40  69 102 133 177 229 279 337 413
#     4  12  24  50  70 100 134 186 236 282 344 402
#     4  10  22  38  68  90 138 190 206 284 350 402
#     4  11  24  45  72  99 139 178 227 287 340 410
#     4  11  25  46  67 100 138 175 230 288 337 410
#     4  10  22  41  62  96 135 174 227 271 337 412
#
# _framework density 24.998671999999999
#
# number of rings (size 3 to 8) (size 9 to 14) (size 15 to 20)
#    0.000    1.200    5.000    1.200    8.400    0.800 
#    1.800    0.000    0.000    0.000    0.000    0.000 
#    0.000    0.000    0.000    0.000    0.000    0.000 
#
# Total GULP energy -223988.646846 kJ/mol
# GULP energy per Si atom -5599.716171 kJ/mol
# Density = 2.494177 g / cm^3
# Si number density = 24.998672 Si / 1000 Ang^3
#
#
#
# Elastic Constant Matrix: (Units=GPa)
#
#
# Indices 1 2 3 4 5 6 
#
# 1 30.9718 -0.9311 1.7316 0.0000 0.0000 0.0000
# 2 -0.9311 112.2867 14.4682 0.0000 0.0000 0.0000
# 3 1.7316 14.4682 110.4843 0.0000 0.0000 0.0000
# 4 0.0000 0.0000 0.0000 -23.9023 0.0000 0.0000
# 5 0.0000 0.0000 0.0000 0.0000 37.8168 0.0000
# 6 0.0000 0.0000 0.0000 0.0000 0.0000 42.6922
#
#
#
# Elastic Compliance Matrix: (Units=1/GPa)
#
#
# Indices 1 2 3 4 5 6 
#
# 1 0.032328 0.000339 -0.000551 0.000000 0.000000 0.000000
# 2 0.000339 0.009062 -0.001192 0.000000 0.000000 0.000000
# 3 -0.000551 -0.001192 0.009216 0.000000 0.000000 0.000000
# 4 0.000000 0.000000 0.000000 -0.041837 0.000000 0.000000
# 5 0.000000 0.000000 0.000000 0.000000 0.026443 0.000000
# 6 0.000000 0.000000 0.000000 0.000000 0.000000 0.023423
#
#
# Mechanical properties :
#
#
# Convention : Reuss Voigt Hill
#
# Bulk Modulus (GPa) = 20.92122 31.58669 26.25395
# Shear Modulus (GPa) = 64.61868 27.21962 45.91915
#
# Velocity S-wave (km/s) = 5.08969 3.30334 4.29051
# Velocity P-wave (km/s) = 6.55187 5.21653 5.92196
#
# Compressibility (1/GPa) = 0.04779836
#
# Stress axis : x y z
#
# Youngs Moduli (GPa) = 30.93250 110.34877 108.50933
#
# Poissons Ratio (x) = -0.03742 0.05980
# Poissons Ratio (y) = -0.01049 0.12935
# Poissons Ratio (z) = 0.01705 0.13154
#
# Static dielectric constant tensor:
#      x y z
#    x 2.085700 0.000000 0.000000 
#    y 0.000000 2.046760 0.000000 
#    z 0.000000 0.000000 1.954950 
# 
# From -- ./inp_files/7012.got.cif
#   From: 2010.05.17/outbox.cif.g08.bks.cpg/sg73_4_cif.got.tgz:7012.got - 2010.06.03 17:35:07.
