data_PCOD9531548
_publ_section_title
;
Structure prediction by ZEFSAII (Michael W. Deem and Ramdas Pophale) SiO2 
 PCOD9531548
Probable space group: I B C A 
;
_chemical_formula_sum "Si O2"
_cell_formula_units_Z 88
_cell_length_a 15.832710
_cell_length_b 12.306748
_cell_length_c 17.628292
_cell_angle_alpha 90.000000
_cell_angle_beta 90.000000
_cell_angle_gamma 90.000000
_cell_volume 3434.858102
_symmetry_space_group_name_H-M "I B C A "
_symmetry_group_IT_number 73
_symmetry_cell_setting 'orthorhombic'
loop_
_space_group_symop_operation_xyz
x,y,z
-x,1/2-y,z
x,-y,1/2-z
1/2-x,y,-z
-x,-y,-z
x,1/2+y,-z
-x,y,1/2+z
1/2+x,-y,z
1/2+x,1/2+y,1/2+z
1/2-x,-y,1/2+z
1/2+x,1/2-y,-z
-x,1/2+y,1/2-z
1/2-x,1/2-y,1/2-z
1/2+x,y,1/2-z
1/2-x,1/2+y,z
x,1/2-y,1/2+z
loop_
_atom_site_type_symbol
_atom_site_label
_atom_site_fract_x
_atom_site_fract_y
_atom_site_fract_z
Si Si1 0.373433 0.232262 0.709254
Si Si2 0.250000 0.272225 0.500000
Si Si3 0.910531 0.296430 0.120868
Si Si4 0.740744 0.354237 0.380846
Si Si5 0.359024 0.570041 0.902316
Si Si6 0.527083 0.525212 0.838338
O O1 0.403066 0.252858 0.794042
O O2 0.284301 0.169819 0.698485
O O3 0.362051 0.343466 0.665812
O O4 0.435516 0.145321 0.670363
O O5 0.197535 0.171409 0.449330
O O6 0.320827 0.366748 0.527561
O O7 0.820931 0.247593 0.090101
O O8 0.912660 0.425411 0.135938
O O9 0.000000 0.250000 0.089393
O O10 0.697866 0.467737 0.382125
O O11 0.453832 0.525557 0.900591
O O12 0.500887 0.500000 0.750000
#
# Coordination Sequence:
#
# PCOD9531548 Si02
#       6
#    16   8  16  16  16  16
#     4  10  23  38  67  99 136 171 215 273 344 414
#     4  10  26  46  64  90 134 178 238 286 320 396
#     4  11  21  41  64 100 139 168 213 274 342 414
#     4  11  24  42  65  94 127 179 224 277 339 395
#     4  11  22  43  71  93 134 178 228 276 346 396
#     4  10  21  40  67 102 139 171 216 278 341 416
#
# _framework density 25.619689999999999
#
# number of rings (size 3 to 8) (size 9 to 14) (size 15 to 20)
#    0.000    1.455    1.818    3.818    5.091    0.000 
#    3.273    4.545    0.000    0.000    0.000    0.000 
#    0.000    0.000    0.000    0.000    0.000    0.000 
#
# Total GULP energy -245292.924517 kJ/mol
# GULP energy per Si atom -5574.839194 kJ/mol
# Density = 2.556138 g / cm^3
# Si number density = 25.619690 Si / 1000 Ang^3
#
#
#
# Elastic Constant Matrix: (Units=GPa)
#
#
# Indices 1 2 3 4 5 6 
#
# 1 85.7463 21.7247 18.0633 0.0000 0.0000 0.0000
# 2 21.7247 156.6151 14.2359 0.0000 0.0000 0.0000
# 3 18.0633 14.2359 66.5128 0.0000 0.0000 0.0000
# 4 0.0000 0.0000 0.0000 30.1869 0.0000 0.0000
# 5 0.0000 0.0000 0.0000 0.0000 25.4460 0.0000
# 6 0.0000 0.0000 0.0000 0.0000 0.0000 50.9198
#
#
#
# Elastic Compliance Matrix: (Units=1/GPa)
#
#
# Indices 1 2 3 4 5 6 
#
# 1 0.012696 -0.001476 -0.003132 0.000000 0.000000 0.000000
# 2 -0.001476 0.006683 -0.001030 0.000000 0.000000 0.000000
# 3 -0.003132 -0.001030 0.016106 0.000000 0.000000 0.000000
# 4 0.000000 0.000000 0.000000 0.033127 0.000000 0.000000
# 5 0.000000 0.000000 0.000000 0.000000 0.039299 0.000000
# 6 0.000000 0.000000 0.000000 0.000000 0.000000 0.019639
#
#
# Mechanical properties :
#
#
# Convention : Reuss Voigt Hill
#
# Bulk Modulus (GPa) = 41.30629 46.32467 43.81548
# Shear Modulus (GPa) = 34.03778 38.30054 36.16916
#
# Velocity S-wave (km/s) = 3.64892 3.87067 3.76143
# Velocity P-wave (km/s) = 5.82329 6.17228 6.00032
#
# Compressibility (1/GPa) = 0.02420939
#
# Stress axis : x y z
#
# Youngs Moduli (GPa) = 78.76394 149.62306 62.09009
#
# Poissons Ratio (x) = 0.22091 0.19446
# Poissons Ratio (y) = 0.11629 0.06392
# Poissons Ratio (z) = 0.24669 0.15404
#
# Static dielectric constant tensor:
#      x y z
#    x 2.381730 0.000000 0.000000 
#    y 0.000000 2.004470 0.000000 
#    z 0.000000 0.000000 2.435970 
# 
# From -- ./inp_files/11859.got.cif
#   From: 2010.05.17/outbox.cif.g08.bks.cpg/sg73_6_cif.got.tgz:11859.got - 2010.06.03 17:35:07.
