data_PCOD9531758
_publ_section_title
;
Structure prediction by ZEFSAII (Michael W. Deem and Ramdas Pophale) SiO2 
 PCOD9531758
Probable space group: I B C A 
;
_chemical_formula_sum "Si O2"
_cell_formula_units_Z 80
_cell_length_a 10.325926
_cell_length_b 13.834669
_cell_length_c 24.337277
_cell_angle_alpha 90.000000
_cell_angle_beta 90.000000
_cell_angle_gamma 90.000000
_cell_volume 3476.720405
_symmetry_space_group_name_H-M "I B C A "
_symmetry_group_IT_number 73
_symmetry_cell_setting 'orthorhombic'
loop_
_space_group_symop_operation_xyz
x,y,z
-x,1/2-y,z
x,-y,1/2-z
1/2-x,y,-z
-x,-y,-z
x,1/2+y,-z
-x,y,1/2+z
1/2+x,-y,z
1/2+x,1/2+y,1/2+z
1/2-x,-y,1/2+z
1/2+x,1/2-y,-z
-x,1/2+y,1/2-z
1/2-x,1/2-y,1/2-z
1/2+x,y,1/2-z
1/2-x,1/2+y,z
x,1/2-y,1/2+z
loop_
_atom_site_type_symbol
_atom_site_label
_atom_site_fract_x
_atom_site_fract_y
_atom_site_fract_z
Si Si1 0.569723 0.104522 0.194767
Si Si2 0.291080 0.355163 0.558381
Si Si3 0.000000 0.250000 0.894925
Si Si4 0.811851 0.998541 0.150310
Si Si5 0.500000 0.250000 0.788724
Si Si6 0.371342 0.697021 0.604952
O O1 0.585413 0.188909 0.148814
O O2 0.698292 0.040191 0.188885
O O3 0.543447 0.160556 0.251298
O O4 0.437572 0.046137 0.180303
O O5 0.250000 0.394017 0.500000
O O6 0.441511 0.333911 0.567304
O O7 0.248977 0.418370 0.610394
O O8 0.235939 0.248041 0.568667
O O9 0.862024 0.082502 0.108983
O O10 0.382859 0.275341 0.830048
O O11 0.500000 0.750000 0.582684
#
# Coordination Sequence:
#
# PCOD9531758 Si02
#       6
#    16  16   8  16   8  16
#     4  10  21  45  68 100 142 185 227 284 354 414
#     4  11  24  43  70 100 137 184 232 294 356 406
#     4   9  20  43  66  94 136 183 230 281 340 426
#     4  11  23  44  70 104 143 179 241 292 340 437
#     4   9  24  45  68  98 136 195 224 285 344 432
#     4  10  23  46  66 102 137 178 235 291 337 429
#
# _framework density 23.010189
#
# number of rings (size 3 to 8) (size 9 to 14) (size 15 to 20)
#    0.600    1.200    2.000    1.200    1.400    2.400 
#    3.600    3.000    0.000    0.000    0.000    0.000 
#    0.000    0.000    0.000    0.000    0.000    0.000 
#
# Total GULP energy -223035.953990 kJ/mol
# GULP energy per Si atom -5575.898850 kJ/mol
# Density = 2.295782 g / cm^3
# Si number density = 23.010189 Si / 1000 Ang^3
#
#
#
# Elastic Constant Matrix: (Units=GPa)
#
#
# Indices 1 2 3 4 5 6 
#
# 1 76.1172 7.1928 25.6814 0.0000 0.0000 0.0000
# 2 7.1928 66.0351 7.6816 0.0000 0.0000 0.0000
# 3 25.6814 7.6816 61.3769 0.0000 0.0000 0.0000
# 4 0.0000 0.0000 0.0000 -453.4738 0.0000 0.0000
# 5 0.0000 0.0000 0.0000 0.0000 16.2492 0.0000
# 6 0.0000 0.0000 0.0000 0.0000 0.0000 41.7039
#
#
#
# Elastic Compliance Matrix: (Units=1/GPa)
#
#
# Indices 1 2 3 4 5 6 
#
# 1 0.015354 -0.000939 -0.006307 0.000000 0.000000 0.000000
# 2 -0.000939 0.015425 -0.001538 0.000000 0.000000 0.000000
# 3 -0.006307 -0.001538 0.019124 0.000000 0.000000 0.000000
# 4 0.000000 0.000000 0.000000 -0.002205 0.000000 0.000000
# 5 0.000000 0.000000 0.000000 0.000000 0.061542 0.000000
# 6 0.000000 0.000000 0.000000 0.000000 0.000000 0.023979
#
#
# Mechanical properties :
#
#
# Convention : Reuss Voigt Hill
#
# Bulk Modulus (GPa) = 30.92518 31.62676 31.27597
# Shear Modulus (GPa) = 30.94755 -68.23925 -18.64585
#
# Velocity S-wave (km/s) = 3.67133 -5.45165 -2.84972
# Velocity P-wave (km/s) = 5.60719 5.08456 1.67149
#
# Compressibility (1/GPa) = 0.03233611
#
# Stress axis : x y z
#
# Youngs Moduli (GPa) = 65.12836 64.83161 52.28971
#
# Poissons Ratio (x) = 0.06086 0.32979
# Poissons Ratio (y) = 0.06114 0.08040
# Poissons Ratio (z) = 0.41077 0.09969
#
# Static dielectric constant tensor:
#      x y z
#    x 2.223150 0.000000 0.000000 
#    y 0.000000 1.889840 0.000000 
#    z 0.000000 0.000000 1.836840 
# 
# From -- ./inp_files/31689.got.cif
#   From: 2010.05.17/outbox.cif.g08.bks.cpg/sg73_16_cif.got.tgz:31689.got - 2010.06.03 17:35:07.
