data_PCOD9531347
_publ_section_title
;
Structure prediction by ZEFSAII (Michael W. Deem and Ramdas Pophale) SiO2 
 PCOD9531347
Probable space group: I B C A 
;
_chemical_formula_sum "Si O2"
_cell_formula_units_Z 64
_cell_length_a 15.140312
_cell_length_b 19.136970
_cell_length_c 7.801544
_cell_angle_alpha 90.000000
_cell_angle_beta 90.000000
_cell_angle_gamma 90.000000
_cell_volume 2260.416991
_symmetry_space_group_name_H-M "I B C A "
_symmetry_group_IT_number 73
_symmetry_cell_setting 'orthorhombic'
loop_
_space_group_symop_operation_xyz
x,y,z
-x,1/2-y,z
x,-y,1/2-z
1/2-x,y,-z
-x,-y,-z
x,1/2+y,-z
-x,y,1/2+z
1/2+x,-y,z
1/2+x,1/2+y,1/2+z
1/2-x,-y,1/2+z
1/2+x,1/2-y,-z
-x,1/2+y,1/2-z
1/2-x,1/2-y,1/2-z
1/2+x,y,1/2-z
1/2-x,1/2+y,z
x,1/2-y,1/2+z
loop_
_atom_site_type_symbol
_atom_site_label
_atom_site_fract_x
_atom_site_fract_y
_atom_site_fract_z
Si Si1 0.641843 0.012286 0.977308
Si Si2 0.625933 0.109072 0.294292
Si Si3 0.331331 0.360066 0.760723
Si Si4 0.096856 0.231765 0.433284
O O1 0.627338 0.064270 0.814853
O O2 0.750000 0.009430 0.000000
O O3 0.604841 0.058016 0.135294
O O4 0.608295 0.934975 0.032820
O O5 0.730659 0.122387 0.280421
O O6 0.585727 0.182194 0.234663
O O7 0.360147 0.304959 0.617457
O O8 0.347166 0.313323 0.931831
O O9 0.000000 0.250000 0.493106
#
# Coordination Sequence:
#
# PCOD9531347 Si02
#       4
#    16  16  16  16
#     4   8  16  33  57  87 117 151 207 266 309 362
#     4   9  18  34  59  87 120 161 207 260 315 375
#     4  10  21  38  61  91 124 166 215 266 323 382
#     4  11  22  37  57  89 131 170 208 260 321 388
#
# _framework density 28.313361
#
# number of rings (size 3 to 8) (size 9 to 14) (size 15 to 20)
#    0.000    2.500    0.000    3.750    0.000    2.000 
#    0.000    1.250    0.000   24.000    0.000    5.250 
#    0.000    0.000    0.000    0.000    0.000    0.000 
#
# Total GULP energy -179058.235731 kJ/mol
# GULP energy per Si atom -5595.569867 kJ/mol
# Density = 2.824892 g / cm^3
# Si number density = 28.313361 Si / 1000 Ang^3
#
#
#
# Elastic Constant Matrix: (Units=GPa)
#
#
# Indices 1 2 3 4 5 6 
#
# 1 63.2179 34.2836 41.3080 0.0000 0.0000 0.0000
# 2 34.2836 302.1387 76.0270 0.0000 0.0000 0.0000
# 3 41.3080 76.0270 157.2606 0.0000 0.0000 0.0000
# 4 0.0000 0.0000 0.0000 99.5360 0.0000 0.0000
# 5 0.0000 0.0000 0.0000 0.0000 10.2930 0.0000
# 6 0.0000 0.0000 0.0000 0.0000 0.0000 -62.9164
#
#
#
# Elastic Compliance Matrix: (Units=1/GPa)
#
#
# Indices 1 2 3 4 5 6 
#
# 1 0.019382 -0.001045 -0.004586 0.000000 0.000000 0.000000
# 2 -0.001045 0.003825 -0.001574 0.000000 0.000000 0.000000
# 3 -0.004586 -0.001574 0.008325 0.000000 0.000000 0.000000
# 4 0.000000 0.000000 0.000000 0.010047 0.000000 0.000000
# 5 0.000000 0.000000 0.000000 0.000000 0.097153 0.000000
# 6 0.000000 0.000000 0.000000 0.000000 0.000000 -0.015894
#
#
# Mechanical properties :
#
#
# Convention : Reuss Voigt Hill
#
# Bulk Modulus (GPa) = 58.41156 91.76161 75.08659
# Shear Modulus (GPa) = 34.97633 34.11577 34.54605
#
# Velocity S-wave (km/s) = 3.51854 3.47498 3.49683
# Velocity P-wave (km/s) = 6.09770 6.96996 6.54837
#
# Compressibility (1/GPa) = 0.01711990
#
# Stress axis : x y z
#
# Youngs Moduli (GPa) = 51.59546 261.47151 120.12717
#
# Poissons Ratio (x) = 0.27333 0.55086
# Poissons Ratio (y) = 0.05393 0.18912
# Poissons Ratio (z) = 0.23660 0.41165
#
# Static dielectric constant tensor:
#      x y z
#    x 2.185140 0.000000 0.000000 
#    y 0.000000 2.178710 0.000000 
#    z 0.000000 0.000000 2.405750 
# 
# From -- ./inp_files/5187.got.cif
#   From: 2010.05.17/outbox.cif.g08.bks.cpg/sg73_3_cif.got.tgz:5187.got - 2010.06.03 17:35:07.
