data_PCOD9531384
_publ_section_title
;
Structure prediction by ZEFSAII (Michael W. Deem and Ramdas Pophale) SiO2 
 PCOD9531384
Probable space group: I B C A 
;
_chemical_formula_sum "Si O2"
_cell_formula_units_Z 104
_cell_length_a 20.811853
_cell_length_b 25.186401
_cell_length_c 9.540541
_cell_angle_alpha 90.000000
_cell_angle_beta 90.000000
_cell_angle_gamma 90.000000
_cell_volume 5000.919521
_symmetry_space_group_name_H-M "I B C A "
_symmetry_group_IT_number 73
_symmetry_cell_setting 'orthorhombic'
loop_
_space_group_symop_operation_xyz
x,y,z
-x,1/2-y,z
x,-y,1/2-z
1/2-x,y,-z
-x,-y,-z
x,1/2+y,-z
-x,y,1/2+z
1/2+x,-y,z
1/2+x,1/2+y,1/2+z
1/2-x,-y,1/2+z
1/2+x,1/2-y,-z
-x,1/2+y,1/2-z
1/2-x,1/2-y,1/2-z
1/2+x,y,1/2-z
1/2-x,1/2+y,z
x,1/2-y,1/2+z
loop_
_atom_site_type_symbol
_atom_site_label
_atom_site_fract_x
_atom_site_fract_y
_atom_site_fract_z
Si Si1 0.413618 0.160928 0.622253
Si Si2 0.814750 0.874086 0.084451
Si Si3 0.000000 0.750000 0.506556
Si Si4 0.190539 0.168758 0.601983
Si Si5 0.448459 0.045079 0.632887
Si Si6 0.864837 0.783033 0.882620
Si Si7 0.405721 0.525054 0.903098
O O1 0.474486 0.199357 0.594887
O O2 0.375213 0.152087 0.477616
O O3 0.431480 0.103722 0.682768
O O4 0.366623 0.190325 0.730420
O O5 0.803566 0.857635 0.245902
O O6 0.858331 0.926277 0.076746
O O7 0.750000 0.885055 0.000000
O O8 0.846252 0.824466 0.002900
O O9 0.062145 0.765429 0.416181
O O10 0.250000 0.156635 0.500000
O O11 0.181400 0.232315 0.617725
O O12 0.521675 0.047117 0.578626
O O13 0.446812 0.000000 0.750000
O O14 0.401500 0.023016 0.513120
O O15 0.398993 0.500000 0.750000
#
# Coordination Sequence:
#
# PCOD9531384 Si02
#       7
#    16  16   8  16  16  16  16
#     4  11  22  39  63  93 129 164 207 259 315 378
#     4  12  25  42  65  90 122 166 213 265 317 376
#     4  10  22  36  62  98 132 166 204 258 318 380
#     4  11  24  42  62  88 124 166 209 256 317 382
#     4  10  21  38  65  94 124 161 203 255 313 376
#     4  11  23  39  62  93 128 165 207 255 318 387
#     4  10  22  42  63  89 121 160 206 254 313 369
#
# _framework density 20.796175000000002
#
# number of rings (size 3 to 8) (size 9 to 14) (size 15 to 20)
#    0.000    1.231    0.000    6.462    0.000    8.000 
#    0.000    5.385    0.000    0.000    0.000    0.000 
#    0.000    0.000    0.000    0.000    0.000    0.000 
#
# Total GULP energy -290754.356398 kJ/mol
# GULP energy per Si atom -5591.429931 kJ/mol
# Density = 2.074884 g / cm^3
# Si number density = 20.796175 Si / 1000 Ang^3
#
#
#
# Elastic Constant Matrix: (Units=GPa)
#
#
# Indices 1 2 3 4 5 6 
#
# 1 89.0918 46.2096 39.6610 0.0000 0.0000 0.0000
# 2 46.2096 131.1800 34.1853 0.0000 0.0000 0.0000
# 3 39.6610 34.1853 114.2297 0.0000 0.0000 0.0000
# 4 0.0000 0.0000 0.0000 23.3301 0.0000 0.0000
# 5 0.0000 0.0000 0.0000 0.0000 12.1765 0.0000
# 6 0.0000 0.0000 0.0000 0.0000 0.0000 18.4232
#
#
#
# Elastic Compliance Matrix: (Units=1/GPa)
#
#
# Indices 1 2 3 4 5 6 
#
# 1 0.015251 -0.004330 -0.003999 0.000000 0.000000 0.000000
# 2 -0.004330 0.009497 -0.001339 0.000000 0.000000 0.000000
# 3 -0.003999 -0.001339 0.010544 0.000000 0.000000 0.000000
# 4 0.000000 0.000000 0.000000 0.042863 0.000000 0.000000
# 5 0.000000 0.000000 0.000000 0.000000 0.082126 0.000000
# 6 0.000000 0.000000 0.000000 0.000000 0.000000 0.054279
#
#
# Mechanical properties :
#
#
# Convention : Reuss Voigt Hill
#
# Bulk Modulus (GPa) = 62.67531 63.84593 63.26062
# Shear Modulus (GPa) = 20.90180 25.08234 22.99207
#
# Velocity S-wave (km/s) = 3.17374 3.47667 3.32865
# Velocity P-wave (km/s) = 6.60556 6.84717 6.72745
#
# Compressibility (1/GPa) = 0.01595525
#
# Stress axis : x y z
#
# Youngs Moduli (GPa) = 65.57141 105.29310 94.84504
#
# Poissons Ratio (x) = 0.45592 0.37931
# Poissons Ratio (y) = 0.28392 0.12698
# Poissons Ratio (z) = 0.26223 0.14097
#
# Static dielectric constant tensor:
#      x y z
#    x 1.747650 0.000000 0.000000 
#    y 0.000000 1.727290 0.000000 
#    z 0.000000 0.000000 1.769920 
# 
# From -- ./inp_files/6560.got.cif
#   From: 2010.05.17/outbox.cif.g08.bks.cpg/sg73_4_cif.got.tgz:6560.got - 2010.06.03 17:35:07.
