data_PCOD9531369
_publ_section_title
;
Structure prediction by ZEFSAII (Michael W. Deem and Ramdas Pophale) SiO2 
 PCOD9531369
Probable space group: I B C A 
;
_chemical_formula_sum "Si O2"
_cell_formula_units_Z 64
_cell_length_a 21.434500
_cell_length_b 8.945616
_cell_length_c 13.846695
_cell_angle_alpha 90.000000
_cell_angle_beta 90.000000
_cell_angle_gamma 90.000000
_cell_volume 2655.031849
_symmetry_space_group_name_H-M "I B C A "
_symmetry_group_IT_number 73
_symmetry_cell_setting 'orthorhombic'
loop_
_space_group_symop_operation_xyz
x,y,z
-x,1/2-y,z
x,-y,1/2-z
1/2-x,y,-z
-x,-y,-z
x,1/2+y,-z
-x,y,1/2+z
1/2+x,-y,z
1/2+x,1/2+y,1/2+z
1/2-x,-y,1/2+z
1/2+x,1/2-y,-z
-x,1/2+y,1/2-z
1/2-x,1/2-y,1/2-z
1/2+x,y,1/2-z
1/2-x,1/2+y,z
x,1/2-y,1/2+z
loop_
_atom_site_type_symbol
_atom_site_label
_atom_site_fract_x
_atom_site_fract_y
_atom_site_fract_z
Si Si1 0.573593 0.237100 0.084340
Si Si2 0.369466 0.566992 0.597016
Si Si3 0.744495 0.125383 0.610741
Si Si4 0.650898 0.197652 0.249569
O O1 0.500000 0.250000 0.071830
O O2 0.597165 0.407560 0.093719
O O3 0.595937 0.144757 0.178913
O O4 0.607764 0.160582 0.994217
O O5 0.295926 0.526230 0.602520
O O6 0.379944 0.666891 0.690580
O O7 0.750000 0.175961 0.500000
O O8 0.809626 0.108668 0.668568
O O9 0.702353 0.235124 0.675711
#
# Coordination Sequence:
#
# PCOD9531369 Si02
#       4
#    16  16  16  16
#     4  11  24  44  70 100 137 184 238 292 357 432
#     4  11  24  44  66  99 138 179 231 293 356 427
#     4  10  21  38  63  95 132 171 220 283 353 419
#     4  10  22  42  66  95 132 180 231 285 349 425
#
# _framework density 24.105172
#
# number of rings (size 3 to 8) (size 9 to 14) (size 15 to 20)
#    0.000    1.500    0.000    6.750    0.000   10.000 
#    0.000   11.250    0.000    0.000    0.000    0.000 
#    0.000    0.000    0.000    0.000    0.000    0.000 
#
# Total GULP energy -178990.989076 kJ/mol
# GULP energy per Si atom -5593.468409 kJ/mol
# Density = 2.405031 g / cm^3
# Si number density = 24.105172 Si / 1000 Ang^3
#
#
#
# Elastic Constant Matrix: (Units=GPa)
#
#
# Indices 1 2 3 4 5 6 
#
# 1 109.1888 49.1764 60.6672 0.0000 0.0000 0.0000
# 2 49.1764 76.5144 53.0680 0.0000 0.0000 0.0000
# 3 60.6672 53.0680 217.8142 0.0000 0.0000 0.0000
# 4 0.0000 0.0000 0.0000 33.8693 0.0000 0.0000
# 5 0.0000 0.0000 0.0000 0.0000 5.0838 0.0000
# 6 0.0000 0.0000 0.0000 0.0000 0.0000 33.1843
#
#
#
# Elastic Compliance Matrix: (Units=1/GPa)
#
#
# Indices 1 2 3 4 5 6 
#
# 1 0.013571 -0.007341 -0.001991 0.000000 0.000000 0.000000
# 2 -0.007341 0.019698 -0.002755 0.000000 0.000000 0.000000
# 3 -0.001991 -0.002755 0.005817 0.000000 0.000000 0.000000
# 4 0.000000 0.000000 0.000000 0.029525 0.000000 0.000000
# 5 0.000000 0.000000 0.000000 0.000000 0.196702 0.000000
# 6 0.000000 0.000000 0.000000 0.000000 0.000000 0.030135
#
#
# Mechanical properties :
#
#
# Convention : Reuss Voigt Hill
#
# Bulk Modulus (GPa) = 67.05982 81.03784 74.04883
# Shear Modulus (GPa) = 15.40392 30.46788 22.93590
#
# Velocity S-wave (km/s) = 2.53065 3.55907 3.08797
# Velocity P-wave (km/s) = 6.03481 7.11202 6.59544
#
# Compressibility (1/GPa) = 0.01491206
#
# Stress axis : x y z
#
# Youngs Moduli (GPa) = 73.68547 50.76631 171.91523
#
# Poissons Ratio (x) = 0.37268 0.34234
# Poissons Ratio (y) = 0.54094 0.47354
# Poissons Ratio (z) = 0.14673 0.13984
#
# Static dielectric constant tensor:
#      x y z
#    x 1.955800 0.000000 0.000000 
#    y 0.000000 2.017530 0.000000 
#    z 0.000000 0.000000 1.905580 
# 
# From -- ./inp_files/19076.got.cif
#   From: 2010.05.17/outbox.cif.g08.bks.cpg/sg73_10_cif.got.tgz:19076.got - 2010.06.03 17:35:07.
