data_PCOD9531195
_publ_section_title
;
Structure prediction by ZEFSAII (Michael W. Deem and Ramdas Pophale) SiO2 
 PCOD9531195
Probable space group: I B C A 
;
_chemical_formula_sum "Si O2"
_cell_formula_units_Z 88
_cell_length_a 7.494042
_cell_length_b 14.234175
_cell_length_c 31.522999
_cell_angle_alpha 90.000000
_cell_angle_beta 90.000000
_cell_angle_gamma 90.000000
_cell_volume 3362.605754
_symmetry_space_group_name_H-M "I B C A "
_symmetry_group_IT_number 73
_symmetry_cell_setting 'orthorhombic'
loop_
_space_group_symop_operation_xyz
x,y,z
-x,1/2-y,z
x,-y,1/2-z
1/2-x,y,-z
-x,-y,-z
x,1/2+y,-z
-x,y,1/2+z
1/2+x,-y,z
1/2+x,1/2+y,1/2+z
1/2-x,-y,1/2+z
1/2+x,1/2-y,-z
-x,1/2+y,1/2-z
1/2-x,1/2-y,1/2-z
1/2+x,y,1/2-z
1/2-x,1/2+y,z
x,1/2-y,1/2+z
loop_
_atom_site_type_symbol
_atom_site_label
_atom_site_fract_x
_atom_site_fract_y
_atom_site_fract_z
Si Si1 0.195364 0.036331 0.590901
Si Si2 0.568539 0.627834 0.695866
Si Si3 0.670780 0.350441 0.895529
Si Si4 0.000000 0.750000 0.965312
Si Si5 0.500000 0.250000 0.228226
Si Si6 0.341157 0.088310 0.679605
Si Si7 0.750000 0.102191 0.000000
O O1 0.311198 0.079789 0.629075
O O2 0.267169 0.045570 0.543398
O O3 0.007364 0.088540 0.594401
O O4 0.176268 0.926290 0.600534
O O5 0.642888 0.676442 0.653111
O O6 0.616846 0.690993 0.735996
O O7 0.627817 0.518700 0.695702
O O8 0.354156 0.620443 0.695168
O O9 0.661428 0.274517 0.932535
O O10 0.075043 0.833410 0.993522
O O11 0.507387 0.161014 0.195139
#
# Coordination Sequence:
#
# PCOD9531195 Si02
#       7
#    16  16  16   8   8  16   8
#     4   9  20  38  58  82 113 150 191 236 293 350
#     4  10  22  41  61  85 117 156 201 246 294 353
#     4   9  19  38  59  80 111 149 190 237 289 343
#     4  10  21  35  54  84 114 144 186 237 287 344
#     4  12  23  35  62  90 118 158 200 241 293 356
#     4  10  23  41  60  86 120 155 198 250 298 348
#     4  10  22  36  56  86 116 148 190 236 288 354
#
# _framework density 26.170182
#
# number of rings (size 3 to 8) (size 9 to 14) (size 15 to 20)
#    0.000    2.182    0.000    1.636    0.000   10.182 
#    0.000   12.727    0.000    0.000    0.000    0.000 
#    0.000    0.000    0.000    0.000    0.000    0.000 
#
# Total GULP energy -245759.415424 kJ/mol
# GULP energy per Si atom -5585.441260 kJ/mol
# Density = 2.611062 g / cm^3
# Si number density = 26.170182 Si / 1000 Ang^3
#
#
#
# Elastic Constant Matrix: (Units=GPa)
#
#
# Indices 1 2 3 4 5 6 
#
# 1 87.7169 29.3534 47.5643 0.0000 0.0000 0.0000
# 2 29.3534 119.3334 30.1171 0.0000 0.0000 0.0000
# 3 47.5643 30.1171 161.3814 0.0000 0.0000 0.0000
# 4 0.0000 0.0000 0.0000 38.5294 0.0000 0.0000
# 5 0.0000 0.0000 0.0000 0.0000 13.3078 0.0000
# 6 0.0000 0.0000 0.0000 0.0000 0.0000 42.5887
#
#
#
# Elastic Compliance Matrix: (Units=1/GPa)
#
#
# Indices 1 2 3 4 5 6 
#
# 1 0.014284 -0.002572 -0.003730 0.000000 0.000000 0.000000
# 2 -0.002572 0.009257 -0.000970 0.000000 0.000000 0.000000
# 3 -0.003730 -0.000970 0.007477 0.000000 0.000000 0.000000
# 4 0.000000 0.000000 0.000000 0.025954 0.000000 0.000000
# 5 0.000000 0.000000 0.000000 0.000000 0.075144 0.000000
# 6 0.000000 0.000000 0.000000 0.000000 0.000000 0.023480
#
#
# Mechanical properties :
#
#
# Convention : Reuss Voigt Hill
#
# Bulk Modulus (GPa) = 60.69936 64.72238 62.71087
# Shear Modulus (GPa) = 28.46885 36.31163 32.39024
#
# Velocity S-wave (km/s) = 3.30181 3.72898 3.52188
# Velocity P-wave (km/s) = 6.14658 6.58221 6.36812
#
# Compressibility (1/GPa) = 0.01647464
#
# Stress axis : x y z
#
# Youngs Moduli (GPa) = 70.01071 108.02339 133.74833
#
# Poissons Ratio (x) = 0.27785 0.49886
# Poissons Ratio (y) = 0.18008 0.12967
# Poissons Ratio (z) = 0.26113 0.10473
#
# Static dielectric constant tensor:
#      x y z
#    x 2.174660 0.000000 0.000000 
#    y 0.000000 2.116470 0.000000 
#    z 0.000000 0.000000 2.040920 
# 
# From -- ./inp_files/14715.got.cif
#   From: 2010.05.17/outbox.cif.g08.bks.cpg/sg73_8_cif.got.tgz:14715.got - 2010.06.03 17:35:07.
