data_PCOD9531059
_publ_section_title
;
Structure prediction by ZEFSAII (Michael W. Deem and Ramdas Pophale) SiO2 
 PCOD9531059
Probable space group: I B C A 
;
_chemical_formula_sum "Si O2"
_cell_formula_units_Z 112
_cell_length_a 12.375133
_cell_length_b 14.777073
_cell_length_c 28.456862
_cell_angle_alpha 90.000000
_cell_angle_beta 90.000000
_cell_angle_gamma 90.000000
_cell_volume 5203.856376
_symmetry_space_group_name_H-M "I B C A "
_symmetry_group_IT_number 73
_symmetry_cell_setting 'orthorhombic'
loop_
_space_group_symop_operation_xyz
x,y,z
-x,1/2-y,z
x,-y,1/2-z
1/2-x,y,-z
-x,-y,-z
x,1/2+y,-z
-x,y,1/2+z
1/2+x,-y,z
1/2+x,1/2+y,1/2+z
1/2-x,-y,1/2+z
1/2+x,1/2-y,-z
-x,1/2+y,1/2-z
1/2-x,1/2-y,1/2-z
1/2+x,y,1/2-z
1/2-x,1/2+y,z
x,1/2-y,1/2+z
loop_
_atom_site_type_symbol
_atom_site_label
_atom_site_fract_x
_atom_site_fract_y
_atom_site_fract_z
Si Si1 0.366160 0.522669 0.080035
Si Si2 0.750000 0.432224 0.500000
Si Si3 0.015225 0.842350 0.106420
Si Si4 0.000000 0.250000 0.721998
Si Si5 0.633221 0.881097 0.663807
Si Si6 0.806321 0.084166 0.349224
Si Si7 0.341092 0.226255 0.694459
Si Si8 0.438724 0.345744 0.942016
O O1 0.412371 0.423327 0.089327
O O2 0.307588 0.566059 0.125289
O O3 0.464115 0.582020 0.060862
O O4 0.276333 0.500742 0.042008
O O5 0.649126 0.371534 0.481808
O O6 0.076719 0.809795 0.154099
O O7 0.000000 0.750000 0.077380
O O8 0.896872 0.882746 0.114049
O O9 0.967094 0.334873 0.689995
O O10 0.902937 0.221754 0.756577
O O11 0.737078 0.834822 0.686981
O O12 0.622189 0.854764 0.608696
O O13 0.647962 0.988576 0.669232
O O14 0.806960 0.169130 0.314151
O O15 0.500000 0.250000 0.946752
#
# Coordination Sequence:
#
# PCOD9531059 Si02
#       8
#    16   8  16   8  16  16  16  16
#     4  12  23  43  74 107 141 187 242 302 373 442
#     4  12  26  46  70 108 148 182 252 310 356 460
#     4  10  20  41  70  96 141 187 234 289 360 431
#     4  12  26  44  68 102 148 186 244 310 350 428
#     4  12  24  45  70 102 146 191 241 303 371 439
#     4  11  22  40  73 100 137 190 239 293 372 435
#     4  11  23  46  66 103 144 188 244 300 359 437
#     4  12  26  47  72 105 147 193 239 300 384 447
#
# _framework density 21.522500999999998
#
# number of rings (size 3 to 8) (size 9 to 14) (size 15 to 20)
#    0.000    0.571    7.143    1.714    0.000    2.857 
#    0.000    0.000    0.000    0.000    0.000    0.000 
#    0.000    0.000    0.000    0.000    0.000    0.000 
#
# Total GULP energy -312811.763400 kJ/mol
# GULP energy per Si atom -5585.924346 kJ/mol
# Density = 2.147351 g / cm^3
# Si number density = 21.522501 Si / 1000 Ang^3
#
#
#
# Elastic Constant Matrix: (Units=GPa)
#
#
# Indices 1 2 3 4 5 6 
#
# 1 101.5965 62.0175 24.1868 0.0000 0.0000 0.0000
# 2 62.0175 177.9721 40.1638 0.0000 0.0000 0.0000
# 3 24.1868 40.1638 53.0000 0.0000 0.0000 0.0000
# 4 0.0000 0.0000 0.0000 90.7957 0.0000 0.0000
# 5 0.0000 0.0000 0.0000 0.0000 27.1202 0.0000
# 6 0.0000 0.0000 0.0000 0.0000 0.0000 49.3874
#
#
#
# Elastic Compliance Matrix: (Units=1/GPa)
#
#
# Indices 1 2 3 4 5 6 
#
# 1 0.012883 -0.003815 -0.002988 0.000000 0.000000 0.000000
# 2 -0.003815 0.007908 -0.004252 0.000000 0.000000 0.000000
# 3 -0.002988 -0.004252 0.023453 0.000000 0.000000 0.000000
# 4 0.000000 0.000000 0.000000 0.011014 0.000000 0.000000
# 5 0.000000 0.000000 0.000000 0.000000 0.036873 0.000000
# 6 0.000000 0.000000 0.000000 0.000000 0.000000 0.020248
#
#
# Mechanical properties :
#
#
# Convention : Reuss Voigt Hill
#
# Bulk Modulus (GPa) = 45.17788 65.03389 55.10589
# Shear Modulus (GPa) = 35.24436 47.20736 41.22586
#
# Velocity S-wave (km/s) = 4.05107 4.68845 4.38136
# Velocity P-wave (km/s) = 6.55119 7.71952 7.15923
#
# Compressibility (1/GPa) = 0.02213473
#
# Stress axis : x y z
#
# Youngs Moduli (GPa) = 77.62157 126.45875 42.63761
#
# Poissons Ratio (x) = 0.48243 0.12741
# Poissons Ratio (y) = 0.29612 0.18128
# Poissons Ratio (z) = 0.23195 0.53765
#
# Static dielectric constant tensor:
#      x y z
#    x 1.817520 0.000000 0.000000 
#    y 0.000000 1.802110 0.000000 
#    z 0.000000 0.000000 1.813860 
# 
# From -- ./inp_files/34081.got.cif
#   From: 2010.05.17/outbox.cif.g08.bks.cpg/sg73_18_cif.got.tgz:34081.got - 2010.06.03 17:35:07.
