data_PCOD9531658
_publ_section_title
;
Structure prediction by ZEFSAII (Michael W. Deem and Ramdas Pophale) SiO2 
 PCOD9531658
Probable space group: I B C A 
;
_chemical_formula_sum "Si O2"
_cell_formula_units_Z 104
_cell_length_a 8.519773
_cell_length_b 21.965917
_cell_length_c 26.811747
_cell_angle_alpha 90.000000
_cell_angle_beta 90.000000
_cell_angle_gamma 90.000000
_cell_volume 5017.674380
_symmetry_space_group_name_H-M "I B C A "
_symmetry_group_IT_number 73
_symmetry_cell_setting 'orthorhombic'
loop_
_space_group_symop_operation_xyz
x,y,z
-x,1/2-y,z
x,-y,1/2-z
1/2-x,y,-z
-x,-y,-z
x,1/2+y,-z
-x,y,1/2+z
1/2+x,-y,z
1/2+x,1/2+y,1/2+z
1/2-x,-y,1/2+z
1/2+x,1/2-y,-z
-x,1/2+y,1/2-z
1/2-x,1/2-y,1/2-z
1/2+x,y,1/2-z
1/2-x,1/2+y,z
x,1/2-y,1/2+z
loop_
_atom_site_type_symbol
_atom_site_label
_atom_site_fract_x
_atom_site_fract_y
_atom_site_fract_z
Si Si1 0.474544 0.822864 0.080284
Si Si2 0.889290 0.808616 0.314235
Si Si3 0.479126 0.533226 0.447397
Si Si4 0.750000 0.379601 0.500000
Si Si5 0.613170 0.363807 0.731852
Si Si6 0.357098 0.053599 0.211722
Si Si7 0.705407 0.568685 0.605293
O O1 0.500000 0.750000 0.075434
O O2 0.370608 0.833493 0.130107
O O3 0.626687 0.864909 0.094403
O O4 0.383932 0.844130 0.030826
O O5 0.714927 0.808241 0.290531
O O6 0.000000 0.750000 0.319594
O O7 0.000784 0.846019 0.277199
O O8 0.500000 0.500000 0.500000
O O9 0.340350 0.580466 0.458540
O O10 0.641278 0.562231 0.429434
O O11 0.424195 0.480738 0.410119
O O12 0.739162 0.409959 0.752962
O O13 0.501655 0.402607 0.696126
O O14 0.260827 0.047781 0.160452
O O15 0.411577 0.000000 0.250000
#
# Coordination Sequence:
#
# PCOD9531658 Si02
#       7
#    16  16  16   8  16  16  16
#     4  11  26  47  72  99 141 183 236 295 354 413
#     4  10  21  42  67  94 130 175 229 278 332 396
#     4  12  24  43  72 100 132 175 230 286 353 424
#     4  12  26  46  70 104 134 176 232 302 356 420
#     4  10  22  39  64  94 136 177 219 272 330 405
#     4  11  25  39  61  99 142 179 220 272 340 409
#     4  12  25  44  71  99 140 185 226 284 352 420
#
# _framework density 20.726735000000001
#
# number of rings (size 3 to 8) (size 9 to 14) (size 15 to 20)
#    0.000    0.923    4.615    0.923    6.462    2.462 
#    0.000    0.000    0.000    0.000    0.000    0.000 
#    0.000    0.000    0.000    0.000    0.000    0.000 
#
# Total GULP energy -289634.067114 kJ/mol
# GULP energy per Si atom -5569.885906 kJ/mol
# Density = 2.067956 g / cm^3
# Si number density = 20.726735 Si / 1000 Ang^3
#
#
#
# Elastic Constant Matrix: (Units=GPa)
#
#
# Indices 1 2 3 4 5 6 
#
# 1 87.9167 38.5318 21.1640 0.0000 0.0000 0.0000
# 2 38.5318 92.7022 29.7039 0.0000 0.0000 0.0000
# 3 21.1640 29.7039 79.7721 0.0000 0.0000 0.0000
# 4 0.0000 0.0000 0.0000 18.5029 0.0000 0.0000
# 5 0.0000 0.0000 0.0000 0.0000 45.9129 0.0000
# 6 0.0000 0.0000 0.0000 0.0000 0.0000 26.9963
#
#
#
# Elastic Compliance Matrix: (Units=1/GPa)
#
#
# Indices 1 2 3 4 5 6 
#
# 1 0.014125 -0.005303 -0.001773 0.000000 0.000000 0.000000
# 2 -0.005303 0.014240 -0.003895 0.000000 0.000000 0.000000
# 3 -0.001773 -0.003895 0.014457 0.000000 0.000000 0.000000
# 4 0.000000 0.000000 0.000000 0.054046 0.000000 0.000000
# 5 0.000000 0.000000 0.000000 0.000000 0.021780 0.000000
# 6 0.000000 0.000000 0.000000 0.000000 0.000000 0.037042
#
#
# Mechanical properties :
#
#
# Convention : Reuss Voigt Hill
#
# Bulk Modulus (GPa) = 47.89529 48.79896 48.34712
# Shear Modulus (GPa) = 27.08677 29.68185 28.38431
#
# Velocity S-wave (km/s) = 3.61896 3.78836 3.70463
# Velocity P-wave (km/s) = 6.37343 6.53687 6.45567
#
# Compressibility (1/GPa) = 0.02087888
#
# Stress axis : x y z
#
# Youngs Moduli (GPa) = 70.79422 70.22646 69.17294
#
# Poissons Ratio (x) = 0.37242 0.12263
# Poissons Ratio (y) = 0.37544 0.26945
# Poissons Ratio (z) = 0.12551 0.27355
#
# Static dielectric constant tensor:
#      x y z
#    x 1.905650 0.000000 0.000000 
#    y 0.000000 1.978070 0.000000 
#    z 0.000000 0.000000 1.831320 
# 
# From -- ./inp_files/31264.got.cif
#   From: 2010.05.17/outbox.cif.g08.bks.cpg/sg73_16_cif.got.tgz:31264.got - 2010.06.03 17:35:07.
