data_PCOD9531967
_publ_section_title
;
Structure prediction by ZEFSAII (Michael W. Deem and Ramdas Pophale) SiO2 
 PCOD9531967
Probable space group: I B C A 
;
_chemical_formula_sum "Si O2"
_cell_formula_units_Z 88
_cell_length_a 9.046777
_cell_length_b 23.775311
_cell_length_c 19.952482
_cell_angle_alpha 90.000000
_cell_angle_beta 90.000000
_cell_angle_gamma 90.000000
_cell_volume 4291.578091
_symmetry_space_group_name_H-M "I B C A "
_symmetry_group_IT_number 73
_symmetry_cell_setting 'orthorhombic'
loop_
_space_group_symop_operation_xyz
x,y,z
-x,1/2-y,z
x,-y,1/2-z
1/2-x,y,-z
-x,-y,-z
x,1/2+y,-z
-x,y,1/2+z
1/2+x,-y,z
1/2+x,1/2+y,1/2+z
1/2-x,-y,1/2+z
1/2+x,1/2-y,-z
-x,1/2+y,1/2-z
1/2-x,1/2-y,1/2-z
1/2+x,y,1/2-z
1/2-x,1/2+y,z
x,1/2-y,1/2+z
loop_
_atom_site_type_symbol
_atom_site_label
_atom_site_fract_x
_atom_site_fract_y
_atom_site_fract_z
Si Si1 0.868215 0.580438 0.227664
Si Si2 0.000000 0.750000 0.262652
Si Si3 0.076896 0.059346 0.516347
Si Si4 0.065726 0.100184 0.888930
Si Si5 0.744566 0.823008 0.814009
Si Si6 0.093395 0.030217 0.661573
O O1 0.763667 0.623581 0.265520
O O2 0.758345 0.538501 0.189183
O O3 0.949469 0.615398 0.169342
O O4 0.981097 0.551859 0.280659
O O5 0.100390 0.790645 0.308630
O O6 0.117242 0.717093 0.215854
O O7 0.250000 0.055453 0.500000
O O8 0.062347 0.067610 0.595721
O O9 0.001155 0.100190 0.462879
O O10 0.000000 0.000000 0.500000
O O11 0.196435 0.145065 0.881602
O O12 0.091413 0.034673 0.864930
#
# Coordination Sequence:
#
# PCOD9531967 Si02
#       6
#    16   8  16  16  16  16
#     4  12  22  36  58  95 124 163 209 264 318 390
#     4  10  22  40  60  88 134 158 216 292 342 378
#     4  10  22  41  56  82 128 184 217 249 306 391
#     4  11  23  35  61  87 130 170 224 255 319 402
#     4  11  22  38  60  93 126 165 215 278 332 385
#     4  11  25  35  59  90 137 172 208 259 322 384
#
# _framework density 20.505278000000001
#
# number of rings (size 3 to 8) (size 9 to 14) (size 15 to 20)
#    0.000    1.091    5.455    0.545    5.091    1.455 
#    0.000    0.000    0.000    0.000    0.000   19.091 
#    0.000    0.000    0.000    0.000    0.000    0.000 
#
# Total GULP energy -245415.835050 kJ/mol
# GULP energy per Si atom -5577.632615 kJ/mol
# Density = 2.045861 g / cm^3
# Si number density = 20.505278 Si / 1000 Ang^3
#
#
#
# Elastic Constant Matrix: (Units=GPa)
#
#
# Indices 1 2 3 4 5 6 
#
# 1 91.7953 31.4631 37.5487 0.0000 0.0000 0.0000
# 2 31.4631 52.4250 16.5596 0.0000 0.0000 0.0000
# 3 37.5487 16.5596 144.9595 0.0000 0.0000 0.0000
# 4 0.0000 0.0000 0.0000 17.8890 0.0000 0.0000
# 5 0.0000 0.0000 0.0000 0.0000 23.4697 0.0000
# 6 0.0000 0.0000 0.0000 0.0000 0.0000 29.3266
#
#
#
# Elastic Compliance Matrix: (Units=1/GPa)
#
#
# Indices 1 2 3 4 5 6 
#
# 1 0.014824 -0.007972 -0.002929 0.000000 0.000000 0.000000
# 2 -0.007972 0.024076 -0.000685 0.000000 0.000000 0.000000
# 3 -0.002929 -0.000685 0.007736 0.000000 0.000000 0.000000
# 4 0.000000 0.000000 0.000000 0.055900 0.000000 0.000000
# 5 0.000000 0.000000 0.000000 0.000000 0.042608 0.000000
# 6 0.000000 0.000000 0.000000 0.000000 0.000000 0.034099
#
#
# Mechanical properties :
#
#
# Convention : Reuss Voigt Hill
#
# Bulk Modulus (GPa) = 42.62063 51.14696 46.88380
# Shear Modulus (GPa) = 23.78278 27.71095 25.74687
#
# Velocity S-wave (km/s) = 3.40933 3.68014 3.54732
# Velocity P-wave (km/s) = 6.02730 6.56166 6.30015
#
# Compressibility (1/GPa) = 0.02346282
#
# Stress axis : x y z
#
# Youngs Moduli (GPa) = 67.45687 41.53592 129.27335
#
# Poissons Ratio (x) = 0.33111 0.37868
# Poissons Ratio (y) = 0.53774 0.08861
# Poissons Ratio (z) = 0.19760 0.02847
#
# Static dielectric constant tensor:
#      x y z
#    x 1.816610 0.000000 0.000000 
#    y 0.000000 1.800180 0.000000 
#    z 0.000000 0.000000 1.759040 
# 
# From -- ./inp_files/24793.got.cif
#   From: 2010.05.17/outbox.cif.g08.bks.cpg/sg73_13_cif.got.tgz:24793.got - 2010.06.03 17:35:07.
