data_PCOD9531117
_publ_section_title
;
Structure prediction by ZEFSAII (Michael W. Deem and Ramdas Pophale) SiO2 
 PCOD9531117
Probable space group: I B C A 
;
_chemical_formula_sum "Si O2"
_cell_formula_units_Z 112
_cell_length_a 11.960426
_cell_length_b 28.447451
_cell_length_c 14.075902
_cell_angle_alpha 90.000000
_cell_angle_beta 90.000000
_cell_angle_gamma 90.000000
_cell_volume 4789.236028
_symmetry_space_group_name_H-M "I B C A "
_symmetry_group_IT_number 73
_symmetry_cell_setting 'orthorhombic'
loop_
_space_group_symop_operation_xyz
x,y,z
-x,1/2-y,z
x,-y,1/2-z
1/2-x,y,-z
-x,-y,-z
x,1/2+y,-z
-x,y,1/2+z
1/2+x,-y,z
1/2+x,1/2+y,1/2+z
1/2-x,-y,1/2+z
1/2+x,1/2-y,-z
-x,1/2+y,1/2-z
1/2-x,1/2-y,1/2-z
1/2+x,y,1/2-z
1/2-x,1/2+y,z
x,1/2-y,1/2+z
loop_
_atom_site_type_symbol
_atom_site_label
_atom_site_fract_x
_atom_site_fract_y
_atom_site_fract_z
Si Si1 0.514734 0.950946 0.277169
Si Si2 0.524533 0.648873 0.301348
Si Si3 0.584599 0.933293 0.075222
Si Si4 0.871531 0.034209 0.980093
Si Si5 0.788932 0.725680 0.652047
Si Si6 0.629294 0.184906 0.040513
Si Si7 0.074544 0.671669 0.904644
O O1 0.438976 0.905164 0.289916
O O2 0.597569 0.941207 0.188090
O O3 0.581452 0.957449 0.374786
O O4 0.456422 0.000000 0.250000
O O5 0.624690 0.683577 0.327751
O O6 0.427165 0.651709 0.380348
O O7 0.468703 0.664203 0.202596
O O8 0.612197 0.879387 0.054194
O O9 0.629881 0.976897 0.013448
O O10 0.453107 0.940668 0.053978
O O11 0.750000 0.052350 0.000000
O O12 0.750000 0.750000 0.750000
O O13 0.849539 0.765549 0.591499
O O14 0.679448 0.705958 0.599773
O O15 0.750000 0.169642 0.000000
O O16 0.533658 0.188843 0.961417
#
# Coordination Sequence:
#
# PCOD9531117 Si02
#       7
#    16  16  16  16  16  16  16
#     4   9  20  43  70 104 145 183 239 296 366 443
#     4  11  25  47  74 108 151 193 245 314 374 442
#     4   9  21  44  65 103 146 185 228 304 364 425
#     4  10  20  42  73 102 144 188 238 294 356 435
#     4  12  27  49  75 106 147 201 244 315 375 431
#     4  12  28  46  77 109 143 199 256 306 378 448
#     4  11  26  48  73 106 153 186 253 307 367 453
#
# _framework density 23.385777000000001
#
# number of rings (size 3 to 8) (size 9 to 14) (size 15 to 20)
#    0.000    1.429    1.429    2.143    4.000    3.429 
#   18.000    6.429    0.000    0.000    0.000    0.000 
#    0.000    0.000    0.000    0.000    0.000    0.000 
#
# Total GULP energy -313325.088465 kJ/mol
# GULP energy per Si atom -5595.090865 kJ/mol
# Density = 2.333255 g / cm^3
# Si number density = 23.385777 Si / 1000 Ang^3
#
#
#
# Elastic Constant Matrix: (Units=GPa)
#
#
# Indices 1 2 3 4 5 6 
#
# 1 94.1351 44.0672 38.6960 0.0000 -0.0001 0.0000
# 2 44.0672 161.8769 30.4482 -0.0001 0.0000 0.0000
# 3 38.6960 30.4482 117.7304 -0.0001 0.0000 -0.0001
# 4 0.0000 -0.0001 -0.0001 27.0078 0.0000 0.0000
# 5 -0.0001 0.0000 0.0000 0.0000 24.4711 0.0001
# 6 0.0000 0.0000 -0.0001 0.0000 0.0001 -15.1536
#
#
#
# Elastic Compliance Matrix: (Units=1/GPa)
#
#
# Indices 1 2 3 4 5 6 
#
# 1 0.013535 -0.002993 -0.003674 0.000000 0.000000 0.000000
# 2 -0.002993 0.007155 -0.000867 0.000000 0.000000 0.000000
# 3 -0.003674 -0.000867 0.009926 0.000000 0.000000 0.000000
# 4 0.000000 0.000000 0.000000 0.037026 0.000000 0.000000
# 5 0.000000 0.000000 0.000000 0.000000 0.040864 0.000000
# 6 0.000000 0.000000 0.000000 0.000000 0.000000 -0.065991
#
#
# Mechanical properties :
#
#
# Convention : Reuss Voigt Hill
#
# Bulk Modulus (GPa) = 64.32133 66.68503 65.50318
# Shear Modulus (GPa) = 79.65902 24.63380 52.14641
#
# Velocity S-wave (km/s) = 5.84269 3.24908 4.72724
# Velocity P-wave (km/s) = 8.54869 6.53089 7.60699
#
# Compressibility (1/GPa) = 0.01554694
#
# Stress axis : x y z
#
# Youngs Moduli (GPa) = 73.88375 139.75388 100.74678
#
# Poissons Ratio (x) = 0.41834 0.37019
# Poissons Ratio (y) = 0.22116 0.08732
# Poissons Ratio (z) = 0.27148 0.12113
#
# Static dielectric constant tensor:
#      x y z
#    x 1.840830 0.000000 0.000000 
#    y 0.000000 1.933440 0.000000 
#    z 0.000000 0.000000 1.906580 
# 
# From -- ./inp_files/16331.got.cif
#   From: 2010.05.17/outbox.cif.g08.bks.cpg/sg73_9_cif.got.tgz:16331.got - 2010.06.03 17:35:07.
