data_PCOD9531492
_publ_section_title
;
Structure prediction by ZEFSAII (Michael W. Deem and Ramdas Pophale) SiO2 
 PCOD9531492
Probable space group: I B C A 
;
_chemical_formula_sum "Si O2"
_cell_formula_units_Z 72
_cell_length_a 4.947609
_cell_length_b 28.758930
_cell_length_c 19.650418
_cell_angle_alpha 90.000000
_cell_angle_beta 90.000000
_cell_angle_gamma 90.000000
_cell_volume 2796.017515
_symmetry_space_group_name_H-M "I B C A "
_symmetry_group_IT_number 73
_symmetry_cell_setting 'orthorhombic'
loop_
_space_group_symop_operation_xyz
x,y,z
-x,1/2-y,z
x,-y,1/2-z
1/2-x,y,-z
-x,-y,-z
x,1/2+y,-z
-x,y,1/2+z
1/2+x,-y,z
1/2+x,1/2+y,1/2+z
1/2-x,-y,1/2+z
1/2+x,1/2-y,-z
-x,1/2+y,1/2-z
1/2-x,1/2-y,1/2-z
1/2+x,y,1/2-z
1/2-x,1/2+y,z
x,1/2-y,1/2+z
loop_
_atom_site_type_symbol
_atom_site_label
_atom_site_fract_x
_atom_site_fract_y
_atom_site_fract_z
Si Si1 0.500000 0.750000 0.112673
Si Si2 0.933355 0.467849 0.921046
Si Si3 0.250000 0.888603 0.000000
Si Si4 0.829214 0.837548 0.612054
Si Si5 0.250000 0.685931 0.000000
Si Si6 0.370701 0.405815 0.705373
O O1 0.300822 0.790071 0.141349
O O2 0.323922 0.719333 0.062051
O O3 0.142002 0.509777 0.930182
O O4 0.940738 0.447954 0.844037
O O5 0.028755 0.424858 0.966857
O O6 0.110332 0.871460 0.922826
O O7 0.031766 0.859639 0.665048
O O8 0.983325 0.835424 0.536615
O O9 0.061840 0.406043 0.728320
#
# Coordination Sequence:
#
# PCOD9531492 Si02
#       6
#     8  16   8  16   8  16
#     4  12  20  40  62 106 134 174 214 278 344 414
#     4  11  24  42  69 100 132 173 218 280 343 411
#     4  10  21  40  61 102 138 168 206 275 358 411
#     4  11  24  39  68  98 138 178 224 279 342 407
#     4  12  19  36  67 100 130 168 216 273 338 413
#     4  11  27  48  68  96 134 185 237 282 328 396
#
# _framework density 25.750910000000001
#
# number of rings (size 3 to 8) (size 9 to 14) (size 15 to 20)
#    0.000    0.889    4.444    2.000    3.111    6.222 
#    0.000    1.111    0.000    0.000    0.000    0.000 
#    0.000    0.000    0.000    0.000    0.000    0.000 
#
# Total GULP energy -200776.563855 kJ/mol
# GULP energy per Si atom -5577.126774 kJ/mol
# Density = 2.569230 g / cm^3
# Si number density = 25.750910 Si / 1000 Ang^3
#
#
#
# Elastic Constant Matrix: (Units=GPa)
#
#
# Indices 1 2 3 4 5 6 
#
# 1 72.2186 9.8971 7.4063 0.0000 0.0000 0.0000
# 2 9.8971 127.7937 13.1516 0.0000 0.0000 0.0000
# 3 7.4063 13.1516 75.2979 0.0000 0.0000 0.0000
# 4 0.0000 0.0000 0.0000 5.1963 0.0000 0.0000
# 5 0.0000 0.0000 0.0000 0.0000 39.5657 0.0000
# 6 0.0000 0.0000 0.0000 0.0000 0.0000 14.0921
#
#
#
# Elastic Compliance Matrix: (Units=1/GPa)
#
#
# Indices 1 2 3 4 5 6 
#
# 1 0.014104 -0.000967 -0.001218 0.000000 0.000000 0.000000
# 2 -0.000967 0.008035 -0.001308 0.000000 0.000000 0.000000
# 3 -0.001218 -0.001308 0.013629 0.000000 0.000000 0.000000
# 4 0.000000 0.000000 0.000000 0.192444 0.000000 0.000000
# 5 0.000000 0.000000 0.000000 0.000000 0.025274 0.000000
# 6 0.000000 0.000000 0.000000 0.000000 0.000000 0.070962
#
#
# Mechanical properties :
#
#
# Convention : Reuss Voigt Hill
#
# Bulk Modulus (GPa) = 34.74547 37.35779 36.05163
# Shear Modulus (GPa) = 14.66151 28.09450 21.37801
#
# Velocity S-wave (km/s) = 2.38871 3.30663 2.88442
# Velocity P-wave (km/s) = 4.59675 5.39604 5.01235
#
# Compressibility (1/GPa) = 0.02878073
#
# Stress axis : x y z
#
# Youngs Moduli (GPa) = 70.90029 124.46123 73.37337
#
# Poissons Ratio (x) = 0.12035 0.08940
# Poissons Ratio (y) = 0.06856 0.09599
# Poissons Ratio (z) = 0.08639 0.16282
#
# Static dielectric constant tensor:
#      x y z
#    x 1.416520 0.000000 0.000000 
#    y 0.000000 2.294390 0.000000 
#    z 0.000000 0.000000 2.140030 
# 
# From -- ./inp_files/1710.got.cif
#   From: 2010.05.17/outbox.cif.g08.bks.cpg/sg73_1_cif.got.tgz:1710.got - 2010.06.03 17:35:07.
