data_PCOD9531519
_publ_section_title
;
Structure prediction by ZEFSAII (Michael W. Deem and Ramdas Pophale) SiO2 
 PCOD9531519
Probable space group: I B C A 
;
_chemical_formula_sum "Si O2"
_cell_formula_units_Z 80
_cell_length_a 24.475405
_cell_length_b 13.942698
_cell_length_c 10.384523
_cell_angle_alpha 90.000000
_cell_angle_beta 90.000000
_cell_angle_gamma 90.000000
_cell_volume 3543.751500
_symmetry_space_group_name_H-M "I B C A "
_symmetry_group_IT_number 73
_symmetry_cell_setting 'orthorhombic'
loop_
_space_group_symop_operation_xyz
x,y,z
-x,1/2-y,z
x,-y,1/2-z
1/2-x,y,-z
-x,-y,-z
x,1/2+y,-z
-x,y,1/2+z
1/2+x,-y,z
1/2+x,1/2+y,1/2+z
1/2-x,-y,1/2+z
1/2+x,1/2-y,-z
-x,1/2+y,1/2-z
1/2-x,1/2-y,1/2-z
1/2+x,y,1/2-z
1/2-x,1/2+y,z
x,1/2-y,1/2+z
loop_
_atom_site_type_symbol
_atom_site_label
_atom_site_fract_x
_atom_site_fract_y
_atom_site_fract_z
Si Si1 0.572863 0.367680 0.832424
Si Si2 0.703995 0.500000 0.250000
Si Si3 0.127776 0.146889 0.434401
Si Si4 0.949057 0.365548 0.666577
Si Si5 0.617476 0.874908 0.901442
Si Si6 0.250000 0.591047 0.500000
O O1 0.602225 0.392965 0.698494
O O2 0.561785 0.250930 0.833778
O O3 0.510567 0.399034 0.856262
O O4 0.610143 0.403009 0.950494
O O5 0.666571 0.419209 0.181476
O O6 0.739758 0.464020 0.367642
O O7 0.092813 0.105400 0.554056
O O8 0.120527 0.260560 0.413858
O O9 0.191486 0.139380 0.471357
O O10 0.933838 0.397343 0.810515
#
# Coordination Sequence:
#
# PCOD9531519 Si02
#       6
#    16   8  16  16  16   8
#     4   9  18  32  67  97 125 163 211 263 316 371
#     4  12  28  46  62  88 132 172 206 270 332 380
#     4  10  21  40  66  97 121 167 221 262 306 381
#     4   9  16  36  61  99 130 159 210 267 310 370
#     4  10  21  40  63  93 129 165 213 261 318 378
#     4  12  28  46  66  88 130 170 220 270 320 388
#
# _framework density 22.574946000000001
#
# number of rings (size 3 to 8) (size 9 to 14) (size 15 to 20)
#    0.000    2.000    2.000    1.200    2.800    6.400 
#    0.000    1.000    0.000    0.000    0.000    0.000 
#    0.000    0.000    0.000    0.000    0.000    0.000 
#
# Total GULP energy -223119.828962 kJ/mol
# GULP energy per Si atom -5577.995724 kJ/mol
# Density = 2.252356 g / cm^3
# Si number density = 22.574946 Si / 1000 Ang^3
#
#
#
# Elastic Constant Matrix: (Units=GPa)
#
#
# Indices 1 2 3 4 5 6 
#
# 1 116.9360 1.0665 75.1321 0.0000 0.0000 0.0000
# 2 1.0665 46.9536 28.5160 0.0000 0.0000 0.0000
# 3 75.1321 28.5160 221.9106 0.0000 0.0000 0.0000
# 4 0.0000 0.0000 0.0000 23.5289 0.0000 0.0000
# 5 0.0000 0.0000 0.0000 0.0000 32.5130 0.0000
# 6 0.0000 0.0000 0.0000 0.0000 0.0000 5.4601
#
#
#
# Elastic Compliance Matrix: (Units=1/GPa)
#
#
# Indices 1 2 3 4 5 6 
#
# 1 0.011137 0.002209 -0.004054 0.000000 0.000000 0.000000
# 2 0.002209 0.023539 -0.003773 0.000000 0.000000 0.000000
# 3 -0.004054 -0.003773 0.006364 0.000000 0.000000 0.000000
# 4 0.000000 0.000000 0.000000 0.042501 0.000000 0.000000
# 5 0.000000 0.000000 0.000000 0.000000 0.030757 0.000000
# 6 0.000000 0.000000 0.000000 0.000000 0.000000 0.183147
#
#
# Mechanical properties :
#
#
# Convention : Reuss Voigt Hill
#
# Bulk Modulus (GPa) = 33.55318 66.13659 49.84488
# Shear Modulus (GPa) = 15.69297 31.03945 23.36621
#
# Velocity S-wave (km/s) = 2.63943 3.71206 3.22071
# Velocity P-wave (km/s) = 4.91773 6.90887 5.99652
#
# Compressibility (1/GPa) = 0.02980344
#
# Stress axis : x y z
#
# Youngs Moduli (GPa) = 89.79481 42.48314 157.13830
#
# Poissons Ratio (x) = -0.09386 0.63710
# Poissons Ratio (y) = -0.19839 0.59285
# Poissons Ratio (z) = 0.36406 0.16028
#
# Static dielectric constant tensor:
#      x y z
#    x 1.869870 0.000000 0.000000 
#    y 0.000000 1.958810 0.000000 
#    z 0.000000 0.000000 1.830490 
# 
# From -- ./inp_files/7005.got.cif
#   From: 2010.05.17/outbox.cif.g08.bks.cpg/sg73_4_cif.got.tgz:7005.got - 2010.06.03 17:35:07.
