data_PCOD9531062
_publ_section_title
;
Structure prediction by ZEFSAII (Michael W. Deem and Ramdas Pophale) SiO2 
 PCOD9531062
Probable space group: I B C A 
;
_chemical_formula_sum "Si O2"
_cell_formula_units_Z 64
_cell_length_a 9.073343
_cell_length_b 20.851530
_cell_length_c 13.805957
_cell_angle_alpha 90.000000
_cell_angle_beta 90.000000
_cell_angle_gamma 90.000000
_cell_volume 2611.991579
_symmetry_space_group_name_H-M "I B C A "
_symmetry_group_IT_number 73
_symmetry_cell_setting 'orthorhombic'
loop_
_space_group_symop_operation_xyz
x,y,z
-x,1/2-y,z
x,-y,1/2-z
1/2-x,y,-z
-x,-y,-z
x,1/2+y,-z
-x,y,1/2+z
1/2+x,-y,z
1/2+x,1/2+y,1/2+z
1/2-x,-y,1/2+z
1/2+x,1/2-y,-z
-x,1/2+y,1/2-z
1/2-x,1/2-y,1/2-z
1/2+x,y,1/2-z
1/2-x,1/2+y,z
x,1/2-y,1/2+z
loop_
_atom_site_type_symbol
_atom_site_label
_atom_site_fract_x
_atom_site_fract_y
_atom_site_fract_z
Si Si1 0.426007 0.544927 0.659591
Si Si2 0.799421 0.123735 0.750207
Si Si3 0.613091 0.692249 0.928561
Si Si4 0.387065 0.087194 0.071117
O O1 0.391525 0.500000 0.750000
O O2 0.278408 0.586600 0.659197
O O3 0.568861 0.585778 0.694062
O O4 0.433848 0.486598 0.585190
O O5 0.851252 0.184550 0.812725
O O6 0.672707 0.123993 0.668372
O O7 0.500000 0.750000 0.940891
O O8 0.524760 0.628655 0.963371
O O9 0.750000 0.703037 0.000000
O O10 0.250000 0.089005 0.000000
#
# Coordination Sequence:
#
# PCOD9531062 Si02
#       4
#    16  16  16  16
#     4  10  20  41  72 110 159 194 236 300 373 460
#     4  11  23  47  74 110 157 201 249 304 384 452
#     4  12  29  53  77 107 151 200 264 323 376 455
#     4  11  26  44  76 117 159 203 251 308 379 461
#
# _framework density 24.502378
#
# number of rings (size 3 to 8) (size 9 to 14) (size 15 to 20)
#    0.000    1.000    5.000    3.000    3.500    3.000 
#    0.000    2.500    0.000    0.000    0.000    0.000 
#    0.000    0.000    0.000    0.000    0.000    0.000 
#
# Total GULP energy -178363.026342 kJ/mol
# GULP energy per Si atom -5573.844573 kJ/mol
# Density = 2.444661 g / cm^3
# Si number density = 24.502378 Si / 1000 Ang^3
#
#
#
# Elastic Constant Matrix: (Units=GPa)
#
#
# Indices 1 2 3 4 5 6 
#
# 1 174.1469 77.8481 62.5262 0.0000 0.0000 0.0000
# 2 77.8481 104.6080 31.0196 0.0000 0.0000 0.0000
# 3 62.5262 31.0196 143.4705 0.0001 0.0000 0.0000
# 4 0.0000 0.0000 0.0001 1.5763 0.0000 0.0000
# 5 0.0000 0.0000 0.0000 0.0000 51.0950 0.0000
# 6 0.0000 0.0000 0.0000 0.0000 0.0000 28.3566
#
#
#
# Elastic Compliance Matrix: (Units=1/GPa)
#
#
# Indices 1 2 3 4 5 6 
#
# 1 0.009558 -0.006280 -0.002808 0.000000 0.000000 0.000000
# 2 -0.006280 0.014341 -0.000364 0.000000 0.000000 0.000000
# 3 -0.002808 -0.000364 0.008272 0.000000 0.000000 0.000000
# 4 0.000000 0.000000 0.000000 0.634397 0.000000 0.000000
# 5 0.000000 0.000000 0.000000 0.000000 0.019571 0.000000
# 6 0.000000 0.000000 0.000000 0.000000 0.000000 0.035265
#
#
# Mechanical properties :
#
#
# Convention : Reuss Voigt Hill
#
# Bulk Modulus (GPa) = 75.36838 85.00147 80.18492
# Shear Modulus (GPa) = 6.71384 32.92767 19.82076
#
# Velocity S-wave (km/s) = 1.65711 3.66984 2.84726
# Velocity P-wave (km/s) = 5.87263 7.26109 6.60345
#
# Compressibility (1/GPa) = 0.01326816
#
# Stress axis : x y z
#
# Youngs Moduli (GPa) = 104.62728 69.73004 120.88596
#
# Poissons Ratio (x) = 0.43792 0.33939
# Poissons Ratio (y) = 0.65708 0.04396
# Poissons Ratio (z) = 0.29375 0.02536
#
# Static dielectric constant tensor:
#      x y z
#    x 1.848420 0.000000 0.000000 
#    y 0.000000 2.181510 0.000000 
#    z 0.000000 0.000000 2.109990 
# 
# From -- ./inp_files/15455.got.cif
#   From: 2010.05.17/outbox.cif.g08.bks.cpg/sg73_8_cif.got.tgz:15455.got - 2010.06.03 17:35:07.
