data_PCOD9531787
_publ_section_title
;
Structure prediction by ZEFSAII (Michael W. Deem and Ramdas Pophale) SiO2 
 PCOD9531787
Probable space group: I B C A 
;
_chemical_formula_sum "Si O2"
_cell_formula_units_Z 72
_cell_length_a 24.732509
_cell_length_b 16.564380
_cell_length_c 8.237972
_cell_angle_alpha 90.000000
_cell_angle_beta 90.000000
_cell_angle_gamma 90.000000
_cell_volume 3374.921474
_symmetry_space_group_name_H-M "I B C A "
_symmetry_group_IT_number 73
_symmetry_cell_setting 'orthorhombic'
loop_
_space_group_symop_operation_xyz
x,y,z
-x,1/2-y,z
x,-y,1/2-z
1/2-x,y,-z
-x,-y,-z
x,1/2+y,-z
-x,y,1/2+z
1/2+x,-y,z
1/2+x,1/2+y,1/2+z
1/2-x,-y,1/2+z
1/2+x,1/2-y,-z
-x,1/2+y,1/2-z
1/2-x,1/2-y,1/2-z
1/2+x,y,1/2-z
1/2-x,1/2+y,z
x,1/2-y,1/2+z
loop_
_atom_site_type_symbol
_atom_site_label
_atom_site_fract_x
_atom_site_fract_y
_atom_site_fract_z
Si Si1 0.308092 0.958616 0.573280
Si Si2 0.250000 0.297801 0.000000
Si Si3 0.000000 0.250000 0.520957
Si Si4 0.421287 0.825781 0.275496
Si Si5 0.671538 0.304922 0.771692
Si Si6 0.133153 0.000000 0.750000
O O1 0.250000 0.931701 0.500000
O O2 0.345062 0.880822 0.618473
O O3 0.333403 0.005036 0.419378
O O4 0.301195 0.000000 0.750000
O O5 0.292569 0.338762 0.121483
O O6 0.212015 0.245483 0.115751
O O7 0.963336 0.188946 0.419155
O O8 0.957299 0.301977 0.621316
O O9 0.374094 0.757461 0.285241
O O10 0.398939 0.915894 0.263122
#
# Coordination Sequence:
#
# PCOD9531787 Si02
#       6
#    16   8   8  16  16   8
#     4  12  27  43  66 103 154 196 239 287 349 421
#     4  10  22  34  68  94 136 188 240 276 332 426
#     4  10  24  48  78 100 132 188 236 310 364 438
#     4  11  25  47  74 104 141 181 247 298 367 425
#     4  11  23  41  66 101 139 195 237 285 349 436
#     4  12  28  48  70 108 146 186 236 308 354 432
#
# _framework density 21.333829000000001
#
# number of rings (size 3 to 8) (size 9 to 14) (size 15 to 20)
#    0.000    0.889    2.222    4.000   10.889    0.889 
#    0.000    0.000    0.000    0.000    0.000    0.000 
#    0.000    0.000    0.000    0.000    0.000    0.000 
#
# Total GULP energy -200902.022564 kJ/mol
# GULP energy per Si atom -5580.611738 kJ/mol
# Density = 2.128527 g / cm^3
# Si number density = 21.333829 Si / 1000 Ang^3
#
#
#
# Elastic Constant Matrix: (Units=GPa)
#
#
# Indices 1 2 3 4 5 6 
#
# 1 103.2696 50.5850 49.4071 0.0000 0.0000 0.0000
# 2 50.5850 120.2062 49.7601 0.0000 0.0000 0.0000
# 3 49.4071 49.7601 148.0070 0.0000 0.0000 0.0000
# 4 0.0000 0.0000 0.0000 -57.3792 0.0000 0.0000
# 5 0.0000 0.0000 0.0000 0.0000 52.9403 0.0000
# 6 0.0000 0.0000 0.0000 0.0000 0.0000 32.8193
#
#
#
# Elastic Compliance Matrix: (Units=1/GPa)
#
#
# Indices 1 2 3 4 5 6 
#
# 1 0.013224 -0.004342 -0.002955 0.000000 0.000000 0.000000
# 2 -0.004342 0.011089 -0.002279 0.000000 0.000000 0.000000
# 3 -0.002955 -0.002279 0.008509 0.000000 0.000000 0.000000
# 4 0.000000 0.000000 0.000000 -0.017428 0.000000 0.000000
# 5 0.000000 0.000000 0.000000 0.000000 0.018889 0.000000
# 6 0.000000 0.000000 0.000000 0.000000 0.000000 0.030470
#
#
# Mechanical properties :
#
#
# Convention : Reuss Voigt Hill
#
# Bulk Modulus (GPa) = 73.14448 74.55412 73.84930
# Shear Modulus (GPa) = 56.52215 20.45814 38.49014
#
# Velocity S-wave (km/s) = 5.15283 3.10006 4.25218
# Velocity P-wave (km/s) = 8.35238 6.91636 7.66806
#
# Compressibility (1/GPa) = 0.01367157
#
# Stress axis : x y z
#
# Youngs Moduli (GPa) = 75.62200 90.17539 117.52373
#
# Poissons Ratio (x) = 0.39151 0.34723
# Poissons Ratio (y) = 0.32833 0.26783
# Poissons Ratio (z) = 0.22343 0.20551
#
# Static dielectric constant tensor:
#      x y z
#    x 1.749920 0.000000 0.000000 
#    y 0.000000 1.752810 0.000000 
#    z 0.000000 0.000000 1.829420 
# 
# From -- ./inp_files/4842.got.cif
#   From: 2010.05.17/outbox.cif.g08.bks.cpg/sg73_3_cif.got.tgz:4842.got - 2010.06.03 17:35:07.
