data_PCOD9531670
_publ_section_title
;
Structure prediction by ZEFSAII (Michael W. Deem and Ramdas Pophale) SiO2 
 PCOD9531670
Probable space group: I B C A 
;
_chemical_formula_sum "Si O2"
_cell_formula_units_Z 72
_cell_length_a 18.803478
_cell_length_b 11.384112
_cell_length_c 13.778885
_cell_angle_alpha 90.000000
_cell_angle_beta 90.000000
_cell_angle_gamma 90.000000
_cell_volume 2949.520518
_symmetry_space_group_name_H-M "I B C A "
_symmetry_group_IT_number 73
_symmetry_cell_setting 'orthorhombic'
loop_
_space_group_symop_operation_xyz
x,y,z
-x,1/2-y,z
x,-y,1/2-z
1/2-x,y,-z
-x,-y,-z
x,1/2+y,-z
-x,y,1/2+z
1/2+x,-y,z
1/2+x,1/2+y,1/2+z
1/2-x,-y,1/2+z
1/2+x,1/2-y,-z
-x,1/2+y,1/2-z
1/2-x,1/2-y,1/2-z
1/2+x,y,1/2-z
1/2-x,1/2+y,z
x,1/2-y,1/2+z
loop_
_atom_site_type_symbol
_atom_site_label
_atom_site_fract_x
_atom_site_fract_y
_atom_site_fract_z
Si Si1 0.730807 0.759760 0.138667
Si Si2 0.575557 0.196337 0.890163
Si Si3 0.790152 0.993067 0.632014
Si Si4 0.053930 0.431855 0.927324
Si Si5 0.965274 0.000000 0.250000
O O1 0.750000 0.750000 0.250000
O O2 0.646087 0.765627 0.131380
O O3 0.754461 0.889579 0.103936
O O4 0.757277 0.633005 0.101573
O O5 0.500000 0.250000 0.861933
O O6 0.580154 0.079895 0.823038
O O7 0.572125 0.179664 0.006470
O O8 0.794560 0.000000 0.750000
O O9 0.870249 0.991760 0.590636
O O10 0.014965 0.424667 0.823719
O O11 0.000000 0.500000 0.000000
#
# Coordination Sequence:
#
# PCOD9531670 Si02
#       5
#    16  16  16  16   8
#     4  10  23  42  72 103 143 193 247 301 374 450
#     4  11  25  43  68 108 147 188 256 313 370 456
#     4  10  21  43  74 102 144 190 245 301 374 447
#     4  10  21  42  69 105 141 186 246 305 372 443
#     4  10  22  42  72  96 140 194 242 304 382 444
#
# _framework density 24.410747000000001
#
# number of rings (size 3 to 8) (size 9 to 14) (size 15 to 20)
#    0.000    1.778    1.111    2.667    7.778    1.778 
#    0.000    6.667    0.000    0.000    0.000    0.000 
#    0.000    0.000    0.000    0.000    0.000    0.000 
#
# Total GULP energy -200831.881878 kJ/mol
# GULP energy per Si atom -5578.663385 kJ/mol
# Density = 2.435519 g / cm^3
# Si number density = 24.410747 Si / 1000 Ang^3
#
#
#
# Elastic Constant Matrix: (Units=GPa)
#
#
# Indices 1 2 3 4 5 6 
#
# 1 94.1645 44.1201 13.4123 0.0000 0.0000 0.0000
# 2 44.1201 167.6161 20.4895 0.0000 0.0000 0.0000
# 3 13.4123 20.4895 168.6058 0.0000 0.0000 0.0000
# 4 0.0000 0.0000 0.0000 -15.8310 0.0000 0.0000
# 5 0.0000 0.0000 0.0000 0.0000 40.7116 0.0000
# 6 0.0000 0.0000 0.0000 0.0000 0.0000 28.7717
#
#
#
# Elastic Compliance Matrix: (Units=1/GPa)
#
#
# Indices 1 2 3 4 5 6 
#
# 1 0.012171 -0.003132 -0.000588 0.000000 0.000000 0.000000
# 2 -0.003132 0.006862 -0.000585 0.000000 0.000000 0.000000
# 3 -0.000588 -0.000585 0.006049 0.000000 0.000000 0.000000
# 4 0.000000 0.000000 0.000000 -0.063167 0.000000 0.000000
# 5 0.000000 0.000000 0.000000 0.000000 0.024563 0.000000
# 6 0.000000 0.000000 0.000000 0.000000 0.000000 0.034756
#
#
# Mechanical properties :
#
#
# Convention : Reuss Voigt Hill
#
# Bulk Modulus (GPa) = 60.70463 65.15891 62.93177
# Shear Modulus (GPa) = 141.51121 34.22143 87.86632
#
# Velocity S-wave (km/s) = 7.62212 3.74826 6.00609
# Velocity P-wave (km/s) = 10.11851 6.74413 8.59847
#
# Compressibility (1/GPa) = 0.01647321
#
# Stress axis : x y z
#
# Youngs Moduli (GPa) = 82.16398 145.73347 165.32213
#
# Poissons Ratio (x) = 0.45640 0.09714
# Poissons Ratio (y) = 0.25732 0.09667
# Poissons Ratio (z) = 0.04828 0.08522
#
# Static dielectric constant tensor:
#      x y z
#    x 1.896270 0.000000 0.000000 
#    y 0.000000 2.103660 0.000000 
#    z 0.000000 0.000000 1.887490 
# 
# From -- ./inp_files/18484.got.cif
#   From: 2010.05.17/outbox.cif.g08.bks.cpg/sg73_10_cif.got.tgz:18484.got - 2010.06.03 17:35:07.
