data_PCOD9531778
_publ_section_title
;
Structure prediction by ZEFSAII (Michael W. Deem and Ramdas Pophale) SiO2 
 PCOD9531778
Probable space group: I B C A 
;
_chemical_formula_sum "Si O2"
_cell_formula_units_Z 104
_cell_length_a 25.915355
_cell_length_b 22.236360
_cell_length_c 9.302791
_cell_angle_alpha 90.000000
_cell_angle_beta 90.000000
_cell_angle_gamma 90.000000
_cell_volume 5360.855769
_symmetry_space_group_name_H-M "I B C A "
_symmetry_group_IT_number 73
_symmetry_cell_setting 'orthorhombic'
loop_
_space_group_symop_operation_xyz
x,y,z
-x,1/2-y,z
x,-y,1/2-z
1/2-x,y,-z
-x,-y,-z
x,1/2+y,-z
-x,y,1/2+z
1/2+x,-y,z
1/2+x,1/2+y,1/2+z
1/2-x,-y,1/2+z
1/2+x,1/2-y,-z
-x,1/2+y,1/2-z
1/2-x,1/2-y,1/2-z
1/2+x,y,1/2-z
1/2-x,1/2+y,z
x,1/2-y,1/2+z
loop_
_atom_site_type_symbol
_atom_site_label
_atom_site_fract_x
_atom_site_fract_y
_atom_site_fract_z
Si Si1 0.851730 0.428272 0.734182
Si Si2 0.190306 0.466778 0.959202
Si Si3 0.559185 0.565286 0.676688
Si Si4 0.671124 0.093228 0.343846
Si Si5 0.229766 0.331060 0.297489
Si Si6 0.250000 0.769539 0.000000
Si Si7 0.038231 0.562616 0.159694
O O1 0.842041 0.500000 0.750000
O O2 0.845636 0.426958 0.562153
O O3 0.808647 0.386687 0.803950
O O4 0.907350 0.409557 0.792595
O O5 0.175222 0.537128 0.954269
O O6 0.185886 0.438416 0.804482
O O7 0.250000 0.463188 0.000000
O O8 0.573338 0.500000 0.750000
O O9 0.610260 0.606016 0.665111
O O10 0.513981 0.591458 0.777848
O O11 0.539505 0.555119 0.512618
O O12 0.713616 0.145690 0.349397
O O13 0.215444 0.275578 0.401427
O O14 0.228513 0.309936 0.130488
O O15 0.038783 0.500000 0.250000
#
# Coordination Sequence:
#
# PCOD9531778 Si02
#       7
#    16  16  16  16  16   8  16
#     4  11  22  34  59  92 124 154 198 243 315 356
#     4  11  20  32  47  89 128 154 193 228 310 363
#     4  11  21  36  51  81 124 166 198 234 293 370
#     4  11  22  32  58  83 121 161 197 247 290 359
#     4  11  23  43  62  87 123 159 201 260 291 378
#     4  10  26  44  60  82 118 168 214 234 314 354
#     4  10  22  34  53  80 122 168 195 236 293 369
#
# _framework density 19.399888000000001
#
# number of rings (size 3 to 8) (size 9 to 14) (size 15 to 20)
#    0.000    1.231    3.077    5.538    7.538    0.000 
#    0.000    0.000    0.000    0.000    0.000    6.462 
#    0.000    0.000    0.000    0.000    0.000    0.000 
#
# Total GULP energy -289786.593005 kJ/mol
# GULP energy per Si atom -5572.819096 kJ/mol
# Density = 1.935573 g / cm^3
# Si number density = 19.399888 Si / 1000 Ang^3
#
#
#
# Elastic Constant Matrix: (Units=GPa)
#
#
# Indices 1 2 3 4 5 6 
#
# 1 140.8741 26.1203 34.5928 0.0000 0.0000 0.0000
# 2 26.1203 45.2594 11.0025 0.0000 0.0000 0.0000
# 3 34.5928 11.0025 113.5786 0.0000 0.0000 0.0000
# 4 0.0000 0.0000 0.0000 29.5265 0.0000 0.0000
# 5 0.0000 0.0000 0.0000 0.0000 23.0196 0.0000
# 6 0.0000 0.0000 0.0000 0.0000 0.0000 0.4144
#
#
#
# Elastic Compliance Matrix: (Units=1/GPa)
#
#
# Indices 1 2 3 4 5 6 
#
# 1 0.008431 -0.004344 -0.002147 0.000000 0.000000 0.000000
# 2 -0.004344 0.024866 -0.001086 0.000000 0.000000 0.000000
# 3 -0.002147 -0.001086 0.009564 0.000000 0.000000 0.000000
# 4 0.000000 0.000000 0.000000 0.033868 0.000000 0.000000
# 5 0.000000 0.000000 0.000000 0.000000 0.043441 0.000000
# 6 0.000000 0.000000 0.000000 0.000000 0.000000 2.413152
#
#
# Mechanical properties :
#
#
# Convention : Reuss Voigt Hill
#
# Bulk Modulus (GPa) = 36.09187 49.23815 42.66501
# Shear Modulus (GPa) = 1.95487 25.79188 13.87337
#
# Velocity S-wave (km/s) = 1.00492 3.65017 2.67709
# Velocity P-wave (km/s) = 4.47113 6.57272 5.62102
#
# Compressibility (1/GPa) = 0.02770707
#
# Stress axis : x y z
#
# Youngs Moduli (GPa) = 118.60706 40.21589 104.56317
#
# Poissons Ratio (x) = 0.17469 0.22451
# Poissons Ratio (y) = 0.51522 0.11353
# Poissons Ratio (z) = 0.25466 0.04366
#
# Static dielectric constant tensor:
#      x y z
#    x 1.776460 0.000000 0.000000 
#    y 0.000000 1.696430 0.000000 
#    z 0.000000 0.000000 1.669660 
# 
# From -- ./inp_files/7892.got.cif
#   From: 2010.05.17/outbox.cif.g08.bks.cpg/sg73_4_cif.got.tgz:7892.got - 2010.06.03 17:35:07.
