data_PCOD9531744
_publ_section_title
;
Structure prediction by ZEFSAII (Michael W. Deem and Ramdas Pophale) SiO2 
 PCOD9531744
Probable space group: I B C A 
;
_chemical_formula_sum "Si O2"
_cell_formula_units_Z 120
_cell_length_a 20.366520
_cell_length_b 11.055589
_cell_length_c 25.825975
_cell_angle_alpha 90.000000
_cell_angle_beta 90.000000
_cell_angle_gamma 90.000000
_cell_volume 5815.076593
_symmetry_space_group_name_H-M "I B C A "
_symmetry_group_IT_number 73
_symmetry_cell_setting 'orthorhombic'
loop_
_space_group_symop_operation_xyz
x,y,z
-x,1/2-y,z
x,-y,1/2-z
1/2-x,y,-z
-x,-y,-z
x,1/2+y,-z
-x,y,1/2+z
1/2+x,-y,z
1/2+x,1/2+y,1/2+z
1/2-x,-y,1/2+z
1/2+x,1/2-y,-z
-x,1/2+y,1/2-z
1/2-x,1/2-y,1/2-z
1/2+x,y,1/2-z
1/2-x,1/2+y,z
x,1/2-y,1/2+z
loop_
_atom_site_type_symbol
_atom_site_label
_atom_site_fract_x
_atom_site_fract_y
_atom_site_fract_z
Si Si1 0.126924 0.116797 0.581539
Si Si2 0.473804 0.132382 0.339346
Si Si3 0.968652 0.500000 0.250000
Si Si4 0.565211 0.321973 0.522163
Si Si5 0.716630 0.819287 0.057159
Si Si6 0.914862 0.533438 0.409809
Si Si7 0.147733 0.839360 0.598516
Si Si8 0.071509 0.684474 0.673182
O O1 0.097745 0.149391 0.637407
O O2 0.080856 0.173922 0.537737
O O3 0.195324 0.179438 0.566317
O O4 0.123956 0.972378 0.582225
O O5 0.500000 0.250000 0.311114
O O6 0.484420 0.027431 0.298489
O O7 0.526510 0.112207 0.385652
O O8 0.927077 0.385413 0.271606
O O9 0.500000 0.250000 0.534868
O O10 0.561261 0.459471 0.540629
O O11 0.622504 0.252791 0.553744
O O12 0.652038 0.898371 0.072988
O O13 0.774342 0.846287 0.097106
O O14 0.750000 0.839637 0.000000
O O15 0.910598 0.426069 0.366594
O O16 0.120079 0.789569 0.652792
O O17 0.000000 0.750000 0.666753
#
# Coordination Sequence:
#
# PCOD9531744 Si02
#       8
#    16  16   8  16  16  16  16  16
#     4  12  25  38  61  91 132 175 226 279 330 398
#     4  11  21  39  64  98 126 156 210 279 344 409
#     4  10  22  40  76 102 132 158 202 286 372 426
#     4  11  23  39  61  89 128 176 228 281 338 391
#     4  12  25  41  58  92 136 194 242 270 317 398
#     4  10  22  40  63  90 135 179 224 279 337 396
#     4  11  24  40  62  88 133 183 227 274 325 400
#     4  10  21  44  71 105 130 167 219 283 356 415
#
# _framework density 20.636012000000001
#
# number of rings (size 3 to 8) (size 9 to 14) (size 15 to 20)
#    0.000    1.067    2.667    5.600    3.733    1.600 
#    0.000    0.000    0.000    4.000    0.000    0.000 
#    0.000    0.000    0.000    0.000    0.000    0.000 
#
# Total GULP energy -334290.487529 kJ/mol
# GULP energy per Si atom -5571.508125 kJ/mol
# Density = 2.058904 g / cm^3
# Si number density = 20.636012 Si / 1000 Ang^3
#
#
#
# Elastic Constant Matrix: (Units=GPa)
#
#
# Indices 1 2 3 4 5 6 
#
# 1 96.0533 24.6713 34.1612 0.0000 0.0000 0.0000
# 2 24.6713 92.9178 25.0305 0.0000 0.0000 0.0000
# 3 34.1612 25.0305 87.5202 0.0000 0.0000 0.0000
# 4 0.0000 0.0000 0.0000 40.0588 0.0000 0.0000
# 5 0.0000 0.0000 0.0000 0.0000 21.3909 0.0000
# 6 0.0000 0.0000 0.0000 0.0000 0.0000 32.7716
#
#
#
# Elastic Compliance Matrix: (Units=1/GPa)
#
#
# Indices 1 2 3 4 5 6 
#
# 1 0.012480 -0.002168 -0.004251 0.000000 0.000000 0.000000
# 2 -0.002168 0.012037 -0.002596 0.000000 0.000000 0.000000
# 3 -0.004251 -0.002596 0.013828 0.000000 0.000000 0.000000
# 4 0.000000 0.000000 0.000000 0.024963 0.000000 0.000000
# 5 0.000000 0.000000 0.000000 0.000000 0.046749 0.000000
# 6 0.000000 0.000000 0.000000 0.000000 0.000000 0.030514
#
#
# Mechanical properties :
#
#
# Convention : Reuss Voigt Hill
#
# Bulk Modulus (GPa) = 49.22846 49.35748 49.29297
# Shear Modulus (GPa) = 30.23457 31.68613 30.96035
#
# Velocity S-wave (km/s) = 3.83186 3.92277 3.87758
# Velocity P-wave (km/s) = 6.59431 6.66990 6.63221
#
# Compressibility (1/GPa) = 0.02031345
#
# Stress axis : x y z
#
# Youngs Moduli (GPa) = 80.13011 83.07472 72.31858
#
# Poissons Ratio (x) = 0.18014 0.30742
# Poissons Ratio (y) = 0.17376 0.18776
# Poissons Ratio (z) = 0.34063 0.21568
#
# Static dielectric constant tensor:
#      x y z
#    x 1.757820 0.000000 0.000000 
#    y 0.000000 1.853070 0.000000 
#    z 0.000000 0.000000 1.775070 
# 
# From -- ./inp_files/32464.got.cif
#   From: 2010.05.17/outbox.cif.g08.bks.cpg/sg73_17_cif.got.tgz:32464.got - 2010.06.03 17:35:07.
