data_PCOD9531586
_publ_section_title
;
Structure prediction by ZEFSAII (Michael W. Deem and Ramdas Pophale) SiO2 
 PCOD9531586
Probable space group: I B C A 
;
_chemical_formula_sum "Si O2"
_cell_formula_units_Z 88
_cell_length_a 17.004846
_cell_length_b 17.958118
_cell_length_c 14.666457
_cell_angle_alpha 90.000000
_cell_angle_beta 90.000000
_cell_angle_gamma 90.000000
_cell_volume 4478.769762
_symmetry_space_group_name_H-M "I B C A "
_symmetry_group_IT_number 73
_symmetry_cell_setting 'orthorhombic'
loop_
_space_group_symop_operation_xyz
x,y,z
-x,1/2-y,z
x,-y,1/2-z
1/2-x,y,-z
-x,-y,-z
x,1/2+y,-z
-x,y,1/2+z
1/2+x,-y,z
1/2+x,1/2+y,1/2+z
1/2-x,-y,1/2+z
1/2+x,1/2-y,-z
-x,1/2+y,1/2-z
1/2-x,1/2-y,1/2-z
1/2+x,y,1/2-z
1/2-x,1/2+y,z
x,1/2-y,1/2+z
loop_
_atom_site_type_symbol
_atom_site_label
_atom_site_fract_x
_atom_site_fract_y
_atom_site_fract_z
Si Si1 0.369164 0.203523 0.916596
Si Si2 0.576878 0.675427 0.784260
Si Si3 0.793635 0.422600 0.337725
Si Si4 0.261969 0.408070 0.650237
Si Si5 0.750000 0.177666 0.000000
Si Si6 0.086833 0.820336 0.612152
O O1 0.415350 0.202495 0.820499
O O2 0.303410 0.139324 0.902464
O O3 0.314370 0.273198 0.945769
O O4 0.424802 0.190179 0.003963
O O5 0.621184 0.596641 0.795545
O O6 0.491114 0.666197 0.828623
O O7 0.617070 0.742188 0.843808
O O8 0.765276 0.506368 0.354062
O O9 0.739199 0.388788 0.257987
O O10 0.790634 0.377031 0.429193
O O11 0.347932 0.384375 0.618610
#
# Coordination Sequence:
#
# PCOD9531586 Si02
#       6
#    16  16  16  16   8  16
#     4  11  21  39  65  94 124 172 215 274 317 381
#     4  10  23  40  61  93 138 159 216 265 330 385
#     4  10  22  39  61  94 127 168 212 270 317 395
#     4  10  21  41  64  90 129 169 217 267 326 374
#     4  12  20  34  70  96 122 162 236 266 314 378
#     4  11  21  39  65  94 126 174 208 266 326 396
#
# _framework density 19.648253
#
# number of rings (size 3 to 8) (size 9 to 14) (size 15 to 20)
#    0.000    1.455    3.636    1.091    2.545    5.818 
#    3.273    8.182    0.000    0.000    0.000    0.000 
#    0.000    0.000    0.000    0.000    0.000    0.000 
#
# Total GULP energy -245095.915700 kJ/mol
# GULP energy per Si atom -5570.361720 kJ/mol
# Density = 1.960353 g / cm^3
# Si number density = 19.648253 Si / 1000 Ang^3
#
#
#
# Elastic Constant Matrix: (Units=GPa)
#
#
# Indices 1 2 3 4 5 6 
#
# 1 78.6106 45.3365 45.1974 0.0000 0.0000 0.0000
# 2 45.3365 92.5837 45.6664 0.0000 0.0000 0.0000
# 3 45.1974 45.6664 173.7500 0.0000 0.0000 0.0000
# 4 0.0000 0.0000 0.0000 21.3226 0.0000 0.0000
# 5 0.0000 0.0000 0.0000 0.0000 34.2264 0.0000
# 6 0.0000 0.0000 0.0000 0.0000 0.0000 30.3043
#
#
#
# Elastic Compliance Matrix: (Units=1/GPa)
#
#
# Indices 1 2 3 4 5 6 
#
# 1 0.018881 -0.007840 -0.002851 0.000000 0.000000 0.000000
# 2 -0.007840 0.015665 -0.002078 0.000000 0.000000 0.000000
# 3 -0.002851 -0.002078 0.007043 0.000000 0.000000 0.000000
# 4 0.000000 0.000000 0.000000 0.046899 0.000000 0.000000
# 5 0.000000 0.000000 0.000000 0.000000 0.029217 0.000000
# 6 0.000000 0.000000 0.000000 0.000000 0.000000 0.032999
#
#
# Mechanical properties :
#
#
# Convention : Reuss Voigt Hill
#
# Bulk Modulus (GPa) = 62.29640 68.59388 65.44514
# Shear Modulus (GPa) = 27.53429 31.08694 29.31061
#
# Velocity S-wave (km/s) = 3.74754 3.98197 3.86653
# Velocity P-wave (km/s) = 7.10634 7.49187 7.30165
#
# Compressibility (1/GPa) = 0.01605229
#
# Stress axis : x y z
#
# Youngs Moduli (GPa) = 52.96197 63.83734 141.98124
#
# Poissons Ratio (x) = 0.50046 0.40481
# Poissons Ratio (y) = 0.41520 0.29502
# Poissons Ratio (z) = 0.15100 0.13264
#
# Static dielectric constant tensor:
#      x y z
#    x 1.718040 0.000000 0.000000 
#    y 0.000000 1.703360 0.000000 
#    z 0.000000 0.000000 1.739480 
# 
# From -- ./inp_files/17927.got.cif
#   From: 2010.05.17/outbox.cif.g08.bks.cpg/sg73_9_cif.got.tgz:17927.got - 2010.06.03 17:35:07.
