data_PCOD9531383
_publ_section_title
;
Structure prediction by ZEFSAII (Michael W. Deem and Ramdas Pophale) SiO2 
 PCOD9531383
Probable space group: I B C A 
;
_chemical_formula_sum "Si O2"
_cell_formula_units_Z 96
_cell_length_a 22.468424
_cell_length_b 8.898571
_cell_length_c 19.160314
_cell_angle_alpha 90.000000
_cell_angle_beta 90.000000
_cell_angle_gamma 90.000000
_cell_volume 3830.853137
_symmetry_space_group_name_H-M "I B C A "
_symmetry_group_IT_number 73
_symmetry_cell_setting 'orthorhombic'
loop_
_space_group_symop_operation_xyz
x,y,z
-x,1/2-y,z
x,-y,1/2-z
1/2-x,y,-z
-x,-y,-z
x,1/2+y,-z
-x,y,1/2+z
1/2+x,-y,z
1/2+x,1/2+y,1/2+z
1/2-x,-y,1/2+z
1/2+x,1/2-y,-z
-x,1/2+y,1/2-z
1/2-x,1/2-y,1/2-z
1/2+x,y,1/2-z
1/2-x,1/2+y,z
x,1/2-y,1/2+z
loop_
_atom_site_type_symbol
_atom_site_label
_atom_site_fract_x
_atom_site_fract_y
_atom_site_fract_z
Si Si1 0.412259 0.924187 0.379402
Si Si2 0.167473 0.982879 0.372521
Si Si3 0.690810 0.537790 0.472402
Si Si4 0.766792 0.322155 0.649313
Si Si5 0.500000 0.250000 0.031554
Si Si6 0.853774 0.500000 0.750000
Si Si7 0.064588 0.267331 0.611670
O O1 0.474904 0.874324 0.413437
O O2 0.356889 0.872260 0.427126
O O3 0.396096 0.897409 0.299207
O O4 0.407427 0.104321 0.381788
O O5 0.216281 0.851632 0.356675
O O6 0.104631 0.900959 0.358133
O O7 0.161153 0.013486 0.455499
O O8 0.198471 0.127023 0.337900
O O9 0.750000 0.620513 0.500000
O O10 0.715176 0.404647 0.423380
O O11 0.808747 0.394834 0.707337
O O12 0.448605 0.227884 0.972084
O O13 0.000000 0.250000 0.645891
#
# Coordination Sequence:
#
# PCOD9531383 Si02
#       7
#    16  16  16  16   8   8  16
#     4  11  20  42  61  95 131 171 221 274 335 402
#     4  11  20  40  62  97 133 168 218 276 347 404
#     4   9  18  32  58  89 120 161 201 264 334 398
#     4  10  23  38  63  95 131 175 217 270 337 404
#     4  10  22  36  66  98 118 170 216 280 342 398
#     4  10  22  42  62  88 130 184 220 270 324 404
#     4  10  21  38  65  92 130 165 210 282 344 400
#
# _framework density 25.059691999999998
#
# number of rings (size 3 to 8) (size 9 to 14) (size 15 to 20)
#    0.500    1.333    5.000    0.500    0.000    6.667 
#    1.500    5.000    0.000    1.000    0.000    0.000 
#    0.000    0.000    0.000    0.000    0.000    0.000 
#
# Total GULP energy -267265.605858 kJ/mol
# GULP energy per Si atom -5568.033455 kJ/mol
# Density = 2.500265 g / cm^3
# Si number density = 25.059692 Si / 1000 Ang^3
#
#
#
# Elastic Constant Matrix: (Units=GPa)
#
#
# Indices 1 2 3 4 5 6 
#
# 1 130.1461 22.7537 3.5390 0.0000 0.0000 0.0000
# 2 22.7537 46.3937 6.5201 0.0000 0.0000 0.0000
# 3 3.5390 6.5201 62.8886 0.0000 0.0000 0.0000
# 4 0.0000 0.0000 0.0000 26.4665 0.0000 0.0000
# 5 0.0000 0.0000 0.0000 0.0000 26.9244 0.0000
# 6 0.0000 0.0000 0.0000 0.0000 0.0000 30.7910
#
#
#
# Elastic Compliance Matrix: (Units=1/GPa)
#
#
# Indices 1 2 3 4 5 6 
#
# 1 0.008404 -0.004115 -0.000046 0.000000 0.000000 0.000000
# 2 -0.004115 0.023889 -0.002245 0.000000 0.000000 0.000000
# 3 -0.000046 -0.002245 0.016137 0.000000 0.000000 0.000000
# 4 0.000000 0.000000 0.000000 0.037784 0.000000 0.000000
# 5 0.000000 0.000000 0.000000 0.000000 0.037141 0.000000
# 6 0.000000 0.000000 0.000000 0.000000 0.000000 0.032477
#
#
# Mechanical properties :
#
#
# Convention : Reuss Voigt Hill
#
# Bulk Modulus (GPa) = 28.07735 33.89490 30.98612
# Shear Modulus (GPa) = 27.69823 30.61073 29.15448
#
# Velocity S-wave (km/s) = 3.32820 3.49881 3.41457
# Velocity P-wave (km/s) = 5.09879 5.46601 5.28559
#
# Compressibility (1/GPa) = 0.03561589
#
# Stress axis : x y z
#
# Youngs Moduli (GPa) = 118.98465 41.86093 61.97125
#
# Poissons Ratio (x) = 0.17228 0.00287
# Poissons Ratio (y) = 0.48968 0.13913
# Poissons Ratio (z) = 0.00551 0.09398
#
# Static dielectric constant tensor:
#      x y z
#    x 2.181150 0.000000 0.000000 
#    y 0.000000 2.036920 0.000000 
#    z 0.000000 0.000000 2.188800 
# 
# From -- ./inp_files/30465.got.cif
#   From: 2010.05.17/outbox.cif.g08.bks.cpg/sg73_16_cif.got.tgz:30465.got - 2010.06.03 17:35:07.
