data_PCOD9531968
_publ_section_title
;
Structure prediction by ZEFSAII (Michael W. Deem and Ramdas Pophale) SiO2 
 PCOD9531968
Probable space group: I B C A 
;
_chemical_formula_sum "Si O2"
_cell_formula_units_Z 64
_cell_length_a 24.485631
_cell_length_b 12.430299
_cell_length_c 8.346467
_cell_angle_alpha 90.000000
_cell_angle_beta 90.000000
_cell_angle_gamma 90.000000
_cell_volume 2540.361699
_symmetry_space_group_name_H-M "I B C A "
_symmetry_group_IT_number 73
_symmetry_cell_setting 'orthorhombic'
loop_
_space_group_symop_operation_xyz
x,y,z
-x,1/2-y,z
x,-y,1/2-z
1/2-x,y,-z
-x,-y,-z
x,1/2+y,-z
-x,y,1/2+z
1/2+x,-y,z
1/2+x,1/2+y,1/2+z
1/2-x,-y,1/2+z
1/2+x,1/2-y,-z
-x,1/2+y,1/2-z
1/2-x,1/2-y,1/2-z
1/2+x,y,1/2-z
1/2-x,1/2+y,z
x,1/2-y,1/2+z
loop_
_atom_site_type_symbol
_atom_site_label
_atom_site_fract_x
_atom_site_fract_y
_atom_site_fract_z
Si Si1 0.654439 0.684999 0.325834
Si Si2 0.559837 0.387456 0.327879
Si Si3 0.750000 0.915396 0.000000
Si Si4 0.500000 0.250000 0.082817
Si Si5 0.144446 0.091460 0.159069
O O1 0.625836 0.619807 0.179343
O O2 0.716602 0.653150 0.367801
O O3 0.653510 0.808970 0.276858
O O4 0.625201 0.645785 0.492813
O O5 0.543104 0.500000 0.250000
O O6 0.526837 0.346956 0.481273
O O7 0.545156 0.294019 0.202653
O O8 0.699677 0.967497 0.093590
O O9 0.110457 0.000000 0.250000
#
# Coordination Sequence:
#
# PCOD9531968 Si02
#       5
#    16  16   8   8  16
#     4  10  22  40  62  94 128 168 213 265 309 388
#     4  11  23  43  70  95 129 172 211 264 335 383
#     4   8  22  40  64  88 140 158 228 256 326 358
#     4  10  24  44  66 102 130 156 222 276 326 386
#     4  10  22  40  60  91 127 175 209 261 314 372
#
# _framework density 25.193265
#
# number of rings (size 3 to 8) (size 9 to 14) (size 15 to 20)
#    1.500    0.500    0.000    3.000    0.000    6.000 
#    0.000    6.250    0.000    0.000    0.000    0.000 
#    0.000    0.000    0.000    0.000    0.000    0.000 
#
# Total GULP energy -178147.478018 kJ/mol
# GULP energy per Si atom -5567.108688 kJ/mol
# Density = 2.513592 g / cm^3
# Si number density = 25.193265 Si / 1000 Ang^3
#
#
#
# Elastic Constant Matrix: (Units=GPa)
#
#
# Indices 1 2 3 4 5 6 
#
# 1 69.1045 -11.8247 10.9925 0.0000 0.0000 0.0000
# 2 -11.8247 58.2758 -0.6771 0.0000 0.0000 0.0000
# 3 10.9925 -0.6771 78.2790 0.0000 0.0000 0.0000
# 4 0.0000 0.0000 0.0000 48.4807 0.0000 0.0000
# 5 0.0000 0.0000 0.0000 0.0000 22.9185 0.0000
# 6 0.0000 0.0000 0.0000 0.0000 0.0000 11.8321
#
#
#
# Elastic Compliance Matrix: (Units=1/GPa)
#
#
# Indices 1 2 3 4 5 6 
#
# 1 0.015337 0.003087 -0.002127 0.000000 0.000000 0.000000
# 2 0.003087 0.017783 -0.000280 0.000000 0.000000 0.000000
# 3 -0.002127 -0.000280 0.013071 0.000000 0.000000 0.000000
# 4 0.000000 0.000000 0.000000 0.020627 0.000000 0.000000
# 5 0.000000 0.000000 0.000000 0.000000 0.043633 0.000000
# 6 0.000000 0.000000 0.000000 0.000000 0.000000 0.084516
#
#
# Mechanical properties :
#
#
# Convention : Reuss Voigt Hill
#
# Bulk Modulus (GPa) = 21.02926 22.51561 21.77243
# Shear Modulus (GPa) = 23.87126 30.45749 27.16438
#
# Velocity S-wave (km/s) = 3.08153 3.48077 3.28722
# Velocity P-wave (km/s) = 4.58545 5.01108 4.80299
#
# Compressibility (1/GPa) = 0.04755280
#
# Stress axis : x y z
#
# Youngs Moduli (GPa) = 65.19971 56.23344 76.50470
#
# Poissons Ratio (x) = -0.17362 0.16273
# Poissons Ratio (y) = -0.20130 0.02140
# Poissons Ratio (z) = 0.13869 0.01573
#
# Static dielectric constant tensor:
#      x y z
#    x 2.307980 0.000000 0.000000 
#    y 0.000000 1.928130 0.000000 
#    z 0.000000 0.000000 2.177940 
# 
# From -- ./inp_files/7575.got.cif
#   From: 2010.05.17/outbox.cif.g08.bks.cpg/sg73_4_cif.got.tgz:7575.got - 2010.06.03 17:35:07.
