data_PCOD9531323
_publ_section_title
;
Structure prediction by ZEFSAII (Michael W. Deem and Ramdas Pophale) SiO2 
 PCOD9531323
Probable space group: I B C A 
;
_chemical_formula_sum "Si O2"
_cell_formula_units_Z 72
_cell_length_a 5.058927
_cell_length_b 25.124089
_cell_length_c 31.245326
_cell_angle_alpha 90.000000
_cell_angle_beta 90.000000
_cell_angle_gamma 90.000000
_cell_volume 3971.310061
_symmetry_space_group_name_H-M "I B C A "
_symmetry_group_IT_number 73
_symmetry_cell_setting 'orthorhombic'
loop_
_space_group_symop_operation_xyz
x,y,z
-x,1/2-y,z
x,-y,1/2-z
1/2-x,y,-z
-x,-y,-z
x,1/2+y,-z
-x,y,1/2+z
1/2+x,-y,z
1/2+x,1/2+y,1/2+z
1/2-x,-y,1/2+z
1/2+x,1/2-y,-z
-x,1/2+y,1/2-z
1/2-x,1/2-y,1/2-z
1/2+x,y,1/2-z
1/2-x,1/2+y,z
x,1/2-y,1/2+z
loop_
_atom_site_type_symbol
_atom_site_label
_atom_site_fract_x
_atom_site_fract_y
_atom_site_fract_z
Si Si1 0.027801 0.313890 0.127116
Si Si2 0.774473 0.969107 0.051669
Si Si3 0.981023 0.314540 0.724772
Si Si4 0.750000 0.284837 0.000000
Si Si5 0.461253 0.646213 0.920574
O O1 0.093990 0.327667 0.176209
O O2 0.246461 0.337785 0.094887
O O3 0.000000 0.250000 0.123071
O O4 0.741705 0.336884 0.116254
O O5 0.902004 0.914836 0.068309
O O6 0.477573 0.984118 0.064892
O O7 0.750000 0.965672 0.000000
O O8 0.764334 0.333169 0.758758
O O9 0.000000 0.250000 0.725815
O O10 0.500000 0.250000 0.984219
O O11 0.627759 0.320014 0.037921
#
# Coordination Sequence:
#
# PCOD9531323 Si02
#       5
#    16  16  16   8  16
#     4  11  22  34  53  79 115 148 178 218 261 317
#     4  10  21  38  58  77  99 134 185 240 286 314
#     4   9  17  31  50  73 103 142 179 213 258 311
#     4  12  24  36  50  72 108 152 186 208 244 316
#     4  12  22  37  53  78 108 145 185 222 268 316
#
# _framework density 18.130036
#
# number of rings (size 3 to 8) (size 9 to 14) (size 15 to 20)
#    0.000    1.333    1.111    6.667    0.000    3.556 
#    0.000    0.000    0.000    0.000    0.000    0.000 
#    0.000   62.222    0.000    0.000    0.000    0.000 
#
# Total GULP energy -200928.284722 kJ/mol
# GULP energy per Si atom -5581.341242 kJ/mol
# Density = 1.808877 g / cm^3
# Si number density = 18.130036 Si / 1000 Ang^3
#
#
#
# Elastic Constant Matrix: (Units=GPa)
#
#
# Indices 1 2 3 4 5 6 
#
# 1 65.7282 7.5192 -1.8879 0.0000 0.0000 0.0000
# 2 7.5192 65.2248 9.7648 0.0000 0.0000 0.0000
# 3 -1.8879 9.7648 66.4559 0.0000 0.0000 0.0000
# 4 0.0000 0.0000 0.0000 -67.3800 0.0000 0.0000
# 5 0.0000 0.0000 0.0000 0.0000 33.2433 0.0000
# 6 0.0000 0.0000 0.0000 0.0000 0.0000 25.3382
#
#
#
# Elastic Compliance Matrix: (Units=1/GPa)
#
#
# Indices 1 2 3 4 5 6 
#
# 1 0.015451 -0.001888 0.000716 0.000000 0.000000 0.000000
# 2 -0.001888 0.015907 -0.002391 0.000000 0.000000 0.000000
# 3 0.000716 -0.002391 0.015419 0.000000 0.000000 0.000000
# 4 0.000000 0.000000 0.000000 -0.014841 0.000000 0.000000
# 5 0.000000 0.000000 0.000000 0.000000 0.030081 0.000000
# 6 0.000000 0.000000 0.000000 0.000000 0.000000 0.039466
#
#
# Mechanical properties :
#
#
# Convention : Reuss Voigt Hill
#
# Bulk Modulus (GPa) = 25.21990 25.35567 25.28778
# Shear Modulus (GPa) = 41.04196 10.37449 25.70822
#
# Velocity S-wave (km/s) = 4.76305 2.39472 3.76971
# Velocity P-wave (km/s) = 6.64753 4.65425 5.73811
#
# Compressibility (1/GPa) = 0.03965124
#
# Stress axis : x y z
#
# Youngs Moduli (GPa) = 64.72169 62.86440 64.85396
#
# Poissons Ratio (x) = 0.11872 -0.04646
# Poissons Ratio (y) = 0.12222 0.15507
# Poissons Ratio (z) = -0.04637 0.15031
#
# Static dielectric constant tensor:
#      x y z
#    x 1.617960 0.000000 0.000000 
#    y 0.000000 1.641910 0.000000 
#    z 0.000000 0.000000 1.625660 
# 
# From -- ./inp_files/2543.got.cif
#   From: 2010.05.17/outbox.cif.g08.bks.cpg/sg73_2_cif.got.tgz:2543.got - 2010.06.03 17:35:07.
