data_PCOD9531089
_publ_section_title
;
Structure prediction by ZEFSAII (Michael W. Deem and Ramdas Pophale) SiO2 
 PCOD9531089
Probable space group: I B C A 
;
_chemical_formula_sum "Si O2"
_cell_formula_units_Z 96
_cell_length_a 12.336924
_cell_length_b 17.213813
_cell_length_c 20.695955
_cell_angle_alpha 90.000000
_cell_angle_beta 90.000000
_cell_angle_gamma 90.000000
_cell_volume 4395.106888
_symmetry_space_group_name_H-M "I B C A "
_symmetry_group_IT_number 73
_symmetry_cell_setting 'orthorhombic'
loop_
_space_group_symop_operation_xyz
x,y,z
-x,1/2-y,z
x,-y,1/2-z
1/2-x,y,-z
-x,-y,-z
x,1/2+y,-z
-x,y,1/2+z
1/2+x,-y,z
1/2+x,1/2+y,1/2+z
1/2-x,-y,1/2+z
1/2+x,1/2-y,-z
-x,1/2+y,1/2-z
1/2-x,1/2-y,1/2-z
1/2+x,y,1/2-z
1/2-x,1/2+y,z
x,1/2-y,1/2+z
loop_
_atom_site_type_symbol
_atom_site_label
_atom_site_fract_x
_atom_site_fract_y
_atom_site_fract_z
Si Si1 0.230586 0.344350 0.676449
Si Si2 0.048607 0.415653 0.750849
Si Si3 0.360479 0.687369 0.698498
Si Si4 0.844336 0.120506 0.455695
Si Si5 0.750000 0.968143 0.500000
Si Si6 0.500000 0.250000 0.064841
Si Si7 0.161798 0.368311 0.880690
O O1 0.160318 0.411833 0.710053
O O2 0.312395 0.309688 0.729118
O O3 0.148764 0.271903 0.665498
O O4 0.298582 0.373606 0.616501
O O5 0.996596 0.500000 0.750000
O O6 0.079152 0.398572 0.825313
O O7 0.971593 0.355228 0.714234
O O8 0.276228 0.639300 0.655685
O O9 0.750000 0.156697 0.500000
O O10 0.950646 0.172043 0.467149
O O11 0.840991 0.029400 0.473732
O O12 0.691617 0.917800 0.444315
O O13 0.394987 0.286266 0.100867
#
# Coordination Sequence:
#
# PCOD9531089 Si02
#       7
#    16  16  16  16   8   8  16
#     4  10  20  42  67  96 136 180 242 295 358 426
#     4  11  24  39  67 106 144 183 233 297 379 442
#     4  10  22  39  70 100 136 179 241 298 359 437
#     4  10  24  46  68 101 141 192 244 306 358 447
#     4  10  26  48  70 102 160 190 244 308 380 442
#     4  12  24  44  76 100 138 190 260 288 370 436
#     4  11  25  44  73 105 142 196 241 308 375 442
#
# _framework density 21.842472000000001
#
# number of rings (size 3 to 8) (size 9 to 14) (size 15 to 20)
#    0.500    1.000    1.667    2.500    5.833    6.000 
#    6.000    0.000    0.000    0.000    0.000    0.000 
#    0.000    0.000    0.000    0.000    0.000    0.000 
#
# Total GULP energy -267251.966261 kJ/mol
# GULP energy per Si atom -5567.749297 kJ/mol
# Density = 2.179276 g / cm^3
# Si number density = 21.842472 Si / 1000 Ang^3
#
#
#
# Elastic Constant Matrix: (Units=GPa)
#
#
# Indices 1 2 3 4 5 6 
#
# 1 84.1559 30.6387 25.2494 0.0000 0.0000 0.0000
# 2 30.6387 98.9132 43.1368 0.0000 0.0000 0.0000
# 3 25.2494 43.1368 99.2809 0.0000 0.0000 0.0000
# 4 0.0000 0.0000 0.0000 25.0689 0.0000 0.0000
# 5 0.0000 0.0000 0.0000 0.0000 20.3806 0.0000
# 6 0.0000 0.0000 0.0000 0.0000 0.0000 0.4524
#
#
#
# Elastic Compliance Matrix: (Units=1/GPa)
#
#
# Indices 1 2 3 4 5 6 
#
# 1 0.013716 -0.003365 -0.002026 0.000000 0.000000 0.000000
# 2 -0.003365 0.013299 -0.004923 0.000000 0.000000 0.000000
# 3 -0.002026 -0.004923 0.012727 0.000000 0.000000 0.000000
# 4 0.000000 0.000000 0.000000 0.039890 0.000000 0.000000
# 5 0.000000 0.000000 0.000000 0.000000 0.049066 0.000000
# 6 0.000000 0.000000 0.000000 0.000000 0.000000 2.210375
#
#
# Mechanical properties :
#
#
# Convention : Reuss Voigt Hill
#
# Bulk Modulus (GPa) = 52.31769 53.37772 52.84771
# Shear Modulus (GPa) = 2.11321 21.40207 11.75764
#
# Velocity S-wave (km/s) = 0.98467 3.13363 2.32263
# Velocity P-wave (km/s) = 5.02962 6.13054 5.60716
#
# Compressibility (1/GPa) = 0.01911399
#
# Stress axis : x y z
#
# Youngs Moduli (GPa) = 72.90929 75.19426 78.57596
#
# Poissons Ratio (x) = 0.25302 0.15921
# Poissons Ratio (y) = 0.24533 0.38679
# Poissons Ratio (z) = 0.14773 0.37014
#
# Static dielectric constant tensor:
#      x y z
#    x 1.897260 0.000000 0.000000 
#    y 0.000000 1.868670 0.000000 
#    z 0.000000 0.000000 1.817770 
# 
# From -- ./inp_files/28961.got.cif
#   From: 2010.05.17/outbox.cif.g08.bks.cpg/sg73_15_cif.got.tgz:28961.got - 2010.06.03 17:35:07.
