data_PCOD9531051
_publ_section_title
;
Structure prediction by ZEFSAII (Michael W. Deem and Ramdas Pophale) SiO2 
 PCOD9531051
Probable space group: I B C A 
;
_chemical_formula_sum "Si O2"
_cell_formula_units_Z 80
_cell_length_a 15.551601
_cell_length_b 16.131712
_cell_length_c 14.317520
_cell_angle_alpha 90.000000
_cell_angle_beta 90.000000
_cell_angle_gamma 90.000000
_cell_volume 3591.892775
_symmetry_space_group_name_H-M "I B C A "
_symmetry_group_IT_number 73
_symmetry_cell_setting 'orthorhombic'
loop_
_space_group_symop_operation_xyz
x,y,z
-x,1/2-y,z
x,-y,1/2-z
1/2-x,y,-z
-x,-y,-z
x,1/2+y,-z
-x,y,1/2+z
1/2+x,-y,z
1/2+x,1/2+y,1/2+z
1/2-x,-y,1/2+z
1/2+x,1/2-y,-z
-x,1/2+y,1/2-z
1/2-x,1/2-y,1/2-z
1/2+x,y,1/2-z
1/2-x,1/2+y,z
x,1/2-y,1/2+z
loop_
_atom_site_type_symbol
_atom_site_label
_atom_site_fract_x
_atom_site_fract_y
_atom_site_fract_z
Si Si1 0.262454 0.711917 0.102268
Si Si2 0.180782 0.646002 0.711083
Si Si3 0.167023 0.528136 0.563157
Si Si4 0.033011 0.074803 0.183323
Si Si5 0.426973 0.681484 0.544287
O O1 0.269491 0.654802 0.191896
O O2 0.193419 0.778109 0.140228
O O3 0.348625 0.764821 0.085003
O O4 0.250000 0.674367 0.000000
O O5 0.208728 0.565071 0.656758
O O6 0.084492 0.633170 0.745402
O O7 0.250000 0.507312 0.500000
O O8 0.098367 0.461195 0.602485
O O9 0.111965 0.606304 0.520077
O O10 0.965913 0.129816 0.129665
O O11 0.002053 0.000000 0.250000
O O12 0.500000 0.750000 0.511067
#
# Coordination Sequence:
#
# PCOD9531051 Si02
#       5
#    16  16  16  16  16
#     4  11  21  40  69  96 129 169 224 272 321 388
#     4  10  20  41  67  91 127 175 217 266 319 386
#     4  11  22  45  67  93 135 180 216 268 328 401
#     4  10  24  42  61  95 136 171 219 273 334 391
#     4  12  22  43  66  98 132 170 218 281 326 384
#
# _framework density 22.272380999999999
#
# number of rings (size 3 to 8) (size 9 to 14) (size 15 to 20)
#    0.000    1.200    6.000    0.600    0.000    0.800 
#   10.800    0.000    0.000    0.000    0.000    0.000 
#    0.000    0.000    0.000    0.000    0.000    0.000 
#
# Total GULP energy -222796.876723 kJ/mol
# GULP energy per Si atom -5569.921918 kJ/mol
# Density = 2.222169 g / cm^3
# Si number density = 22.272381 Si / 1000 Ang^3
#
#
#
# Elastic Constant Matrix: (Units=GPa)
#
#
# Indices 1 2 3 4 5 6 
#
# 1 45.2317 47.3038 16.4424 0.0000 0.0000 0.0000
# 2 47.3038 73.5191 25.7916 0.0000 0.0000 0.0000
# 3 16.4424 25.7916 122.8250 0.0000 0.0000 0.0000
# 4 0.0000 0.0000 0.0000 2.7308 0.0000 0.0000
# 5 0.0000 0.0000 0.0000 0.0000 44.7762 0.0000
# 6 0.0000 0.0000 0.0000 0.0000 0.0000 -22.3868
#
#
#
# Elastic Compliance Matrix: (Units=1/GPa)
#
#
# Indices 1 2 3 4 5 6 
#
# 1 0.067589 -0.043520 0.000091 0.000000 0.000000 0.000000
# 2 -0.043520 0.042706 -0.003142 0.000000 0.000000 0.000000
# 3 0.000091 -0.003142 0.008789 0.000000 0.000000 0.000000
# 4 0.000000 0.000000 0.000000 0.366199 0.000000 0.000000
# 5 0.000000 0.000000 0.000000 0.000000 0.022333 0.000000
# 6 0.000000 0.000000 0.000000 0.000000 0.000000 -0.044669
#
#
# Mechanical properties :
#
#
# Convention : Reuss Voigt Hill
#
# Bulk Modulus (GPa) = 38.54775 46.73904 42.64339
# Shear Modulus (GPa) = 8.85366 15.15990 12.00678
#
# Velocity S-wave (km/s) = 1.99595 2.61177 2.32435
# Velocity P-wave (km/s) = 4.75991 5.48871 5.13725
#
# Compressibility (1/GPa) = 0.02594185
#
# Stress axis : x y z
#
# Youngs Moduli (GPa) = 14.79520 23.41593 113.77536
#
# Poissons Ratio (x) = 1.01907 -0.01030
# Poissons Ratio (y) = 0.64389 0.35744
# Poissons Ratio (z) = -0.00134 0.07356
#
# Static dielectric constant tensor:
#      x y z
#    x 1.899810 0.000000 0.000000 
#    y 0.000000 1.884140 0.000000 
#    z 0.000000 0.000000 1.906420 
# 
# From -- ./inp_files/17828.got.cif
#   From: 2010.05.17/outbox.cif.g08.bks.cpg/sg73_9_cif.got.tgz:17828.got - 2010.06.03 17:35:07.
