data_PCOD9531723
_publ_section_title
;
Structure prediction by ZEFSAII (Michael W. Deem and Ramdas Pophale) SiO2 
 PCOD9531723
Probable space group: I B C A 
;
_chemical_formula_sum "Si O2"
_cell_formula_units_Z 112
_cell_length_a 13.028485
_cell_length_b 13.710239
_cell_length_c 27.459278
_cell_angle_alpha 90.000000
_cell_angle_beta 90.000000
_cell_angle_gamma 90.000000
_cell_volume 4904.876275
_symmetry_space_group_name_H-M "I B C A "
_symmetry_group_IT_number 73
_symmetry_cell_setting 'orthorhombic'
loop_
_space_group_symop_operation_xyz
x,y,z
-x,1/2-y,z
x,-y,1/2-z
1/2-x,y,-z
-x,-y,-z
x,1/2+y,-z
-x,y,1/2+z
1/2+x,-y,z
1/2+x,1/2+y,1/2+z
1/2-x,-y,1/2+z
1/2+x,1/2-y,-z
-x,1/2+y,1/2-z
1/2-x,1/2-y,1/2-z
1/2+x,y,1/2-z
1/2-x,1/2+y,z
x,1/2-y,1/2+z
loop_
_atom_site_type_symbol
_atom_site_label
_atom_site_fract_x
_atom_site_fract_y
_atom_site_fract_z
Si Si1 0.736512 0.805507 0.800941
Si Si2 0.023224 0.970061 0.384555
Si Si3 0.694561 0.947077 0.051121
Si Si4 0.204759 0.178085 0.448266
Si Si5 0.377682 0.154396 0.106900
Si Si6 0.339769 0.336520 0.854295
Si Si7 0.810972 0.988194 0.697729
O O1 0.750000 0.750000 0.750000
O O2 0.643330 0.795240 0.840095
O O3 0.838652 0.768699 0.829159
O O4 0.735303 0.920727 0.794596
O O5 0.941143 0.897569 0.361044
O O6 0.080643 0.918878 0.430611
O O7 0.109099 0.995480 0.345113
O O8 0.965029 0.072565 0.395525
O O9 0.775547 0.907047 0.090905
O O10 0.679237 0.064081 0.049841
O O11 0.750000 0.922550 0.000000
O O12 0.250000 0.206701 0.500000
O O13 0.120177 0.254845 0.430220
O O14 0.292523 0.181110 0.407295
O O15 0.257996 0.398121 0.821298
O O16 0.867967 0.000000 0.750000
#
# Coordination Sequence:
#
# PCOD9531723 Si02
#       7
#    16  16  16  16  16  16  16
#     4  11  22  41  72  96 136 189 229 292 366 417
#     4  12  23  43  68  99 136 181 235 292 346 423
#     4  11  23  44  68  97 137 180 228 284 357 421
#     4  10  21  43  69  96 136 177 223 285 353 417
#     4  11  23  43  67  97 139 181 227 289 352 415
#     4  11  23  44  69  96 136 181 230 292 351 421
#     4  12  24  44  67  99 138 183 234 290 355 424
#
# _framework density 22.834419
#
# number of rings (size 3 to 8) (size 9 to 14) (size 15 to 20)
#    0.000    0.857    7.143    0.429    0.000    3.429 
#    0.000    0.000    6.286    0.000    0.000    0.000 
#    0.000    0.000    0.000    0.000    0.000    0.000 
#
# Total GULP energy -312083.712184 kJ/mol
# GULP energy per Si atom -5572.923432 kJ/mol
# Density = 2.278245 g / cm^3
# Si number density = 22.834419 Si / 1000 Ang^3
#
#
#
# Elastic Constant Matrix: (Units=GPa)
#
#
# Indices 1 2 3 4 5 6 
#
# 1 96.9391 25.2599 39.0795 0.0000 0.0000 0.0000
# 2 25.2599 94.8314 24.0785 0.0000 0.0000 0.0000
# 3 39.0795 24.0785 149.8905 0.0000 0.0000 0.0000
# 4 0.0000 0.0000 0.0000 23.3691 0.0000 0.0000
# 5 0.0000 0.0000 0.0000 0.0000 14.3916 0.0000
# 6 0.0000 0.0000 0.0000 0.0000 0.0000 22.3411
#
#
#
# Elastic Compliance Matrix: (Units=1/GPa)
#
#
# Indices 1 2 3 4 5 6 
#
# 1 0.012079 -0.002521 -0.002744 0.000000 0.000000 0.000000
# 2 -0.002521 0.011519 -0.001193 0.000000 0.000000 0.000000
# 3 -0.002744 -0.001193 0.007579 0.000000 0.000000 0.000000
# 4 0.000000 0.000000 0.000000 0.042792 0.000000 0.000000
# 5 0.000000 0.000000 0.000000 0.000000 0.069485 0.000000
# 6 0.000000 0.000000 0.000000 0.000000 0.000000 0.044760
#
#
# Mechanical properties :
#
#
# Convention : Reuss Voigt Hill
#
# Bulk Modulus (GPa) = 54.76270 57.61073 56.18672
# Shear Modulus (GPa) = 24.12927 28.90324 26.51626
#
# Velocity S-wave (km/s) = 3.25423 3.56163 3.41139
# Velocity P-wave (km/s) = 6.17694 6.49601 6.33848
#
# Compressibility (1/GPa) = 0.01826060
#
# Stress axis : x y z
#
# Youngs Moduli (GPa) = 82.78910 86.80982 131.94831
#
# Poissons Ratio (x) = 0.21881 0.36211
# Poissons Ratio (y) = 0.20868 0.15746
# Poissons Ratio (z) = 0.22720 0.10359
#
# Static dielectric constant tensor:
#      x y z
#    x 1.849410 0.000000 0.000000 
#    y 0.000000 1.918630 0.000000 
#    z 0.000000 0.000000 1.998380 
# 
# From -- ./inp_files/32156.got.cif
#   From: 2010.05.17/outbox.cif.g08.bks.cpg/sg73_17_cif.got.tgz:32156.got - 2010.06.03 17:35:07.
