data_PCOD9531843
_publ_section_title
;
Structure prediction by ZEFSAII (Michael W. Deem and Ramdas Pophale) SiO2 
 PCOD9531843
Probable space group: I B C A 
;
_chemical_formula_sum "Si O2"
_cell_formula_units_Z 104
_cell_length_a 25.789569
_cell_length_b 19.635610
_cell_length_c 9.965028
_cell_angle_alpha 90.000000
_cell_angle_beta 90.000000
_cell_angle_gamma 90.000000
_cell_volume 5046.229581
_symmetry_space_group_name_H-M "I B C A "
_symmetry_group_IT_number 73
_symmetry_cell_setting 'orthorhombic'
loop_
_space_group_symop_operation_xyz
x,y,z
-x,1/2-y,z
x,-y,1/2-z
1/2-x,y,-z
-x,-y,-z
x,1/2+y,-z
-x,y,1/2+z
1/2+x,-y,z
1/2+x,1/2+y,1/2+z
1/2-x,-y,1/2+z
1/2+x,1/2-y,-z
-x,1/2+y,1/2-z
1/2-x,1/2-y,1/2-z
1/2+x,y,1/2-z
1/2-x,1/2+y,z
x,1/2-y,1/2+z
loop_
_atom_site_type_symbol
_atom_site_label
_atom_site_fract_x
_atom_site_fract_y
_atom_site_fract_z
Si Si1 0.470798 0.919033 0.780701
Si Si2 0.057887 0.093882 0.581162
Si Si3 0.141652 0.127162 0.194903
Si Si4 0.215240 0.756591 0.382280
Si Si5 0.874101 0.000000 0.250000
Si Si6 0.168437 0.622814 0.499881
Si Si7 0.690519 0.964602 0.971134
O O1 0.519439 0.887822 0.701238
O O2 0.418888 0.882708 0.726097
O O3 0.467522 0.000000 0.750000
O O4 0.472471 0.913412 0.941748
O O5 0.109042 0.136819 0.546622
O O6 0.086521 0.025909 0.635336
O O7 0.164046 0.197613 0.136869
O O8 0.169234 0.122476 0.339330
O O9 0.158470 0.067531 0.093221
O O10 0.250000 0.789020 0.500000
O O11 0.250000 0.750000 0.250000
O O12 0.200681 0.681708 0.432171
O O13 0.836984 0.053736 0.328773
O O14 0.186347 0.546717 0.464109
O O15 0.750000 0.946990 0.000000
#
# Coordination Sequence:
#
# PCOD9531843 Si02
#       7
#    16  16  16  16   8  16  16
#     4  11  21  39  65  99 137 178 223 284 355 419
#     4  10  22  37  65  93 137 178 218 282 346 414
#     4  11  24  41  66 100 129 180 236 285 353 421
#     4  12  25  46  71  94 136 193 236 285 354 431
#     4  10  22  38  56  98 138 180 224 270 356 424
#     4  10  23  45  64  97 138 177 229 291 346 426
#     4  11  24  38  65  98 139 174 228 297 354 406
#
# _framework density 20.609446999999999
#
# number of rings (size 3 to 8) (size 9 to 14) (size 15 to 20)
#    0.000    1.231    2.308    4.615    4.308    3.692 
#    0.000    0.769    0.000    3.692    0.000    0.000 
#    0.000    0.000    0.000    0.000    0.000    0.000 
#
# Total GULP energy -290018.920344 kJ/mol
# GULP energy per Si atom -5577.286930 kJ/mol
# Density = 2.056254 g / cm^3
# Si number density = 20.609447 Si / 1000 Ang^3
#
#
#
# Elastic Constant Matrix: (Units=GPa)
#
#
# Indices 1 2 3 4 5 6 
#
# 1 94.5888 14.9307 63.0990 0.0000 0.0000 0.0000
# 2 14.9307 83.5884 23.6033 0.0000 0.0000 0.0000
# 3 63.0990 23.6033 161.4595 0.0000 0.0000 0.0000
# 4 0.0000 0.0000 0.0000 17.5824 0.0000 0.0000
# 5 0.0000 0.0000 0.0000 0.0000 42.3761 0.0000
# 6 0.0000 0.0000 0.0000 0.0000 0.0000 16.2322
#
#
#
# Elastic Compliance Matrix: (Units=1/GPa)
#
#
# Indices 1 2 3 4 5 6 
#
# 1 0.014384 -0.001024 -0.005471 0.000000 0.000000 0.000000
# 2 -0.001024 0.012551 -0.001435 0.000000 0.000000 0.000000
# 3 -0.005471 -0.001435 0.008541 0.000000 0.000000 0.000000
# 4 0.000000 0.000000 0.000000 0.056875 0.000000 0.000000
# 5 0.000000 0.000000 0.000000 0.000000 0.023598 0.000000
# 6 0.000000 0.000000 0.000000 0.000000 0.000000 0.061606
#
#
# Mechanical properties :
#
#
# Convention : Reuss Voigt Hill
#
# Bulk Modulus (GPa) = 50.97870 60.32252 55.65061
# Shear Modulus (GPa) = 25.00562 31.10506 28.05534
#
# Velocity S-wave (km/s) = 3.48704 3.88914 3.69356
# Velocity P-wave (km/s) = 6.40327 7.03563 6.72688
#
# Compressibility (1/GPa) = 0.01961604
#
# Stress axis : x y z
#
# Youngs Moduli (GPa) = 69.52314 79.67222 117.07553
#
# Poissons Ratio (x) = 0.08160 0.64058
# Poissons Ratio (y) = 0.07121 0.16795
# Poissons Ratio (z) = 0.38039 0.11430
#
# Static dielectric constant tensor:
#      x y z
#    x 1.785710 0.000000 0.000000 
#    y 0.000000 1.728010 0.000000 
#    z 0.000000 0.000000 1.815820 
# 
# From -- ./inp_files/7901.got.cif
#   From: 2010.05.17/outbox.cif.g08.bks.cpg/sg73_4_cif.got.tgz:7901.got - 2010.06.03 17:35:07.
