data_PCOD9531103
_publ_section_title
;
Structure prediction by ZEFSAII (Michael W. Deem and Ramdas Pophale) SiO2 
 PCOD9531103
Probable space group: I B C A 
;
_chemical_formula_sum "Si O2"
_cell_formula_units_Z 96
_cell_length_a 20.519470
_cell_length_b 21.473475
_cell_length_c 9.523314
_cell_angle_alpha 90.000000
_cell_angle_beta 90.000000
_cell_angle_gamma 90.000000
_cell_volume 4196.203813
_symmetry_space_group_name_H-M "I B C A "
_symmetry_group_IT_number 73
_symmetry_cell_setting 'orthorhombic'
loop_
_space_group_symop_operation_xyz
x,y,z
-x,1/2-y,z
x,-y,1/2-z
1/2-x,y,-z
-x,-y,-z
x,1/2+y,-z
-x,y,1/2+z
1/2+x,-y,z
1/2+x,1/2+y,1/2+z
1/2-x,-y,1/2+z
1/2+x,1/2-y,-z
-x,1/2+y,1/2-z
1/2-x,1/2-y,1/2-z
1/2+x,y,1/2-z
1/2-x,1/2+y,z
x,1/2-y,1/2+z
loop_
_atom_site_type_symbol
_atom_site_label
_atom_site_fract_x
_atom_site_fract_y
_atom_site_fract_z
Si Si1 0.872266 0.764650 0.866509
Si Si2 0.577304 0.896474 0.189490
Si Si3 0.039423 0.616774 0.130798
Si Si4 0.180302 0.500000 0.750000
Si Si5 0.750000 0.832580 0.000000
Si Si6 0.250000 0.569227 0.500000
Si Si7 0.325806 0.864040 0.237918
Si Si8 0.500000 0.750000 0.953284
O O1 0.896763 0.826117 0.784714
O O2 0.813423 0.791668 0.961298
O O3 0.841739 0.709042 0.778453
O O4 0.935347 0.739137 0.951556
O O5 0.521580 0.915615 0.298041
O O6 0.635576 0.943882 0.197559
O O7 0.548346 0.896203 0.032939
O O8 0.106893 0.605061 0.211020
O O9 0.021187 0.690292 0.135948
O O10 0.219721 0.526365 0.619459
O O11 0.727466 0.870573 0.861999
O O12 0.199260 0.611336 0.411614
#
# Coordination Sequence:
#
# PCOD9531103 Si02
#       8
#    16  16  16   8   8   8  16   8
#     4  11  23  41  74 113 160 197 256 315 396 464
#     4  11  26  48  77 109 155 202 262 323 381 460
#     4  11  24  45  78 109 155 198 258 325 390 459
#     4  12  32  56  78 110 150 210 264 322 382 476
#     4  12  23  41  68 110 158 203 243 316 382 476
#     4  12  33  51  84 102 156 199 263 312 408 468
#     4  12  25  48  75 117 149 206 253 329 399 477
#     4  10  20  42  70 114 160 206 242 316 392 480
#
# _framework density 22.877821999999998
#
# number of rings (size 3 to 8) (size 9 to 14) (size 15 to 20)
#    0.000    0.667    3.333    5.000    7.000    2.000 
#    0.000    0.000    0.000    0.000    0.000    0.000 
#    0.000    0.000    0.000    0.000    0.000    0.000 
#
# Total GULP energy -268737.769625 kJ/mol
# GULP energy per Si atom -5598.703534 kJ/mol
# Density = 2.282575 g / cm^3
# Si number density = 22.877822 Si / 1000 Ang^3
#
#
#
# Elastic Constant Matrix: (Units=GPa)
#
#
# Indices 1 2 3 4 5 6 
#
# 1 137.9094 37.8910 44.1073 0.0000 0.0000 0.0000
# 2 37.8910 63.6440 39.9917 0.0000 0.0000 0.0000
# 3 44.1073 39.9917 86.9969 0.0000 0.0000 0.0000
# 4 0.0000 0.0000 0.0000 19.9957 0.0000 0.0000
# 5 0.0000 0.0000 0.0000 0.0000 38.1558 0.0000
# 6 0.0000 0.0000 0.0000 0.0000 0.0000 7.3542
#
#
#
# Elastic Compliance Matrix: (Units=1/GPa)
#
#
# Indices 1 2 3 4 5 6 
#
# 1 0.009200 -0.003581 -0.003019 0.000000 0.000000 0.000000
# 2 -0.003581 0.023488 -0.008982 0.000000 0.000000 0.000000
# 3 -0.003019 -0.008982 0.017154 0.000000 0.000000 0.000000
# 4 0.000000 0.000000 0.000000 0.050011 0.000000 0.000000
# 5 0.000000 0.000000 0.000000 0.000000 0.026208 0.000000
# 6 0.000000 0.000000 0.000000 0.000000 0.000000 0.135977
#
#
# Mechanical properties :
#
#
# Convention : Reuss Voigt Hill
#
# Bulk Modulus (GPa) = 53.53280 59.17004 56.35142
# Shear Modulus (GPa) = 16.69856 24.20516 20.45186
#
# Velocity S-wave (km/s) = 2.70460 3.25625 2.99316
# Velocity P-wave (km/s) = 5.76224 6.32907 6.05230
#
# Compressibility (1/GPa) = 0.01868014
#
# Stress axis : x y z
#
# Youngs Moduli (GPa) = 108.69118 42.57470 58.29570
#
# Poissons Ratio (x) = 0.15245 0.17597
# Poissons Ratio (y) = 0.38920 0.52360
# Poissons Ratio (z) = 0.32809 0.38240
#
# Static dielectric constant tensor:
#      x y z
#    x 1.863970 0.000000 0.000000 
#    y 0.000000 1.850930 0.000000 
#    z 0.000000 0.000000 1.849230 
# 
# From -- ./inp_files/6530.got.cif
#   From: 2010.05.17/outbox.cif.g08.bks.cpg/sg73_4_cif.got.tgz:6530.got - 2010.06.03 17:35:07.
