data_PCOD9531517
_publ_section_title
;
Structure prediction by ZEFSAII (Michael W. Deem and Ramdas Pophale) SiO2 
 PCOD9531517
Probable space group: I B C A 
;
_chemical_formula_sum "Si O2"
_cell_formula_units_Z 88
_cell_length_a 25.062380
_cell_length_b 13.744736
_cell_length_c 11.826816
_cell_angle_alpha 90.000000
_cell_angle_beta 90.000000
_cell_angle_gamma 90.000000
_cell_volume 4074.051863
_symmetry_space_group_name_H-M "I B C A "
_symmetry_group_IT_number 73
_symmetry_cell_setting 'orthorhombic'
loop_
_space_group_symop_operation_xyz
x,y,z
-x,1/2-y,z
x,-y,1/2-z
1/2-x,y,-z
-x,-y,-z
x,1/2+y,-z
-x,y,1/2+z
1/2+x,-y,z
1/2+x,1/2+y,1/2+z
1/2-x,-y,1/2+z
1/2+x,1/2-y,-z
-x,1/2+y,1/2-z
1/2-x,1/2-y,1/2-z
1/2+x,y,1/2-z
1/2-x,1/2+y,z
x,1/2-y,1/2+z
loop_
_atom_site_type_symbol
_atom_site_label
_atom_site_fract_x
_atom_site_fract_y
_atom_site_fract_z
Si Si1 0.073974 0.888766 0.735426
Si Si2 0.167683 0.721900 0.127216
Si Si3 0.254663 0.059605 0.868295
Si Si4 0.128816 0.103006 0.206468
Si Si5 0.000000 0.750000 0.113384
Si Si6 0.595964 0.237439 0.944234
O O1 0.122239 0.859626 0.651971
O O2 0.021371 0.835689 0.691386
O O3 0.092182 0.846530 0.854367
O O4 0.065174 0.000000 0.750000
O O5 0.222488 0.662632 0.138351
O O6 0.151713 0.814784 0.205391
O O7 0.153864 0.758471 0.002006
O O8 0.317768 0.072459 0.857966
O O9 0.239578 0.000000 0.750000
O O10 0.250000 0.021245 0.000000
O O11 0.089354 0.162201 0.125180
O O12 0.106220 0.000000 0.250000
O O13 0.950055 0.722398 0.035641
#
# Coordination Sequence:
#
# PCOD9531517 Si02
#       6
#    16  16  16  16   8  16
#     4  10  22  40  62  93 127 170 227 287 352 421
#     4  10  21  40  63  92 135 178 224 280 341 411
#     4  11  22  42  67 105 142 186 231 282 337 419
#     4  10  22  41  64  96 134 178 229 275 339 418
#     4  10  22  40  64  90 126 164 222 284 354 426
#     4  10  21  41  64  90 127 172 221 284 352 411
#
# _framework density 21.600117999999998
#
# number of rings (size 3 to 8) (size 9 to 14) (size 15 to 20)
#    0.000    1.818    1.818    1.636    0.000    3.636 
#   13.091   13.636    0.000    0.000    0.000    0.000 
#    0.000    0.000    0.000    0.000    0.000    0.000 
#
# Total GULP energy -245217.711816 kJ/mol
# GULP energy per Si atom -5573.129814 kJ/mol
# Density = 2.155096 g / cm^3
# Si number density = 21.600118 Si / 1000 Ang^3
#
#
#
# Elastic Constant Matrix: (Units=GPa)
#
#
# Indices 1 2 3 4 5 6 
#
# 1 37.1833 18.7176 9.1659 0.0000 0.0000 0.0000
# 2 18.7176 135.5779 53.2618 0.0000 0.0000 0.0000
# 3 9.1659 53.2618 125.2067 0.0000 0.0000 0.0000
# 4 0.0000 0.0000 0.0000 -18.2142 0.0000 0.0000
# 5 0.0000 0.0000 0.0000 0.0000 18.8280 0.0000
# 6 0.0000 0.0000 0.0000 0.0000 0.0000 29.1549
#
#
#
# Elastic Compliance Matrix: (Units=1/GPa)
#
#
# Indices 1 2 3 4 5 6 
#
# 1 0.028929 -0.003796 -0.000503 0.000000 0.000000 0.000000
# 2 -0.003796 0.009354 -0.003701 0.000000 0.000000 0.000000
# 3 -0.000503 -0.003701 0.009598 0.000000 0.000000 0.000000
# 4 0.000000 0.000000 0.000000 -0.054902 0.000000 0.000000
# 5 0.000000 0.000000 0.000000 0.000000 0.053112 0.000000
# 6 0.000000 0.000000 0.000000 0.000000 0.000000 0.034300
#
#
# Mechanical properties :
#
#
# Convention : Reuss Voigt Hill
#
# Bulk Modulus (GPa) = 31.36754 51.13984 41.25369
# Shear Modulus (GPa) = 46.72114 20.40857 33.56485
#
# Velocity S-wave (km/s) = 4.65586 3.07715 3.94626
# Velocity P-wave (km/s) = 6.59213 6.02929 6.31698
#
# Compressibility (1/GPa) = 0.03188009
#
# Stress axis : x y z
#
# Youngs Moduli (GPa) = 34.56771 106.90669 104.18780
#
# Poissons Ratio (x) = 0.40585 0.05239
# Poissons Ratio (y) = 0.13123 0.38562
# Poissons Ratio (z) = 0.01738 0.39568
#
# Static dielectric constant tensor:
#      x y z
#    x 1.791230 0.000000 0.000000 
#    y 0.000000 1.849090 0.000000 
#    z 0.000000 0.000000 1.887920 
# 
# From -- ./inp_files/9898.got.cif
#   From: 2010.05.17/outbox.cif.g08.bks.cpg/sg73_5_cif.got.tgz:9898.got - 2010.06.03 17:35:07.
