data_PCOD9531540
_publ_section_title
;
Structure prediction by ZEFSAII (Michael W. Deem and Ramdas Pophale) SiO2 
 PCOD9531540
Probable space group: I B C A 
;
_chemical_formula_sum "Si O2"
_cell_formula_units_Z 112
_cell_length_a 28.157664
_cell_length_b 15.200270
_cell_length_c 13.131880
_cell_angle_alpha 90.000000
_cell_angle_beta 90.000000
_cell_angle_gamma 90.000000
_cell_volume 5620.498420
_symmetry_space_group_name_H-M "I B C A "
_symmetry_group_IT_number 73
_symmetry_cell_setting 'orthorhombic'
loop_
_space_group_symop_operation_xyz
x,y,z
-x,1/2-y,z
x,-y,1/2-z
1/2-x,y,-z
-x,-y,-z
x,1/2+y,-z
-x,y,1/2+z
1/2+x,-y,z
1/2+x,1/2+y,1/2+z
1/2-x,-y,1/2+z
1/2+x,1/2-y,-z
-x,1/2+y,1/2-z
1/2-x,1/2-y,1/2-z
1/2+x,y,1/2-z
1/2-x,1/2+y,z
x,1/2-y,1/2+z
loop_
_atom_site_type_symbol
_atom_site_label
_atom_site_fract_x
_atom_site_fract_y
_atom_site_fract_z
Si Si1 0.463757 0.500000 0.750000
Si Si2 0.400664 0.155411 0.885379
Si Si3 0.649983 0.205876 0.592767
Si Si4 0.689132 0.544428 0.646512
Si Si5 0.250000 0.344495 0.500000
Si Si6 0.389983 0.151054 0.308625
Si Si7 0.463997 0.509391 0.409290
Si Si8 0.366804 0.102229 0.530840
O O1 0.429838 0.575861 0.705214
O O2 0.501132 0.452792 0.675568
O O3 0.355354 0.109234 0.832015
O O4 0.409362 0.251686 0.838885
O O5 0.443161 0.086090 0.878457
O O6 0.383775 0.164768 0.003928
O O7 0.703706 0.201624 0.548617
O O8 0.639133 0.161955 0.702403
O O9 0.638491 0.308647 0.593902
O O10 0.704804 0.500000 0.750000
O O11 0.729650 0.597795 0.591448
O O12 0.669570 0.470904 0.569254
O O13 0.361410 0.122782 0.410668
O O14 0.500000 0.500000 0.500000
O O15 0.419002 0.565488 0.443629
#
# Coordination Sequence:
#
# PCOD9531540 Si02
#       8
#     8  16  16  16   8  16  16  16
#     4  12  26  36  64  98 126 170 228 268 330 390
#     4   9  22  41  63  88 130 173 212 263 332 392
#     4  10  22  43  65  90 131 170 212 271 339 397
#     4  10  21  40  66  91 124 169 215 262 333 394
#     4  10  24  40  62 100 128 162 220 282 322 404
#     4  11  23  42  64  95 127 175 215 272 338 390
#     4  11  22  42  60  93 133 167 220 277 307 393
#     4  10  23  42  65  92 128 174 217 264 335 388
#
# _framework density 19.927059
#
# number of rings (size 3 to 8) (size 9 to 14) (size 15 to 20)
#    0.000    1.714    1.429    1.714   10.000    2.286 
#    0.000   11.429    0.000    0.000    0.000    0.000 
#    0.000    0.000    0.000    0.000    0.000    0.000 
#
# Total GULP energy -312390.673377 kJ/mol
# GULP energy per Si atom -5578.404882 kJ/mol
# Density = 1.988170 g / cm^3
# Si number density = 19.927059 Si / 1000 Ang^3
#
#
#
# Elastic Constant Matrix: (Units=GPa)
#
#
# Indices 1 2 3 4 5 6 
#
# 1 77.2931 34.5547 29.5081 0.0000 0.0000 0.0000
# 2 34.5547 99.8046 24.6325 0.0000 0.0000 0.0000
# 3 29.5081 24.6325 115.8260 0.0000 0.0000 0.0000
# 4 0.0000 0.0000 0.0000 28.6821 0.0000 0.0000
# 5 0.0000 0.0000 0.0000 0.0000 14.2570 0.0000
# 6 0.0000 0.0000 0.0000 0.0000 0.0000 12.0964
#
#
#
# Elastic Compliance Matrix: (Units=1/GPa)
#
#
# Indices 1 2 3 4 5 6 
#
# 1 0.016308 -0.004877 -0.003118 0.000000 0.000000 0.000000
# 2 -0.004877 0.012033 -0.001317 0.000000 0.000000 0.000000
# 3 -0.003118 -0.001317 0.009708 0.000000 0.000000 0.000000
# 4 0.000000 0.000000 0.000000 0.034865 0.000000 0.000000
# 5 0.000000 0.000000 0.000000 0.000000 0.070141 0.000000
# 6 0.000000 0.000000 0.000000 0.000000 0.000000 0.082669
#
#
# Mechanical properties :
#
#
# Convention : Reuss Voigt Hill
#
# Bulk Modulus (GPa) = 51.47461 52.25716 51.86588
# Shear Modulus (GPa) = 19.93447 24.62233 22.27840
#
# Velocity S-wave (km/s) = 3.16630 3.51896 3.34727
# Velocity P-wave (km/s) = 6.26537 6.54155 6.40495
#
# Compressibility (1/GPa) = 0.01942705
#
# Stress axis : x y z
#
# Youngs Moduli (GPa) = 61.31890 83.10482 103.00906
#
# Poissons Ratio (x) = 0.40529 0.32114
# Poissons Ratio (y) = 0.29904 0.13562
# Poissons Ratio (z) = 0.19117 0.10942
#
# Static dielectric constant tensor:
#      x y z
#    x 2.329840 0.000000 0.000000 
#    y 0.000000 1.698760 0.000000 
#    z 0.000000 0.000000 0.922730 
# 
# From -- ./inp_files/19851.got.cif
#   From: 2010.05.17/outbox.cif.g08.bks.cpg/sg73_10_cif.got.tgz:19851.got - 2010.06.03 17:35:07.
