data_PCOD9531375
_publ_section_title
;
Structure prediction by ZEFSAII (Michael W. Deem and Ramdas Pophale) SiO2 
 PCOD9531375
Probable space group: I B C A 
;
_chemical_formula_sum "Si O2"
_cell_formula_units_Z 96
_cell_length_a 7.781971
_cell_length_b 19.923365
_cell_length_c 27.972931
_cell_angle_alpha 90.000000
_cell_angle_beta 90.000000
_cell_angle_gamma 90.000000
_cell_volume 4337.008502
_symmetry_space_group_name_H-M "I B C A "
_symmetry_group_IT_number 73
_symmetry_cell_setting 'orthorhombic'
loop_
_space_group_symop_operation_xyz
x,y,z
-x,1/2-y,z
x,-y,1/2-z
1/2-x,y,-z
-x,-y,-z
x,1/2+y,-z
-x,y,1/2+z
1/2+x,-y,z
1/2+x,1/2+y,1/2+z
1/2-x,-y,1/2+z
1/2+x,1/2-y,-z
-x,1/2+y,1/2-z
1/2-x,1/2-y,1/2-z
1/2+x,y,1/2-z
1/2-x,1/2+y,z
x,1/2-y,1/2+z
loop_
_atom_site_type_symbol
_atom_site_label
_atom_site_fract_x
_atom_site_fract_y
_atom_site_fract_z
Si Si1 0.133030 0.527092 0.961107
Si Si2 0.775608 0.674527 0.808764
Si Si3 0.159767 0.392523 0.907158
Si Si4 0.256535 0.874271 0.393934
Si Si5 0.204104 0.745293 0.553432
Si Si6 0.184257 0.171690 0.201867
O O1 0.209256 0.462587 0.932397
O O2 0.113374 0.579481 0.918496
O O3 0.250000 0.565554 0.000000
O O4 0.000000 0.500000 0.000000
O O5 0.705715 0.630002 0.852720
O O6 0.731304 0.754676 0.808300
O O7 0.713067 0.651680 0.756538
O O8 0.981762 0.673892 0.808459
O O9 0.244442 0.331968 0.937032
O O10 0.950412 0.392005 0.910563
O O11 0.216166 0.798274 0.410114
O O12 0.259326 0.878405 0.337130
O O13 0.250000 0.764502 0.500000
O O14 0.000000 0.750000 0.560473
#
# Coordination Sequence:
#
# PCOD9531375 Si02
#       6
#    16  16  16  16  16  16
#     4  12  26  45  65  92 132 184 221 265 327 397
#     4  10  21  38  64  97 131 169 211 268 332 391
#     4  11  23  41  63  94 126 172 218 268 328 387
#     4  11  23  41  64  92 129 171 217 269 327 388
#     4  10  22  37  60  90 126 163 214 275 320 375
#     4  10  21  38  64  97 132 168 211 268 331 391
#
# _framework density 22.135073999999999
#
# number of rings (size 3 to 8) (size 9 to 14) (size 15 to 20)
#    0.000    1.333    3.333    2.000    4.667    2.667 
#    0.000    0.833    0.000    4.000    0.000    0.000 
#    0.000    0.000    0.000    0.000    0.000    0.000 
#
# Total GULP energy -267647.926382 kJ/mol
# GULP energy per Si atom -5575.998466 kJ/mol
# Density = 2.208469 g / cm^3
# Si number density = 22.135074 Si / 1000 Ang^3
#
#
#
# Elastic Constant Matrix: (Units=GPa)
#
#
# Indices 1 2 3 4 5 6 
#
# 1 48.1732 7.8960 10.0951 0.0000 0.0000 0.0000
# 2 7.8960 95.7612 48.0443 0.0000 0.0000 0.0000
# 3 10.0951 48.0443 185.3628 0.0000 0.0000 0.0000
# 4 0.0000 0.0000 0.0000 38.3090 0.0000 0.0000
# 5 0.0000 0.0000 0.0000 0.0000 35.9937 0.0000
# 6 0.0000 0.0000 0.0000 0.0000 0.0000 19.8872
#
#
#
# Elastic Compliance Matrix: (Units=1/GPa)
#
#
# Indices 1 2 3 4 5 6 
#
# 1 0.021147 -0.001340 -0.000804 0.000000 0.000000 0.000000
# 2 -0.001340 0.012088 -0.003060 0.000000 0.000000 0.000000
# 3 -0.000804 -0.003060 0.006232 0.000000 0.000000 0.000000
# 4 0.000000 0.000000 0.000000 0.026104 0.000000 0.000000
# 5 0.000000 0.000000 0.000000 0.000000 0.027783 0.000000
# 6 0.000000 0.000000 0.000000 0.000000 0.000000 0.050283
#
#
# Mechanical properties :
#
#
# Convention : Reuss Voigt Hill
#
# Bulk Modulus (GPa) = 34.41441 51.26311 42.83876
# Shear Modulus (GPa) = 30.53774 36.38878 33.46326
#
# Velocity S-wave (km/s) = 3.71834 4.05895 3.89237
# Velocity P-wave (km/s) = 5.83232 6.72133 6.29254
#
# Compressibility (1/GPa) = 0.02905760
#
# Stress axis : x y z
#
# Youngs Moduli (GPa) = 47.28879 82.72335 160.46694
#
# Poissons Ratio (x) = 0.11086 0.12907
# Poissons Ratio (y) = 0.06337 0.49107
# Poissons Ratio (z) = 0.03804 0.25315
#
# Static dielectric constant tensor:
#      x y z
#    x 1.954390 0.000000 0.000000 
#    y 0.000000 1.889810 0.000000 
#    z 0.000000 0.000000 1.779540 
# 
# From -- ./inp_files/7828.got.cif
#   From: 2010.05.17/outbox.cif.g08.bks.cpg/sg73_4_cif.got.tgz:7828.got - 2010.06.03 17:35:07.
