data_PCOD9531983
_publ_section_title
;
Structure prediction by ZEFSAII (Michael W. Deem and Ramdas Pophale) SiO2 
 PCOD9531983
Probable space group: I B C A 
;
_chemical_formula_sum "Si O2"
_cell_formula_units_Z 40
_cell_length_a 7.750347
_cell_length_b 11.742420
_cell_length_c 17.194932
_cell_angle_alpha 90.000000
_cell_angle_beta 90.000000
_cell_angle_gamma 90.000000
_cell_volume 1564.873442
_symmetry_space_group_name_H-M "I B C A "
_symmetry_group_IT_number 73
_symmetry_cell_setting 'orthorhombic'
loop_
_space_group_symop_operation_xyz
x,y,z
-x,1/2-y,z
x,-y,1/2-z
1/2-x,y,-z
-x,-y,-z
x,1/2+y,-z
-x,y,1/2+z
1/2+x,-y,z
1/2+x,1/2+y,1/2+z
1/2-x,-y,1/2+z
1/2+x,1/2-y,-z
-x,1/2+y,1/2-z
1/2-x,1/2-y,1/2-z
1/2+x,y,1/2-z
1/2-x,1/2+y,z
x,1/2-y,1/2+z
loop_
_atom_site_type_symbol
_atom_site_label
_atom_site_fract_x
_atom_site_fract_y
_atom_site_fract_z
Si Si1 0.000000 0.250000 0.708399
Si Si2 0.380694 0.573645 0.941308
Si Si3 0.685130 0.615712 0.841302
O O1 0.845591 0.300010 0.658841
O O2 0.911008 0.146806 0.758861
O O3 0.527340 0.638523 0.896937
O O4 0.273709 0.500609 0.875569
O O5 0.250000 0.634201 0.000000
O O6 0.500000 0.500000 0.000000
#
# Coordination Sequence:
#
# PCOD9531983 Si02
#       3
#     8  16  16
#     4  10  24  40  60  98 132 166 202 266 340 380
#     4   9  20  40  64  88 117 169 221 259 302 374
#     4  10  22  40  62  92 130 165 215 263 320 384
#
# _framework density 25.561171000000002
#
# number of rings (size 3 to 8) (size 9 to 14) (size 15 to 20)
#    0.000    2.400    0.000    0.000    0.000   17.600 
#    0.000   24.000    0.000    0.000    0.000    0.000 
#    0.000    0.000    0.000    0.000    0.000    0.000 
#
# Total GULP energy -111370.790040 kJ/mol
# GULP energy per Si atom -5568.539502 kJ/mol
# Density = 2.550299 g / cm^3
# Si number density = 25.561171 Si / 1000 Ang^3
#
#
#
# Elastic Constant Matrix: (Units=GPa)
#
#
# Indices 1 2 3 4 5 6 
#
# 1 263.0147 64.6127 94.6447 0.0000 0.0000 0.0000
# 2 64.6127 71.4724 67.9654 0.0000 0.0000 0.0000
# 3 94.6447 67.9654 122.4978 0.0000 0.0000 0.0000
# 4 0.0000 0.0000 0.0000 55.8446 0.0000 0.0000
# 5 0.0000 0.0000 0.0000 0.0000 78.9262 0.0000
# 6 0.0000 0.0000 0.0000 0.0000 0.0000 32.5355
#
#
#
# Elastic Compliance Matrix: (Units=1/GPa)
#
#
# Indices 1 2 3 4 5 6 
#
# 1 0.005389 -0.001932 -0.003092 0.000000 0.000000 0.000000
# 2 -0.001932 0.030310 -0.015325 0.000000 0.000000 0.000000
# 3 -0.003092 -0.015325 0.019055 0.000000 0.000000 0.000000
# 4 0.000000 0.000000 0.000000 0.017907 0.000000 0.000000
# 5 0.000000 0.000000 0.000000 0.000000 0.012670 0.000000
# 6 0.000000 0.000000 0.000000 0.000000 0.000000 0.030736
#
#
# Mechanical properties :
#
#
# Convention : Reuss Voigt Hill
#
# Bulk Modulus (GPa) = 71.13478 101.27006 86.20242
# Shear Modulus (GPa) = 30.96925 48.77871 39.87398
#
# Velocity S-wave (km/s) = 3.48454 4.37316 3.95390
# Velocity P-wave (km/s) = 6.63920 8.07491 7.39199
#
# Compressibility (1/GPa) = 0.01405782
#
# Stress axis : x y z
#
# Youngs Moduli (GPa) = 185.55281 32.99194 52.47920
#
# Poissons Ratio (x) = 0.06373 0.16228
# Poissons Ratio (y) = 0.35841 0.80423
# Poissons Ratio (z) = 0.57377 0.50559
#
# Static dielectric constant tensor:
#      x y z
#    x 1.791880 0.000000 0.000000 
#    y 0.000000 2.112880 0.000000 
#    z 0.000000 0.000000 2.223680 
# 
# From -- ./inp_files/3652.got.cif
#   From: 2010.05.17/outbox.cif.g08.bks.cpg/sg73_2_cif.got.tgz:3652.got - 2010.06.03 17:35:07.
