data_PCOD9531311
_publ_section_title
;
Structure prediction by ZEFSAII (Michael W. Deem and Ramdas Pophale) SiO2 
 PCOD9531311
Probable space group: I B C A 
;
_chemical_formula_sum "Si O2"
_cell_formula_units_Z 64
_cell_length_a 35.290699
_cell_length_b 5.129695
_cell_length_c 13.996793
_cell_angle_alpha 90.000000
_cell_angle_beta 90.000000
_cell_angle_gamma 90.000000
_cell_volume 2533.846746
_symmetry_space_group_name_H-M "I B C A "
_symmetry_group_IT_number 73
_symmetry_cell_setting 'orthorhombic'
loop_
_space_group_symop_operation_xyz
x,y,z
-x,1/2-y,z
x,-y,1/2-z
1/2-x,y,-z
-x,-y,-z
x,1/2+y,-z
-x,y,1/2+z
1/2+x,-y,z
1/2+x,1/2+y,1/2+z
1/2-x,-y,1/2+z
1/2+x,1/2-y,-z
-x,1/2+y,1/2-z
1/2-x,1/2-y,1/2-z
1/2+x,y,1/2-z
1/2-x,1/2+y,z
x,1/2-y,1/2+z
loop_
_atom_site_type_symbol
_atom_site_label
_atom_site_fract_x
_atom_site_fract_y
_atom_site_fract_z
Si Si1 0.458461 0.223188 0.435745
Si Si2 0.117440 0.545398 0.861603
Si Si3 0.655517 0.454555 0.135509
Si Si4 0.734880 0.826738 0.392185
O O1 0.500000 0.250000 0.389014
O O2 0.457024 0.430859 0.523466
O O3 0.423016 0.316401 0.373688
O O4 0.124530 0.500000 0.750000
O O5 0.123345 0.251451 0.898262
O O6 0.147513 0.755040 0.902176
O O7 0.654592 0.500000 0.250000
O O8 0.694613 0.313050 0.110960
O O9 0.750000 0.875635 0.500000
O O10 0.763582 0.614325 0.347890
#
# Coordination Sequence:
#
# PCOD9531311 Si02
#       4
#    16  16  16  16
#     4  10  21  40  61  90 127 161 198 244 298 353
#     4  10  21  40  61  90 122 156 204 247 295 361
#     4  10  21  38  60  83 116 156 197 248 303 358
#     4  10  21  38  53  79 115 148 191 252 295 360
#
# _framework density 25.258036000000001
#
# number of rings (size 3 to 8) (size 9 to 14) (size 15 to 20)
#    0.000    2.000    0.000    3.000    0.000    1.000 
#   27.000    7.500    0.000    0.000    0.000    0.000 
#    0.000    0.000    0.000    0.000    0.000    0.000 
#
# Total GULP energy -178794.210073 kJ/mol
# GULP energy per Si atom -5587.319065 kJ/mol
# Density = 2.520055 g / cm^3
# Si number density = 25.258036 Si / 1000 Ang^3
#
#
#
# Elastic Constant Matrix: (Units=GPa)
#
#
# Indices 1 2 3 4 5 6 
#
# 1 131.1652 53.6241 -24.5291 0.0000 0.0000 0.0000
# 2 53.6241 146.1557 2.8873 0.0000 0.0000 0.0000
# 3 -24.5291 2.8873 61.3147 0.0000 0.0000 0.0000
# 4 0.0000 0.0000 0.0000 17.2537 0.0000 0.0000
# 5 0.0000 0.0000 0.0000 0.0000 28.4339 0.0000
# 6 0.0000 0.0000 0.0000 0.0000 0.0000 41.7038
#
#
#
# Elastic Compliance Matrix: (Units=1/GPa)
#
#
# Indices 1 2 3 4 5 6 
#
# 1 0.009920 -0.003722 0.004144 0.000000 0.000000 0.000000
# 2 -0.003722 0.008245 -0.001877 0.000000 0.000000 0.000000
# 3 0.004144 -0.001877 0.018055 0.000000 0.000000 0.000000
# 4 0.000000 0.000000 0.000000 0.057959 0.000000 0.000000
# 5 0.000000 0.000000 0.000000 0.000000 0.035169 0.000000
# 6 0.000000 0.000000 0.000000 0.000000 0.000000 0.023979
#
#
# Mechanical properties :
#
#
# Convention : Reuss Voigt Hill
#
# Bulk Modulus (GPa) = 30.02016 44.73334 37.37675
# Shear Modulus (GPa) = 29.87926 37.92185 33.90056
#
# Velocity S-wave (km/s) = 3.44315 3.87897 3.66754
# Velocity P-wave (km/s) = 5.26481 6.14905 5.72403
#
# Compressibility (1/GPa) = 0.03331095
#
# Stress axis : x y z
#
# Youngs Moduli (GPa) = 100.80196 121.29214 55.38481
#
# Poissons Ratio (x) = 0.45141 -0.22951
# Poissons Ratio (y) = 0.37515 0.10396
# Poissons Ratio (z) = -0.41772 0.22768
#
# Static dielectric constant tensor:
#      x y z
#    x 2.037660 0.000000 0.000000 
#    y 0.000000 2.054750 0.000000 
#    z 0.000000 0.000000 2.095240 
# 
# From -- ./inp_files/1133.got.cif
#   From: 2010.05.17/outbox.cif.g08.bks.cpg/sg73_1_cif.got.tgz:1133.got - 2010.06.03 17:35:07.
