data_PCOD9531798
_publ_section_title
;
Structure prediction by ZEFSAII (Michael W. Deem and Ramdas Pophale) SiO2 
 PCOD9531798
Probable space group: I B C A 
;
_chemical_formula_sum "Si O2"
_cell_formula_units_Z 96
_cell_length_a 15.162754
_cell_length_b 11.248857
_cell_length_c 25.400836
_cell_angle_alpha 90.000000
_cell_angle_beta 90.000000
_cell_angle_gamma 90.000000
_cell_volume 4332.459339
_symmetry_space_group_name_H-M "I B C A "
_symmetry_group_IT_number 73
_symmetry_cell_setting 'orthorhombic'
loop_
_space_group_symop_operation_xyz
x,y,z
-x,1/2-y,z
x,-y,1/2-z
1/2-x,y,-z
-x,-y,-z
x,1/2+y,-z
-x,y,1/2+z
1/2+x,-y,z
1/2+x,1/2+y,1/2+z
1/2-x,-y,1/2+z
1/2+x,1/2-y,-z
-x,1/2+y,1/2-z
1/2-x,1/2-y,1/2-z
1/2+x,y,1/2-z
1/2-x,1/2+y,z
x,1/2-y,1/2+z
loop_
_atom_site_type_symbol
_atom_site_label
_atom_site_fract_x
_atom_site_fract_y
_atom_site_fract_z
Si Si1 0.000000 0.250000 0.021485
Si Si2 0.000000 0.750000 0.290763
Si Si3 0.910961 0.636531 0.879171
Si Si4 0.727109 0.538097 0.401012
Si Si5 0.056433 0.500000 0.750000
Si Si6 0.415298 0.475399 0.133289
Si Si7 0.619834 0.752578 0.931059
Si Si8 0.750000 0.907862 0.500000
O O1 0.068164 0.309558 0.062946
O O2 0.060212 0.185140 0.976880
O O3 0.920847 0.766463 0.333076
O O4 0.994068 0.626141 0.259580
O O5 0.820120 0.568174 0.870081
O O6 0.992165 0.543638 0.872921
O O7 0.831703 0.539627 0.394023
O O8 0.675225 0.659404 0.394572
O O9 0.703899 0.497037 0.460040
O O10 0.105916 0.475562 0.804673
O O11 0.424979 0.346278 0.106473
O O12 0.688341 0.675034 0.965216
#
# Coordination Sequence:
#
# PCOD9531798 Si02
#       8
#     8   8  16  16   8  16  16   8
#     4  11  22  35  62  90 128 175 208 255 324 396
#     4   9  22  41  74  98 128 175 222 279 340 396
#     4  10  22  41  61  93 133 170 215 264 330 397
#     4  11  23  40  60  90 135 170 219 272 320 398
#     4  10  22  48  72  98 134 172 224 288 344 386
#     4  10  25  42  64  93 127 169 221 279 329 392
#     4  11  23  35  59  91 124 172 219 261 318 400
#     4  10  22  36  52  88 124 174 208 262 322 382
#
# _framework density 22.158315000000002
#
# number of rings (size 3 to 8) (size 9 to 14) (size 15 to 20)
#    0.000    1.667    1.667    1.500    7.000    8.667 
#    0.000    6.667    0.000    0.000    0.000    0.000 
#    0.000    0.000    0.000    0.000    0.000    0.000 
#
# Total GULP energy -267253.465849 kJ/mol
# GULP energy per Si atom -5567.780539 kJ/mol
# Density = 2.210788 g / cm^3
# Si number density = 22.158315 Si / 1000 Ang^3
#
#
#
# Elastic Constant Matrix: (Units=GPa)
#
#
# Indices 1 2 3 4 5 6 
#
# 1 43.3530 5.6454 -7.1387 0.0000 0.0000 0.0000
# 2 5.6454 89.3875 25.1640 0.0000 0.0000 0.0000
# 3 -7.1387 25.1640 87.5395 0.0000 0.0000 0.0000
# 4 0.0000 0.0000 0.0000 28.8905 0.0000 0.0000
# 5 0.0000 0.0000 0.0000 0.0000 0.5873 0.0000
# 6 0.0000 0.0000 0.0000 0.0000 0.0000 29.5546
#
#
#
# Elastic Compliance Matrix: (Units=1/GPa)
#
#
# Indices 1 2 3 4 5 6 
#
# 1 0.023781 -0.002228 0.002580 0.000000 0.000000 0.000000
# 2 -0.002228 0.012381 -0.003741 0.000000 0.000000 0.000000
# 3 0.002580 -0.003741 0.012709 0.000000 0.000000 0.000000
# 4 0.000000 0.000000 0.000000 0.034613 0.000000 0.000000
# 5 0.000000 0.000000 0.000000 0.000000 1.702764 0.000000
# 6 0.000000 0.000000 0.000000 0.000000 0.000000 0.033836
#
#
# Mechanical properties :
#
#
# Convention : Reuss Voigt Hill
#
# Bulk Modulus (GPa) = 23.75672 29.73571 26.74622
# Shear Modulus (GPa) = 2.71607 24.91376 13.81492
#
# Velocity S-wave (km/s) = 1.10834 3.35677 2.49964
# Velocity P-wave (km/s) = 3.51888 5.33598 4.51969
#
# Compressibility (1/GPa) = 0.04209335
#
# Stress axis : x y z
#
# Youngs Moduli (GPa) = 42.04961 80.76860 78.68378
#
# Poissons Ratio (x) = 0.17997 -0.20299
# Poissons Ratio (y) = 0.09370 0.29434
# Poissons Ratio (z) = -0.10848 0.30213
#
# Static dielectric constant tensor:
#      x y z
#    x 1.913310 0.000000 0.000000 
#    y 0.000000 1.899510 0.000000 
#    z 0.000000 0.000000 1.847800 
# 
# From -- ./inp_files/12081.got.cif
#   From: 2010.05.17/outbox.cif.g08.bks.cpg/sg73_7_cif.got.tgz:12081.got - 2010.06.03 17:35:07.
