data_PCOD9531389
_publ_section_title
;
Structure prediction by ZEFSAII (Michael W. Deem and Ramdas Pophale) SiO2 
 PCOD9531389
Probable space group: I B C A 
;
_chemical_formula_sum "Si O2"
_cell_formula_units_Z 80
_cell_length_a 19.490444
_cell_length_b 12.930601
_cell_length_c 14.487990
_cell_angle_alpha 90.000000
_cell_angle_beta 90.000000
_cell_angle_gamma 90.000000
_cell_volume 3651.308945
_symmetry_space_group_name_H-M "I B C A "
_symmetry_group_IT_number 73
_symmetry_cell_setting 'orthorhombic'
loop_
_space_group_symop_operation_xyz
x,y,z
-x,1/2-y,z
x,-y,1/2-z
1/2-x,y,-z
-x,-y,-z
x,1/2+y,-z
-x,y,1/2+z
1/2+x,-y,z
1/2+x,1/2+y,1/2+z
1/2-x,-y,1/2+z
1/2+x,1/2-y,-z
-x,1/2+y,1/2-z
1/2-x,1/2-y,1/2-z
1/2+x,y,1/2-z
1/2-x,1/2+y,z
x,1/2-y,1/2+z
loop_
_atom_site_type_symbol
_atom_site_label
_atom_site_fract_x
_atom_site_fract_y
_atom_site_fract_z
Si Si1 0.567451 0.512496 0.638574
Si Si2 0.656616 0.195526 0.680253
Si Si3 0.803230 0.393387 0.194545
Si Si4 0.075234 0.300009 0.974579
Si Si5 0.946350 0.342066 0.668213
O O1 0.568151 0.500000 0.750000
O O2 0.635899 0.580457 0.622683
O O3 0.571259 0.407678 0.581462
O O4 0.495743 0.570321 0.626129
O O5 0.670750 0.301666 0.737944
O O6 0.728587 0.140986 0.661995
O O7 0.621826 0.225484 0.585300
O O8 0.601835 0.135227 0.744967
O O9 0.792184 0.500000 0.250000
O O10 0.000000 0.250000 0.979783
O O11 0.099301 0.312572 0.079829
O O12 0.000000 0.250000 0.695301
#
# Coordination Sequence:
#
# PCOD9531389 Si02
#       5
#    16  16  16  16  16
#     4  11  19  39  66  91 127 169 205 263 329 373
#     4  11  21  40  65  88 125 170 211 254 319 377
#     4  10  21  38  66  87 122 172 209 251 319 378
#     4  11  23  38  65  97 128 162 216 269 315 379
#     4  11  22  38  65  97 127 162 214 268 317 373
#
# _framework density 21.909952000000001
#
# number of rings (size 3 to 8) (size 9 to 14) (size 15 to 20)
#    0.000    1.200    6.000    2.400    0.000    2.400 
#    0.000    4.000    4.400    0.000    0.000    0.000 
#    0.000    0.000    0.000    0.000    0.000    0.000 
#
# Total GULP energy -223498.814883 kJ/mol
# GULP energy per Si atom -5587.470372 kJ/mol
# Density = 2.186008 g / cm^3
# Si number density = 21.909952 Si / 1000 Ang^3
#
#
#
# Elastic Constant Matrix: (Units=GPa)
#
#
# Indices 1 2 3 4 5 6 
#
# 1 105.5800 19.6584 38.6376 0.0000 0.0000 0.0000
# 2 19.6584 79.7872 5.8007 0.0000 0.0000 0.0000
# 3 38.6376 5.8007 90.3214 0.0000 0.0000 0.0000
# 4 0.0000 0.0000 0.0000 17.4876 0.0000 0.0000
# 5 0.0000 0.0000 0.0000 0.0000 -22.8853 0.0000
# 6 0.0000 0.0000 0.0000 0.0000 0.0000 33.0908
#
#
#
# Elastic Compliance Matrix: (Units=1/GPa)
#
#
# Indices 1 2 3 4 5 6 
#
# 1 0.011718 -0.002535 -0.004850 0.000000 0.000000 0.000000
# 2 -0.002535 0.013140 0.000240 0.000000 0.000000 0.000000
# 3 -0.004850 0.000240 0.013131 0.000000 0.000000 0.000000
# 4 0.000000 0.000000 0.000000 0.057183 0.000000 0.000000
# 5 0.000000 0.000000 0.000000 0.000000 -0.043696 0.000000
# 6 0.000000 0.000000 0.000000 0.000000 0.000000 0.030220
#
#
# Mechanical properties :
#
#
# Convention : Reuss Voigt Hill
#
# Bulk Modulus (GPa) = 42.19252 44.87579 43.53415
# Shear Modulus (GPa) = 48.12988 19.64476 33.88732
#
# Velocity S-wave (km/s) = 4.69200 2.99760 3.93703
# Velocity P-wave (km/s) = 6.97511 5.70151 6.37022
#
# Compressibility (1/GPa) = 0.02370089
#
# Stress axis : x y z
#
# Youngs Moduli (GPa) = 85.33639 76.10147 76.15627
#
# Poissons Ratio (x) = 0.19289 0.36936
# Poissons Ratio (y) = 0.21630 -0.01830
# Poissons Ratio (z) = 0.41389 -0.01829
#
# Static dielectric constant tensor:
#      x y z
#    x 1.851890 0.000000 0.000000 
#    y 0.000000 1.875380 0.000000 
#    z 0.000000 0.000000 1.789230 
# 
# From -- ./inp_files/18521.got.cif
#   From: 2010.05.17/outbox.cif.g08.bks.cpg/sg73_10_cif.got.tgz:18521.got - 2010.06.03 17:35:07.
