data_PCOD9531046
_publ_section_title
;
Structure prediction by ZEFSAII (Michael W. Deem and Ramdas Pophale) SiO2 
 PCOD9531046
Probable space group: I B C A 
;
_chemical_formula_sum "Si O2"
_cell_formula_units_Z 104
_cell_length_a 18.473747
_cell_length_b 16.774095
_cell_length_c 17.693979
_cell_angle_alpha 90.000000
_cell_angle_beta 90.000000
_cell_angle_gamma 90.000000
_cell_volume 5483.017063
_symmetry_space_group_name_H-M "I B C A "
_symmetry_group_IT_number 73
_symmetry_cell_setting 'orthorhombic'
loop_
_space_group_symop_operation_xyz
x,y,z
-x,1/2-y,z
x,-y,1/2-z
1/2-x,y,-z
-x,-y,-z
x,1/2+y,-z
-x,y,1/2+z
1/2+x,-y,z
1/2+x,1/2+y,1/2+z
1/2-x,-y,1/2+z
1/2+x,1/2-y,-z
-x,1/2+y,1/2-z
1/2-x,1/2-y,1/2-z
1/2+x,y,1/2-z
1/2-x,1/2+y,z
x,1/2-y,1/2+z
loop_
_atom_site_type_symbol
_atom_site_label
_atom_site_fract_x
_atom_site_fract_y
_atom_site_fract_z
Si Si1 0.564259 0.317984 0.738745
Si Si2 0.511588 0.000000 0.250000
Si Si3 0.319922 0.324097 0.958411
Si Si4 0.791635 0.712601 0.321337
Si Si5 0.914447 0.759557 0.084680
Si Si6 0.835839 0.397006 0.829063
Si Si7 0.115949 0.066083 0.661953
O O1 0.500000 0.250000 0.749033
O O2 0.546612 0.412758 0.736329
O O3 0.625427 0.303662 0.801102
O O4 0.597486 0.296323 0.657591
O O5 0.460431 0.023641 0.321073
O O6 0.286879 0.268955 0.893080
O O7 0.373536 0.381473 0.911605
O O8 0.250000 0.361979 0.000000
O O9 0.365902 0.271047 0.016350
O O10 0.750000 0.750000 0.250000
O O11 0.744502 0.635278 0.337388
O O12 0.888850 0.845898 0.116577
O O13 0.000000 0.750000 0.067037
O O14 0.864082 0.389678 0.741386
O O15 0.833005 0.490040 0.845483
#
# Coordination Sequence:
#
# PCOD9531046 Si02
#       7
#    16   8  16  16  16  16  16
#     4  11  22  41  68  94 129 168 216 275 328 389
#     4  10  22  40  66 100 122 162 228 288 326 384
#     4  12  23  39  60  91 130 172 215 263 324 412
#     4  12  21  40  67  94 121 161 224 266 320 384
#     4  11  22  40  63  89 128 171 206 253 331 397
#     4  10  20  41  66  90 118 166 209 267 319 382
#     4  10  21  39  65  88 126 165 213 263 333 375
#
# _framework density 18.967659000000001
#
# number of rings (size 3 to 8) (size 9 to 14) (size 15 to 20)
#    0.000    1.231    4.615    4.615    0.000    3.077 
#    2.769    3.846    0.000    0.000    0.000    0.000 
#    0.000    0.000    0.000    0.000    0.000    0.000 
#
# Total GULP energy -289649.013031 kJ/mol
# GULP energy per Si atom -5570.173328 kJ/mol
# Density = 1.892449 g / cm^3
# Si number density = 18.967659 Si / 1000 Ang^3
#
#
#
# Elastic Constant Matrix: (Units=GPa)
#
#
# Indices 1 2 3 4 5 6 
#
# 1 78.8808 27.7862 33.7469 0.0000 0.0000 0.0000
# 2 27.7862 102.8881 31.4465 0.0000 0.0000 0.0000
# 3 33.7469 31.4465 84.7419 0.0000 0.0000 0.0000
# 4 0.0000 0.0000 0.0000 27.9483 0.0000 0.0000
# 5 0.0000 0.0000 0.0000 0.0000 26.7340 0.0000
# 6 0.0000 0.0000 0.0000 0.0000 0.0000 30.4038
#
#
#
# Elastic Compliance Matrix: (Units=1/GPa)
#
#
# Indices 1 2 3 4 5 6 
#
# 1 0.015901 -0.002661 -0.005345 0.000000 0.000000 0.000000
# 2 -0.002661 0.011408 -0.003174 0.000000 0.000000 0.000000
# 3 -0.005345 -0.003174 0.015107 0.000000 0.000000 0.000000
# 4 0.000000 0.000000 0.000000 0.035780 0.000000 0.000000
# 5 0.000000 0.000000 0.000000 0.000000 0.037406 0.000000
# 6 0.000000 0.000000 0.000000 0.000000 0.000000 0.032891
#
#
# Mechanical properties :
#
#
# Convention : Reuss Voigt Hill
#
# Bulk Modulus (GPa) = 49.85774 50.27443 50.06609
# Shear Modulus (GPa) = 28.16312 28.58598 28.37455
#
# Velocity S-wave (km/s) = 3.85749 3.88634 3.87194
# Velocity P-wave (km/s) = 6.79581 6.83382 6.81484
#
# Compressibility (1/GPa) = 0.02005707
#
# Stress axis : x y z
#
# Youngs Moduli (GPa) = 62.88786 87.65882 66.19526
#
# Poissons Ratio (x) = 0.23323 0.35382
# Poissons Ratio (y) = 0.16733 0.21009
# Poissons Ratio (z) = 0.33614 0.27821
#
# Static dielectric constant tensor:
#      x y z
#    x 1.755810 0.000000 0.000000 
#    y 0.000000 1.719700 0.000000 
#    z 0.000000 0.000000 1.653920 
# 
# From -- ./inp_files/22610.got.cif
#   From: 2010.05.17/outbox.cif.g08.bks.cpg/sg73_12_cif.got.tgz:22610.got - 2010.06.03 17:35:07.
