data_PCOD9531610
_publ_section_title
;
Structure prediction by ZEFSAII (Michael W. Deem and Ramdas Pophale) SiO2 
 PCOD9531610
Probable space group: I B C A 
;
_chemical_formula_sum "Si O2"
_cell_formula_units_Z 88
_cell_length_a 24.303229
_cell_length_b 13.999442
_cell_length_c 12.148228
_cell_angle_alpha 90.000000
_cell_angle_beta 90.000000
_cell_angle_gamma 90.000000
_cell_volume 4133.211594
_symmetry_space_group_name_H-M "I B C A "
_symmetry_group_IT_number 73
_symmetry_cell_setting 'orthorhombic'
loop_
_space_group_symop_operation_xyz
x,y,z
-x,1/2-y,z
x,-y,1/2-z
1/2-x,y,-z
-x,-y,-z
x,1/2+y,-z
-x,y,1/2+z
1/2+x,-y,z
1/2+x,1/2+y,1/2+z
1/2-x,-y,1/2+z
1/2+x,1/2-y,-z
-x,1/2+y,1/2-z
1/2-x,1/2-y,1/2-z
1/2+x,y,1/2-z
1/2-x,1/2+y,z
x,1/2-y,1/2+z
loop_
_atom_site_type_symbol
_atom_site_label
_atom_site_fract_x
_atom_site_fract_y
_atom_site_fract_z
Si Si1 0.190306 0.240873 0.808536
Si Si2 0.923900 0.485123 0.534085
Si Si3 0.319233 0.427273 0.832907
Si Si4 0.750000 0.198779 0.000000
Si Si5 0.400987 0.897544 0.799412
Si Si6 0.479277 0.643054 0.101213
O O1 0.250000 0.250000 0.750000
O O2 0.159264 0.154859 0.749424
O O3 0.206481 0.235219 0.936297
O O4 0.152455 0.332378 0.796874
O O5 0.867454 0.478727 0.600606
O O6 0.919610 0.418991 0.424072
O O7 0.940603 0.590638 0.490742
O O8 0.970869 0.433439 0.606044
O O9 0.289445 0.500000 0.750000
O O10 0.280967 0.372439 0.917997
O O11 0.447178 0.855527 0.717455
O O12 0.386594 0.000000 0.750000
O O13 0.500000 0.750000 0.074222
#
# Coordination Sequence:
#
# PCOD9531610 Si02
#       6
#    16  16  16   8  16  16
#     4  10  22  41  67  94 136 178 235 290 340 418
#     4  10  22  41  63  95 142 174 225 295 344 414
#     4  11  24  42  65 101 134 184 231 292 348 426
#     4  10  22  46  64  96 138 182 240 290 348 416
#     4  10  21  41  66  93 134 186 231 288 352 424
#     4  10  22  39  65  99 128 183 231 275 353 420
#
# _framework density 21.290948
#
# number of rings (size 3 to 8) (size 9 to 14) (size 15 to 20)
#    0.000    1.818    1.818    1.091    0.000    9.455 
#   13.091    0.000    0.000    0.000    0.000    0.000 
#    0.000    0.000    0.000    0.000    0.000    0.000 
#
# Total GULP energy -245458.683461 kJ/mol
# GULP energy per Si atom -5578.606442 kJ/mol
# Density = 2.124249 g / cm^3
# Si number density = 21.290948 Si / 1000 Ang^3
#
#
#
# Elastic Constant Matrix: (Units=GPa)
#
#
# Indices 1 2 3 4 5 6 
#
# 1 76.0945 30.4317 49.2568 0.0000 0.0000 0.0000
# 2 30.4317 105.7856 43.3744 0.0000 0.0000 0.0000
# 3 49.2568 43.3744 110.6596 0.0000 0.0000 0.0000
# 4 0.0000 0.0000 0.0000 26.4369 0.0000 0.0000
# 5 0.0000 0.0000 0.0000 0.0000 32.2281 0.0000
# 6 0.0000 0.0000 0.0000 0.0000 0.0000 26.4998
#
#
#
# Elastic Compliance Matrix: (Units=1/GPa)
#
#
# Indices 1 2 3 4 5 6 
#
# 1 0.018948 -0.002374 -0.007504 0.000000 0.000000 0.000000
# 2 -0.002374 0.011561 -0.003475 0.000000 0.000000 0.000000
# 3 -0.007504 -0.003475 0.013739 0.000000 0.000000 0.000000
# 4 0.000000 0.000000 0.000000 0.037826 0.000000 0.000000
# 5 0.000000 0.000000 0.000000 0.000000 0.031029 0.000000
# 6 0.000000 0.000000 0.000000 0.000000 0.000000 0.037736
#
#
# Mechanical properties :
#
#
# Convention : Reuss Voigt Hill
#
# Bulk Modulus (GPa) = 57.00360 59.85173 58.42767
# Shear Modulus (GPa) = 27.26415 28.33140 27.79777
#
# Velocity S-wave (km/s) = 3.58236 3.65180 3.61725
# Velocity P-wave (km/s) = 6.62894 6.77888 6.70433
#
# Compressibility (1/GPa) = 0.01754275
#
# Stress axis : x y z
#
# Youngs Moduli (GPa) = 52.77533 86.49970 72.78742
#
# Poissons Ratio (x) = 0.20537 0.54617
# Poissons Ratio (y) = 0.12530 0.25290
# Poissons Ratio (z) = 0.39601 0.30055
#
# Static dielectric constant tensor:
#      x y z
#    x 1.789270 0.000000 0.000000 
#    y 0.000000 1.790660 0.000000 
#    z 0.000000 0.000000 1.840970 
# 
# From -- ./inp_files/10977.got.cif
#   From: 2010.05.17/outbox.cif.g08.bks.cpg/sg73_6_cif.got.tgz:10977.got - 2010.06.03 17:35:07.
