data_PCOD9531978
_publ_section_title
;
Structure prediction by ZEFSAII (Michael W. Deem and Ramdas Pophale) SiO2 
 PCOD9531978
Probable space group: I B C A 
;
_chemical_formula_sum "Si O2"
_cell_formula_units_Z 120
_cell_length_a 13.411764
_cell_length_b 26.647260
_cell_length_c 17.596534
_cell_angle_alpha 90.000000
_cell_angle_beta 90.000000
_cell_angle_gamma 90.000000
_cell_volume 6288.768315
_symmetry_space_group_name_H-M "I B C A "
_symmetry_group_IT_number 73
_symmetry_cell_setting 'orthorhombic'
loop_
_space_group_symop_operation_xyz
x,y,z
-x,1/2-y,z
x,-y,1/2-z
1/2-x,y,-z
-x,-y,-z
x,1/2+y,-z
-x,y,1/2+z
1/2+x,-y,z
1/2+x,1/2+y,1/2+z
1/2-x,-y,1/2+z
1/2+x,1/2-y,-z
-x,1/2+y,1/2-z
1/2-x,1/2-y,1/2-z
1/2+x,y,1/2-z
1/2-x,1/2+y,z
x,1/2-y,1/2+z
loop_
_atom_site_type_symbol
_atom_site_label
_atom_site_fract_x
_atom_site_fract_y
_atom_site_fract_z
Si Si1 0.853524 0.388545 0.300430
Si Si2 0.954053 0.043829 0.685447
Si Si3 0.877820 0.873762 0.315592
Si Si4 0.000000 0.250000 0.945699
Si Si5 0.446941 0.423916 0.046015
Si Si6 0.007979 0.694586 0.200873
Si Si7 0.364830 0.824251 0.026690
Si Si8 0.135636 0.974774 0.483059
O O1 0.879134 0.416503 0.223248
O O2 0.736705 0.388909 0.311628
O O3 0.910761 0.417750 0.367726
O O4 0.900995 0.332981 0.300314
O O5 0.905983 0.030062 0.603834
O O6 0.054475 0.076601 0.673456
O O7 0.967571 0.000000 0.750000
O O8 0.919024 0.843798 0.242554
O O9 0.880991 0.834331 0.384787
O O10 0.962158 0.292156 0.885733
O O11 0.913613 0.226490 0.996127
O O12 0.381478 0.466014 0.002868
O O13 0.424590 0.370394 0.010370
O O14 0.559804 0.442704 0.034889
O O15 0.000000 0.750000 0.237732
O O16 0.250000 0.827727 0.000000
O O17 0.250000 0.961764 0.500000
#
# Coordination Sequence:
#
# PCOD9531978 Si02
#       8
#    16  16  16   8  16  16  16  16
#     4  11  22  41  65  90 127 171 207 261 317 378
#     4  11  24  43  60  96 133 164 222 263 307 381
#     4  11  24  39  66  92 121 172 208 262 314 382
#     4  10  22  40  62  90 126 158 208 274 312 384
#     4  11  21  41  64  89 128 166 212 255 305 389
#     4   9  21  42  59  88 124 159 199 261 319 371
#     4  12  22  41  66  93 123 166 217 258 325 383
#     4  11  25  40  65  96 129 173 208 265 320 367
#
# _framework density 19.081637000000001
#
# number of rings (size 3 to 8) (size 9 to 14) (size 15 to 20)
#    0.400    0.800    5.333    0.400    0.933    3.200 
#    0.000    0.667    0.000    0.000    0.000    0.000 
#    0.000    0.000    0.000    0.000    0.000    0.000 
#
# Total GULP energy -334476.534792 kJ/mol
# GULP energy per Si atom -5574.608913 kJ/mol
# Density = 1.903821 g / cm^3
# Si number density = 19.081637 Si / 1000 Ang^3
#
#
#
# Elastic Constant Matrix: (Units=GPa)
#
#
# Indices 1 2 3 4 5 6 
#
# 1 148.0026 54.8383 54.3514 0.0000 0.0000 0.0000
# 2 54.8383 92.3037 25.9642 0.0000 0.0000 0.0000
# 3 54.3514 25.9642 87.6246 0.0000 0.0000 0.0000
# 4 0.0000 0.0000 0.0000 7.3219 0.0000 0.0000
# 5 0.0000 0.0000 0.0000 0.0000 14.6957 0.0000
# 6 0.0000 0.0000 0.0000 0.0000 0.0000 11.5400
#
#
#
# Elastic Compliance Matrix: (Units=1/GPa)
#
#
# Indices 1 2 3 4 5 6 
#
# 1 0.010356 -0.004741 -0.005019 0.000000 0.000000 0.000000
# 2 -0.004741 0.013989 -0.001204 0.000000 0.000000 0.000000
# 3 -0.005019 -0.001204 0.014882 0.000000 0.000000 0.000000
# 4 0.000000 0.000000 0.000000 0.136576 0.000000 0.000000
# 5 0.000000 0.000000 0.000000 0.000000 0.068047 0.000000
# 6 0.000000 0.000000 0.000000 0.000000 0.000000 0.086655
#
#
# Mechanical properties :
#
#
# Convention : Reuss Voigt Hill
#
# Bulk Modulus (GPa) = 57.80639 66.47094 62.13867
# Shear Modulus (GPa) = 13.95862 19.56333 16.76097
#
# Velocity S-wave (km/s) = 2.70760 3.20542 2.96697
# Velocity P-wave (km/s) = 6.33520 6.97211 6.66127
#
# Compressibility (1/GPa) = 0.01729912
#
# Stress axis : x y z
#
# Youngs Moduli (GPa) = 96.55825 71.48331 67.19349
#
# Poissons Ratio (x) = 0.33890 0.33725
# Poissons Ratio (y) = 0.45779 0.08093
# Poissons Ratio (z) = 0.48463 0.08610
#
# Static dielectric constant tensor:
#      x y z
#    x 1.643080 0.000000 0.000000 
#    y 0.000000 1.679320 0.000000 
#    z 0.000000 0.000000 1.734510 
# 
# From -- ./inp_files/21578.got.cif
#   From: 2010.05.17/outbox.cif.g08.bks.cpg/sg73_11_cif.got.tgz:21578.got - 2010.06.03 17:35:07.
