data_PCOD9531639
_publ_section_title
;
Structure prediction by ZEFSAII (Michael W. Deem and Ramdas Pophale) SiO2 
 PCOD9531639
Probable space group: I B C A 
;
_chemical_formula_sum "Si O2"
_cell_formula_units_Z 104
_cell_length_a 28.883580
_cell_length_b 8.912051
_cell_length_c 21.327921
_cell_angle_alpha 90.000000
_cell_angle_beta 90.000000
_cell_angle_gamma 90.000000
_cell_volume 5490.061479
_symmetry_space_group_name_H-M "I B C A "
_symmetry_group_IT_number 73
_symmetry_cell_setting 'orthorhombic'
loop_
_space_group_symop_operation_xyz
x,y,z
-x,1/2-y,z
x,-y,1/2-z
1/2-x,y,-z
-x,-y,-z
x,1/2+y,-z
-x,y,1/2+z
1/2+x,-y,z
1/2+x,1/2+y,1/2+z
1/2-x,-y,1/2+z
1/2+x,1/2-y,-z
-x,1/2+y,1/2-z
1/2-x,1/2-y,1/2-z
1/2+x,y,1/2-z
1/2-x,1/2+y,z
x,1/2-y,1/2+z
loop_
_atom_site_type_symbol
_atom_site_label
_atom_site_fract_x
_atom_site_fract_y
_atom_site_fract_z
Si Si1 0.094652 0.384590 0.458999
Si Si2 0.399356 0.000000 0.750000
Si Si3 0.946740 0.213727 0.075671
Si Si4 0.750000 0.566608 0.000000
Si Si5 0.630032 0.750304 0.166298
Si Si6 0.944596 0.752222 0.666029
Si Si7 0.895988 0.000000 0.250000
Si Si8 0.684000 0.671491 0.540504
O O1 0.068263 0.320672 0.519077
O O2 0.073542 0.548453 0.442331
O O3 0.082711 0.279882 0.399163
O O4 0.147737 0.376549 0.484965
O O5 0.366921 0.120650 0.783223
O O6 0.429537 0.092967 0.699434
O O7 0.922535 0.249969 0.141132
O O8 0.000000 0.250000 0.083311
O O9 0.723098 0.455854 0.953014
O O10 0.789583 0.676299 0.975741
O O11 0.635243 0.590625 0.199971
O O12 0.658239 0.792868 0.104897
O O13 0.927678 0.619265 0.712668
O O14 0.000000 0.750000 0.655490
#
# Coordination Sequence:
#
# PCOD9531639 Si02
#       8
#    16   8  16   8  16  16   8  16
#     4  11  23  38  61  89 123 166 200 265 314 381
#     4  10  25  36  58  89 116 182 208 259 282 354
#     4  11  23  36  57  86 125 166 212 258 312 347
#     4  10  22  40  70 102 116 146 186 262 332 404
#     4  10  22  40  62  85 125 163 210 256 298 373
#     4  11  23  37  58  86 124 169 221 258 291 345
#     4  10  21  42  56  85 116 182 210 253 298 342
#     4  10  22  41  67  98 122 150 197 255 336 386
#
# _framework density 18.943321999999998
#
# number of rings (size 3 to 8) (size 9 to 14) (size 15 to 20)
#    0.000    1.538    1.538    3.231    8.615    2.462 
#    0.000    0.000    0.000    2.769    0.000    0.000 
#    0.000    0.000    0.000    0.000    0.000    0.000 
#
# Total GULP energy -289864.364257 kJ/mol
# GULP energy per Si atom -5574.314697 kJ/mol
# Density = 1.890021 g / cm^3
# Si number density = 18.943322 Si / 1000 Ang^3
#
#
#
# Elastic Constant Matrix: (Units=GPa)
#
#
# Indices 1 2 3 4 5 6 
#
# 1 93.7697 38.1331 26.0628 0.0000 0.0000 0.0000
# 2 38.1331 114.2981 23.9931 0.0000 0.0000 0.0000
# 3 26.0628 23.9931 74.0066 0.0000 0.0000 0.0000
# 4 0.0000 0.0000 0.0000 8.9781 0.0000 0.0000
# 5 0.0000 0.0000 0.0000 0.0000 -24.8456 0.0000
# 6 0.0000 0.0000 0.0000 0.0000 0.0000 19.8303
#
#
#
# Elastic Compliance Matrix: (Units=1/GPa)
#
#
# Indices 1 2 3 4 5 6 
#
# 1 0.013103 -0.003651 -0.003431 0.000000 0.000000 0.000000
# 2 -0.003651 0.010405 -0.002088 0.000000 0.000000 0.000000
# 3 -0.003431 -0.002088 0.015397 0.000000 0.000000 0.000000
# 4 0.000000 0.000000 0.000000 0.111382 0.000000 0.000000
# 5 0.000000 0.000000 0.000000 0.000000 -0.040249 0.000000
# 6 0.000000 0.000000 0.000000 0.000000 0.000000 0.050428
#
#
# Mechanical properties :
#
#
# Convention : Reuss Voigt Hill
#
# Bulk Modulus (GPa) = 48.62287 50.93915 49.78101
# Shear Modulus (GPa) = 26.93075 13.71827 20.32451
#
# Velocity S-wave (km/s) = 3.77457 2.69397 3.27909
# Velocity P-wave (km/s) = 6.68728 6.05188 6.37750
#
# Compressibility (1/GPa) = 0.02056645
#
# Stress axis : x y z
#
# Youngs Moduli (GPa) = 76.31944 96.10348 64.94659
#
# Poissons Ratio (x) = 0.35090 0.22281
# Poissons Ratio (y) = 0.27867 0.13558
# Poissons Ratio (z) = 0.26182 0.20062
#
# Static dielectric constant tensor:
#      x y z
#    x 1.684240 0.000000 0.000000 
#    y 0.000000 1.713190 0.000000 
#    z 0.000000 0.000000 1.685170 
# 
# From -- ./inp_files/25070.got.cif
#   From: 2010.05.17/outbox.cif.g08.bks.cpg/sg73_13_cif.got.tgz:25070.got - 2010.06.03 17:35:07.
