data_PCOD9531267
_publ_section_title
;
Structure prediction by ZEFSAII (Michael W. Deem and Ramdas Pophale) SiO2 
 PCOD9531267
Probable space group: I B C A 
;
_chemical_formula_sum "Si O2"
_cell_formula_units_Z 112
_cell_length_a 15.062946
_cell_length_b 13.861420
_cell_length_c 26.610319
_cell_angle_alpha 90.000000
_cell_angle_beta 90.000000
_cell_angle_gamma 90.000000
_cell_volume 5556.070181
_symmetry_space_group_name_H-M "I B C A "
_symmetry_group_IT_number 73
_symmetry_cell_setting 'orthorhombic'
loop_
_space_group_symop_operation_xyz
x,y,z
-x,1/2-y,z
x,-y,1/2-z
1/2-x,y,-z
-x,-y,-z
x,1/2+y,-z
-x,y,1/2+z
1/2+x,-y,z
1/2+x,1/2+y,1/2+z
1/2-x,-y,1/2+z
1/2+x,1/2-y,-z
-x,1/2+y,1/2-z
1/2-x,1/2-y,1/2-z
1/2+x,y,1/2-z
1/2-x,1/2+y,z
x,1/2-y,1/2+z
loop_
_atom_site_type_symbol
_atom_site_label
_atom_site_fract_x
_atom_site_fract_y
_atom_site_fract_z
Si Si1 0.269510 0.652307 0.053666
Si Si2 0.589132 0.311453 0.814180
Si Si3 0.257012 0.305662 0.858184
Si Si4 0.461984 0.002580 0.873062
Si Si5 0.844341 0.031192 0.080474
Si Si6 0.403107 0.514695 0.475909
Si Si7 0.928209 0.165457 0.801844
O O1 0.269962 0.732640 0.095508
O O2 0.195993 0.574986 0.072340
O O3 0.354425 0.585572 0.038999
O O4 0.250000 0.699165 0.000000
O O5 0.500000 0.250000 0.823450
O O6 0.669752 0.236841 0.820221
O O7 0.588139 0.401761 0.852812
O O8 0.589003 0.348946 0.757204
O O9 0.282897 0.408085 0.882403
O O10 0.162459 0.308675 0.831118
O O11 0.416832 0.944829 0.919970
O O12 0.467313 0.930236 0.826938
O O13 0.558581 0.031069 0.894371
O O14 0.851723 0.065794 0.021879
O O15 0.500000 0.500000 0.500000
O O16 0.000000 0.250000 0.807180
#
# Coordination Sequence:
#
# PCOD9531267 Si02
#       7
#    16  16  16  16  16  16  16
#     4  10  21  37  57  91 134 169 213 263 316 394
#     4  11  23  43  67  96 128 168 226 280 330 393
#     4  12  23  40  68  95 131 177 219 272 335 395
#     4  11  20  42  67  90 130 175 212 272 339 383
#     4  10  22  38  64  97 128 171 219 266 330 401
#     4   9  19  36  60  90 129 168 210 261 315 389
#     4  11  26  43  64  94 134 173 223 280 328 393
#
# _framework density 20.158131999999998
#
# number of rings (size 3 to 8) (size 9 to 14) (size 15 to 20)
#    0.000    1.429    2.857    2.571    0.000    2.857 
#    0.000    0.000    0.000    0.000    0.000    0.000 
#    0.000    0.000    0.000    0.000    0.000    0.000 
#
# Total GULP energy -312146.427364 kJ/mol
# GULP energy per Si atom -5574.043346 kJ/mol
# Density = 2.011225 g / cm^3
# Si number density = 20.158132 Si / 1000 Ang^3
#
#
#
# Elastic Constant Matrix: (Units=GPa)
#
#
# Indices 1 2 3 4 5 6 
#
# 1 96.7602 0.9896 26.5536 0.0000 0.0000 0.0000
# 2 0.9896 36.7823 29.2590 0.0000 0.0000 0.0000
# 3 26.5536 29.2590 138.0985 0.0000 0.0000 0.0000
# 4 0.0000 0.0000 0.0000 24.6752 0.0000 0.0000
# 5 0.0000 0.0000 0.0000 0.0000 25.6164 0.0000
# 6 0.0000 0.0000 0.0000 0.0000 0.0000 11.2242
#
#
#
# Elastic Compliance Matrix: (Units=1/GPa)
#
#
# Indices 1 2 3 4 5 6 
#
# 1 0.010995 0.001667 -0.002467 0.000000 0.000000 0.000000
# 2 0.001667 0.032950 -0.007302 0.000000 0.000000 0.000000
# 3 -0.002467 -0.007302 0.009263 0.000000 0.000000 0.000000
# 4 0.000000 0.000000 0.000000 0.040527 0.000000 0.000000
# 5 0.000000 0.000000 0.000000 0.000000 0.039038 0.000000
# 6 0.000000 0.000000 0.000000 0.000000 0.000000 0.089093
#
#
# Mechanical properties :
#
#
# Convention : Reuss Voigt Hill
#
# Bulk Modulus (GPa) = 27.02445 42.80507 34.91476
# Shear Modulus (GPa) = 19.96775 26.62574 23.29675
#
# Velocity S-wave (km/s) = 3.15072 3.63828 3.40325
# Velocity P-wave (km/s) = 5.16444 6.23941 5.72720
#
# Compressibility (1/GPa) = 0.03700353
#
# Stress axis : x y z
#
# Youngs Moduli (GPa) = 90.95158 30.34868 107.96072
#
# Poissons Ratio (x) = -0.05058 0.26636
# Poissons Ratio (y) = -0.15160 0.78830
# Poissons Ratio (z) = 0.22440 0.22160
#
# Static dielectric constant tensor:
#      x y z
#    x 1.770660 0.000000 0.000000 
#    y 0.000000 1.663070 0.000000 
#    z 0.000000 0.000000 1.755340 
# 
# From -- ./inp_files/17264.got.cif
#   From: 2010.05.17/outbox.cif.g08.bks.cpg/sg73_9_cif.got.tgz:17264.got - 2010.06.03 17:35:07.
