data_PCOD9531447
_publ_section_title
;
Structure prediction by ZEFSAII (Michael W. Deem and Ramdas Pophale) SiO2 
 PCOD9531447
Probable space group: I B C A 
;
_chemical_formula_sum "Si O2"
_cell_formula_units_Z 96
_cell_length_a 18.217422
_cell_length_b 25.560422
_cell_length_c 9.765840
_cell_angle_alpha 90.000000
_cell_angle_beta 90.000000
_cell_angle_gamma 90.000000
_cell_volume 4547.414509
_symmetry_space_group_name_H-M "I B C A "
_symmetry_group_IT_number 73
_symmetry_cell_setting 'orthorhombic'
loop_
_space_group_symop_operation_xyz
x,y,z
-x,1/2-y,z
x,-y,1/2-z
1/2-x,y,-z
-x,-y,-z
x,1/2+y,-z
-x,y,1/2+z
1/2+x,-y,z
1/2+x,1/2+y,1/2+z
1/2-x,-y,1/2+z
1/2+x,1/2-y,-z
-x,1/2+y,1/2-z
1/2-x,1/2-y,1/2-z
1/2+x,y,1/2-z
1/2-x,1/2+y,z
x,1/2-y,1/2+z
loop_
_atom_site_type_symbol
_atom_site_label
_atom_site_fract_x
_atom_site_fract_y
_atom_site_fract_z
Si Si1 0.415367 0.232123 0.517009
Si Si2 0.402518 0.112313 0.467275
Si Si3 0.176432 0.216968 0.213210
Si Si4 0.350044 0.096427 0.766247
Si Si5 0.474471 0.538110 0.120499
Si Si6 0.781869 0.964471 0.361061
O O1 0.500000 0.250000 0.512070
O O2 0.407146 0.174156 0.453634
O O3 0.384056 0.229732 0.670436
O O4 0.359859 0.267359 0.429922
O O5 0.402629 0.101310 0.631281
O O6 0.466409 0.084256 0.384105
O O7 0.329115 0.084563 0.413422
O O8 0.250000 0.250000 0.250000
O O9 0.183611 0.153948 0.211495
O O10 0.397202 0.068869 0.884714
O O11 0.285863 0.057770 0.723908
O O12 0.471940 0.500000 0.250000
O O13 0.500000 0.500000 0.000000
O O14 0.750000 0.990350 0.500000
O O15 0.824167 0.000000 0.250000
#
# Coordination Sequence:
#
# PCOD9531447 Si02
#       6
#    16  16  16  16  16  16
#     4  11  23  42  68  97 133 173 224 283 343 406
#     4  10  22  41  63  93 124 175 217 265 330 401
#     4  11  23  43  69  97 136 178 225 281 345 413
#     4  10  22  41  64  94 132 172 216 274 328 400
#     4  12  23  40  67  97 136 175 219 270 334 398
#     4  10  21  39  64  88 126 171 220 268 327 387
#
# _framework density 21.110899
#
# number of rings (size 3 to 8) (size 9 to 14) (size 15 to 20)
#    0.000    1.333    1.667    4.000    2.333    4.000 
#    3.000    1.667    0.000    0.000    0.000    0.000 
#    0.000    0.000    0.000    0.000    0.000    0.000 
#
# Total GULP energy -267996.776619 kJ/mol
# GULP energy per Si atom -5583.266180 kJ/mol
# Density = 2.106285 g / cm^3
# Si number density = 21.110899 Si / 1000 Ang^3
#
#
#
# Elastic Constant Matrix: (Units=GPa)
#
#
# Indices 1 2 3 4 5 6 
#
# 1 88.1993 17.4138 2.3638 0.0000 0.0000 0.0000
# 2 17.4138 115.0388 34.0109 0.0000 0.0000 0.0000
# 3 2.3638 34.0109 49.5005 0.0000 0.0000 0.0000
# 4 0.0000 0.0000 0.0000 33.2992 0.0000 0.0000
# 5 0.0000 0.0000 0.0000 0.0000 28.6926 0.0000
# 6 0.0000 0.0000 0.0000 0.0000 0.0000 29.2267
#
#
#
# Elastic Compliance Matrix: (Units=1/GPa)
#
#
# Indices 1 2 3 4 5 6 
#
# 1 0.011714 -0.002018 0.000827 0.000000 0.000000 0.000000
# 2 -0.002018 0.011256 -0.007638 0.000000 0.000000 0.000000
# 3 0.000827 -0.007638 0.025410 0.000000 0.000000 0.000000
# 4 0.000000 0.000000 0.000000 0.030031 0.000000 0.000000
# 5 0.000000 0.000000 0.000000 0.000000 0.034852 0.000000
# 6 0.000000 0.000000 0.000000 0.000000 0.000000 0.034215
#
#
# Mechanical properties :
#
#
# Convention : Reuss Voigt Hill
#
# Bulk Modulus (GPa) = 32.54822 40.03506 36.29164
# Shear Modulus (GPa) = 28.51013 31.50706 30.00860
#
# Velocity S-wave (km/s) = 3.67889 3.86742 3.77433
# Velocity P-wave (km/s) = 5.78765 6.24083 6.01851
#
# Compressibility (1/GPa) = 0.03072364
#
# Stress axis : x y z
#
# Youngs Moduli (GPa) = 85.36678 88.84020 39.35467
#
# Poissons Ratio (x) = 0.17925 -0.03254
# Poissons Ratio (y) = 0.17224 0.30057
# Poissons Ratio (z) = -0.07059 0.67852
#
# Static dielectric constant tensor:
#      x y z
#    x 1.737660 0.000000 0.000000 
#    y 0.000000 1.872890 0.000000 
#    z 0.000000 0.000000 1.808750 
# 
# From -- ./inp_files/6431.got.cif
#   From: 2010.05.17/outbox.cif.g08.bks.cpg/sg73_4_cif.got.tgz:6431.got - 2010.06.03 17:35:07.
