data_PCOD9531312
_publ_section_title
;
Structure prediction by ZEFSAII (Michael W. Deem and Ramdas Pophale) SiO2 
 PCOD9531312
Probable space group: I B C A 
;
_chemical_formula_sum "Si O2"
_cell_formula_units_Z 72
_cell_length_a 5.126534
_cell_length_b 20.639600
_cell_length_c 34.885279
_cell_angle_alpha 90.000000
_cell_angle_beta 90.000000
_cell_angle_gamma 90.000000
_cell_volume 3691.197806
_symmetry_space_group_name_H-M "I B C A "
_symmetry_group_IT_number 73
_symmetry_cell_setting 'orthorhombic'
loop_
_space_group_symop_operation_xyz
x,y,z
-x,1/2-y,z
x,-y,1/2-z
1/2-x,y,-z
-x,-y,-z
x,1/2+y,-z
-x,y,1/2+z
1/2+x,-y,z
1/2+x,1/2+y,1/2+z
1/2-x,-y,1/2+z
1/2+x,1/2-y,-z
-x,1/2+y,1/2-z
1/2-x,1/2-y,1/2-z
1/2+x,y,1/2-z
1/2-x,1/2+y,z
x,1/2-y,1/2+z
loop_
_atom_site_type_symbol
_atom_site_label
_atom_site_fract_x
_atom_site_fract_y
_atom_site_fract_z
Si Si1 0.025135 0.132332 0.836796
Si Si2 0.245794 0.203398 0.541199
Si Si3 0.024632 0.671631 0.379360
Si Si4 0.708205 0.428438 0.233285
Si Si5 0.000000 0.750000 0.722851
O O1 0.238142 0.144027 0.870177
O O2 0.106474 0.072267 0.809976
O O3 0.043089 0.190453 0.806223
O O4 0.732618 0.136876 0.851960
O O5 0.500000 0.250000 0.548487
O O6 0.250000 0.167451 0.500000
O O7 0.156140 0.164430 0.578662
O O8 0.000000 0.250000 0.535199
O O9 0.000000 0.750000 0.373002
O O10 0.756221 0.500000 0.250000
O O11 0.489549 0.396561 0.260546
O O12 0.250000 0.750000 0.750000
#
# Coordination Sequence:
#
# PCOD9531312 Si02
#       5
#    16  16  16  16   8
#     4  12  21  33  49  71  97 130 167 215 261 295
#     4   9  17  29  46  67  95 137 179 204 233 295
#     4  11  19  32  46  71 103 134 165 207 253 298
#     4  10  21  38  55  69  89 126 170 215 265 305
#     4  12  22  32  44  64  94 126 164 202 250 308
#
# _framework density 19.505865
#
# number of rings (size 3 to 8) (size 9 to 14) (size 15 to 20)
#    0.000    1.333    2.222    6.667    0.000    0.000 
#    0.000    0.000    0.000    0.000    0.000    0.000 
#    0.000    0.000    0.000   80.000    0.000    0.889 
#
# Total GULP energy -200545.787018 kJ/mol
# GULP energy per Si atom -5570.716306 kJ/mol
# Density = 1.946147 g / cm^3
# Si number density = 19.505865 Si / 1000 Ang^3
#
#
#
# Elastic Constant Matrix: (Units=GPa)
#
#
# Indices 1 2 3 4 5 6 
#
# 1 130.9179 -5.2091 12.7608 0.0000 0.0000 0.0000
# 2 -5.2091 33.1796 12.9933 0.0000 0.0000 0.0000
# 3 12.7608 12.9933 106.7266 0.0000 0.0000 0.0000
# 4 0.0000 0.0000 0.0000 -3.0082 0.0000 0.0000
# 5 0.0000 0.0000 0.0000 0.0000 24.3600 0.0000
# 6 0.0000 0.0000 0.0000 0.0000 0.0000 13.2149
#
#
#
# Elastic Compliance Matrix: (Units=1/GPa)
#
#
# Indices 1 2 3 4 5 6 
#
# 1 0.007816 0.001673 -0.001138 0.000000 0.000000 0.000000
# 2 0.001673 0.032006 -0.004097 0.000000 0.000000 0.000000
# 3 -0.001138 -0.004097 0.010005 0.000000 0.000000 0.000000
# 4 0.000000 0.000000 0.000000 -0.332426 0.000000 0.000000
# 5 0.000000 0.000000 0.000000 0.000000 0.041051 0.000000
# 6 0.000000 0.000000 0.000000 0.000000 0.000000 0.075672
#
#
# Mechanical properties :
#
#
# Convention : Reuss Voigt Hill
#
# Bulk Modulus (GPa) = 23.41786 34.65711 29.03748
# Shear Modulus (GPa) = -34.59747 23.59863 -5.49942
#
# Velocity S-wave (km/s) = -4.21610 3.48202 -1.68092
# Velocity P-wave (km/s) = 3.41599 5.82856 3.33939
#
# Compressibility (1/GPa) = 0.04270245
#
# Stress axis : x y z
#
# Youngs Moduli (GPa) = 127.94483 31.24434 99.95457
#
# Poissons Ratio (x) = -0.05226 0.11376
# Poissons Ratio (y) = -0.21402 0.40946
# Poissons Ratio (z) = 0.14562 0.12799
#
# Static dielectric constant tensor:
#      x y z
#    x 1.782600 0.000000 0.000000 
#    y 0.000000 1.965360 0.000000 
#    z 0.000000 0.000000 1.803130 
# 
# From -- ./inp_files/2184.got.cif
#   From: 2010.05.17/outbox.cif.g08.bks.cpg/sg73_2_cif.got.tgz:2184.got - 2010.06.03 17:35:07.
