data_PCOD9531401
_publ_section_title
;
Structure prediction by ZEFSAII (Michael W. Deem and Ramdas Pophale) SiO2 
 PCOD9531401
Probable space group: I B C A 
;
_chemical_formula_sum "Si O2"
_cell_formula_units_Z 80
_cell_length_a 8.549166
_cell_length_b 26.515344
_cell_length_c 13.332790
_cell_angle_alpha 90.000000
_cell_angle_beta 90.000000
_cell_angle_gamma 90.000000
_cell_volume 3022.331200
_symmetry_space_group_name_H-M "I B C A "
_symmetry_group_IT_number 73
_symmetry_cell_setting 'orthorhombic'
loop_
_space_group_symop_operation_xyz
x,y,z
-x,1/2-y,z
x,-y,1/2-z
1/2-x,y,-z
-x,-y,-z
x,1/2+y,-z
-x,y,1/2+z
1/2+x,-y,z
1/2+x,1/2+y,1/2+z
1/2-x,-y,1/2+z
1/2+x,1/2-y,-z
-x,1/2+y,1/2-z
1/2-x,1/2-y,1/2-z
1/2+x,y,1/2-z
1/2-x,1/2+y,z
x,1/2-y,1/2+z
loop_
_atom_site_type_symbol
_atom_site_label
_atom_site_fract_x
_atom_site_fract_y
_atom_site_fract_z
Si Si1 0.176871 0.985345 0.632171
Si Si2 0.968600 0.385425 0.827999
Si Si3 0.991144 0.924607 0.900733
Si Si4 0.838683 0.170394 0.589380
Si Si5 0.886376 0.787971 0.715747
O O1 0.047464 0.940584 0.620674
O O2 0.337746 0.959699 0.601288
O O3 0.188151 0.000000 0.750000
O O4 0.129274 0.036933 0.579309
O O5 0.803160 0.356417 0.847537
O O6 0.982132 0.403197 0.711927
O O7 0.103546 0.342334 0.839423
O O8 0.943556 0.873951 0.959234
O O9 0.750000 0.198775 0.500000
O O10 0.942767 0.197812 0.671147
O O11 0.750000 0.750000 0.750000
O O12 0.000000 0.750000 0.658499
#
# Coordination Sequence:
#
# PCOD9531401 Si02
#       5
#    16  16  16  16  16
#     4   9  15  28  50  85 111 143 192 238 273 327
#     4   9  18  33  56  81 113 152 194 240 289 348
#     4   9  18  31  55  83 113 153 193 235 280 345
#     4  10  21  39  59  86 120 156 193 250 306 359
#     4  11  21  39  62  87 112 151 200 250 300 358
#
# _framework density 26.469635
#
# number of rings (size 3 to 8) (size 9 to 14) (size 15 to 20)
#    0.000    2.400    2.000    1.800    0.000    1.600 
#    3.600    4.000    0.000    0.000    0.000    0.000 
#    0.000    0.000    0.000    0.000    0.000    0.000 
#
# Total GULP energy -222851.829123 kJ/mol
# GULP energy per Si atom -5571.295728 kJ/mol
# Density = 2.640939 g / cm^3
# Si number density = 26.469635 Si / 1000 Ang^3
#
#
#
# Elastic Constant Matrix: (Units=GPa)
#
#
# Indices 1 2 3 4 5 6 
#
# 1 74.9210 40.8407 10.7408 0.0000 0.0000 0.0000
# 2 40.8407 155.0243 11.4519 0.0000 0.0000 0.0000
# 3 10.7408 11.4519 70.3737 -0.0002 0.0000 0.0001
# 4 0.0000 0.0000 -0.0002 31.6706 0.0000 0.0000
# 5 0.0000 0.0000 0.0000 0.0000 39.1524 0.0000
# 6 0.0000 0.0000 0.0001 0.0000 0.0000 56.1550
#
#
#
# Elastic Compliance Matrix: (Units=1/GPa)
#
#
# Indices 1 2 3 4 5 6 
#
# 1 0.015797 -0.004032 -0.001755 0.000000 0.000000 0.000000
# 2 -0.004032 0.007558 -0.000615 0.000000 0.000000 0.000000
# 3 -0.001755 -0.000615 0.014578 0.000000 0.000000 0.000000
# 4 0.000000 0.000000 0.000000 0.031575 0.000000 0.000000
# 5 0.000000 0.000000 0.000000 0.000000 0.025541 0.000000
# 6 0.000000 0.000000 0.000000 0.000000 0.000000 0.017808
#
#
# Mechanical properties :
#
#
# Convention : Reuss Voigt Hill
#
# Bulk Modulus (GPa) = 39.79319 47.37618 43.58469
# Shear Modulus (GPa) = 37.30327 41.21463 39.25895
#
# Velocity S-wave (km/s) = 3.75812 3.95023 3.85537
# Velocity P-wave (km/s) = 5.82215 6.22438 6.02662
#
# Compressibility (1/GPa) = 0.02512993
#
# Stress axis : x y z
#
# Youngs Moduli (GPa) = 63.30362 132.30635 68.59788
#
# Poissons Ratio (x) = 0.53346 0.12038
# Poissons Ratio (y) = 0.25524 0.04216
# Poissons Ratio (z) = 0.11109 0.08131
#
# Static dielectric constant tensor:
#      x y z
#    x 2.143330 0.000000 0.000000 
#    y 0.000000 2.149710 0.000000 
#    z 0.000000 0.000000 2.227050 
# 
# From -- ./inp_files/7701.got.cif
#   From: 2010.05.17/outbox.cif.g08.bks.cpg/sg73_4_cif.got.tgz:7701.got - 2010.06.03 17:35:07.
