data_PCOD9531685
_publ_section_title
;
Structure prediction by ZEFSAII (Michael W. Deem and Ramdas Pophale) SiO2 
 PCOD9531685
Probable space group: I B C A 
;
_chemical_formula_sum "Si O2"
_cell_formula_units_Z 112
_cell_length_a 23.809673
_cell_length_b 14.266419
_cell_length_c 13.633664
_cell_angle_alpha 90.000000
_cell_angle_beta 90.000000
_cell_angle_gamma 90.000000
_cell_volume 4631.066235
_symmetry_space_group_name_H-M "I B C A "
_symmetry_group_IT_number 73
_symmetry_cell_setting 'orthorhombic'
loop_
_space_group_symop_operation_xyz
x,y,z
-x,1/2-y,z
x,-y,1/2-z
1/2-x,y,-z
-x,-y,-z
x,1/2+y,-z
-x,y,1/2+z
1/2+x,-y,z
1/2+x,1/2+y,1/2+z
1/2-x,-y,1/2+z
1/2+x,1/2-y,-z
-x,1/2+y,1/2-z
1/2-x,1/2-y,1/2-z
1/2+x,y,1/2-z
1/2-x,1/2+y,z
x,1/2-y,1/2+z
loop_
_atom_site_type_symbol
_atom_site_label
_atom_site_fract_x
_atom_site_fract_y
_atom_site_fract_z
Si Si1 0.052985 0.558495 0.649876
Si Si2 0.563749 0.504855 0.128451
Si Si3 0.396566 0.796739 0.124906
Si Si4 0.824487 0.067805 0.838939
Si Si5 0.686839 0.734770 0.278791
Si Si6 0.853117 0.361483 0.971865
Si Si7 0.250000 0.504336 0.500000
Si Si8 0.500000 0.750000 0.269192
O O1 0.061404 0.500000 0.750000
O O2 0.115836 0.549822 0.608454
O O3 0.025230 0.661861 0.668937
O O4 0.001715 0.502526 0.604017
O O5 0.568998 0.500000 0.250000
O O6 0.585262 0.602794 0.084585
O O7 0.597542 0.419041 0.081465
O O8 0.344292 0.821094 0.194882
O O9 0.448265 0.772907 0.197061
O O10 0.377916 0.712502 0.051890
O O11 0.839773 0.163009 0.782785
O O12 0.809515 0.000000 0.750000
O O13 0.770709 0.070212 0.910467
O O14 0.750000 0.750000 0.250000
O O15 0.677462 0.695756 0.385942
O O16 0.803955 0.434631 0.001108
#
# Coordination Sequence:
#
# PCOD9531685 Si02
#       8
#    16  16  16  16  16  16   8   8
#     4  10  21  42  79 114 149 205 270 327 411 492
#     4  11  23  49  81 112 154 209 266 332 405 495
#     4  12  26  48  77 115 158 205 260 339 407 494
#     4  11  25  46  76 111 151 209 259 330 405 473
#     4  12  26  47  78 105 148 206 268 325 401 477
#     4  12  28  48  72 117 153 203 267 329 410 484
#     4  12  30  48  70 108 162 204 272 336 392 492
#     4  12  20  44  78 116 158 210 266 332 414 506
#
# _framework density 24.184494000000001
#
# number of rings (size 3 to 8) (size 9 to 14) (size 15 to 20)
#    0.000    0.571    5.714    2.571    6.000    1.143 
#    2.571    1.429    0.000    0.000    0.000    0.000 
#    0.000    0.000    0.000    0.000    0.000    0.000 
#
# Total GULP energy -312689.246493 kJ/mol
# GULP energy per Si atom -5583.736545 kJ/mol
# Density = 2.412945 g / cm^3
# Si number density = 24.184494 Si / 1000 Ang^3
#
#
#
# Elastic Constant Matrix: (Units=GPa)
#
#
# Indices 1 2 3 4 5 6 
#
# 1 177.4853 16.1495 49.6100 0.0000 0.0000 0.0000
# 2 16.1495 75.1331 16.8936 0.0000 0.0000 0.0000
# 3 49.6100 16.8936 102.5067 0.0000 0.0000 0.0000
# 4 0.0000 0.0000 0.0000 -38.9230 0.0000 0.0000
# 5 0.0000 0.0000 0.0000 0.0000 20.0010 0.0000
# 6 0.0000 0.0000 0.0000 0.0000 0.0000 252.4037
#
#
#
# Elastic Compliance Matrix: (Units=1/GPa)
#
#
# Indices 1 2 3 4 5 6 
#
# 1 0.006553 -0.000722 -0.003053 0.000000 0.000000 0.000000
# 2 -0.000722 0.013901 -0.001941 0.000000 0.000000 0.000000
# 3 -0.003053 -0.001941 0.011553 0.000000 0.000000 0.000000
# 4 0.000000 0.000000 0.000000 -0.025692 0.000000 0.000000
# 5 0.000000 0.000000 0.000000 0.000000 0.049998 0.000000
# 6 0.000000 0.000000 0.000000 0.000000 0.000000 0.003962
#
#
# Mechanical properties :
#
#
# Convention : Reuss Voigt Hill
#
# Bulk Modulus (GPa) = 48.60274 57.82569 53.21422
# Shear Modulus (GPa) = 63.64075 64.86113 64.25094
#
# Velocity S-wave (km/s) = 5.13535 5.18435 5.15991
# Velocity P-wave (km/s) = 7.43658 7.73297 7.58622
#
# Compressibility (1/GPa) = 0.02057497
#
# Stress axis : x y z
#
# Youngs Moduli (GPa) = 152.59686 71.93474 86.55945
#
# Poissons Ratio (x) = 0.05195 0.26422
# Poissons Ratio (y) = 0.11021 0.16805
# Poissons Ratio (z) = 0.46581 0.13966
#
# Static dielectric constant tensor:
#      x y z
#    x 1.845130 0.000000 0.000000 
#    y 0.000000 2.369150 0.000000 
#    z 0.000000 0.000000 1.707690 
# 
# From -- ./inp_files/19447.got.cif
#   From: 2010.05.17/outbox.cif.g08.bks.cpg/sg73_10_cif.got.tgz:19447.got - 2010.06.03 17:35:07.
