data_PCOD9531516
_publ_section_title
;
Structure prediction by ZEFSAII (Michael W. Deem and Ramdas Pophale) SiO2 
 PCOD9531516
Probable space group: I B C A 
;
_chemical_formula_sum "Si O2"
_cell_formula_units_Z 64
_cell_length_a 18.237431
_cell_length_b 11.421713
_cell_length_c 13.286281
_cell_angle_alpha 90.000000
_cell_angle_beta 90.000000
_cell_angle_gamma 90.000000
_cell_volume 2767.568242
_symmetry_space_group_name_H-M "I B C A "
_symmetry_group_IT_number 73
_symmetry_cell_setting 'orthorhombic'
loop_
_space_group_symop_operation_xyz
x,y,z
-x,1/2-y,z
x,-y,1/2-z
1/2-x,y,-z
-x,-y,-z
x,1/2+y,-z
-x,y,1/2+z
1/2+x,-y,z
1/2+x,1/2+y,1/2+z
1/2-x,-y,1/2+z
1/2+x,1/2-y,-z
-x,1/2+y,1/2-z
1/2-x,1/2-y,1/2-z
1/2+x,y,1/2-z
1/2-x,1/2+y,z
x,1/2-y,1/2+z
loop_
_atom_site_type_symbol
_atom_site_label
_atom_site_fract_x
_atom_site_fract_y
_atom_site_fract_z
Si Si1 0.669700 0.301685 0.363304
Si Si2 0.082853 0.758688 0.546558
Si Si3 0.176553 0.384745 0.815943
Si Si4 0.958970 0.375492 0.756400
O O1 0.642148 0.228531 0.459229
O O2 0.746072 0.369088 0.373470
O O3 0.675276 0.216460 0.267997
O O4 0.603126 0.384405 0.329103
O O5 0.110714 0.642908 0.606918
O O6 0.076751 0.856317 0.633239
O O7 0.000000 0.750000 0.506097
O O8 0.173761 0.500000 0.750000
O O9 0.000365 0.500000 0.750000
O O10 0.000000 0.250000 0.740340
#
# Coordination Sequence:
#
# PCOD9531516 Si02
#       4
#    16  16  16  16
#     4  10  21  40  63  92 129 173 228 287 347 418
#     4  10  22  39  62  95 131 173 224 279 347 418
#     4  10  22  41  65  93 128 173 226 286 350 417
#     4  10  22  40  63  94 136 184 234 292 356 425
#
# _framework density 23.124994000000001
#
# number of rings (size 3 to 8) (size 9 to 14) (size 15 to 20)
#    0.000    2.000    0.000    2.250    0.000   12.000 
#    0.000   15.000    0.000    0.000    0.000    0.000 
#    0.000    0.000    0.000    0.000    0.000    0.000 
#
# Total GULP energy -178452.927366 kJ/mol
# GULP energy per Si atom -5576.653980 kJ/mol
# Density = 2.307236 g / cm^3
# Si number density = 23.124994 Si / 1000 Ang^3
#
#
#
# Elastic Constant Matrix: (Units=GPa)
#
#
# Indices 1 2 3 4 5 6 
#
# 1 151.4237 43.2109 39.9408 0.0000 0.0000 0.0000
# 2 43.2109 92.6620 0.8413 0.0000 0.0000 0.0000
# 3 39.9408 0.8413 96.6534 0.0000 0.0000 0.0000
# 4 0.0000 0.0000 0.0000 11.1086 0.0000 0.0000
# 5 0.0000 0.0000 0.0000 0.0000 38.3458 0.0000
# 6 0.0000 0.0000 0.0000 0.0000 0.0000 18.2891
#
#
#
# Elastic Compliance Matrix: (Units=1/GPa)
#
#
# Indices 1 2 3 4 5 6 
#
# 1 0.008689 -0.004020 -0.003556 0.000000 0.000000 0.000000
# 2 -0.004020 0.012652 0.001551 0.000000 0.000000 0.000000
# 3 -0.003556 0.001551 0.011802 0.000000 0.000000 0.000000
# 4 0.000000 0.000000 0.000000 0.090020 0.000000 0.000000
# 5 0.000000 0.000000 0.000000 0.000000 0.026078 0.000000
# 6 0.000000 0.000000 0.000000 0.000000 0.000000 0.054677
#
#
# Mechanical properties :
#
#
# Convention : Reuss Voigt Hill
#
# Bulk Modulus (GPa) = 47.40531 56.52501 51.96516
# Shear Modulus (GPa) = 22.42157 30.66509 26.54333
#
# Velocity S-wave (km/s) = 3.11719 3.64546 3.39162
# Velocity P-wave (km/s) = 5.78791 6.49734 6.15286
#
# Compressibility (1/GPa) = 0.02109468
#
# Stress axis : x y z
#
# Youngs Moduli (GPa) = 115.08960 79.03717 84.73110
#
# Poissons Ratio (x) = 0.31770 0.30127
# Poissons Ratio (y) = 0.46261 -0.13141
# Poissons Ratio (z) = 0.40921 -0.12258
#
# Static dielectric constant tensor:
#      x y z
#    x 1.981770 0.000000 0.000000 
#    y 0.000000 1.882060 0.000000 
#    z 0.000000 0.000000 1.884380 
# 
# From -- ./inp_files/17639.got.cif
#   From: 2010.05.17/outbox.cif.g08.bks.cpg/sg73_9_cif.got.tgz:17639.got - 2010.06.03 17:35:07.
