data_PCOD9531940
_publ_section_title
;
Structure prediction by ZEFSAII (Michael W. Deem and Ramdas Pophale) SiO2 
 PCOD9531940
Probable space group: I B C A 
;
_chemical_formula_sum "Si O2"
_cell_formula_units_Z 88
_cell_length_a 9.538992
_cell_length_b 23.881337
_cell_length_c 15.980370
_cell_angle_alpha 90.000000
_cell_angle_beta 90.000000
_cell_angle_gamma 90.000000
_cell_volume 3640.390331
_symmetry_space_group_name_H-M "I B C A "
_symmetry_group_IT_number 73
_symmetry_cell_setting 'orthorhombic'
loop_
_space_group_symop_operation_xyz
x,y,z
-x,1/2-y,z
x,-y,1/2-z
1/2-x,y,-z
-x,-y,-z
x,1/2+y,-z
-x,y,1/2+z
1/2+x,-y,z
1/2+x,1/2+y,1/2+z
1/2-x,-y,1/2+z
1/2+x,1/2-y,-z
-x,1/2+y,1/2-z
1/2-x,1/2-y,1/2-z
1/2+x,y,1/2-z
1/2-x,1/2+y,z
x,1/2-y,1/2+z
loop_
_atom_site_type_symbol
_atom_site_label
_atom_site_fract_x
_atom_site_fract_y
_atom_site_fract_z
Si Si1 0.750000 0.346375 0.500000
Si Si2 0.941966 0.621848 0.281149
Si Si3 0.642834 0.260969 0.055786
Si Si4 0.612899 0.520429 0.153127
Si Si5 0.588771 0.070016 0.098032
Si Si6 0.326881 0.192925 0.225687
O O1 0.775495 0.298192 0.428945
O O2 0.878644 0.387957 0.478822
O O3 0.000889 0.570812 0.335322
O O4 0.055944 0.671097 0.288372
O O5 0.942108 0.602882 0.184203
O O6 0.787157 0.645135 0.293730
O O7 0.500000 0.250000 0.007008
O O8 0.601663 0.292550 0.138126
O O9 0.750000 0.295520 0.000000
O O10 0.636581 0.500000 0.250000
O O11 0.537809 0.473950 0.095772
O O12 0.761601 0.539861 0.116729
O O13 0.250000 0.250000 0.250000
#
# Coordination Sequence:
#
# PCOD9531940 Si02
#       6
#     8  16  16  16  16  16
#     4  10  24  42  66  82 134 176 214 264 328 390
#     4  11  23  39  67  98 130 165 214 279 338 384
#     4  10  24  43  62  89 131 177 221 269 330 392
#     4  10  22  39  66  95 124 158 211 275 331 380
#     4  11  22  42  64  94 126 169 214 266 331 398
#     4  12  23  39  65  98 130 170 223 273 328 401
#
# _framework density 24.173231999999999
#
# number of rings (size 3 to 8) (size 9 to 14) (size 15 to 20)
#    0.545    0.727    1.818    5.455    2.545    3.636 
#    0.000    0.000    2.000    0.000    0.000    0.000 
#    0.000    0.000    0.000    0.000    0.000    0.000 
#
# Total GULP energy -245468.496966 kJ/mol
# GULP energy per Si atom -5578.829476 kJ/mol
# Density = 2.411821 g / cm^3
# Si number density = 24.173232 Si / 1000 Ang^3
#
#
#
# Elastic Constant Matrix: (Units=GPa)
#
#
# Indices 1 2 3 4 5 6 
#
# 1 108.8738 16.4723 4.9790 0.0000 0.0000 0.0000
# 2 16.4723 82.7308 18.2874 0.0000 0.0000 0.0000
# 3 4.9790 18.2874 26.4813 0.0000 0.0000 0.0000
# 4 0.0000 0.0000 0.0000 23.9084 0.0000 0.0000
# 5 0.0000 0.0000 0.0000 0.0000 32.1828 0.0000
# 6 0.0000 0.0000 0.0000 0.0000 0.0000 57.7104
#
#
#
# Elastic Compliance Matrix: (Units=1/GPa)
#
#
# Indices 1 2 3 4 5 6 
#
# 1 0.009477 -0.001762 -0.000565 0.000000 0.000000 0.000000
# 2 -0.001762 0.014593 -0.009746 0.000000 0.000000 0.000000
# 3 -0.000565 -0.009746 0.044599 0.000000 0.000000 0.000000
# 4 0.000000 0.000000 0.000000 0.041826 0.000000 0.000000
# 5 0.000000 0.000000 0.000000 0.000000 0.031073 0.000000
# 6 0.000000 0.000000 0.000000 0.000000 0.000000 0.017328
#
#
# Mechanical properties :
#
#
# Convention : Reuss Voigt Hill
#
# Bulk Modulus (GPa) = 22.46044 33.06260 27.76152
# Shear Modulus (GPa) = 25.26744 34.65012 29.95878
#
# Velocity S-wave (km/s) = 3.23656 3.79015 3.52424
# Velocity P-wave (km/s) = 4.82481 5.73242 5.29808
#
# Compressibility (1/GPa) = 0.04452273
#
# Stress axis : x y z
#
# Youngs Moduli (GPa) = 105.51428 68.52802 22.42196
#
# Poissons Ratio (x) = 0.12075 0.01267
# Poissons Ratio (y) = 0.18593 0.21852
# Poissons Ratio (z) = 0.05962 0.66788
#
# Static dielectric constant tensor:
#      x y z
#    x 1.886760 0.000000 0.000000 
#    y 0.000000 1.995230 0.000000 
#    z 0.000000 0.000000 1.987070 
# 
# From -- ./inp_files/24783.got.cif
#   From: 2010.05.17/outbox.cif.g08.bks.cpg/sg73_13_cif.got.tgz:24783.got - 2010.06.03 17:35:07.
