data_PCOD9531914
_publ_section_title
;
Structure prediction by ZEFSAII (Michael W. Deem and Ramdas Pophale) SiO2 
 PCOD9531914
Probable space group: I B C A 
;
_chemical_formula_sum "Si O2"
_cell_formula_units_Z 112
_cell_length_a 34.030977
_cell_length_b 11.593286
_cell_length_c 13.870760
_cell_angle_alpha 90.000000
_cell_angle_beta 90.000000
_cell_angle_gamma 90.000000
_cell_volume 5472.442722
_symmetry_space_group_name_H-M "I B C A "
_symmetry_group_IT_number 73
_symmetry_cell_setting 'orthorhombic'
loop_
_space_group_symop_operation_xyz
x,y,z
-x,1/2-y,z
x,-y,1/2-z
1/2-x,y,-z
-x,-y,-z
x,1/2+y,-z
-x,y,1/2+z
1/2+x,-y,z
1/2+x,1/2+y,1/2+z
1/2-x,-y,1/2+z
1/2+x,1/2-y,-z
-x,1/2+y,1/2-z
1/2-x,1/2-y,1/2-z
1/2+x,y,1/2-z
1/2-x,1/2+y,z
x,1/2-y,1/2+z
loop_
_atom_site_type_symbol
_atom_site_label
_atom_site_fract_x
_atom_site_fract_y
_atom_site_fract_z
Si Si1 0.263294 0.687257 0.384925
Si Si2 0.140929 0.431881 0.612034
Si Si3 0.234093 0.932620 0.392217
Si Si4 0.593523 0.660071 0.429487
Si Si5 0.480349 0.495337 0.637238
Si Si6 0.645800 0.683452 0.813810
Si Si7 0.966737 0.658061 0.019390
O O1 0.250000 0.685048 0.500000
O O2 0.244830 0.807988 0.347410
O O3 0.252250 0.557007 0.349915
O O4 0.309671 0.694992 0.356169
O O5 0.187461 0.438853 0.595719
O O6 0.116680 0.395476 0.518547
O O7 0.139537 0.340612 0.700258
O O8 0.129828 0.561622 0.643451
O O9 0.250000 0.928844 0.500000
O O10 0.558025 0.580016 0.391895
O O11 0.622894 0.703003 0.347034
O O12 0.573708 0.778924 0.465010
O O13 0.485111 0.500000 0.750000
O O14 0.520327 0.448188 0.587011
O O15 0.472104 0.618104 0.589582
O O16 0.000000 0.750000 0.043835
#
# Coordination Sequence:
#
# PCOD9531914 Si02
#       7
#    16  16  16  16  16  16  16
#     4   9  17  32  56  82 116 159 213 265 323 386
#     4  10  22  39  58  87 125 163 211 262 308 399
#     4   9  17  32  56  82 113 162 207 263 325 372
#     4  11  21  38  64  87 120 162 203 250 315 370
#     4  10  22  40  61  92 123 152 200 260 302 369
#     4  10  22  39  58  88 123 167 211 253 328 387
#     4   9  21  40  60  88 118 159 197 243 308 369
#
# _framework density 20.466179
#
# number of rings (size 3 to 8) (size 9 to 14) (size 15 to 20)
#    0.000    2.286    0.000    2.571    2.000    2.286 
#    7.714    1.429    0.000    0.000    0.000    0.000 
#    0.000    0.000    0.000    0.000    0.000    0.000 
#
# Total GULP energy -311830.066522 kJ/mol
# GULP energy per Si atom -5568.394045 kJ/mol
# Density = 2.041960 g / cm^3
# Si number density = 20.466179 Si / 1000 Ang^3
#
#
#
# Elastic Constant Matrix: (Units=GPa)
#
#
# Indices 1 2 3 4 5 6 
#
# 1 26.5368 16.6800 -6.6597 0.0000 0.0000 0.0000
# 2 16.6800 86.4824 -0.5231 0.0000 0.0000 0.0000
# 3 -6.6597 -0.5231 69.7454 0.0000 0.0000 0.0000
# 4 0.0000 0.0000 0.0000 36.9758 0.0000 0.0000
# 5 0.0000 0.0000 0.0000 0.0000 5.8187 0.0000
# 6 0.0000 0.0000 0.0000 0.0000 0.0000 166.5597
#
#
#
# Elastic Compliance Matrix: (Units=1/GPa)
#
#
# Indices 1 2 3 4 5 6 
#
# 1 0.044047 -0.008470 0.004142 0.000000 0.000000 0.000000
# 2 -0.008470 0.013192 -0.000710 0.000000 0.000000 0.000000
# 3 0.004142 -0.000710 0.014728 0.000000 0.000000 0.000000
# 4 0.000000 0.000000 0.000000 0.027045 0.000000 0.000000
# 5 0.000000 0.000000 0.000000 0.000000 0.171859 0.000000
# 6 0.000000 0.000000 0.000000 0.000000 0.000000 0.006004
#
#
# Mechanical properties :
#
#
# Convention : Reuss Voigt Hill
#
# Bulk Modulus (GPa) = 16.15719 22.41767 19.28743
# Shear Modulus (GPa) = 16.25584 53.42200 34.83892
#
# Velocity S-wave (km/s) = 2.82135 5.11461 4.13033
# Velocity P-wave (km/s) = 4.30408 6.77173 5.67368
#
# Compressibility (1/GPa) = 0.06189196
#
# Stress axis : x y z
#
# Youngs Moduli (GPa) = 22.70289 75.80091 67.89756
#
# Poissons Ratio (x) = 0.64207 -0.28126
# Poissons Ratio (y) = 0.19230 0.04820
# Poissons Ratio (z) = -0.09404 0.05381
#
# Static dielectric constant tensor:
#      x y z
#    x 1.742820 0.000000 0.000000 
#    y 0.000000 1.785970 0.000000 
#    z 0.000000 0.000000 1.729430 
# 
# From -- ./inp_files/20050.got.cif
#   From: 2010.05.17/outbox.cif.g08.bks.cpg/sg73_11_cif.got.tgz:20050.got - 2010.06.03 17:35:07.
