data_PCOD9531599
_publ_section_title
;
Structure prediction by ZEFSAII (Michael W. Deem and Ramdas Pophale) SiO2 
 PCOD9531599
Probable space group: I B C A 
;
_chemical_formula_sum "Si O2"
_cell_formula_units_Z 56
_cell_length_a 17.498799
_cell_length_b 13.553926
_cell_length_c 11.607435
_cell_angle_alpha 90.000000
_cell_angle_beta 90.000000
_cell_angle_gamma 90.000000
_cell_volume 2753.021564
_symmetry_space_group_name_H-M "I B C A "
_symmetry_group_IT_number 73
_symmetry_cell_setting 'orthorhombic'
loop_
_space_group_symop_operation_xyz
x,y,z
-x,1/2-y,z
x,-y,1/2-z
1/2-x,y,-z
-x,-y,-z
x,1/2+y,-z
-x,y,1/2+z
1/2+x,-y,z
1/2+x,1/2+y,1/2+z
1/2-x,-y,1/2+z
1/2+x,1/2-y,-z
-x,1/2+y,1/2-z
1/2-x,1/2-y,1/2-z
1/2+x,y,1/2-z
1/2-x,1/2+y,z
x,1/2-y,1/2+z
loop_
_atom_site_type_symbol
_atom_site_label
_atom_site_fract_x
_atom_site_fract_y
_atom_site_fract_z
Si Si1 0.876695 0.599994 0.178955
Si Si2 0.382783 0.752649 0.617041
Si Si3 0.995628 0.383360 0.511505
Si Si4 0.250000 0.365158 0.000000
O O1 0.893989 0.500000 0.250000
O O2 0.863438 0.687793 0.268614
O O3 0.947112 0.639239 0.102336
O O4 0.805632 0.580006 0.091542
O O5 0.444768 0.662538 0.616276
O O6 0.423252 0.831713 0.530852
O O7 0.307031 0.704001 0.569903
O O8 0.000000 0.500000 0.500000
#
# Coordination Sequence:
#
# PCOD9531599 Si02
#       4
#    16  16  16   8
#     4  11  22  42  67  95 136 173 226 274 343 403
#     4  10  22  40  68  92 134 170 220 275 340 391
#     4  10  21  41  65  96 131 171 225 278 327 405
#     4  10  24  42  64  96 136 174 222 276 336 414
#
# _framework density 20.341287000000001
#
# number of rings (size 3 to 8) (size 9 to 14) (size 15 to 20)
#    0.000    1.714    2.857    0.857    0.000   10.286 
#    0.000    0.000    0.000    0.000    0.000    0.000 
#    0.000    0.000    0.000    0.000    0.000    0.000 
#
# Total GULP energy -155964.213639 kJ/mol
# GULP energy per Si atom -5570.150487 kJ/mol
# Density = 2.029499 g / cm^3
# Si number density = 20.341287 Si / 1000 Ang^3
#
#
#
# Elastic Constant Matrix: (Units=GPa)
#
#
# Indices 1 2 3 4 5 6 
#
# 1 49.2037 -9.1545 16.7978 0.0000 0.0000 0.0000
# 2 -9.1545 85.2455 11.0932 0.0000 0.0000 0.0000
# 3 16.7978 11.0932 82.9018 0.0000 0.0000 0.0000
# 4 0.0000 0.0000 0.0000 43.9237 0.0000 0.0000
# 5 0.0000 0.0000 0.0000 0.0000 28.0436 0.0000
# 6 0.0000 0.0000 0.0000 0.0000 0.0000 11.9943
#
#
#
# Elastic Compliance Matrix: (Units=1/GPa)
#
#
# Indices 1 2 3 4 5 6 
#
# 1 0.022600 0.003076 -0.004991 0.000000 0.000000 0.000000
# 2 0.003076 0.012358 -0.002277 0.000000 0.000000 0.000000
# 3 -0.004991 -0.002277 0.013378 0.000000 0.000000 0.000000
# 4 0.000000 0.000000 0.000000 0.022767 0.000000 0.000000
# 5 0.000000 0.000000 0.000000 0.000000 0.035659 0.000000
# 6 0.000000 0.000000 0.000000 0.000000 0.000000 0.083373
#
#
# Mechanical properties :
#
#
# Convention : Reuss Voigt Hill
#
# Bulk Modulus (GPa) = 25.02934 28.31377 26.67156
# Shear Modulus (GPa) = 23.60329 30.03327 26.81828
#
# Velocity S-wave (km/s) = 3.41011 3.84665 3.63494
# Velocity P-wave (km/s) = 5.27603 5.80332 5.54595
#
# Compressibility (1/GPa) = 0.03995312
#
# Stress axis : x y z
#
# Youngs Moduli (GPa) = 44.24789 80.92240 74.74724
#
# Poissons Ratio (x) = -0.24896 0.37306
# Poissons Ratio (y) = -0.13613 0.17020
# Poissons Ratio (z) = 0.22084 0.18426
#
# Static dielectric constant tensor:
#      x y z
#    x 1.652590 0.000000 0.000000 
#    y 0.000000 1.736180 0.000000 
#    z 0.000000 0.000000 1.684580 
# 
# From -- ./inp_files/4547.got.cif
#   From: 2010.05.17/outbox.cif.g08.bks.cpg/sg73_3_cif.got.tgz:4547.got - 2010.06.03 17:35:07.
