data_PCOD9531272
_publ_section_title
;
Structure prediction by ZEFSAII (Michael W. Deem and Ramdas Pophale) SiO2 
 PCOD9531272
Probable space group: I B C A 
;
_chemical_formula_sum "Si O2"
_cell_formula_units_Z 96
_cell_length_a 9.165478
_cell_length_b 25.923073
_cell_length_c 18.849412
_cell_angle_alpha 90.000000
_cell_angle_beta 90.000000
_cell_angle_gamma 90.000000
_cell_volume 4478.570440
_symmetry_space_group_name_H-M "I B C A "
_symmetry_group_IT_number 73
_symmetry_cell_setting 'orthorhombic'
loop_
_space_group_symop_operation_xyz
x,y,z
-x,1/2-y,z
x,-y,1/2-z
1/2-x,y,-z
-x,-y,-z
x,1/2+y,-z
-x,y,1/2+z
1/2+x,-y,z
1/2+x,1/2+y,1/2+z
1/2-x,-y,1/2+z
1/2+x,1/2-y,-z
-x,1/2+y,1/2-z
1/2-x,1/2-y,1/2-z
1/2+x,y,1/2-z
1/2-x,1/2+y,z
x,1/2-y,1/2+z
loop_
_atom_site_type_symbol
_atom_site_label
_atom_site_fract_x
_atom_site_fract_y
_atom_site_fract_z
Si Si1 0.250000 0.070634 0.500000
Si Si2 0.788927 0.704366 0.670868
Si Si3 0.288942 0.016448 0.648583
Si Si4 0.520820 0.637373 0.509452
Si Si5 0.724051 0.398483 0.111873
Si Si6 0.500000 0.750000 0.446907
Si Si7 0.543684 0.000000 0.750000
Si Si8 0.000000 0.750000 0.288515
O O1 0.376167 0.107400 0.471461
O O2 0.294731 0.037713 0.568897
O O3 0.807348 0.643067 0.671373
O O4 0.864566 0.734635 0.604855
O O5 0.616427 0.716112 0.669282
O O6 0.884988 0.721250 0.737897
O O7 0.265624 0.954812 0.637926
O O8 0.151490 0.032185 0.698260
O O9 0.433572 0.027419 0.694661
O O10 0.586477 0.607315 0.440660
O O11 0.643770 0.626963 0.567410
O O12 0.486747 0.697108 0.491622
#
# Coordination Sequence:
#
# PCOD9531272 Si02
#       8
#     8  16  16  16  16   8   8   8
#     4  12  24  40  68  96 120 162 214 254 302 370
#     4   9  19  35  56  81 114 155 196 246 307 367
#     4  11  23  42  64  92 128 163 208 259 306 371
#     4  10  22  37  59  90 117 152 200 252 311 367
#     4  10  21  37  58  84 118 159 199 249 311 367
#     4   9  20  39  56  82 122 149 186 253 314 362
#     4  10  24  42  62  88 128 168 200 254 318 356
#     4   9  18  35  56  80 112 155 210 253 292 370
#
# _framework density 21.435410999999998
#
# number of rings (size 3 to 8) (size 9 to 14) (size 15 to 20)
#    0.000    2.000    0.000    3.000    0.000    8.000 
#    0.000    8.333    0.000    0.000    0.000    0.000 
#    0.000    0.000    0.000    0.000    0.000    0.000 
#
# Total GULP energy -267522.565767 kJ/mol
# GULP energy per Si atom -5573.386787 kJ/mol
# Density = 2.138662 g / cm^3
# Si number density = 21.435411 Si / 1000 Ang^3
#
#
#
# Elastic Constant Matrix: (Units=GPa)
#
#
# Indices 1 2 3 4 5 6 
#
# 1 107.0312 18.3755 14.2188 0.0000 0.0000 0.0000
# 2 18.3755 113.4327 34.2296 0.0000 0.0000 0.0000
# 3 14.2188 34.2296 86.9194 0.0002 0.0000 -0.0001
# 4 0.0000 0.0000 0.0002 19.4779 0.0000 -0.0001
# 5 0.0000 0.0000 0.0000 0.0000 28.9389 0.0000
# 6 0.0000 0.0000 -0.0001 -0.0001 0.0000 11.5258
#
#
#
# Elastic Compliance Matrix: (Units=1/GPa)
#
#
# Indices 1 2 3 4 5 6 
#
# 1 0.009702 -0.001240 -0.001099 0.000000 0.000000 0.000000
# 2 -0.001240 0.010163 -0.003800 0.000000 0.000000 0.000000
# 3 -0.001099 -0.003800 0.013181 0.000000 0.000000 0.000000
# 4 0.000000 0.000000 0.000000 0.051340 0.000000 0.000000
# 5 0.000000 0.000000 0.000000 0.000000 0.034556 0.000000
# 6 0.000000 0.000000 0.000000 0.000000 0.000000 0.086762
#
#
# Mechanical properties :
#
#
# Convention : Reuss Voigt Hill
#
# Bulk Modulus (GPa) = 48.14776 49.00346 48.57561
# Shear Modulus (GPa) = 22.23178 28.02582 25.12880
#
# Velocity S-wave (km/s) = 3.22398 3.61980 3.42761
# Velocity P-wave (km/s) = 6.03069 6.35462 6.19477
#
# Compressibility (1/GPa) = 0.02076940
#
# Stress axis : x y z
#
# Youngs Moduli (GPa) = 103.07217 98.39384 75.86722
#
# Poissons Ratio (x) = 0.12202 0.08336
# Poissons Ratio (y) = 0.12782 0.28826
# Poissons Ratio (z) = 0.11325 0.37385
#
# Static dielectric constant tensor:
#      x y z
#    x 1.956480 0.000000 0.000000 
#    y 0.000000 1.797920 0.000000 
#    z 0.000000 0.000000 1.830460 
# 
# From -- ./inp_files/24927.got.cif
#   From: 2010.05.17/outbox.cif.g08.bks.cpg/sg73_13_cif.got.tgz:24927.got - 2010.06.03 17:35:07.
