data_PCOD9531525
_publ_section_title
;
Structure prediction by ZEFSAII (Michael W. Deem and Ramdas Pophale) SiO2 
 PCOD9531525
Probable space group: I B C A 
;
_chemical_formula_sum "Si O2"
_cell_formula_units_Z 120
_cell_length_a 16.812964
_cell_length_b 11.842150
_cell_length_c 25.784474
_cell_angle_alpha 90.000000
_cell_angle_beta 90.000000
_cell_angle_gamma 90.000000
_cell_volume 5133.731102
_symmetry_space_group_name_H-M "I B C A "
_symmetry_group_IT_number 73
_symmetry_cell_setting 'orthorhombic'
loop_
_space_group_symop_operation_xyz
x,y,z
-x,1/2-y,z
x,-y,1/2-z
1/2-x,y,-z
-x,-y,-z
x,1/2+y,-z
-x,y,1/2+z
1/2+x,-y,z
1/2+x,1/2+y,1/2+z
1/2-x,-y,1/2+z
1/2+x,1/2-y,-z
-x,1/2+y,1/2-z
1/2-x,1/2-y,1/2-z
1/2+x,y,1/2-z
1/2-x,1/2+y,z
x,1/2-y,1/2+z
loop_
_atom_site_type_symbol
_atom_site_label
_atom_site_fract_x
_atom_site_fract_y
_atom_site_fract_z
Si Si1 0.405888 0.722274 0.473353
Si Si2 0.023043 0.056150 0.806782
Si Si3 0.610520 0.264240 0.714314
Si Si4 0.659478 0.994562 0.414253
Si Si5 0.584996 0.268300 0.911947
Si Si6 0.390266 0.355618 0.821752
Si Si7 0.224898 0.062881 0.301877
Si Si8 0.250000 0.619379 0.000000
O O1 0.500000 0.750000 0.458342
O O2 0.377820 0.620258 0.436855
O O3 0.414834 0.698308 0.534929
O O4 0.328025 0.808123 0.479678
O O5 0.087148 0.153681 0.817240
O O6 0.943133 0.130088 0.804532
O O7 0.029165 0.000000 0.750000
O O8 0.041956 0.945334 0.839226
O O9 0.592036 0.228859 0.773798
O O10 0.698127 0.307402 0.705379
O O11 0.599735 0.100296 0.419299
O O12 0.727976 0.037976 0.452551
O O13 0.690292 0.983045 0.355667
O O14 0.500000 0.250000 0.886304
O O15 0.643287 0.214861 0.870095
O O16 0.319295 0.435937 0.802875
O O17 0.195841 0.000000 0.250000
#
# Coordination Sequence:
#
# PCOD9531525 Si02
#       8
#    16  16  16  16  16  16  16   8
#     4  10  24  51  77 115 155 194 264 331 400 472
#     4   9  20  37  61  92 124 185 237 299 353 426
#     4  10  21  40  64  88 139 184 245 293 351 439
#     4  11  26  47  77 108 148 203 251 320 396 467
#     4  10  25  43  73 109 140 187 243 310 384 464
#     4  11  24  41  67 100 143 192 244 301 374 451
#     4  12  26  44  66 104 145 195 248 305 379 457
#     4  10  24  46  84 116 154 202 264 322 400 486
#
# _framework density 23.374811999999999
#
# number of rings (size 3 to 8) (size 9 to 14) (size 15 to 20)
#    0.000    1.600    0.000    3.200   11.200    5.867 
#    2.400    0.000    0.000    0.000    0.000    0.000 
#    0.000    0.000    0.000    0.000    0.000    0.000 
#
# Total GULP energy -334279.116198 kJ/mol
# GULP energy per Si atom -5571.318603 kJ/mol
# Density = 2.332161 g / cm^3
# Si number density = 23.374812 Si / 1000 Ang^3
#
#
#
# Elastic Constant Matrix: (Units=GPa)
#
#
# Indices 1 2 3 4 5 6 
#
# 1 94.6002 52.9633 38.4624 0.0000 0.0000 0.0000
# 2 52.9633 109.2368 68.0848 0.0000 0.0000 0.0000
# 3 38.4624 68.0848 118.4317 0.0000 0.0000 0.0000
# 4 0.0000 0.0000 0.0000 34.5951 0.0000 0.0000
# 5 0.0000 0.0000 0.0000 0.0000 26.6429 0.0000
# 6 0.0000 0.0000 0.0000 0.0000 0.0000 32.5073
#
#
#
# Elastic Compliance Matrix: (Units=1/GPa)
#
#
# Indices 1 2 3 4 5 6 
#
# 1 0.014592 -0.006423 -0.001047 0.000000 0.000000 0.000000
# 2 -0.006423 0.017093 -0.007741 0.000000 0.000000 0.000000
# 3 -0.001047 -0.007741 0.013234 0.000000 0.000000 0.000000
# 4 0.000000 0.000000 0.000000 0.028906 0.000000 0.000000
# 5 0.000000 0.000000 0.000000 0.000000 0.037533 0.000000
# 6 0.000000 0.000000 0.000000 0.000000 0.000000 0.030762
#
#
# Mechanical properties :
#
#
# Convention : Reuss Voigt Hill
#
# Bulk Modulus (GPa) = 68.97152 71.25442 70.11297
# Shear Modulus (GPa) = 28.18911 29.59961 28.89436
#
# Velocity S-wave (km/s) = 3.47646 3.56238 3.51968
# Velocity P-wave (km/s) = 6.75908 6.88987 6.82479
#
# Compressibility (1/GPa) = 0.01449874
#
# Stress axis : x y z
#
# Youngs Moduli (GPa) = 68.52991 58.50341 75.56476
#
# Poissons Ratio (x) = 0.37574 0.07910
# Poissons Ratio (y) = 0.44014 0.58493
# Poissons Ratio (z) = 0.07174 0.45286
#
# Static dielectric constant tensor:
#      x y z
#    x 1.991720 0.000000 0.000000 
#    y 0.000000 1.900620 0.000000 
#    z 0.000000 0.000000 1.894990 
# 
# From -- ./inp_files/32472.got.cif
#   From: 2010.05.17/outbox.cif.g08.bks.cpg/sg73_17_cif.got.tgz:32472.got - 2010.06.03 17:35:07.
