data_PCOD9531096
_publ_section_title
;
Structure prediction by ZEFSAII (Michael W. Deem and Ramdas Pophale) SiO2 
 PCOD9531096
Probable space group: I B C A 
;
_chemical_formula_sum "Si O2"
_cell_formula_units_Z 104
_cell_length_a 18.002690
_cell_length_b 21.559106
_cell_length_c 13.918856
_cell_angle_alpha 90.000000
_cell_angle_beta 90.000000
_cell_angle_gamma 90.000000
_cell_volume 5402.212864
_symmetry_space_group_name_H-M "I B C A "
_symmetry_group_IT_number 73
_symmetry_cell_setting 'orthorhombic'
loop_
_space_group_symop_operation_xyz
x,y,z
-x,1/2-y,z
x,-y,1/2-z
1/2-x,y,-z
-x,-y,-z
x,1/2+y,-z
-x,y,1/2+z
1/2+x,-y,z
1/2+x,1/2+y,1/2+z
1/2-x,-y,1/2+z
1/2+x,1/2-y,-z
-x,1/2+y,1/2-z
1/2-x,1/2-y,1/2-z
1/2+x,y,1/2-z
1/2-x,1/2+y,z
x,1/2-y,1/2+z
loop_
_atom_site_type_symbol
_atom_site_label
_atom_site_fract_x
_atom_site_fract_y
_atom_site_fract_z
Si Si1 0.164163 0.761538 0.270156
Si Si2 0.621886 0.519878 0.538691
Si Si3 0.032584 0.024899 0.643375
Si Si4 0.250000 0.924797 0.000000
Si Si5 0.668483 0.160887 0.459755
Si Si6 0.620872 0.352206 0.397845
Si Si7 0.084186 0.236859 0.425603
O O1 0.250000 0.750000 0.250000
O O2 0.157330 0.812140 0.353581
O O3 0.130730 0.698081 0.314051
O O4 0.126739 0.780364 0.170958
O O5 0.583369 0.510337 0.434791
O O6 0.553291 0.515794 0.612959
O O7 0.687475 0.469072 0.549029
O O8 0.655279 0.588145 0.541461
O O9 0.061457 0.095550 0.631496
O O10 0.044973 0.000000 0.750000
O O11 0.200344 0.883330 0.927095
O O12 0.750000 0.175115 0.500000
O O13 0.615289 0.199483 0.529525
O O14 0.594300 0.315437 0.492880
O O15 0.000000 0.250000 0.401458
#
# Coordination Sequence:
#
# PCOD9531096 Si02
#       7
#    16  16  16   8  16  16  16
#     4  11  23  40  65 101 126 173 222 267 335 390
#     4  10  22  43  63  96 128 164 222 266 324 381
#     4  10  23  43  66  93 130 175 214 266 325 392
#     4  10  20  42  68  88 126 178 202 268 332 372
#     4  11  22  41  67  91 133 167 217 278 320 391
#     4  10  23  43  66  93 138 168 214 269 327 394
#     4  11  24  41  67  96 131 172 212 272 337 389
#
# _framework density 19.251370000000001
#
# number of rings (size 3 to 8) (size 9 to 14) (size 15 to 20)
#    0.000    1.538    2.308    1.846    4.308    3.692 
#   11.077    0.769    0.000    0.000    0.000    0.000 
#    0.000    0.000    0.000    0.000    0.000    0.000 
#
# Total GULP energy -290510.648682 kJ/mol
# GULP energy per Si atom -5586.743244 kJ/mol
# Density = 1.920755 g / cm^3
# Si number density = 19.251370 Si / 1000 Ang^3
#
#
#
# Elastic Constant Matrix: (Units=GPa)
#
#
# Indices 1 2 3 4 5 6 
#
# 1 93.5337 -4.4887 12.5221 0.0000 0.0000 0.0000
# 2 -4.4887 72.8320 16.0162 0.0000 0.0000 0.0000
# 3 12.5221 16.0162 103.4426 0.0000 0.0000 0.0000
# 4 0.0000 0.0000 0.0000 7.4493 0.0000 0.0000
# 5 0.0000 0.0000 0.0000 0.0000 10.9730 0.0000
# 6 0.0000 0.0000 0.0000 0.0000 0.0000 22.9656
#
#
#
# Elastic Compliance Matrix: (Units=1/GPa)
#
#
# Indices 1 2 3 4 5 6 
#
# 1 0.010937 0.000999 -0.001479 0.000000 0.000000 0.000000
# 2 0.000999 0.014305 -0.002336 0.000000 0.000000 0.000000
# 3 -0.001479 -0.002336 0.010208 0.000000 0.000000 0.000000
# 4 0.000000 0.000000 0.000000 0.134241 0.000000 0.000000
# 5 0.000000 0.000000 0.000000 0.000000 0.091132 0.000000
# 6 0.000000 0.000000 0.000000 0.000000 0.000000 0.043543
#
#
# Mechanical properties :
#
#
# Convention : Reuss Voigt Hill
#
# Bulk Modulus (GPa) = 33.53469 35.32307 34.42888
# Shear Modulus (GPa) = 15.62800 24.66149 20.14475
#
# Velocity S-wave (km/s) = 2.85228 3.58302 3.23833
# Velocity P-wave (km/s) = 5.32020 5.95866 5.64846
#
# Compressibility (1/GPa) = 0.02981987
#
# Stress axis : x y z
#
# Youngs Moduli (GPa) = 91.43062 69.90321 97.96358
#
# Poissons Ratio (x) = -0.06985 0.14486
# Poissons Ratio (y) = -0.09136 0.22883
# Poissons Ratio (z) = 0.13520 0.16329
#
# Static dielectric constant tensor:
#      x y z
#    x 1.702540 0.000000 0.000000 
#    y 0.000000 1.667340 0.000000 
#    z 0.000000 0.000000 1.632930 
# 
# From -- ./inp_files/18154.got.cif
#   From: 2010.05.17/outbox.cif.g08.bks.cpg/sg73_10_cif.got.tgz:18154.got - 2010.06.03 17:35:07.
