data_PCOD9531497
_publ_section_title
;
Structure prediction by ZEFSAII (Michael W. Deem and Ramdas Pophale) SiO2 
 PCOD9531497
Probable space group: I B C A 
;
_chemical_formula_sum "Si O2"
_cell_formula_units_Z 88
_cell_length_a 14.260404
_cell_length_b 29.300142
_cell_length_c 9.765794
_cell_angle_alpha 90.000000
_cell_angle_beta 90.000000
_cell_angle_gamma 90.000000
_cell_volume 4080.459893
_symmetry_space_group_name_H-M "I B C A "
_symmetry_group_IT_number 73
_symmetry_cell_setting 'orthorhombic'
loop_
_space_group_symop_operation_xyz
x,y,z
-x,1/2-y,z
x,-y,1/2-z
1/2-x,y,-z
-x,-y,-z
x,1/2+y,-z
-x,y,1/2+z
1/2+x,-y,z
1/2+x,1/2+y,1/2+z
1/2-x,-y,1/2+z
1/2+x,1/2-y,-z
-x,1/2+y,1/2-z
1/2-x,1/2-y,1/2-z
1/2+x,y,1/2-z
1/2-x,1/2+y,z
x,1/2-y,1/2+z
loop_
_atom_site_type_symbol
_atom_site_label
_atom_site_fract_x
_atom_site_fract_y
_atom_site_fract_z
Si Si1 0.671590 0.520402 0.390242
Si Si2 0.939659 0.936229 0.453929
Si Si3 0.920488 0.606205 0.244969
Si Si4 0.500000 0.750000 0.539509
Si Si5 0.938195 0.689780 0.712407
Si Si6 0.697129 0.389614 0.246268
O O1 0.711634 0.500000 0.250000
O O2 0.750000 0.512667 0.500000
O O3 0.583419 0.488823 0.422529
O O4 0.659203 0.573571 0.363483
O O5 0.940889 0.924164 0.611794
O O6 0.851915 0.907867 0.385941
O O7 0.030458 0.918420 0.373361
O O8 0.808892 0.610485 0.256445
O O9 0.973610 0.654636 0.224419
O O10 0.552973 0.717340 0.430108
O O11 0.559624 0.779639 0.649310
O O12 0.845935 0.659125 0.713674
#
# Coordination Sequence:
#
# PCOD9531497 Si02
#       6
#    16  16  16   8  16  16
#     4  10  21  40  61  90 132 174 218 264 307 365
#     4  10  22  41  62  94 134 175 218 263 315 372
#     4  11  22  42  70  96 129 175 218 270 323 380
#     4  10  22  44  68  92 132 166 202 274 338 400
#     4  10  22  43  66  95 129 166 214 266 332 399
#     4  10  22  41  66  94 130 172 219 266 315 381
#
# _framework density 21.566196000000001
#
# number of rings (size 3 to 8) (size 9 to 14) (size 15 to 20)
#    0.000    1.818    0.000    4.909    0.000    5.818 
#    0.000   45.455    0.000    0.000    0.000    0.000 
#    0.000    0.000    0.000    0.000    0.000    0.000 
#
# Total GULP energy -246006.134916 kJ/mol
# GULP energy per Si atom -5591.048521 kJ/mol
# Density = 2.151711 g / cm^3
# Si number density = 21.566196 Si / 1000 Ang^3
#
#
#
# Elastic Constant Matrix: (Units=GPa)
#
#
# Indices 1 2 3 4 5 6 
#
# 1 163.9436 58.9567 55.3781 0.0003 0.0000 0.0000
# 2 58.9567 126.2750 74.0844 0.0001 0.0001 0.0003
# 3 55.3781 74.0844 163.3222 -0.0022 0.0011 0.0005
# 4 0.0003 0.0001 -0.0022 14.2074 0.0003 -0.0001
# 5 0.0000 0.0001 0.0011 0.0003 24.9072 0.0001
# 6 0.0000 0.0003 0.0005 -0.0001 0.0001 20.8051
#
#
#
# Elastic Compliance Matrix: (Units=1/GPa)
#
#
# Indices 1 2 3 4 5 6 
#
# 1 0.007529 -0.002749 -0.001306 0.000000 0.000000 0.000000
# 2 -0.002749 0.011795 -0.004418 -0.000001 0.000000 0.000000
# 3 -0.001306 -0.004418 0.008570 0.000001 0.000000 0.000000
# 4 0.000000 -0.000001 0.000001 0.070386 -0.000001 0.000000
# 5 0.000000 0.000000 0.000000 -0.000001 0.040149 0.000000
# 6 0.000000 0.000000 0.000000 0.000000 0.000000 0.048065
#
#
# Mechanical properties :
#
#
# Convention : Reuss Voigt Hill
#
# Bulk Modulus (GPa) = 91.34459 92.26435 91.80447
# Shear Modulus (GPa) = 24.14411 29.65871 26.90141
#
# Velocity S-wave (km/s) = 3.34957 3.71245 3.53567
# Velocity P-wave (km/s) = 7.57674 7.82631 7.70254
#
# Compressibility (1/GPa) = 0.01094756
#
# Stress axis : x y z
#
# Youngs Moduli (GPa) = 132.81152 84.78272 116.68955
#
# Poissons Ratio (x) = 0.23309 0.15239
# Poissons Ratio (y) = 0.36513 0.51554
# Poissons Ratio (z) = 0.17345 0.37457
#
# Static dielectric constant tensor:
#      x y z
#    x 1.831090 0.000000 0.000000 
#    y 0.000000 1.817090 0.000000 
#    z 0.000000 0.000000 1.776320 
# 
# From -- ./inp_files/5749.got.cif
#   From: 2010.05.17/outbox.cif.g08.bks.cpg/sg73_3_cif.got.tgz:5749.got - 2010.06.03 17:35:07.
