data_PCOD9531457
_publ_section_title
;
Structure prediction by ZEFSAII (Michael W. Deem and Ramdas Pophale) SiO2 
 PCOD9531457
Probable space group: I B C A 
;
_chemical_formula_sum "Si O2"
_cell_formula_units_Z 112
_cell_length_a 14.406397
_cell_length_b 14.349773
_cell_length_c 24.693984
_cell_angle_alpha 90.000000
_cell_angle_beta 90.000000
_cell_angle_gamma 90.000000
_cell_volume 5104.950931
_symmetry_space_group_name_H-M "I B C A "
_symmetry_group_IT_number 73
_symmetry_cell_setting 'orthorhombic'
loop_
_space_group_symop_operation_xyz
x,y,z
-x,1/2-y,z
x,-y,1/2-z
1/2-x,y,-z
-x,-y,-z
x,1/2+y,-z
-x,y,1/2+z
1/2+x,-y,z
1/2+x,1/2+y,1/2+z
1/2-x,-y,1/2+z
1/2+x,1/2-y,-z
-x,1/2+y,1/2-z
1/2-x,1/2-y,1/2-z
1/2+x,y,1/2-z
1/2-x,1/2+y,z
x,1/2-y,1/2+z
loop_
_atom_site_type_symbol
_atom_site_label
_atom_site_fract_x
_atom_site_fract_y
_atom_site_fract_z
Si Si1 0.650769 0.263429 0.723483
Si Si2 0.893258 0.637214 0.488059
Si Si3 0.677758 0.605705 0.873039
Si Si4 0.158852 0.999996 0.574518
Si Si5 0.389049 0.156976 0.508702
Si Si6 0.465356 0.045267 0.877913
Si Si7 0.490847 0.391478 0.765404
O O1 0.750000 0.250000 0.750000
O O2 0.675924 0.302856 0.664100
O O3 0.588305 0.346034 0.748233
O O4 0.588169 0.171372 0.735696
O O5 0.832234 0.590175 0.535801
O O6 0.865370 0.743906 0.483065
O O7 0.907818 0.587822 0.429348
O O8 0.000052 0.641463 0.508976
O O9 0.768150 0.539996 0.882164
O O10 0.647615 0.641896 0.931689
O O11 0.600647 0.532636 0.852659
O O12 0.152527 0.079763 0.529663
O O13 0.057522 0.995544 0.600593
O O14 0.503222 0.113958 0.831246
O O15 0.478764 0.500000 0.750000
#
# Coordination Sequence:
#
# PCOD9531457 Si02
#       7
#    16  16  16  16  16  16  16
#     4  11  27  49  72 107 144 181 251 319 372 444
#     4  10  21  39  69 100 141 188 228 293 358 439
#     4  12  23  43  70 100 144 191 241 298 366 449
#     4  11  22  42  65 103 144 185 227 299 358 436
#     4  10  21  39  65 102 144 179 240 287 355 442
#     4  11  22  44  72  95 137 188 237 292 367 439
#     4  11  25  48  75 102 140 191 247 313 379 439
#
# _framework density 21.939485999999999
#
# number of rings (size 3 to 8) (size 9 to 14) (size 15 to 20)
#    0.000    1.143    4.286    2.143    0.000    9.714 
#   10.286    0.000    0.000    0.000    0.000    0.000 
#    0.000    0.000    0.000    0.000    0.000    0.000 
#
# Total GULP energy -312436.394271 kJ/mol
# GULP energy per Si atom -5579.221326 kJ/mol
# Density = 2.188955 g / cm^3
# Si number density = 21.939486 Si / 1000 Ang^3
#
#
#
# Elastic Constant Matrix: (Units=GPa)
#
#
# Indices 1 2 3 4 5 6 
#
# 1 84.1489 22.3035 22.9872 0.0000 0.0000 0.0000
# 2 22.3035 117.2946 25.1287 0.0000 0.0000 0.0000
# 3 22.9872 25.1287 55.2745 0.0000 0.0000 0.0000
# 4 0.0000 0.0000 0.0000 31.9118 0.0000 0.0000
# 5 0.0000 0.0000 0.0000 0.0000 21.1442 0.0000
# 6 0.0000 0.0000 0.0000 0.0000 0.0000 6.8838
#
#
#
# Elastic Compliance Matrix: (Units=1/GPa)
#
#
# Indices 1 2 3 4 5 6 
#
# 1 0.013650 -0.001528 -0.004982 0.000000 0.000000 0.000000
# 2 -0.001528 0.009617 -0.003736 0.000000 0.000000 0.000000
# 3 -0.004982 -0.003736 0.021862 0.000000 0.000000 0.000000
# 4 0.000000 0.000000 0.000000 0.031336 0.000000 0.000000
# 5 0.000000 0.000000 0.000000 0.000000 0.047294 0.000000
# 6 0.000000 0.000000 0.000000 0.000000 0.000000 0.145269
#
#
# Mechanical properties :
#
#
# Convention : Reuss Voigt Hill
#
# Bulk Modulus (GPa) = 40.59177 44.17299 42.38238
# Shear Modulus (GPa) = 16.79364 24.40786 20.60075
#
# Velocity S-wave (km/s) = 2.76968 3.33905 3.06760
# Velocity P-wave (km/s) = 5.36377 5.91974 5.64860
#
# Compressibility (1/GPa) = 0.02463553
#
# Stress axis : x y z
#
# Youngs Moduli (GPa) = 73.26202 103.98706 45.74161
#
# Poissons Ratio (x) = 0.15891 0.22787
# Poissons Ratio (y) = 0.11196 0.17091
# Poissons Ratio (z) = 0.36498 0.38853
#
# Static dielectric constant tensor:
#      x y z
#    x 1.516360 0.000000 0.000000 
#    y 0.000000 1.817620 0.000000 
#    z 0.000000 0.000000 1.909900 
# 
# From -- ./inp_files/29560.got.cif
#   From: 2010.05.17/outbox.cif.g08.bks.cpg/sg73_15_cif.got.tgz:29560.got - 2010.06.03 17:35:07.
