data_PCOD9531960
_publ_section_title
;
Structure prediction by ZEFSAII (Michael W. Deem and Ramdas Pophale) SiO2 
 PCOD9531960
Probable space group: I B C A 
;
_chemical_formula_sum "Si O2"
_cell_formula_units_Z 88
_cell_length_a 13.330033
_cell_length_b 18.371545
_cell_length_c 14.533352
_cell_angle_alpha 90.000000
_cell_angle_beta 90.000000
_cell_angle_gamma 90.000000
_cell_volume 3559.120547
_symmetry_space_group_name_H-M "I B C A "
_symmetry_group_IT_number 73
_symmetry_cell_setting 'orthorhombic'
loop_
_space_group_symop_operation_xyz
x,y,z
-x,1/2-y,z
x,-y,1/2-z
1/2-x,y,-z
-x,-y,-z
x,1/2+y,-z
-x,y,1/2+z
1/2+x,-y,z
1/2+x,1/2+y,1/2+z
1/2-x,-y,1/2+z
1/2+x,1/2-y,-z
-x,1/2+y,1/2-z
1/2-x,1/2-y,1/2-z
1/2+x,y,1/2-z
1/2-x,1/2+y,z
x,1/2-y,1/2+z
loop_
_atom_site_type_symbol
_atom_site_label
_atom_site_fract_x
_atom_site_fract_y
_atom_site_fract_z
Si Si1 0.956804 0.969668 0.350212
Si Si2 0.536374 0.390579 0.624166
Si Si3 0.000000 0.750000 0.110116
Si Si4 0.059026 0.675389 0.824830
Si Si5 0.752377 0.401645 0.608972
Si Si6 0.735273 0.230962 0.608786
O O1 0.843940 0.942565 0.346973
O O2 0.022419 0.899067 0.372275
O O3 0.986550 0.000000 0.250000
O O4 0.964991 0.044739 0.405744
O O5 0.535657 0.323073 0.554327
O O6 0.528678 0.340075 0.717032
O O7 0.643434 0.427242 0.639114
O O8 0.882034 0.778207 0.134384
O O9 0.177795 0.686705 0.838308
O O10 0.000000 0.750000 0.849063
O O11 0.750000 0.412539 0.500000
O O12 0.760128 0.315730 0.626826
O O13 0.750000 0.216518 0.500000
#
# Coordination Sequence:
#
# PCOD9531960 Si02
#       6
#    16  16   8  16  16  16
#     4  10  23  40  64  98 134 172 227 287 337 410
#     4  10  23  40  62  94 131 172 229 284 342 411
#     4  10  22  40  58  92 128 174 226 278 342 404
#     4  11  21  39  68  98 126 178 225 278 341 405
#     4  10  22  41  64  95 135 179 217 285 353 410
#     4  10  23  39  67  99 137 181 226 284 339 422
#
# _framework density 24.725209
#
# number of rings (size 3 to 8) (size 9 to 14) (size 15 to 20)
#    0.000    1.818    2.727    0.000    1.273   11.636 
#    0.000    1.818    0.000    0.000    0.000    0.000 
#    0.000    0.000    0.000    0.000    0.000    0.000 
#
# Total GULP energy -245215.158474 kJ/mol
# GULP energy per Si atom -5573.071784 kJ/mol
# Density = 2.466893 g / cm^3
# Si number density = 24.725209 Si / 1000 Ang^3
#
#
#
# Elastic Constant Matrix: (Units=GPa)
#
#
# Indices 1 2 3 4 5 6 
#
# 1 207.9809 81.0098 27.2541 0.0000 0.0000 0.0000
# 2 81.0098 125.6501 27.5824 0.0001 -0.0001 0.0000
# 3 27.2541 27.5824 77.8800 0.0002 -0.0001 0.0000
# 4 0.0000 0.0001 0.0002 38.0024 -0.0001 0.0000
# 5 0.0000 -0.0001 -0.0001 -0.0001 60.3425 0.0000
# 6 0.0000 0.0000 0.0000 0.0000 0.0000 37.1746
#
#
#
# Elastic Compliance Matrix: (Units=1/GPa)
#
#
# Indices 1 2 3 4 5 6 
#
# 1 0.006472 -0.003986 -0.000853 0.000000 0.000000 0.000000
# 2 -0.003986 0.011084 -0.002531 0.000000 0.000000 0.000000
# 3 -0.000853 -0.002531 0.014035 0.000000 0.000000 0.000000
# 4 0.000000 0.000000 0.000000 0.026314 0.000000 0.000000
# 5 0.000000 0.000000 0.000000 0.000000 0.016572 0.000000
# 6 0.000000 0.000000 0.000000 0.000000 0.000000 0.026900
#
#
# Mechanical properties :
#
#
# Convention : Reuss Voigt Hill
#
# Bulk Modulus (GPa) = 59.34065 75.91150 67.62607
# Shear Modulus (GPa) = 41.07302 45.48153 43.27728
#
# Velocity S-wave (km/s) = 4.08018 4.29357 4.18823
# Velocity P-wave (km/s) = 6.80068 7.43965 7.12733
#
# Compressibility (1/GPa) = 0.01685185
#
# Stress axis : x y z
#
# Youngs Moduli (GPa) = 154.50291 90.22226 71.24927
#
# Poissons Ratio (x) = 0.35959 0.06081
# Poissons Ratio (y) = 0.61578 0.18031
# Poissons Ratio (z) = 0.13186 0.22833
#
# Static dielectric constant tensor:
#      x y z
#    x 2.098840 0.000000 0.000000 
#    y 0.000000 2.501510 0.000000 
#    z 0.000000 0.000000 2.706330 
# 
# From -- ./inp_files/21280.got.cif
#   From: 2010.05.17/outbox.cif.g08.bks.cpg/sg73_11_cif.got.tgz:21280.got - 2010.06.03 17:35:07.
