data_PCOD9531577
_publ_section_title
;
Structure prediction by ZEFSAII (Michael W. Deem and Ramdas Pophale) SiO2 
 PCOD9531577
Probable space group: I B C A 
;
_chemical_formula_sum "Si O2"
_cell_formula_units_Z 72
_cell_length_a 5.086135
_cell_length_b 21.777196
_cell_length_c 28.597681
_cell_angle_alpha 90.000000
_cell_angle_beta 90.000000
_cell_angle_gamma 90.000000
_cell_volume 3167.529445
_symmetry_space_group_name_H-M "I B C A "
_symmetry_group_IT_number 73
_symmetry_cell_setting 'orthorhombic'
loop_
_space_group_symop_operation_xyz
x,y,z
-x,1/2-y,z
x,-y,1/2-z
1/2-x,y,-z
-x,-y,-z
x,1/2+y,-z
-x,y,1/2+z
1/2+x,-y,z
1/2+x,1/2+y,1/2+z
1/2-x,-y,1/2+z
1/2+x,1/2-y,-z
-x,1/2+y,1/2-z
1/2-x,1/2-y,1/2-z
1/2+x,y,1/2-z
1/2-x,1/2+y,z
x,1/2-y,1/2+z
loop_
_atom_site_type_symbol
_atom_site_label
_atom_site_fract_x
_atom_site_fract_y
_atom_site_fract_z
Si Si1 0.500000 0.250000 0.529986
Si Si2 0.750000 0.043870 0.000000
Si Si3 0.593202 0.868499 0.414452
Si Si4 0.684572 0.068932 0.731459
Si Si5 0.500000 0.750000 0.714922
Si Si6 0.417934 0.369221 0.351938
O O1 0.250000 0.274295 0.500000
O O2 0.377256 0.197957 0.562383
O O3 0.814610 0.085753 0.955196
O O4 0.500000 0.000000 0.000000
O O5 0.297944 0.868426 0.393549
O O6 0.796632 0.879531 0.372948
O O7 0.399060 0.098978 0.734118
O O8 0.816483 0.076253 0.681657
O O9 0.635124 0.000000 0.750000
O O10 0.750000 0.750000 0.750000
O O11 0.558721 0.692136 0.680002
#
# Coordination Sequence:
#
# PCOD9531577 Si02
#       6
#     8   8  16  16   8  16
#     4  12  24  44  78 104 140 186 236 300 372 436
#     4  12  28  54  72 102 154 204 240 304 392 462
#     4  12  26  47  74 109 144 188 246 307 370 443
#     4  10  21  41  62  89 132 176 229 285 339 405
#     4  12  24  42  72 104 156 198 226 296 394 450
#     4  12  24  43  69 108 141 184 247 300 353 444
#
# _framework density 22.730649
#
# number of rings (size 3 to 8) (size 9 to 14) (size 15 to 20)
#    0.000    0.444    1.111    8.000    1.556    0.000 
#   24.000    0.000    0.000    0.000    0.000    0.000 
#    0.000    0.000    0.000    0.000    0.000    0.000 
#
# Total GULP energy -201048.010710 kJ/mol
# GULP energy per Si atom -5584.666964 kJ/mol
# Density = 2.267891 g / cm^3
# Si number density = 22.730649 Si / 1000 Ang^3
#
#
#
# Elastic Constant Matrix: (Units=GPa)
#
#
# Indices 1 2 3 4 5 6 
#
# 1 142.7615 8.9543 17.4122 0.0000 0.0000 0.0000
# 2 8.9543 108.2105 50.2003 0.0000 0.0000 0.0000
# 3 17.4122 50.2003 112.2175 0.0000 0.0000 0.0000
# 4 0.0000 0.0000 0.0000 -33.0612 0.0000 0.0000
# 5 0.0000 0.0000 0.0000 0.0000 96.0554 0.0000
# 6 0.0000 0.0000 0.0000 0.0000 0.0000 26.3540
#
#
#
# Elastic Compliance Matrix: (Units=1/GPa)
#
#
# Indices 1 2 3 4 5 6 
#
# 1 0.007141 -0.000097 -0.001065 0.000000 0.000000 0.000000
# 2 -0.000097 0.011663 -0.005202 0.000000 0.000000 0.000000
# 3 -0.001065 -0.005202 0.011404 0.000000 0.000000 0.000000
# 4 0.000000 0.000000 0.000000 -0.030247 0.000000 0.000000
# 5 0.000000 0.000000 0.000000 0.000000 0.010411 0.000000
# 6 0.000000 0.000000 0.000000 0.000000 0.000000 0.037945
#
#
# Mechanical properties :
#
#
# Convention : Reuss Voigt Hill
#
# Bulk Modulus (GPa) = 57.21043 57.36922 57.28982
# Shear Modulus (GPa) = 74.77232 36.97781 55.87507
#
# Velocity S-wave (km/s) = 5.74163 4.03771 4.96334
# Velocity P-wave (km/s) = 8.31737 6.85792 7.62265
#
# Compressibility (1/GPa) = 0.01747933
#
# Stress axis : x y z
#
# Youngs Moduli (GPa) = 140.04395 85.74379 87.69125
#
# Poissons Ratio (x) = 0.00832 0.09335
# Poissons Ratio (y) = 0.01358 0.45619
# Poissons Ratio (z) = 0.14909 0.44606
#
# Static dielectric constant tensor:
#      x y z
#    x 1.912350 0.000000 0.000000 
#    y 0.000000 1.482490 0.000000 
#    z 0.000000 0.000000 1.871490 
# 
# From -- ./inp_files/30867.got.cif
#   From: 2010.05.17/outbox.cif.g08.bks.cpg/sg73_16_cif.got.tgz:30867.got - 2010.06.03 17:35:07.
