data_PCOD9531049
_publ_section_title
;
Structure prediction by ZEFSAII (Michael W. Deem and Ramdas Pophale) SiO2 
 PCOD9531049
Probable space group: I B C A 
;
_chemical_formula_sum "Si O2"
_cell_formula_units_Z 80
_cell_length_a 12.428231
_cell_length_b 22.136023
_cell_length_c 13.619011
_cell_angle_alpha 90.000000
_cell_angle_beta 90.000000
_cell_angle_gamma 90.000000
_cell_volume 3746.748006
_symmetry_space_group_name_H-M "I B C A "
_symmetry_group_IT_number 73
_symmetry_cell_setting 'orthorhombic'
loop_
_space_group_symop_operation_xyz
x,y,z
-x,1/2-y,z
x,-y,1/2-z
1/2-x,y,-z
-x,-y,-z
x,1/2+y,-z
-x,y,1/2+z
1/2+x,-y,z
1/2+x,1/2+y,1/2+z
1/2-x,-y,1/2+z
1/2+x,1/2-y,-z
-x,1/2+y,1/2-z
1/2-x,1/2-y,1/2-z
1/2+x,y,1/2-z
1/2-x,1/2+y,z
x,1/2-y,1/2+z
loop_
_atom_site_type_symbol
_atom_site_label
_atom_site_fract_x
_atom_site_fract_y
_atom_site_fract_z
Si Si1 0.578451 0.556151 0.482629
Si Si2 0.369501 0.172479 0.753758
Si Si3 0.743161 0.744028 0.607677
Si Si4 0.763957 0.947770 0.830992
Si Si5 0.039728 0.317794 0.410510
O O1 0.500000 0.500000 0.500000
O O2 0.659844 0.549461 0.573324
O O3 0.645164 0.553318 0.380149
O O4 0.523104 0.622961 0.477602
O O5 0.287396 0.207045 0.681900
O O6 0.365058 0.213410 0.852351
O O7 0.314684 0.109599 0.776209
O O8 0.480155 0.170929 0.693735
O O9 0.750000 0.771060 0.500000
O O10 0.832507 0.690734 0.602549
O O11 0.768768 0.000000 0.750000
O O12 0.000000 0.250000 0.441743
#
# Coordination Sequence:
#
# PCOD9531049 Si02
#       5
#    16  16  16  16  16
#     4  11  24  45  73  99 138 183 234 296 346 420
#     4  10  21  39  66  97 135 176 227 279 344 414
#     4  10  20  41  66  96 140 182 221 287 345 406
#     4  11  24  45  70  97 137 184 231 287 361 414
#     4  10  21  40  68 105 137 176 234 276 349 418
#
# _framework density 21.351849999999999
#
# number of rings (size 3 to 8) (size 9 to 14) (size 15 to 20)
#    0.000    1.600    2.000    2.400    0.000    2.400 
#   10.800   30.000    0.000    0.000    0.000    0.000 
#    0.000    0.000    0.000    0.000    0.000    0.000 
#
# Total GULP energy -222963.177987 kJ/mol
# GULP energy per Si atom -5574.079450 kJ/mol
# Density = 2.130325 g / cm^3
# Si number density = 21.351850 Si / 1000 Ang^3
#
#
#
# Elastic Constant Matrix: (Units=GPa)
#
#
# Indices 1 2 3 4 5 6 
#
# 1 53.1173 15.4008 8.6807 0.0000 0.0000 0.0000
# 2 15.4008 121.5756 43.1463 0.0001 0.0000 0.0000
# 3 8.6807 43.1463 105.6837 0.0002 0.0000 0.0000
# 4 0.0000 0.0001 0.0002 41.1694 0.0000 0.0000
# 5 0.0000 0.0000 0.0000 0.0000 34.8645 0.0000
# 6 0.0000 0.0000 0.0000 0.0000 0.0000 19.4010
#
#
#
# Elastic Compliance Matrix: (Units=1/GPa)
#
#
# Indices 1 2 3 4 5 6 
#
# 1 0.019588 -0.002234 -0.000697 0.000000 0.000000 0.000000
# 2 -0.002234 0.009874 -0.003848 0.000000 0.000000 0.000000
# 3 -0.000697 -0.003848 0.011090 0.000000 0.000000 0.000000
# 4 0.000000 0.000000 0.000000 0.024290 0.000000 0.000000
# 5 0.000000 0.000000 0.000000 0.000000 0.028683 0.000000
# 6 0.000000 0.000000 0.000000 0.000000 0.000000 0.051544
#
#
# Mechanical properties :
#
#
# Convention : Reuss Voigt Hill
#
# Bulk Modulus (GPa) = 37.04388 46.09248 41.56818
# Shear Modulus (GPa) = 29.82878 33.29689 31.56284
#
# Velocity S-wave (km/s) = 3.74172 3.95326 3.84894
# Velocity P-wave (km/s) = 6.00451 6.51703 6.26601
#
# Compressibility (1/GPa) = 0.02699502
#
# Stress axis : x y z
#
# Youngs Moduli (GPa) = 51.05204 101.27809 90.16939
#
# Poissons Ratio (x) = 0.22626 0.06284
# Poissons Ratio (y) = 0.11405 0.34693
# Poissons Ratio (z) = 0.03558 0.38967
#
# Static dielectric constant tensor:
#      x y z
#    x 1.822350 0.000000 0.000000 
#    y 0.000000 1.799600 0.000000 
#    z 0.000000 0.000000 1.892970 
# 
# From -- ./inp_files/16867.got.cif
#   From: 2010.05.17/outbox.cif.g08.bks.cpg/sg73_9_cif.got.tgz:16867.got - 2010.06.03 17:35:07.
