data_PCOD9531766
_publ_section_title
;
Structure prediction by ZEFSAII (Michael W. Deem and Ramdas Pophale) SiO2 
 PCOD9531766
Probable space group: I B C A 
;
_chemical_formula_sum "Si O2"
_cell_formula_units_Z 80
_cell_length_a 9.520580
_cell_length_b 16.177016
_cell_length_c 20.963174
_cell_angle_alpha 90.000000
_cell_angle_beta 90.000000
_cell_angle_gamma 90.000000
_cell_volume 3228.634334
_symmetry_space_group_name_H-M "I B C A "
_symmetry_group_IT_number 73
_symmetry_cell_setting 'orthorhombic'
loop_
_space_group_symop_operation_xyz
x,y,z
-x,1/2-y,z
x,-y,1/2-z
1/2-x,y,-z
-x,-y,-z
x,1/2+y,-z
-x,y,1/2+z
1/2+x,-y,z
1/2+x,1/2+y,1/2+z
1/2-x,-y,1/2+z
1/2+x,1/2-y,-z
-x,1/2+y,1/2-z
1/2-x,1/2-y,1/2-z
1/2+x,y,1/2-z
1/2-x,1/2+y,z
x,1/2-y,1/2+z
loop_
_atom_site_type_symbol
_atom_site_label
_atom_site_fract_x
_atom_site_fract_y
_atom_site_fract_z
Si Si1 0.574955 0.164330 0.154004
Si Si2 0.107748 0.923589 0.417277
Si Si3 0.618700 0.909138 0.473318
Si Si4 0.334048 0.769968 0.648168
Si Si5 0.644670 0.918363 0.225456
O O1 0.500000 0.250000 0.165145
O O2 0.533950 0.128433 0.085650
O O3 0.739961 0.188860 0.147019
O O4 0.551244 0.105863 0.214062
O O5 0.179871 0.833363 0.412023
O O6 0.981050 0.919658 0.466443
O O7 0.183102 0.006516 0.441714
O O8 0.072117 0.937840 0.342533
O O9 0.750000 0.858203 0.500000
O O10 0.500000 0.750000 0.654756
O O11 0.284722 0.831267 0.705633
O O12 0.724894 0.000000 0.250000
#
# Coordination Sequence:
#
# PCOD9531766 Si02
#       5
#    16  16  16  16  16
#     4  12  25  42  68 106 137 175 227 280 339 405
#     4   9  23  43  65  93 131 177 228 271 332 396
#     4  11  23  44  68  94 136 181 230 274 333 412
#     4  10  22  43  68  97 139 174 221 279 339 391
#     4  10  21  46  69  99 132 182 225 280 331 405
#
# _framework density 24.778276999999999
#
# number of rings (size 3 to 8) (size 9 to 14) (size 15 to 20)
#    1.200    0.400    2.000    2.400    0.000    5.600 
#    0.000    4.000    0.000    0.000    0.000    0.000 
#    0.000    0.000    0.000    0.000    0.000    0.000 
#
# Total GULP energy -222721.033511 kJ/mol
# GULP energy per Si atom -5568.025838 kJ/mol
# Density = 2.472188 g / cm^3
# Si number density = 24.778277 Si / 1000 Ang^3
#
#
#
# Elastic Constant Matrix: (Units=GPa)
#
#
# Indices 1 2 3 4 5 6 
#
# 1 61.2545 -0.7481 28.4782 0.0000 0.0000 0.0000
# 2 -0.7481 83.3492 45.1244 0.0000 0.0000 0.0000
# 3 28.4782 45.1244 213.7634 0.0000 0.0000 0.0000
# 4 0.0000 0.0000 0.0000 -53.5978 0.0000 0.0000
# 5 0.0000 0.0000 0.0000 0.0000 10.2326 0.0000
# 6 0.0000 0.0000 0.0000 0.0000 0.0000 15.5882
#
#
#
# Elastic Compliance Matrix: (Units=1/GPa)
#
#
# Indices 1 2 3 4 5 6 
#
# 1 0.017593 0.001611 -0.002684 0.000000 0.000000 0.000000
# 2 0.001611 0.013693 -0.003105 0.000000 0.000000 0.000000
# 3 -0.002684 -0.003105 0.005691 0.000000 0.000000 0.000000
# 4 0.000000 0.000000 0.000000 -0.018657 0.000000 0.000000
# 5 0.000000 0.000000 0.000000 0.000000 0.097727 0.000000
# 6 0.000000 0.000000 0.000000 0.000000 0.000000 0.064151
#
#
# Mechanical properties :
#
#
# Convention : Reuss Voigt Hill
#
# Bulk Modulus (GPa) = 34.93947 56.00844 45.47396
# Shear Modulus (GPa) = 25.24057 13.47880 19.35968
#
# Velocity S-wave (km/s) = 3.19510 2.33486 2.79824
# Velocity P-wave (km/s) = 5.26717 5.47007 5.36958
#
# Compressibility (1/GPa) = 0.02862092
#
# Stress axis : x y z
#
# Youngs Moduli (GPa) = 56.84165 73.02849 175.71290
#
# Poissons Ratio (x) = -0.11764 0.47158
# Poissons Ratio (y) = -0.09157 0.54562
# Poissons Ratio (z) = 0.15255 0.22677
#
# Static dielectric constant tensor:
#      x y z
#    x 2.078700 0.000000 0.000000 
#    y 0.000000 2.037930 0.000000 
#    z 0.000000 0.000000 1.966490 
# 
# From -- ./inp_files/28782.got.cif
#   From: 2010.05.17/outbox.cif.g08.bks.cpg/sg73_15_cif.got.tgz:28782.got - 2010.06.03 17:35:07.
