data_PCOD9531098
_publ_section_title
;
Structure prediction by ZEFSAII (Michael W. Deem and Ramdas Pophale) SiO2 
 PCOD9531098
Probable space group: I B C A 
;
_chemical_formula_sum "Si O2"
_cell_formula_units_Z 112
_cell_length_a 24.210422
_cell_length_b 15.055860
_cell_length_c 13.886870
_cell_angle_alpha 90.000000
_cell_angle_beta 90.000000
_cell_angle_gamma 90.000000
_cell_volume 5061.885266
_symmetry_space_group_name_H-M "I B C A "
_symmetry_group_IT_number 73
_symmetry_cell_setting 'orthorhombic'
loop_
_space_group_symop_operation_xyz
x,y,z
-x,1/2-y,z
x,-y,1/2-z
1/2-x,y,-z
-x,-y,-z
x,1/2+y,-z
-x,y,1/2+z
1/2+x,-y,z
1/2+x,1/2+y,1/2+z
1/2-x,-y,1/2+z
1/2+x,1/2-y,-z
-x,1/2+y,1/2-z
1/2-x,1/2-y,1/2-z
1/2+x,y,1/2-z
1/2-x,1/2+y,z
x,1/2-y,1/2+z
loop_
_atom_site_type_symbol
_atom_site_label
_atom_site_fract_x
_atom_site_fract_y
_atom_site_fract_z
Si Si1 0.577007 0.426012 0.046654
Si Si2 0.311304 0.261301 0.216147
Si Si3 0.462558 0.105728 0.546855
Si Si4 0.500000 0.750000 0.110940
Si Si5 0.320242 0.933599 0.333299
Si Si6 0.250000 0.494756 0.500000
Si Si7 0.118278 0.789128 0.384655
Si Si8 0.841188 0.646461 0.030592
O O1 0.521406 0.392744 0.101631
O O2 0.623018 0.464134 0.116749
O O3 0.554184 0.505888 0.981606
O O4 0.606150 0.354445 0.975657
O O5 0.250000 0.250000 0.250000
O O6 0.335324 0.162515 0.207671
O O7 0.343491 0.317952 0.296494
O O8 0.308852 0.297955 0.109121
O O9 0.480616 0.167743 0.456649
O O10 0.402648 0.139624 0.578730
O O11 0.442736 0.725835 0.160519
O O12 0.303390 0.000000 0.250000
O O13 0.271000 0.934794 0.411526
O O14 0.196704 0.558961 0.518124
O O15 0.146655 0.701908 0.433200
#
# Coordination Sequence:
#
# PCOD9531098 Si02
#       8
#    16  16  16   8  16   8  16  16
#     4  10  20  42  68  95 134 179 216 284 353 407
#     4  12  27  41  64  98 134 175 230 285 330 420
#     4   9  19  37  68  98 130 176 226 274 341 415
#     4   8  18  36  66  92 130 174 216 276 330 408
#     4  12  26  45  67 103 132 176 234 284 349 420
#     4  12  26  44  70  92 136 188 220 290 356 410
#     4  10  21  42  63  94 133 172 222 274 345 404
#     4  11  21  42  65  95 127 178 224 276 340 412
#
# _framework density 22.126145000000001
#
# number of rings (size 3 to 8) (size 9 to 14) (size 15 to 20)
#    0.000    1.429    2.857    2.571    4.000    0.571 
#    2.571    0.714    0.000    0.000    0.000    0.000 
#    0.000    0.000    0.000    0.000    0.000    0.000 
#
# Total GULP energy -311970.776799 kJ/mol
# GULP energy per Si atom -5570.906729 kJ/mol
# Density = 2.207578 g / cm^3
# Si number density = 22.126145 Si / 1000 Ang^3
#
#
#
# Elastic Constant Matrix: (Units=GPa)
#
#
# Indices 1 2 3 4 5 6 
#
# 1 110.0475 -2.6615 31.0392 0.0000 0.0000 0.0000
# 2 -2.6615 48.5797 -4.7908 0.0000 0.0000 0.0000
# 3 31.0392 -4.7908 57.2413 0.0000 0.0000 0.0000
# 4 0.0000 0.0000 0.0000 20.6291 0.0000 0.0000
# 5 0.0000 0.0000 0.0000 0.0000 5.8666 0.0000
# 6 0.0000 0.0000 0.0000 0.0000 0.0000 37.8686
#
#
#
# Elastic Compliance Matrix: (Units=1/GPa)
#
#
# Indices 1 2 3 4 5 6 
#
# 1 0.010728 0.000014 -0.005816 0.000000 0.000000 0.000000
# 2 0.000014 0.020756 0.001729 0.000000 0.000000 0.000000
# 3 -0.005816 0.001729 0.020768 0.000000 0.000000 0.000000
# 4 0.000000 0.000000 0.000000 0.048475 0.000000 0.000000
# 5 0.000000 0.000000 0.000000 0.000000 0.170457 0.000000
# 6 0.000000 0.000000 0.000000 0.000000 0.000000 0.026407
#
#
# Mechanical properties :
#
#
# Convention : Reuss Voigt Hill
#
# Bulk Modulus (GPa) = 22.67187 29.22696 25.94941
# Shear Modulus (GPa) = 15.60359 25.69162 20.64761
#
# Velocity S-wave (km/s) = 2.65846 3.41125 3.05811
# Velocity P-wave (km/s) = 4.43758 5.36222 4.92166
#
# Compressibility (1/GPa) = 0.04410752
#
# Stress axis : x y z
#
# Youngs Moduli (GPa) = 93.21634 48.17873 48.15016
#
# Poissons Ratio (x) = -0.00068 0.28004
# Poissons Ratio (y) = -0.00132 -0.08327
# Poissons Ratio (z) = 0.54214 -0.08332
#
# Static dielectric constant tensor:
#      x y z
#    x 1.982500 0.000000 0.000000 
#    y 0.000000 1.897620 0.000000 
#    z 0.000000 0.000000 1.774790 
# 
# From -- ./inp_files/19449.got.cif
#   From: 2010.05.17/outbox.cif.g08.bks.cpg/sg73_10_cif.got.tgz:19449.got - 2010.06.03 17:35:07.
