data_PCOD9531181
_publ_section_title
;
Structure prediction by ZEFSAII (Michael W. Deem and Ramdas Pophale) SiO2 
 PCOD9531181
Probable space group: I B C A 
;
_chemical_formula_sum "Si O2"
_cell_formula_units_Z 112
_cell_length_a 18.743532
_cell_length_b 26.886508
_cell_length_c 10.621929
_cell_angle_alpha 90.000000
_cell_angle_beta 90.000000
_cell_angle_gamma 90.000000
_cell_volume 5352.901183
_symmetry_space_group_name_H-M "I B C A "
_symmetry_group_IT_number 73
_symmetry_cell_setting 'orthorhombic'
loop_
_space_group_symop_operation_xyz
x,y,z
-x,1/2-y,z
x,-y,1/2-z
1/2-x,y,-z
-x,-y,-z
x,1/2+y,-z
-x,y,1/2+z
1/2+x,-y,z
1/2+x,1/2+y,1/2+z
1/2-x,-y,1/2+z
1/2+x,1/2-y,-z
-x,1/2+y,1/2-z
1/2-x,1/2-y,1/2-z
1/2+x,y,1/2-z
1/2-x,1/2+y,z
x,1/2-y,1/2+z
loop_
_atom_site_type_symbol
_atom_site_label
_atom_site_fract_x
_atom_site_fract_y
_atom_site_fract_z
Si Si1 0.625055 0.837259 0.210815
Si Si2 0.479273 0.614194 0.695930
Si Si3 0.154073 0.828100 0.688324
Si Si4 0.516289 0.443919 0.042539
Si Si5 0.189762 0.263072 0.106994
Si Si6 0.175226 0.090699 0.021100
Si Si7 0.420044 0.269541 0.075173
O O1 0.543606 0.847204 0.165206
O O2 0.669346 0.791889 0.152178
O O3 0.605140 0.818010 0.349095
O O4 0.664013 0.887021 0.161754
O O5 0.409020 0.641063 0.746028
O O6 0.472416 0.587160 0.562198
O O7 0.498920 0.576497 0.814467
O O8 0.208057 0.804983 0.790435
O O9 0.181324 0.862907 0.576534
O O10 0.122669 0.777851 0.628599
O O11 0.601203 0.435527 0.016638
O O12 0.500000 0.500000 0.000000
O O13 0.250000 0.262830 0.000000
O O14 0.110969 0.279100 0.061119
O O15 0.250000 0.062567 0.000000
O O16 0.500000 0.250000 0.080523
#
# Coordination Sequence:
#
# PCOD9531181 Si02
#       7
#    16  16  16  16  16  16  16
#     4  10  21  34  55  82 117 161 208 246 286 349
#     4  10  21  38  63  92 117 153 196 262 313 361
#     4  10  22  36  54  85 120 159 212 251 301 347
#     4  10  22  41  68  96 118 148 194 255 322 390
#     4  11  25  35  52  82 124 176 208 257 295 343
#     4  10  21  39  62  88 120 161 196 244 307 383
#     4  11  22  33  55  80 119 165 215 260 286 331
#
# _framework density 20.923233
#
# number of rings (size 3 to 8) (size 9 to 14) (size 15 to 20)
#    0.000    1.714    2.857    0.857    6.000    1.143 
#    0.000    0.000    0.000   14.571    0.000    0.000 
#    0.000    0.000    0.000    0.000    0.000    0.000 
#
# Total GULP energy -311790.905173 kJ/mol
# GULP energy per Si atom -5567.694735 kJ/mol
# Density = 2.087561 g / cm^3
# Si number density = 20.923233 Si / 1000 Ang^3
#
#
#
# Elastic Constant Matrix: (Units=GPa)
#
#
# Indices 1 2 3 4 5 6 
#
# 1 104.4178 22.0087 35.1264 0.0000 0.0000 0.0000
# 2 22.0087 63.3509 20.8155 0.0000 0.0000 0.0000
# 3 35.1264 20.8155 78.9961 -0.0001 0.0000 0.0000
# 4 0.0000 0.0000 -0.0001 626.6221 0.0000 0.0000
# 5 0.0000 0.0000 0.0000 0.0000 36.4652 0.0000
# 6 0.0000 0.0000 0.0000 0.0000 0.0000 11.4135
#
#
#
# Elastic Compliance Matrix: (Units=1/GPa)
#
#
# Indices 1 2 3 4 5 6 
#
# 1 0.011630 -0.002563 -0.004496 0.000000 0.000000 0.000000
# 2 -0.002563 0.017846 -0.003563 0.000000 0.000000 0.000000
# 3 -0.004496 -0.003563 0.015597 0.000000 0.000000 0.000000
# 4 0.000000 0.000000 0.000000 0.001596 0.000000 0.000000
# 5 0.000000 0.000000 0.000000 0.000000 0.027423 0.000000
# 6 0.000000 0.000000 0.000000 0.000000 0.000000 0.087616
#
#
# Mechanical properties :
#
#
# Convention : Reuss Voigt Hill
#
# Bulk Modulus (GPa) = 41.96535 44.74066 43.35301
# Shear Modulus (GPa) = 26.19257 146.15443 86.17350
#
# Velocity S-wave (km/s) = 3.54198 8.36686 6.42456
# Velocity P-wave (km/s) = 6.06859 10.71302 8.70622
#
# Compressibility (1/GPa) = 0.02382918
#
# Stress axis : x y z
#
# Youngs Moduli (GPa) = 85.98791 56.03452 64.11586
#
# Poissons Ratio (x) = 0.14362 0.28825
# Poissons Ratio (y) = 0.22039 0.22843
# Poissons Ratio (z) = 0.38659 0.19964
#
# Static dielectric constant tensor:
#      x y z
#    x 1.805040 0.000000 0.000000 
#    y 0.000000 1.802480 0.000000 
#    z 0.000000 0.000000 1.885380 
# 
# From -- ./inp_files/13063.got.cif
#   From: 2010.05.17/outbox.cif.g08.bks.cpg/sg73_7_cif.got.tgz:13063.got - 2010.06.03 17:35:07.
