data_PCOD9531172
_publ_section_title
;
Structure prediction by ZEFSAII (Michael W. Deem and Ramdas Pophale) SiO2 
 PCOD9531172
Probable space group: I B C A 
;
_chemical_formula_sum "Si O2"
_cell_formula_units_Z 120
_cell_length_a 9.452024
_cell_length_b 19.665226
_cell_length_c 30.882482
_cell_angle_alpha 90.000000
_cell_angle_beta 90.000000
_cell_angle_gamma 90.000000
_cell_volume 5740.318034
_symmetry_space_group_name_H-M "I B C A "
_symmetry_group_IT_number 73
_symmetry_cell_setting 'orthorhombic'
loop_
_space_group_symop_operation_xyz
x,y,z
-x,1/2-y,z
x,-y,1/2-z
1/2-x,y,-z
-x,-y,-z
x,1/2+y,-z
-x,y,1/2+z
1/2+x,-y,z
1/2+x,1/2+y,1/2+z
1/2-x,-y,1/2+z
1/2+x,1/2-y,-z
-x,1/2+y,1/2-z
1/2-x,1/2-y,1/2-z
1/2+x,y,1/2-z
1/2-x,1/2+y,z
x,1/2-y,1/2+z
loop_
_atom_site_type_symbol
_atom_site_label
_atom_site_fract_x
_atom_site_fract_y
_atom_site_fract_z
Si Si1 0.477952 0.095645 0.091694
Si Si2 0.606384 0.855804 0.492990
Si Si3 0.421337 0.557643 0.574884
Si Si4 0.329573 0.106231 0.808133
Si Si5 0.671237 0.338230 0.896362
Si Si6 0.500000 0.250000 0.950548
Si Si7 0.197797 0.952461 0.153838
Si Si8 0.618949 0.078639 0.763725
O O1 0.573645 0.133506 0.056553
O O2 0.801313 0.055647 0.112265
O O3 0.325242 0.131124 0.092836
O O4 0.552978 0.083343 0.138081
O O5 0.750000 0.814392 0.500000
O O6 0.625430 0.918062 0.527097
O O7 0.488536 0.812188 0.516431
O O8 0.547512 0.607820 0.589978
O O9 0.469018 0.480219 0.572475
O O10 0.334482 0.163052 0.844636
O O11 0.469674 0.106563 0.779158
O O12 0.194966 0.111793 0.777163
O O13 0.325178 0.031889 0.832818
O O14 0.629869 0.266587 0.918188
O O15 0.274320 0.920907 0.195423
O O16 0.596155 0.000000 0.750000
#
# Coordination Sequence:
#
# PCOD9531172 Si02
#       8
#    16  16  16  16  16   8  16  16
#     4  12  22  37  64  97 126 163 212 261 322 394
#     4  11  25  41  64  89 124 165 211 277 311 363
#     4  11  20  39  59  93 132 168 198 255 329 386
#     4  11  21  35  59  91 134 172 208 257 315 385
#     4  11  24  41  67  87 128 175 212 270 310 387
#     4  10  28  48  64  86 120 172 228 252 330 370
#     4  11  19  35  56  91 140 167 200 242 329 396
#     4  10  21  32  54  93 134 171 197 250 314 397
#
# _framework density 20.904764
#
# number of rings (size 3 to 8) (size 9 to 14) (size 15 to 20)
#    0.000    1.067    5.333    1.600    5.600    1.600 
#    0.000    0.000    0.000    0.800    0.000    0.000 
#    0.000    0.000    0.000    0.000    0.000    0.000 
#
# Total GULP energy -334586.495130 kJ/mol
# GULP energy per Si atom -5576.441585 kJ/mol
# Density = 2.085718 g / cm^3
# Si number density = 20.904764 Si / 1000 Ang^3
#
#
#
# Elastic Constant Matrix: (Units=GPa)
#
#
# Indices 1 2 3 4 5 6 
#
# 1 79.3375 1.9485 30.3060 0.0000 0.0000 0.0000
# 2 1.9485 21.3837 11.9766 0.0000 0.0000 0.0000
# 3 30.3060 11.9766 109.6049 0.0000 0.0000 0.0000
# 4 0.0000 0.0000 0.0000 13.7501 0.0000 0.0000
# 5 0.0000 0.0000 0.0000 0.0000 38.8122 0.0000
# 6 0.0000 0.0000 0.0000 0.0000 0.0000 29.3569
#
#
#
# Elastic Compliance Matrix: (Units=1/GPa)
#
#
# Indices 1 2 3 4 5 6 
#
# 1 0.014111 0.000958 -0.004007 0.000000 0.000000 0.000000
# 2 0.000958 0.049878 -0.005715 0.000000 0.000000 0.000000
# 3 -0.004007 -0.005715 0.010856 0.000000 0.000000 0.000000
# 4 0.000000 0.000000 0.000000 0.072727 0.000000 0.000000
# 5 0.000000 0.000000 0.000000 0.000000 0.025765 0.000000
# 6 0.000000 0.000000 0.000000 0.000000 0.000000 0.034064
#
#
# Mechanical properties :
#
#
# Convention : Reuss Voigt Hill
#
# Bulk Modulus (GPa) = 17.44641 33.19872 25.32257
# Shear Modulus (GPa) = 20.48892 27.45683 23.97288
#
# Velocity S-wave (km/s) = 3.13406 3.62805 3.39007
# Velocity P-wave (km/s) = 4.63252 5.78496 5.24052
#
# Compressibility (1/GPa) = 0.05731838
#
# Stress axis : x y z
#
# Youngs Moduli (GPa) = 70.86527 20.04886 92.11506
#
# Poissons Ratio (x) = -0.01921 0.36906
# Poissons Ratio (y) = -0.06790 0.52645
# Poissons Ratio (z) = 0.28392 0.11458
#
# Static dielectric constant tensor:
#      x y z
#    x 1.883330 0.000000 0.000000 
#    y 0.000000 1.786070 0.000000 
#    z 0.000000 0.000000 1.777940 
# 
# From -- ./inp_files/33673.got.cif
#   From: 2010.05.17/outbox.cif.g08.bks.cpg/sg73_17_cif.got.tgz:33673.got - 2010.06.03 17:35:07.
