data_PCOD9531280
_publ_section_title
;
Structure prediction by ZEFSAII (Michael W. Deem and Ramdas Pophale) SiO2 
 PCOD9531280
Probable space group: I B C A 
;
_chemical_formula_sum "Si O2"
_cell_formula_units_Z 80
_cell_length_a 25.640092
_cell_length_b 10.084335
_cell_length_c 15.088913
_cell_angle_alpha 90.000000
_cell_angle_beta 90.000000
_cell_angle_gamma 90.000000
_cell_volume 3901.438794
_symmetry_space_group_name_H-M "I B C A "
_symmetry_group_IT_number 73
_symmetry_cell_setting 'orthorhombic'
loop_
_space_group_symop_operation_xyz
x,y,z
-x,1/2-y,z
x,-y,1/2-z
1/2-x,y,-z
-x,-y,-z
x,1/2+y,-z
-x,y,1/2+z
1/2+x,-y,z
1/2+x,1/2+y,1/2+z
1/2-x,-y,1/2+z
1/2+x,1/2-y,-z
-x,1/2+y,1/2-z
1/2-x,1/2-y,1/2-z
1/2+x,y,1/2-z
1/2-x,1/2+y,z
x,1/2-y,1/2+z
loop_
_atom_site_type_symbol
_atom_site_label
_atom_site_fract_x
_atom_site_fract_y
_atom_site_fract_z
Si Si1 0.312649 0.500000 0.250000
Si Si2 0.985489 0.000000 0.750000
Si Si3 0.398939 0.219463 0.785117
Si Si4 0.369707 0.276052 0.481990
Si Si5 0.450813 0.149068 0.125276
Si Si6 0.301638 0.536393 0.444929
O O1 0.349679 0.626866 0.235887
O O2 0.284741 0.527001 0.342197
O O3 0.948507 0.121819 0.724367
O O4 0.020563 0.020360 0.837096
O O5 0.410477 0.318708 0.705297
O O6 0.389641 0.269076 0.884765
O O7 0.417834 0.338006 0.536660
O O8 0.328601 0.396132 0.469156
O O9 0.343190 0.153568 0.534317
O O10 0.500000 0.250000 0.118883
O O11 0.250000 0.561582 0.500000
#
# Coordination Sequence:
#
# PCOD9531280 Si02
#       6
#     8   8  16  16  16  16
#     4   9  18  42  67  80 130 168 195 256 333 372
#     4   9  20  34  57  88 132 168 215 248 311 378
#     4   9  19  38  58  86 126 172 202 256 314 370
#     4  11  24  41  68  93 129 165 217 262 314 382
#     4  10  21  37  59  91 130 167 212 255 313 379
#     4  11  24  46  67  97 124 166 215 267 322 381
#
# _framework density 20.505254999999998
#
# number of rings (size 3 to 8) (size 9 to 14) (size 15 to 20)
#    0.000    2.000    2.000    0.600    5.600    3.200 
#    3.600    3.000    0.000    0.000    0.000    0.000 
#    0.000    0.000    0.000    0.000    0.000    0.000 
#
# Total GULP energy -223004.205689 kJ/mol
# GULP energy per Si atom -5575.105142 kJ/mol
# Density = 2.045858 g / cm^3
# Si number density = 20.505255 Si / 1000 Ang^3
#
#
#
# Elastic Constant Matrix: (Units=GPa)
#
#
# Indices 1 2 3 4 5 6 
#
# 1 57.6750 -12.4746 29.4962 0.0000 0.0000 0.0000
# 2 -12.4746 32.1426 -7.7197 0.0000 0.0000 0.0000
# 3 29.4962 -7.7197 136.0901 0.0000 0.0000 0.0000
# 4 0.0000 0.0000 0.0000 20.1269 0.0000 0.0000
# 5 0.0000 0.0000 0.0000 0.0000 28.3984 0.0000
# 6 0.0000 0.0000 0.0000 0.0000 0.0000 13.6999
#
#
#
# Elastic Compliance Matrix: (Units=1/GPa)
#
#
# Indices 1 2 3 4 5 6 
#
# 1 0.021007 0.007157 -0.004147 0.000000 0.000000 0.000000
# 2 0.007157 0.033979 0.000376 0.000000 0.000000 0.000000
# 3 -0.004147 0.000376 0.008268 0.000000 0.000000 0.000000
# 4 0.000000 0.000000 0.000000 0.049685 0.000000 0.000000
# 5 0.000000 0.000000 0.000000 0.000000 0.035213 0.000000
# 6 0.000000 0.000000 0.000000 0.000000 0.000000 0.072993
#
#
# Mechanical properties :
#
#
# Convention : Reuss Voigt Hill
#
# Bulk Modulus (GPa) = 14.28018 27.16796 20.72407
# Shear Modulus (GPa) = 21.03343 26.88541 23.95942
#
# Velocity S-wave (km/s) = 3.20622 3.62491 3.42197
# Velocity P-wave (km/s) = 4.54816 5.54959 5.07364
#
# Compressibility (1/GPa) = 0.07002715
#
# Stress axis : x y z
#
# Youngs Moduli (GPa) = 47.60209 29.42968 120.94413
#
# Poissons Ratio (x) = -0.21063 0.50158
# Poissons Ratio (y) = -0.34069 -0.04551
# Poissons Ratio (z) = 0.19741 -0.01107
#
# Static dielectric constant tensor:
#      x y z
#    x 1.697610 0.000000 0.000000 
#    y 0.000000 1.761280 0.000000 
#    z 0.000000 0.000000 1.746920 
# 
# From -- ./inp_files/11046.got.cif
#   From: 2010.05.17/outbox.cif.g08.bks.cpg/sg73_6_cif.got.tgz:11046.got - 2010.06.03 17:35:07.
