data_PCOD9531944
_publ_section_title
;
Structure prediction by ZEFSAII (Michael W. Deem and Ramdas Pophale) SiO2 
 PCOD9531944
Probable space group: I B C A 
;
_chemical_formula_sum "Si O2"
_cell_formula_units_Z 128
_cell_length_a 28.174126
_cell_length_b 21.978493
_cell_length_c 10.310982
_cell_angle_alpha 90.000000
_cell_angle_beta 90.000000
_cell_angle_gamma 90.000000
_cell_volume 6384.816087
_symmetry_space_group_name_H-M "I B C A "
_symmetry_group_IT_number 73
_symmetry_cell_setting 'orthorhombic'
loop_
_space_group_symop_operation_xyz
x,y,z
-x,1/2-y,z
x,-y,1/2-z
1/2-x,y,-z
-x,-y,-z
x,1/2+y,-z
-x,y,1/2+z
1/2+x,-y,z
1/2+x,1/2+y,1/2+z
1/2-x,-y,1/2+z
1/2+x,1/2-y,-z
-x,1/2+y,1/2-z
1/2-x,1/2-y,1/2-z
1/2+x,y,1/2-z
1/2-x,1/2+y,z
x,1/2-y,1/2+z
loop_
_atom_site_type_symbol
_atom_site_label
_atom_site_fract_x
_atom_site_fract_y
_atom_site_fract_z
Si Si1 0.884561 0.184728 0.861210
Si Si2 0.531872 0.365453 0.243030
Si Si3 0.524633 0.965466 0.117790
Si Si4 0.981879 0.314444 0.496654
Si Si5 0.804199 0.350664 0.034324
Si Si6 0.198588 0.788890 0.945266
Si Si7 0.875868 0.566440 0.316131
Si Si8 0.865709 0.682760 0.717163
O O1 0.926444 0.182790 0.966257
O O2 0.887819 0.121434 0.784488
O O3 0.887081 0.247876 0.780445
O O4 0.835908 0.195207 0.936336
O O5 0.516671 0.423843 0.323562
O O6 0.510235 0.318472 0.349486
O O7 0.508039 0.361048 0.101316
O O8 0.587777 0.357846 0.232860
O O9 0.577222 0.937893 0.090569
O O10 0.538019 0.000000 0.250000
O O11 0.500000 0.000000 0.000000
O O12 0.000000 0.250000 0.449078
O O13 0.838828 0.334615 0.914459
O O14 0.750000 0.367186 0.000000
O O15 0.800384 0.282705 0.097049
O O16 0.830344 0.404158 0.112242
O O17 0.174726 0.822980 0.825477
O O18 0.250000 0.804379 0.000000
O O19 0.865727 0.500000 0.250000
#
# Coordination Sequence:
#
# PCOD9531944 Si02
#       8
#    16  16  16  16  16  16  16  16
#     4  11  22  40  62  97 135 166 224 272 339 414
#     4  12  25  39  64  96 138 172 226 273 342 398
#     4  11  26  44  66  90 128 180 232 274 323 397
#     4  12  24  37  60  96 133 177 207 268 340 406
#     4  10  24  42  70 100 134 172 224 280 341 401
#     4  10  22  39  67 102 137 173 216 280 345 405
#     4  11  25  44  71  91 131 182 226 271 332 405
#     4  11  23  38  67 102 133 175 215 286 348 409
#
# _framework density 20.047561999999999
#
# number of rings (size 3 to 8) (size 9 to 14) (size 15 to 20)
#    0.000    1.000    5.000    1.125    7.000    1.500 
#    0.000    0.625    2.750    0.000    0.000    0.000 
#    0.000    0.000    0.000    0.000    0.000    0.000 
#
# Total GULP energy -356528.151749 kJ/mol
# GULP energy per Si atom -5570.752371 kJ/mol
# Density = 2.000193 g / cm^3
# Si number density = 20.047562 Si / 1000 Ang^3
#
#
#
# Elastic Constant Matrix: (Units=GPa)
#
#
# Indices 1 2 3 4 5 6 
#
# 1 134.7510 33.1201 22.9155 0.0000 0.0000 0.0000
# 2 33.1201 58.5565 -2.4997 0.0000 0.0000 0.0000
# 3 22.9155 -2.4997 47.6467 0.0000 0.0000 0.0000
# 4 0.0000 0.0000 0.0000 30.8940 0.0000 0.0000
# 5 0.0000 0.0000 0.0000 0.0000 28.8452 0.0000
# 6 0.0000 0.0000 0.0000 0.0000 0.0000 6.9154
#
#
#
# Elastic Compliance Matrix: (Units=1/GPa)
#
#
# Indices 1 2 3 4 5 6 
#
# 1 0.009656 -0.005672 -0.004941 0.000000 0.000000 0.000000
# 2 -0.005672 0.020448 0.003801 0.000000 0.000000 0.000000
# 3 -0.004941 0.003801 0.023564 0.000000 0.000000 0.000000
# 4 0.000000 0.000000 0.000000 0.032369 0.000000 0.000000
# 5 0.000000 0.000000 0.000000 0.000000 0.034668 0.000000
# 6 0.000000 0.000000 0.000000 0.000000 0.000000 0.144606
#
#
# Mechanical properties :
#
#
# Convention : Reuss Voigt Hill
#
# Bulk Modulus (GPa) = 24.97394 38.66956 31.82175
# Shear Modulus (GPa) = 17.10674 25.82546 21.46610
#
# Velocity S-wave (km/s) = 2.92431 3.59306 3.27579
# Velocity P-wave (km/s) = 4.88738 6.04518 5.49685
#
# Compressibility (1/GPa) = 0.04004173
#
# Stress axis : x y z
#
# Youngs Moduli (GPa) = 103.56705 48.90443 42.43808
#
# Poissons Ratio (x) = 0.27740 0.20970
# Poissons Ratio (y) = 0.58746 -0.16130
# Poissons Ratio (z) = 0.51176 -0.18588
#
# Static dielectric constant tensor:
#      x y z
#    x 2.490960 0.000000 0.000000 
#    y 0.000000 1.534360 0.000000 
#    z 0.000000 0.000000 1.721470 
# 
# From -- ./inp_files/13937.got.cif
#   From: 2010.05.17/outbox.cif.g08.bks.cpg/sg73_7_cif.got.tgz:13937.got - 2010.06.03 17:35:07.
