data_PCOD9531315
_publ_section_title
;
Structure prediction by ZEFSAII (Michael W. Deem and Ramdas Pophale) SiO2 
 PCOD9531315
Probable space group: I B C A 
;
_chemical_formula_sum "Si O2"
_cell_formula_units_Z 56
_cell_length_a 5.187654
_cell_length_b 29.144740
_cell_length_c 13.866137
_cell_angle_alpha 90.000000
_cell_angle_beta 90.000000
_cell_angle_gamma 90.000000
_cell_volume 2096.460453
_symmetry_space_group_name_H-M "I B C A "
_symmetry_group_IT_number 73
_symmetry_cell_setting 'orthorhombic'
loop_
_space_group_symop_operation_xyz
x,y,z
-x,1/2-y,z
x,-y,1/2-z
1/2-x,y,-z
-x,-y,-z
x,1/2+y,-z
-x,y,1/2+z
1/2+x,-y,z
1/2+x,1/2+y,1/2+z
1/2-x,-y,1/2+z
1/2+x,1/2-y,-z
-x,1/2+y,1/2-z
1/2-x,1/2-y,1/2-z
1/2+x,y,1/2-z
1/2-x,1/2+y,z
x,1/2-y,1/2+z
loop_
_atom_site_type_symbol
_atom_site_label
_atom_site_fract_x
_atom_site_fract_y
_atom_site_fract_z
Si Si1 0.195667 0.843663 0.611299
Si Si2 0.416099 0.518125 0.140722
Si Si3 0.695948 0.614488 0.114804
Si Si4 0.500000 0.250000 0.682361
O O1 0.250000 0.854736 0.500000
O O2 0.052035 0.795115 0.618868
O O3 0.010986 0.846998 0.350661
O O4 0.985175 0.878863 0.654633
O O5 0.370799 0.500000 0.250000
O O6 0.130748 0.515974 0.096718
O O7 0.551598 0.567180 0.136504
O O8 0.750000 0.617261 0.000000
O O9 0.750000 0.250000 0.750000
#
# Coordination Sequence:
#
# PCOD9531315 Si02
#       4
#    16  16  16   8
#     4  10  23  44  69  95 130 179 222 269 336 406
#     4  10  21  38  55  88 126 164 217 263 336 398
#     4  10  21  40  65  93 124 169 227 275 323 395
#     4  12  26  46  64 108 142 170 224 284 342 412
#
# _framework density 26.711690999999998
#
# number of rings (size 3 to 8) (size 9 to 14) (size 15 to 20)
#    0.000    1.714    0.000    3.429    0.000    5.714 
#   30.857    0.000    0.000    0.000    0.000    0.000 
#    0.000    0.000    0.000    0.000    0.000    0.000 
#
# Total GULP energy -156532.589489 kJ/mol
# GULP energy per Si atom -5590.449625 kJ/mol
# Density = 2.665089 g / cm^3
# Si number density = 26.711691 Si / 1000 Ang^3
#
#
#
# Elastic Constant Matrix: (Units=GPa)
#
#
# Indices 1 2 3 4 5 6 
#
# 1 246.8430 54.4981 12.0633 0.0000 0.0000 0.0000
# 2 54.4981 125.2254 -25.4612 0.0000 0.0000 0.0000
# 3 12.0633 -25.4612 88.4705 0.0000 0.0000 0.0000
# 4 0.0000 0.0000 0.0000 34.5127 0.0000 0.0000
# 5 0.0000 0.0000 0.0000 0.0000 21.1775 0.0000
# 6 0.0000 0.0000 0.0000 0.0000 0.0000 49.6035
#
#
#
# Elastic Compliance Matrix: (Units=1/GPa)
#
#
# Indices 1 2 3 4 5 6 
#
# 1 0.004615 -0.002269 -0.001282 0.000000 0.000000 0.000000
# 2 -0.002269 0.009598 0.003072 0.000000 0.000000 0.000000
# 3 -0.001282 0.003072 0.012362 0.000000 0.000000 0.000000
# 4 0.000000 0.000000 0.000000 0.028975 0.000000 0.000000
# 5 0.000000 0.000000 0.000000 0.000000 0.047220 0.000000
# 6 0.000000 0.000000 0.000000 0.000000 0.000000 0.020160
#
#
# Mechanical properties :
#
#
# Convention : Reuss Voigt Hill
#
# Bulk Modulus (GPa) = 39.03997 60.30439 49.67218
# Shear Modulus (GPa) = 37.75666 49.02130 43.38898
#
# Velocity S-wave (km/s) = 3.76372 4.28857 4.03469
# Velocity P-wave (km/s) = 5.79089 6.86640 6.35145
#
# Compressibility (1/GPa) = 0.02561477
#
# Stress axis : x y z
#
# Youngs Moduli (GPa) = 216.69461 104.19257 80.89301
#
# Poissons Ratio (x) = 0.23642 0.10373
# Poissons Ratio (y) = 0.49170 -0.24846
# Poissons Ratio (z) = 0.27786 -0.32003
#
# Static dielectric constant tensor:
#      x y z
#    x 2.173460 0.000000 0.000000 
#    y 0.000000 2.171880 0.000000 
#    z 0.000000 0.000000 2.238810 
# 
# From -- ./inp_files/20373.got.cif
#   From: 2010.05.17/outbox.cif.g08.bks.cpg/sg73_11_cif.got.tgz:20373.got - 2010.06.03 17:35:07.
