data_PCOD9531330
_publ_section_title
;
Structure prediction by ZEFSAII (Michael W. Deem and Ramdas Pophale) SiO2 
 PCOD9531330
Probable space group: I B C A 
;
_chemical_formula_sum "Si O2"
_cell_formula_units_Z 112
_cell_length_a 16.488741
_cell_length_b 14.656028
_cell_length_c 24.537620
_cell_angle_alpha 90.000000
_cell_angle_beta 90.000000
_cell_angle_gamma 90.000000
_cell_volume 5929.747748
_symmetry_space_group_name_H-M "I B C A "
_symmetry_group_IT_number 73
_symmetry_cell_setting 'orthorhombic'
loop_
_space_group_symop_operation_xyz
x,y,z
-x,1/2-y,z
x,-y,1/2-z
1/2-x,y,-z
-x,-y,-z
x,1/2+y,-z
-x,y,1/2+z
1/2+x,-y,z
1/2+x,1/2+y,1/2+z
1/2-x,-y,1/2+z
1/2+x,1/2-y,-z
-x,1/2+y,1/2-z
1/2-x,1/2-y,1/2-z
1/2+x,y,1/2-z
1/2-x,1/2+y,z
x,1/2-y,1/2+z
loop_
_atom_site_type_symbol
_atom_site_label
_atom_site_fract_x
_atom_site_fract_y
_atom_site_fract_z
Si Si1 0.774609 0.628420 0.616054
Si Si2 0.763413 0.795761 0.308045
Si Si3 0.529139 0.482179 0.897613
Si Si4 0.425496 0.685128 0.635150
Si Si5 0.946230 0.837490 0.072345
Si Si6 0.868033 0.827353 0.955636
Si Si7 0.171092 0.517671 0.685195
O O1 0.757759 0.719968 0.648452
O O2 0.870721 0.626625 0.608445
O O3 0.723693 0.642926 0.559947
O O4 0.733168 0.549139 0.652461
O O5 0.750000 0.750000 0.250000
O O6 0.856784 0.820228 0.319256
O O7 0.707041 0.881733 0.318449
O O8 0.456059 0.415595 0.879578
O O9 0.503623 0.573651 0.928881
O O10 0.581578 0.414720 0.934937
O O11 0.585438 0.506644 0.845637
O O12 0.500000 0.750000 0.653570
O O13 0.391382 0.740046 0.582162
O O14 0.000000 0.750000 0.090339
O O15 0.901413 0.810340 0.015946
O O16 0.165235 0.500000 0.750000
#
# Coordination Sequence:
#
# PCOD9531330 Si02
#       7
#    16  16  16  16  16  16  16
#     4  10  22  40  59  86 119 156 199 238 286 361
#     4  11  21  38  61  81 111 156 195 236 292 346
#     4  10  21  38  58  86 119 150 195 248 289 346
#     4   9  19  38  61  86 111 148 197 243 287 350
#     4  12  22  36  57  91 126 151 189 247 300 336
#     4   9  20  38  64  84 114 160 196 232 295 358
#     4  11  22  40  61  81 114 163 201 239 295 350
#
# _framework density 18.887817999999999
#
# number of rings (size 3 to 8) (size 9 to 14) (size 15 to 20)
#    0.000    1.714    1.429    4.714    0.000    0.000 
#    2.571    0.714    0.000    5.143    0.000    0.000 
#    0.000    0.000    0.000    0.000    0.000    0.000 
#
# Total GULP energy -312088.604919 kJ/mol
# GULP energy per Si atom -5573.010802 kJ/mol
# Density = 1.884483 g / cm^3
# Si number density = 18.887818 Si / 1000 Ang^3
#
#
#
# Elastic Constant Matrix: (Units=GPa)
#
#
# Indices 1 2 3 4 5 6 
#
# 1 62.5948 27.0909 19.2279 0.0000 0.0000 0.0000
# 2 27.0909 133.2136 17.3915 0.0000 0.0000 0.0000
# 3 19.2279 17.3915 64.1139 0.0000 0.0000 0.0000
# 4 0.0000 0.0000 0.0000 22.4965 0.0000 0.0000
# 5 0.0000 0.0000 0.0000 0.0000 16.3849 0.0000
# 6 0.0000 0.0000 0.0000 0.0000 0.0000 20.5787
#
#
#
# Elastic Compliance Matrix: (Units=1/GPa)
#
#
# Indices 1 2 3 4 5 6 
#
# 1 0.018831 -0.003206 -0.004778 0.000000 0.000000 0.000000
# 2 -0.003206 0.008328 -0.001298 0.000000 0.000000 0.000000
# 3 -0.004778 -0.001298 0.017382 0.000000 0.000000 0.000000
# 4 0.000000 0.000000 0.000000 0.044451 0.000000 0.000000
# 5 0.000000 0.000000 0.000000 0.000000 0.061032 0.000000
# 6 0.000000 0.000000 0.000000 0.000000 0.000000 0.048594
#
#
# Mechanical properties :
#
#
# Convention : Reuss Voigt Hill
#
# Bulk Modulus (GPa) = 38.49323 43.03808 40.76565
# Shear Modulus (GPa) = 22.13956 24.97283 23.55620
#
# Velocity S-wave (km/s) = 3.42740 3.64010 3.53535
# Velocity P-wave (km/s) = 6.00724 6.36418 6.18828
#
# Compressibility (1/GPa) = 0.02597860
#
# Stress axis : x y z
#
# Youngs Moduli (GPa) = 53.10427 120.07549 57.53038
#
# Poissons Ratio (x) = 0.38493 0.27487
# Poissons Ratio (y) = 0.17024 0.07465
# Poissons Ratio (z) = 0.25372 0.15582
#
# Static dielectric constant tensor:
#      x y z
#    x 1.718160 0.000000 0.000000 
#    y 0.000000 1.626770 0.000000 
#    z 0.000000 0.000000 1.674550 
# 
# From -- ./inp_files/32180.got.cif
#   From: 2010.05.17/outbox.cif.g08.bks.cpg/sg73_17_cif.got.tgz:32180.got - 2010.06.03 17:35:07.
