data_PCOD9531442
_publ_section_title
;
Structure prediction by ZEFSAII (Michael W. Deem and Ramdas Pophale) SiO2 
 PCOD9531442
Probable space group: I B C A 
;
_chemical_formula_sum "Si O2"
_cell_formula_units_Z 104
_cell_length_a 9.190008
_cell_length_b 27.546252
_cell_length_c 21.483371
_cell_angle_alpha 90.000000
_cell_angle_beta 90.000000
_cell_angle_gamma 90.000000
_cell_volume 5438.521303
_symmetry_space_group_name_H-M "I B C A "
_symmetry_group_IT_number 73
_symmetry_cell_setting 'orthorhombic'
loop_
_space_group_symop_operation_xyz
x,y,z
-x,1/2-y,z
x,-y,1/2-z
1/2-x,y,-z
-x,-y,-z
x,1/2+y,-z
-x,y,1/2+z
1/2+x,-y,z
1/2+x,1/2+y,1/2+z
1/2-x,-y,1/2+z
1/2+x,1/2-y,-z
-x,1/2+y,1/2-z
1/2-x,1/2-y,1/2-z
1/2+x,y,1/2-z
1/2-x,1/2+y,z
x,1/2-y,1/2+z
loop_
_atom_site_type_symbol
_atom_site_label
_atom_site_fract_x
_atom_site_fract_y
_atom_site_fract_z
Si Si1 0.447158 0.448161 0.724995
Si Si2 0.327663 0.761292 0.436079
Si Si3 0.497108 0.546806 0.415919
Si Si4 0.167819 0.387409 0.690988
Si Si5 0.797235 0.876565 0.066712
Si Si6 0.250000 0.504358 0.500000
Si Si7 0.836330 0.269749 0.190770
O O1 0.392328 0.500000 0.750000
O O2 0.515857 0.462397 0.657756
O O3 0.320235 0.409393 0.713756
O O4 0.552115 0.420093 0.772794
O O5 0.500000 0.750000 0.435401
O O6 0.250000 0.742843 0.500000
O O7 0.307804 0.819241 0.435555
O O8 0.244777 0.749449 0.371469
O O9 0.544374 0.602877 0.418377
O O10 0.355200 0.534185 0.454330
O O11 0.634400 0.521047 0.451369
O O12 0.178959 0.394591 0.616591
O O13 0.158794 0.328878 0.696962
O O14 0.750000 0.894149 0.000000
O O15 0.750000 0.250000 0.250000
O O16 0.000000 0.250000 0.190200
#
# Coordination Sequence:
#
# PCOD9531442 Si02
#       7
#    16  16  16  16  16   8  16
#     4  11  24  38  61  87 123 165 201 251 309 361
#     4  10  21  39  63  91 125 160 204 252 307 376
#     4  10  22  38  60  84 118 153 203 245 303 353
#     4  10  23  40  58  91 121 154 210 250 299 377
#     4   9  19  39  62  82 118 159 192 247 309 349
#     4  10  22  38  60  86 114 152 206 248 290 368
#     4  11  22  39  66  90 123 165 204 259 322 369
#
# _framework density 19.122845000000002
#
# number of rings (size 3 to 8) (size 9 to 14) (size 15 to 20)
#    0.000    1.846    0.769    2.308    6.462    2.462 
#    1.385    0.000    0.000    0.000    0.000    0.000 
#    0.000    0.000    0.000    0.000    0.000    0.000 
#
# Total GULP energy -289487.442995 kJ/mol
# GULP energy per Si atom -5567.066211 kJ/mol
# Density = 1.907932 g / cm^3
# Si number density = 19.122845 Si / 1000 Ang^3
#
#
#
# Elastic Constant Matrix: (Units=GPa)
#
#
# Indices 1 2 3 4 5 6 
#
# 1 120.0198 27.5917 73.2791 0.0000 0.0000 0.0000
# 2 27.5917 58.7208 50.0886 0.0000 0.0000 0.0000
# 3 73.2791 50.0886 165.7656 0.0000 0.0000 -0.0001
# 4 0.0000 0.0000 0.0000 24.9955 0.0000 0.0000
# 5 0.0000 0.0000 0.0000 0.0000 22.9103 0.0000
# 6 0.0000 0.0000 -0.0001 0.0000 0.0000 -63.4021
#
#
#
# Elastic Compliance Matrix: (Units=1/GPa)
#
#
# Indices 1 2 3 4 5 6 
#
# 1 0.011502 -0.001438 -0.004650 0.000000 0.000000 0.000000
# 2 -0.001438 0.023123 -0.006351 0.000000 0.000000 0.000000
# 3 -0.004650 -0.006351 0.010007 0.000000 0.000000 0.000000
# 4 0.000000 0.000000 0.000000 0.040007 0.000000 0.000000
# 5 0.000000 0.000000 0.000000 0.000000 0.043648 0.000000
# 6 0.000000 0.000000 0.000000 0.000000 0.000000 -0.015772
#
#
# Mechanical properties :
#
#
# Convention : Reuss Voigt Hill
#
# Bulk Modulus (GPa) = 50.62382 71.82497 61.22439
# Shear Modulus (GPa) = 34.72748 9.80388 22.26568
#
# Velocity S-wave (km/s) = 4.26610 2.26670 3.41596
# Velocity P-wave (km/s) = 7.12717 6.67022 6.90248
#
# Compressibility (1/GPa) = 0.01975355
#
# Stress axis : x y z
#
# Youngs Moduli (GPa) = 86.94443 43.24686 99.92673
#
# Poissons Ratio (x) = 0.06219 0.46465
# Poissons Ratio (y) = 0.12502 0.63467
# Poissons Ratio (z) = 0.40429 0.27467
#
# Static dielectric constant tensor:
#      x y z
#    x 1.650010 0.000000 0.000000 
#    y 0.000000 1.689060 0.000000 
#    z 0.000000 0.000000 1.731800 
# 
# From -- ./inp_files/24960.got.cif
#   From: 2010.05.17/outbox.cif.g08.bks.cpg/sg73_13_cif.got.tgz:24960.got - 2010.06.03 17:35:07.
