data_PCOD9531032
_publ_section_title
;
Structure prediction by ZEFSAII (Michael W. Deem and Ramdas Pophale) SiO2 
 PCOD9531032
Probable space group: I B C A 
;
_chemical_formula_sum "Si O2"
_cell_formula_units_Z 104
_cell_length_a 29.301538
_cell_length_b 20.549878
_cell_length_c 8.868925
_cell_angle_alpha 90.000000
_cell_angle_beta 90.000000
_cell_angle_gamma 90.000000
_cell_volume 5340.361382
_symmetry_space_group_name_H-M "I B C A "
_symmetry_group_IT_number 73
_symmetry_cell_setting 'orthorhombic'
loop_
_space_group_symop_operation_xyz
x,y,z
-x,1/2-y,z
x,-y,1/2-z
1/2-x,y,-z
-x,-y,-z
x,1/2+y,-z
-x,y,1/2+z
1/2+x,-y,z
1/2+x,1/2+y,1/2+z
1/2-x,-y,1/2+z
1/2+x,1/2-y,-z
-x,1/2+y,1/2-z
1/2-x,1/2-y,1/2-z
1/2+x,y,1/2-z
1/2-x,1/2+y,z
x,1/2-y,1/2+z
loop_
_atom_site_type_symbol
_atom_site_label
_atom_site_fract_x
_atom_site_fract_y
_atom_site_fract_z
Si Si1 0.831698 0.833717 0.026137
Si Si2 0.439792 0.308110 0.761910
Si Si3 0.873004 0.576840 0.762130
Si Si4 0.250000 0.586351 0.000000
Si Si5 0.149274 0.726676 0.717913
Si Si6 0.269383 0.000000 0.750000
Si Si7 0.803901 0.890062 0.534099
Si Si8 0.500000 0.750000 0.477068
O O1 0.859359 0.892419 0.100015
O O2 0.818456 0.786306 0.164290
O O3 0.789548 0.867617 0.947466
O O4 0.851993 0.790728 0.893546
O O5 0.416685 0.377366 0.798312
O O6 0.400202 0.260075 0.696499
O O7 0.461968 0.279257 0.912272
O O8 0.478363 0.304687 0.632639
O O9 0.881169 0.500000 0.750000
O O10 0.833237 0.591766 0.885448
O O11 0.262076 0.541541 0.860461
O O12 0.167245 0.665972 0.620346
O O13 0.298879 0.952823 0.856093
O O14 0.750000 0.872477 0.500000
#
# Coordination Sequence:
#
# PCOD9531032 Si02
#       8
#    16  16  16   8  16   8  16   8
#     4  11  24  38  61  87 121 174 217 273 321 371
#     4  10  21  42  68 101 123 162 201 264 335 409
#     4  11  24  42  63  90 136 178 214 269 324 379
#     4  12  24  40  56  82 120 170 236 274 308 364
#     4  11  23  42  62  94 132 162 219 275 331 380
#     4  12  24  40  56  82 118 172 236 278 304 376
#     4  12  25  39  62  87 129 184 237 272 312 370
#     4  10  20  40  78  98 122 152 206 258 336 424
#
# _framework density 19.474337999999999
#
# number of rings (size 3 to 8) (size 9 to 14) (size 15 to 20)
#    0.000    0.923    2.308    6.462    3.231    0.615 
#    0.000    0.769    0.000    0.000    0.000    0.000 
#    0.000    0.000    0.000    0.000    0.000    0.000 
#
# Total GULP energy -289829.010112 kJ/mol
# GULP energy per Si atom -5573.634810 kJ/mol
# Density = 1.943001 g / cm^3
# Si number density = 19.474338 Si / 1000 Ang^3
#
#
#
# Elastic Constant Matrix: (Units=GPa)
#
#
# Indices 1 2 3 4 5 6 
#
# 1 65.4656 45.6016 36.1344 0.0000 0.0000 0.0000
# 2 45.6016 135.3931 52.3646 0.0000 0.0000 0.0000
# 3 36.1344 52.3646 113.5143 0.0000 0.0000 0.0000
# 4 0.0000 0.0000 0.0000 42.9762 0.0000 0.0000
# 5 0.0000 0.0000 0.0000 0.0000 36.4788 0.0000
# 6 0.0000 0.0000 0.0000 0.0000 0.0000 10.8707
#
#
#
# Elastic Compliance Matrix: (Units=1/GPa)
#
#
# Indices 1 2 3 4 5 6 
#
# 1 0.021534 -0.005601 -0.004271 0.000000 0.000000 0.000000
# 2 -0.005601 0.010447 -0.003036 0.000000 0.000000 0.000000
# 3 -0.004271 -0.003036 0.011570 0.000000 0.000000 0.000000
# 4 0.000000 0.000000 0.000000 0.023269 0.000000 0.000000
# 5 0.000000 0.000000 0.000000 0.000000 0.027413 0.000000
# 6 0.000000 0.000000 0.000000 0.000000 0.000000 0.091990
#
#
# Mechanical properties :
#
#
# Convention : Reuss Voigt Hill
#
# Bulk Modulus (GPa) = 56.38896 64.73046 60.55971
# Shear Modulus (GPa) = 22.94101 30.08331 26.51216
#
# Velocity S-wave (km/s) = 3.43594 3.93462 3.69370
# Velocity P-wave (km/s) = 6.69024 7.34524 7.02538
#
# Compressibility (1/GPa) = 0.01773397
#
# Stress axis : x y z
#
# Youngs Moduli (GPa) = 46.43785 95.72479 86.43318
#
# Poissons Ratio (x) = 0.53615 0.36916
# Poissons Ratio (y) = 0.26010 0.26242
# Poissons Ratio (z) = 0.19834 0.29063
#
# Static dielectric constant tensor:
#      x y z
#    x 1.703400 0.000000 0.000000 
#    y 0.000000 1.687790 0.000000 
#    z 0.000000 0.000000 1.712300 
# 
# From -- ./inp_files/8504.got.cif
#   From: 2010.05.17/outbox.cif.g08.bks.cpg/sg73_5_cif.got.tgz:8504.got - 2010.06.03 17:35:07.
