data_PCOD9531502
_publ_section_title
;
Structure prediction by ZEFSAII (Michael W. Deem and Ramdas Pophale) SiO2 
 PCOD9531502
Probable space group: I B C A 
;
_chemical_formula_sum "Si O2"
_cell_formula_units_Z 88
_cell_length_a 12.680702
_cell_length_b 13.405226
_cell_length_c 26.705358
_cell_angle_alpha 90.000000
_cell_angle_beta 90.000000
_cell_angle_gamma 90.000000
_cell_volume 4539.581747
_symmetry_space_group_name_H-M "I B C A "
_symmetry_group_IT_number 73
_symmetry_cell_setting 'orthorhombic'
loop_
_space_group_symop_operation_xyz
x,y,z
-x,1/2-y,z
x,-y,1/2-z
1/2-x,y,-z
-x,-y,-z
x,1/2+y,-z
-x,y,1/2+z
1/2+x,-y,z
1/2+x,1/2+y,1/2+z
1/2-x,-y,1/2+z
1/2+x,1/2-y,-z
-x,1/2+y,1/2-z
1/2-x,1/2-y,1/2-z
1/2+x,y,1/2-z
1/2-x,1/2+y,z
x,1/2-y,1/2+z
loop_
_atom_site_type_symbol
_atom_site_label
_atom_site_fract_x
_atom_site_fract_y
_atom_site_fract_z
Si Si1 0.612329 0.547209 0.011644
Si Si2 0.295996 0.388901 0.588027
Si Si3 0.253597 0.167604 0.430774
Si Si4 0.036119 0.635131 0.177639
Si Si5 0.685828 0.457723 0.656598
Si Si6 0.332634 0.000000 0.250000
O O1 0.669973 0.458218 0.041858
O O2 0.629551 0.635134 0.052257
O O3 0.500000 0.500000 0.000000
O O4 0.669477 0.602176 0.964325
O O5 0.262702 0.283947 0.565454
O O6 0.390934 0.372223 0.627857
O O7 0.207709 0.446556 0.620946
O O8 0.230850 0.134824 0.374842
O O9 0.934496 0.565679 0.168437
O O10 0.000000 0.750000 0.184777
O O11 0.097701 0.587879 0.224964
O O12 0.756101 0.465595 0.705703
#
# Coordination Sequence:
#
# PCOD9531502 Si02
#       6
#    16  16  16  16  16   8
#     4  10  22  36  61  93 127 163 216 265 313 390
#     4  10  22  41  63  91 128 169 216 273 318 395
#     4  10  21  40  62  90 124 171 212 255 332 377
#     4  11  21  40  69  91 124 176 220 264 339 400
#     4  10  21  40  63  91 126 165 215 269 328 384
#     4  10  24  40  58 100 132 160 216 278 328 394
#
# _framework density 19.385045000000002
#
# number of rings (size 3 to 8) (size 9 to 14) (size 15 to 20)
#    0.000    1.818    1.818    1.636    0.000    6.545 
#    3.273    1.818    0.000    6.545    0.000    0.000 
#    0.000    0.000    0.000    0.000    0.000    0.000 
#
# Total GULP energy -245126.202217 kJ/mol
# GULP energy per Si atom -5571.050050 kJ/mol
# Density = 1.934092 g / cm^3
# Si number density = 19.385045 Si / 1000 Ang^3
#
#
#
# Elastic Constant Matrix: (Units=GPa)
#
#
# Indices 1 2 3 4 5 6 
#
# 1 109.7968 69.5431 32.4112 0.0000 0.0000 0.0000
# 2 69.5431 176.0599 62.1620 0.0000 0.0000 0.0000
# 3 32.4112 62.1620 99.1357 0.0000 0.0000 0.0000
# 4 0.0000 0.0000 0.0000 9.3928 0.0000 0.0000
# 5 0.0000 0.0000 0.0000 0.0000 11.3274 0.0000
# 6 0.0000 0.0000 0.0000 0.0000 0.0000 14.4530
#
#
#
# Elastic Compliance Matrix: (Units=1/GPa)
#
#
# Indices 1 2 3 4 5 6 
#
# 1 0.012266 -0.004404 -0.001249 0.000000 0.000000 0.000000
# 2 -0.004404 0.008876 -0.004126 0.000000 0.000000 0.000000
# 3 -0.001249 -0.004126 0.013082 0.000000 0.000000 0.000000
# 4 0.000000 0.000000 0.000000 0.106464 0.000000 0.000000
# 5 0.000000 0.000000 0.000000 0.000000 0.088281 0.000000
# 6 0.000000 0.000000 0.000000 0.000000 0.000000 0.069190
#
#
# Mechanical properties :
#
#
# Convention : Reuss Voigt Hill
#
# Bulk Modulus (GPa) = 68.17872 79.24723 73.71298
# Shear Modulus (GPa) = 15.49877 21.75973 18.62925
#
# Velocity S-wave (km/s) = 2.83065 3.35401 3.10338
# Velocity P-wave (km/s) = 6.77721 7.48121 7.13789
#
# Compressibility (1/GPa) = 0.01466733
#
# Stress axis : x y z
#
# Youngs Moduli (GPa) = 81.52763 112.66051 76.43811
#
# Poissons Ratio (x) = 0.49617 0.09544
# Poissons Ratio (y) = 0.35906 0.31537
# Poissons Ratio (z) = 0.10180 0.46482
#
# Static dielectric constant tensor:
#      x y z
#    x 1.717610 0.000000 0.000000 
#    y 0.000000 1.681300 0.000000 
#    z 0.000000 0.000000 1.666890 
# 
# From -- ./inp_files/11106.got.cif
#   From: 2010.05.17/outbox.cif.g08.bks.cpg/sg73_6_cif.got.tgz:11106.got - 2010.06.03 17:35:07.
