data_PCOD9531144
_publ_section_title
;
Structure prediction by ZEFSAII (Michael W. Deem and Ramdas Pophale) SiO2 
 PCOD9531144
Probable space group: I B C A 
;
_chemical_formula_sum "Si O2"
_cell_formula_units_Z 120
_cell_length_a 18.363265
_cell_length_b 11.094443
_cell_length_c 25.136299
_cell_angle_alpha 90.000000
_cell_angle_beta 90.000000
_cell_angle_gamma 90.000000
_cell_volume 5121.023143
_symmetry_space_group_name_H-M "I B C A "
_symmetry_group_IT_number 73
_symmetry_cell_setting 'orthorhombic'
loop_
_space_group_symop_operation_xyz
x,y,z
-x,1/2-y,z
x,-y,1/2-z
1/2-x,y,-z
-x,-y,-z
x,1/2+y,-z
-x,y,1/2+z
1/2+x,-y,z
1/2+x,1/2+y,1/2+z
1/2-x,-y,1/2+z
1/2+x,1/2-y,-z
-x,1/2+y,1/2-z
1/2-x,1/2-y,1/2-z
1/2+x,y,1/2-z
1/2-x,1/2+y,z
x,1/2-y,1/2+z
loop_
_atom_site_type_symbol
_atom_site_label
_atom_site_fract_x
_atom_site_fract_y
_atom_site_fract_z
Si Si1 0.586079 0.751899 0.016885
Si Si2 0.068932 0.158590 0.629453
Si Si3 0.983392 0.939520 0.198345
Si Si4 0.146149 0.312531 0.234626
Si Si5 0.135397 0.629010 0.682201
Si Si6 0.702442 0.422044 0.947782
Si Si7 0.197248 0.198241 0.420115
Si Si8 0.274739 0.000000 0.750000
O O1 0.500000 0.750000 0.002962
O O2 0.592026 0.662518 0.068053
O O3 0.619487 0.879610 0.038752
O O4 0.638300 0.718855 0.967495
O O5 0.129233 0.196558 0.672365
O O6 0.000000 0.250000 0.633934
O O7 0.046869 0.030646 0.654520
O O8 0.050343 0.875725 0.170407
O O9 0.920188 0.871173 0.230499
O O10 0.021921 0.000000 0.250000
O O11 0.146771 0.182947 0.259708
O O12 0.216266 0.390382 0.246179
O O13 0.167502 0.717618 0.638759
O O14 0.180597 0.508003 0.693767
O O15 0.739467 0.297232 0.927136
O O16 0.709199 0.552557 0.920038
O O17 0.750000 0.445514 0.000000
#
# Coordination Sequence:
#
# PCOD9531144 Si02
#       8
#    16  16  16  16  16  16  16   8
#     4  10  24  44  71 111 139 183 243 310 364 435
#     4  10  21  39  75  96 136 184 235 285 362 435
#     4  10  20  44  66  96 135 186 235 280 361 430
#     4  11  23  45  65 100 135 186 231 293 359 433
#     4  12  27  41  70 103 143 182 239 299 360 431
#     4  10  23  49  72  98 142 192 245 288 366 435
#     4  11  27  47  76 106 145 195 242 304 366 443
#     4  12  26  42  64 102 140 182 234 296 354 426
#
# _framework density 23.432817
#
# number of rings (size 3 to 8) (size 9 to 14) (size 15 to 20)
#    0.000    1.333    2.667    3.600    7.467    1.600 
#    4.800    0.000    0.000    0.000    0.000    0.000 
#    0.000    0.000    0.000    0.000    0.000    0.000 
#
# Total GULP energy -334331.236930 kJ/mol
# GULP energy per Si atom -5572.187282 kJ/mol
# Density = 2.337948 g / cm^3
# Si number density = 23.432817 Si / 1000 Ang^3
#
#
#
# Elastic Constant Matrix: (Units=GPa)
#
#
# Indices 1 2 3 4 5 6 
#
# 1 108.3746 15.9063 16.1007 0.0000 0.0000 0.0000
# 2 15.9063 72.7551 11.3483 0.0000 0.0000 0.0000
# 3 16.1007 11.3483 95.1613 0.0000 0.0000 0.0000
# 4 0.0000 0.0000 0.0000 16.6292 0.0000 0.0000
# 5 0.0000 0.0000 0.0000 0.0000 -26.3726 0.0000
# 6 0.0000 0.0000 0.0000 0.0000 0.0000 23.9628
#
#
#
# Elastic Compliance Matrix: (Units=1/GPa)
#
#
# Indices 1 2 3 4 5 6 
#
# 1 0.009717 -0.001903 -0.001417 0.000000 0.000000 0.000000
# 2 -0.001903 0.014378 -0.001393 0.000000 0.000000 0.000000
# 3 -0.001417 -0.001393 0.010914 0.000000 0.000000 0.000000
# 4 0.000000 0.000000 0.000000 0.060135 0.000000 0.000000
# 5 0.000000 0.000000 0.000000 0.000000 -0.037918 0.000000
# 6 0.000000 0.000000 0.000000 0.000000 0.000000 0.041731
#
#
# Mechanical properties :
#
#
# Convention : Reuss Voigt Hill
#
# Bulk Modulus (GPa) = 39.08788 40.33351 39.71069
# Shear Modulus (GPa) = 42.76722 18.37291 30.57007
#
# Velocity S-wave (km/s) = 4.27675 2.80316 3.61582
# Velocity P-wave (km/s) = 6.41128 5.26561 5.86648
#
# Compressibility (1/GPa) = 0.02558338
#
# Stress axis : x y z
#
# Youngs Moduli (GPa) = 102.91078 69.55021 91.62285
#
# Poissons Ratio (x) = 0.13238 0.12984
# Poissons Ratio (y) = 0.19588 0.12759
# Poissons Ratio (z) = 0.14583 0.09686
#
# Static dielectric constant tensor:
#      x y z
#    x 2.003290 0.000000 0.000000 
#    y 0.000000 2.135830 0.000000 
#    z 0.000000 0.000000 1.884540 
# 
# From -- ./inp_files/32445.got.cif
#   From: 2010.05.17/outbox.cif.g08.bks.cpg/sg73_17_cif.got.tgz:32445.got - 2010.06.03 17:35:07.
