data_PCOD9531038
_publ_section_title
;
Structure prediction by ZEFSAII (Michael W. Deem and Ramdas Pophale) SiO2 
 PCOD9531038
Probable space group: I B C A 
;
_chemical_formula_sum "Si O2"
_cell_formula_units_Z 112
_cell_length_a 21.832528
_cell_length_b 12.832549
_cell_length_c 19.286107
_cell_angle_alpha 90.000000
_cell_angle_beta 90.000000
_cell_angle_gamma 90.000000
_cell_volume 5403.330457
_symmetry_space_group_name_H-M "I B C A "
_symmetry_group_IT_number 73
_symmetry_cell_setting 'orthorhombic'
loop_
_space_group_symop_operation_xyz
x,y,z
-x,1/2-y,z
x,-y,1/2-z
1/2-x,y,-z
-x,-y,-z
x,1/2+y,-z
-x,y,1/2+z
1/2+x,-y,z
1/2+x,1/2+y,1/2+z
1/2-x,-y,1/2+z
1/2+x,1/2-y,-z
-x,1/2+y,1/2-z
1/2-x,1/2-y,1/2-z
1/2+x,y,1/2-z
1/2-x,1/2+y,z
x,1/2-y,1/2+z
loop_
_atom_site_type_symbol
_atom_site_label
_atom_site_fract_x
_atom_site_fract_y
_atom_site_fract_z
Si Si1 0.053468 0.872485 0.518852
Si Si2 0.220527 0.413101 0.203567
Si Si3 0.917748 0.417273 0.453522
Si Si4 0.153515 0.239717 0.900014
Si Si5 0.754895 0.563362 0.420249
Si Si6 0.895144 0.393630 0.120879
Si Si7 0.662809 0.700485 0.741414
O O1 0.094874 0.825143 0.577444
O O2 0.069922 0.833019 0.440868
O O3 0.982427 0.861990 0.535702
O O4 0.077731 0.992767 0.511813
O O5 0.186829 0.500000 0.250000
O O6 0.235941 0.469762 0.131559
O O7 0.281327 0.381392 0.248054
O O8 0.185806 0.303441 0.200476
O O9 0.858629 0.344075 0.446131
O O10 0.920125 0.488679 0.384297
O O11 0.212057 0.166161 0.911595
O O12 0.149636 0.268284 0.819870
O O13 0.750000 0.530722 0.500000
O O14 0.824335 0.596312 0.403296
O O15 0.891756 0.347173 0.196762
#
# Coordination Sequence:
#
# PCOD9531038 Si02
#       7
#    16  16  16  16  16  16  16
#     4   9  21  44  65  95 124 171 232 277 330 382
#     4  11  21  41  61  86 147 190 207 261 328 418
#     4   9  21  42  70  91 123 179 224 277 332 383
#     4  12  22  37  67 101 132 173 219 279 341 408
#     4  12  22  39  63 101 139 168 224 272 334 401
#     4  10  20  41  63  97 128 169 224 269 322 410
#     4  11  23  38  63  99 133 186 221 259 343 405
#
# _framework density 20.727955000000001
#
# number of rings (size 3 to 8) (size 9 to 14) (size 15 to 20)
#    0.857    0.571    4.286    2.143    0.000    0.000 
#    7.714    2.143    0.000   10.286    0.000    0.000 
#    0.000    0.000    0.000    0.000    0.000    0.000 
#
# Total GULP energy -312029.962403 kJ/mol
# GULP energy per Si atom -5571.963614 kJ/mol
# Density = 2.068078 g / cm^3
# Si number density = 20.727955 Si / 1000 Ang^3
#
#
#
# Elastic Constant Matrix: (Units=GPa)
#
#
# Indices 1 2 3 4 5 6 
#
# 1 46.3910 16.6846 24.9610 0.0000 0.0000 0.0000
# 2 16.6846 100.3858 31.5147 0.0000 0.0000 0.0000
# 3 24.9610 31.5147 85.0971 0.0000 0.0000 0.0000
# 4 0.0000 0.0000 0.0000 40.1480 0.0000 0.0000
# 5 0.0000 0.0000 0.0000 0.0000 14.5099 0.0000
# 6 0.0000 0.0000 0.0000 0.0000 0.0000 19.6422
#
#
#
# Elastic Compliance Matrix: (Units=1/GPa)
#
#
# Indices 1 2 3 4 5 6 
#
# 1 0.026011 -0.002182 -0.006822 0.000000 0.000000 0.000000
# 2 -0.002182 0.011455 -0.003602 0.000000 0.000000 0.000000
# 3 -0.006822 -0.003602 0.015086 0.000000 0.000000 0.000000
# 4 0.000000 0.000000 0.000000 0.024908 0.000000 0.000000
# 5 0.000000 0.000000 0.000000 0.000000 0.068919 0.000000
# 6 0.000000 0.000000 0.000000 0.000000 0.000000 0.050911
#
#
# Mechanical properties :
#
#
# Convention : Reuss Voigt Hill
#
# Bulk Modulus (GPa) = 36.57491 42.02159 39.29825
# Shear Modulus (GPa) = 21.58760 25.44093 23.51427
#
# Velocity S-wave (km/s) = 3.23069 3.50719 3.37177
# Velocity P-wave (km/s) = 5.62138 6.05949 5.84454
#
# Compressibility (1/GPa) = 0.02734115
#
# Stress axis : x y z
#
# Youngs Moduli (GPa) = 38.44530 87.29765 66.28517
#
# Poissons Ratio (x) = 0.19045 0.45218
# Poissons Ratio (y) = 0.08387 0.23878
# Poissons Ratio (z) = 0.26226 0.31448
#
# Static dielectric constant tensor:
#      x y z
#    x 1.729460 0.000000 0.000000 
#    y 0.000000 1.865820 0.000000 
#    z 0.000000 0.000000 1.759420 
# 
# From -- ./inp_files/30132.got.cif
#   From: 2010.05.17/outbox.cif.g08.bks.cpg/sg73_16_cif.got.tgz:30132.got - 2010.06.03 17:35:07.
