data_PCOD9531386
_publ_section_title
;
Structure prediction by ZEFSAII (Michael W. Deem and Ramdas Pophale) SiO2 
 PCOD9531386
Probable space group: I B C A 
;
_chemical_formula_sum "Si O2"
_cell_formula_units_Z 80
_cell_length_a 20.814988
_cell_length_b 12.944476
_cell_length_c 13.883350
_cell_angle_alpha 90.000000
_cell_angle_beta 90.000000
_cell_angle_gamma 90.000000
_cell_volume 3740.717504
_symmetry_space_group_name_H-M "I B C A "
_symmetry_group_IT_number 73
_symmetry_cell_setting 'orthorhombic'
loop_
_space_group_symop_operation_xyz
x,y,z
-x,1/2-y,z
x,-y,1/2-z
1/2-x,y,-z
-x,-y,-z
x,1/2+y,-z
-x,y,1/2+z
1/2+x,-y,z
1/2+x,1/2+y,1/2+z
1/2-x,-y,1/2+z
1/2+x,1/2-y,-z
-x,1/2+y,1/2-z
1/2-x,1/2-y,1/2-z
1/2+x,y,1/2-z
1/2-x,1/2+y,z
x,1/2-y,1/2+z
loop_
_atom_site_type_symbol
_atom_site_label
_atom_site_fract_x
_atom_site_fract_y
_atom_site_fract_z
Si Si1 0.424578 0.613732 0.008307
Si Si2 0.698710 0.996843 0.415519
Si Si3 0.304950 0.335603 0.249993
Si Si4 0.969953 0.486287 0.647129
Si Si5 0.074365 0.274371 0.158797
O O1 0.364313 0.542381 0.033220
O O2 0.481216 0.566503 0.073818
O O3 0.416678 0.728505 0.050068
O O4 0.443988 0.591598 0.898825
O O5 0.750000 0.983315 0.500000
O O6 0.713854 0.083284 0.334237
O O7 0.689518 0.894152 0.351908
O O8 0.250000 0.250000 0.250000
O O9 0.373398 0.285664 0.278529
O O10 0.002356 0.500000 0.750000
O O11 0.916430 0.397457 0.661670
O O12 0.000000 0.250000 0.187431
#
# Coordination Sequence:
#
# PCOD9531386 Si02
#       5
#    16  16  16  16  16
#     4   9  21  41  60  91 128 164 208 261 320 386
#     4  10  23  42  66  87 128 174 211 258 325 389
#     4  10  23  42  65  96 127 166 218 268 318 380
#     4  10  21  38  65  94 127 162 210 265 319 384
#     4   9  20  40  64  95 128 161 213 262 323 393
#
# _framework density 21.386271000000001
#
# number of rings (size 3 to 8) (size 9 to 14) (size 15 to 20)
#    0.000    2.400    0.000    0.000   11.200    2.400 
#    7.200    5.000    0.000    0.000    0.000    0.000 
#    0.000    0.000    0.000    0.000    0.000    0.000 
#
# Total GULP energy -223137.892123 kJ/mol
# GULP energy per Si atom -5578.447303 kJ/mol
# Density = 2.133760 g / cm^3
# Si number density = 21.386271 Si / 1000 Ang^3
#
#
#
# Elastic Constant Matrix: (Units=GPa)
#
#
# Indices 1 2 3 4 5 6 
#
# 1 84.4298 26.8343 30.9403 0.0000 0.0000 0.0000
# 2 26.8343 39.9325 -6.0462 0.0000 0.0000 0.0000
# 3 30.9403 -6.0462 90.2426 0.0000 0.0000 0.0000
# 4 0.0000 0.0000 0.0000 -25.9848 0.0000 0.0000
# 5 0.0000 0.0000 0.0000 0.0000 -1.4978 0.0000
# 6 0.0000 0.0000 0.0000 0.0000 0.0000 70.3984
#
#
#
# Elastic Compliance Matrix: (Units=1/GPa)
#
#
# Indices 1 2 3 4 5 6 
#
# 1 0.018982 -0.013882 -0.007438 0.000000 0.000000 0.000000
# 2 -0.013882 0.035451 0.007135 0.000000 0.000000 0.000000
# 3 -0.007438 0.007135 0.014110 0.000000 0.000000 0.000000
# 4 0.000000 0.000000 0.000000 -0.038484 0.000000 0.000000
# 5 0.000000 0.000000 0.000000 0.000000 -0.667632 0.000000
# 6 0.000000 0.000000 0.000000 0.000000 0.000000 0.014205
#
#
# Mechanical properties :
#
#
# Convention : Reuss Voigt Hill
#
# Bulk Modulus (GPa) = 24.89316 35.34021 30.11668
# Shear Modulus (GPa) = -8.59687 19.44159 5.42236
#
# Velocity S-wave (km/s) = -2.00712 3.01835 1.59403
# Velocity P-wave (km/s) = 2.50872 5.35797 4.18339
#
# Compressibility (1/GPa) = 0.04017168
#
# Stress axis : x y z
#
# Youngs Moduli (GPa) = 52.68122 28.20789 70.87419
#
# Poissons Ratio (x) = 0.39158 0.52718
# Poissons Ratio (y) = 0.73132 -0.50567
# Poissons Ratio (z) = 0.39185 -0.20126
#
# Static dielectric constant tensor:
#      x y z
#    x 1.776790 0.000000 0.000000 
#    y 0.000000 1.853120 0.000000 
#    z 0.000000 0.000000 1.812340 
# 
# From -- ./inp_files/16854.got.cif
#   From: 2010.05.17/outbox.cif.g08.bks.cpg/sg73_9_cif.got.tgz:16854.got - 2010.06.03 17:35:07.
