data_PCOD9531565
_publ_section_title
;
Structure prediction by ZEFSAII (Michael W. Deem and Ramdas Pophale) SiO2 
 PCOD9531565
Probable space group: I B C A 
;
_chemical_formula_sum "Si O2"
_cell_formula_units_Z 72
_cell_length_a 23.523258
_cell_length_b 8.959330
_cell_length_c 14.371645
_cell_angle_alpha 90.000000
_cell_angle_beta 90.000000
_cell_angle_gamma 90.000000
_cell_volume 3028.861997
_symmetry_space_group_name_H-M "I B C A "
_symmetry_group_IT_number 73
_symmetry_cell_setting 'orthorhombic'
loop_
_space_group_symop_operation_xyz
x,y,z
-x,1/2-y,z
x,-y,1/2-z
1/2-x,y,-z
-x,-y,-z
x,1/2+y,-z
-x,y,1/2+z
1/2+x,-y,z
1/2+x,1/2+y,1/2+z
1/2-x,-y,1/2+z
1/2+x,1/2-y,-z
-x,1/2+y,1/2-z
1/2-x,1/2-y,1/2-z
1/2+x,y,1/2-z
1/2-x,1/2+y,z
x,1/2-y,1/2+z
loop_
_atom_site_type_symbol
_atom_site_label
_atom_site_fract_x
_atom_site_fract_y
_atom_site_fract_z
Si Si1 0.299530 0.131415 0.869814
Si Si2 0.929514 0.109604 0.398220
Si Si3 0.916409 0.241407 0.084808
Si Si4 0.000000 0.750000 0.253498
Si Si5 0.184504 0.710216 0.650676
O O1 0.350405 0.215344 0.920328
O O2 0.235818 0.187360 0.887009
O O3 0.308664 0.176167 0.760998
O O4 0.309223 0.956630 0.889540
O O5 0.944986 0.181480 0.496599
O O6 0.976341 0.128355 0.318446
O O7 0.874162 0.202820 0.364883
O O8 0.918993 0.936178 0.413402
O O9 0.948722 0.295944 0.177853
#
# Coordination Sequence:
#
# PCOD9531565 Si02
#       5
#    16  16  16   8  16
#     4  10  21  40  70 105 143 185 230 284 349 418
#     4  12  27  47  73 106 142 184 236 290 350 419
#     4  12  27  47  73 106 142 184 236 290 350 419
#     4  12  28  48  74 100 134 188 232 296 348 414
#     4  10  21  40  70 105 143 185 230 284 349 418
#
# _framework density 23.771305000000002
#
# number of rings (size 3 to 8) (size 9 to 14) (size 15 to 20)
#    0.000    0.889    2.222    4.000    0.000   11.556 
#    0.000    4.444    0.000    0.000    0.000    0.000 
#    0.000    0.000    0.000    0.000    0.000    0.000 
#
# Total GULP energy -201623.044912 kJ/mol
# GULP energy per Si atom -5600.640136 kJ/mol
# Density = 2.371720 g / cm^3
# Si number density = 23.771305 Si / 1000 Ang^3
#
#
#
# Elastic Constant Matrix: (Units=GPa)
#
#
# Indices 1 2 3 4 5 6 
#
# 1 80.4833 63.9854 21.7661 0.0000 0.0000 0.0000
# 2 63.9854 198.1182 48.0467 0.0000 0.0000 0.0000
# 3 21.7661 48.0467 118.6615 0.0000 0.0000 0.0000
# 4 0.0000 0.0000 0.0000 57.9496 0.0000 0.0000
# 5 0.0000 0.0000 0.0000 0.0000 8.0925 0.0000
# 6 0.0000 0.0000 0.0000 0.0000 0.0000 30.1059
#
#
#
# Elastic Compliance Matrix: (Units=1/GPa)
#
#
# Indices 1 2 3 4 5 6 
#
# 1 0.016820 -0.005194 -0.000982 0.000000 0.000000 0.000000
# 2 -0.005194 0.007201 -0.001963 0.000000 0.000000 0.000000
# 3 -0.000982 -0.001963 0.009402 0.000000 0.000000 0.000000
# 4 0.000000 0.000000 0.000000 0.017256 0.000000 0.000000
# 5 0.000000 0.000000 0.000000 0.000000 0.123571 0.000000
# 6 0.000000 0.000000 0.000000 0.000000 0.000000 0.033216
#
#
# Mechanical properties :
#
#
# Convention : Reuss Voigt Hill
#
# Bulk Modulus (GPa) = 58.32665 73.87327 66.09996
# Shear Modulus (GPa) = 21.79029 36.79392 29.29210
#
# Velocity S-wave (km/s) = 3.03093 3.93851 3.51414
# Velocity P-wave (km/s) = 6.06948 7.19907 6.65827
#
# Compressibility (1/GPa) = 0.01714482
#
# Stress axis : x y z
#
# Youngs Moduli (GPa) = 59.45331 138.86859 106.35665
#
# Poissons Ratio (x) = 0.72129 0.10446
# Poissons Ratio (y) = 0.30880 0.20878
# Poissons Ratio (z) = 0.05839 0.27260
#
# Static dielectric constant tensor:
#      x y z
#    x 1.899280 0.000000 0.000000 
#    y 0.000000 1.859860 0.000000 
#    z 0.000000 0.000000 1.953660 
# 
# From -- ./inp_files/19672.got.cif
#   From: 2010.05.17/outbox.cif.g08.bks.cpg/sg73_10_cif.got.tgz:19672.got - 2010.06.03 17:35:07.
