data_PCOD9531376
_publ_section_title
;
Structure prediction by ZEFSAII (Michael W. Deem and Ramdas Pophale) SiO2 
 PCOD9531376
Probable space group: I B C A 
;
_chemical_formula_sum "Si O2"
_cell_formula_units_Z 88
_cell_length_a 15.080502
_cell_length_b 31.886823
_cell_length_c 8.908981
_cell_angle_alpha 90.000000
_cell_angle_beta 90.000000
_cell_angle_gamma 90.000000
_cell_volume 4284.055440
_symmetry_space_group_name_H-M "I B C A "
_symmetry_group_IT_number 73
_symmetry_cell_setting 'orthorhombic'
loop_
_space_group_symop_operation_xyz
x,y,z
-x,1/2-y,z
x,-y,1/2-z
1/2-x,y,-z
-x,-y,-z
x,1/2+y,-z
-x,y,1/2+z
1/2+x,-y,z
1/2+x,1/2+y,1/2+z
1/2-x,-y,1/2+z
1/2+x,1/2-y,-z
-x,1/2+y,1/2-z
1/2-x,1/2-y,1/2-z
1/2+x,y,1/2-z
1/2-x,1/2+y,z
x,1/2-y,1/2+z
loop_
_atom_site_type_symbol
_atom_site_label
_atom_site_fract_x
_atom_site_fract_y
_atom_site_fract_z
Si Si1 0.922352 0.120349 0.780544
Si Si2 0.350529 0.294904 0.697796
Si Si3 0.362880 0.792317 0.651275
Si Si4 0.897360 0.119326 0.135909
Si Si5 0.236846 0.438293 0.765756
Si Si6 0.750000 0.496009 0.000000
O O1 0.909438 0.168092 0.726662
O O2 0.842934 0.091692 0.716255
O O3 0.015629 0.103501 0.721802
O O4 0.915841 0.120789 0.959631
O O5 0.384064 0.252958 0.779576
O O6 0.382283 0.294788 0.525783
O O7 0.243158 0.295893 0.682662
O O8 0.377286 0.335179 0.793663
O O9 0.812455 0.090513 0.163998
O O10 0.281588 0.464079 0.629225
O O11 0.199528 0.471012 0.890932
#
# Coordination Sequence:
#
# PCOD9531376 Si02
#       6
#    16  16  16  16  16   8
#     4  12  25  42  67 100 135 177 221 271 326 389
#     4  10  21  38  64  97 134 179 223 271 321 380
#     4  10  21  38  64  97 134 179 223 271 321 380
#     4  12  25  42  67 100 135 177 221 271 326 389
#     4  11  24  48  73  98 134 170 218 270 331 404
#     4  10  24  46  78  98 126 176 212 268 346 394
#
# _framework density 20.541283
#
# number of rings (size 3 to 8) (size 9 to 14) (size 15 to 20)
#    0.000    1.091    3.636    2.182    5.091    2.182 
#    0.000    9.091    0.000    0.000    0.000    0.000 
#    0.000    0.000    0.000    0.000    0.000    0.000 
#
# Total GULP energy -245590.118536 kJ/mol
# GULP energy per Si atom -5581.593603 kJ/mol
# Density = 2.049453 g / cm^3
# Si number density = 20.541283 Si / 1000 Ang^3
#
#
#
# Elastic Constant Matrix: (Units=GPa)
#
#
# Indices 1 2 3 4 5 6 
#
# 1 76.2640 31.6308 15.5861 -0.0003 0.0003 0.0004
# 2 31.6308 104.8867 43.7231 -0.0004 -0.0001 0.0000
# 3 15.5861 43.7231 95.4356 0.0041 -0.0013 0.0033
# 4 -0.0003 -0.0004 0.0041 31.2307 -0.0001 0.0011
# 5 0.0003 -0.0001 -0.0013 -0.0001 26.7221 -0.0008
# 6 0.0004 0.0000 0.0033 0.0011 -0.0008 -8.1271
#
#
#
# Elastic Compliance Matrix: (Units=1/GPa)
#
#
# Indices 1 2 3 4 5 6 
#
# 1 0.015004 -0.004330 -0.000466 0.000000 0.000000 0.000001
# 2 -0.004330 0.013035 -0.005264 0.000001 0.000000 -0.000002
# 3 -0.000466 -0.005264 0.012966 -0.000002 0.000001 0.000005
# 4 0.000000 0.000001 -0.000002 0.032020 0.000000 0.000004
# 5 0.000000 0.000000 0.000001 0.000000 0.037422 -0.000004
# 6 0.000001 -0.000002 0.000005 0.000004 -0.000004 -0.123044
#
#
# Mechanical properties :
#
#
# Convention : Reuss Voigt Hill
#
# Bulk Modulus (GPa) = 47.88773 50.94071 49.41422
# Shear Modulus (GPa) = 345.18034 22.34154 183.76094
#
# Velocity S-wave (km/s) = 12.97717 3.30152 9.46856
# Velocity P-wave (km/s) = 15.74504 6.27586 11.98525
#
# Compressibility (1/GPa) = 0.02088217
#
# Stress axis : x y z
#
# Youngs Moduli (GPa) = 66.65045 76.71945 77.12286
#
# Poissons Ratio (x) = 0.33221 0.03598
# Poissons Ratio (y) = 0.28861 0.40601
# Poissons Ratio (z) = 0.03109 0.40389
#
# Static dielectric constant tensor:
#      x y z
#    x 1.730060 0.000000 0.000000 
#    y 0.000000 1.719510 0.000000 
#    z 0.000000 0.000000 1.720210 
# 
# From -- ./inp_files/5739.got.cif
#   From: 2010.05.17/outbox.cif.g08.bks.cpg/sg73_3_cif.got.tgz:5739.got - 2010.06.03 17:35:07.
