data_PCOD9531452
_publ_section_title
;
Structure prediction by ZEFSAII (Michael W. Deem and Ramdas Pophale) SiO2 
 PCOD9531452
Probable space group: I B C A 
;
_chemical_formula_sum "Si O2"
_cell_formula_units_Z 56
_cell_length_a 4.962448
_cell_length_b 13.314737
_cell_length_c 37.416041
_cell_angle_alpha 90.000000
_cell_angle_beta 90.000000
_cell_angle_gamma 90.000000
_cell_volume 2472.215894
_symmetry_space_group_name_H-M "I B C A "
_symmetry_group_IT_number 73
_symmetry_cell_setting 'orthorhombic'
loop_
_space_group_symop_operation_xyz
x,y,z
-x,1/2-y,z
x,-y,1/2-z
1/2-x,y,-z
-x,-y,-z
x,1/2+y,-z
-x,y,1/2+z
1/2+x,-y,z
1/2+x,1/2+y,1/2+z
1/2-x,-y,1/2+z
1/2+x,1/2-y,-z
-x,1/2+y,1/2-z
1/2-x,1/2-y,1/2-z
1/2+x,y,1/2-z
1/2-x,1/2+y,z
x,1/2-y,1/2+z
loop_
_atom_site_type_symbol
_atom_site_label
_atom_site_fract_x
_atom_site_fract_y
_atom_site_fract_z
Si Si1 0.500000 0.750000 0.551868
Si Si2 0.518964 0.369767 0.726719
Si Si3 0.000000 0.750000 0.599261
Si Si4 0.464143 0.062503 0.146649
Si Si5 0.750000 0.921383 0.000000
O O1 0.249280 0.711573 0.575516
O O2 0.358948 0.840388 0.529608
O O3 0.500000 0.250000 0.721328
O O4 0.814512 0.393813 0.741198
O O5 0.447079 0.416841 0.688936
O O6 0.105224 0.839114 0.624404
O O7 0.764351 0.027698 0.138023
O O8 0.500000 0.000000 0.000000
#
# Coordination Sequence:
#
# PCOD9531452 Si02
#       5
#     8  16   8  16   8
#     4  12  27  48  78 109 150 192 232 284 364 417
#     4  10  21  39  64  91 128 175 232 301 367 419
#     4  12  27  48  68 103 150 188 234 290 344 435
#     4  12  26  43  67  98 135 185 241 292 359 427
#     4  12  26  48  80 116 150 184 240 296 346 426
#
# _framework density 22.651744999999998
#
# number of rings (size 3 to 8) (size 9 to 14) (size 15 to 20)
#    0.000    0.571    1.429    6.857    0.000   10.286 
#    0.000    0.000    0.000    0.000    0.000    0.000 
#    0.000    0.000    0.000    0.000    0.000    0.000 
#
# Total GULP energy -156486.409746 kJ/mol
# GULP energy per Si atom -5588.800348 kJ/mol
# Density = 2.260019 g / cm^3
# Si number density = 22.651745 Si / 1000 Ang^3
#
#
#
# Elastic Constant Matrix: (Units=GPa)
#
#
# Indices 1 2 3 4 5 6 
#
# 1 119.4558 7.4219 37.0278 0.0000 0.0000 0.0000
# 2 7.4219 120.6621 42.9035 0.0000 0.0000 0.0000
# 3 37.0278 42.9035 97.6077 0.0000 0.0000 0.0000
# 4 0.0000 0.0000 0.0000 10.7511 0.0000 0.0000
# 5 0.0000 0.0000 0.0000 0.0000 32.5110 0.0000
# 6 0.0000 0.0000 0.0000 0.0000 0.0000 40.3756
#
#
#
# Elastic Compliance Matrix: (Units=1/GPa)
#
#
# Indices 1 2 3 4 5 6 
#
# 1 0.009557 0.000831 -0.003991 0.000000 0.000000 0.000000
# 2 0.000831 0.009895 -0.004665 0.000000 0.000000 0.000000
# 3 -0.003991 -0.004665 0.013809 0.000000 0.000000 0.000000
# 4 0.000000 0.000000 0.000000 0.093013 0.000000 0.000000
# 5 0.000000 0.000000 0.000000 0.000000 0.030759 0.000000
# 6 0.000000 0.000000 0.000000 0.000000 0.000000 0.024767
#
#
# Mechanical properties :
#
#
# Convention : Reuss Voigt Hill
#
# Bulk Modulus (GPa) = 56.77747 56.93690 56.85718
# Shear Modulus (GPa) = 24.59177 33.41906 29.00541
#
# Velocity S-wave (km/s) = 3.29849 3.84518 3.58228
# Velocity P-wave (km/s) = 6.29496 6.70106 6.50118
#
# Compressibility (1/GPa) = 0.01761262
#
# Stress axis : x y z
#
# Youngs Moduli (GPa) = 104.63924 101.06021 72.41482
#
# Poissons Ratio (x) = -0.08399 0.28898
# Poissons Ratio (y) = -0.08697 0.33779
# Poissons Ratio (z) = 0.41758 0.47141
#
# Static dielectric constant tensor:
#      x y z
#    x 1.815720 0.000000 0.000000 
#    y 0.000000 1.911390 0.000000 
#    z 0.000000 0.000000 1.811300 
# 
# From -- ./inp_files/19933.got.cif
#   From: 2010.05.17/outbox.cif.g08.bks.cpg/sg73_10_cif.got.tgz:19933.got - 2010.06.03 17:35:07.
