data_PCOD9531929
_publ_section_title
;
Structure prediction by ZEFSAII (Michael W. Deem and Ramdas Pophale) SiO2 
 PCOD9531929
Probable space group: I B C A 
;
_chemical_formula_sum "Si O2"
_cell_formula_units_Z 80
_cell_length_a 9.740684
_cell_length_b 16.092376
_cell_length_c 24.103136
_cell_angle_alpha 90.000000
_cell_angle_beta 90.000000
_cell_angle_gamma 90.000000
_cell_volume 3778.184631
_symmetry_space_group_name_H-M "I B C A "
_symmetry_group_IT_number 73
_symmetry_cell_setting 'orthorhombic'
loop_
_space_group_symop_operation_xyz
x,y,z
-x,1/2-y,z
x,-y,1/2-z
1/2-x,y,-z
-x,-y,-z
x,1/2+y,-z
-x,y,1/2+z
1/2+x,-y,z
1/2+x,1/2+y,1/2+z
1/2-x,-y,1/2+z
1/2+x,1/2-y,-z
-x,1/2+y,1/2-z
1/2-x,1/2-y,1/2-z
1/2+x,y,1/2-z
1/2-x,1/2+y,z
x,1/2-y,1/2+z
loop_
_atom_site_type_symbol
_atom_site_label
_atom_site_fract_x
_atom_site_fract_y
_atom_site_fract_z
Si Si1 0.591844 0.324201 0.509435
Si Si2 0.134728 0.540775 0.601868
Si Si3 0.158570 0.824938 0.774371
Si Si4 0.578665 0.585683 0.778218
Si Si5 0.065942 0.892937 0.890648
O O1 0.500000 0.250000 0.533439
O O2 0.750000 0.298504 0.500000
O O3 0.590011 0.407327 0.547436
O O4 0.543880 0.344557 0.447529
O O5 0.079094 0.588266 0.655737
O O6 0.300540 0.546464 0.602392
O O7 0.068926 0.450535 0.612838
O O8 0.250000 0.750000 0.750000
O O9 0.263133 0.900614 0.762765
O O10 0.110633 0.833866 0.839072
O O11 0.019092 0.842300 0.742774
O O12 0.532320 0.500000 0.750000
#
# Coordination Sequence:
#
# PCOD9531929 Si02
#       5
#    16  16  16  16  16
#     4  10  23  41  62  91 127 163 214 273 333 388
#     4  10  22  39  64  88 122 164 218 263 322 387
#     4  11  24  39  61  94 129 165 211 267 324 385
#     4  11  22  39  62  88 125 167 213 258 318 393
#     4  10  22  41  62  91 125 168 215 271 322 395
#
# _framework density 21.174192000000001
#
# number of rings (size 3 to 8) (size 9 to 14) (size 15 to 20)
#    0.000    1.600    2.000    1.800    2.800    8.000 
#    0.000    0.000    0.000    0.000    0.000    0.000 
#    0.000    0.000    0.000    0.000    0.000    0.000 
#
# Total GULP energy -222853.846210 kJ/mol
# GULP energy per Si atom -5571.346155 kJ/mol
# Density = 2.112600 g / cm^3
# Si number density = 21.174192 Si / 1000 Ang^3
#
#
#
# Elastic Constant Matrix: (Units=GPa)
#
#
# Indices 1 2 3 4 5 6 
#
# 1 49.9191 16.9799 27.1558 0.0000 0.0000 0.0000
# 2 16.9799 64.7987 20.7523 0.0000 0.0000 0.0000
# 3 27.1558 20.7523 80.6678 0.0000 0.0000 0.0000
# 4 0.0000 0.0000 0.0000 16.2855 0.0000 0.0000
# 5 0.0000 0.0000 0.0000 0.0000 16.4363 0.0000
# 6 0.0000 0.0000 0.0000 0.0000 0.0000 45.4586
#
#
#
# Elastic Compliance Matrix: (Units=1/GPa)
#
#
# Indices 1 2 3 4 5 6 
#
# 1 0.025577 -0.004299 -0.007504 0.000000 0.000000 0.000000
# 2 -0.004299 0.017541 -0.003065 0.000000 0.000000 0.000000
# 3 -0.007504 -0.003065 0.015711 0.000000 0.000000 0.000000
# 4 0.000000 0.000000 0.000000 0.061404 0.000000 0.000000
# 5 0.000000 0.000000 0.000000 0.000000 0.060841 0.000000
# 6 0.000000 0.000000 0.000000 0.000000 0.000000 0.021998
#
#
# Mechanical properties :
#
#
# Convention : Reuss Voigt Hill
#
# Bulk Modulus (GPa) = 34.37372 36.12909 35.25141
# Shear Modulus (GPa) = 20.61803 24.33592 22.47698
#
# Velocity S-wave (km/s) = 3.12386 3.39384 3.26164
# Velocity P-wave (km/s) = 5.41113 5.69714 5.55597
#
# Compressibility (1/GPa) = 0.02909199
#
# Stress axis : x y z
#
# Youngs Moduli (GPa) = 39.09771 57.01068 63.64847
#
# Poissons Ratio (x) = 0.24508 0.47763
# Poissons Ratio (y) = 0.16808 0.19510
# Poissons Ratio (z) = 0.29340 0.17475
#
# Static dielectric constant tensor:
#      x y z
#    x 1.851150 0.000000 0.000000 
#    y 0.000000 1.819060 0.000000 
#    z 0.000000 0.000000 1.790890 
# 
# From -- ./inp_files/13443.got.cif
#   From: 2010.05.17/outbox.cif.g08.bks.cpg/sg73_7_cif.got.tgz:13443.got - 2010.06.03 17:35:07.
