data_PCOD9531314
_publ_section_title
;
Structure prediction by ZEFSAII (Michael W. Deem and Ramdas Pophale) SiO2 
 PCOD9531314
Probable space group: I B C A 
;
_chemical_formula_sum "Si O2"
_cell_formula_units_Z 64
_cell_length_a 5.495090
_cell_length_b 25.781420
_cell_length_c 18.040118
_cell_angle_alpha 90.000000
_cell_angle_beta 90.000000
_cell_angle_gamma 90.000000
_cell_volume 2555.765584
_symmetry_space_group_name_H-M "I B C A "
_symmetry_group_IT_number 73
_symmetry_cell_setting 'orthorhombic'
loop_
_space_group_symop_operation_xyz
x,y,z
-x,1/2-y,z
x,-y,1/2-z
1/2-x,y,-z
-x,-y,-z
x,1/2+y,-z
-x,y,1/2+z
1/2+x,-y,z
1/2+x,1/2+y,1/2+z
1/2-x,-y,1/2+z
1/2+x,1/2-y,-z
-x,1/2+y,1/2-z
1/2-x,1/2-y,1/2-z
1/2+x,y,1/2-z
1/2-x,1/2+y,z
x,1/2-y,1/2+z
loop_
_atom_site_type_symbol
_atom_site_label
_atom_site_fract_x
_atom_site_fract_y
_atom_site_fract_z
Si Si1 0.795244 0.809220 0.775874
Si Si2 0.503505 0.914976 0.454383
Si Si3 0.978615 0.441758 0.783002
Si Si4 0.857168 0.799769 0.077048
O O1 0.750000 0.750000 0.750000
O O2 0.521520 0.830227 0.769337
O O3 0.851676 0.812131 0.862982
O O4 0.250000 0.925862 0.500000
O O5 0.499261 0.940396 0.372345
O O6 0.500427 0.852761 0.439266
O O7 0.750000 0.928509 0.500000
O O8 0.968794 0.500000 0.750000
O O9 0.719772 0.419564 0.756313
O O10 0.000000 0.750000 0.106500
O O11 0.750000 0.782033 0.000000
#
# Coordination Sequence:
#
# PCOD9531314 Si02
#       4
#    16  16  16  16
#     4  10  21  38  55  83 118 158 223 270 324 369
#     4  11  25  45  67 102 143 183 230 288 343 411
#     4  10  22  45  73 105 139 177 225 280 357 420
#     4  11  24  39  64  93 133 184 230 277 329 391
#
# _framework density 25.041419000000001
#
# number of rings (size 3 to 8) (size 9 to 14) (size 15 to 20)
#    0.000    1.500    2.500    2.250    3.500    6.000 
#    0.000   15.000    0.000    0.000    0.000    0.000 
#    0.000    0.000    0.000    0.000    0.000    0.000 
#
# Total GULP energy -178833.126112 kJ/mol
# GULP energy per Si atom -5588.535191 kJ/mol
# Density = 2.498442 g / cm^3
# Si number density = 25.041419 Si / 1000 Ang^3
#
#
#
# Elastic Constant Matrix: (Units=GPa)
#
#
# Indices 1 2 3 4 5 6 
#
# 1 198.2568 34.9339 81.5141 0.0000 0.0000 0.0000
# 2 34.9339 87.8216 16.6962 0.0000 0.0000 0.0000
# 3 81.5141 16.6962 231.5742 0.0000 0.0000 0.0000
# 4 0.0000 0.0000 0.0000 32.7425 0.0000 0.0000
# 5 0.0000 0.0000 0.0000 0.0000 50.1927 0.0000
# 6 0.0000 0.0000 0.0000 0.0000 0.0000 26.7253
#
#
#
# Elastic Compliance Matrix: (Units=1/GPa)
#
#
# Indices 1 2 3 4 5 6 
#
# 1 0.006257 -0.002099 -0.002051 0.000000 0.000000 0.000000
# 2 -0.002099 0.012249 -0.000144 0.000000 0.000000 0.000000
# 3 -0.002051 -0.000144 0.005051 0.000000 0.000000 0.000000
# 4 0.000000 0.000000 0.000000 0.030541 0.000000 0.000000
# 5 0.000000 0.000000 0.000000 0.000000 0.019923 0.000000
# 6 0.000000 0.000000 0.000000 0.000000 0.000000 0.037418
#
#
# Mechanical properties :
#
#
# Convention : Reuss Voigt Hill
#
# Bulk Modulus (GPa) = 66.80939 87.10459 76.95699
# Shear Modulus (GPa) = 39.99438 47.56599 43.78019
#
# Velocity S-wave (km/s) = 4.00075 4.36305 4.18582
# Velocity P-wave (km/s) = 6.93388 7.76152 7.35935
#
# Compressibility (1/GPa) = 0.01496796
#
# Stress axis : x y z
#
# Youngs Moduli (GPa) = 159.81643 81.63861 197.99262
#
# Poissons Ratio (x) = 0.17136 0.40612
# Poissons Ratio (y) = 0.33546 0.02857
# Poissons Ratio (z) = 0.32781 0.01178
#
# Static dielectric constant tensor:
#      x y z
#    x 2.017410 0.000000 0.000000 
#    y 0.000000 -11.017310 0.000000 
#    z 0.000000 0.000000 1.892540 
# 
# From -- ./inp_files/20387.got.cif
#   From: 2010.05.17/outbox.cif.g08.bks.cpg/sg73_11_cif.got.tgz:20387.got - 2010.06.03 17:35:07.
