data_PCOD9531367
_publ_section_title
;
Structure prediction by ZEFSAII (Michael W. Deem and Ramdas Pophale) SiO2 
 PCOD9531367
Probable space group: I B C A 
;
_chemical_formula_sum "Si O2"
_cell_formula_units_Z 112
_cell_length_a 30.689530
_cell_length_b 28.862298
_cell_length_c 5.542049
_cell_angle_alpha 90.000000
_cell_angle_beta 90.000000
_cell_angle_gamma 90.000000
_cell_volume 4908.982740
_symmetry_space_group_name_H-M "I B C A "
_symmetry_group_IT_number 73
_symmetry_cell_setting 'orthorhombic'
loop_
_space_group_symop_operation_xyz
x,y,z
-x,1/2-y,z
x,-y,1/2-z
1/2-x,y,-z
-x,-y,-z
x,1/2+y,-z
-x,y,1/2+z
1/2+x,-y,z
1/2+x,1/2+y,1/2+z
1/2-x,-y,1/2+z
1/2+x,1/2-y,-z
-x,1/2+y,1/2-z
1/2-x,1/2-y,1/2-z
1/2+x,y,1/2-z
1/2-x,1/2+y,z
x,1/2-y,1/2+z
loop_
_atom_site_type_symbol
_atom_site_label
_atom_site_fract_x
_atom_site_fract_y
_atom_site_fract_z
Si Si1 0.388048 0.082203 0.509294
Si Si2 0.022004 0.324905 0.392813
Si Si3 0.311439 0.064550 0.874411
Si Si4 0.344326 0.000000 0.250000
Si Si5 0.670671 0.352971 0.239712
Si Si6 0.511601 0.570942 0.889551
Si Si7 0.114191 0.277911 0.464188
Si Si8 0.750000 0.112157 0.000000
O O1 0.356190 0.068783 0.726204
O O2 0.375999 0.042166 0.318534
O O3 0.370951 0.129981 0.395517
O O4 0.437589 0.082858 0.586490
O O5 0.070896 0.309092 0.439992
O O6 0.994456 0.308574 0.628485
O O7 0.015874 0.380688 0.384890
O O8 0.271667 0.078004 0.699462
O O9 0.314152 0.017315 0.028663
O O10 0.314941 0.105886 0.064586
O O11 0.656542 0.309341 0.085430
O O12 0.711392 0.353661 0.418021
O O13 0.502935 0.547158 0.635629
O O14 0.113660 0.256544 0.732655
#
# Coordination Sequence:
#
# PCOD9531367 Si02
#       8
#    16  16  16   8  16  16  16   8
#     4  10  22  40  72  98 140 195 238 288 352 427
#     4  10  21  38  63  94 137 180 229 287 344 408
#     4  10  22  41  78 101 141 183 235 287 357 429
#     4  10  22  42  70 108 144 184 228 294 354 424
#     4  10  23  43  73  98 137 188 236 288 356 441
#     4  10  22  37  63 100 133 183 246 288 336 405
#     4  12  28  44  68 106 146 186 237 299 365 427
#     4  10  22  44  76 108 132 180 236 292 348 442
#
# _framework density 22.815317
#
# number of rings (size 3 to 8) (size 9 to 14) (size 15 to 20)
#    0.000    1.714    0.000    3.429   12.000    1.714 
#    0.000    1.429  113.143    0.000    0.000    0.000 
#    0.000    0.000    0.000    0.000    0.000    0.000 
#
# Total GULP energy -312979.233454 kJ/mol
# GULP energy per Si atom -5588.914883 kJ/mol
# Density = 2.276339 g / cm^3
# Si number density = 22.815317 Si / 1000 Ang^3
#
#
#
# Elastic Constant Matrix: (Units=GPa)
#
#
# Indices 1 2 3 4 5 6 
#
# 1 101.0228 17.6561 19.7179 0.0000 0.0000 0.0000
# 2 17.6561 44.6616 -11.1228 0.0000 0.0000 0.0000
# 3 19.7179 -11.1228 106.6694 0.0000 0.0000 0.0000
# 4 0.0000 0.0000 0.0000 26.4091 0.0000 0.0000
# 5 0.0000 0.0000 0.0000 0.0000 91.6605 0.0000
# 6 0.0000 0.0000 0.0000 0.0000 0.0000 19.6169
#
#
#
# Elastic Compliance Matrix: (Units=1/GPa)
#
#
# Indices 1 2 3 4 5 6 
#
# 1 0.011306 -0.005123 -0.002624 0.000000 0.000000 0.000000
# 2 -0.005123 0.025309 0.003586 0.000000 0.000000 0.000000
# 3 -0.002624 0.003586 0.010234 0.000000 0.000000 0.000000
# 4 0.000000 0.000000 0.000000 0.037866 0.000000 0.000000
# 5 0.000000 0.000000 0.000000 0.000000 0.010910 0.000000
# 6 0.000000 0.000000 0.000000 0.000000 0.000000 0.050977
#
#
# Mechanical properties :
#
#
# Convention : Reuss Voigt Hill
#
# Bulk Modulus (GPa) = 25.95618 33.87291 29.91455
# Shear Modulus (GPa) = 29.80335 42.61081 36.20708
#
# Velocity S-wave (km/s) = 3.61818 4.32631 3.98799
# Velocity P-wave (km/s) = 5.37181 6.31148 5.86051
#
# Compressibility (1/GPa) = 0.03852646
#
# Stress axis : x y z
#
# Youngs Moduli (GPa) = 88.44571 39.51148 97.71559
#
# Poissons Ratio (x) = 0.20243 0.25643
# Poissons Ratio (y) = 0.45313 -0.35042
# Poissons Ratio (z) = 0.23210 -0.14169
#
# Static dielectric constant tensor:
#      x y z
#    x 1.810720 0.000000 0.000000 
#    y 0.000000 1.857360 0.000000 
#    z 0.000000 0.000000 1.961370 
# 
# From -- ./inp_files/3280.got.cif
#   From: 2010.05.17/outbox.cif.g08.bks.cpg/sg73_2_cif.got.tgz:3280.got - 2010.06.03 17:35:07.
