data_PCOD9531612
_publ_section_title
;
Structure prediction by ZEFSAII (Michael W. Deem and Ramdas Pophale) SiO2 
 PCOD9531612
Probable space group: I B C A 
;
_chemical_formula_sum "Si O2"
_cell_formula_units_Z 72
_cell_length_a 13.846107
_cell_length_b 8.911129
_cell_length_c 26.188860
_cell_angle_alpha 90.000000
_cell_angle_beta 90.000000
_cell_angle_gamma 90.000000
_cell_volume 3231.297973
_symmetry_space_group_name_H-M "I B C A "
_symmetry_group_IT_number 73
_symmetry_cell_setting 'orthorhombic'
loop_
_space_group_symop_operation_xyz
x,y,z
-x,1/2-y,z
x,-y,1/2-z
1/2-x,y,-z
-x,-y,-z
x,1/2+y,-z
-x,y,1/2+z
1/2+x,-y,z
1/2+x,1/2+y,1/2+z
1/2-x,-y,1/2+z
1/2+x,1/2-y,-z
-x,1/2+y,1/2-z
1/2-x,1/2-y,1/2-z
1/2+x,y,1/2-z
1/2-x,1/2+y,z
x,1/2-y,1/2+z
loop_
_atom_site_type_symbol
_atom_site_label
_atom_site_fract_x
_atom_site_fract_y
_atom_site_fract_z
Si Si1 0.347720 0.943874 0.437129
Si Si2 0.137313 0.705692 0.701275
Si Si3 0.750000 0.812766 0.500000
Si Si4 0.500000 0.750000 0.711081
Si Si5 0.667549 0.544258 0.175744
Si Si6 0.000000 0.750000 0.109283
O O1 0.331761 0.076371 0.477612
O O2 0.310118 0.003744 0.382937
O O3 0.289483 0.798469 0.456677
O O4 0.453442 0.879942 0.424747
O O5 0.072958 0.665678 0.750126
O O6 0.240483 0.629490 0.698040
O O7 0.078887 0.681559 0.648491
O O8 0.149368 0.886004 0.703060
O O9 0.429833 0.642576 0.679216
#
# Coordination Sequence:
#
# PCOD9531612 Si02
#       6
#    16  16   8   8  16   8
#     4  10  21  41  66  96 126 170 212 270 325 382
#     4  10  23  41  65  97 133 174 216 265 313 380
#     4  10  22  42  68  94 128 162 220 270 328 392
#     4  11  24  40  61  98 134 170 217 260 312 383
#     4  11  23  42  68  94 132 175 217 264 325 381
#     4   9  20  38  61  94 134 166 213 256 314 383
#
# _framework density 22.282069
#
# number of rings (size 3 to 8) (size 9 to 14) (size 15 to 20)
#    0.000    1.778    0.000    4.000    0.000    8.000 
#    0.000   10.000    0.000    0.000    0.000    0.000 
#    0.000    0.000    0.000    0.000    0.000    0.000 
#
# Total GULP energy -201359.759373 kJ/mol
# GULP energy per Si atom -5593.326649 kJ/mol
# Density = 2.223135 g / cm^3
# Si number density = 22.282069 Si / 1000 Ang^3
#
#
#
# Elastic Constant Matrix: (Units=GPa)
#
#
# Indices 1 2 3 4 5 6 
#
# 1 127.8773 58.1317 41.0462 0.0000 0.0000 0.0000
# 2 58.1317 129.6879 47.1304 0.0000 0.0000 0.0000
# 3 41.0462 47.1304 107.5932 0.0000 0.0000 0.0000
# 4 0.0000 0.0000 0.0000 22.2952 0.0000 0.0000
# 5 0.0000 0.0000 0.0000 0.0000 42.3751 0.0000
# 6 0.0000 0.0000 0.0000 0.0000 0.0000 21.2610
#
#
#
# Elastic Compliance Matrix: (Units=1/GPa)
#
#
# Indices 1 2 3 4 5 6 
#
# 1 0.010263 -0.003779 -0.002260 0.000000 0.000000 0.000000
# 2 -0.003779 0.010562 -0.003185 0.000000 0.000000 0.000000
# 3 -0.002260 -0.003185 0.011552 0.000000 0.000000 0.000000
# 4 0.000000 0.000000 0.000000 0.044853 0.000000 0.000000
# 5 0.000000 0.000000 0.000000 0.000000 0.023599 0.000000
# 6 0.000000 0.000000 0.000000 0.000000 0.000000 0.047035
#
#
# Mechanical properties :
#
#
# Convention : Reuss Voigt Hill
#
# Bulk Modulus (GPa) = 71.79289 73.08611 72.43950
# Shear Modulus (GPa) = 29.24754 31.77626 30.51190
#
# Velocity S-wave (km/s) = 3.62692 3.78046 3.70448
# Velocity P-wave (km/s) = 7.05899 7.20607 7.13291
#
# Compressibility (1/GPa) = 0.01392896
#
# Stress axis : x y z
#
# Youngs Moduli (GPa) = 97.43372 94.67647 86.56806
#
# Poissons Ratio (x) = 0.35780 0.19564
# Poissons Ratio (y) = 0.36822 0.27572
# Poissons Ratio (z) = 0.22020 0.30154
#
# Static dielectric constant tensor:
#      x y z
#    x 1.823500 0.000000 0.000000 
#    y 0.000000 1.906730 0.000000 
#    z 0.000000 0.000000 1.857480 
# 
# From -- ./inp_files/8324.got.cif
#   From: 2010.05.17/outbox.cif.g08.bks.cpg/sg73_5_cif.got.tgz:8324.got - 2010.06.03 17:35:07.
