data_PCOD9531459
_publ_section_title
;
Structure prediction by ZEFSAII (Michael W. Deem and Ramdas Pophale) SiO2 
 PCOD9531459
Probable space group: I B C A 
;
_chemical_formula_sum "Si O2"
_cell_formula_units_Z 88
_cell_length_a 10.458702
_cell_length_b 12.261831
_cell_length_c 32.536518
_cell_angle_alpha 90.000000
_cell_angle_beta 90.000000
_cell_angle_gamma 90.000000
_cell_volume 4172.575355
_symmetry_space_group_name_H-M "I B C A "
_symmetry_group_IT_number 73
_symmetry_cell_setting 'orthorhombic'
loop_
_space_group_symop_operation_xyz
x,y,z
-x,1/2-y,z
x,-y,1/2-z
1/2-x,y,-z
-x,-y,-z
x,1/2+y,-z
-x,y,1/2+z
1/2+x,-y,z
1/2+x,1/2+y,1/2+z
1/2-x,-y,1/2+z
1/2+x,1/2-y,-z
-x,1/2+y,1/2-z
1/2-x,1/2-y,1/2-z
1/2+x,y,1/2-z
1/2-x,1/2+y,z
x,1/2-y,1/2+z
loop_
_atom_site_type_symbol
_atom_site_label
_atom_site_fract_x
_atom_site_fract_y
_atom_site_fract_z
Si Si1 0.631354 0.711561 0.194961
Si Si2 0.089085 0.045865 0.093716
Si Si3 0.500000 0.250000 0.460322
Si Si4 0.683920 0.399335 0.225791
Si Si5 0.116659 0.926639 0.014929
Si Si6 0.833777 0.509941 0.855053
O O1 0.500000 0.750000 0.174858
O O2 0.598157 0.650611 0.238008
O O3 0.717917 0.810600 0.209304
O O4 0.700563 0.628008 0.164393
O O5 0.070696 0.158305 0.067642
O O6 0.952799 0.025720 0.114964
O O7 0.114718 0.942344 0.063633
O O8 0.210390 0.045858 0.124276
O O9 0.596300 0.313301 0.491108
O O10 0.750318 0.500000 0.250000
O O11 0.618190 0.443654 0.184931
O O12 0.250000 0.974922 0.000000
O O13 0.000000 0.000000 0.000000
#
# Coordination Sequence:
#
# PCOD9531459 Si02
#       6
#    16  16   8  16  16  16
#     4  10  21  39  65  89 130 185 226 261 332 397
#     4  11  24  43  66  99 134 171 219 280 345 386
#     4  10  24  42  72  90 128 182 222 270 338 418
#     4   9  21  39  60  90 128 177 224 270 316 397
#     4  10  22  44  67  95 128 173 227 270 330 411
#     4  11  24  40  64 101 139 171 218 286 335 389
#
# _framework density 21.090093
#
# number of rings (size 3 to 8) (size 9 to 14) (size 15 to 20)
#    0.000    1.818    0.000    3.273    3.818   10.909 
#    3.273    0.000    0.000    0.000    0.000    0.000 
#    0.000    0.000    0.000    0.000    0.000    0.000 
#
# Total GULP energy -245282.256046 kJ/mol
# GULP energy per Si atom -5574.596728 kJ/mol
# Density = 2.104209 g / cm^3
# Si number density = 21.090093 Si / 1000 Ang^3
#
#
#
# Elastic Constant Matrix: (Units=GPa)
#
#
# Indices 1 2 3 4 5 6 
#
# 1 87.0421 26.6430 27.2915 0.0000 0.0000 0.0000
# 2 26.6430 97.0509 48.8805 0.0000 0.0000 0.0000
# 3 27.2915 48.8805 113.6835 0.0000 0.0000 0.0000
# 4 0.0000 0.0000 0.0000 46.7968 0.0000 0.0000
# 5 0.0000 0.0000 0.0000 0.0000 27.6560 0.0000
# 6 0.0000 0.0000 0.0000 0.0000 0.0000 13.3394
#
#
#
# Elastic Compliance Matrix: (Units=1/GPa)
#
#
# Indices 1 2 3 4 5 6 
#
# 1 0.012892 -0.002528 -0.002008 0.000000 0.000000 0.000000
# 2 -0.002528 0.013648 -0.005261 0.000000 0.000000 0.000000
# 3 -0.002008 -0.005261 0.011541 0.000000 0.000000 0.000000
# 4 0.000000 0.000000 0.000000 0.021369 0.000000 0.000000
# 5 0.000000 0.000000 0.000000 0.000000 0.036158 0.000000
# 6 0.000000 0.000000 0.000000 0.000000 0.000000 0.074966
#
#
# Mechanical properties :
#
#
# Convention : Reuss Voigt Hill
#
# Bulk Modulus (GPa) = 54.09477 55.93407 55.01442
# Shear Modulus (GPa) = 25.46734 30.55588 28.01161
#
# Velocity S-wave (km/s) = 3.47875 3.81047 3.64839
# Velocity P-wave (km/s) = 6.46844 6.77781 6.62493
#
# Compressibility (1/GPa) = 0.01848608
#
# Stress axis : x y z
#
# Youngs Moduli (GPa) = 77.56712 73.27238 86.65063
#
# Poissons Ratio (x) = 0.18522 0.17400
# Poissons Ratio (y) = 0.19608 0.45589
# Poissons Ratio (z) = 0.15576 0.38550
#
# Static dielectric constant tensor:
#      x y z
#    x 1.700210 0.000000 0.000000 
#    y 0.000000 2.846030 0.000000 
#    z 0.000000 0.000000 1.794860 
# 
# From -- ./inp_files/33911.got.cif
#   From: 2010.05.17/outbox.cif.g08.bks.cpg/sg73_17_cif.got.tgz:33911.got - 2010.06.03 17:35:07.
