data_PCOD9531544
_publ_section_title
;
Structure prediction by ZEFSAII (Michael W. Deem and Ramdas Pophale) SiO2 
 PCOD9531544
Probable space group: I B C A 
;
_chemical_formula_sum "Si O2"
_cell_formula_units_Z 64
_cell_length_a 19.093346
_cell_length_b 15.097485
_cell_length_c 7.994234
_cell_angle_alpha 90.000000
_cell_angle_beta 90.000000
_cell_angle_gamma 90.000000
_cell_volume 2304.429923
_symmetry_space_group_name_H-M "I B C A "
_symmetry_group_IT_number 73
_symmetry_cell_setting 'orthorhombic'
loop_
_space_group_symop_operation_xyz
x,y,z
-x,1/2-y,z
x,-y,1/2-z
1/2-x,y,-z
-x,-y,-z
x,1/2+y,-z
-x,y,1/2+z
1/2+x,-y,z
1/2+x,1/2+y,1/2+z
1/2-x,-y,1/2+z
1/2+x,1/2-y,-z
-x,1/2+y,1/2-z
1/2-x,1/2-y,1/2-z
1/2+x,y,1/2-z
1/2-x,1/2+y,z
x,1/2-y,1/2+z
loop_
_atom_site_type_symbol
_atom_site_label
_atom_site_fract_x
_atom_site_fract_y
_atom_site_fract_z
Si Si1 0.858780 0.878239 0.453049
Si Si2 0.394290 0.671568 0.033029
Si Si3 0.265797 0.357507 0.266319
Si Si4 0.988659 0.595817 0.766488
O O1 0.876890 0.774558 0.475968
O O2 0.814333 0.896544 0.617283
O O3 0.809319 0.894050 0.291350
O O4 0.933118 0.920720 0.417484
O O5 0.317595 0.630344 0.075200
O O6 0.448595 0.660196 0.185679
O O7 0.439546 0.634425 0.879449
O O8 0.250000 0.250000 0.250000
O O9 0.022091 0.500000 0.750000
#
# Coordination Sequence:
#
# PCOD9531544 Si02
#       4
#    16  16  16  16
#     4  10  21  40  66  94 123 163 217 268 318 384
#     4  11  22  40  65  89 124 174 220 267 319 378
#     4   9  19  38  66  97 122 155 213 276 324 375
#     4  12  26  42  61  96 138 174 215 267 323 385
#
# _framework density 27.772597999999999
#
# number of rings (size 3 to 8) (size 9 to 14) (size 15 to 20)
#    0.000    1.500    0.000    6.000    0.000    5.000 
#    0.000    6.250    0.000    0.000    0.000    0.000 
#    0.000    0.000    0.000    0.000    0.000    0.000 
#
# Total GULP energy -179029.062172 kJ/mol
# GULP energy per Si atom -5594.658193 kJ/mol
# Density = 2.770939 g / cm^3
# Si number density = 27.772598 Si / 1000 Ang^3
#
#
#
# Elastic Constant Matrix: (Units=GPa)
#
#
# Indices 1 2 3 4 5 6 
#
# 1 204.3843 0.5970 45.4188 0.0000 0.0000 0.0000
# 2 0.5970 57.2536 12.6662 0.0000 0.0000 0.0000
# 3 45.4188 12.6662 122.6087 0.0000 0.0000 0.0000
# 4 0.0000 0.0000 0.0000 5.6769 0.0000 0.0000
# 5 0.0000 0.0000 0.0000 0.0000 74.4144 0.0000
# 6 0.0000 0.0000 0.0000 0.0000 0.0000 -3.7852
#
#
#
# Elastic Compliance Matrix: (Units=1/GPa)
#
#
# Indices 1 2 3 4 5 6 
#
# 1 0.005340 0.000391 -0.002019 0.000000 0.000000 0.000000
# 2 0.000391 0.017903 -0.001994 0.000000 0.000000 0.000000
# 3 -0.002019 -0.001994 0.009110 0.000000 0.000000 0.000000
# 4 0.000000 0.000000 0.000000 0.176152 0.000000 0.000000
# 5 0.000000 0.000000 0.000000 0.000000 0.013438 0.000000
# 6 0.000000 0.000000 0.000000 0.000000 0.000000 -0.264189
#
#
# Mechanical properties :
#
#
# Convention : Reuss Voigt Hill
#
# Bulk Modulus (GPa) = 39.82597 55.73451 47.78024
# Shear Modulus (GPa) = -187.74511 36.96554 -75.38979
#
# Velocity S-wave (km/s) = -8.23089 3.65226 -5.21578
# Velocity P-wave (km/s) = 8.71545 6.15606 4.36245
#
# Compressibility (1/GPa) = 0.02510924
#
# Stress axis : x y z
#
# Youngs Moduli (GPa) = 187.25981 55.85574 109.77182
#
# Poissons Ratio (x) = -0.02183 0.22158
# Poissons Ratio (y) = -0.07320 0.21892
# Poissons Ratio (z) = 0.37800 0.11139
#
# Static dielectric constant tensor:
#      x y z
#    x 2.043520 0.000000 0.000000 
#    y 0.000000 2.131260 0.000000 
#    z 0.000000 0.000000 2.447030 
# 
# From -- ./inp_files/5959.got.cif
#   From: 2010.05.17/outbox.cif.g08.bks.cpg/sg73_3_cif.got.tgz:5959.got - 2010.06.03 17:35:07.
