data_PCOD9531532
_publ_section_title
;
Structure prediction by ZEFSAII (Michael W. Deem and Ramdas Pophale) SiO2 
 PCOD9531532
Probable space group: I B C A 
;
_chemical_formula_sum "Si O2"
_cell_formula_units_Z 88
_cell_length_a 13.459413
_cell_length_b 24.324186
_cell_length_c 13.373524
_cell_angle_alpha 90.000000
_cell_angle_beta 90.000000
_cell_angle_gamma 90.000000
_cell_volume 4378.348196
_symmetry_space_group_name_H-M "I B C A "
_symmetry_group_IT_number 73
_symmetry_cell_setting 'orthorhombic'
loop_
_space_group_symop_operation_xyz
x,y,z
-x,1/2-y,z
x,-y,1/2-z
1/2-x,y,-z
-x,-y,-z
x,1/2+y,-z
-x,y,1/2+z
1/2+x,-y,z
1/2+x,1/2+y,1/2+z
1/2-x,-y,1/2+z
1/2+x,1/2-y,-z
-x,1/2+y,1/2-z
1/2-x,1/2-y,1/2-z
1/2+x,y,1/2-z
1/2-x,1/2+y,z
x,1/2-y,1/2+z
loop_
_atom_site_type_symbol
_atom_site_label
_atom_site_fract_x
_atom_site_fract_y
_atom_site_fract_z
Si Si1 0.897472 0.346546 0.562580
Si Si2 0.585967 0.095984 0.723881
Si Si3 0.066267 0.000000 0.250000
Si Si4 0.560647 0.302609 0.079100
Si Si5 0.758222 0.034943 0.612483
Si Si6 0.250000 0.744006 0.500000
Si Si7 0.250000 0.070582 0.500000
O O1 0.909679 0.378807 0.665356
O O2 0.818254 0.296406 0.567918
O O3 0.844481 0.389981 0.486874
O O4 0.999218 0.322663 0.518489
O O5 0.561990 0.146958 0.653237
O O6 0.687722 0.068079 0.685865
O O7 0.503649 0.048841 0.712713
O O8 0.135144 0.973645 0.336744
O O9 0.500000 0.250000 0.119269
O O10 0.670958 0.281545 0.056739
O O11 0.750000 0.060051 0.500000
O O12 0.726284 0.971768 0.589427
#
# Coordination Sequence:
#
# PCOD9531532 Si02
#       7
#    16  16   8  16  16   8   8
#     4  10  21  40  65  94 128 171 219 277 329 396
#     4  12  26  40  70 101 131 178 226 270 339 398
#     4  12  24  42  64 104 140 172 226 272 330 408
#     4  10  24  43  63  94 127 171 222 272 337 388
#     4  10  25  41  63  95 134 178 215 270 329 396
#     4   9  22  43  66  90 132 171 216 279 332 388
#     4   9  18  39  64  84 134 171 210 263 330 382
#
# _framework density 20.098901999999999
#
# number of rings (size 3 to 8) (size 9 to 14) (size 15 to 20)
#    0.545    1.091    0.000    3.818    3.818    6.545 
#    0.000    0.000    0.000    0.000    0.000    0.000 
#    0.000    0.000    0.000    0.000    0.000    0.000 
#
# Total GULP energy -245409.285823 kJ/mol
# GULP energy per Si atom -5577.483769 kJ/mol
# Density = 2.005316 g / cm^3
# Si number density = 20.098902 Si / 1000 Ang^3
#
#
#
# Elastic Constant Matrix: (Units=GPa)
#
#
# Indices 1 2 3 4 5 6 
#
# 1 90.4664 59.1642 37.9221 -0.0001 0.0000 0.0000
# 2 59.1642 146.9254 47.1569 0.0002 0.0000 0.0000
# 3 37.9221 47.1569 86.9581 0.0002 0.0001 0.0000
# 4 -0.0001 0.0002 0.0002 38.6507 0.0001 0.0000
# 5 0.0000 0.0000 0.0001 0.0001 5.3809 0.0000
# 6 0.0000 0.0000 0.0000 0.0000 0.0000 2.2342
#
#
#
# Elastic Compliance Matrix: (Units=1/GPa)
#
#
# Indices 1 2 3 4 5 6 
#
# 1 0.016220 -0.005159 -0.004276 0.000000 0.000000 0.000000
# 2 -0.005159 0.009881 -0.003109 0.000000 0.000000 0.000000
# 3 -0.004276 -0.003109 0.015050 0.000000 0.000000 0.000000
# 4 0.000000 0.000000 0.000000 0.025873 0.000000 0.000000
# 5 0.000000 0.000000 0.000000 0.000000 0.185844 -0.000001
# 6 0.000000 0.000000 0.000000 0.000000 -0.000001 0.447596
#
#
# Mechanical properties :
#
#
# Convention : Reuss Voigt Hill
#
# Bulk Modulus (GPa) = 62.24898 68.09290 65.17094
# Shear Modulus (GPa) = 6.84081 21.26026 14.05054
#
# Velocity S-wave (km/s) = 1.84688 3.25588 2.64686
# Velocity P-wave (km/s) = 5.96544 6.93447 6.46813
#
# Compressibility (1/GPa) = 0.01606452
#
# Stress axis : x y z
#
# Youngs Moduli (GPa) = 61.65130 101.19926 66.44395
#
# Poissons Ratio (x) = 0.52211 0.28410
# Poissons Ratio (y) = 0.31808 0.20656
# Poissons Ratio (z) = 0.26361 0.31460
#
# Static dielectric constant tensor:
#      x y z
#    x 1.715660 0.000000 0.000000 
#    y 0.000000 1.707650 0.000000 
#    z 0.000000 0.000000 1.745510 
# 
# From -- ./inp_files/16166.got.cif
#   From: 2010.05.17/outbox.cif.g08.bks.cpg/sg73_9_cif.got.tgz:16166.got - 2010.06.03 17:35:07.
