data_PCOD9531410
_publ_section_title
;
Structure prediction by ZEFSAII (Michael W. Deem and Ramdas Pophale) SiO2 
 PCOD9531410
Probable space group: I B C A 
;
_chemical_formula_sum "Si O2"
_cell_formula_units_Z 80
_cell_length_a 13.392486
_cell_length_b 24.683408
_cell_length_c 11.650027
_cell_angle_alpha 90.000000
_cell_angle_beta 90.000000
_cell_angle_gamma 90.000000
_cell_volume 3851.175010
_symmetry_space_group_name_H-M "I B C A "
_symmetry_group_IT_number 73
_symmetry_cell_setting 'orthorhombic'
loop_
_space_group_symop_operation_xyz
x,y,z
-x,1/2-y,z
x,-y,1/2-z
1/2-x,y,-z
-x,-y,-z
x,1/2+y,-z
-x,y,1/2+z
1/2+x,-y,z
1/2+x,1/2+y,1/2+z
1/2-x,-y,1/2+z
1/2+x,1/2-y,-z
-x,1/2+y,1/2-z
1/2-x,1/2-y,1/2-z
1/2+x,y,1/2-z
1/2-x,1/2+y,z
x,1/2-y,1/2+z
loop_
_atom_site_type_symbol
_atom_site_label
_atom_site_fract_x
_atom_site_fract_y
_atom_site_fract_z
Si Si1 0.854864 0.374927 0.542815
Si Si2 0.807419 0.805556 0.238256
Si Si3 0.031129 0.152423 0.900970
Si Si4 0.325066 0.609242 0.093465
Si Si5 0.008324 0.439296 0.209976
O O1 0.750000 0.397393 0.500000
O O2 0.832226 0.330280 0.638655
O O3 0.917670 0.345958 0.442343
O O4 0.921908 0.420967 0.603665
O O5 0.750000 0.750000 0.250000
O O6 0.911486 0.801170 0.168290
O O7 0.739672 0.849593 0.170124
O O8 0.034443 0.101112 0.814513
O O9 0.096039 0.142423 0.015493
O O10 0.393817 0.570651 0.170441
O O11 0.250000 0.582930 0.000000
O O12 0.024784 0.500000 0.250000
#
# Coordination Sequence:
#
# PCOD9531410 Si02
#       5
#    16  16  16  16  16
#     4  10  21  39  60  88 125 160 202 252 302 364
#     4  10  21  40  64  90 121 160 205 250 306 368
#     4   9  20  40  60  85 122 156 197 253 301 357
#     4   9  19  38  59  85 122 157 196 250 304 360
#     4  10  21  40  62  87 121 160 204 253 305 363
#
# _framework density 20.772881000000002
#
# number of rings (size 3 to 8) (size 9 to 14) (size 15 to 20)
#    0.000    2.400    0.000    1.200    0.000    5.600 
#    0.000   46.000    0.000    0.000    0.000    0.000 
#    0.000    0.000    0.000    0.000    0.000    0.000 
#
# Total GULP energy -223249.745293 kJ/mol
# GULP energy per Si atom -5581.243632 kJ/mol
# Density = 2.072560 g / cm^3
# Si number density = 20.772881 Si / 1000 Ang^3
#
#
#
# Elastic Constant Matrix: (Units=GPa)
#
#
# Indices 1 2 3 4 5 6 
#
# 1 147.2878 52.2984 45.8336 0.0000 0.0000 0.0000
# 2 52.2984 96.1224 37.8081 -0.0001 0.0000 0.0000
# 3 45.8336 37.8081 78.1878 -0.0005 0.0001 0.0001
# 4 0.0000 -0.0001 -0.0005 5.6513 0.0000 0.0000
# 5 0.0000 0.0000 0.0001 0.0000 59.2221 0.0000
# 6 0.0000 0.0000 0.0001 0.0000 0.0000 17.5762
#
#
#
# Elastic Compliance Matrix: (Units=1/GPa)
#
#
# Indices 1 2 3 4 5 6 
#
# 1 0.009195 -0.003560 -0.003669 0.000000 0.000000 0.000000
# 2 -0.003560 0.014225 -0.004792 0.000000 0.000000 0.000000
# 3 -0.003669 -0.004792 0.017257 0.000001 0.000000 0.000000
# 4 0.000000 0.000000 0.000001 0.176952 0.000000 0.000000
# 5 0.000000 0.000000 0.000000 0.000000 0.016886 0.000000
# 6 0.000000 0.000000 0.000000 0.000000 0.000000 0.056895
#
#
# Mechanical properties :
#
#
# Convention : Reuss Voigt Hill
#
# Bulk Modulus (GPa) = 60.10795 65.94201 63.02498
# Shear Modulus (GPa) = 15.57649 28.86710 22.22180
#
# Velocity S-wave (km/s) = 2.74131 3.73185 3.27425
# Velocity P-wave (km/s) = 6.24646 7.09804 6.68582
#
# Compressibility (1/GPa) = 0.01663674
#
# Stress axis : x y z
#
# Youngs Moduli (GPa) = 108.75353 70.29867 57.94590
#
# Poissons Ratio (x) = 0.25025 0.21259
# Poissons Ratio (y) = 0.38714 0.27767
# Poissons Ratio (z) = 0.39899 0.33686
#
# Static dielectric constant tensor:
#      x y z
#    x 1.807890 0.000000 0.000000 
#    y 0.000000 1.696130 0.000000 
#    z 0.000000 0.000000 1.751520 
# 
# From -- ./inp_files/10817.got.cif
#   From: 2010.05.17/outbox.cif.g08.bks.cpg/sg73_6_cif.got.tgz:10817.got - 2010.06.03 17:35:07.
