data_PCOD9531156
_publ_section_title
;
Structure prediction by ZEFSAII (Michael W. Deem and Ramdas Pophale) SiO2 
 PCOD9531156
Probable space group: I B C A 
;
_chemical_formula_sum "Si O2"
_cell_formula_units_Z 112
_cell_length_a 28.231788
_cell_length_b 17.188459
_cell_length_c 11.136830
_cell_angle_alpha 90.000000
_cell_angle_beta 90.000000
_cell_angle_gamma 90.000000
_cell_volume 5404.268489
_symmetry_space_group_name_H-M "I B C A "
_symmetry_group_IT_number 73
_symmetry_cell_setting 'orthorhombic'
loop_
_space_group_symop_operation_xyz
x,y,z
-x,1/2-y,z
x,-y,1/2-z
1/2-x,y,-z
-x,-y,-z
x,1/2+y,-z
-x,y,1/2+z
1/2+x,-y,z
1/2+x,1/2+y,1/2+z
1/2-x,-y,1/2+z
1/2+x,1/2-y,-z
-x,1/2+y,1/2-z
1/2-x,1/2-y,1/2-z
1/2+x,y,1/2-z
1/2-x,1/2+y,z
x,1/2-y,1/2+z
loop_
_atom_site_type_symbol
_atom_site_label
_atom_site_fract_x
_atom_site_fract_y
_atom_site_fract_z
Si Si1 0.015293 0.082644 0.300905
Si Si2 0.776575 0.274668 0.126187
Si Si3 0.326189 0.436151 0.337377
Si Si4 0.084161 0.390781 0.384737
Si Si5 0.399079 0.456846 0.016077
Si Si6 0.871673 0.824244 0.340119
Si Si7 0.087875 0.665623 0.851007
O O1 0.057050 0.063413 0.396519
O O2 0.039606 0.128380 0.192150
O O3 0.969815 0.127511 0.349286
O O4 0.999578 0.000000 0.250000
O O5 0.750000 0.250000 0.250000
O O6 0.790794 0.367055 0.124404
O O7 0.823685 0.222255 0.134532
O O8 0.750000 0.258389 0.000000
O O9 0.303128 0.500000 0.250000
O O10 0.355443 0.494260 0.425577
O O11 0.370079 0.383817 0.285968
O O12 0.083205 0.481575 0.417892
O O13 0.122522 0.372393 0.282692
O O14 0.096379 0.346239 0.507663
O O15 0.382222 0.379563 0.951175
O O16 0.909563 0.755524 0.323348
#
# Coordination Sequence:
#
# PCOD9531156 Si02
#       7
#    16  16  16  16  16  16  16
#     4  12  21  40  66  98 139 191 241 283 333 400
#     4  11  29  51  77 110 143 180 232 308 377 442
#     4  10  20  44  75  99 135 183 233 278 356 435
#     4  11  25  41  64 101 139 187 238 289 336 415
#     4  11  22  42  71  98 137 189 234 286 341 419
#     4  11  27  44  73  95 145 180 229 287 372 418
#     4  10  23  41  64  95 138 184 234 282 346 423
#
# _framework density 20.724359
#
# number of rings (size 3 to 8) (size 9 to 14) (size 15 to 20)
#    0.000    1.143    4.286    1.714   12.000    0.571 
#    2.571    0.000    0.000    0.000    0.000    0.000 
#    0.000    0.000    0.000    0.000    0.000    0.000 
#
# Total GULP energy -312241.037416 kJ/mol
# GULP energy per Si atom -5575.732811 kJ/mol
# Density = 2.067719 g / cm^3
# Si number density = 20.724359 Si / 1000 Ang^3
#
#
#
# Elastic Constant Matrix: (Units=GPa)
#
#
# Indices 1 2 3 4 5 6 
#
# 1 67.8295 19.9700 49.4444 0.0000 0.0000 0.0000
# 2 19.9700 78.2726 41.8737 0.0000 0.0000 0.0000
# 3 49.4444 41.8737 103.3576 0.0000 0.0000 0.0000
# 4 0.0000 0.0000 0.0000 22.4525 0.0000 0.0000
# 5 0.0000 0.0000 0.0000 0.0000 25.9991 0.0000
# 6 0.0000 0.0000 0.0000 0.0000 0.0000 6.8183
#
#
#
# Elastic Compliance Matrix: (Units=1/GPa)
#
#
# Indices 1 2 3 4 5 6 
#
# 1 0.022637 0.000023 -0.010838 0.000000 0.000000 0.000000
# 2 0.000023 0.016311 -0.006619 0.000000 0.000000 0.000000
# 3 -0.010838 -0.006619 0.017542 0.000000 0.000000 0.000000
# 4 0.000000 0.000000 0.000000 0.044538 0.000000 0.000000
# 5 0.000000 0.000000 0.000000 0.000000 0.038463 0.000000
# 6 0.000000 0.000000 0.000000 0.000000 0.000000 0.146664
#
#
# Mechanical properties :
#
#
# Convention : Reuss Voigt Hill
#
# Bulk Modulus (GPa) = 46.25282 52.44841 49.35062
# Shear Modulus (GPa) = 15.23321 20.26544 17.74933
#
# Velocity S-wave (km/s) = 2.71410 3.13046 2.92969
# Velocity P-wave (km/s) = 5.67348 6.19911 5.94211
#
# Compressibility (1/GPa) = 0.02162030
#
# Stress axis : x y z
#
# Youngs Moduli (GPa) = 44.17621 61.30803 57.00758
#
# Poissons Ratio (x) = -0.00140 0.61786
# Poissons Ratio (y) = -0.00101 0.37734
# Poissons Ratio (z) = 0.47879 0.40580
#
# Static dielectric constant tensor:
#      x y z
#    x 1.757980 0.000000 0.000000 
#    y 0.000000 1.748930 0.000000 
#    z 0.000000 0.000000 1.797230 
# 
# From -- ./inp_files/14789.got.cif
#   From: 2010.05.17/outbox.cif.g08.bks.cpg/sg73_8_cif.got.tgz:14789.got - 2010.06.03 17:35:07.
