data_PCOD9531015
_publ_section_title
;
Structure prediction by ZEFSAII (Michael W. Deem and Ramdas Pophale) SiO2 
 PCOD9531015
Probable space group: I B C A 
;
_chemical_formula_sum "Si O2"
_cell_formula_units_Z 64
_cell_length_a 7.868310
_cell_length_b 13.938939
_cell_length_c 20.189012
_cell_angle_alpha 90.000000
_cell_angle_beta 90.000000
_cell_angle_gamma 90.000000
_cell_volume 2214.247922
_symmetry_space_group_name_H-M "I B C A "
_symmetry_group_IT_number 73
_symmetry_cell_setting 'orthorhombic'
loop_
_space_group_symop_operation_xyz
x,y,z
-x,1/2-y,z
x,-y,1/2-z
1/2-x,y,-z
-x,-y,-z
x,1/2+y,-z
-x,y,1/2+z
1/2+x,-y,z
1/2+x,1/2+y,1/2+z
1/2-x,-y,1/2+z
1/2+x,1/2-y,-z
-x,1/2+y,1/2-z
1/2-x,1/2-y,1/2-z
1/2+x,y,1/2-z
1/2-x,1/2+y,z
x,1/2-y,1/2+z
loop_
_atom_site_type_symbol
_atom_site_label
_atom_site_fract_x
_atom_site_fract_y
_atom_site_fract_z
Si Si1 0.234866 0.593697 0.284244
Si Si2 0.483161 0.088981 0.600404
Si Si3 0.193103 0.693659 0.838511
Si Si4 0.060103 0.608453 0.968260
O O1 0.148336 0.500000 0.250000
O O2 0.334514 0.562346 0.349648
O O3 0.355285 0.627064 0.223470
O O4 0.176138 0.698737 0.311065
O O5 0.616554 0.153692 0.641868
O O6 0.447595 0.142791 0.530645
O O7 0.522351 0.985036 0.567143
O O8 0.099214 0.674351 0.906355
O O9 0.250000 0.593664 0.000000
#
# Coordination Sequence:
#
# PCOD9531015 Si02
#       4
#    16  16  16  16
#     4  11  22  40  66 100 134 182 229 291 353 415
#     4  10  20  40  68  96 139 180 231 292 357 428
#     4  10  22  41  66  96 138 178 233 289 350 428
#     4   9  19  40  69  99 136 183 233 292 361 425
#
# _framework density 28.90372
#
# number of rings (size 3 to 8) (size 9 to 14) (size 15 to 20)
#    0.000    2.000    2.500    0.750    0.000    1.000 
#    0.000    6.250    5.500    0.000    0.000    0.000 
#    0.000    0.000    0.000    0.000    0.000    0.000 
#
# Total GULP energy -178506.934255 kJ/mol
# GULP energy per Si atom -5578.341695 kJ/mol
# Density = 2.883793 g / cm^3
# Si number density = 28.903720 Si / 1000 Ang^3
#
#
#
# Elastic Constant Matrix: (Units=GPa)
#
#
# Indices 1 2 3 4 5 6 
#
# 1 68.2494 61.9170 64.9049 0.0000 0.0000 0.0000
# 2 61.9170 221.4337 99.1344 0.0000 0.0000 0.0000
# 3 64.9049 99.1344 267.7837 0.0000 0.0000 0.0000
# 4 0.0000 0.0000 0.0000 33.1204 0.0000 0.0000
# 5 0.0000 0.0000 0.0000 0.0000 34.0330 0.0000
# 6 0.0000 0.0000 0.0000 0.0000 0.0000 43.2748
#
#
#
# Elastic Compliance Matrix: (Units=1/GPa)
#
#
# Indices 1 2 3 4 5 6 
#
# 1 0.022348 -0.004584 -0.003720 0.000000 0.000000 0.000000
# 2 -0.004584 0.006353 -0.001241 0.000000 0.000000 0.000000
# 3 -0.003720 -0.001241 0.005095 0.000000 0.000000 0.000000
# 4 0.000000 0.000000 0.000000 0.030193 0.000000 0.000000
# 5 0.000000 0.000000 0.000000 0.000000 0.029383 0.000000
# 6 0.000000 0.000000 0.000000 0.000000 0.000000 0.023108
#
#
# Mechanical properties :
#
#
# Convention : Reuss Voigt Hill
#
# Bulk Modulus (GPa) = 67.99120 112.15327 90.07224
# Shear Modulus (GPa) = 35.59421 44.18635 39.89028
#
# Velocity S-wave (km/s) = 3.51305 3.91416 3.71901
# Velocity P-wave (km/s) = 6.32690 7.70156 7.04783
#
# Compressibility (1/GPa) = 0.01470778
#
# Stress axis : x y z
#
# Youngs Moduli (GPa) = 44.74685 157.39879 196.25565
#
# Poissons Ratio (x) = 0.72145 0.73003
# Poissons Ratio (y) = 0.20510 0.24356
# Poissons Ratio (z) = 0.16645 0.19534
#
# Static dielectric constant tensor:
#      x y z
#    x 2.400480 0.000000 0.000000 
#    y 0.000000 2.415250 0.000000 
#    z 0.000000 0.000000 2.183800 
# 
# From -- ./inp_files/21056.got.cif
#   From: 2010.05.17/outbox.cif.g08.bks.cpg/sg73_11_cif.got.tgz:21056.got - 2010.06.03 17:35:07.
