data_PCOD9531814
_publ_section_title
;
Structure prediction by ZEFSAII (Michael W. Deem and Ramdas Pophale) SiO2 
 PCOD9531814
Probable space group: I B C A 
;
_chemical_formula_sum "Si O2"
_cell_formula_units_Z 120
_cell_length_a 27.440650
_cell_length_b 18.158848
_cell_length_c 12.284807
_cell_angle_alpha 90.000000
_cell_angle_beta 90.000000
_cell_angle_gamma 90.000000
_cell_volume 6121.403757
_symmetry_space_group_name_H-M "I B C A "
_symmetry_group_IT_number 73
_symmetry_cell_setting 'orthorhombic'
loop_
_space_group_symop_operation_xyz
x,y,z
-x,1/2-y,z
x,-y,1/2-z
1/2-x,y,-z
-x,-y,-z
x,1/2+y,-z
-x,y,1/2+z
1/2+x,-y,z
1/2+x,1/2+y,1/2+z
1/2-x,-y,1/2+z
1/2+x,1/2-y,-z
-x,1/2+y,1/2-z
1/2-x,1/2-y,1/2-z
1/2+x,y,1/2-z
1/2-x,1/2+y,z
x,1/2-y,1/2+z
loop_
_atom_site_type_symbol
_atom_site_label
_atom_site_fract_x
_atom_site_fract_y
_atom_site_fract_z
Si Si1 0.480233 0.095423 0.931910
Si Si2 0.946857 0.259867 0.173144
Si Si3 0.915169 0.121086 0.029876
Si Si4 0.361624 0.691621 0.330849
Si Si5 0.224464 0.183858 0.178893
Si Si6 0.181330 0.837310 0.558705
Si Si7 0.101678 0.537908 0.075740
Si Si8 0.468554 0.500000 0.750000
O O1 0.460399 0.177490 0.914432
O O2 0.529187 0.100336 0.004377
O O3 0.499716 0.053317 0.825306
O O4 0.435436 0.050664 0.977533
O O5 0.925434 0.187462 0.114585
O O6 0.906233 0.291941 0.251171
O O7 0.000000 0.250000 0.229051
O O8 0.889461 0.049488 0.081308
O O9 0.882223 0.145164 0.930209
O O10 0.316897 0.656364 0.262494
O O11 0.344012 0.769469 0.379948
O O12 0.250000 0.250000 0.250000
O O13 0.271169 0.141315 0.130635
O O14 0.195890 0.193536 0.062259
O O15 0.146094 0.907454 0.558656
O O16 0.067317 0.552061 0.179741
#
# Coordination Sequence:
#
# PCOD9531814 Si02
#       8
#    16  16  16  16  16  16  16   8
#     4  10  22  38  57  87 128 171 217 250 309 383
#     4  10  23  37  56  94 130 166 214 257 306 379
#     4  10  22  38  53  89 129 159 212 261 305 378
#     4  11  21  35  67  89 118 163 207 262 318 365
#     4   9  20  42  67  92 116 158 209 264 327 390
#     4  10  22  40  66  90 123 156 209 266 327 385
#     4  11  23  39  61  87 127 172 207 259 325 389
#     4  10  22  36  60  84 128 178 210 248 322 392
#
# _framework density 19.603348
#
# number of rings (size 3 to 8) (size 9 to 14) (size 15 to 20)
#    0.000    1.867    0.000    4.000    9.333    1.600 
#    0.000    0.000    5.867    0.000    0.000    0.000 
#    0.000    0.000    0.000    0.000    0.000    0.000 
#
# Total GULP energy -334105.118593 kJ/mol
# GULP energy per Si atom -5568.418643 kJ/mol
# Density = 1.955873 g / cm^3
# Si number density = 19.603348 Si / 1000 Ang^3
#
#
#
# Elastic Constant Matrix: (Units=GPa)
#
#
# Indices 1 2 3 4 5 6 
#
# 1 111.8465 35.6161 65.8735 0.0000 0.0000 0.0000
# 2 35.6161 86.6893 32.8284 0.0000 0.0000 0.0000
# 3 65.8735 32.8284 83.5421 0.0000 0.0000 0.0000
# 4 0.0000 0.0000 0.0000 14.6006 0.0000 0.0000
# 5 0.0000 0.0000 0.0000 0.0000 -2.9414 0.0000
# 6 0.0000 0.0000 0.0000 0.0000 0.0000 13.1579
#
#
#
# Elastic Compliance Matrix: (Units=1/GPa)
#
#
# Indices 1 2 3 4 5 6 
#
# 1 0.017059 -0.002250 -0.012567 0.000000 0.000000 0.000000
# 2 -0.002250 0.013849 -0.003668 0.000000 0.000000 0.000000
# 3 -0.012567 -0.003668 0.023320 0.000000 0.000000 0.000000
# 4 0.000000 0.000000 0.000000 0.068490 0.000000 0.000000
# 5 0.000000 0.000000 0.000000 0.000000 -0.339970 0.000000
# 6 0.000000 0.000000 0.000000 0.000000 0.000000 0.076000
#
#
# Mechanical properties :
#
#
# Convention : Reuss Voigt Hill
#
# Bulk Modulus (GPa) = 57.94174 61.19044 59.56609
# Shear Modulus (GPa) = -50.74613 14.81408 -17.96602
#
# Velocity S-wave (km/s) = -5.09339 2.75197 -3.03062
# Velocity P-wave (km/s) = 2.22912 6.43271 4.26678
#
# Compressibility (1/GPa) = 0.01725872
#
# Stress axis : x y z
#
# Youngs Moduli (GPa) = 58.62155 72.20859 42.88078
#
# Poissons Ratio (x) = 0.16244 0.53888
# Poissons Ratio (y) = 0.13187 0.15729
# Poissons Ratio (z) = 0.73669 0.26487
#
# Static dielectric constant tensor:
#      x y z
#    x 1.660620 0.000000 0.000000 
#    y 0.000000 1.644650 0.000000 
#    z 0.000000 0.000000 1.707780 
# 
# From -- ./inp_files/14363.got.cif
#   From: 2010.05.17/outbox.cif.g08.bks.cpg/sg73_8_cif.got.tgz:14363.got - 2010.06.03 17:35:07.
