data_PCOD9531806
_publ_section_title
;
Structure prediction by ZEFSAII (Michael W. Deem and Ramdas Pophale) SiO2 
 PCOD9531806
Probable space group: I B C A 
;
_chemical_formula_sum "Si O2"
_cell_formula_units_Z 112
_cell_length_a 19.267673
_cell_length_b 25.329048
_cell_length_c 10.864579
_cell_angle_alpha 90.000000
_cell_angle_beta 90.000000
_cell_angle_gamma 90.000000
_cell_volume 5302.260201
_symmetry_space_group_name_H-M "I B C A "
_symmetry_group_IT_number 73
_symmetry_cell_setting 'orthorhombic'
loop_
_space_group_symop_operation_xyz
x,y,z
-x,1/2-y,z
x,-y,1/2-z
1/2-x,y,-z
-x,-y,-z
x,1/2+y,-z
-x,y,1/2+z
1/2+x,-y,z
1/2+x,1/2+y,1/2+z
1/2-x,-y,1/2+z
1/2+x,1/2-y,-z
-x,1/2+y,1/2-z
1/2-x,1/2-y,1/2-z
1/2+x,y,1/2-z
1/2-x,1/2+y,z
x,1/2-y,1/2+z
loop_
_atom_site_type_symbol
_atom_site_label
_atom_site_fract_x
_atom_site_fract_y
_atom_site_fract_z
Si Si1 0.797016 0.193678 0.384493
Si Si2 0.568663 0.777243 0.623653
Si Si3 0.924843 0.032006 0.356619
Si Si4 0.586060 0.010381 0.109308
Si Si5 0.832694 0.200242 0.764856
Si Si6 0.557414 0.351569 0.153165
Si Si7 0.587390 0.132020 0.052883
O O1 0.750000 0.186047 0.500000
O O2 0.743561 0.181141 0.274150
O O3 0.819535 0.254000 0.364712
O O4 0.867032 0.161657 0.395806
O O5 0.500000 0.750000 0.564658
O O6 0.624307 0.732180 0.659921
O O7 0.541600 0.806077 0.748138
O O8 0.606130 0.825873 0.553317
O O9 0.935701 0.089365 0.297038
O O10 0.002366 0.008366 0.374449
O O11 0.886107 0.000000 0.250000
O O12 0.894553 0.028756 0.495695
O O13 0.601638 0.069582 0.056549
O O14 0.613217 0.000000 0.250000
O O15 0.879265 0.154984 0.822576
O O16 0.495423 0.358587 0.057875
#
# Coordination Sequence:
#
# PCOD9531806 Si02
#       7
#    16  16  16  16  16  16  16
#     4  10  22  37  55  77 115 162 197 231 290 363
#     4  11  22  34  57  86 123 149 191 249 293 356
#     4   9  17  34  58  81 117 152 195 252 306 361
#     4   9  19  34  54  86 120 152 193 251 312 359
#     4  10  22  39  54  82 119 157 197 237 293 364
#     4  10  22  36  57  88 115 152 205 242 300 352
#     4  11  22  35  60  88 118 155 198 250 309 348
#
# _framework density 21.123066999999999
#
# number of rings (size 3 to 8) (size 9 to 14) (size 15 to 20)
#    0.000    2.000    1.429    1.714    6.000    4.571 
#    0.000    0.000    0.000    2.571    0.000    0.000 
#    0.000    0.000    0.000    0.000    0.000    0.000 
#
# Total GULP energy -311784.495043 kJ/mol
# GULP energy per Si atom -5567.580269 kJ/mol
# Density = 2.107499 g / cm^3
# Si number density = 21.123067 Si / 1000 Ang^3
#
#
#
# Elastic Constant Matrix: (Units=GPa)
#
#
# Indices 1 2 3 4 5 6 
#
# 1 55.0983 13.0919 -15.9391 0.0000 0.0000 0.0000
# 2 13.0919 57.6268 14.9290 0.0000 0.0000 0.0000
# 3 -15.9391 14.9290 41.6907 0.0000 0.0000 0.0000
# 4 0.0000 0.0000 0.0000 29.2033 0.0000 0.0000
# 5 0.0000 0.0000 0.0000 0.0000 7.8461 0.0000
# 6 0.0000 0.0000 0.0000 0.0000 0.0000 5.9370
#
#
#
# Elastic Compliance Matrix: (Units=1/GPa)
#
#
# Indices 1 2 3 4 5 6 
#
# 1 0.023672 -0.008512 0.012098 0.000000 0.000000 0.000000
# 2 -0.008512 0.022188 -0.011200 0.000000 0.000000 0.000000
# 3 0.012098 -0.011200 0.032622 0.000000 0.000000 0.000000
# 4 0.000000 0.000000 0.000000 0.034243 0.000000 0.000000
# 5 0.000000 0.000000 0.000000 0.000000 0.127452 0.000000
# 6 0.000000 0.000000 0.000000 0.000000 0.000000 0.168434
#
#
# Mechanical properties :
#
#
# Convention : Reuss Voigt Hill
#
# Bulk Modulus (GPa) = 15.80902 19.84215 17.82558
# Shear Modulus (GPa) = 11.23789 18.08622 14.66205
#
# Velocity S-wave (km/s) = 2.30906 2.92932 2.63748
# Velocity P-wave (km/s) = 3.82224 4.56675 4.21098
#
# Compressibility (1/GPa) = 0.06325501
#
# Stress axis : x y z
#
# Youngs Moduli (GPa) = 42.24436 45.06881 30.65416
#
# Poissons Ratio (x) = 0.38363 -0.37086
# Poissons Ratio (y) = 0.35959 0.34332
# Poissons Ratio (z) = -0.51108 0.50476
#
# Static dielectric constant tensor:
#      x y z
#    x 1.763330 0.000000 0.000000 
#    y 0.000000 1.753440 0.000000 
#    z 0.000000 0.000000 1.944250 
# 
# From -- ./inp_files/13043.got.cif
#   From: 2010.05.17/outbox.cif.g08.bks.cpg/sg73_7_cif.got.tgz:13043.got - 2010.06.03 17:35:07.
