data_PCOD9531590
_publ_section_title
;
Structure prediction by ZEFSAII (Michael W. Deem and Ramdas Pophale) SiO2 
 PCOD9531590
Probable space group: I B C A 
;
_chemical_formula_sum "Si O2"
_cell_formula_units_Z 120
_cell_length_a 12.361364
_cell_length_b 17.284557
_cell_length_c 29.678790
_cell_angle_alpha 90.000000
_cell_angle_beta 90.000000
_cell_angle_gamma 90.000000
_cell_volume 6341.191066
_symmetry_space_group_name_H-M "I B C A "
_symmetry_group_IT_number 73
_symmetry_cell_setting 'orthorhombic'
loop_
_space_group_symop_operation_xyz
x,y,z
-x,1/2-y,z
x,-y,1/2-z
1/2-x,y,-z
-x,-y,-z
x,1/2+y,-z
-x,y,1/2+z
1/2+x,-y,z
1/2+x,1/2+y,1/2+z
1/2-x,-y,1/2+z
1/2+x,1/2-y,-z
-x,1/2+y,1/2-z
1/2-x,1/2-y,1/2-z
1/2+x,y,1/2-z
1/2-x,1/2+y,z
x,1/2-y,1/2+z
loop_
_atom_site_type_symbol
_atom_site_label
_atom_site_fract_x
_atom_site_fract_y
_atom_site_fract_z
Si Si1 0.466569 0.835737 0.696472
Si Si2 0.133834 0.881079 0.571039
Si Si3 0.250000 0.986790 0.500000
Si Si4 0.626703 0.271463 0.619103
Si Si5 0.335807 0.552885 0.709689
Si Si6 0.385398 0.566264 0.420545
Si Si7 0.176397 0.807861 0.221803
Si Si8 0.202301 0.441388 0.645265
O O1 0.500000 0.750000 0.679861
O O2 0.566460 0.894635 0.691648
O O3 0.431657 0.824046 0.748978
O O4 0.366672 0.875224 0.670136
O O5 0.176975 0.927759 0.528440
O O6 0.151921 0.789325 0.578555
O O7 0.206731 0.909077 0.612346
O O8 0.009451 0.907618 0.573641
O O9 0.322241 0.038147 0.534570
O O10 0.500000 0.250000 0.625204
O O11 0.662212 0.355503 0.601101
O O12 0.665978 0.273586 0.671319
O O13 0.379719 0.500000 0.750000
O O14 0.242392 0.612729 0.722752
O O15 0.272366 0.494276 0.678000
O O16 0.374875 0.496732 0.384644
O O17 0.250000 0.750000 0.250000
#
# Coordination Sequence:
#
# PCOD9531590 Si02
#       8
#    16  16   8  16  16  16  16  16
#     4  12  26  41  60  90 131 176 231 274 328 380
#     4  10  22  40  65  91 121 159 201 253 327 391
#     4  10  22  40  68  92 126 154 198 262 322 394
#     4  10  22  37  63  89 122 163 207 252 309 381
#     4  12  26  38  60  88 126 172 226 273 321 374
#     4  10  21  41  64  95 123 162 204 258 322 392
#     4  12  23  41  59  89 129 173 218 266 321 375
#     4  11  23  41  61  90 127 168 213 273 318 385
#
# _framework density 18.92389
#
# number of rings (size 3 to 8) (size 9 to 14) (size 15 to 20)
#    0.000    1.067    4.000    2.400    1.867    1.600 
#    0.000    0.000    0.000    9.600    0.000    0.000 
#    0.000    0.000    0.000    0.000    0.000    0.000 
#
# Total GULP energy -334186.844967 kJ/mol
# GULP energy per Si atom -5569.780749 kJ/mol
# Density = 1.888082 g / cm^3
# Si number density = 18.923890 Si / 1000 Ang^3
#
#
#
# Elastic Constant Matrix: (Units=GPa)
#
#
# Indices 1 2 3 4 5 6 
#
# 1 68.3304 37.7464 39.9344 0.0000 0.0000 0.0000
# 2 37.7464 89.9966 46.0872 0.0000 0.0000 0.0000
# 3 39.9344 46.0872 105.9068 0.0000 0.0000 0.0000
# 4 0.0000 0.0000 0.0000 54.6558 0.0000 0.0000
# 5 0.0000 0.0000 0.0000 0.0000 -10.0390 0.0000
# 6 0.0000 0.0000 0.0000 0.0000 0.0000 38.0950
#
#
#
# Elastic Compliance Matrix: (Units=1/GPa)
#
#
# Indices 1 2 3 4 5 6 
#
# 1 0.021124 -0.006152 -0.005288 0.000000 0.000000 0.000000
# 2 -0.006152 0.016089 -0.004682 0.000000 0.000000 0.000000
# 3 -0.005288 -0.004682 0.013474 0.000000 0.000000 0.000000
# 4 0.000000 0.000000 0.000000 0.018296 0.000000 0.000000
# 5 0.000000 0.000000 0.000000 0.000000 -0.099612 0.000000
# 6 0.000000 0.000000 0.000000 0.000000 0.000000 0.026250
#
#
# Mechanical properties :
#
#
# Convention : Reuss Voigt Hill
#
# Bulk Modulus (GPa) = 54.22053 56.86330 55.54191
# Shear Modulus (GPa) = 147.00660 25.90676 86.45668
#
# Velocity S-wave (km/s) = 8.82336 3.70401 6.76651
# Velocity P-wave (km/s) = 11.51158 6.95748 9.51112
#
# Compressibility (1/GPa) = 0.01844320
#
# Stress axis : x y z
#
# Youngs Moduli (GPa) = 47.34059 62.15331 74.21881
#
# Poissons Ratio (x) = 0.38234 0.39248
# Poissons Ratio (y) = 0.29122 0.34749
# Poissons Ratio (z) = 0.25034 0.29100
#
# Static dielectric constant tensor:
#      x y z
#    x 1.688910 0.000000 0.000000 
#    y 0.000000 1.640040 0.000000 
#    z 0.000000 0.000000 1.670300 
# 
# From -- ./inp_files/12224.got.cif
#   From: 2010.05.17/outbox.cif.g08.bks.cpg/sg73_7_cif.got.tgz:12224.got - 2010.06.03 17:35:07.
