data_PCOD9531273
_publ_section_title
;
Structure prediction by ZEFSAII (Michael W. Deem and Ramdas Pophale) SiO2 
 PCOD9531273
Probable space group: I B C A 
;
_chemical_formula_sum "Si O2"
_cell_formula_units_Z 96
_cell_length_a 27.436744
_cell_length_b 8.090371
_cell_length_c 20.257766
_cell_angle_alpha 90.000000
_cell_angle_beta 90.000000
_cell_angle_gamma 90.000000
_cell_volume 4496.685965
_symmetry_space_group_name_H-M "I B C A "
_symmetry_group_IT_number 73
_symmetry_cell_setting 'orthorhombic'
loop_
_space_group_symop_operation_xyz
x,y,z
-x,1/2-y,z
x,-y,1/2-z
1/2-x,y,-z
-x,-y,-z
x,1/2+y,-z
-x,y,1/2+z
1/2+x,-y,z
1/2+x,1/2+y,1/2+z
1/2-x,-y,1/2+z
1/2+x,1/2-y,-z
-x,1/2+y,1/2-z
1/2-x,1/2-y,1/2-z
1/2+x,y,1/2-z
1/2-x,1/2+y,z
x,1/2-y,1/2+z
loop_
_atom_site_type_symbol
_atom_site_label
_atom_site_fract_x
_atom_site_fract_y
_atom_site_fract_z
Si Si1 0.191538 0.652104 0.571139
Si Si2 0.750000 0.396579 0.000000
Si Si3 0.406670 0.361693 0.558817
Si Si4 0.100540 0.604081 0.316697
Si Si5 0.942793 0.474957 0.424251
Si Si6 0.855997 0.055606 0.675227
Si Si7 0.000000 0.750000 0.357142
O O1 0.204592 0.511801 0.517887
O O2 0.235293 0.782008 0.561643
O O3 0.142900 0.753477 0.554203
O O4 0.185571 0.551135 0.638703
O O5 0.400491 0.484619 0.620081
O O6 0.420365 0.456395 0.492277
O O7 0.447298 0.220910 0.570638
O O8 0.107409 0.500000 0.250000
O O9 0.141646 0.745349 0.326186
O O10 0.047620 0.696364 0.315701
O O11 0.903470 0.503655 0.366412
O O12 0.987036 0.592702 0.403158
O O13 0.859853 0.000000 0.750000
#
# Coordination Sequence:
#
# PCOD9531273 Si02
#       7
#    16   8  16  16  16  16   8
#     4  10  21  39  63  92 124 155 197 248 300 368
#     4  10  22  38  64  98 124 154 192 246 316 366
#     4  11  22  38  63  88 117 161 204 248 301 367
#     4  11  24  40  61  89 119 162 210 252 308 364
#     4  10  21  37  58  87 119 157 205 251 303 357
#     4  10  21  40  62  85 117 159 203 245 294 362
#     4  10  24  38  54  84 124 158 202 264 310 352
#
# _framework density 21.349056000000001
#
# number of rings (size 3 to 8) (size 9 to 14) (size 15 to 20)
#    0.000    1.667    0.000    6.000    0.000   11.333 
#    0.000    0.833    0.000    1.000    0.000    0.000 
#    0.000    0.000    0.000    0.000    0.000    0.000 
#
# Total GULP energy -267908.304180 kJ/mol
# GULP energy per Si atom -5581.423004 kJ/mol
# Density = 2.130047 g / cm^3
# Si number density = 21.349056 Si / 1000 Ang^3
#
#
#
# Elastic Constant Matrix: (Units=GPa)
#
#
# Indices 1 2 3 4 5 6 
#
# 1 46.0371 23.0455 10.7875 0.0000 0.0000 0.0000
# 2 23.0455 139.6645 48.1185 0.0000 0.0000 0.0000
# 3 10.7875 48.1185 135.8770 0.0000 0.0000 0.0000
# 4 0.0000 0.0000 0.0000 44.4810 0.0000 0.0000
# 5 0.0000 0.0000 0.0000 0.0000 20.6566 0.0000
# 6 0.0000 0.0000 0.0000 0.0000 0.0000 6.5742
#
#
#
# Elastic Compliance Matrix: (Units=1/GPa)
#
#
# Indices 1 2 3 4 5 6 
#
# 1 0.023716 -0.003718 -0.000566 0.000000 0.000000 0.000000
# 2 -0.003718 0.008738 -0.002799 0.000000 0.000000 0.000000
# 3 -0.000566 -0.002799 0.008396 0.000000 0.000000 0.000000
# 4 0.000000 0.000000 0.000000 0.022481 0.000000 0.000000
# 5 0.000000 0.000000 0.000000 0.000000 0.048411 0.000000
# 6 0.000000 0.000000 0.000000 0.000000 0.000000 0.152109
#
#
# Mechanical properties :
#
#
# Convention : Reuss Voigt Hill
#
# Bulk Modulus (GPa) = 37.47792 53.94240 45.71016
# Shear Modulus (GPa) = 17.42696 30.31751 23.87224
#
# Velocity S-wave (km/s) = 2.86017 3.77249 3.34756
# Velocity P-wave (km/s) = 5.33858 6.65562 6.03315
#
# Compressibility (1/GPa) = 0.02668238
#
# Stress axis : x y z
#
# Youngs Moduli (GPa) = 42.16645 114.44339 119.10682
#
# Poissons Ratio (x) = 0.42552 0.06743
# Poissons Ratio (y) = 0.15678 0.33340
# Poissons Ratio (z) = 0.02387 0.32035
#
# Static dielectric constant tensor:
#      x y z
#    x 1.839940 0.000000 0.000000 
#    y 0.000000 1.820850 0.000000 
#    z 0.000000 0.000000 1.712290 
# 
# From -- ./inp_files/27537.got.cif
#   From: 2010.05.17/outbox.cif.g08.bks.cpg/sg73_14_cif.got.tgz:27537.got - 2010.06.03 17:35:07.
