data_PCOD9531395
_publ_section_title
;
Structure prediction by ZEFSAII (Michael W. Deem and Ramdas Pophale) SiO2 
 PCOD9531395
Probable space group: I B C A 
;
_chemical_formula_sum "Si O2"
_cell_formula_units_Z 96
_cell_length_a 18.717559
_cell_length_b 16.072188
_cell_length_c 15.014080
_cell_angle_alpha 90.000000
_cell_angle_beta 90.000000
_cell_angle_gamma 90.000000
_cell_volume 4516.717624
_symmetry_space_group_name_H-M "I B C A "
_symmetry_group_IT_number 73
_symmetry_cell_setting 'orthorhombic'
loop_
_space_group_symop_operation_xyz
x,y,z
-x,1/2-y,z
x,-y,1/2-z
1/2-x,y,-z
-x,-y,-z
x,1/2+y,-z
-x,y,1/2+z
1/2+x,-y,z
1/2+x,1/2+y,1/2+z
1/2-x,-y,1/2+z
1/2+x,1/2-y,-z
-x,1/2+y,1/2-z
1/2-x,1/2-y,1/2-z
1/2+x,y,1/2-z
1/2-x,1/2+y,z
x,1/2-y,1/2+z
loop_
_atom_site_type_symbol
_atom_site_label
_atom_site_fract_x
_atom_site_fract_y
_atom_site_fract_z
Si Si1 0.510976 0.600861 0.241985
Si Si2 0.681770 0.835364 0.946271
Si Si3 0.824867 0.901103 0.254250
Si Si4 0.216224 0.356637 0.908987
Si Si5 0.544948 0.612252 0.561271
Si Si6 0.939998 0.087264 0.919034
O O1 0.503350 0.500000 0.250000
O O2 0.593212 0.617150 0.219219
O O3 0.462158 0.638333 0.164015
O O4 0.487829 0.626336 0.340329
O O5 0.681178 0.871734 0.847311
O O6 0.694591 0.737639 0.931807
O O7 0.750000 0.869348 0.000000
O O8 0.610860 0.853875 0.003829
O O9 0.770003 0.863466 0.325963
O O10 0.814291 0.000000 0.250000
O O11 0.141408 0.400818 0.892254
O O12 0.250000 0.392519 0.000000
O O13 0.470620 0.628144 0.509047
O O14 0.551262 0.511802 0.567841
#
# Coordination Sequence:
#
# PCOD9531395 Si02
#       6
#    16  16  16  16  16  16
#     4   9  19  38  62 100 129 160 218 280 331 376
#     4  11  26  44  63  95 139 177 217 270 335 400
#     4  11  24  42  70  99 131 175 222 277 333 397
#     4  11  26  43  65  95 138 173 218 274 332 399
#     4  10  21  39  67  93 132 167 221 275 319 391
#     4  10  21  38  67  96 124 170 220 275 320 388
#
# _framework density 21.254373000000001
#
# number of rings (size 3 to 8) (size 9 to 14) (size 15 to 20)
#    0.000    1.667    1.667    1.500    9.333    1.333 
#    0.000    0.000    0.000    0.000    0.000    0.000 
#    0.000    0.000    0.000    0.000    0.000    0.000 
#
# Total GULP energy -267938.698103 kJ/mol
# GULP energy per Si atom -5582.056210 kJ/mol
# Density = 2.120600 g / cm^3
# Si number density = 21.254373 Si / 1000 Ang^3
#
#
#
# Elastic Constant Matrix: (Units=GPa)
#
#
# Indices 1 2 3 4 5 6 
#
# 1 126.3332 17.8066 71.0398 0.0000 0.0000 0.0000
# 2 17.8066 23.2318 30.7352 0.0000 0.0000 0.0000
# 3 71.0398 30.7352 160.0221 0.0000 0.0000 0.0000
# 4 0.0000 0.0000 0.0000 29.0459 0.0000 0.0000
# 5 0.0000 0.0000 0.0000 0.0000 61.9176 0.0000
# 6 0.0000 0.0000 0.0000 0.0000 0.0000 29.2814
#
#
#
# Elastic Compliance Matrix: (Units=1/GPa)
#
#
# Indices 1 2 3 4 5 6 
#
# 1 0.010661 -0.002561 -0.004241 0.000000 0.000000 0.000000
# 2 -0.002561 0.058323 -0.010065 0.000000 0.000000 0.000000
# 3 -0.004241 -0.010065 0.010065 0.000000 0.000000 0.000000
# 4 0.000000 0.000000 0.000000 0.034428 0.000000 0.000000
# 5 0.000000 0.000000 0.000000 0.000000 0.016150 0.000000
# 6 0.000000 0.000000 0.000000 0.000000 0.000000 0.034151
#
#
# Mechanical properties :
#
#
# Convention : Reuss Voigt Hill
#
# Bulk Modulus (GPa) = 22.06750 60.97225 41.51988
# Shear Modulus (GPa) = 23.51620 36.71602 30.11611
#
# Velocity S-wave (km/s) = 3.32989 4.16078 3.76831
# Velocity P-wave (km/s) = 5.01890 7.19944 6.20570
#
# Compressibility (1/GPa) = 0.04531550
#
# Stress axis : x y z
#
# Youngs Moduli (GPa) = 93.79636 17.14584 99.35260
#
# Poissons Ratio (x) = 0.04391 0.42137
# Poissons Ratio (y) = 0.24019 1.00001
# Poissons Ratio (z) = 0.39780 0.17258
#
# Static dielectric constant tensor:
#      x y z
#    x 1.769230 0.000000 0.000000 
#    y 0.000000 1.587170 0.000000 
#    z 0.000000 0.000000 1.794980 
# 
# From -- ./inp_files/17046.got.cif
#   From: 2010.05.17/outbox.cif.g08.bks.cpg/sg73_9_cif.got.tgz:17046.got - 2010.06.03 17:35:07.
