data_PCOD9531912
_publ_section_title
;
Structure prediction by ZEFSAII (Michael W. Deem and Ramdas Pophale) SiO2 
 PCOD9531912
Probable space group: I B C A 
;
_chemical_formula_sum "Si O2"
_cell_formula_units_Z 80
_cell_length_a 16.898206
_cell_length_b 22.175633
_cell_length_c 9.116869
_cell_angle_alpha 90.000000
_cell_angle_beta 90.000000
_cell_angle_gamma 90.000000
_cell_volume 3416.349867
_symmetry_space_group_name_H-M "I B C A "
_symmetry_group_IT_number 73
_symmetry_cell_setting 'orthorhombic'
loop_
_space_group_symop_operation_xyz
x,y,z
-x,1/2-y,z
x,-y,1/2-z
1/2-x,y,-z
-x,-y,-z
x,1/2+y,-z
-x,y,1/2+z
1/2+x,-y,z
1/2+x,1/2+y,1/2+z
1/2-x,-y,1/2+z
1/2+x,1/2-y,-z
-x,1/2+y,1/2-z
1/2-x,1/2-y,1/2-z
1/2+x,y,1/2-z
1/2-x,1/2+y,z
x,1/2-y,1/2+z
loop_
_atom_site_type_symbol
_atom_site_label
_atom_site_fract_x
_atom_site_fract_y
_atom_site_fract_z
Si Si1 0.088377 0.931036 0.472337
Si Si2 0.331026 0.328619 0.039062
Si Si3 0.005092 0.317754 0.457762
Si Si4 0.750000 0.881910 0.000000
Si Si5 0.155720 0.290852 0.286886
Si Si6 0.975218 0.500000 0.750000
O O1 0.056130 0.863508 0.449297
O O2 0.180770 0.924665 0.439127
O O3 0.075032 0.955861 0.640444
O O4 0.034317 0.968303 0.363357
O O5 0.323397 0.275973 0.158700
O O6 0.250000 0.365457 0.000000
O O7 0.420597 0.350835 0.067080
O O8 0.338206 0.294446 0.885209
O O9 0.064031 0.306594 0.321359
O O10 0.000000 0.250000 0.018599
O O11 0.790967 0.839057 0.122827
#
# Coordination Sequence:
#
# PCOD9531912 Si02
#       6
#    16  16  16   8  16   8
#     4  10  23  45  71  95 132 172 224 275 333 392
#     4  11  22  37  58  91 133 178 221 263 318 405
#     4   9  22  39  64  96 134 173 214 265 338 400
#     4  10  22  40  68  96 128 168 216 284 332 384
#     4  10  22  39  56  91 134 177 218 264 331 393
#     4  10  24  46  70  94 124 178 226 278 328 394
#
# _framework density 23.416805
#
# number of rings (size 3 to 8) (size 9 to 14) (size 15 to 20)
#    0.000    2.000    1.000    0.600    5.600    9.600 
#    3.600    0.000    8.800    0.000    0.000    0.000 
#    0.000    0.000    0.000    0.000    0.000    0.000 
#
# Total GULP energy -222892.386771 kJ/mol
# GULP energy per Si atom -5572.309669 kJ/mol
# Density = 2.336351 g / cm^3
# Si number density = 23.416805 Si / 1000 Ang^3
#
#
#
# Elastic Constant Matrix: (Units=GPa)
#
#
# Indices 1 2 3 4 5 6 
#
# 1 173.9756 1.9561 -16.9119 0.0000 0.0000 0.0000
# 2 1.9561 48.6366 3.1816 0.0000 0.0000 0.0000
# 3 -16.9119 3.1816 92.7170 0.0000 0.0000 0.0000
# 4 0.0000 0.0000 0.0000 1005.8376 0.0000 0.0000
# 5 0.0000 0.0000 0.0000 0.0000 23.6965 0.0000
# 6 0.0000 0.0000 0.0000 0.0000 0.0000 446.3305
#
#
#
# Elastic Compliance Matrix: (Units=1/GPa)
#
#
# Indices 1 2 3 4 5 6 
#
# 1 0.005856 -0.000306 0.001079 0.000000 0.000000 0.000000
# 2 -0.000306 0.020623 -0.000764 0.000000 0.000000 0.000000
# 3 0.001079 -0.000764 0.011008 0.000000 0.000000 0.000000
# 4 0.000000 0.000000 0.000000 0.000994 0.000000 0.000000
# 5 0.000000 0.000000 0.000000 0.000000 0.042200 0.000000
# 6 0.000000 0.000000 0.000000 0.000000 0.000000 0.002240
#
#
# Mechanical properties :
#
#
# Convention : Reuss Voigt Hill
#
# Bulk Modulus (GPa) = 26.66257 32.42010 29.54134
# Shear Modulus (GPa) = 52.40737 316.97981 184.69359
#
# Velocity S-wave (km/s) = 4.73591 11.64724 8.89064
# Velocity P-wave (km/s) = 6.42774 13.95537 10.86435
#
# Compressibility (1/GPa) = 0.03750576
#
# Stress axis : x y z
#
# Youngs Moduli (GPa) = 170.75825 48.48982 90.83914
#
# Poissons Ratio (x) = 0.01484 -0.09799
# Poissons Ratio (y) = 0.05227 0.06936
# Poissons Ratio (z) = -0.18420 0.03702
#
# Static dielectric constant tensor:
#      x y z
#    x 2.075610 0.000000 0.000000 
#    y 0.000000 1.898250 0.000000 
#    z 0.000000 0.000000 1.939110 
# 
# From -- ./inp_files/5620.got.cif
#   From: 2010.05.17/outbox.cif.g08.bks.cpg/sg73_3_cif.got.tgz:5620.got - 2010.06.03 17:35:07.
