data_PCOD9531822
_publ_section_title
;
Structure prediction by ZEFSAII (Michael W. Deem and Ramdas Pophale) SiO2 
 PCOD9531822
Probable space group: I B C A 
;
_chemical_formula_sum "Si O2"
_cell_formula_units_Z 112
_cell_length_a 18.209097
_cell_length_b 23.845908
_cell_length_c 12.230785
_cell_angle_alpha 90.000000
_cell_angle_beta 90.000000
_cell_angle_gamma 90.000000
_cell_volume 5310.759143
_symmetry_space_group_name_H-M "I B C A "
_symmetry_group_IT_number 73
_symmetry_cell_setting 'orthorhombic'
loop_
_space_group_symop_operation_xyz
x,y,z
-x,1/2-y,z
x,-y,1/2-z
1/2-x,y,-z
-x,-y,-z
x,1/2+y,-z
-x,y,1/2+z
1/2+x,-y,z
1/2+x,1/2+y,1/2+z
1/2-x,-y,1/2+z
1/2+x,1/2-y,-z
-x,1/2+y,1/2-z
1/2-x,1/2-y,1/2-z
1/2+x,y,1/2-z
1/2-x,1/2+y,z
x,1/2-y,1/2+z
loop_
_atom_site_type_symbol
_atom_site_label
_atom_site_fract_x
_atom_site_fract_y
_atom_site_fract_z
Si Si1 0.217552 0.313607 0.260719
Si Si2 0.324804 0.888481 0.065821
Si Si3 0.664336 0.768969 0.980230
Si Si4 0.437396 0.832948 0.910917
Si Si5 0.919269 0.514151 0.872210
Si Si6 0.128860 0.154328 0.183047
Si Si7 0.547810 0.413374 0.984983
O O1 0.250000 0.250000 0.250000
O O2 0.173869 0.338883 0.157699
O O3 0.175353 0.310790 0.376472
O O4 0.290361 0.351690 0.266736
O O5 0.347882 0.946454 0.122286
O O6 0.250000 0.890694 0.000000
O O7 0.382137 0.875725 0.969580
O O8 0.600642 0.725496 0.946689
O O9 0.750000 0.747550 0.000000
O O10 0.639473 0.796878 0.093081
O O11 0.428396 0.834243 0.780298
O O12 0.514225 0.857274 0.956689
O O13 0.941295 0.500000 0.750000
O O14 0.912483 0.454868 0.932134
O O15 0.982555 0.550708 0.930148
O O16 0.101379 0.103214 0.112144
#
# Coordination Sequence:
#
# PCOD9531822 Si02
#       7
#    16  16  16  16  16  16  16
#     4  11  20  39  67  98 140 170 205 262 330 402
#     4  11  21  39  66 100 127 172 220 258 335 393
#     4  10  22  36  61  99 132 171 207 255 328 392
#     4  11  21  40  67  89 134 173 216 265 317 405
#     4  10  23  45  67  86 126 170 218 282 324 378
#     4  11  22  39  64  94 131 169 217 265 317 394
#     4  10  24  43  64  91 121 173 228 265 329 378
#
# _framework density 21.089262999999999
#
# number of rings (size 3 to 8) (size 9 to 14) (size 15 to 20)
#    0.000    1.429    2.857    3.000    2.000    0.571 
#    2.571    1.429    0.000    0.000    0.000    0.000 
#    0.000    0.000    0.000    0.000    0.000    0.000 
#
# Total GULP energy -312257.940404 kJ/mol
# GULP energy per Si atom -5576.034650 kJ/mol
# Density = 2.104126 g / cm^3
# Si number density = 21.089263 Si / 1000 Ang^3
#
#
#
# Elastic Constant Matrix: (Units=GPa)
#
#
# Indices 1 2 3 4 5 6 
#
# 1 43.2218 27.5649 10.5199 0.0000 0.0000 0.0000
# 2 27.5649 74.3637 35.4722 0.0000 0.0000 0.0000
# 3 10.5199 35.4722 136.8523 0.0000 0.0000 0.0000
# 4 0.0000 0.0000 0.0000 29.5635 0.0000 0.0000
# 5 0.0000 0.0000 0.0000 0.0000 17.5182 0.0000
# 6 0.0000 0.0000 0.0000 0.0000 0.0000 -16.6157
#
#
#
# Elastic Compliance Matrix: (Units=1/GPa)
#
#
# Indices 1 2 3 4 5 6 
#
# 1 0.030352 -0.011568 0.000665 0.000000 0.000000 0.000000
# 2 -0.011568 0.019754 -0.004231 0.000000 0.000000 0.000000
# 3 0.000665 -0.004231 0.008353 0.000000 0.000000 0.000000
# 4 0.000000 0.000000 0.000000 0.033825 0.000000 0.000000
# 5 0.000000 0.000000 0.000000 0.000000 0.057083 0.000000
# 6 0.000000 0.000000 0.000000 0.000000 0.000000 -0.060184
#
#
# Mechanical properties :
#
#
# Convention : Reuss Voigt Hill
#
# Bulk Modulus (GPa) = 35.47241 44.61685 40.04463
# Shear Modulus (GPa) = 38.80543 18.15193 28.47868
#
# Velocity S-wave (km/s) = 4.29424 2.93698 3.67875
# Velocity P-wave (km/s) = 6.43770 5.71868 6.08881
#
# Compressibility (1/GPa) = 0.02819092
#
# Stress axis : x y z
#
# Youngs Moduli (GPa) = 32.94652 50.62350 119.72227
#
# Poissons Ratio (x) = 0.58562 -0.07965
# Poissons Ratio (y) = 0.38113 0.50653
# Poissons Ratio (z) = -0.02192 0.21418
#
# Static dielectric constant tensor:
#      x y z
#    x 1.820870 0.000000 0.000000 
#    y 0.000000 1.807260 0.000000 
#    z 0.000000 0.000000 1.776290 
# 
# From -- ./inp_files/13047.got.cif
#   From: 2010.05.17/outbox.cif.g08.bks.cpg/sg73_7_cif.got.tgz:13047.got - 2010.06.03 17:35:07.
