data_PCOD9531284
_publ_section_title
;
Structure prediction by ZEFSAII (Michael W. Deem and Ramdas Pophale) SiO2 
 PCOD9531284
Probable space group: I B C A 
;
_chemical_formula_sum "Si O2"
_cell_formula_units_Z 64
_cell_length_a 7.954630
_cell_length_b 16.257249
_cell_length_c 20.281414
_cell_angle_alpha 90.000000
_cell_angle_beta 90.000000
_cell_angle_gamma 90.000000
_cell_volume 2622.800583
_symmetry_space_group_name_H-M "I B C A "
_symmetry_group_IT_number 73
_symmetry_cell_setting 'orthorhombic'
loop_
_space_group_symop_operation_xyz
x,y,z
-x,1/2-y,z
x,-y,1/2-z
1/2-x,y,-z
-x,-y,-z
x,1/2+y,-z
-x,y,1/2+z
1/2+x,-y,z
1/2+x,1/2+y,1/2+z
1/2-x,-y,1/2+z
1/2+x,1/2-y,-z
-x,1/2+y,1/2-z
1/2-x,1/2-y,1/2-z
1/2+x,y,1/2-z
1/2-x,1/2+y,z
x,1/2-y,1/2+z
loop_
_atom_site_type_symbol
_atom_site_label
_atom_site_fract_x
_atom_site_fract_y
_atom_site_fract_z
Si Si1 0.282110 0.657185 0.770033
Si Si2 0.127601 0.902058 0.394701
Si Si3 0.393336 0.411378 0.153712
Si Si4 0.482648 0.094486 0.025057
O O1 0.250000 0.750000 0.750000
O O2 0.146376 0.646677 0.828120
O O3 0.453879 0.630004 0.805875
O O4 0.256043 0.601117 0.705182
O O5 0.308072 0.905293 0.433398
O O6 0.016433 0.864224 0.453376
O O7 0.084917 0.993285 0.366615
O O8 0.386032 0.374333 0.079702
O O9 0.500000 0.000000 0.000000
#
# Coordination Sequence:
#
# PCOD9531284 Si02
#       4
#    16  16  16  16
#     4  11  23  38  58  88 126 163 199 249 307 367
#     4   9  18  34  61  90 117 154 201 251 304 367
#     4  10  21  37  60  88 118 159 204 249 304 365
#     4   8  16  33  59  90 118 147 196 259 306 355
#
# _framework density 24.401395999999998
#
# number of rings (size 3 to 8) (size 9 to 14) (size 15 to 20)
#    0.000    2.500    0.000    1.500    0.000   10.000 
#    0.000    0.000    0.000   63.000    0.000    0.000 
#    0.000    0.000    0.000    0.000    0.000    0.000 
#
# Total GULP energy -178246.406922 kJ/mol
# GULP energy per Si atom -5570.200216 kJ/mol
# Density = 2.434586 g / cm^3
# Si number density = 24.401396 Si / 1000 Ang^3
#
#
#
# Elastic Constant Matrix: (Units=GPa)
#
#
# Indices 1 2 3 4 5 6 
#
# 1 76.2159 11.4259 45.3499 0.0000 0.0000 0.0000
# 2 11.4259 69.7326 77.5235 0.0000 0.0000 0.0000
# 3 45.3499 77.5235 236.1867 0.0000 0.0000 0.0000
# 4 0.0000 0.0000 0.0000 -2.5091 0.0000 0.0000
# 5 0.0000 0.0000 0.0000 0.0000 26.8483 0.0000
# 6 0.0000 0.0000 0.0000 0.0000 0.0000 15.8108
#
#
#
# Elastic Compliance Matrix: (Units=1/GPa)
#
#
# Indices 1 2 3 4 5 6 
#
# 1 0.014873 0.001162 -0.003237 0.000000 0.000000 0.000000
# 2 0.001162 0.022671 -0.007664 0.000000 0.000000 0.000000
# 3 -0.003237 -0.007664 0.007371 0.000000 0.000000 0.000000
# 4 0.000000 0.000000 0.000000 -0.398547 0.000000 0.000000
# 5 0.000000 0.000000 0.000000 0.000000 0.037246 0.000000
# 6 0.000000 0.000000 0.000000 0.000000 0.000000 0.063248
#
#
# Mechanical properties :
#
#
# Convention : Reuss Voigt Hill
#
# Bulk Modulus (GPa) = 39.31548 72.30374 55.80961
# Shear Modulus (GPa) = -22.20439 24.55240 1.17401
#
# Velocity S-wave (km/s) = -3.01983 3.17549 0.69438
# Velocity P-wave (km/s) = 1.99694 6.56813 4.85428
#
# Compressibility (1/GPa) = 0.02543528
#
# Stress axis : x y z
#
# Youngs Moduli (GPa) = 67.23812 44.10988 135.66513
#
# Poissons Ratio (x) = -0.05124 0.43914
# Poissons Ratio (y) = -0.07811 1.03977
# Poissons Ratio (z) = 0.21765 0.33807
#
# Static dielectric constant tensor:
#      x y z
#    x 2.170350 0.000000 0.000000 
#    y 0.000000 1.987500 0.000000 
#    z 0.000000 0.000000 2.035080 
# 
# From -- ./inp_files/21113.got.cif
#   From: 2010.05.17/outbox.cif.g08.bks.cpg/sg73_11_cif.got.tgz:21113.got - 2010.06.03 17:35:07.
