data_PCOD9531809
_publ_section_title
;
Structure prediction by ZEFSAII (Michael W. Deem and Ramdas Pophale) SiO2 
 PCOD9531809
Probable space group: I B C A 
;
_chemical_formula_sum "Si O2"
_cell_formula_units_Z 88
_cell_length_a 23.300900
_cell_length_b 9.053999
_cell_length_c 21.606325
_cell_angle_alpha 90.000000
_cell_angle_beta 90.000000
_cell_angle_gamma 90.000000
_cell_volume 4558.206988
_symmetry_space_group_name_H-M "I B C A "
_symmetry_group_IT_number 73
_symmetry_cell_setting 'orthorhombic'
loop_
_space_group_symop_operation_xyz
x,y,z
-x,1/2-y,z
x,-y,1/2-z
1/2-x,y,-z
-x,-y,-z
x,1/2+y,-z
-x,y,1/2+z
1/2+x,-y,z
1/2+x,1/2+y,1/2+z
1/2-x,-y,1/2+z
1/2+x,1/2-y,-z
-x,1/2+y,1/2-z
1/2-x,1/2-y,1/2-z
1/2+x,y,1/2-z
1/2-x,1/2+y,z
x,1/2-y,1/2+z
loop_
_atom_site_type_symbol
_atom_site_label
_atom_site_fract_x
_atom_site_fract_y
_atom_site_fract_z
Si Si1 0.696612 0.837760 0.777533
Si Si2 0.495899 0.000000 0.250000
Si Si3 0.724277 0.165075 0.581074
Si Si4 0.418975 0.246146 0.784725
Si Si5 0.863608 0.168282 0.585690
Si Si6 0.337189 0.582844 0.498066
O O1 0.750000 0.750000 0.750000
O O2 0.698093 0.840436 0.851128
O O3 0.638300 0.768777 0.753631
O O4 0.700486 0.000000 0.750000
O O5 0.541496 0.134716 0.244791
O O6 0.451040 0.094529 0.292776
O O7 0.793215 0.166121 0.591635
O O8 0.701473 0.308772 0.544511
O O9 0.700224 0.027945 0.541026
O O10 0.398598 0.181565 0.850888
O O11 0.873281 0.311444 0.542998
O O12 0.874627 0.020070 0.546922
#
# Coordination Sequence:
#
# PCOD9531809 Si02
#       6
#    16   8  16  16  16  16
#     4  12  26  39  63 105 139 167 213 279 350 405
#     4  10  26  48  66  90 116 182 234 276 336 388
#     4  11  21  35  59  92 144 173 213 253 328 417
#     4  11  24  45  69  93 129 173 229 281 339 397
#     4  11  20  37  61  92 136 169 215 263 323 409
#     4  10  22  36  57  98 138 186 208 250 335 420
#
# _framework density 19.305838000000001
#
# number of rings (size 3 to 8) (size 9 to 14) (size 15 to 20)
#    0.000    1.091    2.727    5.455    6.364    0.000 
#    0.000    0.000    0.000    4.364    0.000    0.000 
#    0.000    0.000    0.000    0.000    0.000    0.000 
#
# Total GULP energy -245186.671474 kJ/mol
# GULP energy per Si atom -5572.424352 kJ/mol
# Density = 1.926190 g / cm^3
# Si number density = 19.305838 Si / 1000 Ang^3
#
#
#
# Elastic Constant Matrix: (Units=GPa)
#
#
# Indices 1 2 3 4 5 6 
#
# 1 84.5086 28.0627 27.1972 0.0000 0.0000 0.0000
# 2 28.0627 123.1866 48.3992 0.0000 0.0000 0.0000
# 3 27.1972 48.3992 129.7329 0.0000 0.0000 0.0000
# 4 0.0000 0.0000 0.0000 22.6745 0.0000 0.0000
# 5 0.0000 0.0000 0.0000 0.0000 -3.1756 0.0000
# 6 0.0000 0.0000 0.0000 0.0000 0.0000 249.4109
#
#
#
# Elastic Compliance Matrix: (Units=1/GPa)
#
#
# Indices 1 2 3 4 5 6 
#
# 1 0.013201 -0.002250 -0.001928 0.000000 0.000000 0.000000
# 2 -0.002250 0.009895 -0.003220 0.000000 0.000000 0.000000
# 3 -0.001928 -0.003220 0.009314 0.000000 0.000000 0.000000
# 4 0.000000 0.000000 0.000000 0.044102 0.000000 0.000000
# 5 0.000000 0.000000 0.000000 0.000000 -0.314906 0.000000
# 6 0.000000 0.000000 0.000000 0.000000 0.000000 0.004009
#
#
# Mechanical properties :
#
#
# Convention : Reuss Voigt Hill
#
# Bulk Modulus (GPa) = 56.77270 60.52737 58.65003
# Shear Modulus (GPa) = -23.39542 69.36657 22.98557
#
# Velocity S-wave (km/s) = -3.48491 6.00070 3.45425
# Velocity P-wave (km/s) = 3.64390 8.91241 6.80842
#
# Compressibility (1/GPa) = 0.01761410
#
# Stress axis : x y z
#
# Youngs Moduli (GPa) = 75.75368 101.05723 107.36930
#
# Poissons Ratio (x) = 0.22734 0.20702
# Poissons Ratio (y) = 0.17042 0.34573
# Poissons Ratio (z) = 0.14606 0.32541
#
# Static dielectric constant tensor:
#      x y z
#    x 1.693900 0.000000 0.000000 
#    y 0.000000 1.721420 0.000000 
#    z 0.000000 0.000000 1.667820 
# 
# From -- ./inp_files/30052.got.cif
#   From: 2010.05.17/outbox.cif.g08.bks.cpg/sg73_16_cif.got.tgz:30052.got - 2010.06.03 17:35:07.
