data_PCOD9531849
_publ_section_title
;
Structure prediction by ZEFSAII (Michael W. Deem and Ramdas Pophale) SiO2 
 PCOD9531849
Probable space group: I B C A 
;
_chemical_formula_sum "Si O2"
_cell_formula_units_Z 104
_cell_length_a 19.131783
_cell_length_b 29.229984
_cell_length_c 8.709989
_cell_angle_alpha 90.000000
_cell_angle_beta 90.000000
_cell_angle_gamma 90.000000
_cell_volume 4870.814951
_symmetry_space_group_name_H-M "I B C A "
_symmetry_group_IT_number 73
_symmetry_cell_setting 'orthorhombic'
loop_
_space_group_symop_operation_xyz
x,y,z
-x,1/2-y,z
x,-y,1/2-z
1/2-x,y,-z
-x,-y,-z
x,1/2+y,-z
-x,y,1/2+z
1/2+x,-y,z
1/2+x,1/2+y,1/2+z
1/2-x,-y,1/2+z
1/2+x,1/2-y,-z
-x,1/2+y,1/2-z
1/2-x,1/2-y,1/2-z
1/2+x,y,1/2-z
1/2-x,1/2+y,z
x,1/2-y,1/2+z
loop_
_atom_site_type_symbol
_atom_site_label
_atom_site_fract_x
_atom_site_fract_y
_atom_site_fract_z
Si Si1 0.857778 0.282813 0.483582
Si Si2 0.287251 0.567056 0.299409
Si Si3 0.695121 0.851658 0.728768
Si Si4 0.000000 0.250000 0.466953
Si Si5 0.908798 0.139753 0.756694
Si Si6 0.250000 0.297781 0.500000
Si Si7 0.750000 0.510295 0.500000
Si Si8 0.948317 0.154291 0.401801
O O1 0.815888 0.313592 0.601423
O O2 0.933463 0.270466 0.552179
O O3 0.875161 0.314660 0.336472
O O4 0.814585 0.236171 0.466336
O O5 0.227549 0.603374 0.342825
O O6 0.355569 0.597316 0.265480
O O7 0.302774 0.527866 0.425868
O O8 0.251758 0.543783 0.147255
O O9 0.748268 0.831415 0.855413
O O10 0.620132 0.859830 0.807787
O O11 0.967145 0.207644 0.376076
O O12 0.930502 0.149085 0.581390
O O13 0.980310 0.129686 0.850673
#
# Coordination Sequence:
#
# PCOD9531849 Si02
#       8
#    16  16  16   8  16   8   8  16
#     4  11  24  37  60  90 138 185 235 283 325 375
#     4  11  23  44  72 102 132 160 226 272 363 420
#     4  12  24  41  63  98 133 179 224 290 335 411
#     4  10  22  38  54  84 130 184 244 262 310 382
#     4  11  24  42  65  98 136 183 230 287 328 414
#     4  12  23  37  60  94 134 184 236 285 333 378
#     4  10  23  43  76 100 124 166 196 287 349 440
#     4  11  23  39  63  90 138 192 232 280 331 382
#
# _framework density 21.351662999999999
#
# number of rings (size 3 to 8) (size 9 to 14) (size 15 to 20)
#    0.000    0.923    1.538    6.462    2.154    3.077 
#    0.000    0.000    0.000   16.615    0.000    0.000 
#    0.000    0.000    0.000    0.000    0.000    0.000 
#
# Total GULP energy -290211.024629 kJ/mol
# GULP energy per Si atom -5580.981243 kJ/mol
# Density = 2.130307 g / cm^3
# Si number density = 21.351663 Si / 1000 Ang^3
#
#
#
# Elastic Constant Matrix: (Units=GPa)
#
#
# Indices 1 2 3 4 5 6 
#
# 1 121.5535 38.3106 42.8861 0.0000 0.0000 0.0000
# 2 38.3106 106.1456 32.3318 0.0000 0.0000 0.0000
# 3 42.8861 32.3318 104.5319 0.0006 0.0001 0.0000
# 4 0.0000 0.0000 0.0006 1.8791 0.0001 0.0001
# 5 0.0000 0.0000 0.0001 0.0001 33.1316 0.0000
# 6 0.0000 0.0000 0.0000 0.0001 0.0000 15.2185
#
#
#
# Elastic Compliance Matrix: (Units=1/GPa)
#
#
# Indices 1 2 3 4 5 6 
#
# 1 0.010263 -0.002674 -0.003384 0.000001 0.000000 0.000000
# 2 -0.002674 0.011097 -0.002336 0.000001 0.000000 0.000000
# 3 -0.003384 -0.002336 0.011677 -0.000004 0.000000 0.000000
# 4 0.000001 0.000001 -0.000004 0.532163 -0.000002 -0.000003
# 5 0.000000 0.000000 0.000000 -0.000002 0.030183 0.000000
# 6 0.000000 0.000000 0.000000 -0.000003 0.000000 0.065710
#
#
# Mechanical properties :
#
#
# Convention : Reuss Voigt Hill
#
# Bulk Modulus (GPa) = 61.53090 62.14312 61.83701
# Shear Modulus (GPa) = 7.31747 24.62601 15.97174
#
# Velocity S-wave (km/s) = 1.85326 3.39979 2.73799
# Velocity P-wave (km/s) = 5.78445 6.67676 6.24656
#
# Compressibility (1/GPa) = 0.01625200
#
# Stress axis : x y z
#
# Youngs Moduli (GPa) = 97.43423 90.11122 85.63768
#
# Poissons Ratio (x) = 0.24092 0.28978
# Poissons Ratio (y) = 0.26050 0.20001
# Poissons Ratio (z) = 0.32970 0.21046
#
# Static dielectric constant tensor:
#      x y z
#    x 1.813030 0.000000 0.000000 
#    y 0.000000 1.750280 0.000000 
#    z 0.000000 0.000000 1.836480 
# 
# From -- ./inp_files/6604.got.cif
#   From: 2010.05.17/outbox.cif.g08.bks.cpg/sg73_4_cif.got.tgz:6604.got - 2010.06.03 17:35:07.
