data_PCOD9531239
_publ_section_title
;
Structure prediction by ZEFSAII (Michael W. Deem and Ramdas Pophale) SiO2 
 PCOD9531239
Probable space group: I B C A 
;
_chemical_formula_sum "Si O2"
_cell_formula_units_Z 120
_cell_length_a 18.443508
_cell_length_b 17.140010
_cell_length_c 20.629144
_cell_angle_alpha 90.000000
_cell_angle_beta 90.000000
_cell_angle_gamma 90.000000
_cell_volume 6521.324435
_symmetry_space_group_name_H-M "I B C A "
_symmetry_group_IT_number 73
_symmetry_cell_setting 'orthorhombic'
loop_
_space_group_symop_operation_xyz
x,y,z
-x,1/2-y,z
x,-y,1/2-z
1/2-x,y,-z
-x,-y,-z
x,1/2+y,-z
-x,y,1/2+z
1/2+x,-y,z
1/2+x,1/2+y,1/2+z
1/2-x,-y,1/2+z
1/2+x,1/2-y,-z
-x,1/2+y,1/2-z
1/2-x,1/2-y,1/2-z
1/2+x,y,1/2-z
1/2-x,1/2+y,z
x,1/2-y,1/2+z
loop_
_atom_site_type_symbol
_atom_site_label
_atom_site_fract_x
_atom_site_fract_y
_atom_site_fract_z
Si Si1 0.829566 0.148230 0.470928
Si Si2 0.913703 0.994024 0.507200
Si Si3 0.607973 0.603749 0.112259
Si Si4 0.881792 0.782721 0.904212
Si Si5 0.245083 0.124387 0.702532
Si Si6 0.549435 0.440546 0.864457
Si Si7 0.641765 0.000000 0.250000
Si Si8 0.226358 0.203786 0.837963
O O1 0.750000 0.130190 0.500000
O O2 0.861372 0.212705 0.519891
O O3 0.822161 0.175861 0.397609
O O4 0.876692 0.070955 0.478166
O O5 0.884087 0.924021 0.462770
O O6 0.909630 0.001007 0.585056
O O7 0.000000 0.000000 0.500000
O O8 0.593709 0.696523 0.113804
O O9 0.680327 0.595203 0.155666
O O10 0.538018 0.555210 0.137471
O O11 0.935465 0.853566 0.890776
O O12 0.809508 0.802991 0.862935
O O13 0.304878 0.058619 0.712607
O O14 0.215811 0.152861 0.773222
O O15 0.281089 0.204126 0.675634
O O16 0.589239 0.452388 0.797207
#
# Coordination Sequence:
#
# PCOD9531239 Si02
#       8
#    16  16  16  16  16  16   8  16
#     4   9  18  32  59  83 111 152 191 234 293 340
#     4   9  20  37  55  83 116 143 187 243 288 337
#     4  10  21  36  60  86 111 149 196 240 287 351
#     4   9  17  35  59  83 108 151 195 235 285 348
#     4  10  22  35  58  85 117 154 191 245 287 351
#     4  10  21  39  57  81 114 156 191 236 290 355
#     4  12  24  38  58  82 122 158 192 236 306 348
#     4   9  18  37  54  83 121 147 193 243 287 333
#
# _framework density 18.401171000000001
#
# number of rings (size 3 to 8) (size 9 to 14) (size 15 to 20)
#    0.000    2.400    1.333    0.400    1.867    1.600 
#    2.400    3.333    0.000    0.000    0.000    0.000 
#    0.000    0.000    0.000    0.000    0.000    0.000 
#
# Total GULP energy -334178.396194 kJ/mol
# GULP energy per Si atom -5569.639937 kJ/mol
# Density = 1.835929 g / cm^3
# Si number density = 18.401171 Si / 1000 Ang^3
#
#
#
# Elastic Constant Matrix: (Units=GPa)
#
#
# Indices 1 2 3 4 5 6 
#
# 1 72.7438 26.7620 37.3307 0.0000 0.0000 0.0000
# 2 26.7620 35.2324 20.7679 0.0000 0.0000 0.0000
# 3 37.3307 20.7679 90.6143 0.0000 0.0000 0.0000
# 4 0.0000 0.0000 0.0000 28.9457 0.0000 0.0000
# 5 0.0000 0.0000 0.0000 0.0000 19.5961 0.0000
# 6 0.0000 0.0000 0.0000 0.0000 0.0000 16.8337
#
#
#
# Elastic Compliance Matrix: (Units=1/GPa)
#
#
# Indices 1 2 3 4 5 6 
#
# 1 0.021511 -0.012852 -0.005917 0.000000 0.000000 0.000000
# 2 -0.012852 0.040495 -0.003986 0.000000 0.000000 0.000000
# 3 -0.005917 -0.003986 0.014387 0.000000 0.000000 0.000000
# 4 0.000000 0.000000 0.000000 0.034547 0.000000 0.000000
# 5 0.000000 0.000000 0.000000 0.000000 0.051031 0.000000
# 6 0.000000 0.000000 0.000000 0.000000 0.000000 0.059405
#
#
# Mechanical properties :
#
#
# Convention : Reuss Voigt Hill
#
# Bulk Modulus (GPa) = 32.38000 40.92354 36.65177
# Shear Modulus (GPa) = 18.03878 20.65709 19.34793
#
# Velocity S-wave (km/s) = 3.13438 3.35415 3.24613
# Velocity P-wave (km/s) = 5.54383 6.10642 5.83191
#
# Compressibility (1/GPa) = 0.03088326
#
# Stress axis : x y z
#
# Youngs Moduli (GPa) = 46.48702 24.69432 69.50791
#
# Poissons Ratio (x) = 0.31738 0.41124
# Poissons Ratio (y) = 0.59746 0.27708
# Poissons Ratio (z) = 0.27504 0.09844
#
# Static dielectric constant tensor:
#      x y z
#    x 1.600010 0.000000 0.000000 
#    y 0.000000 1.628210 0.000000 
#    z 0.000000 0.000000 1.668040 
# 
# From -- ./inp_files/26682.got.cif
#   From: 2010.05.17/outbox.cif.g08.bks.cpg/sg73_14_cif.got.tgz:26682.got - 2010.06.03 17:35:07.
