data_PCOD9531465
_publ_section_title
;
Structure prediction by ZEFSAII (Michael W. Deem and Ramdas Pophale) SiO2 
 PCOD9531465
Probable space group: I B C A 
;
_chemical_formula_sum "Si O2"
_cell_formula_units_Z 80
_cell_length_a 5.185019
_cell_length_b 25.878327
_cell_length_c 29.126806
_cell_angle_alpha 90.000000
_cell_angle_beta 90.000000
_cell_angle_gamma 90.000000
_cell_volume 3908.223679
_symmetry_space_group_name_H-M "I B C A "
_symmetry_group_IT_number 73
_symmetry_cell_setting 'orthorhombic'
loop_
_space_group_symop_operation_xyz
x,y,z
-x,1/2-y,z
x,-y,1/2-z
1/2-x,y,-z
-x,-y,-z
x,1/2+y,-z
-x,y,1/2+z
1/2+x,-y,z
1/2+x,1/2+y,1/2+z
1/2-x,-y,1/2+z
1/2+x,1/2-y,-z
-x,1/2+y,1/2-z
1/2-x,1/2-y,1/2-z
1/2+x,y,1/2-z
1/2-x,1/2+y,z
x,1/2-y,1/2+z
loop_
_atom_site_type_symbol
_atom_site_label
_atom_site_fract_x
_atom_site_fract_y
_atom_site_fract_z
Si Si1 0.750000 0.068926 0.000000
Si Si2 0.216221 0.529883 0.396714
Si Si3 0.245258 0.225142 0.698864
Si Si4 0.596460 0.358087 0.362009
Si Si5 0.250000 0.141421 0.000000
Si Si6 0.591675 0.809326 0.907021
O O1 0.725526 0.038096 0.952104
O O2 0.498282 0.104700 0.999938
O O3 0.508476 0.514377 0.384992
O O4 0.114129 0.581007 0.370771
O O5 0.500000 0.250000 0.678613
O O6 0.250000 0.250000 0.750000
O O7 0.198900 0.165258 0.687472
O O8 0.000000 0.250000 0.675153
O O9 0.313099 0.334783 0.373434
O O10 0.820263 0.337291 0.395963
O O11 0.216593 0.176131 0.955468
O O12 0.500000 0.750000 0.909722
#
# Coordination Sequence:
#
# PCOD9531465 Si02
#       6
#     8  16  16  16   8  16
#     4  12  22  42  60  80 120 168 236 284 318 356
#     4  12  24  40  62  88 118 170 224 277 333 361
#     4  10  21  39  65  98 126 154 195 241 315 398
#     4  12  23  41  61  90 127 160 209 271 311 386
#     4  12  22  40  56  82 122 174 220 264 324 370
#     4  12  24  38  59  84 124 170 213 259 318 378
#
# _framework density 20.469659
#
# number of rings (size 3 to 8) (size 9 to 14) (size 15 to 20)
#    0.000    0.400    4.000    6.600    0.000    2.400 
#    0.000    0.000    0.000    0.000    0.000   16.800 
#    0.000    0.000    0.000    0.000    0.000    0.000 
#
# Total GULP energy -222728.555706 kJ/mol
# GULP energy per Si atom -5568.213893 kJ/mol
# Density = 2.042307 g / cm^3
# Si number density = 20.469659 Si / 1000 Ang^3
#
#
#
# Elastic Constant Matrix: (Units=GPa)
#
#
# Indices 1 2 3 4 5 6 
#
# 1 169.0755 34.0152 -4.3086 0.0000 0.0000 0.0000
# 2 34.0152 92.4659 14.2017 0.0000 0.0000 0.0000
# 3 -4.3086 14.2017 51.0008 0.0000 0.0000 0.0000
# 4 0.0000 0.0000 0.0000 15.9223 0.0000 0.0000
# 5 0.0000 0.0000 0.0000 0.0000 5.2745 0.0000
# 6 0.0000 0.0000 0.0000 0.0000 0.0000 40.3771
#
#
#
# Elastic Compliance Matrix: (Units=1/GPa)
#
#
# Indices 1 2 3 4 5 6 
#
# 1 0.006464 -0.002572 0.001262 0.000000 0.000000 0.000000
# 2 -0.002572 0.012321 -0.003648 0.000000 0.000000 0.000000
# 3 0.001262 -0.003648 0.020730 0.000000 0.000000 0.000000
# 4 0.000000 0.000000 0.000000 0.062805 0.000000 0.000000
# 5 0.000000 0.000000 0.000000 0.000000 0.189591 0.000000
# 6 0.000000 0.000000 0.000000 0.000000 0.000000 0.024767
#
#
# Mechanical properties :
#
#
# Convention : Reuss Voigt Hill
#
# Bulk Modulus (GPa) = 33.78407 44.48433 39.13420
# Shear Modulus (GPa) = 14.86062 30.22370 22.54216
#
# Velocity S-wave (km/s) = 2.69733 3.84671 3.32211
# Velocity P-wave (km/s) = 5.12260 6.44272 5.82021
#
# Compressibility (1/GPa) = 0.02959975
#
# Stress axis : x y z
#
# Youngs Moduli (GPa) = 154.70090 81.16085 48.23912
#
# Poissons Ratio (x) = 0.20873 -0.06089
# Poissons Ratio (y) = 0.39786 0.17599
# Poissons Ratio (z) = -0.19527 0.29609
#
# Static dielectric constant tensor:
#      x y z
#    x 1.714650 0.000000 0.000000 
#    y 0.000000 1.821780 0.000000 
#    z 0.000000 0.000000 1.662940 
# 
# From -- ./inp_files/33248.got.cif
#   From: 2010.05.17/outbox.cif.g08.bks.cpg/sg73_17_cif.got.tgz:33248.got - 2010.06.03 17:35:07.
