data_PCOD9531545
_publ_section_title
;
Structure prediction by ZEFSAII (Michael W. Deem and Ramdas Pophale) SiO2 
 PCOD9531545
Probable space group: I B C A 
;
_chemical_formula_sum "Si O2"
_cell_formula_units_Z 96
_cell_length_a 8.796891
_cell_length_b 21.133228
_cell_length_c 26.118376
_cell_angle_alpha 90.000000
_cell_angle_beta 90.000000
_cell_angle_gamma 90.000000
_cell_volume 4855.581175
_symmetry_space_group_name_H-M "I B C A "
_symmetry_group_IT_number 73
_symmetry_cell_setting 'orthorhombic'
loop_
_space_group_symop_operation_xyz
x,y,z
-x,1/2-y,z
x,-y,1/2-z
1/2-x,y,-z
-x,-y,-z
x,1/2+y,-z
-x,y,1/2+z
1/2+x,-y,z
1/2+x,1/2+y,1/2+z
1/2-x,-y,1/2+z
1/2+x,1/2-y,-z
-x,1/2+y,1/2-z
1/2-x,1/2-y,1/2-z
1/2+x,y,1/2-z
1/2-x,1/2+y,z
x,1/2-y,1/2+z
loop_
_atom_site_type_symbol
_atom_site_label
_atom_site_fract_x
_atom_site_fract_y
_atom_site_fract_z
Si Si1 0.750000 0.190064 0.000000
Si Si2 0.119713 0.410049 0.073464
Si Si3 0.500000 0.750000 0.427646
Si Si4 0.217088 0.963554 0.440495
Si Si5 0.113620 0.700931 0.234378
Si Si6 0.337266 0.362219 0.632884
Si Si7 0.994560 0.677146 0.847519
O O1 0.862062 0.143415 0.030615
O O2 0.644672 0.230422 0.037765
O O3 0.249298 0.462444 0.067799
O O4 0.123394 0.369389 0.125418
O O5 0.958177 0.445439 0.068955
O O6 0.557595 0.689420 0.395255
O O7 0.250000 0.947982 0.500000
O O8 0.328010 0.925548 0.401319
O O9 0.250000 0.750000 0.250000
O O10 0.130909 0.644047 0.194017
O O11 0.040583 0.677168 0.287246
O O12 0.000000 0.750000 0.208031
O O13 0.160088 0.343877 0.635001
O O14 0.000000 0.750000 0.863949
#
# Coordination Sequence:
#
# PCOD9531545 Si02
#       7
#     8  16   8  16  16  16  16
#     4  12  28  42  64  98 138 178 216 290 344 404
#     4  11  25  43  67  92 132 179 225 274 335 400
#     4  12  28  40  66 102 136 172 228 278 346 408
#     4  11  24  44  65  91 132 183 228 272 327 403
#     4  11  20  38  63  95 131 170 214 277 351 410
#     4  11  23  39  64  98 129 174 218 278 336 408
#     4  10  21  40  66  94 134 166 214 281 346 400
#
# _framework density 19.771062000000001
#
# number of rings (size 3 to 8) (size 9 to 14) (size 15 to 20)
#    0.000    1.000    5.000    2.500    9.333    0.000 
#    0.000    0.833    0.000    4.000    0.000    0.000 
#    0.000    0.000    0.000    0.000    0.000    0.000 
#
# Total GULP energy -267435.331930 kJ/mol
# GULP energy per Si atom -5571.569415 kJ/mol
# Density = 1.972606 g / cm^3
# Si number density = 19.771062 Si / 1000 Ang^3
#
#
#
# Elastic Constant Matrix: (Units=GPa)
#
#
# Indices 1 2 3 4 5 6 
#
# 1 56.8653 8.1127 13.6359 0.0000 0.0000 0.0000
# 2 8.1127 61.7320 37.9990 0.0000 0.0000 0.0000
# 3 13.6359 37.9990 95.7746 0.0000 0.0000 0.0000
# 4 0.0000 0.0000 0.0000 -38.6390 0.0000 0.0000
# 5 0.0000 0.0000 0.0000 0.0000 28.5369 0.0000
# 6 0.0000 0.0000 0.0000 0.0000 0.0000 34.6597
#
#
#
# Elastic Compliance Matrix: (Units=1/GPa)
#
#
# Indices 1 2 3 4 5 6 
#
# 1 0.018259 -0.001058 -0.002180 0.000000 0.000000 0.000000
# 2 -0.001058 0.021495 -0.008378 0.000000 0.000000 0.000000
# 3 -0.002180 -0.008378 0.014075 0.000000 0.000000 0.000000
# 4 0.000000 0.000000 0.000000 -0.025881 0.000000 0.000000
# 5 0.000000 0.000000 0.000000 0.000000 0.035042 0.000000
# 6 0.000000 0.000000 0.000000 0.000000 0.000000 0.028852
#
#
# Mechanical properties :
#
#
# Convention : Reuss Voigt Hill
#
# Bulk Modulus (GPa) = 32.68101 37.09632 34.88867
# Shear Modulus (GPa) = 39.91278 15.21980 27.56629
#
# Velocity S-wave (km/s) = 4.49792 2.77754 3.73805
# Velocity P-wave (km/s) = 6.59854 5.39351 6.02622
#
# Compressibility (1/GPa) = 0.03059881
#
# Stress axis : x y z
#
# Youngs Moduli (GPa) = 54.76735 46.52278 71.04598
#
# Poissons Ratio (x) = 0.04921 0.15488
# Poissons Ratio (y) = 0.05793 0.59519
# Poissons Ratio (z) = 0.11939 0.38975
#
# Static dielectric constant tensor:
#      x y z
#    x 1.733040 0.000000 0.000000 
#    y 0.000000 1.686560 0.000000 
#    z 0.000000 0.000000 1.726260 
# 
# From -- ./inp_files/28429.got.cif
#   From: 2010.05.17/outbox.cif.g08.bks.cpg/sg73_15_cif.got.tgz:28429.got - 2010.06.03 17:35:07.
