data_PCOD9531037
_publ_section_title
;
Structure prediction by ZEFSAII (Michael W. Deem and Ramdas Pophale) SiO2 
 PCOD9531037
Probable space group: I B C A 
;
_chemical_formula_sum "Si O2"
_cell_formula_units_Z 120
_cell_length_a 22.320698
_cell_length_b 11.494886
_cell_length_c 22.172033
_cell_angle_alpha 90.000000
_cell_angle_beta 90.000000
_cell_angle_gamma 90.000000
_cell_volume 5688.764511
_symmetry_space_group_name_H-M "I B C A "
_symmetry_group_IT_number 73
_symmetry_cell_setting 'orthorhombic'
loop_
_space_group_symop_operation_xyz
x,y,z
-x,1/2-y,z
x,-y,1/2-z
1/2-x,y,-z
-x,-y,-z
x,1/2+y,-z
-x,y,1/2+z
1/2+x,-y,z
1/2+x,1/2+y,1/2+z
1/2-x,-y,1/2+z
1/2+x,1/2-y,-z
-x,1/2+y,1/2-z
1/2-x,1/2-y,1/2-z
1/2+x,y,1/2-z
1/2-x,1/2+y,z
x,1/2-y,1/2+z
loop_
_atom_site_type_symbol
_atom_site_label
_atom_site_fract_x
_atom_site_fract_y
_atom_site_fract_z
Si Si1 0.693372 0.454237 0.317870
Si Si2 0.250000 0.026890 0.000000
Si Si3 0.463938 0.014352 0.061394
Si Si4 0.653154 0.358135 0.082843
Si Si5 0.094227 0.190651 0.624430
Si Si6 0.503810 0.627330 0.231681
Si Si7 0.690917 0.598677 0.886031
Si Si8 0.075687 0.554243 0.864384
O O1 0.684848 0.500000 0.250000
O O2 0.670201 0.556922 0.361693
O O3 0.655360 0.343126 0.341847
O O4 0.761539 0.421379 0.332657
O O5 0.196300 0.103298 0.972072
O O6 0.276585 0.949005 0.946256
O O7 0.416584 0.119053 0.066786
O O8 0.422109 0.900596 0.072284
O O9 0.516716 0.011650 0.111198
O O10 0.500000 0.000000 0.000000
O O11 0.669912 0.229271 0.102563
O O12 0.045080 0.165684 0.675811
O O13 0.087228 0.322321 0.602775
O O14 0.500000 0.750000 0.268883
O O15 0.528838 0.500000 0.250000
O O16 0.439451 0.593638 0.203657
O O17 0.632804 0.523397 0.872197
#
# Coordination Sequence:
#
# PCOD9531037 Si02
#       8
#    16   8  16  16  16  16  16  16
#     4  10  23  42  68  96 130 177 229 277 334 407
#     4  10  22  44  66  90 128 176 220 268 340 404
#     4  10  20  41  63  96 123 165 219 266 327 401
#     4  10  23  43  64  98 133 172 224 278 340 407
#     4   9  20  41  67  86 126 171 215 259 329 400
#     4   9  18  37  61  90 118 162 211 254 319 387
#     4  11  24  42  63  96 132 170 221 276 340 397
#     4  10  22  41  59  89 129 166 204 265 327 391
#
# _framework density 21.094211000000001
#
# number of rings (size 3 to 8) (size 9 to 14) (size 15 to 20)
#    0.000    2.133    0.000    2.800    3.733    1.600 
#   31.200    0.000    0.000    0.000    0.000    0.000 
#    0.000    0.000    0.000    0.000    0.000    0.000 
#
# Total GULP energy -334600.268860 kJ/mol
# GULP energy per Si atom -5576.671148 kJ/mol
# Density = 2.104620 g / cm^3
# Si number density = 21.094211 Si / 1000 Ang^3
#
#
#
# Elastic Constant Matrix: (Units=GPa)
#
#
# Indices 1 2 3 4 5 6 
#
# 1 150.5682 48.6069 28.1767 0.0000 0.0000 0.0000
# 2 48.6069 123.2285 21.7084 0.0000 0.0000 0.0000
# 3 28.1767 21.7084 65.1077 0.0000 0.0000 0.0000
# 4 0.0000 0.0000 0.0000 16.3683 0.0000 0.0000
# 5 0.0000 0.0000 0.0000 0.0000 -7.0659 0.0000
# 6 0.0000 0.0000 0.0000 0.0000 0.0000 26.4646
#
#
#
# Elastic Compliance Matrix: (Units=1/GPa)
#
#
# Indices 1 2 3 4 5 6 
#
# 1 0.007992 -0.002702 -0.002558 0.000000 0.000000 0.000000
# 2 -0.002702 0.009535 -0.002010 0.000000 0.000000 0.000000
# 3 -0.002558 -0.002010 0.017136 0.000000 0.000000 0.000000
# 4 0.000000 0.000000 0.000000 0.061094 0.000000 0.000000
# 5 0.000000 0.000000 0.000000 0.000000 -0.141524 0.000000
# 6 0.000000 0.000000 0.000000 0.000000 0.000000 0.037786
#
#
# Mechanical properties :
#
#
# Convention : Reuss Voigt Hill
#
# Bulk Modulus (GPa) = 49.69175 59.54315 54.61745
# Shear Modulus (GPa) = 376.86603 23.18087 200.02345
#
# Velocity S-wave (km/s) = 13.38082 3.31859 9.74832
# Velocity P-wave (km/s) = 16.19681 6.55535 12.35535
#
# Compressibility (1/GPa) = 0.02012406
#
# Stress axis : x y z
#
# Youngs Moduli (GPa) = 125.11795 104.87859 58.35561
#
# Poissons Ratio (x) = 0.28338 0.14927
# Poissons Ratio (y) = 0.33806 0.11728
# Poissons Ratio (z) = 0.32005 0.21079
#
# Static dielectric constant tensor:
#      x y z
#    x 1.796780 0.000000 0.000000 
#    y 0.000000 1.835570 0.000000 
#    z 0.000000 0.000000 1.840150 
# 
# From -- ./inp_files/30184.got.cif
#   From: 2010.05.17/outbox.cif.g08.bks.cpg/sg73_16_cif.got.tgz:30184.got - 2010.06.03 17:35:07.
