data_PCOD9531213
_publ_section_title
;
Structure prediction by ZEFSAII (Michael W. Deem and Ramdas Pophale) SiO2 
 PCOD9531213
Probable space group: I B C A 
;
_chemical_formula_sum "Si O2"
_cell_formula_units_Z 64
_cell_length_a 27.150097
_cell_length_b 19.133043
_cell_length_c 5.198741
_cell_angle_alpha 90.000000
_cell_angle_beta 90.000000
_cell_angle_gamma 90.000000
_cell_volume 2700.558656
_symmetry_space_group_name_H-M "I B C A "
_symmetry_group_IT_number 73
_symmetry_cell_setting 'orthorhombic'
loop_
_space_group_symop_operation_xyz
x,y,z
-x,1/2-y,z
x,-y,1/2-z
1/2-x,y,-z
-x,-y,-z
x,1/2+y,-z
-x,y,1/2+z
1/2+x,-y,z
1/2+x,1/2+y,1/2+z
1/2-x,-y,1/2+z
1/2+x,1/2-y,-z
-x,1/2+y,1/2-z
1/2-x,1/2-y,1/2-z
1/2+x,y,1/2-z
1/2-x,1/2+y,z
x,1/2-y,1/2+z
loop_
_atom_site_type_symbol
_atom_site_label
_atom_site_fract_x
_atom_site_fract_y
_atom_site_fract_z
Si Si1 0.533169 0.500000 0.250000
Si Si2 0.381980 0.090502 0.373911
Si Si3 0.304345 0.851246 0.539735
Si Si4 0.676911 0.000000 0.250000
Si Si5 0.894960 0.211251 0.760688
O O1 0.500000 0.500000 0.500000
O O2 0.570197 0.434481 0.225063
O O3 0.340595 0.130336 0.202757
O O4 0.356111 0.024984 0.512457
O O5 0.403699 0.137004 0.607878
O O6 0.250000 0.823293 0.500000
O O7 0.335915 0.798320 0.714864
O O8 0.296460 0.927947 0.674021
O O9 0.912106 0.234431 0.479380
#
# Coordination Sequence:
#
# PCOD9531213 Si02
#       5
#     8  16  16   8  16
#     4  12  27  43  78 108 134 172 221 295 370 426
#     4  11  23  45  67 100 142 175 228 291 352 424
#     4  11  24  38  65  99 142 192 234 283 341 408
#     4  10  21  35  64  90 140 180 223 279 358 408
#     4  11  24  44  69  96 136 194 235 282 333 401
#
# _framework density 23.698798
#
# number of rings (size 3 to 8) (size 9 to 14) (size 15 to 20)
#    0.000    1.000    5.000    0.750    7.000    4.000 
#    0.000    0.000    0.000    4.500    0.000    0.000 
#    0.000    0.000    0.000    0.000    0.000    0.000 
#
# Total GULP energy -178477.161180 kJ/mol
# GULP energy per Si atom -5577.411287 kJ/mol
# Density = 2.364486 g / cm^3
# Si number density = 23.698798 Si / 1000 Ang^3
#
#
#
# Elastic Constant Matrix: (Units=GPa)
#
#
# Indices 1 2 3 4 5 6 
#
# 1 86.6698 1.1105 50.7885 0.0000 0.0000 0.0000
# 2 1.1105 51.6734 21.6253 0.0000 0.0000 0.0000
# 3 50.7885 21.6253 161.5594 0.0000 0.0000 0.0000
# 4 0.0000 0.0000 0.0000 56.2003 0.0000 0.0000
# 5 0.0000 0.0000 0.0000 0.0000 32.6286 0.0000
# 6 0.0000 0.0000 0.0000 0.0000 0.0000 10.0518
#
#
#
# Elastic Compliance Matrix: (Units=1/GPa)
#
#
# Indices 1 2 3 4 5 6 
#
# 1 0.014277 0.001665 -0.004711 0.000000 0.000000 0.000000
# 2 0.001665 0.020695 -0.003293 0.000000 0.000000 0.000000
# 3 -0.004711 -0.003293 0.008112 0.000000 0.000000 0.000000
# 4 0.000000 0.000000 0.000000 0.017794 0.000000 0.000000
# 5 0.000000 0.000000 0.000000 0.000000 0.030648 0.000000
# 6 0.000000 0.000000 0.000000 0.000000 0.000000 0.099485
#
#
# Mechanical properties :
#
#
# Convention : Reuss Voigt Hill
#
# Bulk Modulus (GPa) = 32.89018 49.66125 41.27571
# Shear Modulus (GPa) = 23.38368 34.86802 29.12585
#
# Velocity S-wave (km/s) = 3.14459 3.83991 3.50951
# Velocity P-wave (km/s) = 5.20511 6.37656 5.82038
#
# Compressibility (1/GPa) = 0.03040422
#
# Stress axis : x y z
#
# Youngs Moduli (GPa) = 70.04054 48.32123 123.28136
#
# Poissons Ratio (x) = -0.08044 0.58080
# Poissons Ratio (y) = -0.11660 0.40602
# Poissons Ratio (z) = 0.32997 0.15914
#
# Static dielectric constant tensor:
#      x y z
#    x 1.846430 0.000000 0.000000 
#    y 0.000000 1.991070 0.000000 
#    z 0.000000 0.000000 2.028690 
# 
# From -- ./inp_files/2515.got.cif
#   From: 2010.05.17/outbox.cif.g08.bks.cpg/sg73_2_cif.got.tgz:2515.got - 2010.06.03 17:35:07.
