data_PCOD9531279
_publ_section_title
;
Structure prediction by ZEFSAII (Michael W. Deem and Ramdas Pophale) SiO2 
 PCOD9531279
Probable space group: I B C A 
;
_chemical_formula_sum "Si O2"
_cell_formula_units_Z 112
_cell_length_a 28.267294
_cell_length_b 16.403425
_cell_length_c 11.926592
_cell_angle_alpha 90.000000
_cell_angle_beta 90.000000
_cell_angle_gamma 90.000000
_cell_volume 5530.127391
_symmetry_space_group_name_H-M "I B C A "
_symmetry_group_IT_number 73
_symmetry_cell_setting 'orthorhombic'
loop_
_space_group_symop_operation_xyz
x,y,z
-x,1/2-y,z
x,-y,1/2-z
1/2-x,y,-z
-x,-y,-z
x,1/2+y,-z
-x,y,1/2+z
1/2+x,-y,z
1/2+x,1/2+y,1/2+z
1/2-x,-y,1/2+z
1/2+x,1/2-y,-z
-x,1/2+y,1/2-z
1/2-x,1/2-y,1/2-z
1/2+x,y,1/2-z
1/2-x,1/2+y,z
x,1/2-y,1/2+z
loop_
_atom_site_type_symbol
_atom_site_label
_atom_site_fract_x
_atom_site_fract_y
_atom_site_fract_z
Si Si1 0.949385 0.785179 0.650326
Si Si2 0.680970 0.344941 0.432780
Si Si3 0.580854 0.365091 0.999280
Si Si4 0.774546 0.680322 0.170117
Si Si5 0.860797 0.810827 0.810470
Si Si6 0.482645 0.410719 0.961936
Si Si7 0.893406 0.027929 0.128549
O O1 0.926363 0.713823 0.575105
O O2 0.908121 0.806173 0.736689
O O3 0.962079 0.860558 0.567851
O O4 0.000000 0.750000 0.693355
O O5 0.729367 0.370871 0.370008
O O6 0.698059 0.303515 0.550410
O O7 0.654971 0.278600 0.353951
O O8 0.645334 0.420657 0.439967
O O9 0.589398 0.445539 0.070351
O O10 0.625519 0.358487 0.920660
O O11 0.531897 0.369395 0.928979
O O12 0.750000 0.750000 0.250000
O O13 0.817245 0.648890 0.245676
O O14 0.441574 0.417782 0.869856
O O15 0.500000 0.500000 0.000000
O O16 0.876020 0.000000 0.250000
#
# Coordination Sequence:
#
# PCOD9531279 Si02
#       7
#    16  16  16  16  16  16  16
#     4  10  21  37  59  89 123 161 203 251 306 365
#     4  10  21  39  61  86 116 151 202 254 307 380
#     4  10  22  35  54  88 119 152 204 250 294 366
#     4   9  20  39  63  87 112 152 198 250 316 376
#     4  11  20  35  62  88 115 151 196 254 307 359
#     4   9  20  37  54  81 120 158 199 241 288 361
#     4  11  22  38  58  81 119 165 199 242 310 377
#
# _framework density 20.252697999999999
#
# number of rings (size 3 to 8) (size 9 to 14) (size 15 to 20)
#    0.000    2.000    0.000    3.429    0.000    7.429 
#    0.000    8.571    0.000    0.000    0.000    0.000 
#    0.000    0.000    0.000    0.000    0.000    0.000 
#
# Total GULP energy -311799.513134 kJ/mol
# GULP energy per Si atom -5567.848449 kJ/mol
# Density = 2.020660 g / cm^3
# Si number density = 20.252698 Si / 1000 Ang^3
#
#
#
# Elastic Constant Matrix: (Units=GPa)
#
#
# Indices 1 2 3 4 5 6 
#
# 1 106.3449 20.1222 53.2198 0.0000 0.0000 0.0000
# 2 20.1222 64.9325 24.2357 0.0000 0.0000 0.0000
# 3 53.2198 24.2357 57.5508 0.0000 0.0000 0.0000
# 4 0.0000 0.0000 0.0000 11.9791 0.0000 0.0000
# 5 0.0000 0.0000 0.0000 0.0000 42.6484 0.0000
# 6 0.0000 0.0000 0.0000 0.0000 0.0000 20.5047
#
#
#
# Elastic Compliance Matrix: (Units=1/GPa)
#
#
# Indices 1 2 3 4 5 6 
#
# 1 0.017533 0.000734 -0.016523 0.000000 0.000000 0.000000
# 2 0.000734 0.018303 -0.008386 0.000000 0.000000 0.000000
# 3 -0.016523 -0.008386 0.036187 0.000000 0.000000 0.000000
# 4 0.000000 0.000000 0.000000 0.083479 0.000000 0.000000
# 5 0.000000 0.000000 0.000000 0.000000 0.023448 0.000000
# 6 0.000000 0.000000 0.000000 0.000000 0.000000 0.048769
#
#
# Mechanical properties :
#
#
# Convention : Reuss Voigt Hill
#
# Bulk Modulus (GPa) = 42.24274 47.10928 44.67601
# Shear Modulus (GPa) = 17.60805 23.77645 20.69225
#
# Velocity S-wave (km/s) = 2.95179 3.43007 3.19988
# Velocity P-wave (km/s) = 5.70268 6.24487 5.97992
#
# Compressibility (1/GPa) = 0.02367271
#
# Stress axis : x y z
#
# Youngs Moduli (GPa) = 57.03440 54.63464 27.63436
#
# Poissons Ratio (x) = -0.04008 0.45659
# Poissons Ratio (y) = -0.04184 0.23175
# Poissons Ratio (z) = 0.94236 0.45818
#
# Static dielectric constant tensor:
#      x y z
#    x 1.746300 0.000000 0.000000 
#    y 0.000000 1.843860 0.000000 
#    z 0.000000 0.000000 1.763760 
# 
# From -- ./inp_files/14817.got.cif
#   From: 2010.05.17/outbox.cif.g08.bks.cpg/sg73_8_cif.got.tgz:14817.got - 2010.06.03 17:35:07.
