data_PCOD9531570
_publ_section_title
;
Structure prediction by ZEFSAII (Michael W. Deem and Ramdas Pophale) SiO2 
 PCOD9531570
Probable space group: I B C A 
;
_chemical_formula_sum "Si O2"
_cell_formula_units_Z 64
_cell_length_a 7.443735
_cell_length_b 18.264978
_cell_length_c 20.969515
_cell_angle_alpha 90.000000
_cell_angle_beta 90.000000
_cell_angle_gamma 90.000000
_cell_volume 2851.008046
_symmetry_space_group_name_H-M "I B C A "
_symmetry_group_IT_number 73
_symmetry_cell_setting 'orthorhombic'
loop_
_space_group_symop_operation_xyz
x,y,z
-x,1/2-y,z
x,-y,1/2-z
1/2-x,y,-z
-x,-y,-z
x,1/2+y,-z
-x,y,1/2+z
1/2+x,-y,z
1/2+x,1/2+y,1/2+z
1/2-x,-y,1/2+z
1/2+x,1/2-y,-z
-x,1/2+y,1/2-z
1/2-x,1/2-y,1/2-z
1/2+x,y,1/2-z
1/2-x,1/2+y,z
x,1/2-y,1/2+z
loop_
_atom_site_type_symbol
_atom_site_label
_atom_site_fract_x
_atom_site_fract_y
_atom_site_fract_z
Si Si1 0.191929 0.717399 0.183217
Si Si2 0.912605 0.405383 0.888320
Si Si3 0.887309 0.186781 0.562601
Si Si4 0.805117 0.432844 0.573472
O O1 0.250000 0.750000 0.250000
O O2 0.161005 0.629805 0.177226
O O3 0.328427 0.731849 0.126321
O O4 0.000000 0.750000 0.166373
O O5 0.810269 0.355116 0.942144
O O6 0.857516 0.488858 0.897961
O O7 0.126388 0.400916 0.894082
O O8 0.000000 0.250000 0.524679
O O9 0.025766 0.121106 0.574791
O O10 0.750000 0.444836 0.500000
#
# Coordination Sequence:
#
# PCOD9531570 Si02
#       4
#    16  16  16  16
#     4  10  21  40  70  99 130 180 232 285 365 410
#     4  10  23  38  69 100 133 187 228 286 351 413
#     4  10  23  41  65 100 142 177 231 291 342 415
#     4  12  23  44  71  99 144 190 232 287 348 416
#
# _framework density 22.448201000000001
#
# number of rings (size 3 to 8) (size 9 to 14) (size 15 to 20)
#    1.500    0.000    2.500    3.000    0.000    0.000 
#    4.500    0.000    0.000   31.500    0.000    0.000 
#    0.000    0.000    0.000    0.000    0.000    0.000 
#
# Total GULP energy -178166.893014 kJ/mol
# GULP energy per Si atom -5567.715407 kJ/mol
# Density = 2.239711 g / cm^3
# Si number density = 22.448201 Si / 1000 Ang^3
#
#
#
# Elastic Constant Matrix: (Units=GPa)
#
#
# Indices 1 2 3 4 5 6 
#
# 1 166.7901 47.7214 -5.1028 0.0000 0.0000 0.0000
# 2 47.7214 159.8143 12.8986 0.0000 0.0000 0.0000
# 3 -5.1028 12.8986 43.5579 0.0000 0.0000 0.0000
# 4 0.0000 0.0000 0.0000 31.8345 0.0000 0.0000
# 5 0.0000 0.0000 0.0000 0.0000 20.7576 0.0000
# 6 0.0000 0.0000 0.0000 0.0000 0.0000 42.4575
#
#
#
# Elastic Compliance Matrix: (Units=1/GPa)
#
#
# Indices 1 2 3 4 5 6 
#
# 1 0.006638 -0.002095 0.001398 0.000000 0.000000 0.000000
# 2 -0.002095 0.007072 -0.002340 0.000000 0.000000 0.000000
# 3 0.001398 -0.002340 0.023814 0.000000 0.000000 0.000000
# 4 0.000000 0.000000 0.000000 0.031412 0.000000 0.000000
# 5 0.000000 0.000000 0.000000 0.000000 0.048175 0.000000
# 6 0.000000 0.000000 0.000000 0.000000 0.000000 0.023553
#
#
# Mechanical properties :
#
#
# Convention : Reuss Voigt Hill
#
# Bulk Modulus (GPa) = 31.79552 53.46630 42.63091
# Shear Modulus (GPa) = 31.80239 39.98626 35.89432
#
# Velocity S-wave (km/s) = 3.76799 4.22509 4.00307
# Velocity P-wave (km/s) = 5.75544 6.90443 6.35595
#
# Compressibility (1/GPa) = 0.03145097
#
# Stress axis : x y z
#
# Youngs Moduli (GPa) = 150.65438 141.41012 41.99124
#
# Poissons Ratio (x) = 0.29624 -0.05870
# Poissons Ratio (y) = 0.31560 0.09824
# Poissons Ratio (z) = -0.21061 0.33083
#
# Static dielectric constant tensor:
#      x y z
#    x 1.312510 0.000000 0.000000 
#    y 0.000000 1.714020 0.000000 
#    z 0.000000 0.000000 2.382600 
# 
# From -- ./inp_files/7651.got.cif
#   From: 2010.05.17/outbox.cif.g08.bks.cpg/sg73_4_cif.got.tgz:7651.got - 2010.06.03 17:35:07.
