data_PCOD9531278
_publ_section_title
;
Structure prediction by ZEFSAII (Michael W. Deem and Ramdas Pophale) SiO2 
 PCOD9531278
Probable space group: I B C A 
;
_chemical_formula_sum "Si O2"
_cell_formula_units_Z 112
_cell_length_a 24.910473
_cell_length_b 19.123002
_cell_length_c 10.455127
_cell_angle_alpha 90.000000
_cell_angle_beta 90.000000
_cell_angle_gamma 90.000000
_cell_volume 4980.435924
_symmetry_space_group_name_H-M "I B C A "
_symmetry_group_IT_number 73
_symmetry_cell_setting 'orthorhombic'
loop_
_space_group_symop_operation_xyz
x,y,z
-x,1/2-y,z
x,-y,1/2-z
1/2-x,y,-z
-x,-y,-z
x,1/2+y,-z
-x,y,1/2+z
1/2+x,-y,z
1/2+x,1/2+y,1/2+z
1/2-x,-y,1/2+z
1/2+x,1/2-y,-z
-x,1/2+y,1/2-z
1/2-x,1/2-y,1/2-z
1/2+x,y,1/2-z
1/2-x,1/2+y,z
x,1/2-y,1/2+z
loop_
_atom_site_type_symbol
_atom_site_label
_atom_site_fract_x
_atom_site_fract_y
_atom_site_fract_z
Si Si1 0.373658 0.276621 0.736779
Si Si2 0.972102 0.684552 0.919953
Si Si3 0.703354 0.868217 0.586585
Si Si4 0.111821 0.873726 0.113112
Si Si5 0.056673 0.928623 0.351872
Si Si6 0.204825 0.500000 0.250000
Si Si7 0.382864 0.086889 0.107177
Si Si8 0.534912 0.500000 0.250000
O O1 0.428090 0.287490 0.818791
O O2 0.326117 0.310469 0.824281
O O3 0.369618 0.198185 0.684408
O O4 0.375528 0.330476 0.617948
O O5 0.000000 0.750000 0.987758
O O6 0.020839 0.642018 0.857239
O O7 0.939811 0.641395 0.025084
O O8 0.750000 0.836523 0.500000
O O9 0.657627 0.895262 0.487805
O O10 0.727393 0.934174 0.667791
O O11 0.092688 0.925082 0.224626
O O12 0.094800 0.934073 0.471785
O O13 0.007856 0.983274 0.358565
O O14 0.168528 0.456963 0.351020
O O15 0.427165 0.063561 0.212553
#
# Coordination Sequence:
#
# PCOD9531278 Si02
#       8
#    16  16  16  16  16   8  16   8
#     4  10  21  41  62  94 124 171 215 266 327 391
#     4  11  21  34  55  85 133 174 213 254 310 380
#     4  10  24  48  73  93 126 167 214 281 342 394
#     4  11  25  38  63  97 129 169 223 269 325 396
#     4  12  23  33  55  90 129 175 217 265 314 379
#     4   9  22  46  69  90 122 162 211 268 339 402
#     4  10  21  37  59  83 126 173 213 262 319 382
#     4  11  22  34  51  84 130 178 225 254 317 382
#
# _framework density 22.487991000000001
#
# number of rings (size 3 to 8) (size 9 to 14) (size 15 to 20)
#    0.000    1.429    2.857    2.143    8.000    0.571 
#    2.571    0.000    0.000    0.000    0.000    0.000 
#    0.000    0.000    0.000    0.000    0.000    0.000 
#
# Total GULP energy -312600.502513 kJ/mol
# GULP energy per Si atom -5582.151831 kJ/mol
# Density = 2.243681 g / cm^3
# Si number density = 22.487991 Si / 1000 Ang^3
#
#
#
# Elastic Constant Matrix: (Units=GPa)
#
#
# Indices 1 2 3 4 5 6 
#
# 1 24.0097 0.0941 3.9943 0.0000 0.0000 0.0000
# 2 0.0941 81.7624 -7.2971 0.0000 0.0000 0.0000
# 3 3.9943 -7.2971 79.8246 0.0000 0.0000 0.0000
# 4 0.0000 0.0000 0.0000 22.3402 0.0000 0.0000
# 5 0.0000 0.0000 0.0000 0.0000 28.0615 0.0000
# 6 0.0000 0.0000 0.0000 0.0000 0.0000 5.8595
#
#
#
# Elastic Compliance Matrix: (Units=1/GPa)
#
#
# Indices 1 2 3 4 5 6 
#
# 1 0.042004 -0.000238 -0.002124 0.000000 0.000000 0.000000
# 2 -0.000238 0.012333 0.001139 0.000000 0.000000 0.000000
# 3 -0.002124 0.001139 0.012738 0.000000 0.000000 0.000000
# 4 0.000000 0.000000 0.000000 0.044762 0.000000 0.000000
# 5 0.000000 0.000000 0.000000 0.000000 0.035636 0.000000
# 6 0.000000 0.000000 0.000000 0.000000 0.000000 0.170664
#
#
# Mechanical properties :
#
#
# Convention : Reuss Voigt Hill
#
# Bulk Modulus (GPa) = 15.47263 19.90878 17.69071
# Shear Modulus (GPa) = 14.61455 23.83927 19.22691
#
# Velocity S-wave (km/s) = 2.55204 3.25943 2.92719
# Velocity P-wave (km/s) = 3.94705 4.79974 4.39413
#
# Compressibility (1/GPa) = 0.06463025
#
# Stress axis : x y z
#
# Youngs Moduli (GPa) = 23.80719 81.08644 78.50607
#
# Poissons Ratio (x) = 0.01929 0.16671
# Poissons Ratio (y) = 0.00566 -0.08944
# Poissons Ratio (z) = 0.05056 -0.09238
#
# Static dielectric constant tensor:
#      x y z
#    x 1.809490 0.000000 0.000000 
#    y 0.000000 1.916040 0.000000 
#    z 0.000000 0.000000 1.848610 
# 
# From -- ./inp_files/14423.got.cif
#   From: 2010.05.17/outbox.cif.g08.bks.cpg/sg73_8_cif.got.tgz:14423.got - 2010.06.03 17:35:07.
