data_PCOD9531836
_publ_section_title
;
Structure prediction by ZEFSAII (Michael W. Deem and Ramdas Pophale) SiO2 
 PCOD9531836
Probable space group: I B C A 
;
_chemical_formula_sum "Si O2"
_cell_formula_units_Z 120
_cell_length_a 15.956422
_cell_length_b 11.831335
_cell_length_c 29.647965
_cell_angle_alpha 90.000000
_cell_angle_beta 90.000000
_cell_angle_gamma 90.000000
_cell_volume 5597.114023
_symmetry_space_group_name_H-M "I B C A "
_symmetry_group_IT_number 73
_symmetry_cell_setting 'orthorhombic'
loop_
_space_group_symop_operation_xyz
x,y,z
-x,1/2-y,z
x,-y,1/2-z
1/2-x,y,-z
-x,-y,-z
x,1/2+y,-z
-x,y,1/2+z
1/2+x,-y,z
1/2+x,1/2+y,1/2+z
1/2-x,-y,1/2+z
1/2+x,1/2-y,-z
-x,1/2+y,1/2-z
1/2-x,1/2-y,1/2-z
1/2+x,y,1/2-z
1/2-x,1/2+y,z
x,1/2-y,1/2+z
loop_
_atom_site_type_symbol
_atom_site_label
_atom_site_fract_x
_atom_site_fract_y
_atom_site_fract_z
Si Si1 0.123299 0.446840 0.796432
Si Si2 0.510635 0.126340 0.349085
Si Si3 0.892590 0.093588 0.561370
Si Si4 0.253702 0.273796 0.048471
Si Si5 0.771200 0.453474 0.380989
Si Si6 0.500000 0.250000 0.183795
Si Si7 0.897093 0.565850 0.627477
Si Si8 0.068342 0.848582 0.535361
O O1 0.154734 0.500000 0.750000
O O2 0.074384 0.548823 0.821234
O O3 0.194518 0.416129 0.832615
O O4 0.058803 0.341714 0.790932
O O5 0.500000 0.250000 0.329213
O O6 0.546750 0.140120 0.399838
O O7 0.427355 0.050848 0.350160
O O8 0.816776 0.178760 0.550224
O O9 0.848255 0.988719 0.586196
O O10 0.930301 0.083720 0.511543
O O11 0.233284 0.352221 0.090464
O O12 0.344338 0.214833 0.047955
O O13 0.250000 0.336790 0.000000
O O14 0.703116 0.553499 0.375827
O O15 0.436600 0.172671 0.153734
O O16 0.940985 0.570824 0.578411
O O17 0.000000 0.750000 0.532749
#
# Coordination Sequence:
#
# PCOD9531836 Si02
#       8
#    16  16  16  16  16   8  16  16
#     4  10  24  44  72  99 129 169 211 273 331 396
#     4  10  22  41  62  92 127 163 213 267 333 386
#     4  10  22  38  56  87 126 170 215 269 320 383
#     4  10  22  37  59  88 127 174 215 267 323 389
#     4  11  23  39  63  92 132 167 219 265 333 394
#     4  10  22  46  72 102 128 168 224 266 332 398
#     4  11  22  38  67  93 128 177 212 273 326 390
#     4  11  22  36  58  88 128 171 227 267 315 388
#
# _framework density 21.439620999999999
#
# number of rings (size 3 to 8) (size 9 to 14) (size 15 to 20)
#    0.000    1.600    2.000    2.000    6.533    1.600 
#    0.000    3.333    0.000    0.000    0.000    0.000 
#    0.000    0.000    0.000    0.000    0.000    0.000 
#
# Total GULP energy -334852.870745 kJ/mol
# GULP energy per Si atom -5580.881179 kJ/mol
# Density = 2.139082 g / cm^3
# Si number density = 21.439621 Si / 1000 Ang^3
#
#
#
# Elastic Constant Matrix: (Units=GPa)
#
#
# Indices 1 2 3 4 5 6 
#
# 1 60.9254 17.1134 3.2340 0.0000 0.0000 0.0000
# 2 17.1134 79.7944 16.9472 0.0000 0.0000 0.0000
# 3 3.2340 16.9472 95.7663 0.0000 0.0000 0.0000
# 4 0.0000 0.0000 0.0000 17.5374 0.0000 0.0000
# 5 0.0000 0.0000 0.0000 0.0000 17.6668 0.0000
# 6 0.0000 0.0000 0.0000 0.0000 0.0000 24.7704
#
#
#
# Elastic Compliance Matrix: (Units=1/GPa)
#
#
# Indices 1 2 3 4 5 6 
#
# 1 0.017466 -0.003762 0.000076 0.000000 0.000000 0.000000
# 2 -0.003762 0.013832 -0.002321 0.000000 0.000000 0.000000
# 3 0.000076 -0.002321 0.010850 0.000000 0.000000 0.000000
# 4 0.000000 0.000000 0.000000 0.057021 0.000000 0.000000
# 5 0.000000 0.000000 0.000000 0.000000 0.056603 0.000000
# 6 0.000000 0.000000 0.000000 0.000000 0.000000 0.040371
#
#
# Mechanical properties :
#
#
# Convention : Reuss Voigt Hill
#
# Bulk Modulus (GPa) = 33.18442 34.56392 33.87417
# Shear Modulus (GPa) = 22.91455 25.27437 24.09446
#
# Velocity S-wave (km/s) = 3.27279 3.43718 3.35599
# Velocity P-wave (km/s) = 5.45832 5.64879 5.55437
#
# Compressibility (1/GPa) = 0.03013462
#
# Stress axis : x y z
#
# Youngs Moduli (GPa) = 57.25340 72.29646 92.16421
#
# Poissons Ratio (x) = 0.27198 -0.00700
# Poissons Ratio (y) = 0.21539 0.21389
# Poissons Ratio (z) = -0.00435 0.16778
#
# Static dielectric constant tensor:
#      x y z
#    x 1.832150 0.000000 0.000000 
#    y 0.000000 1.800140 0.000000 
#    z 0.000000 0.000000 1.797960 
# 
# From -- ./inp_files/32448.got.cif
#   From: 2010.05.17/outbox.cif.g08.bks.cpg/sg73_17_cif.got.tgz:32448.got - 2010.06.03 17:35:07.
