data_PCOD9531187
_publ_section_title
;
Structure prediction by ZEFSAII (Michael W. Deem and Ramdas Pophale) SiO2 
 PCOD9531187
Probable space group: I B C A 
;
_chemical_formula_sum "Si O2"
_cell_formula_units_Z 80
_cell_length_a 17.381839
_cell_length_b 13.461398
_cell_length_c 15.545135
_cell_angle_alpha 90.000000
_cell_angle_beta 90.000000
_cell_angle_gamma 90.000000
_cell_volume 3637.310579
_symmetry_space_group_name_H-M "I B C A "
_symmetry_group_IT_number 73
_symmetry_cell_setting 'orthorhombic'
loop_
_space_group_symop_operation_xyz
x,y,z
-x,1/2-y,z
x,-y,1/2-z
1/2-x,y,-z
-x,-y,-z
x,1/2+y,-z
-x,y,1/2+z
1/2+x,-y,z
1/2+x,1/2+y,1/2+z
1/2-x,-y,1/2+z
1/2+x,1/2-y,-z
-x,1/2+y,1/2-z
1/2-x,1/2-y,1/2-z
1/2+x,y,1/2-z
1/2-x,1/2+y,z
x,1/2-y,1/2+z
loop_
_atom_site_type_symbol
_atom_site_label
_atom_site_fract_x
_atom_site_fract_y
_atom_site_fract_z
Si Si1 0.919909 0.209690 0.298746
Si Si2 0.330183 0.381812 0.864104
Si Si3 0.169085 0.899053 0.215461
Si Si4 0.370108 0.082248 0.054560
Si Si5 0.300606 0.833943 0.595363
O O1 0.875434 0.148595 0.223660
O O2 0.877677 0.311230 0.328568
O O3 0.927192 0.140923 0.382873
O O4 0.000000 0.250000 0.262508
O O5 0.246081 0.423133 0.837053
O O6 0.370291 0.531877 0.581847
O O7 0.316479 0.282308 0.919008
O O8 0.194564 0.846133 0.303088
O O9 0.130206 0.000000 0.250000
O O10 0.285725 0.130365 0.075137
O O11 0.366977 0.102877 0.952906
#
# Coordination Sequence:
#
# PCOD9531187 Si02
#       5
#    16  16  16  16  16
#     4  11  23  39  60  87 127 169 205 251 312 383
#     4  11  20  40  64  89 125 158 211 268 310 366
#     4  11  19  37  61  89 117 155 213 265 306 372
#     4  11  21  36  62  94 125 158 206 258 325 366
#     4  10  21  34  59  96 120 151 199 268 317 360
#
# _framework density 21.994271999999999
#
# number of rings (size 3 to 8) (size 9 to 14) (size 15 to 20)
#    0.000    1.200    6.000    1.800    0.000    6.400 
#    0.000    4.000    0.000    7.200    0.000    0.000 
#    0.000    0.000    0.000    0.000    0.000    0.000 
#
# Total GULP energy -223058.918672 kJ/mol
# GULP energy per Si atom -5576.472967 kJ/mol
# Density = 2.194421 g / cm^3
# Si number density = 21.994272 Si / 1000 Ang^3
#
#
#
# Elastic Constant Matrix: (Units=GPa)
#
#
# Indices 1 2 3 4 5 6 
#
# 1 24.4690 7.2965 -2.3036 0.0000 0.0000 0.0000
# 2 7.2965 126.2794 -4.4399 0.0000 0.0000 0.0000
# 3 -2.3036 -4.4399 36.3802 0.0000 0.0000 0.0000
# 4 0.0000 0.0000 0.0000 30.1582 0.0000 0.0000
# 5 0.0000 0.0000 0.0000 0.0000 8.0924 0.0000
# 6 0.0000 0.0000 0.0000 0.0000 0.0000 8.7745
#
#
#
# Elastic Compliance Matrix: (Units=1/GPa)
#
#
# Indices 1 2 3 4 5 6 
#
# 1 0.041786 -0.002331 0.002361 0.000000 0.000000 0.000000
# 2 -0.002331 0.008083 0.000839 0.000000 0.000000 0.000000
# 3 0.002361 0.000839 0.027739 0.000000 0.000000 0.000000
# 4 0.000000 0.000000 0.000000 0.033158 0.000000 0.000000
# 5 0.000000 0.000000 0.000000 0.000000 0.123573 0.000000
# 6 0.000000 0.000000 0.000000 0.000000 0.000000 0.113967
#
#
# Mechanical properties :
#
#
# Convention : Reuss Voigt Hill
#
# Bulk Modulus (GPa) = 12.60305 20.91494 16.75899
# Shear Modulus (GPa) = 13.40419 21.84338 17.62378
#
# Velocity S-wave (km/s) = 2.47136 3.15483 2.83378
# Velocity P-wave (km/s) = 3.72641 4.77499 4.28291
#
# Compressibility (1/GPa) = 0.07934587
#
# Stress axis : x y z
#
# Youngs Moduli (GPa) = 23.93172 123.71417 36.04982
#
# Poissons Ratio (x) = 0.28842 -0.08513
# Poissons Ratio (y) = 0.05579 -0.03024
# Poissons Ratio (z) = -0.05651 -0.10378
#
# Static dielectric constant tensor:
#      x y z
#    x 1.852810 0.000000 0.000000 
#    y 0.000000 1.835120 0.000000 
#    z 0.000000 0.000000 1.968000 
# 
# From -- ./inp_files/17863.got.cif
#   From: 2010.05.17/outbox.cif.g08.bks.cpg/sg73_9_cif.got.tgz:17863.got - 2010.06.03 17:35:07.
