data_PCOD9531621
_publ_section_title
;
Structure prediction by ZEFSAII (Michael W. Deem and Ramdas Pophale) SiO2 
 PCOD9531621
Probable space group: I B C A 
;
_chemical_formula_sum "Si O2"
_cell_formula_units_Z 88
_cell_length_a 14.229785
_cell_length_b 14.460942
_cell_length_c 18.625937
_cell_angle_alpha 90.000000
_cell_angle_beta 90.000000
_cell_angle_gamma 90.000000
_cell_volume 3832.772592
_symmetry_space_group_name_H-M "I B C A "
_symmetry_group_IT_number 73
_symmetry_cell_setting 'orthorhombic'
loop_
_space_group_symop_operation_xyz
x,y,z
-x,1/2-y,z
x,-y,1/2-z
1/2-x,y,-z
-x,-y,-z
x,1/2+y,-z
-x,y,1/2+z
1/2+x,-y,z
1/2+x,1/2+y,1/2+z
1/2-x,-y,1/2+z
1/2+x,1/2-y,-z
-x,1/2+y,1/2-z
1/2-x,1/2-y,1/2-z
1/2+x,y,1/2-z
1/2-x,1/2+y,z
x,1/2-y,1/2+z
loop_
_atom_site_type_symbol
_atom_site_label
_atom_site_fract_x
_atom_site_fract_y
_atom_site_fract_z
Si Si1 0.250000 0.046367 0.000000
Si Si2 0.112298 0.451423 0.811239
Si Si3 0.178076 0.637843 0.857830
Si Si4 0.580611 0.568185 0.980777
Si Si5 0.500000 0.750000 0.190634
Si Si6 0.134690 0.233942 0.812333
Si Si7 0.500000 0.250000 0.056857
O O1 0.205897 0.110901 0.060998
O O2 0.169667 0.972938 0.977896
O O3 0.046973 0.500000 0.750000
O O4 0.183276 0.538825 0.817043
O O5 0.086537 0.442853 0.894706
O O6 0.135214 0.344521 0.797280
O O7 0.074352 0.684712 0.851819
O O8 0.260207 0.700797 0.825297
O O9 0.551130 0.673548 0.990906
O O10 0.500000 0.500000 0.000000
O O11 0.571119 0.696781 0.246362
O O12 0.078147 0.212748 0.886404
#
# Coordination Sequence:
#
# PCOD9531621 Si02
#       7
#     8  16  16  16   8  16   8
#     4  10  24  46  70 100 154 190 242 308 372 450
#     4  10  21  41  67  97 139 176 231 299 354 432
#     4  11  23  45  69 102 145 191 245 300 370 450
#     4  10  21  43  72  98 138 188 237 294 365 444
#     4  11  22  38  67 100 135 180 243 298 352 441
#     4  10  21  42  71  99 140 183 232 303 367 431
#     4   9  20  40  71  98 131 180 239 294 358 437
#
# _framework density 22.959880999999999
#
# number of rings (size 3 to 8) (size 9 to 14) (size 15 to 20)
#    0.000    1.818    1.818    1.636    0.000    0.000 
#    0.000   52.727    0.000    0.000    0.000    0.000 
#    0.000    0.000    0.000    0.000    0.000    0.000 
#
# Total GULP energy -244958.434994 kJ/mol
# GULP energy per Si atom -5567.237159 kJ/mol
# Density = 2.290762 g / cm^3
# Si number density = 22.959881 Si / 1000 Ang^3
#
#
#
# Elastic Constant Matrix: (Units=GPa)
#
#
# Indices 1 2 3 4 5 6 
#
# 1 154.5812 68.9198 24.0384 0.0000 0.0000 0.0000
# 2 68.9198 142.5699 45.0635 0.0000 0.0000 0.0000
# 3 24.0384 45.0635 63.0145 0.0000 0.0000 0.0000
# 4 0.0000 0.0000 0.0000 33.5872 0.0000 0.0000
# 5 0.0000 0.0000 0.0000 0.0000 25.9123 0.0000
# 6 0.0000 0.0000 0.0000 0.0000 0.0000 39.2518
#
#
#
# Elastic Compliance Matrix: (Units=1/GPa)
#
#
# Indices 1 2 3 4 5 6 
#
# 1 0.008254 -0.003869 -0.000381 0.000000 0.000000 0.000000
# 2 -0.003869 0.010877 -0.006302 0.000000 0.000000 0.000000
# 3 -0.000381 -0.006302 0.020522 0.000000 0.000000 0.000000
# 4 0.000000 0.000000 0.000000 0.029773 0.000000 0.000000
# 5 0.000000 0.000000 0.000000 0.000000 0.038592 0.000000
# 6 0.000000 0.000000 0.000000 0.000000 0.000000 0.025477
#
#
# Mechanical properties :
#
#
# Convention : Reuss Voigt Hill
#
# Bulk Modulus (GPa) = 53.91978 70.68990 62.30484
# Shear Modulus (GPa) = 31.09821 34.55984 32.82902
#
# Velocity S-wave (km/s) = 3.68429 3.88393 3.78543
# Velocity P-wave (km/s) = 6.45244 7.13923 6.80450
#
# Compressibility (1/GPa) = 0.01854607
#
# Stress axis : x y z
#
# Youngs Moduli (GPa) = 121.16039 91.94126 48.72890
#
# Poissons Ratio (x) = 0.35574 0.01859
# Poissons Ratio (y) = 0.46880 0.30709
# Poissons Ratio (z) = 0.04622 0.57942
#
# Static dielectric constant tensor:
#      x y z
#    x 1.904320 0.000000 0.000000 
#    y 0.000000 1.879910 0.000000 
#    z 0.000000 0.000000 2.017290 
# 
# From -- ./inp_files/25960.got.cif
#   From: 2010.05.17/outbox.cif.g08.bks.cpg/sg73_13_cif.got.tgz:25960.got - 2010.06.03 17:35:07.
