data_PCOD9531751
_publ_section_title
;
Structure prediction by ZEFSAII (Michael W. Deem and Ramdas Pophale) SiO2 
 PCOD9531751
Probable space group: I B C A 
;
_chemical_formula_sum "Si O2"
_cell_formula_units_Z 120
_cell_length_a 14.115453
_cell_length_b 23.522933
_cell_length_c 17.904320
_cell_angle_alpha 90.000000
_cell_angle_beta 90.000000
_cell_angle_gamma 90.000000
_cell_volume 5944.894107
_symmetry_space_group_name_H-M "I B C A "
_symmetry_group_IT_number 73
_symmetry_cell_setting 'orthorhombic'
loop_
_space_group_symop_operation_xyz
x,y,z
-x,1/2-y,z
x,-y,1/2-z
1/2-x,y,-z
-x,-y,-z
x,1/2+y,-z
-x,y,1/2+z
1/2+x,-y,z
1/2+x,1/2+y,1/2+z
1/2-x,-y,1/2+z
1/2+x,1/2-y,-z
-x,1/2+y,1/2-z
1/2-x,1/2-y,1/2-z
1/2+x,y,1/2-z
1/2-x,1/2+y,z
x,1/2-y,1/2+z
loop_
_atom_site_type_symbol
_atom_site_label
_atom_site_fract_x
_atom_site_fract_y
_atom_site_fract_z
Si Si1 0.782815 0.293388 0.814652
Si Si2 0.094708 0.652947 0.870518
Si Si3 0.541320 0.526044 0.826947
Si Si4 0.500000 0.250000 0.467451
Si Si5 0.494431 0.553249 0.557393
Si Si6 0.983272 0.850295 0.215710
Si Si7 0.665112 0.920565 0.452897
Si Si8 0.628314 0.198786 0.094156
O O1 0.750000 0.250000 0.750000
O O2 0.699390 0.336025 0.838424
O O3 0.878478 0.325108 0.789698
O O4 0.809440 0.252441 0.883314
O O5 0.061377 0.707260 0.917637
O O6 0.079030 0.596354 0.920862
O O7 0.025304 0.649840 0.798876
O O8 0.577971 0.500000 0.750000
O O9 0.474211 0.479133 0.865310
O O10 0.488282 0.585104 0.813502
O O11 0.624217 0.540863 0.886177
O O12 0.431654 0.214795 0.521880
O O13 0.500000 0.500000 0.500000
O O14 0.415497 0.589406 0.515490
O O15 0.054330 0.815114 0.161422
O O16 0.750000 0.946765 0.500000
O O17 0.687483 0.858796 0.418931
#
# Coordination Sequence:
#
# PCOD9531751 Si02
#       8
#    16  16  16   8  16  16  16  16
#     4  12  25  41  69 106 140 184 235 286 352 432
#     4  12  25  42  70 103 138 191 231 292 356 434
#     4  10  21  44  73  93 128 182 235 293 353 413
#     4  12  24  40  68  94 136 186 222 276 356 424
#     4  10  22  45  68  93 136 179 232 292 362 409
#     4  11  23  46  67  97 141 182 232 293 348 413
#     4  10  23  42  68 100 133 180 228 288 352 430
#     4  11  23  43  66  93 142 182 224 279 350 416
#
# _framework density 20.185389000000001
#
# number of rings (size 3 to 8) (size 9 to 14) (size 15 to 20)
#    0.000    1.067    5.333    0.800    1.867    1.067 
#    4.800    0.667    0.000    0.000    0.000    0.000 
#    0.000    0.000    0.000    0.000    0.000    0.000 
#
# Total GULP energy -334750.782843 kJ/mol
# GULP energy per Si atom -5579.179714 kJ/mol
# Density = 2.013945 g / cm^3
# Si number density = 20.185389 Si / 1000 Ang^3
#
#
#
# Elastic Constant Matrix: (Units=GPa)
#
#
# Indices 1 2 3 4 5 6 
#
# 1 88.2955 38.3710 42.5333 0.0000 0.0000 0.0000
# 2 38.3710 109.4146 33.1282 0.0000 0.0000 0.0000
# 3 42.5333 33.1282 112.1046 -0.0002 0.0000 0.0000
# 4 0.0000 0.0000 -0.0002 38.9453 0.0000 0.0000
# 5 0.0000 0.0000 0.0000 0.0000 30.6984 0.0000
# 6 0.0000 0.0000 0.0000 0.0000 0.0000 15.6366
#
#
#
# Elastic Compliance Matrix: (Units=1/GPa)
#
#
# Indices 1 2 3 4 5 6 
#
# 1 0.015273 -0.003956 -0.004626 0.000000 0.000000 0.000000
# 2 -0.003956 0.011062 -0.001768 0.000000 0.000000 0.000000
# 3 -0.004626 -0.001768 0.011198 0.000000 0.000000 0.000000
# 4 0.000000 0.000000 0.000000 0.025677 0.000000 0.000000
# 5 0.000000 0.000000 0.000000 0.000000 0.032575 0.000000
# 6 0.000000 0.000000 0.000000 0.000000 0.000000 0.063953
#
#
# Mechanical properties :
#
#
# Convention : Reuss Voigt Hill
#
# Bulk Modulus (GPa) = 59.40428 59.76442 59.58435
# Shear Modulus (GPa) = 26.87485 30.10820 28.49153
#
# Velocity S-wave (km/s) = 3.65280 3.86629 3.76106
# Velocity P-wave (km/s) = 6.87632 7.04294 6.96013
#
# Compressibility (1/GPa) = 0.01683380
#
# Stress axis : x y z
#
# Youngs Moduli (GPa) = 65.47564 90.39871 89.30323
#
# Poissons Ratio (x) = 0.35757 0.41309
# Poissons Ratio (y) = 0.25899 0.15791
# Poissons Ratio (z) = 0.30287 0.15985
#
# Static dielectric constant tensor:
#      x y z
#    x 1.726270 0.000000 0.000000 
#    y 0.000000 1.760970 0.000000 
#    z 0.000000 0.000000 1.741210 
# 
# From -- ./inp_files/22156.got.cif
#   From: 2010.05.17/outbox.cif.g08.bks.cpg/sg73_12_cif.got.tgz:22156.got - 2010.06.03 17:35:07.
