data_PCOD9531552
_publ_section_title
;
Structure prediction by ZEFSAII (Michael W. Deem and Ramdas Pophale) SiO2 
 PCOD9531552
Probable space group: I B C A 
;
_chemical_formula_sum "Si O2"
_cell_formula_units_Z 80
_cell_length_a 21.267654
_cell_length_b 10.754407
_cell_length_c 15.647499
_cell_angle_alpha 90.000000
_cell_angle_beta 90.000000
_cell_angle_gamma 90.000000
_cell_volume 3578.911729
_symmetry_space_group_name_H-M "I B C A "
_symmetry_group_IT_number 73
_symmetry_cell_setting 'orthorhombic'
loop_
_space_group_symop_operation_xyz
x,y,z
-x,1/2-y,z
x,-y,1/2-z
1/2-x,y,-z
-x,-y,-z
x,1/2+y,-z
-x,y,1/2+z
1/2+x,-y,z
1/2+x,1/2+y,1/2+z
1/2-x,-y,1/2+z
1/2+x,1/2-y,-z
-x,1/2+y,1/2-z
1/2-x,1/2-y,1/2-z
1/2+x,y,1/2-z
1/2-x,1/2+y,z
x,1/2-y,1/2+z
loop_
_atom_site_type_symbol
_atom_site_label
_atom_site_fract_x
_atom_site_fract_y
_atom_site_fract_z
Si Si1 0.124730 0.868418 0.369031
Si Si2 0.885902 0.223608 0.298673
Si Si3 0.454067 0.090163 0.592557
Si Si4 0.500000 0.750000 0.552277
Si Si5 0.036489 0.000000 0.750000
Si Si6 0.255452 0.626677 0.808354
O O1 0.123554 0.840392 0.266117
O O2 0.200505 0.860142 0.378785
O O3 0.067049 0.782510 0.403029
O O4 0.106220 0.001167 0.407859
O O5 0.930159 0.277634 0.371039
O O6 0.826845 0.150506 0.338703
O O7 0.921052 0.120700 0.242850
O O8 0.485771 0.128382 0.504743
O O9 0.496080 0.024368 0.665457
O O10 0.251303 0.500000 0.750000
O O11 0.250000 0.750000 0.750000
#
# Coordination Sequence:
#
# PCOD9531552 Si02
#       6
#    16  16  16   8   8  16
#     4  11  23  41  63  94 133 177 217 284 338 399
#     4  11  21  39  68  98 129 172 236 276 330 395
#     4  12  23  41  67  98 133 180 225 281 337 415
#     4  12  26  40  62 100 142 176 220 270 364 412
#     4  12  20  36  66  96 136 162 226 286 324 392
#     4  10  21  40  67  99 130 174 233 285 332 397
#
# _framework density 22.353162999999999
#
# number of rings (size 3 to 8) (size 9 to 14) (size 15 to 20)
#    0.000    0.800    5.000    4.200    0.000    0.000 
#    0.000    1.000    0.000    2.400    0.000    0.000 
#    0.000    0.000    0.000    0.000    0.000    0.000 
#
# Total GULP energy -222678.701687 kJ/mol
# GULP energy per Si atom -5566.967542 kJ/mol
# Density = 2.230229 g / cm^3
# Si number density = 22.353163 Si / 1000 Ang^3
#
#
#
# Elastic Constant Matrix: (Units=GPa)
#
#
# Indices 1 2 3 4 5 6 
#
# 1 188.3437 49.0442 53.4729 0.0000 0.0000 0.0000
# 2 49.0442 128.7075 17.2862 0.0000 0.0000 0.0000
# 3 53.4729 17.2862 61.8121 0.0000 0.0000 0.0000
# 4 0.0000 0.0000 0.0000 24.9757 0.0000 0.0000
# 5 0.0000 0.0000 0.0000 0.0000 30.0184 0.0000
# 6 0.0000 0.0000 0.0000 0.0000 0.0000 39.3515
#
#
#
# Elastic Compliance Matrix: (Units=1/GPa)
#
#
# Indices 1 2 3 4 5 6 
#
# 1 0.007536 -0.002074 -0.005939 0.000000 0.000000 0.000000
# 2 -0.002074 0.008643 -0.000623 0.000000 0.000000 0.000000
# 3 -0.005939 -0.000623 0.021490 0.000000 0.000000 0.000000
# 4 0.000000 0.000000 0.000000 0.040039 0.000000 0.000000
# 5 0.000000 0.000000 0.000000 0.000000 0.033313 0.000000
# 6 0.000000 0.000000 0.000000 0.000000 0.000000 0.025412
#
#
# Mechanical properties :
#
#
# Convention : Reuss Voigt Hill
#
# Bulk Modulus (GPa) = 49.02636 68.71890 58.87263
# Shear Modulus (GPa) = 31.15185 36.13978 33.64581
#
# Velocity S-wave (km/s) = 3.73717 4.02526 3.88389
# Velocity P-wave (km/s) = 6.37199 7.23966 6.81964
#
# Compressibility (1/GPa) = 0.02039719
#
# Stress axis : x y z
#
# Youngs Moduli (GPa) = 132.70316 115.69409 46.53299
#
# Poissons Ratio (x) = 0.23993 0.27636
# Poissons Ratio (y) = 0.27520 0.02900
# Poissons Ratio (z) = 0.78813 0.07210
#
# Static dielectric constant tensor:
#      x y z
#    x 2.031970 0.000000 0.000000 
#    y 0.000000 1.887600 0.000000 
#    z 0.000000 0.000000 1.880530 
# 
# From -- ./inp_files/19208.got.cif
#   From: 2010.05.17/outbox.cif.g08.bks.cpg/sg73_10_cif.got.tgz:19208.got - 2010.06.03 17:35:07.
