data_PCOD9531478
_publ_section_title
;
Structure prediction by ZEFSAII (Michael W. Deem and Ramdas Pophale) SiO2 
 PCOD9531478
Probable space group: I B C A 
;
_chemical_formula_sum "Si O2"
_cell_formula_units_Z 64
_cell_length_a 19.654002
_cell_length_b 17.703037
_cell_length_c 7.831309
_cell_angle_alpha 90.000000
_cell_angle_beta 90.000000
_cell_angle_gamma 90.000000
_cell_volume 2724.790605
_symmetry_space_group_name_H-M "I B C A "
_symmetry_group_IT_number 73
_symmetry_cell_setting 'orthorhombic'
loop_
_space_group_symop_operation_xyz
x,y,z
-x,1/2-y,z
x,-y,1/2-z
1/2-x,y,-z
-x,-y,-z
x,1/2+y,-z
-x,y,1/2+z
1/2+x,-y,z
1/2+x,1/2+y,1/2+z
1/2-x,-y,1/2+z
1/2+x,1/2-y,-z
-x,1/2+y,1/2-z
1/2-x,1/2-y,1/2-z
1/2+x,y,1/2-z
1/2-x,1/2+y,z
x,1/2-y,1/2+z
loop_
_atom_site_type_symbol
_atom_site_label
_atom_site_fract_x
_atom_site_fract_y
_atom_site_fract_z
Si Si1 0.523897 0.331063 0.347511
Si Si2 0.077418 0.575141 0.648317
Si Si3 0.200489 0.850363 0.242769
Si Si4 0.839333 0.185401 0.368490
O O1 0.500000 0.250000 0.425218
O O2 0.547408 0.400913 0.466602
O O3 0.455956 0.357659 0.256267
O O4 0.586630 0.322313 0.215012
O O5 0.058475 0.500000 0.750000
O O6 0.158454 0.584020 0.652854
O O7 0.172084 0.840904 0.437190
O O8 0.281371 0.857068 0.257992
O O9 0.182148 0.773275 0.143229
#
# Coordination Sequence:
#
# PCOD9531478 Si02
#       4
#    16  16  16  16
#     4  12  24  41  68  99 130 181 233 280 328 403
#     4  12  26  43  63  96 140 176 219 278 347 404
#     4  10  21  40  64  98 130 167 215 276 336 391
#     4  10  21  39  68  97 127 165 225 278 321 395
#
# _framework density 23.488042
#
# number of rings (size 3 to 8) (size 9 to 14) (size 15 to 20)
#    0.000    1.000    2.500    4.500    0.000    3.000 
#    0.000    6.250    0.000    0.000    0.000    0.000 
#    0.000    0.000    0.000    0.000    0.000    0.000 
#
# Total GULP energy -178688.702956 kJ/mol
# GULP energy per Si atom -5584.021967 kJ/mol
# Density = 2.343458 g / cm^3
# Si number density = 23.488042 Si / 1000 Ang^3
#
#
#
# Elastic Constant Matrix: (Units=GPa)
#
#
# Indices 1 2 3 4 5 6 
#
# 1 140.0611 13.5509 16.6539 0.0000 0.0000 0.0000
# 2 13.5509 39.9205 2.3834 0.0000 0.0000 0.0000
# 3 16.6539 2.3834 55.7019 0.0000 0.0000 0.0000
# 4 0.0000 0.0000 0.0000 25.1122 0.0000 0.0000
# 5 0.0000 0.0000 0.0000 0.0000 30.1093 0.0000
# 6 0.0000 0.0000 0.0000 0.0000 0.0000 23.1549
#
#
#
# Elastic Compliance Matrix: (Units=1/GPa)
#
#
# Indices 1 2 3 4 5 6 
#
# 1 0.007637 -0.002462 -0.002178 0.000000 0.000000 0.000000
# 2 -0.002462 0.025908 -0.000372 0.000000 0.000000 0.000000
# 3 -0.002178 -0.000372 0.018620 0.000000 0.000000 0.000000
# 4 0.000000 0.000000 0.000000 0.039821 0.000000 0.000000
# 5 0.000000 0.000000 0.000000 0.000000 0.033212 0.000000
# 6 0.000000 0.000000 0.000000 0.000000 0.000000 0.043187
#
#
# Mechanical properties :
#
#
# Convention : Reuss Voigt Hill
#
# Bulk Modulus (GPa) = 23.73080 33.42888 28.57984
# Shear Modulus (GPa) = 25.97979 29.21497 27.59738
#
# Velocity S-wave (km/s) = 3.32939 3.53061 3.43148
# Velocity P-wave (km/s) = 4.99050 5.55729 5.28151
#
# Compressibility (1/GPa) = 0.04213934
#
# Stress axis : x y z
#
# Youngs Moduli (GPa) = 130.94259 38.59834 53.70622
#
# Poissons Ratio (x) = 0.09504 0.11697
# Poissons Ratio (y) = 0.32242 0.02000
# Poissons Ratio (z) = 0.28519 0.01437
#
# Static dielectric constant tensor:
#      x y z
#    x 1.890600 0.000000 0.000000 
#    y 0.000000 1.863810 0.000000 
#    z 0.000000 0.000000 1.945690 
# 
# From -- ./inp_files/5186.got.cif
#   From: 2010.05.17/outbox.cif.g08.bks.cpg/sg73_3_cif.got.tgz:5186.got - 2010.06.03 17:35:07.
