data_PCOD9531126
_publ_section_title
;
Structure prediction by ZEFSAII (Michael W. Deem and Ramdas Pophale) SiO2 
 PCOD9531126
Probable space group: I B C A 
;
_chemical_formula_sum "Si O2"
_cell_formula_units_Z 104
_cell_length_a 28.203411
_cell_length_b 21.348397
_cell_length_c 8.348612
_cell_angle_alpha 90.000000
_cell_angle_beta 90.000000
_cell_angle_gamma 90.000000
_cell_volume 5026.679372
_symmetry_space_group_name_H-M "I B C A "
_symmetry_group_IT_number 73
_symmetry_cell_setting 'orthorhombic'
loop_
_space_group_symop_operation_xyz
x,y,z
-x,1/2-y,z
x,-y,1/2-z
1/2-x,y,-z
-x,-y,-z
x,1/2+y,-z
-x,y,1/2+z
1/2+x,-y,z
1/2+x,1/2+y,1/2+z
1/2-x,-y,1/2+z
1/2+x,1/2-y,-z
-x,1/2+y,1/2-z
1/2-x,1/2-y,1/2-z
1/2+x,y,1/2-z
1/2-x,1/2+y,z
x,1/2-y,1/2+z
loop_
_atom_site_type_symbol
_atom_site_label
_atom_site_fract_x
_atom_site_fract_y
_atom_site_fract_z
Si Si1 0.193456 0.598314 0.486671
Si Si2 0.142936 0.791580 0.828491
Si Si3 0.609723 0.425906 0.731435
Si Si4 0.209956 0.000000 0.750000
Si Si5 0.945041 0.177519 0.942891
Si Si6 0.000000 0.750000 0.315616
Si Si7 0.250000 0.907599 0.500000
Si Si8 0.650835 0.661474 0.527834
O O1 0.250000 0.590892 0.500000
O O2 0.183925 0.664785 0.403342
O O3 0.159716 0.588693 0.639327
O O4 0.178742 0.542439 0.366519
O O5 0.099579 0.804552 0.948031
O O6 0.135837 0.813007 0.646177
O O7 0.153138 0.718455 0.846313
O O8 0.603180 0.500000 0.750000
O O9 0.568564 0.389406 0.632886
O O10 0.616241 0.391176 0.901381
O O11 0.242466 0.953168 0.649680
O O12 0.987065 0.191501 0.069500
O O13 0.957817 0.225206 0.798463
O O14 0.296919 0.866906 0.512142
#
# Coordination Sequence:
#
# PCOD9531126 Si02
#       8
#    16  16  16   8  16   8   8  16
#     4  11  23  38  63  86 127 178 230 277 319 386
#     4  11  24  42  63  96 133 165 219 279 343 389
#     4  11  25  43  63  93 138 181 223 277 333 392
#     4  12  22  40  56  84 120 168 236 280 308 380
#     4  10  22  42  71 105 130 167 211 270 339 416
#     4  10  20  42  80 104 128 164 214 268 346 432
#     4  12  26  38  60  86 122 184 240 280 322 378
#     4  12  25  40  62  91 129 180 223 283 330 382
#
# _framework density 20.689603000000002
#
# number of rings (size 3 to 8) (size 9 to 14) (size 15 to 20)
#    0.000    0.923    2.308    5.538    3.231    1.846 
#    0.000    0.769    0.000    0.000    0.000    0.000 
#    0.000    0.000    0.000    0.000    0.000    0.000 
#
# Total GULP energy -290431.385220 kJ/mol
# GULP energy per Si atom -5585.218947 kJ/mol
# Density = 2.064251 g / cm^3
# Si number density = 20.689603 Si / 1000 Ang^3
#
#
#
# Elastic Constant Matrix: (Units=GPa)
#
#
# Indices 1 2 3 4 5 6 
#
# 1 59.5794 38.6430 38.4244 0.0000 0.0000 0.0000
# 2 38.6430 167.5122 70.8131 0.0000 0.0000 0.0000
# 3 38.4244 70.8131 140.8409 0.0000 0.0000 0.0000
# 4 0.0000 0.0000 0.0000 44.5758 0.0000 0.0000
# 5 0.0000 0.0000 0.0000 0.0000 20.4947 0.0000
# 6 0.0000 0.0000 0.0000 0.0000 0.0000 23.5093
#
#
#
# Elastic Compliance Matrix: (Units=1/GPa)
#
#
# Indices 1 2 3 4 5 6 
#
# 1 0.021614 -0.003166 -0.004305 0.000000 0.000000 0.000000
# 2 -0.003166 0.008045 -0.003181 0.000000 0.000000 0.000000
# 3 -0.004305 -0.003181 0.009874 0.000000 0.000000 0.000000
# 4 0.000000 0.000000 0.000000 0.022434 0.000000 0.000000
# 5 0.000000 0.000000 0.000000 0.000000 0.048793 0.000000
# 6 0.000000 0.000000 0.000000 0.000000 0.000000 0.042536
#
#
# Mechanical properties :
#
#
# Convention : Reuss Voigt Hill
#
# Bulk Modulus (GPa) = 54.85825 73.74373 64.30099
# Shear Modulus (GPa) = 27.67368 32.38609 30.02989
#
# Velocity S-wave (km/s) = 3.66124 3.96072 3.81392
# Velocity P-wave (km/s) = 6.66674 7.52573 7.10922
#
# Compressibility (1/GPa) = 0.01822880
#
# Stress axis : x y z
#
# Youngs Moduli (GPa) = 46.26565 124.30269 101.27571
#
# Poissons Ratio (x) = 0.39359 0.43598
# Poissons Ratio (y) = 0.14649 0.32216
# Poissons Ratio (z) = 0.19917 0.39541
#
# Static dielectric constant tensor:
#      x y z
#    x 1.754860 0.000000 0.000000 
#    y 0.000000 1.735190 0.000000 
#    z 0.000000 0.000000 1.817210 
# 
# From -- ./inp_files/7922.got.cif
#   From: 2010.05.17/outbox.cif.g08.bks.cpg/sg73_4_cif.got.tgz:7922.got - 2010.06.03 17:35:07.
