data_PCOD9531992
_publ_section_title
;
Structure prediction by ZEFSAII (Michael W. Deem and Ramdas Pophale) SiO2 
 PCOD9531992
Probable space group: I B C A 
;
_chemical_formula_sum "Si O2"
_cell_formula_units_Z 96
_cell_length_a 15.490668
_cell_length_b 24.753057
_cell_length_c 9.239214
_cell_angle_alpha 90.000000
_cell_angle_beta 90.000000
_cell_angle_gamma 90.000000
_cell_volume 3542.697040
_symmetry_space_group_name_H-M "I B C A "
_symmetry_group_IT_number 73
_symmetry_cell_setting 'orthorhombic'
loop_
_space_group_symop_operation_xyz
x,y,z
-x,1/2-y,z
x,-y,1/2-z
1/2-x,y,-z
-x,-y,-z
x,1/2+y,-z
-x,y,1/2+z
1/2+x,-y,z
1/2+x,1/2+y,1/2+z
1/2-x,-y,1/2+z
1/2+x,1/2-y,-z
-x,1/2+y,1/2-z
1/2-x,1/2-y,1/2-z
1/2+x,y,1/2-z
1/2-x,1/2+y,z
x,1/2-y,1/2+z
loop_
_atom_site_type_symbol
_atom_site_label
_atom_site_fract_x
_atom_site_fract_y
_atom_site_fract_z
Si Si1 0.099612 0.265054 0.170819
Si Si2 0.574307 0.000000 0.750000
Si Si3 0.743791 0.321960 0.157359
Si Si4 0.689522 0.500000 0.750000
Si Si5 0.442051 0.917615 0.646042
Si Si6 0.062579 0.140494 0.454750
Si Si7 0.692843 0.583035 0.166807
O O1 0.174848 0.219414 0.154579
O O2 0.149013 0.298084 0.299200
O O3 0.056046 0.120793 0.289843
O O4 0.088218 0.300550 0.021655
O O5 0.510548 0.031972 0.855661
O O6 0.632622 0.052470 0.711771
O O7 0.748767 0.366749 0.279694
O O8 0.750000 0.347373 0.000000
O O9 0.641098 0.545810 0.659255
O O10 0.744436 0.534442 0.859480
O O11 0.470500 0.876897 0.522210
O O12 0.132687 0.104216 0.540044
O O13 0.000000 0.250000 0.209001
#
# Coordination Sequence:
#
# PCOD9531992 Si02
#       7
#    16   8  16   8  16  16  16
#     4  10  24  44  71 102 143 189 245 305 381 445
#     4   8  18  38  64  92 138 174 228 284 348 426
#     4  10  23  45  68 103 141 185 245 313 367 443
#     4  10  22  40  64 100 128 184 228 276 350 434
#     4  10  22  41  66  99 136 179 231 287 351 430
#     4  10  23  44  66  99 140 178 229 297 355 428
#     4   9  20  42  60  95 137 177 222 289 352 423
#
# _framework density 27.097996999999999
#
# number of rings (size 3 to 8) (size 9 to 14) (size 15 to 20)
#    0.000    2.333    0.000    0.000    2.333   12.667 
#   15.000    0.000    0.000    0.000    0.000    0.000 
#    0.000    0.000    0.000    0.000    0.000    0.000 
#
# Total GULP energy -267422.830721 kJ/mol
# GULP energy per Si atom -5571.308973 kJ/mol
# Density = 2.703632 g / cm^3
# Si number density = 27.097997 Si / 1000 Ang^3
#
#
#
# Elastic Constant Matrix: (Units=GPa)
#
#
# Indices 1 2 3 4 5 6 
#
# 1 150.5731 69.0317 38.2974 0.0000 0.0000 0.0001
# 2 69.0317 118.7223 35.6628 0.0005 0.0000 -0.0003
# 3 38.2974 35.6628 110.6044 0.0017 -0.0004 -0.0010
# 4 0.0000 0.0005 0.0017 12.6902 -0.0002 -0.0003
# 5 0.0000 0.0000 -0.0004 -0.0002 10.3829 0.0000
# 6 0.0001 -0.0003 -0.0010 -0.0003 0.0000 64.1841
#
#
#
# Elastic Compliance Matrix: (Units=1/GPa)
#
#
# Indices 1 2 3 4 5 6 
#
# 1 0.009316 -0.004925 -0.001638 0.000000 0.000000 0.000000
# 2 -0.004925 0.011930 -0.002141 0.000000 0.000000 0.000000
# 3 -0.001638 -0.002141 0.010299 -0.000001 0.000000 0.000000
# 4 0.000000 0.000000 -0.000001 0.078801 0.000001 0.000000
# 5 0.000000 0.000000 0.000000 0.000001 0.096313 0.000000
# 6 0.000000 0.000000 0.000000 0.000000 0.000000 0.015580
#
#
# Mechanical properties :
#
#
# Convention : Reuss Voigt Hill
#
# Bulk Modulus (GPa) = 70.73830 73.98707 72.36269
# Shear Modulus (GPa) = 20.46181 33.24528 26.85354
#
# Velocity S-wave (km/s) = 2.75090 3.50645 3.15140
# Velocity P-wave (km/s) = 6.02090 6.61486 6.32485
#
# Compressibility (1/GPa) = 0.01413661
#
# Stress axis : x y z
#
# Youngs Moduli (GPa) = 107.34699 83.82417 97.09919
#
# Poissons Ratio (x) = 0.41281 0.15902
# Poissons Ratio (y) = 0.52865 0.20793
# Poissons Ratio (z) = 0.17580 0.17950
#
# Static dielectric constant tensor:
#      x y z
#    x 2.314610 0.000000 0.000000 
#    y 0.000000 2.124630 0.000000 
#    z 0.000000 0.000000 2.151670 
# 
# From -- ./inp_files/22724.got.cif
#   From: 2010.05.17/outbox.cif.g08.bks.cpg/sg73_12_cif.got.tgz:22724.got - 2010.06.03 17:35:07.
