data_PCOD9531339
_publ_section_title
;
Structure prediction by ZEFSAII (Michael W. Deem and Ramdas Pophale) SiO2 
 PCOD9531339
Probable space group: I B C A 
;
_chemical_formula_sum "Si O2"
_cell_formula_units_Z 120
_cell_length_a 23.871879
_cell_length_b 24.557825
_cell_length_c 8.977689
_cell_angle_alpha 90.000000
_cell_angle_beta 90.000000
_cell_angle_gamma 90.000000
_cell_volume 5263.093210
_symmetry_space_group_name_H-M "I B C A "
_symmetry_group_IT_number 73
_symmetry_cell_setting 'orthorhombic'
loop_
_space_group_symop_operation_xyz
x,y,z
-x,1/2-y,z
x,-y,1/2-z
1/2-x,y,-z
-x,-y,-z
x,1/2+y,-z
-x,y,1/2+z
1/2+x,-y,z
1/2+x,1/2+y,1/2+z
1/2-x,-y,1/2+z
1/2+x,1/2-y,-z
-x,1/2+y,1/2-z
1/2-x,1/2-y,1/2-z
1/2+x,y,1/2-z
1/2-x,1/2+y,z
x,1/2-y,1/2+z
loop_
_atom_site_type_symbol
_atom_site_label
_atom_site_fract_x
_atom_site_fract_y
_atom_site_fract_z
Si Si1 0.840653 0.500000 0.750000
Si Si2 0.940640 0.417330 0.775785
Si Si3 0.210242 0.644741 0.628684
Si Si4 0.667685 0.024325 0.085061
Si Si5 0.589854 0.811775 0.405698
Si Si6 0.593098 0.299208 0.235238
Si Si7 0.454036 0.929809 0.935443
Si Si8 0.776284 0.800136 0.159713
O O1 0.881224 0.447457 0.766843
O O2 0.814322 0.497276 0.581445
O O3 0.933951 0.354822 0.825818
O O4 0.961972 0.417821 0.608060
O O5 0.986971 0.448363 0.870981
O O6 0.250000 0.667154 0.500000
O O7 0.190596 0.585340 0.585649
O O8 0.154324 0.679745 0.643832
O O9 0.249025 0.645393 0.772058
O O10 0.599466 0.030843 0.083487
O O11 0.682373 0.000000 0.250000
O O12 0.568417 0.757590 0.324515
O O13 0.590564 0.802557 0.584618
O O14 0.561259 0.869751 0.368550
O O15 0.657535 0.301203 0.180258
O O16 0.750000 0.750000 0.250000
O O17 0.750000 0.795109 0.000000
#
# Coordination Sequence:
#
# PCOD9531339 Si02
#       8
#     8  16  16  16  16  16  16  16
#     4  10  24  44  68  94 128 168 216 284 332 374
#     4  10  23  40  63  92 125 165 215 264 333 385
#     4  11  22  43  65  90 130 169 208 271 327 385
#     4  10  24  45  68  96 128 168 221 272 328 396
#     4  10  21  38  60  87 127 163 207 259 320 382
#     4  11  22  38  59  92 126 166 208 263 318 389
#     4   9  22  40  62  92 123 166 206 268 325 388
#     4  12  23  37  63  96 127 171 219 263 322 393
#
# _framework density 22.800280999999998
#
# number of rings (size 3 to 8) (size 9 to 14) (size 15 to 20)
#    0.000    1.600    2.667    2.000    2.800    3.733 
#    1.200    2.667    0.000    0.000    0.000    0.000 
#    0.000    0.000    0.000    0.000    0.000    0.000 
#
# Total GULP energy -335016.891231 kJ/mol
# GULP energy per Si atom -5583.614854 kJ/mol
# Density = 2.274839 g / cm^3
# Si number density = 22.800281 Si / 1000 Ang^3
#
#
#
# Elastic Constant Matrix: (Units=GPa)
#
#
# Indices 1 2 3 4 5 6 
#
# 1 61.9519 -8.1922 12.8733 0.0000 0.0000 0.0000
# 2 -8.1922 63.3831 12.8416 0.0000 0.0000 0.0000
# 3 12.8733 12.8416 114.9862 0.0000 0.0000 0.0000
# 4 0.0000 0.0000 0.0000 -20.2700 0.0000 0.0000
# 5 0.0000 0.0000 0.0000 0.0000 21.6543 0.0000
# 6 0.0000 0.0000 0.0000 0.0000 0.0000 7.3515
#
#
#
# Elastic Compliance Matrix: (Units=1/GPa)
#
#
# Indices 1 2 3 4 5 6 
#
# 1 0.016945 0.002634 -0.002191 0.000000 0.000000 0.000000
# 2 0.002634 0.016552 -0.002143 0.000000 0.000000 0.000000
# 3 -0.002191 -0.002143 0.009181 0.000000 0.000000 0.000000
# 4 0.000000 0.000000 0.000000 -0.049334 0.000000 0.000000
# 5 0.000000 0.000000 0.000000 0.000000 0.046180 0.000000
# 6 0.000000 0.000000 0.000000 0.000000 0.000000 0.136027
#
#
# Mechanical properties :
#
#
# Convention : Reuss Voigt Hill
#
# Bulk Modulus (GPa) = 25.46001 30.59629 28.02815
# Shear Modulus (GPa) = 26.03554 16.60038 21.31796
#
# Velocity S-wave (km/s) = 3.38286 2.70122 3.06107
# Velocity P-wave (km/s) = 5.14287 4.81427 4.98128
#
# Compressibility (1/GPa) = 0.03927728
#
# Stress axis : x y z
#
# Youngs Moduli (GPa) = 59.01372 60.41637 108.91586
#
# Poissons Ratio (x) = -0.15914 0.23867
# Poissons Ratio (y) = -0.15545 0.23345
# Poissons Ratio (z) = 0.12932 0.12950
#
# Static dielectric constant tensor:
#      x y z
#    x 1.854660 0.000000 0.000000 
#    y 0.000000 1.900610 0.000000 
#    z 0.000000 0.000000 1.828230 
# 
# From -- ./inp_files/8051.got.cif
#   From: 2010.05.17/outbox.cif.g08.bks.cpg/sg73_5_cif.got.tgz:8051.got - 2010.06.03 17:35:07.
