data_PCOD9531735
_publ_section_title
;
Structure prediction by ZEFSAII (Michael W. Deem and Ramdas Pophale) SiO2 
 PCOD9531735
Probable space group: I B C A 
;
_chemical_formula_sum "Si O2"
_cell_formula_units_Z 88
_cell_length_a 13.418964
_cell_length_b 18.057752
_cell_length_c 16.611237
_cell_angle_alpha 90.000000
_cell_angle_beta 90.000000
_cell_angle_gamma 90.000000
_cell_volume 4025.173887
_symmetry_space_group_name_H-M "I B C A "
_symmetry_group_IT_number 73
_symmetry_cell_setting 'orthorhombic'
loop_
_space_group_symop_operation_xyz
x,y,z
-x,1/2-y,z
x,-y,1/2-z
1/2-x,y,-z
-x,-y,-z
x,1/2+y,-z
-x,y,1/2+z
1/2+x,-y,z
1/2+x,1/2+y,1/2+z
1/2-x,-y,1/2+z
1/2+x,1/2-y,-z
-x,1/2+y,1/2-z
1/2-x,1/2-y,1/2-z
1/2+x,y,1/2-z
1/2-x,1/2+y,z
x,1/2-y,1/2+z
loop_
_atom_site_type_symbol
_atom_site_label
_atom_site_fract_x
_atom_site_fract_y
_atom_site_fract_z
Si Si1 0.674965 0.402046 0.659833
Si Si2 0.406639 0.195838 0.804248
Si Si3 0.492915 0.618526 0.547911
Si Si4 0.800517 0.713605 0.927629
Si Si5 0.163695 0.000000 0.750000
Si Si6 0.532094 0.957498 0.893609
O O1 0.626585 0.349088 0.727005
O O2 0.724684 0.352744 0.590978
O O3 0.763837 0.447746 0.699477
O O4 0.585036 0.452279 0.627753
O O5 0.500000 0.250000 0.786486
O O6 0.438989 0.141340 0.876930
O O7 0.319196 0.243696 0.844778
O O8 0.407673 0.680913 0.546617
O O9 0.446437 0.538384 0.569330
O O10 0.546685 0.604634 0.462498
O O11 0.750000 0.758471 0.000000
O O12 0.095211 0.046524 0.811794
#
# Coordination Sequence:
#
# PCOD9531735 Si02
#       6
#    16  16  16  16   8  16
#     4  12  24  42  65  97 129 169 213 267 325 383
#     4  10  24  43  64  91 131 170 217 268 316 381
#     4  10  21  44  64  93 128 170 214 264 327 380
#     4  11  22  43  64  91 128 170 216 263 314 389
#     4  12  24  38  66 100 134 160 216 268 326 388
#     4  11  23  40  69  94 131 170 208 272 327 382
#
# _framework density 21.862409
#
# number of rings (size 3 to 8) (size 9 to 14) (size 15 to 20)
#    0.000    1.091    3.636    3.273    2.545    1.455 
#    3.273    1.818    0.000    0.000    0.000    0.000 
#    0.000    0.000    0.000    0.000    0.000    0.000 
#
# Total GULP energy -245928.283015 kJ/mol
# GULP energy per Si atom -5589.279159 kJ/mol
# Density = 2.181265 g / cm^3
# Si number density = 21.862409 Si / 1000 Ang^3
#
#
#
# Elastic Constant Matrix: (Units=GPa)
#
#
# Indices 1 2 3 4 5 6 
#
# 1 73.7127 10.5838 33.7277 0.0000 0.0000 0.0000
# 2 10.5838 35.5687 14.1391 0.0000 0.0000 0.0000
# 3 33.7277 14.1391 101.2995 0.0000 0.0000 0.0000
# 4 0.0000 0.0000 0.0000 34.6806 0.0000 0.0000
# 5 0.0000 0.0000 0.0000 0.0000 25.7108 0.0000
# 6 0.0000 0.0000 0.0000 0.0000 0.0000 16.0291
#
#
#
# Elastic Compliance Matrix: (Units=1/GPa)
#
#
# Indices 1 2 3 4 5 6 
#
# 1 0.016272 -0.002846 -0.005020 0.000000 0.000000 0.000000
# 2 -0.002846 0.030264 -0.003277 0.000000 0.000000 0.000000
# 3 -0.005020 -0.003277 0.012001 0.000000 0.000000 0.000000
# 4 0.000000 0.000000 0.000000 0.028835 0.000000 0.000000
# 5 0.000000 0.000000 0.000000 0.000000 0.038894 0.000000
# 6 0.000000 0.000000 0.000000 0.000000 0.000000 0.062387
#
#
# Mechanical properties :
#
#
# Convention : Reuss Voigt Hill
#
# Bulk Modulus (GPa) = 27.58604 36.38690 31.98647
# Shear Modulus (GPa) = 22.41933 25.42611 23.92272
#
# Velocity S-wave (km/s) = 3.20578 3.41399 3.31152
# Velocity P-wave (km/s) = 5.13304 5.67628 5.41148
#
# Compressibility (1/GPa) = 0.03625021
#
# Stress axis : x y z
#
# Youngs Moduli (GPa) = 61.45524 33.04252 83.32901
#
# Poissons Ratio (x) = 0.09404 0.41835
# Poissons Ratio (y) = 0.17491 0.27303
# Poissons Ratio (z) = 0.30854 0.10827
#
# Static dielectric constant tensor:
#      x y z
#    x 1.797980 0.000000 0.000000 
#    y 0.000000 1.805120 0.000000 
#    z 0.000000 0.000000 1.866220 
# 
# From -- ./inp_files/12754.got.cif
#   From: 2010.05.17/outbox.cif.g08.bks.cpg/sg73_7_cif.got.tgz:12754.got - 2010.06.03 17:35:07.
