data_PCOD9531344
_publ_section_title
;
Structure prediction by ZEFSAII (Michael W. Deem and Ramdas Pophale) SiO2 
 PCOD9531344
Probable space group: I B C A 
;
_chemical_formula_sum "Si O2"
_cell_formula_units_Z 80
_cell_length_a 18.970709
_cell_length_b 20.752851
_cell_length_c 11.812733
_cell_angle_alpha 90.000000
_cell_angle_beta 90.000000
_cell_angle_gamma 90.000000
_cell_volume 4650.629242
_symmetry_space_group_name_H-M "I B C A "
_symmetry_group_IT_number 73
_symmetry_cell_setting 'orthorhombic'
loop_
_space_group_symop_operation_xyz
x,y,z
-x,1/2-y,z
x,-y,1/2-z
1/2-x,y,-z
-x,-y,-z
x,1/2+y,-z
-x,y,1/2+z
1/2+x,-y,z
1/2+x,1/2+y,1/2+z
1/2-x,-y,1/2+z
1/2+x,1/2-y,-z
-x,1/2+y,1/2-z
1/2-x,1/2-y,1/2-z
1/2+x,y,1/2-z
1/2-x,1/2+y,z
x,1/2-y,1/2+z
loop_
_atom_site_type_symbol
_atom_site_label
_atom_site_fract_x
_atom_site_fract_y
_atom_site_fract_z
Si Si1 0.678217 0.340521 0.554245
Si Si2 0.750000 0.215006 0.500000
Si Si3 0.090149 0.558374 0.430508
Si Si4 0.066113 0.540692 0.864833
Si Si5 0.699692 0.000000 0.750000
Si Si6 0.198848 0.881891 0.311845
O O1 0.750000 0.369645 0.500000
O O2 0.686396 0.264834 0.527466
O O3 0.615315 0.376335 0.491229
O O4 0.682563 0.354730 0.686931
O O5 0.766214 0.170989 0.607552
O O6 0.081118 0.505756 0.529445
O O7 0.148660 0.532617 0.343029
O O8 0.014062 0.564975 0.372164
O O9 0.075155 0.500000 0.750000
O O10 0.124984 0.595429 0.864300
O O11 0.750035 0.055943 0.699886
#
# Coordination Sequence:
#
# PCOD9531344 Si02
#       6
#    16   8  16  16   8  16
#     4  10  21  38  61  82 118 160 200 253 292 358
#     4  10  24  38  60  90 118 156 208 248 298 364
#     4  11  22  37  56  91 124 159 201 249 314 368
#     4  11  22  37  59  87 129 158 194 258 320 372
#     4  12  20  32  64  90 120 150 202 256 312 368
#     4  12  21  38  61  91 119 155 201 255 313 365
#
# _framework density 17.201974
#
# number of rings (size 3 to 8) (size 9 to 14) (size 15 to 20)
#    0.600    0.400    6.000    1.800    0.000    0.000 
#    0.000    1.000    0.000    2.400    0.000    0.000 
#    0.000    0.000    0.000    0.000    0.000    0.000 
#
# Total GULP energy -223157.837690 kJ/mol
# GULP energy per Si atom -5578.945942 kJ/mol
# Density = 1.716282 g / cm^3
# Si number density = 17.201974 Si / 1000 Ang^3
#
#
#
# Elastic Constant Matrix: (Units=GPa)
#
#
# Indices 1 2 3 4 5 6 
#
# 1 86.0822 47.7079 25.5234 0.0000 0.0000 0.0000
# 2 47.7079 118.4911 41.3299 0.0000 0.0000 0.0000
# 3 25.5234 41.3299 76.5797 0.0000 0.0000 0.0000
# 4 0.0000 0.0000 0.0000 30.9611 0.0000 0.0000
# 5 0.0000 0.0000 0.0000 0.0000 55.5395 0.0000
# 6 0.0000 0.0000 0.0000 0.0000 0.0000 -1.0241
#
#
#
# Elastic Compliance Matrix: (Units=1/GPa)
#
#
# Indices 1 2 3 4 5 6 
#
# 1 0.015243 -0.005378 -0.002178 0.000000 0.000000 0.000000
# 2 -0.005378 0.012294 -0.004843 0.000000 0.000000 0.000000
# 3 -0.002178 -0.004843 0.016398 0.000000 0.000000 0.000000
# 4 0.000000 0.000000 0.000000 0.032299 0.000000 0.000000
# 5 0.000000 0.000000 0.000000 0.000000 0.018005 0.000000
# 6 0.000000 0.000000 0.000000 0.000000 0.000000 -0.976508
#
#
# Mechanical properties :
#
#
# Convention : Reuss Voigt Hill
#
# Bulk Modulus (GPa) = 52.25223 56.69729 54.47476
# Shear Modulus (GPa) = -5.87479 28.20143 11.16332
#
# Velocity S-wave (km/s) = -1.85003 4.05338 2.55022
# Velocity P-wave (km/s) = 5.08706 7.41201 6.35673
#
# Compressibility (1/GPa) = 0.01913794
#
# Stress axis : x y z
#
# Youngs Moduli (GPa) = 65.60428 81.34249 60.98389
#
# Poissons Ratio (x) = 0.43742 0.13283
# Poissons Ratio (y) = 0.35279 0.29532
# Poissons Ratio (z) = 0.14289 0.39391
#
# Static dielectric constant tensor:
#      x y z
#    x 1.573190 0.000000 0.000000 
#    y 0.000000 1.564400 0.000000 
#    z 0.000000 0.000000 1.577140 
# 
# From -- ./inp_files/11837.got.cif
#   From: 2010.05.17/outbox.cif.g08.bks.cpg/sg73_6_cif.got.tgz:11837.got - 2010.06.03 17:35:07.
