data_PCOD9531725
_publ_section_title
;
Structure prediction by ZEFSAII (Michael W. Deem and Ramdas Pophale) SiO2 
 PCOD9531725
Probable space group: I B C A 
;
_chemical_formula_sum "Si O2"
_cell_formula_units_Z 96
_cell_length_a 15.356246
_cell_length_b 15.740626
_cell_length_c 20.091998
_cell_angle_alpha 90.000000
_cell_angle_beta 90.000000
_cell_angle_gamma 90.000000
_cell_volume 4856.575975
_symmetry_space_group_name_H-M "I B C A "
_symmetry_group_IT_number 73
_symmetry_cell_setting 'orthorhombic'
loop_
_space_group_symop_operation_xyz
x,y,z
-x,1/2-y,z
x,-y,1/2-z
1/2-x,y,-z
-x,-y,-z
x,1/2+y,-z
-x,y,1/2+z
1/2+x,-y,z
1/2+x,1/2+y,1/2+z
1/2-x,-y,1/2+z
1/2+x,1/2-y,-z
-x,1/2+y,1/2-z
1/2-x,1/2-y,1/2-z
1/2+x,y,1/2-z
1/2-x,1/2+y,z
x,1/2-y,1/2+z
loop_
_atom_site_type_symbol
_atom_site_label
_atom_site_fract_x
_atom_site_fract_y
_atom_site_fract_z
Si Si1 0.873247 0.388219 0.889078
Si Si2 0.096687 0.740309 0.417003
Si Si3 0.250000 0.171063 0.000000
Si Si4 0.761978 0.851865 0.239068
Si Si5 0.575991 0.149610 0.280324
Si Si6 0.000000 0.750000 0.157810
Si Si7 0.902852 0.924725 0.339805
O O1 0.810549 0.359482 0.830011
O O2 0.904681 0.481129 0.868222
O O3 0.949537 0.318411 0.886587
O O4 0.814384 0.384310 0.954443
O O5 0.180897 0.774044 0.456266
O O6 0.090035 0.788871 0.344894
O O7 0.104212 0.641629 0.399934
O O8 0.000000 0.750000 0.448648
O O9 0.750000 0.750000 0.250000
O O10 0.667803 0.894332 0.231399
O O11 0.821698 0.899630 0.292816
O O12 0.559181 0.199866 0.211676
O O13 0.490948 0.095461 0.298428
#
# Coordination Sequence:
#
# PCOD9531725 Si02
#       7
#    16  16   8  16  16   8  16
#     4  12  26  43  65 102 141 180 235 289 341 422
#     4  10  21  43  70  90 127 188 225 274 353 411
#     4  12  26  46  68  94 140 192 240 276 340 436
#     4  12  19  38  67 101 133 179 223 275 360 416
#     4  11  19  40  69  96 136 174 216 283 357 407
#     4  12  22  42  70  96 138 176 222 288 360 420
#     4  11  23  43  65 103 137 171 233 297 348 409
#
# _framework density 19.767012999999999
#
# number of rings (size 3 to 8) (size 9 to 14) (size 15 to 20)
#    0.000    0.667    9.167    0.500    1.167    0.667 
#    6.000    3.333    0.000    0.000    0.000    0.000 
#    0.000    0.000    0.000    0.000    0.000    0.000 
#
# Total GULP energy -267889.930858 kJ/mol
# GULP energy per Si atom -5581.040226 kJ/mol
# Density = 1.972202 g / cm^3
# Si number density = 19.767013 Si / 1000 Ang^3
#
#
#
# Elastic Constant Matrix: (Units=GPa)
#
#
# Indices 1 2 3 4 5 6 
#
# 1 161.5903 68.9627 34.2472 0.0000 0.0000 0.0000
# 2 68.9627 137.7232 47.5097 0.0000 0.0000 0.0000
# 3 34.2472 47.5097 66.2055 0.0000 0.0000 0.0000
# 4 0.0000 0.0000 0.0000 11.0617 0.0000 0.0000
# 5 0.0000 0.0000 0.0000 0.0000 43.0972 0.0000
# 6 0.0000 0.0000 0.0000 0.0000 0.0000 13.9990
#
#
#
# Elastic Compliance Matrix: (Units=1/GPa)
#
#
# Indices 1 2 3 4 5 6 
#
# 1 0.008009 -0.003430 -0.001681 0.000000 0.000000 0.000000
# 2 -0.003430 0.011119 -0.006205 0.000000 0.000000 0.000000
# 3 -0.001681 -0.006205 0.020427 0.000000 0.000000 0.000000
# 4 0.000000 0.000000 0.000000 0.090402 0.000000 0.000000
# 5 0.000000 0.000000 0.000000 0.000000 0.023203 0.000000
# 6 0.000000 0.000000 0.000000 0.000000 0.000000 0.071434
#
#
# Mechanical properties :
#
#
# Convention : Reuss Voigt Hill
#
# Bulk Modulus (GPa) = 59.09428 74.10645 66.60037
# Shear Modulus (GPa) = 19.77327 27.95154 23.86241
#
# Velocity S-wave (km/s) = 3.16621 3.76446 3.47822
# Velocity P-wave (km/s) = 6.58231 7.51440 7.06375
#
# Compressibility (1/GPa) = 0.01692211
#
# Stress axis : x y z
#
# Youngs Moduli (GPa) = 124.86309 89.93623 48.95564
#
# Poissons Ratio (x) = 0.30851 0.08230
# Poissons Ratio (y) = 0.42832 0.30375
# Poissons Ratio (z) = 0.20992 0.55802
#
# Static dielectric constant tensor:
#      x y z
#    x 1.821250 0.000000 0.000000 
#    y 0.000000 1.772880 0.000000 
#    z 0.000000 0.000000 1.708580 
# 
# From -- ./inp_files/26022.got.cif
#   From: 2010.05.17/outbox.cif.g08.bks.cpg/sg73_14_cif.got.tgz:26022.got - 2010.06.03 17:35:07.
