data_PCOD9531129
_publ_section_title
;
Structure prediction by ZEFSAII (Michael W. Deem and Ramdas Pophale) SiO2 
 PCOD9531129
Probable space group: I B C A 
;
_chemical_formula_sum "Si O2"
_cell_formula_units_Z 96
_cell_length_a 19.878734
_cell_length_b 15.913155
_cell_length_c 15.834409
_cell_angle_alpha 90.000000
_cell_angle_beta 90.000000
_cell_angle_gamma 90.000000
_cell_volume 5008.952046
_symmetry_space_group_name_H-M "I B C A "
_symmetry_group_IT_number 73
_symmetry_cell_setting 'orthorhombic'
loop_
_space_group_symop_operation_xyz
x,y,z
-x,1/2-y,z
x,-y,1/2-z
1/2-x,y,-z
-x,-y,-z
x,1/2+y,-z
-x,y,1/2+z
1/2+x,-y,z
1/2+x,1/2+y,1/2+z
1/2-x,-y,1/2+z
1/2+x,1/2-y,-z
-x,1/2+y,1/2-z
1/2-x,1/2-y,1/2-z
1/2+x,y,1/2-z
1/2-x,1/2+y,z
x,1/2-y,1/2+z
loop_
_atom_site_type_symbol
_atom_site_label
_atom_site_fract_x
_atom_site_fract_y
_atom_site_fract_z
Si Si1 0.118842 0.656323 0.062764
Si Si2 0.750000 0.431279 0.000000
Si Si3 0.088220 0.820422 0.156626
Si Si4 0.829547 0.487960 0.344681
Si Si5 0.000000 0.250000 0.205574
Si Si6 0.534340 0.950913 0.838632
Si Si7 0.460998 0.092902 0.902980
O O1 0.191894 0.630256 0.032696
O O2 0.104917 0.752468 0.085585
O O3 0.103039 0.595464 0.141834
O O4 0.067828 0.629331 0.988867
O O5 0.718535 0.486404 0.922780
O O6 0.145630 0.891184 0.155430
O O7 0.067161 0.762945 0.237343
O O8 0.021073 0.877497 0.151775
O O9 0.801499 0.500000 0.250000
O O10 0.896966 0.547593 0.355561
O O11 0.004137 0.167464 0.148788
O O12 0.530232 0.000000 0.750000
O O13 0.516715 0.020843 0.907893
#
# Coordination Sequence:
#
# PCOD9531129 Si02
#       7
#    16   8  16  16   8  16  16
#     4  11  23  39  59  86 128 165 208 263 299 358
#     4  10  26  44  60  86 126 178 232 250 280 366
#     4  11  20  36  65  94 123 156 198 259 329 378
#     4  10  20  43  66  85 123 173 207 259 312 364
#     4  12  18  34  60 100 126 148 194 250 326 400
#     4  11  19  37  60  92 124 157 197 252 328 392
#     4  10  21  34  58  92 126 158 193 253 327 382
#
# _framework density 19.165686000000001
#
# number of rings (size 3 to 8) (size 9 to 14) (size 15 to 20)
#    0.000    1.333    5.000    1.500    2.333    1.333 
#    0.000    0.833    0.000    0.000    0.000    0.000 
#    0.000    0.000    0.000    0.000    0.000    0.000 
#
# Total GULP energy -267367.769168 kJ/mol
# GULP energy per Si atom -5570.161858 kJ/mol
# Density = 1.912206 g / cm^3
# Si number density = 19.165686 Si / 1000 Ang^3
#
#
#
# Elastic Constant Matrix: (Units=GPa)
#
#
# Indices 1 2 3 4 5 6 
#
# 1 59.7822 56.3935 40.8033 0.0000 0.0000 0.0000
# 2 56.3935 163.8766 79.5926 0.0000 0.0000 0.0000
# 3 40.8033 79.5926 105.7330 0.0000 0.0000 0.0000
# 4 0.0000 0.0000 0.0000 33.5123 0.0000 0.0000
# 5 0.0000 0.0000 0.0000 0.0000 23.6482 0.0000
# 6 0.0000 0.0000 0.0000 0.0000 0.0000 19.6192
#
#
#
# Elastic Compliance Matrix: (Units=1/GPa)
#
#
# Indices 1 2 3 4 5 6 
#
# 1 0.026530 -0.006553 -0.005305 0.000000 0.000000 0.000000
# 2 -0.006553 0.011237 -0.005930 0.000000 0.000000 0.000000
# 3 -0.005305 -0.005930 0.015969 0.000000 0.000000 0.000000
# 4 0.000000 0.000000 0.000000 0.029840 0.000000 0.000000
# 5 0.000000 0.000000 0.000000 0.000000 0.042287 0.000000
# 6 0.000000 0.000000 0.000000 0.000000 0.000000 0.050970
#
#
# Mechanical properties :
#
#
# Convention : Reuss Voigt Hill
#
# Bulk Modulus (GPa) = 55.06747 75.88563 65.47655
# Shear Modulus (GPa) = 22.88710 25.52943 24.20826
#
# Velocity S-wave (km/s) = 3.45943 3.65367 3.55787
# Velocity P-wave (km/s) = 6.68966 7.58153 7.14951
#
# Compressibility (1/GPa) = 0.01815954
#
# Stress axis : x y z
#
# Youngs Moduli (GPa) = 37.69354 88.98840 62.61969
#
# Poissons Ratio (x) = 0.58312 0.33222
# Poissons Ratio (y) = 0.24700 0.37136
# Poissons Ratio (z) = 0.19998 0.52774
#
# Static dielectric constant tensor:
#      x y z
#    x 1.664660 0.000000 0.000000 
#    y 0.000000 1.678790 0.000000 
#    z 0.000000 0.000000 1.759900 
# 
# From -- ./inp_files/18699.got.cif
#   From: 2010.05.17/outbox.cif.g08.bks.cpg/sg73_10_cif.got.tgz:18699.got - 2010.06.03 17:35:07.
