data_PCOD9531440
_publ_section_title
;
Structure prediction by ZEFSAII (Michael W. Deem and Ramdas Pophale) SiO2 
 PCOD9531440
Probable space group: I B C A 
;
_chemical_formula_sum "Si O2"
_cell_formula_units_Z 64
_cell_length_a 19.023363
_cell_length_b 7.946049
_cell_length_c 17.620825
_cell_angle_alpha 90.000000
_cell_angle_beta 90.000000
_cell_angle_gamma 90.000000
_cell_volume 2663.574031
_symmetry_space_group_name_H-M "I B C A "
_symmetry_group_IT_number 73
_symmetry_cell_setting 'orthorhombic'
loop_
_space_group_symop_operation_xyz
x,y,z
-x,1/2-y,z
x,-y,1/2-z
1/2-x,y,-z
-x,-y,-z
x,1/2+y,-z
-x,y,1/2+z
1/2+x,-y,z
1/2+x,1/2+y,1/2+z
1/2-x,-y,1/2+z
1/2+x,1/2-y,-z
-x,1/2+y,1/2-z
1/2-x,1/2-y,1/2-z
1/2+x,y,1/2-z
1/2-x,1/2+y,z
x,1/2-y,1/2+z
loop_
_atom_site_type_symbol
_atom_site_label
_atom_site_fract_x
_atom_site_fract_y
_atom_site_fract_z
Si Si1 0.853951 0.500000 0.750000
Si Si2 0.000000 0.750000 0.634389
Si Si3 0.827633 0.282631 0.468885
Si Si4 0.592681 0.970189 0.586981
Si Si5 0.349808 0.152330 0.693724
O O1 0.896442 0.566502 0.823946
O O2 0.816514 0.669956 0.721133
O O3 0.023315 0.413422 0.414149
O O4 0.067198 0.699106 0.684260
O O5 0.750000 0.289270 0.500000
O O6 0.889458 0.321859 0.529543
O O7 0.829567 0.394080 0.392430
O O8 0.845683 0.098140 0.438212
O O9 0.338958 0.000000 0.750000
#
# Coordination Sequence:
#
# PCOD9531440 Si02
#       5
#     8   8  16  16  16
#     4   8  20  40  56  92 128 156 212 266 316 390
#     4   8  20  38  60  96 130 162 216 264 334 394
#     4  10  22  41  62  90 129 172 218 269 321 377
#     4  10  21  39  63  90 127 166 215 265 331 388
#     4  10  22  39  66  95 129 172 214 261 338 392
#
# _framework density 24.027867000000001
#
# number of rings (size 3 to 8) (size 9 to 14) (size 15 to 20)
#    0.000    3.000    0.000    0.750   10.500    4.000 
#    2.250    3.750    0.000    0.000    0.000    0.000 
#    0.000    0.000    0.000    0.000    0.000    0.000 
#
# Total GULP energy -178415.900831 kJ/mol
# GULP energy per Si atom -5575.496901 kJ/mol
# Density = 2.397318 g / cm^3
# Si number density = 24.027867 Si / 1000 Ang^3
#
#
#
# Elastic Constant Matrix: (Units=GPa)
#
#
# Indices 1 2 3 4 5 6 
#
# 1 99.7355 16.7829 30.8633 0.0000 0.0000 0.0000
# 2 16.7829 63.2620 31.9507 0.0000 0.0000 0.0000
# 3 30.8633 31.9507 152.2704 0.0000 0.0000 0.0000
# 4 0.0000 0.0000 0.0000 44.2557 0.0000 0.0000
# 5 0.0000 0.0000 0.0000 0.0000 -0.6587 0.0000
# 6 0.0000 0.0000 0.0000 0.0000 0.0000 5.2885
#
#
#
# Elastic Compliance Matrix: (Units=1/GPa)
#
#
# Indices 1 2 3 4 5 6 
#
# 1 0.010917 -0.001989 -0.001795 0.000000 0.000000 0.000000
# 2 -0.001989 0.018044 -0.003383 0.000000 0.000000 0.000000
# 3 -0.001795 -0.003383 0.007641 0.000000 0.000000 0.000000
# 4 0.000000 0.000000 0.000000 0.022596 0.000000 0.000000
# 5 0.000000 0.000000 0.000000 0.000000 -1.518086 0.000000
# 6 0.000000 0.000000 0.000000 0.000000 0.000000 0.189090
#
#
# Mechanical properties :
#
#
# Convention : Reuss Voigt Hill
#
# Bulk Modulus (GPa) = 44.91092 52.71797 48.81444
# Shear Modulus (GPa) = -4.00628 25.48849 10.74111
#
# Velocity S-wave (km/s) = -1.29266 3.26051 2.11660
# Velocity P-wave (km/s) = 4.06249 6.01353 5.13159
#
# Compressibility (1/GPa) = 0.02226630
#
# Stress axis : x y z
#
# Youngs Moduli (GPa) = 91.60162 55.42139 130.87370
#
# Poissons Ratio (x) = 0.11026 0.23495
# Poissons Ratio (y) = 0.18224 0.44272
# Poissons Ratio (z) = 0.16445 0.18748
#
# Static dielectric constant tensor:
#      x y z
#    x 1.932560 0.000000 0.000000 
#    y 0.000000 1.982640 0.000000 
#    z 0.000000 0.000000 2.059620 
# 
# From -- ./inp_files/19107.got.cif
#   From: 2010.05.17/outbox.cif.g08.bks.cpg/sg73_10_cif.got.tgz:19107.got - 2010.06.03 17:35:07.
