data_PCOD9531176
_publ_section_title
;
Structure prediction by ZEFSAII (Michael W. Deem and Ramdas Pophale) SiO2 
 PCOD9531176
Probable space group: I B C A 
;
_chemical_formula_sum "Si O2"
_cell_formula_units_Z 104
_cell_length_a 18.367708
_cell_length_b 14.115638
_cell_length_c 19.106179
_cell_angle_alpha 90.000000
_cell_angle_beta 90.000000
_cell_angle_gamma 90.000000
_cell_volume 4953.695656
_symmetry_space_group_name_H-M "I B C A "
_symmetry_group_IT_number 73
_symmetry_cell_setting 'orthorhombic'
loop_
_space_group_symop_operation_xyz
x,y,z
-x,1/2-y,z
x,-y,1/2-z
1/2-x,y,-z
-x,-y,-z
x,1/2+y,-z
-x,y,1/2+z
1/2+x,-y,z
1/2+x,1/2+y,1/2+z
1/2-x,-y,1/2+z
1/2+x,1/2-y,-z
-x,1/2+y,1/2-z
1/2-x,1/2-y,1/2-z
1/2+x,y,1/2-z
1/2-x,1/2+y,z
x,1/2-y,1/2+z
loop_
_atom_site_type_symbol
_atom_site_label
_atom_site_fract_x
_atom_site_fract_y
_atom_site_fract_z
Si Si1 0.545872 0.345318 0.509119
Si Si2 0.330064 0.688229 0.389762
Si Si3 0.342291 0.515867 0.169965
Si Si4 0.571249 0.000000 0.750000
Si Si5 0.787737 0.790013 0.820633
Si Si6 0.915233 0.281186 0.760030
Si Si7 0.008514 0.979630 0.395052
O O1 0.500000 0.250000 0.506725
O O2 0.626132 0.321973 0.538241
O O3 0.511212 0.420639 0.564071
O O4 0.537356 0.402181 0.437037
O O5 0.315729 0.583833 0.359243
O O6 0.254251 0.743431 0.385045
O O7 0.384012 0.739042 0.333174
O O8 0.368222 0.500000 0.250000
O O9 0.282723 0.597428 0.173662
O O10 0.407585 0.547373 0.118805
O O11 0.603778 0.106638 0.744253
O O12 0.524613 0.005263 0.819871
O O13 0.750000 0.750000 0.750000
O O14 0.871552 0.765933 0.804536
O O15 0.000000 0.250000 0.756011
#
# Coordination Sequence:
#
# PCOD9531176 Si02
#       7
#    16  16  16   8  16  16  16
#     4  10  21  41  63  87 127 177 223 265 326 406
#     4  10  21  38  60  87 129 182 214 270 338 404
#     4  11  17  34  60  88 136 172 208 273 333 404
#     4  12  22  34  58  96 132 150 206 294 322 382
#     4  10  21  33  55  93 129 171 214 257 343 407
#     4  11  21  33  55  90 128 170 211 271 344 395
#     4  10  22  36  61  96 125 170 217 266 341 395
#
# _framework density 20.994427000000002
#
# number of rings (size 3 to 8) (size 9 to 14) (size 15 to 20)
#    0.000    1.538    3.846    4.154    0.000    4.308 
#    0.000    0.000    0.000    3.692    0.000   12.923 
#    0.000    0.000    0.000    0.000    0.000    0.000 
#
# Total GULP energy -290121.654400 kJ/mol
# GULP energy per Si atom -5579.262585 kJ/mol
# Density = 2.094664 g / cm^3
# Si number density = 20.994427 Si / 1000 Ang^3
#
#
#
# Elastic Constant Matrix: (Units=GPa)
#
#
# Indices 1 2 3 4 5 6 
#
# 1 63.7984 12.3888 13.6043 0.0000 0.0000 0.0000
# 2 12.3888 130.2556 7.6384 0.0000 0.0000 0.0000
# 3 13.6043 7.6384 72.1507 0.0000 0.0000 0.0000
# 4 0.0000 0.0000 0.0000 25.3840 0.0000 0.0000
# 5 0.0000 0.0000 0.0000 0.0000 21.4961 0.0000
# 6 0.0000 0.0000 0.0000 0.0000 0.0000 18.6498
#
#
#
# Elastic Compliance Matrix: (Units=1/GPa)
#
#
# Indices 1 2 3 4 5 6 
#
# 1 0.016582 -0.001402 -0.002978 0.000000 0.000000 0.000000
# 2 -0.001402 0.007844 -0.000566 0.000000 0.000000 0.000000
# 3 -0.002978 -0.000566 0.014481 0.000000 0.000000 0.000000
# 4 0.000000 0.000000 0.000000 0.039395 0.000000 0.000000
# 5 0.000000 0.000000 0.000000 0.000000 0.046520 0.000000
# 6 0.000000 0.000000 0.000000 0.000000 0.000000 0.053620
#
#
# Mechanical properties :
#
#
# Convention : Reuss Voigt Hill
#
# Bulk Modulus (GPa) = 34.46630 37.05196 35.75913
# Shear Modulus (GPa) = 25.25177 28.61087 26.93132
#
# Velocity S-wave (km/s) = 3.47188 3.69560 3.58548
# Velocity P-wave (km/s) = 5.70302 5.99138 5.84898
#
# Compressibility (1/GPa) = 0.02901385
#
# Stress axis : x y z
#
# Youngs Moduli (GPa) = 60.30728 127.48936 69.05448
#
# Poissons Ratio (x) = 0.17880 0.20565
# Poissons Ratio (y) = 0.08458 0.03908
# Poissons Ratio (z) = 0.17960 0.07215
#
# Static dielectric constant tensor:
#      x y z
#    x 1.800940 0.000000 0.000000 
#    y 0.000000 1.828630 0.000000 
#    z 0.000000 0.000000 1.746620 
# 
# From -- ./inp_files/29843.got.cif
#   From: 2010.05.17/outbox.cif.g08.bks.cpg/sg73_15_cif.got.tgz:29843.got - 2010.06.03 17:35:07.
