data_PCOD9531839
_publ_section_title
;
Structure prediction by ZEFSAII (Michael W. Deem and Ramdas Pophale) SiO2 
 PCOD9531839
Probable space group: I B C A 
;
_chemical_formula_sum "Si O2"
_cell_formula_units_Z 80
_cell_length_a 5.143086
_cell_length_b 31.657001
_cell_length_c 21.727419
_cell_angle_alpha 90.000000
_cell_angle_beta 90.000000
_cell_angle_gamma 90.000000
_cell_volume 3537.542742
_symmetry_space_group_name_H-M "I B C A "
_symmetry_group_IT_number 73
_symmetry_cell_setting 'orthorhombic'
loop_
_space_group_symop_operation_xyz
x,y,z
-x,1/2-y,z
x,-y,1/2-z
1/2-x,y,-z
-x,-y,-z
x,1/2+y,-z
-x,y,1/2+z
1/2+x,-y,z
1/2+x,1/2+y,1/2+z
1/2-x,-y,1/2+z
1/2+x,1/2-y,-z
-x,1/2+y,1/2-z
1/2-x,1/2-y,1/2-z
1/2+x,y,1/2-z
1/2-x,1/2+y,z
x,1/2-y,1/2+z
loop_
_atom_site_type_symbol
_atom_site_label
_atom_site_fract_x
_atom_site_fract_y
_atom_site_fract_z
Si Si1 0.337091 0.883193 0.067577
Si Si2 0.697276 0.051252 0.290044
Si Si3 0.575615 0.976761 0.075987
Si Si4 0.686860 0.637235 0.356237
Si Si5 0.255085 0.769310 0.319235
O O1 0.438118 0.932043 0.062449
O O2 0.593044 0.859258 0.091190
O O3 0.092470 0.876065 0.114300
O O4 0.250000 0.869977 0.000000
O O5 0.478785 0.044692 0.239018
O O6 0.617901 0.025216 0.350237
O O7 0.709454 0.099553 0.313419
O O8 0.872830 0.986649 0.056463
O O9 0.699530 0.680886 0.319293
O O10 0.500000 0.750000 0.353180
O O11 0.250000 0.750000 0.250000
O O12 0.000000 0.750000 0.349055
#
# Coordination Sequence:
#
# PCOD9531839 Si02
#       5
#    16  16  16  16  16
#     4  11  24  44  68  93 122 176 226 271 335 378
#     4  11  23  36  59  88 124 177 207 247 316 397
#     4  11  23  40  60  90 127 160 217 277 320 373
#     4  11  23  41  65  94 137 164 216 271 315 394
#     4  10  22  37  62  98 132 169 197 257 325 388
#
# _framework density 22.614567000000001
#
# number of rings (size 3 to 8) (size 9 to 14) (size 15 to 20)
#    0.000    1.200    0.000    7.800    5.600    3.200 
#    0.000    0.000    0.000   12.000    0.000    0.000 
#    0.000    0.000    0.000    0.000    0.000    0.000 
#
# Total GULP energy -223469.160163 kJ/mol
# GULP energy per Si atom -5586.729004 kJ/mol
# Density = 2.256310 g / cm^3
# Si number density = 22.614567 Si / 1000 Ang^3
#
#
#
# Elastic Constant Matrix: (Units=GPa)
#
#
# Indices 1 2 3 4 5 6 
#
# 1 171.9456 59.4414 9.2361 0.0000 0.0000 0.0000
# 2 59.4414 115.9026 30.8588 0.0000 0.0000 0.0000
# 3 9.2361 30.8588 56.6799 0.0000 0.0000 0.0000
# 4 0.0000 0.0000 0.0000 23.3926 0.0000 0.0000
# 5 0.0000 0.0000 0.0000 0.0000 16.7291 0.0000
# 6 0.0000 0.0000 0.0000 0.0000 0.0000 30.8718
#
#
#
# Elastic Compliance Matrix: (Units=1/GPa)
#
#
# Indices 1 2 3 4 5 6 
#
# 1 0.007114 -0.003906 0.000967 0.000000 0.000000 0.000000
# 2 -0.003906 0.012235 -0.006025 0.000000 0.000000 0.000000
# 3 0.000967 -0.006025 0.020765 0.000000 0.000000 0.000000
# 4 0.000000 0.000000 0.000000 0.042749 0.000000 0.000000
# 5 0.000000 0.000000 0.000000 0.000000 0.059776 0.000000
# 6 0.000000 0.000000 0.000000 0.000000 0.000000 0.032392
#
#
# Mechanical properties :
#
#
# Convention : Reuss Voigt Hill
#
# Bulk Modulus (GPa) = 45.06993 60.40007 52.73500
# Shear Modulus (GPa) = 24.95575 30.53150 27.74363
#
# Velocity S-wave (km/s) = 3.32554 3.67833 3.50638
# Velocity P-wave (km/s) = 5.89224 6.69377 6.30576
#
# Compressibility (1/GPa) = 0.02218774
#
# Stress axis : x y z
#
# Youngs Moduli (GPa) = 140.56460 81.73061 48.15682
#
# Poissons Ratio (x) = 0.31925 -0.04659
# Poissons Ratio (y) = 0.54906 0.29014
# Poissons Ratio (z) = -0.13598 0.49242
#
# Static dielectric constant tensor:
#      x y z
#    x 1.875000 0.000000 0.000000 
#    y 0.000000 1.861670 0.000000 
#    z 0.000000 0.000000 1.905810 
# 
# From -- ./inp_files/28049.got.cif
#   From: 2010.05.17/outbox.cif.g08.bks.cpg/sg73_15_cif.got.tgz:28049.got - 2010.06.03 17:35:07.
