data_PCOD9531350
_publ_section_title
;
Structure prediction by ZEFSAII (Michael W. Deem and Ramdas Pophale) SiO2 
 PCOD9531350
Probable space group: I B C A 
;
_chemical_formula_sum "Si O2"
_cell_formula_units_Z 88
_cell_length_a 22.652114
_cell_length_b 17.222193
_cell_length_c 10.749097
_cell_angle_alpha 90.000000
_cell_angle_beta 90.000000
_cell_angle_gamma 90.000000
_cell_volume 4193.427824
_symmetry_space_group_name_H-M "I B C A "
_symmetry_group_IT_number 73
_symmetry_cell_setting 'orthorhombic'
loop_
_space_group_symop_operation_xyz
x,y,z
-x,1/2-y,z
x,-y,1/2-z
1/2-x,y,-z
-x,-y,-z
x,1/2+y,-z
-x,y,1/2+z
1/2+x,-y,z
1/2+x,1/2+y,1/2+z
1/2-x,-y,1/2+z
1/2+x,1/2-y,-z
-x,1/2+y,1/2-z
1/2-x,1/2-y,1/2-z
1/2+x,y,1/2-z
1/2-x,1/2+y,z
x,1/2-y,1/2+z
loop_
_atom_site_type_symbol
_atom_site_label
_atom_site_fract_x
_atom_site_fract_y
_atom_site_fract_z
Si Si1 0.547871 0.409260 0.893296
Si Si2 0.213233 0.771639 0.374303
Si Si3 0.337253 0.588754 0.252144
Si Si4 0.879365 0.668765 0.009715
Si Si5 0.575402 0.511355 0.112925
Si Si6 0.500000 0.750000 0.512421
O O1 0.593969 0.414713 0.783482
O O2 0.493429 0.466685 0.873854
O O3 0.523332 0.322863 0.908896
O O4 0.578852 0.437986 0.021304
O O5 0.250000 0.765778 0.500000
O O6 0.250000 0.750000 0.250000
O O7 0.193714 0.859912 0.351966
O O8 0.155646 0.719251 0.406652
O O9 0.315294 0.500000 0.250000
O O10 0.337395 0.640562 0.377347
O O11 0.897642 0.586809 0.950885
O O12 0.939712 0.714909 0.050743
O O13 0.600690 0.500000 0.250000
#
# Coordination Sequence:
#
# PCOD9531350 Si02
#       6
#    16  16  16  16  16   8
#     4  10  21  38  61  99 142 192 226 290 357 423
#     4  12  27  52  77 101 141 189 243 302 355 426
#     4  12  24  46  73 101 143 183 237 297 367 415
#     4  11  24  44  71 105 140 189 234 297 353 439
#     4  10  22  37  61  98 146 186 234 284 357 433
#     4  10  22  38  64 106 142 184 242 272 360 436
#
# _framework density 20.985219000000001
#
# number of rings (size 3 to 8) (size 9 to 14) (size 15 to 20)
#    0.000    1.091    5.455    0.545    5.091    3.636 
#    3.273    0.000    0.000    0.000    0.000    0.000 
#    0.000    0.000    0.000    0.000    0.000    0.000 
#
# Total GULP energy -245390.871127 kJ/mol
# GULP energy per Si atom -5577.065253 kJ/mol
# Density = 2.093746 g / cm^3
# Si number density = 20.985219 Si / 1000 Ang^3
#
#
#
# Elastic Constant Matrix: (Units=GPa)
#
#
# Indices 1 2 3 4 5 6 
#
# 1 60.4271 28.6157 21.2756 0.0000 0.0000 0.0000
# 2 28.6157 133.8689 38.3396 0.0000 0.0000 0.0000
# 3 21.2756 38.3396 98.0315 0.0000 0.0000 0.0000
# 4 0.0000 0.0000 0.0000 21.4229 0.0000 0.0000
# 5 0.0000 0.0000 0.0000 0.0000 22.3427 0.0000
# 6 0.0000 0.0000 0.0000 0.0000 0.0000 13.9213
#
#
#
# Elastic Compliance Matrix: (Units=1/GPa)
#
#
# Indices 1 2 3 4 5 6 
#
# 1 0.019104 -0.003262 -0.002871 0.000000 0.000000 0.000000
# 2 -0.003262 0.008969 -0.002800 0.000000 0.000000 0.000000
# 3 -0.002871 -0.002800 0.011919 0.000000 0.000000 0.000000
# 4 0.000000 0.000000 0.000000 0.046679 0.000000 0.000000
# 5 0.000000 0.000000 0.000000 0.000000 0.044757 0.000000
# 6 0.000000 0.000000 0.000000 0.000000 0.000000 0.071832
#
#
# Mechanical properties :
#
#
# Convention : Reuss Voigt Hill
#
# Bulk Modulus (GPa) = 45.19174 52.08771 48.63973
# Shear Modulus (GPa) = 21.88179 25.14383 23.51281
#
# Velocity S-wave (km/s) = 3.23263 3.46521 3.35094
# Velocity P-wave (km/s) = 5.95944 6.39416 6.18062
#
# Compressibility (1/GPa) = 0.02212794
#
# Stress axis : x y z
#
# Youngs Moduli (GPa) = 52.34488 111.49436 83.90093
#
# Poissons Ratio (x) = 0.36364 0.24084
# Poissons Ratio (y) = 0.17073 0.23491
# Poissons Ratio (z) = 0.15026 0.31217
#
# Static dielectric constant tensor:
#      x y z
#    x 1.827770 0.000000 0.000000 
#    y 0.000000 1.735320 0.000000 
#    z 0.000000 0.000000 1.815130 
# 
# From -- ./inp_files/14208.got.cif
#   From: 2010.05.17/outbox.cif.g08.bks.cpg/sg73_8_cif.got.tgz:14208.got - 2010.06.03 17:35:07.
