data_PCOD9531592
_publ_section_title
;
Structure prediction by ZEFSAII (Michael W. Deem and Ramdas Pophale) SiO2 
 PCOD9531592
Probable space group: I B C A 
;
_chemical_formula_sum "Si O2"
_cell_formula_units_Z 56
_cell_length_a 5.259556
_cell_length_b 13.635772
_cell_length_c 33.708438
_cell_angle_alpha 90.000000
_cell_angle_beta 90.000000
_cell_angle_gamma 90.000000
_cell_volume 2417.505344
_symmetry_space_group_name_H-M "I B C A "
_symmetry_group_IT_number 73
_symmetry_cell_setting 'orthorhombic'
loop_
_space_group_symop_operation_xyz
x,y,z
-x,1/2-y,z
x,-y,1/2-z
1/2-x,y,-z
-x,-y,-z
x,1/2+y,-z
-x,y,1/2+z
1/2+x,-y,z
1/2+x,1/2+y,1/2+z
1/2-x,-y,1/2+z
1/2+x,1/2-y,-z
-x,1/2+y,1/2-z
1/2-x,1/2-y,1/2-z
1/2+x,y,1/2-z
1/2-x,1/2+y,z
x,1/2-y,1/2+z
loop_
_atom_site_type_symbol
_atom_site_label
_atom_site_fract_x
_atom_site_fract_y
_atom_site_fract_z
Si Si1 0.093743 0.061133 0.886014
Si Si2 0.497460 0.366855 0.526029
Si Si3 0.225745 0.142335 0.268195
Si Si4 0.000000 0.750000 0.658866
O O1 0.042993 0.076659 0.932922
O O2 0.140921 0.170172 0.868236
O O3 0.834324 0.005059 0.874092
O O4 0.500000 0.250000 0.534983
O O5 0.750000 0.387984 0.500000
O O6 0.250000 0.385933 0.500000
O O7 0.250000 0.250000 0.250000
O O8 0.497285 0.097175 0.257821
O O9 0.155977 0.173934 0.312835
#
# Coordination Sequence:
#
# PCOD9531592 Si02
#       4
#    16  16  16   8
#     4  12  27  41  63  96 124 166 210 246 317 373
#     4  10  21  41  65  87 118 162 207 253 307 361
#     4   8  16  32  62  88 109 164 207 232 308 364
#     4  10  22  44  64  88 136 160 196 272 300 356
#
# _framework density 23.164373999999999
#
# number of rings (size 3 to 8) (size 9 to 14) (size 15 to 20)
#    0.000    2.286    1.429    1.714    0.000   13.714 
#    0.000    0.000    0.000   46.286    0.000    0.000 
#    0.000    0.000    0.000    0.000    0.000    0.000 
#
# Total GULP energy -156001.372603 kJ/mol
# GULP energy per Si atom -5571.477593 kJ/mol
# Density = 2.311165 g / cm^3
# Si number density = 23.164374 Si / 1000 Ang^3
#
#
#
# Elastic Constant Matrix: (Units=GPa)
#
#
# Indices 1 2 3 4 5 6 
#
# 1 192.7434 21.6948 26.1419 0.0000 0.0000 0.0000
# 2 21.6948 118.2110 22.4649 0.0000 0.0000 0.0000
# 3 26.1419 22.4649 87.3367 0.0000 0.0000 0.0000
# 4 0.0000 0.0000 0.0000 -88.7576 0.0000 0.0000
# 5 0.0000 0.0000 0.0000 0.0000 -10.6505 0.0000
# 6 0.0000 0.0000 0.0000 0.0000 0.0000 -126.1801
#
#
#
# Elastic Compliance Matrix: (Units=1/GPa)
#
#
# Indices 1 2 3 4 5 6 
#
# 1 0.005467 -0.000728 -0.001449 0.000000 0.000000 0.000000
# 2 -0.000728 0.008991 -0.002095 0.000000 0.000000 0.000000
# 3 -0.001449 -0.002095 0.012423 0.000000 0.000000 0.000000
# 4 0.000000 0.000000 0.000000 -0.011267 0.000000 0.000000
# 5 0.000000 0.000000 0.000000 0.000000 -0.093892 0.000000
# 6 0.000000 0.000000 0.000000 0.000000 0.000000 -0.007925
#
#
# Mechanical properties :
#
#
# Convention : Reuss Voigt Hill
#
# Bulk Modulus (GPa) = 54.53534 59.87715 57.20624
# Shear Modulus (GPa) = -69.88321 -23.25167 -46.56744
#
# Velocity S-wave (km/s) = -5.49854 -3.17167 -4.48851
# Velocity P-wave (km/s) = 4.08876 3.53444 1.45356
#
# Compressibility (1/GPa) = 0.01833673
#
# Stress axis : x y z
#
# Youngs Moduli (GPa) = 182.92520 111.22060 80.49893
#
# Poissons Ratio (x) = 0.08096 0.11665
# Poissons Ratio (y) = 0.13315 0.16863
# Poissons Ratio (z) = 0.26507 0.23299
#
# Static dielectric constant tensor:
#      x y z
#    x 0.902990 0.000000 0.000000 
#    y 0.000000 1.808720 0.000000 
#    z 0.000000 0.000000 1.978900 
# 
# From -- ./inp_files/720.got.cif
#   From: 2010.05.17/outbox.cif.g08.bks.cpg/sg73_1_cif.got.tgz:720.got - 2010.06.03 17:35:07.
