data_PCOD9531196
_publ_section_title
;
Structure prediction by ZEFSAII (Michael W. Deem and Ramdas Pophale) SiO2 
 PCOD9531196
Probable space group: I B C A 
;
_chemical_formula_sum "Si O2"
_cell_formula_units_Z 120
_cell_length_a 18.518009
_cell_length_b 21.924726
_cell_length_c 14.126891
_cell_angle_alpha 90.000000
_cell_angle_beta 90.000000
_cell_angle_gamma 90.000000
_cell_volume 5735.549862
_symmetry_space_group_name_H-M "I B C A "
_symmetry_group_IT_number 73
_symmetry_cell_setting 'orthorhombic'
loop_
_space_group_symop_operation_xyz
x,y,z
-x,1/2-y,z
x,-y,1/2-z
1/2-x,y,-z
-x,-y,-z
x,1/2+y,-z
-x,y,1/2+z
1/2+x,-y,z
1/2+x,1/2+y,1/2+z
1/2-x,-y,1/2+z
1/2+x,1/2-y,-z
-x,1/2+y,1/2-z
1/2-x,1/2-y,1/2-z
1/2+x,y,1/2-z
1/2-x,1/2+y,z
x,1/2-y,1/2+z
loop_
_atom_site_type_symbol
_atom_site_label
_atom_site_fract_x
_atom_site_fract_y
_atom_site_fract_z
Si Si1 0.066366 0.211802 0.318320
Si Si2 0.502276 0.500000 0.750000
Si Si3 0.815991 0.174965 0.546953
Si Si4 0.211314 0.251382 0.366036
Si Si5 0.257048 0.615022 0.613832
Si Si6 0.525681 0.182521 0.395727
Si Si7 0.895904 0.079892 0.878932
Si Si8 0.085561 0.573761 0.405131
O O1 0.137712 0.253386 0.307960
O O2 0.042336 0.189178 0.215609
O O3 0.086617 0.152469 0.379258
O O4 0.000000 0.250000 0.358633
O O5 0.553312 0.451268 0.697730
O O6 0.454200 0.528747 0.666689
O O7 0.750000 0.135213 0.500000
O O8 0.818067 0.231660 0.472069
O O9 0.776344 0.199923 0.641262
O O10 0.898453 0.157897 0.560684
O O11 0.245873 0.185188 0.357730
O O12 0.250000 0.614615 0.500000
O O13 0.188308 0.576941 0.649710
O O14 0.335426 0.589389 0.635289
O O15 0.500000 0.250000 0.426903
O O16 0.462431 0.134664 0.409257
O O17 0.906904 0.053496 0.984792
#
# Coordination Sequence:
#
# PCOD9531196 Si02
#       8
#    16   8  16  16  16  16  16  16
#     4  10  21  35  55  93 125 159 204 252 307 378
#     4  12  24  48  60  96 120 156 216 274 320 376
#     4   8  18  31  49  83 117 165 198 236 290 376
#     4   8  16  31  53  78 123 165 195 235 289 373
#     4   9  16  35  61  94 112 155 216 242 307 376
#     4  11  22  34  57  92 129 160 204 249 315 376
#     4  10  23  40  68  88 121 166 204 260 322 376
#     4  11  24  39  70  91 124 163 210 269 310 379
#
# _framework density 20.922145
#
# number of rings (size 3 to 8) (size 9 to 14) (size 15 to 20)
#    0.800    1.333    2.667    1.200    5.600    1.067 
#    0.000    1.333    5.867    2.400    0.000    0.000 
#    0.000    0.000    0.000    0.000    0.000    0.000 
#
# Total GULP energy -334173.962123 kJ/mol
# GULP energy per Si atom -5569.566035 kJ/mol
# Density = 2.087452 g / cm^3
# Si number density = 20.922145 Si / 1000 Ang^3
#
#
#
# Elastic Constant Matrix: (Units=GPa)
#
#
# Indices 1 2 3 4 5 6 
#
# 1 177.2259 29.1791 19.9281 0.0000 0.0000 0.0000
# 2 29.1791 27.0843 -1.2745 0.0000 0.0000 0.0000
# 3 19.9281 -1.2745 66.6935 0.0000 0.0000 0.0000
# 4 0.0000 0.0000 0.0000 6.7965 0.0000 0.0000
# 5 0.0000 0.0000 0.0000 0.0000 15.2852 0.0000
# 6 0.0000 0.0000 0.0000 0.0000 0.0000 16.8688
#
#
#
# Elastic Compliance Matrix: (Units=1/GPa)
#
#
# Indices 1 2 3 4 5 6 
#
# 1 0.007195 -0.007860 -0.002300 0.000000 0.000000 0.000000
# 2 -0.007860 0.045541 0.003219 0.000000 0.000000 0.000000
# 3 -0.002300 0.003219 0.015743 0.000000 0.000000 0.000000
# 4 0.000000 0.000000 0.000000 0.147134 0.000000 0.000000
# 5 0.000000 0.000000 0.000000 0.000000 0.065423 0.000000
# 6 0.000000 0.000000 0.000000 0.000000 0.000000 0.059281
#
#
# Mechanical properties :
#
#
# Convention : Reuss Voigt Hill
#
# Bulk Modulus (GPa) = 18.31618 40.74102 29.52860
# Shear Modulus (GPa) = 13.42648 22.66817 18.04732
#
# Velocity S-wave (km/s) = 2.53600 3.29516 2.94018
# Velocity P-wave (km/s) = 4.16515 5.83030 5.06660
#
# Compressibility (1/GPa) = 0.05459654
#
# Stress axis : x y z
#
# Youngs Moduli (GPa) = 138.98045 21.95818 63.52122
#
# Poissons Ratio (x) = 0.17259 0.14611
# Poissons Ratio (y) = 1.09239 -0.20447
# Poissons Ratio (z) = 0.31968 -0.07068
#
# Static dielectric constant tensor:
#      x y z
#    x 1.821740 0.000000 0.000000 
#    y 0.000000 1.742930 0.000000 
#    z 0.000000 0.000000 1.814640 
# 
# From -- ./inp_files/18265.got.cif
#   From: 2010.05.17/outbox.cif.g08.bks.cpg/sg73_10_cif.got.tgz:18265.got - 2010.06.03 17:35:07.
