data_PCOD9531207
_publ_section_title
;
Structure prediction by ZEFSAII (Michael W. Deem and Ramdas Pophale) SiO2 
 PCOD9531207
Probable space group: I B C A 
;
_chemical_formula_sum "Si O2"
_cell_formula_units_Z 88
_cell_length_a 5.845627
_cell_length_b 26.269160
_cell_length_c 30.597838
_cell_angle_alpha 90.000000
_cell_angle_beta 90.000000
_cell_angle_gamma 90.000000
_cell_volume 4698.595159
_symmetry_space_group_name_H-M "I B C A "
_symmetry_group_IT_number 73
_symmetry_cell_setting 'orthorhombic'
loop_
_space_group_symop_operation_xyz
x,y,z
-x,1/2-y,z
x,-y,1/2-z
1/2-x,y,-z
-x,-y,-z
x,1/2+y,-z
-x,y,1/2+z
1/2+x,-y,z
1/2+x,1/2+y,1/2+z
1/2-x,-y,1/2+z
1/2+x,1/2-y,-z
-x,1/2+y,1/2-z
1/2-x,1/2-y,1/2-z
1/2+x,y,1/2-z
1/2-x,1/2+y,z
x,1/2-y,1/2+z
loop_
_atom_site_type_symbol
_atom_site_label
_atom_site_fract_x
_atom_site_fract_y
_atom_site_fract_z
Si Si1 0.456759 0.058963 0.734225
Si Si2 0.750000 0.931765 0.500000
Si Si3 0.127591 0.431592 0.867815
Si Si4 0.751000 0.232374 0.550815
Si Si5 0.989283 0.536774 0.418068
Si Si6 0.882245 0.881657 0.060336
O O1 0.709330 0.079845 0.748241
O O2 0.437881 0.062397 0.681934
O O3 0.461020 0.000000 0.750000
O O4 0.851121 0.966148 0.461138
O O5 0.564142 0.895622 0.477045
O O6 0.394314 0.429636 0.879529
O O7 0.063750 0.484225 0.893525
O O8 0.011150 0.385160 0.893093
O O9 0.500000 0.250000 0.568959
O O10 0.750000 0.250006 0.500000
O O11 0.739364 0.171349 0.552632
O O12 0.000000 0.250000 0.569027
O O13 0.789384 0.571521 0.436346
#
# Coordination Sequence:
#
# PCOD9531207 Si02
#       6
#    16   8  16  16  16  16
#     4  10  21  35  59  80 113 155 201 241 288 358
#     4  10  24  36  52  76 112 162 212 242 292 334
#     4  11  23  36  55  83 117 166 193 245 303 348
#     4  10  23  40  63  82 108 150 206 263 317 347
#     4  11  21  36  52  75 118 158 207 239 289 353
#     4  11  24  38  58  79 120 153 209 252 294 363
#
# _framework density 18.729002999999999
#
# number of rings (size 3 to 8) (size 9 to 14) (size 15 to 20)
#    0.000    1.455    1.818    3.818   11.455    2.909 
#    1.636    0.000    0.000    0.000    0.000    0.000 
#    0.000    4.364    0.000    0.000    0.000    0.000 
#
# Total GULP energy -245120.123818 kJ/mol
# GULP energy per Si atom -5570.911905 kJ/mol
# Density = 1.868637 g / cm^3
# Si number density = 18.729003 Si / 1000 Ang^3
#
#
#
# Elastic Constant Matrix: (Units=GPa)
#
#
# Indices 1 2 3 4 5 6 
#
# 1 137.7321 42.8230 30.9404 0.0000 0.0000 0.0000
# 2 42.8230 66.9939 17.4911 0.0000 0.0000 0.0000
# 3 30.9404 17.4911 110.3302 0.0000 0.0000 0.0000
# 4 0.0000 0.0000 0.0000 6.5129 0.0000 0.0000
# 5 0.0000 0.0000 0.0000 0.0000 18.5765 0.0000
# 6 0.0000 0.0000 0.0000 0.0000 0.0000 26.0824
#
#
#
# Elastic Compliance Matrix: (Units=1/GPa)
#
#
# Indices 1 2 3 4 5 6 
#
# 1 0.009375 -0.005535 -0.001752 0.000000 0.000000 0.000000
# 2 -0.005535 0.018839 -0.001434 0.000000 0.000000 0.000000
# 3 -0.001752 -0.001434 0.009782 0.000000 0.000000 0.000000
# 4 0.000000 0.000000 0.000000 0.153542 0.000000 0.000000
# 5 0.000000 0.000000 0.000000 0.000000 0.053831 0.000000
# 6 0.000000 0.000000 0.000000 0.000000 0.000000 0.038340
#
#
# Mechanical properties :
#
#
# Convention : Reuss Voigt Hill
#
# Bulk Modulus (GPa) = 48.65170 55.28501 51.96835
# Shear Modulus (GPa) = 16.23359 25.15449 20.69404
#
# Velocity S-wave (km/s) = 2.94728 3.66878 3.32764
# Velocity P-wave (km/s) = 6.13310 6.89413 6.52472
#
# Compressibility (1/GPa) = 0.02055427
#
# Stress axis : x y z
#
# Youngs Moduli (GPa) = 106.66761 53.08031 102.22551
#
# Poissons Ratio (x) = 0.29381 0.17905
# Poissons Ratio (y) = 0.59043 0.14663
# Poissons Ratio (z) = 0.18683 0.07614
#
# Static dielectric constant tensor:
#      x y z
#    x 1.976220 0.000000 0.000000 
#    y 0.000000 1.607770 0.000000 
#    z 0.000000 0.000000 1.638230 
# 
# From -- ./inp_files/33303.got.cif
#   From: 2010.05.17/outbox.cif.g08.bks.cpg/sg73_17_cif.got.tgz:33303.got - 2010.06.03 17:35:07.
