data_PCOD9531669
_publ_section_title
;
Structure prediction by ZEFSAII (Michael W. Deem and Ramdas Pophale) SiO2 
 PCOD9531669
Probable space group: I B C A 
;
_chemical_formula_sum "Si O2"
_cell_formula_units_Z 96
_cell_length_a 22.260045
_cell_length_b 8.247258
_cell_length_c 23.795183
_cell_angle_alpha 90.000000
_cell_angle_beta 90.000000
_cell_angle_gamma 90.000000
_cell_volume 4368.422828
_symmetry_space_group_name_H-M "I B C A "
_symmetry_group_IT_number 73
_symmetry_cell_setting 'orthorhombic'
loop_
_space_group_symop_operation_xyz
x,y,z
-x,1/2-y,z
x,-y,1/2-z
1/2-x,y,-z
-x,-y,-z
x,1/2+y,-z
-x,y,1/2+z
1/2+x,-y,z
1/2+x,1/2+y,1/2+z
1/2-x,-y,1/2+z
1/2+x,1/2-y,-z
-x,1/2+y,1/2-z
1/2-x,1/2-y,1/2-z
1/2+x,y,1/2-z
1/2-x,1/2+y,z
x,1/2-y,1/2+z
loop_
_atom_site_type_symbol
_atom_site_label
_atom_site_fract_x
_atom_site_fract_y
_atom_site_fract_z
Si Si1 0.817827 0.665736 0.287335
Si Si2 0.631036 0.007853 0.114601
Si Si3 0.870126 0.015278 0.083026
Si Si4 0.681540 0.823591 0.017667
Si Si5 0.682128 0.321816 0.177448
Si Si6 0.001415 0.556176 0.564360
O O1 0.810008 0.500000 0.250000
O O2 0.863095 0.626045 0.336766
O O3 0.753831 0.698151 0.316760
O O4 0.836534 0.801737 0.242579
O O5 0.651204 0.174425 0.143784
O O6 0.564128 0.005823 0.091335
O O7 0.675592 0.968362 0.063079
O O8 0.846735 0.173002 0.050684
O O9 0.835089 0.976898 0.140513
O O10 0.941342 0.014869 0.092418
O O11 0.855808 0.872864 0.037480
O O12 0.750000 0.797120 0.000000
O O13 0.000000 0.750000 0.567051
O O14 0.000000 0.500000 0.500000
#
# Coordination Sequence:
#
# PCOD9531669 Si02
#       6
#    16  16  16  16  16  16
#     4   9  21  40  70  99 132 178 227 283 351 411
#     4  11  23  43  68  98 136 182 231 281 342 408
#     4  12  24  41  65  98 136 183 228 280 345 411
#     4  12  26  41  63 101 143 177 223 288 349 418
#     4  10  21  42  68  99 133 177 226 288 345 412
#     4  12  24  44  69  95 137 186 234 277 335 410
#
# _framework density 21.975895000000001
#
# number of rings (size 3 to 8) (size 9 to 14) (size 15 to 20)
#    0.000    1.000    3.333    3.500    0.000    8.000 
#    0.000    0.833    0.000   17.000    0.000    0.000 
#    0.000    0.000    0.000    0.000    0.000    0.000 
#
# Total GULP energy -268735.383562 kJ/mol
# GULP energy per Si atom -5598.653824 kJ/mol
# Density = 2.192588 g / cm^3
# Si number density = 21.975895 Si / 1000 Ang^3
#
#
#
# Elastic Constant Matrix: (Units=GPa)
#
#
# Indices 1 2 3 4 5 6 
#
# 1 149.4198 39.8007 69.9382 0.0000 0.0000 0.0000
# 2 39.8007 58.0915 27.3607 0.0000 0.0000 0.0000
# 3 69.9382 27.3607 142.7899 0.0000 0.0000 0.0000
# 4 0.0000 0.0000 0.0000 32.5685 0.0000 0.0000
# 5 0.0000 0.0000 0.0000 0.0000 40.0536 0.0000
# 6 0.0000 0.0000 0.0000 0.0000 0.0000 30.6690
#
#
#
# Elastic Compliance Matrix: (Units=1/GPa)
#
#
# Indices 1 2 3 4 5 6 
#
# 1 0.009806 -0.004898 -0.003864 0.000000 0.000000 0.000000
# 2 -0.004898 0.021369 -0.001695 0.000000 0.000000 0.000000
# 3 -0.003864 -0.001695 0.009221 0.000000 0.000000 0.000000
# 4 0.000000 0.000000 0.000000 0.030705 0.000000 0.000000
# 5 0.000000 0.000000 0.000000 0.000000 0.024967 0.000000
# 6 0.000000 0.000000 0.000000 0.000000 0.000000 0.032606
#
#
# Mechanical properties :
#
#
# Convention : Reuss Voigt Hill
#
# Bulk Modulus (GPa) = 51.33603 69.38896 60.36249
# Shear Modulus (GPa) = 32.03428 34.87165 33.45297
#
# Velocity S-wave (km/s) = 3.82213 3.98780 3.90584
# Velocity P-wave (km/s) = 6.54897 7.26960 6.91867
#
# Compressibility (1/GPa) = 0.01947950
#
# Stress axis : x y z
#
# Youngs Moduli (GPa) = 101.97684 46.79709 108.44892
#
# Poissons Ratio (x) = 0.22923 0.41909
# Poissons Ratio (y) = 0.49953 0.18386
# Poissons Ratio (z) = 0.39408 0.07934
#
# Static dielectric constant tensor:
#      x y z
#    x 1.763840 0.000000 0.000000 
#    y 0.000000 1.949660 0.000000 
#    z 0.000000 0.000000 1.799070 
# 
# From -- ./inp_files/30281.got.cif
#   From: 2010.05.17/outbox.cif.g08.bks.cpg/sg73_16_cif.got.tgz:30281.got - 2010.06.03 17:35:07.
