data_PCOD9531949
_publ_section_title
;
Structure prediction by ZEFSAII (Michael W. Deem and Ramdas Pophale) SiO2 
 PCOD9531949
Probable space group: I B C A 
;
_chemical_formula_sum "Si O2"
_cell_formula_units_Z 96
_cell_length_a 21.107239
_cell_length_b 15.188972
_cell_length_c 13.723102
_cell_angle_alpha 90.000000
_cell_angle_beta 90.000000
_cell_angle_gamma 90.000000
_cell_volume 4399.588930
_symmetry_space_group_name_H-M "I B C A "
_symmetry_group_IT_number 73
_symmetry_cell_setting 'orthorhombic'
loop_
_space_group_symop_operation_xyz
x,y,z
-x,1/2-y,z
x,-y,1/2-z
1/2-x,y,-z
-x,-y,-z
x,1/2+y,-z
-x,y,1/2+z
1/2+x,-y,z
1/2+x,1/2+y,1/2+z
1/2-x,-y,1/2+z
1/2+x,1/2-y,-z
-x,1/2+y,1/2-z
1/2-x,1/2-y,1/2-z
1/2+x,y,1/2-z
1/2-x,1/2+y,z
x,1/2-y,1/2+z
loop_
_atom_site_type_symbol
_atom_site_label
_atom_site_fract_x
_atom_site_fract_y
_atom_site_fract_z
Si Si1 0.275966 0.138405 0.608702
Si Si2 0.115455 0.187381 0.260597
Si Si3 0.113407 0.956178 0.597731
Si Si4 0.150290 0.540182 0.893975
Si Si5 0.521184 0.559005 0.842217
Si Si6 0.355891 0.869056 0.197667
O O1 0.250000 0.155843 0.500000
O O2 0.335843 0.193558 0.648287
O O3 0.216694 0.153560 0.678086
O O4 0.297383 0.035704 0.617104
O O5 0.146722 0.114267 0.188471
O O6 0.049778 0.148679 0.300083
O O7 0.107147 0.277708 0.203642
O O8 0.151774 0.925375 0.503837
O O9 0.137157 0.912796 0.696942
O O10 0.039181 0.933001 0.589628
O O11 0.122272 0.061144 0.615698
O O12 0.082334 0.489986 0.885861
O O13 0.499197 0.500000 0.750000
#
# Coordination Sequence:
#
# PCOD9531949 Si02
#       6
#    16  16  16  16  16  16
#     4  11  22  41  65  94 129 173 219 271 326 403
#     4  10  24  41  65  95 134 169 219 276 330 382
#     4  11  22  40  66  90 130 172 219 262 332 405
#     4  10  22  39  67  90 125 174 219 263 332 394
#     4   9  18  40  64  90 122 170 213 267 325 387
#     4  11  24  40  63  95 133 168 218 269 330 387
#
# _framework density 21.820221
#
# number of rings (size 3 to 8) (size 9 to 14) (size 15 to 20)
#    0.000    1.667    3.333    2.500    4.667    2.000 
#    0.000    0.833    3.667    0.000    0.000    0.000 
#    0.000    0.000    0.000    0.000    0.000    0.000 
#
# Total GULP energy -268201.783184 kJ/mol
# GULP energy per Si atom -5587.537150 kJ/mol
# Density = 2.177056 g / cm^3
# Si number density = 21.820221 Si / 1000 Ang^3
#
#
#
# Elastic Constant Matrix: (Units=GPa)
#
#
# Indices 1 2 3 4 5 6 
#
# 1 44.7478 10.3352 2.5189 0.0000 0.0000 0.0000
# 2 10.3352 60.0734 12.1484 0.0000 0.0000 0.0000
# 3 2.5189 12.1484 86.0985 0.0000 0.0000 0.0000
# 4 0.0000 0.0000 0.0000 15.9505 0.0000 0.0000
# 5 0.0000 0.0000 0.0000 0.0000 37.7408 0.0000
# 6 0.0000 0.0000 0.0000 0.0000 0.0000 -25.2209
#
#
#
# Elastic Compliance Matrix: (Units=1/GPa)
#
#
# Indices 1 2 3 4 5 6 
#
# 1 0.023273 -0.003980 -0.000119 0.000000 0.000000 0.000000
# 2 -0.003980 0.017816 -0.002397 0.000000 0.000000 0.000000
# 3 -0.000119 -0.002397 0.011956 0.000000 0.000000 0.000000
# 4 0.000000 0.000000 0.000000 0.062694 0.000000 0.000000
# 5 0.000000 0.000000 0.000000 0.000000 0.026497 0.000000
# 6 0.000000 0.000000 0.000000 0.000000 0.000000 -0.039650
#
#
# Mechanical properties :
#
#
# Convention : Reuss Voigt Hill
#
# Bulk Modulus (GPa) = 24.96726 26.76940 25.86833
# Shear Modulus (GPa) = 38.78060 16.75522 27.76791
#
# Velocity S-wave (km/s) = 4.22035 2.77406 3.57119
# Velocity P-wave (km/s) = 5.93427 4.74925 5.37452
#
# Compressibility (1/GPa) = 0.04005245
#
# Stress axis : x y z
#
# Youngs Moduli (GPa) = 42.96752 56.12993 83.63756
#
# Poissons Ratio (x) = 0.22339 0.00998
# Poissons Ratio (y) = 0.17101 0.20051
# Poissons Ratio (z) = 0.00513 0.13456
#
# Static dielectric constant tensor:
#      x y z
#    x 1.781440 0.000000 0.000000 
#    y 0.000000 1.820750 0.000000 
#    z 0.000000 0.000000 1.832150 
# 
# From -- ./inp_files/18616.got.cif
#   From: 2010.05.17/outbox.cif.g08.bks.cpg/sg73_10_cif.got.tgz:18616.got - 2010.06.03 17:35:07.
