data_PCOD9531504
_publ_section_title
;
Structure prediction by ZEFSAII (Michael W. Deem and Ramdas Pophale) SiO2 
 PCOD9531504
Probable space group: I B C A 
;
_chemical_formula_sum "Si O2"
_cell_formula_units_Z 64
_cell_length_a 13.750674
_cell_length_b 32.074994
_cell_length_c 5.469620
_cell_angle_alpha 90.000000
_cell_angle_beta 90.000000
_cell_angle_gamma 90.000000
_cell_volume 2412.391140
_symmetry_space_group_name_H-M "I B C A "
_symmetry_group_IT_number 73
_symmetry_cell_setting 'orthorhombic'
loop_
_space_group_symop_operation_xyz
x,y,z
-x,1/2-y,z
x,-y,1/2-z
1/2-x,y,-z
-x,-y,-z
x,1/2+y,-z
-x,y,1/2+z
1/2+x,-y,z
1/2+x,1/2+y,1/2+z
1/2-x,-y,1/2+z
1/2+x,1/2-y,-z
-x,1/2+y,1/2-z
1/2-x,1/2-y,1/2-z
1/2+x,y,1/2-z
1/2-x,1/2+y,z
x,1/2-y,1/2+z
loop_
_atom_site_type_symbol
_atom_site_label
_atom_site_fract_x
_atom_site_fract_y
_atom_site_fract_z
Si Si1 0.639023 0.390204 0.195398
Si Si2 0.862369 0.137804 0.798168
Si Si3 0.389732 0.017544 0.003242
Si Si4 0.111718 0.733103 0.606490
O O1 0.599744 0.391399 0.475921
O O2 0.750952 0.376868 0.247781
O O3 0.622528 0.433482 0.050656
O O4 0.598333 0.359712 0.982803
O O5 0.876145 0.183596 0.906064
O O6 0.345424 0.000000 0.250000
O O7 0.350391 0.000000 0.750000
O O8 0.500000 0.000000 0.000000
O O9 0.154512 0.752184 0.362085
O O10 0.000000 0.750000 0.612884
#
# Coordination Sequence:
#
# PCOD9531504 Si02
#       4
#    16  16  16  16
#     4  10  21  40  63  91 125 165 213 266 322 392
#     4  10  21  40  63  92 125 168 215 266 324 388
#     4  10  21  40  63  93 127 167 211 265 329 395
#     4  10  21  40  62  91 127 167 213 267 325 389
#
# _framework density 26.529696000000001
#
# number of rings (size 3 to 8) (size 9 to 14) (size 15 to 20)
#    0.000    2.000    0.000    3.000    0.000    0.000 
#    0.000   55.000    0.000    0.000    0.000    0.000 
#    0.000    0.000    0.000    0.000    0.000    0.000 
#
# Total GULP energy -178575.212834 kJ/mol
# GULP energy per Si atom -5580.475401 kJ/mol
# Density = 2.646931 g / cm^3
# Si number density = 26.529696 Si / 1000 Ang^3
#
#
#
# Elastic Constant Matrix: (Units=GPa)
#
#
# Indices 1 2 3 4 5 6 
#
# 1 180.4840 19.7793 13.4518 0.0215 -0.0448 0.0089
# 2 19.7793 144.4792 27.2621 0.0777 -0.0902 -0.0452
# 3 13.4518 27.2621 315.4197 0.1236 -0.2027 0.0605
# 4 0.0215 0.0777 0.1236 63.8701 -0.0933 -0.0372
# 5 -0.0448 -0.0902 -0.2027 -0.0933 -109.8131 -0.0645
# 6 0.0089 -0.0452 0.0605 -0.0372 -0.0645 64.7768
#
#
#
# Elastic Compliance Matrix: (Units=1/GPa)
#
#
# Indices 1 2 3 4 5 6 
#
# 1 0.005635 -0.000738 -0.000177 -0.000001 -0.000001 -0.000001
# 2 -0.000738 0.007133 -0.000585 -0.000007 -0.000004 0.000006
# 3 -0.000177 -0.000585 0.003228 -0.000005 -0.000005 -0.000003
# 4 -0.000001 -0.000007 -0.000005 0.015657 -0.000013 0.000009
# 5 -0.000001 -0.000004 -0.000005 -0.000013 -0.009106 -0.000009
# 6 -0.000001 0.000006 -0.000003 0.000009 -0.000009 0.015438
#
#
# Mechanical properties :
#
#
# Convention : Reuss Voigt Hill
#
# Bulk Modulus (GPa) = 76.94219 84.59659 80.76939
# Shear Modulus (GPa) = 110.33739 42.42610 76.38174
#
# Velocity S-wave (km/s) = 6.45604 4.00333 5.37155
# Velocity P-wave (km/s) = 9.19995 7.30244 8.30556
#
# Compressibility (1/GPa) = 0.01299677
#
# Stress axis : x y z
#
# Youngs Moduli (GPa) = 177.47178 140.19649 309.74426
#
# Poissons Ratio (x) = 0.10348 0.05467
# Poissons Ratio (y) = 0.13099 0.18121
# Poissons Ratio (z) = 0.03133 0.08202
#
# Static dielectric constant tensor:
#      x y z
#    x 2.049170 -0.000610 0.000450 
#    y -0.000610 2.165060 0.000050 
#    z 0.000450 0.000050 1.863710 
# 
# From -- ./inp_files/1138.got.cif
#   From: 2010.05.17/outbox.cif.g08.bks.cpg/sg73_1_cif.got.tgz:1138.got - 2010.06.03 17:35:07.
