data_PCOD9531514
_publ_section_title
;
Structure prediction by ZEFSAII (Michael W. Deem and Ramdas Pophale) SiO2 
 PCOD9531514
Probable space group: I B C A 
;
_chemical_formula_sum "Si O2"
_cell_formula_units_Z 112
_cell_length_a 27.465289
_cell_length_b 10.734226
_cell_length_c 18.473933
_cell_angle_alpha 90.000000
_cell_angle_beta 90.000000
_cell_angle_gamma 90.000000
_cell_volume 5446.459420
_symmetry_space_group_name_H-M "I B C A "
_symmetry_group_IT_number 73
_symmetry_cell_setting 'orthorhombic'
loop_
_space_group_symop_operation_xyz
x,y,z
-x,1/2-y,z
x,-y,1/2-z
1/2-x,y,-z
-x,-y,-z
x,1/2+y,-z
-x,y,1/2+z
1/2+x,-y,z
1/2+x,1/2+y,1/2+z
1/2-x,-y,1/2+z
1/2+x,1/2-y,-z
-x,1/2+y,1/2-z
1/2-x,1/2-y,1/2-z
1/2+x,y,1/2-z
1/2-x,1/2+y,z
x,1/2-y,1/2+z
loop_
_atom_site_type_symbol
_atom_site_label
_atom_site_fract_x
_atom_site_fract_y
_atom_site_fract_z
Si Si1 0.854991 0.864015 0.946394
Si Si2 0.967390 0.874648 0.360454
Si Si3 0.750000 0.459585 0.000000
Si Si4 0.532006 0.500000 0.750000
Si Si5 0.891825 0.707437 0.287015
Si Si6 0.807782 0.478887 0.627600
Si Si7 0.393346 0.405407 0.975634
Si Si8 0.699010 0.808805 0.768713
O O1 0.865571 0.838159 0.861455
O O2 0.876268 0.738801 0.985606
O O3 0.798626 0.885634 0.972076
O O4 0.884111 0.992336 0.962828
O O5 0.922224 0.830485 0.309658
O O6 0.946114 0.906625 0.438870
O O7 0.000000 0.750000 0.367045
O O8 0.997596 0.981226 0.319870
O O9 0.766765 0.544159 0.932425
O O10 0.567978 0.616684 0.746099
O O11 0.848199 0.723370 0.231005
O O12 0.857587 0.460323 0.586053
O O13 0.798772 0.616649 0.657084
O O14 0.808767 0.396417 0.698760
O O15 0.750000 0.750000 0.750000
#
# Coordination Sequence:
#
# PCOD9531514 Si02
#       8
#    16  16   8   8  16  16  16  16
#     4  10  21  40  63  91 134 181 215 281 331 400
#     4   9  19  38  65  89 120 165 215 279 344 394
#     4  10  22  40  60  94 126 178 232 262 320 420
#     4  10  22  38  66  92 114 174 212 282 342 394
#     4  10  21  41  59  91 138 159 218 281 334 395
#     4  10  22  38  61  87 126 174 215 270 328 389
#     4  10  21  41  62  92 127 170 218 274 338 398
#     4  11  22  38  61  94 127 175 214 264 337 403
#
# _framework density 20.563818999999999
#
# number of rings (size 3 to 8) (size 9 to 14) (size 15 to 20)
#    0.000    2.000    2.857    0.857    2.000    4.571 
#   10.286    6.429    0.000    0.000    0.000    0.000 
#    0.000    0.000    0.000    0.000    0.000    0.000 
#
# Total GULP energy -311958.119268 kJ/mol
# GULP energy per Si atom -5570.680701 kJ/mol
# Density = 2.051701 g / cm^3
# Si number density = 20.563819 Si / 1000 Ang^3
#
#
#
# Elastic Constant Matrix: (Units=GPa)
#
#
# Indices 1 2 3 4 5 6 
#
# 1 108.7687 18.9215 9.0884 0.0000 0.0000 0.0000
# 2 18.9215 53.8324 2.3368 0.0000 0.0000 0.0000
# 3 9.0884 2.3368 37.7223 0.0000 0.0000 0.0000
# 4 0.0000 0.0000 0.0000 30.6742 0.0000 0.0000
# 5 0.0000 0.0000 0.0000 0.0000 37.1893 0.0000
# 6 0.0000 0.0000 0.0000 0.0000 0.0000 37.0678
#
#
#
# Elastic Compliance Matrix: (Units=1/GPa)
#
#
# Indices 1 2 3 4 5 6 
#
# 1 0.009970 -0.003409 -0.002191 0.000000 0.000000 0.000000
# 2 -0.003409 0.019792 -0.000405 0.000000 0.000000 0.000000
# 3 -0.002191 -0.000405 0.027062 0.000000 0.000000 0.000000
# 4 0.000000 0.000000 0.000000 0.032601 0.000000 0.000000
# 5 0.000000 0.000000 0.000000 0.000000 0.026889 0.000000
# 6 0.000000 0.000000 0.000000 0.000000 0.000000 0.026978
#
#
# Mechanical properties :
#
#
# Convention : Reuss Voigt Hill
#
# Bulk Modulus (GPa) = 22.31400 29.00186 25.65793
# Shear Modulus (GPa) = 29.37030 32.31804 30.84417
#
# Velocity S-wave (km/s) = 3.78332 3.96864 3.87709
# Velocity P-wave (km/s) = 5.47351 5.92740 5.70497
#
# Compressibility (1/GPa) = 0.04481491
#
# Stress axis : x y z
#
# Youngs Moduli (GPa) = 100.30131 50.52537 36.95159
#
# Poissons Ratio (x) = 0.17225 0.08096
# Poissons Ratio (y) = 0.34195 0.01495
# Poissons Ratio (z) = 0.21975 0.02045
#
# Static dielectric constant tensor:
#      x y z
#    x 1.803170 0.000000 0.000000 
#    y 0.000000 1.815520 0.000000 
#    z 0.000000 0.000000 1.817090 
# 
# From -- ./inp_files/27682.got.cif
#   From: 2010.05.17/outbox.cif.g08.bks.cpg/sg73_14_cif.got.tgz:27682.got - 2010.06.03 17:35:07.
