data_PCOD9531627
_publ_section_title
;
Structure prediction by ZEFSAII (Michael W. Deem and Ramdas Pophale) SiO2 
 PCOD9531627
Probable space group: I B C A 
;
_chemical_formula_sum "Si O2"
_cell_formula_units_Z 88
_cell_length_a 11.697440
_cell_length_b 14.469775
_cell_length_c 22.284421
_cell_angle_alpha 90.000000
_cell_angle_beta 90.000000
_cell_angle_gamma 90.000000
_cell_volume 3771.846054
_symmetry_space_group_name_H-M "I B C A "
_symmetry_group_IT_number 73
_symmetry_cell_setting 'orthorhombic'
loop_
_space_group_symop_operation_xyz
x,y,z
-x,1/2-y,z
x,-y,1/2-z
1/2-x,y,-z
-x,-y,-z
x,1/2+y,-z
-x,y,1/2+z
1/2+x,-y,z
1/2+x,1/2+y,1/2+z
1/2-x,-y,1/2+z
1/2+x,1/2-y,-z
-x,1/2+y,1/2-z
1/2-x,1/2-y,1/2-z
1/2+x,y,1/2-z
1/2-x,1/2+y,z
x,1/2-y,1/2+z
loop_
_atom_site_type_symbol
_atom_site_label
_atom_site_fract_x
_atom_site_fract_y
_atom_site_fract_z
Si Si1 0.765460 0.405308 0.085919
Si Si2 0.592553 0.667551 0.213613
Si Si3 0.446679 0.151909 0.152466
Si Si4 0.131376 0.785067 0.917577
Si Si5 0.410790 0.484532 0.312020
Si Si6 0.750000 0.932463 0.500000
O O1 0.633358 0.397207 0.103798
O O2 0.798856 0.304905 0.062927
O O3 0.838025 0.421699 0.145343
O O4 0.800565 0.493026 0.046459
O O5 0.500000 0.750000 0.214348
O O6 0.624879 0.664104 0.284405
O O7 0.662176 0.686638 0.151944
O O8 0.526542 0.572044 0.201331
O O9 0.500000 0.250000 0.134369
O O10 0.552041 0.083699 0.164496
O O11 0.162926 0.868201 0.962497
O O12 0.000000 0.750000 0.918883
O O13 0.345616 0.500000 0.250000
#
# Coordination Sequence:
#
# PCOD9531627 Si02
#       6
#    16  16  16  16  16   8
#     4  12  26  46  71 102 139 190 242 290 361 418
#     4   9  17  41  70 103 144 177 226 294 363 422
#     4  10  24  43  70 110 147 179 229 293 361 443
#     4  11  24  49  74  99 141 190 241 305 352 415
#     4  10  21  41  69 107 140 180 226 289 367 432
#     4  12  30  48  66 104 136 188 258 290 352 420
#
# _framework density 23.330752
#
# number of rings (size 3 to 8) (size 9 to 14) (size 15 to 20)
#    0.000    1.455    3.636    1.636    2.545    5.091 
#    3.273    0.000    0.000    0.000    0.000    0.000 
#    0.000    0.000    0.000    0.000    0.000    0.000 
#
# Total GULP energy -245606.376133 kJ/mol
# GULP energy per Si atom -5581.963094 kJ/mol
# Density = 2.327765 g / cm^3
# Si number density = 23.330752 Si / 1000 Ang^3
#
#
#
# Elastic Constant Matrix: (Units=GPa)
#
#
# Indices 1 2 3 4 5 6 
#
# 1 24.2117 -1.2081 18.9250 0.0000 0.0000 0.0000
# 2 -1.2081 146.1093 27.4842 0.0000 0.0000 0.0000
# 3 18.9250 27.4842 94.2518 0.0000 0.0000 0.0000
# 4 0.0000 0.0000 0.0000 47.5996 0.0000 0.0000
# 5 0.0000 0.0000 0.0000 0.0000 25.3725 0.0000
# 6 0.0000 0.0000 0.0000 0.0000 0.0000 21.9222
#
#
#
# Elastic Compliance Matrix: (Units=1/GPa)
#
#
# Indices 1 2 3 4 5 6 
#
# 1 0.049791 0.002425 -0.010705 0.000000 0.000000 0.000000
# 2 0.002425 0.007360 -0.002633 0.000000 0.000000 0.000000
# 3 -0.010705 -0.002633 0.013527 0.000000 0.000000 0.000000
# 4 0.000000 0.000000 0.000000 0.021009 0.000000 0.000000
# 5 0.000000 0.000000 0.000000 0.000000 0.039413 0.000000
# 6 0.000000 0.000000 0.000000 0.000000 0.000000 0.045616
#
#
# Mechanical properties :
#
#
# Convention : Reuss Voigt Hill
#
# Bulk Modulus (GPa) = 20.46987 39.44166 29.95577
# Shear Modulus (GPa) = 23.27491 33.60365 28.43928
#
# Velocity S-wave (km/s) = 3.16192 3.79927 3.49515
# Velocity P-wave (km/s) = 4.70352 6.01565 5.39959
#
# Compressibility (1/GPa) = 0.04885229
#
# Stress axis : x y z
#
# Youngs Moduli (GPa) = 20.08409 135.87806 73.92559
#
# Poissons Ratio (x) = -0.32955 0.79136
# Poissons Ratio (y) = -0.04871 0.19465
# Poissons Ratio (z) = 0.21500 0.35777
#
# Static dielectric constant tensor:
#      x y z
#    x 1.948780 0.000000 0.000000 
#    y 0.000000 1.853130 0.000000 
#    z 0.000000 0.000000 2.073670 
# 
# From -- ./inp_files/16141.got.cif
#   From: 2010.05.17/outbox.cif.g08.bks.cpg/sg73_9_cif.got.tgz:16141.got - 2010.06.03 17:35:07.
