data_PCOD9531598
_publ_section_title
;
Structure prediction by ZEFSAII (Michael W. Deem and Ramdas Pophale) SiO2 
 PCOD9531598
Probable space group: I B C A 
;
_chemical_formula_sum "Si O2"
_cell_formula_units_Z 72
_cell_length_a 8.056802
_cell_length_b 28.395097
_cell_length_c 13.969281
_cell_angle_alpha 90.000000
_cell_angle_beta 90.000000
_cell_angle_gamma 90.000000
_cell_volume 3195.803742
_symmetry_space_group_name_H-M "I B C A "
_symmetry_group_IT_number 73
_symmetry_cell_setting 'orthorhombic'
loop_
_space_group_symop_operation_xyz
x,y,z
-x,1/2-y,z
x,-y,1/2-z
1/2-x,y,-z
-x,-y,-z
x,1/2+y,-z
-x,y,1/2+z
1/2+x,-y,z
1/2+x,1/2+y,1/2+z
1/2-x,-y,1/2+z
1/2+x,1/2-y,-z
-x,1/2+y,1/2-z
1/2-x,1/2-y,1/2-z
1/2+x,y,1/2-z
1/2-x,1/2+y,z
x,1/2-y,1/2+z
loop_
_atom_site_type_symbol
_atom_site_label
_atom_site_fract_x
_atom_site_fract_y
_atom_site_fract_z
Si Si1 0.965843 0.695086 0.866171
Si Si2 0.059895 0.614576 0.006039
Si Si3 0.134997 0.561658 0.347483
Si Si4 0.141864 0.852092 0.183603
Si Si5 0.628846 0.000000 0.250000
O O1 0.768092 0.685446 0.864141
O O2 0.000000 0.750000 0.872950
O O3 0.044258 0.664186 0.950556
O O4 0.051549 0.672959 0.771290
O O5 0.936453 0.579550 0.948276
O O6 0.250000 0.598349 0.000000
O O7 0.989353 0.625449 0.110321
O O8 0.229205 0.605173 0.297740
O O9 0.261145 0.518079 0.338926
O O10 0.982526 0.542896 0.285475
#
# Coordination Sequence:
#
# PCOD9531598 Si02
#       5
#    16  16  16  16   8
#     4  11  23  40  67  98 128 172 219 267 322 382
#     4  11  25  43  64  92 131 175 216 266 325 390
#     4  10  21  41  65  94 127 167 209 266 335 389
#     4  11  23  43  65  93 132 171 213 265 326 394
#     4  10  22  40  70  98 124 162 218 276 324 398
#
# _framework density 22.529543
#
# number of rings (size 3 to 8) (size 9 to 14) (size 15 to 20)
#    0.000    1.333    0.000    7.333    0.000    8.000 
#    0.000    7.778    0.000    0.000    0.000    0.000 
#    0.000    0.000    0.000    0.000    0.000    0.000 
#
# Total GULP energy -201220.334691 kJ/mol
# GULP energy per Si atom -5589.453741 kJ/mol
# Density = 2.247827 g / cm^3
# Si number density = 22.529543 Si / 1000 Ang^3
#
#
#
# Elastic Constant Matrix: (Units=GPa)
#
#
# Indices 1 2 3 4 5 6 
#
# 1 124.1364 41.5770 33.4994 0.0001 0.0000 0.0000
# 2 41.5770 106.9364 43.8801 0.0000 0.0000 0.0000
# 3 33.4994 43.8801 88.3836 0.0003 0.0000 -0.0001
# 4 0.0001 0.0000 0.0003 -3.0606 0.0000 0.0000
# 5 0.0000 0.0000 0.0000 0.0000 26.3462 0.0000
# 6 0.0000 0.0000 -0.0001 0.0000 0.0000 15.2669
#
#
#
# Elastic Compliance Matrix: (Units=1/GPa)
#
#
# Indices 1 2 3 4 5 6 
#
# 1 0.009603 -0.002813 -0.002243 0.000000 0.000000 0.000000
# 2 -0.002813 0.012568 -0.005173 0.000000 0.000000 0.000000
# 3 -0.002243 -0.005173 0.014733 0.000001 0.000000 0.000000
# 4 0.000000 0.000000 0.000001 -0.326729 0.000000 -0.000001
# 5 0.000000 0.000000 0.000000 0.000000 0.037956 0.000000
# 6 0.000000 0.000000 0.000000 -0.000001 0.000000 0.065501
#
#
# Mechanical properties :
#
#
# Convention : Reuss Voigt Hill
#
# Bulk Modulus (GPa) = 60.81022 61.92992 61.37007
# Shear Modulus (GPa) = -31.16702 21.07717 -5.04492
#
# Velocity S-wave (km/s) = -3.72342 3.06197 -1.49804
# Velocity P-wave (km/s) = 2.92656 6.32842 4.93019
#
# Compressibility (1/GPa) = 0.01644460
#
# Stress axis : x y z
#
# Youngs Moduli (GPa) = 104.13153 79.56713 67.87516
#
# Poissons Ratio (x) = 0.22385 0.15225
# Poissons Ratio (y) = 0.29295 0.35114
# Poissons Ratio (z) = 0.23358 0.41163
#
# Static dielectric constant tensor:
#      x y z
#    x 1.889850 0.000000 0.000000 
#    y 0.000000 1.845350 0.000000 
#    z 0.000000 0.000000 1.834450 
# 
# From -- ./inp_files/15536.got.cif
#   From: 2010.05.17/outbox.cif.g08.bks.cpg/sg73_8_cif.got.tgz:15536.got - 2010.06.03 17:35:07.
