data_PCOD9531604
_publ_section_title
;
Structure prediction by ZEFSAII (Michael W. Deem and Ramdas Pophale) SiO2 
 PCOD9531604
Probable space group: I B C A 
;
_chemical_formula_sum "Si O2"
_cell_formula_units_Z 72
_cell_length_a 17.243219
_cell_length_b 20.951102
_cell_length_c 9.031606
_cell_angle_alpha 90.000000
_cell_angle_beta 90.000000
_cell_angle_gamma 90.000000
_cell_volume 3262.798085
_symmetry_space_group_name_H-M "I B C A "
_symmetry_group_IT_number 73
_symmetry_cell_setting 'orthorhombic'
loop_
_space_group_symop_operation_xyz
x,y,z
-x,1/2-y,z
x,-y,1/2-z
1/2-x,y,-z
-x,-y,-z
x,1/2+y,-z
-x,y,1/2+z
1/2+x,-y,z
1/2+x,1/2+y,1/2+z
1/2-x,-y,1/2+z
1/2+x,1/2-y,-z
-x,1/2+y,1/2-z
1/2-x,1/2-y,1/2-z
1/2+x,y,1/2-z
1/2-x,1/2+y,z
x,1/2-y,1/2+z
loop_
_atom_site_type_symbol
_atom_site_label
_atom_site_fract_x
_atom_site_fract_y
_atom_site_fract_z
Si Si1 0.250000 0.086169 0.000000
Si Si2 0.902084 0.500000 0.250000
Si Si3 0.826179 0.000000 0.250000
Si Si4 0.532671 0.820211 0.371166
Si Si5 0.158219 0.594549 0.501041
Si Si6 0.419686 0.119141 0.925835
O O1 0.277135 0.041385 0.133930
O O2 0.172589 0.122707 0.048409
O O3 0.857719 0.451337 0.358545
O O4 0.941504 0.549325 0.362518
O O5 0.865113 0.946776 0.356206
O O6 0.500000 0.750000 0.395632
O O7 0.606041 0.843089 0.470002
O O8 0.464853 0.867653 0.424020
O O9 0.554616 0.831673 0.200914
O O10 0.250000 0.608571 0.500000
#
# Coordination Sequence:
#
# PCOD9531604 Si02
#       6
#     8   8   8  16  16  16
#     4  12  24  44  70 112 148 188 226 298 374 452
#     4  10  21  41  66 111 148 175 232 295 371 444
#     4  12  21  37  72 109 154 181 226 293 371 442
#     4  11  27  48  67  97 146 195 249 306 346 410
#     4  11  21  39  70 104 143 186 227 295 365 441
#     4  11  24  45  71  99 144 186 238 296 371 429
#
# _framework density 22.066949000000001
#
# number of rings (size 3 to 8) (size 9 to 14) (size 15 to 20)
#    0.000    0.889    3.333    4.667    3.111    4.444 
#    2.000    1.111    0.000    0.000    0.000    0.000 
#    0.000    0.000    0.000    0.000    0.000    0.000 
#
# Total GULP energy -201136.596100 kJ/mol
# GULP energy per Si atom -5587.127669 kJ/mol
# Density = 2.201672 g / cm^3
# Si number density = 22.066949 Si / 1000 Ang^3
#
#
#
# Elastic Constant Matrix: (Units=GPa)
#
#
# Indices 1 2 3 4 5 6 
#
# 1 140.5935 62.9863 50.7056 0.0000 0.0000 0.0000
# 2 62.9863 120.2152 41.6215 0.0000 0.0000 0.0000
# 3 50.7056 41.6215 139.2780 0.0000 0.0000 0.0000
# 4 0.0000 0.0000 0.0000 28.9949 0.0000 0.0000
# 5 0.0000 0.0000 0.0000 0.0000 22.6765 0.0000
# 6 0.0000 0.0000 0.0000 0.0000 0.0000 37.4657
#
#
#
# Elastic Compliance Matrix: (Units=1/GPa)
#
#
# Indices 1 2 3 4 5 6 
#
# 1 0.009910 -0.004398 -0.002294 0.000000 0.000000 0.000000
# 2 -0.004398 0.011231 -0.001755 0.000000 0.000000 0.000000
# 3 -0.002294 -0.001755 0.008539 0.000000 0.000000 0.000000
# 4 0.000000 0.000000 0.000000 0.034489 0.000000 0.000000
# 5 0.000000 0.000000 0.000000 0.000000 0.044099 0.000000
# 6 0.000000 0.000000 0.000000 0.000000 0.000000 0.026691
#
#
# Mechanical properties :
#
#
# Convention : Reuss Voigt Hill
#
# Bulk Modulus (GPa) = 78.20693 78.96819 78.58756
# Shear Modulus (GPa) = 32.02778 34.14563 33.08671
#
# Velocity S-wave (km/s) = 3.81385 3.93792 3.87638
# Velocity P-wave (km/s) = 7.41024 7.51929 7.46496
#
# Compressibility (1/GPa) = 0.01278659
#
# Stress axis : x y z
#
# Youngs Moduli (GPa) = 100.90413 89.04316 117.10581
#
# Poissons Ratio (x) = 0.39165 0.26859
# Poissons Ratio (y) = 0.44382 0.20550
# Poissons Ratio (z) = 0.23143 0.15625
#
# Static dielectric constant tensor:
#      x y z
#    x 1.883450 0.000000 0.000000 
#    y 0.000000 1.815760 0.000000 
#    z 0.000000 0.000000 1.880800 
# 
# From -- ./inp_files/5497.got.cif
#   From: 2010.05.17/outbox.cif.g08.bks.cpg/sg73_3_cif.got.tgz:5497.got - 2010.06.03 17:35:07.
