data_PCOD9531388
_publ_section_title
;
Structure prediction by ZEFSAII (Michael W. Deem and Ramdas Pophale) SiO2 
 PCOD9531388
Probable space group: I B C A 
;
_chemical_formula_sum "Si O2"
_cell_formula_units_Z 88
_cell_length_a 19.674687
_cell_length_b 14.528321
_cell_length_c 15.226385
_cell_angle_alpha 90.000000
_cell_angle_beta 90.000000
_cell_angle_gamma 90.000000
_cell_volume 4352.312451
_symmetry_space_group_name_H-M "I B C A "
_symmetry_group_IT_number 73
_symmetry_cell_setting 'orthorhombic'
loop_
_space_group_symop_operation_xyz
x,y,z
-x,1/2-y,z
x,-y,1/2-z
1/2-x,y,-z
-x,-y,-z
x,1/2+y,-z
-x,y,1/2+z
1/2+x,-y,z
1/2+x,1/2+y,1/2+z
1/2-x,-y,1/2+z
1/2+x,1/2-y,-z
-x,1/2+y,1/2-z
1/2-x,1/2-y,1/2-z
1/2+x,y,1/2-z
1/2-x,1/2+y,z
x,1/2-y,1/2+z
loop_
_atom_site_type_symbol
_atom_site_label
_atom_site_fract_x
_atom_site_fract_y
_atom_site_fract_z
Si Si1 0.837044 0.963276 0.942385
Si Si2 0.045464 0.948965 0.163299
Si Si3 0.250000 0.119275 0.500000
Si Si4 0.148033 0.767376 0.423896
Si Si5 0.587976 0.629948 0.420104
Si Si6 0.418344 0.740141 0.263523
O O1 0.862043 0.948932 0.043320
O O2 0.904997 0.982321 0.887356
O O3 0.787857 0.048877 0.934892
O O4 0.809231 0.863122 0.916055
O O5 0.089251 0.861831 0.196519
O O6 0.985672 0.912073 0.100749
O O7 0.017042 0.000000 0.250000
O O8 0.194426 0.184793 0.543971
O O9 0.093491 0.796379 0.499610
O O10 0.113782 0.748797 0.331332
O O11 0.608100 0.684657 0.332678
O O12 0.500000 0.750000 0.256971
#
# Coordination Sequence:
#
# PCOD9531388 Si02
#       6
#    16  16   8  16  16  16
#     4  10  23  41  63  93 128 171 219 262 319 379
#     4  11  19  38  66  99 132 163 200 270 334 395
#     4  12  24  44  68  82 130 186 222 268 310 366
#     4  10  23  43  64  92 130 170 219 267 315 378
#     4   9  22  39  65  97 131 160 209 266 329 395
#     4  10  21  38  65  99 131 162 204 263 333 397
#
# _framework density 20.219135999999999
#
# number of rings (size 3 to 8) (size 9 to 14) (size 15 to 20)
#    1.091    0.727    1.818    2.182    0.000    6.545 
#    0.000    5.455    0.000    0.000    0.000    0.000 
#    0.000    0.000    0.000    0.000    0.000    0.000 
#
# Total GULP energy -245217.479751 kJ/mol
# GULP energy per Si atom -5573.124540 kJ/mol
# Density = 2.017312 g / cm^3
# Si number density = 20.219136 Si / 1000 Ang^3
#
#
#
# Elastic Constant Matrix: (Units=GPa)
#
#
# Indices 1 2 3 4 5 6 
#
# 1 37.7358 21.8021 36.3801 0.0000 0.0000 0.0000
# 2 21.8021 93.9871 30.5271 0.0000 0.0000 0.0000
# 3 36.3801 30.5271 109.4352 0.0000 0.0000 0.0000
# 4 0.0000 0.0000 0.0000 14.1865 0.0000 0.0000
# 5 0.0000 0.0000 0.0000 0.0000 16.3369 0.0000
# 6 0.0000 0.0000 0.0000 0.0000 0.0000 35.5743
#
#
#
# Elastic Compliance Matrix: (Units=1/GPa)
#
#
# Indices 1 2 3 4 5 6 
#
# 1 0.041575 -0.005669 -0.012240 0.000000 0.000000 0.000000
# 2 -0.005669 0.012473 -0.001595 0.000000 0.000000 0.000000
# 3 -0.012240 -0.001595 0.013652 0.000000 0.000000 0.000000
# 4 0.000000 0.000000 0.000000 0.070490 0.000000 0.000000
# 5 0.000000 0.000000 0.000000 0.000000 0.061211 0.000000
# 6 0.000000 0.000000 0.000000 0.000000 0.000000 0.028110
#
#
# Mechanical properties :
#
#
# Convention : Reuss Voigt Hill
#
# Bulk Modulus (GPa) = 34.85169 46.50852 40.68011
# Shear Modulus (GPa) = 18.11061 23.38278 20.74669
#
# Velocity S-wave (km/s) = 2.99610 3.40438 3.20674
# Velocity P-wave (km/s) = 5.40770 6.20526 5.82016
#
# Compressibility (1/GPa) = 0.02869301
#
# Stress axis : x y z
#
# Youngs Moduli (GPa) = 24.05289 80.17501 73.25142
#
# Poissons Ratio (x) = 0.45448 0.89658
# Poissons Ratio (y) = 0.13635 0.11682
# Poissons Ratio (z) = 0.29440 0.12787
#
# Static dielectric constant tensor:
#      x y z
#    x 1.739760 0.000000 0.000000 
#    y 0.000000 1.770050 0.000000 
#    z 0.000000 0.000000 1.707980 
# 
# From -- ./inp_files/18568.got.cif
#   From: 2010.05.17/outbox.cif.g08.bks.cpg/sg73_10_cif.got.tgz:18568.got - 2010.06.03 17:35:07.
