data_PCOD9531999
_publ_section_title
;
Structure prediction by ZEFSAII (Michael W. Deem and Ramdas Pophale) SiO2 
 PCOD9531999
Probable space group: I B C A 
;
_chemical_formula_sum "Si O2"
_cell_formula_units_Z 96
_cell_length_a 9.149694
_cell_length_b 24.968647
_cell_length_c 21.565454
_cell_angle_alpha 90.000000
_cell_angle_beta 90.000000
_cell_angle_gamma 90.000000
_cell_volume 4926.746137
_symmetry_space_group_name_H-M "I B C A "
_symmetry_group_IT_number 73
_symmetry_cell_setting 'orthorhombic'
loop_
_space_group_symop_operation_xyz
x,y,z
-x,1/2-y,z
x,-y,1/2-z
1/2-x,y,-z
-x,-y,-z
x,1/2+y,-z
-x,y,1/2+z
1/2+x,-y,z
1/2+x,1/2+y,1/2+z
1/2-x,-y,1/2+z
1/2+x,1/2-y,-z
-x,1/2+y,1/2-z
1/2-x,1/2-y,1/2-z
1/2+x,y,1/2-z
1/2-x,1/2+y,z
x,1/2-y,1/2+z
loop_
_atom_site_type_symbol
_atom_site_label
_atom_site_fract_x
_atom_site_fract_y
_atom_site_fract_z
Si Si1 0.009541 0.688152 0.584224
Si Si2 0.401078 0.540799 0.579191
Si Si3 0.750876 0.444219 0.712031
Si Si4 0.750000 0.631208 0.000000
Si Si5 0.228453 0.445036 0.585631
Si Si6 0.567067 0.898272 0.810910
Si Si7 0.750000 0.151825 0.500000
O O1 0.156221 0.666341 0.549410
O O2 0.000000 0.750000 0.602687
O O3 0.976716 0.651773 0.645016
O O4 0.881612 0.682447 0.532381
O O5 0.315936 0.549910 0.643433
O O6 0.361374 0.590628 0.535143
O O7 0.337458 0.485777 0.551277
O O8 0.569430 0.531046 0.595117
O O9 0.767119 0.500000 0.750000
O O10 0.581569 0.428884 0.705857
O O11 0.840391 0.396920 0.747268
O O12 0.320790 0.430461 0.645727
O O13 0.196401 0.389305 0.552159
#
# Coordination Sequence:
#
# PCOD9531999 Si02
#       7
#    16  16  16   8  16  16   8
#     4  11  24  46  69  94 124 169 226 281 339 384
#     4  12  24  38  64  97 136 177 209 256 319 398
#     4  12  23  39  63  95 132 173 214 252 322 396
#     4  12  24  42  70  96 132 170 222 270 332 400
#     4  11  23  37  57  95 132 170 211 251 314 389
#     4  11  24  41  65  94 127 175 220 272 317 391
#     4  10  22  40  64  90 130 166 206 272 328 384
#
# _framework density 19.485476999999999
#
# number of rings (size 3 to 8) (size 9 to 14) (size 15 to 20)
#    0.000    0.667    5.000    3.500    2.333    1.333 
#    0.000    0.833    0.000    0.000    0.000    0.000 
#    0.000    0.000    0.000    0.000    0.000    0.000 
#
# Total GULP energy -267787.260493 kJ/mol
# GULP energy per Si atom -5578.901260 kJ/mol
# Density = 1.944113 g / cm^3
# Si number density = 19.485477 Si / 1000 Ang^3
#
#
#
# Elastic Constant Matrix: (Units=GPa)
#
#
# Indices 1 2 3 4 5 6 
#
# 1 137.1094 23.6432 8.7147 0.0000 0.0000 0.0000
# 2 23.6432 94.9880 24.0366 0.0000 0.0000 0.0000
# 3 8.7147 24.0366 64.9779 0.0000 0.0000 0.0000
# 4 0.0000 0.0000 0.0000 18.6570 0.0000 0.0000
# 5 0.0000 0.0000 0.0000 0.0000 31.6700 0.0000
# 6 0.0000 0.0000 0.0000 0.0000 0.0000 17.6385
#
#
#
# Elastic Compliance Matrix: (Units=1/GPa)
#
#
# Indices 1 2 3 4 5 6 
#
# 1 0.007628 -0.001809 -0.000354 0.000000 0.000000 0.000000
# 2 -0.001809 0.012044 -0.004213 0.000000 0.000000 0.000000
# 3 -0.000354 -0.004213 0.016996 0.000000 0.000000 0.000000
# 4 0.000000 0.000000 0.000000 0.053599 0.000000 0.000000
# 5 0.000000 0.000000 0.000000 0.000000 0.031576 0.000000
# 6 0.000000 0.000000 0.000000 0.000000 0.000000 0.056694
#
#
# Mechanical properties :
#
#
# Convention : Reuss Voigt Hill
#
# Bulk Modulus (GPa) = 41.81243 45.54049 43.67646
# Shear Modulus (GPa) = 25.09288 29.63849 27.36568
#
# Velocity S-wave (km/s) = 3.59245 3.90430 3.75162
# Velocity P-wave (km/s) = 6.22193 6.61415 6.42104
#
# Compressibility (1/GPa) = 0.02391633
#
# Stress axis : x y z
#
# Youngs Moduli (GPa) = 131.09775 83.02925 58.83862
#
# Poissons Ratio (x) = 0.15021 0.02082
# Poissons Ratio (y) = 0.23717 0.24787
# Poissons Ratio (z) = 0.04638 0.34977
#
# Static dielectric constant tensor:
#      x y z
#    x 1.678600 0.000000 0.000000 
#    y 0.000000 1.682330 0.000000 
#    z 0.000000 0.000000 1.810100 
# 
# From -- ./inp_files/7220.got.cif
#   From: 2010.05.17/outbox.cif.g08.bks.cpg/sg73_4_cif.got.tgz:7220.got - 2010.06.03 17:35:07.
