data_PCOD9531152
_publ_section_title
;
Structure prediction by ZEFSAII (Michael W. Deem and Ramdas Pophale) SiO2 
 PCOD9531152
Probable space group: I B C A 
;
_chemical_formula_sum "Si O2"
_cell_formula_units_Z 96
_cell_length_a 28.788346
_cell_length_b 9.008880
_cell_length_c 18.155660
_cell_angle_alpha 90.000000
_cell_angle_beta 90.000000
_cell_angle_gamma 90.000000
_cell_volume 4708.684120
_symmetry_space_group_name_H-M "I B C A "
_symmetry_group_IT_number 73
_symmetry_cell_setting 'orthorhombic'
loop_
_space_group_symop_operation_xyz
x,y,z
-x,1/2-y,z
x,-y,1/2-z
1/2-x,y,-z
-x,-y,-z
x,1/2+y,-z
-x,y,1/2+z
1/2+x,-y,z
1/2+x,1/2+y,1/2+z
1/2-x,-y,1/2+z
1/2+x,1/2-y,-z
-x,1/2+y,1/2-z
1/2-x,1/2-y,1/2-z
1/2+x,y,1/2-z
1/2-x,1/2+y,z
x,1/2-y,1/2+z
loop_
_atom_site_type_symbol
_atom_site_label
_atom_site_fract_x
_atom_site_fract_y
_atom_site_fract_z
Si Si1 0.141160 0.603516 0.497794
Si Si2 0.864543 0.233903 0.762673
Si Si3 0.705269 0.546068 0.865215
Si Si4 0.940745 0.500000 0.250000
Si Si5 0.500000 0.750000 0.343071
Si Si6 0.909171 0.155072 0.408352
Si Si7 0.302805 0.207776 0.361865
O O1 0.179785 0.549031 0.555748
O O2 0.113257 0.478813 0.453319
O O3 0.106089 0.699972 0.546156
O O4 0.168707 0.697677 0.437178
O O5 0.827824 0.134621 0.809072
O O6 0.888822 0.329991 0.825963
O O7 0.837495 0.332210 0.703929
O O8 0.902496 0.124802 0.722426
O O9 0.710464 0.376053 0.844119
O O10 0.756065 0.615655 0.867715
O O11 0.973429 0.384444 0.297204
O O12 0.463608 0.836764 0.394239
#
# Coordination Sequence:
#
# PCOD9531152 Si02
#       7
#    16  16  16   8   8  16  16
#     4  11  24  43  66  90 140 186 215 278 344 400
#     4  10  22  43  67  94 137 178 217 287 337 401
#     4  11  24  41  63  96 132 182 230 273 322 405
#     4  10  20  44  70  98 144 170 216 278 370 394
#     4  10  24  42  74 108 132 172 228 290 334 448
#     4  10  24  45  67  98 134 172 230 275 348 410
#     4  12  24  40  68  94 136 182 231 274 336 387
#
# _framework density 20.387861999999998
#
# number of rings (size 3 to 8) (size 9 to 14) (size 15 to 20)
#    0.000    1.333    3.333    1.000    4.667    5.333 
#    0.000    0.000    0.000    0.000    0.000    0.000 
#    0.000    0.000    0.000    0.000    0.000    0.000 
#
# Total GULP energy -267669.684215 kJ/mol
# GULP energy per Si atom -5576.451754 kJ/mol
# Density = 2.034146 g / cm^3
# Si number density = 20.387862 Si / 1000 Ang^3
#
#
#
# Elastic Constant Matrix: (Units=GPa)
#
#
# Indices 1 2 3 4 5 6 
#
# 1 140.2240 32.0608 51.7284 0.0000 0.0000 0.0000
# 2 32.0608 56.0312 15.1894 0.0000 0.0000 0.0000
# 3 51.7284 15.1894 77.5686 0.0000 0.0000 0.0000
# 4 0.0000 0.0000 0.0000 25.4371 0.0000 0.0000
# 5 0.0000 0.0000 0.0000 0.0000 32.9739 0.0000
# 6 0.0000 0.0000 0.0000 0.0000 0.0000 15.4792
#
#
#
# Elastic Compliance Matrix: (Units=1/GPa)
#
#
# Indices 1 2 3 4 5 6 
#
# 1 0.010345 -0.004276 -0.006062 0.000000 0.000000 0.000000
# 2 -0.004276 0.020615 -0.001185 0.000000 0.000000 0.000000
# 3 -0.006062 -0.001185 0.017166 0.000000 0.000000 0.000000
# 4 0.000000 0.000000 0.000000 0.039313 0.000000 0.000000
# 5 0.000000 0.000000 0.000000 0.000000 0.030327 0.000000
# 6 0.000000 0.000000 0.000000 0.000000 0.000000 0.064603
#
#
# Mechanical properties :
#
#
# Convention : Reuss Voigt Hill
#
# Bulk Modulus (GPa) = 39.87120 52.42011 46.14566
# Shear Modulus (GPa) = 23.38901 26.43439 24.91170
#
# Velocity S-wave (km/s) = 3.39071 3.60470 3.49934
# Velocity P-wave (km/s) = 5.91000 6.56448 6.24582
#
# Compressibility (1/GPa) = 0.02508076
#
# Stress axis : x y z
#
# Youngs Moduli (GPa) = 96.66230 48.50755 58.25401
#
# Poissons Ratio (x) = 0.20743 0.35311
# Poissons Ratio (y) = 0.41336 0.06904
# Poissons Ratio (z) = 0.58593 0.05749
#
# Static dielectric constant tensor:
#      x y z
#    x 1.776690 0.000000 0.000000 
#    y 0.000000 1.741420 0.000000 
#    z 0.000000 0.000000 1.740340 
# 
# From -- ./inp_files/27536.got.cif
#   From: 2010.05.17/outbox.cif.g08.bks.cpg/sg73_14_cif.got.tgz:27536.got - 2010.06.03 17:35:07.
