data_PCOD9531342
_publ_section_title
;
Structure prediction by ZEFSAII (Michael W. Deem and Ramdas Pophale) SiO2 
 PCOD9531342
Probable space group: I B C A 
;
_chemical_formula_sum "Si O2"
_cell_formula_units_Z 112
_cell_length_a 31.530023
_cell_length_b 13.805502
_cell_length_c 11.686000
_cell_angle_alpha 90.000000
_cell_angle_beta 90.000000
_cell_angle_gamma 90.000000
_cell_volume 5086.773179
_symmetry_space_group_name_H-M "I B C A "
_symmetry_group_IT_number 73
_symmetry_cell_setting 'orthorhombic'
loop_
_space_group_symop_operation_xyz
x,y,z
-x,1/2-y,z
x,-y,1/2-z
1/2-x,y,-z
-x,-y,-z
x,1/2+y,-z
-x,y,1/2+z
1/2+x,-y,z
1/2+x,1/2+y,1/2+z
1/2-x,-y,1/2+z
1/2+x,1/2-y,-z
-x,1/2+y,1/2-z
1/2-x,1/2-y,1/2-z
1/2+x,y,1/2-z
1/2-x,1/2+y,z
x,1/2-y,1/2+z
loop_
_atom_site_type_symbol
_atom_site_label
_atom_site_fract_x
_atom_site_fract_y
_atom_site_fract_z
Si Si1 0.141273 0.568061 0.852581
Si Si2 0.733750 0.365783 0.871416
Si Si3 0.305871 0.661668 0.702370
Si Si4 0.468737 0.331983 0.709155
Si Si5 0.968805 0.540971 0.903381
Si Si6 0.124932 0.913367 0.977070
Si Si7 0.121371 0.769358 0.194382
O O1 0.125155 0.500000 0.750000
O O2 0.191836 0.572043 0.851077
O O3 0.128761 0.521162 0.970998
O O4 0.124702 0.671835 0.814677
O O5 0.768651 0.388191 0.774751
O O6 0.717534 0.254091 0.856306
O O7 0.750000 0.379994 0.000000
O O8 0.336823 0.608456 0.611403
O O9 0.338339 0.699730 0.799351
O O10 0.500000 0.250000 0.659586
O O11 0.488950 0.371154 0.829170
O O12 0.461237 0.437761 0.656599
O O13 0.423036 0.283182 0.701341
O O14 0.922985 0.587017 0.931401
O O15 0.000000 0.500000 0.000000
O O16 0.126836 0.838575 0.084247
#
# Coordination Sequence:
#
# PCOD9531342 Si02
#       7
#    16  16  16  16  16  16  16
#     4   9  22  40  59  93 129 172 227 281 348 417
#     4  10  21  38  60  92 129 178 229 282 353 432
#     4  10  21  39  64  95 130 174 234 293 347 431
#     4  11  25  45  69  98 138 181 227 288 359 432
#     4  11  26  45  66 105 140 173 236 293 355 437
#     4  11  22  41  69  97 137 183 232 304 356 431
#     4  10  21  42  67  94 130 180 230 279 358 432
#
# _framework density 22.017887999999999
#
# number of rings (size 3 to 8) (size 9 to 14) (size 15 to 20)
#    0.000    1.714    1.429    1.714    2.000    7.429 
#    0.000    0.000    0.000    0.000    0.000    0.000 
#    0.000    0.000    0.000    0.000    0.000    0.000 
#
# Total GULP energy -312059.761729 kJ/mol
# GULP energy per Si atom -5572.495745 kJ/mol
# Density = 2.196777 g / cm^3
# Si number density = 22.017888 Si / 1000 Ang^3
#
#
#
# Elastic Constant Matrix: (Units=GPa)
#
#
# Indices 1 2 3 4 5 6 
#
# 1 78.4257 18.7923 15.9075 0.0000 0.0000 0.0000
# 2 18.7923 33.6721 13.5063 0.0000 0.0000 0.0000
# 3 15.9075 13.5063 70.6872 0.0000 0.0000 0.0000
# 4 0.0000 0.0000 0.0000 20.8368 0.0000 0.0000
# 5 0.0000 0.0000 0.0000 0.0000 22.7096 0.0000
# 6 0.0000 0.0000 0.0000 0.0000 0.0000 41.0265
#
#
#
# Elastic Compliance Matrix: (Units=1/GPa)
#
#
# Indices 1 2 3 4 5 6 
#
# 1 0.014956 -0.007577 -0.001918 0.000000 0.000000 0.000000
# 2 -0.007577 0.036002 -0.005174 0.000000 0.000000 0.000000
# 3 -0.001918 -0.005174 0.015567 0.000000 0.000000 0.000000
# 4 0.000000 0.000000 0.000000 0.047992 0.000000 0.000000
# 5 0.000000 0.000000 0.000000 0.000000 0.044034 0.000000
# 6 0.000000 0.000000 0.000000 0.000000 0.000000 0.024374
#
#
# Mechanical properties :
#
#
# Convention : Reuss Voigt Hill
#
# Bulk Modulus (GPa) = 26.89117 31.02191 28.95654
# Shear Modulus (GPa) = 22.25590 25.88649 24.07119
#
# Velocity S-wave (km/s) = 3.18277 3.43257 3.31003
# Velocity P-wave (km/s) = 5.07411 5.46169 5.27146
#
# Compressibility (1/GPa) = 0.03718693
#
# Stress axis : x y z
#
# Youngs Moduli (GPa) = 66.86448 27.77594 64.23850
#
# Poissons Ratio (x) = 0.21047 0.12320
# Poissons Ratio (y) = 0.50666 0.33236
# Poissons Ratio (z) = 0.12823 0.14371
#
# Static dielectric constant tensor:
#      x y z
#    x 1.740890 0.000000 0.000000 
#    y 0.000000 1.807020 0.000000 
#    z 0.000000 0.000000 1.963650 
# 
# From -- ./inp_files/14823.got.cif
#   From: 2010.05.17/outbox.cif.g08.bks.cpg/sg73_8_cif.got.tgz:14823.got - 2010.06.03 17:35:07.
