data_PCOD9531763
_publ_section_title
;
Structure prediction by ZEFSAII (Michael W. Deem and Ramdas Pophale) SiO2 
 PCOD9531763
Probable space group: I B C A 
;
_chemical_formula_sum "Si O2"
_cell_formula_units_Z 72
_cell_length_a 13.154498
_cell_length_b 23.081682
_cell_length_c 10.281023
_cell_angle_alpha 90.000000
_cell_angle_beta 90.000000
_cell_angle_gamma 90.000000
_cell_volume 3121.605832
_symmetry_space_group_name_H-M "I B C A "
_symmetry_group_IT_number 73
_symmetry_cell_setting 'orthorhombic'
loop_
_space_group_symop_operation_xyz
x,y,z
-x,1/2-y,z
x,-y,1/2-z
1/2-x,y,-z
-x,-y,-z
x,1/2+y,-z
-x,y,1/2+z
1/2+x,-y,z
1/2+x,1/2+y,1/2+z
1/2-x,-y,1/2+z
1/2+x,1/2-y,-z
-x,1/2+y,1/2-z
1/2-x,1/2-y,1/2-z
1/2+x,y,1/2-z
1/2-x,1/2+y,z
x,1/2-y,1/2+z
loop_
_atom_site_type_symbol
_atom_site_label
_atom_site_fract_x
_atom_site_fract_y
_atom_site_fract_z
Si Si1 0.129955 0.109145 0.902229
Si Si2 0.591498 0.643050 0.934027
Si Si3 0.750000 0.436468 0.500000
Si Si4 0.174978 0.162568 0.164967
Si Si5 0.500000 0.750000 0.081350
Si Si6 0.722156 0.500000 0.250000
O O1 0.203836 0.163623 0.864488
O O2 0.012683 0.119010 0.876125
O O3 0.163059 0.052014 0.824951
O O4 0.141189 0.112512 0.060759
O O5 0.649799 0.600985 0.032336
O O6 0.668220 0.648757 0.815473
O O7 0.560668 0.702999 0.997893
O O8 0.779889 0.472625 0.372566
O O9 0.091687 0.213740 0.148983
#
# Coordination Sequence:
#
# PCOD9531763 Si02
#       6
#    16  16   8  16   8   8
#     4  10  24  43  70 100 143 187 238 295 360 423
#     4  11  25  45  70 108 140 188 239 302 355 452
#     4  12  28  46  76 108 148 184 252 294 360 442
#     4  10  21  46  68 101 146 179 235 304 346 442
#     4  10  24  42  76 106 140 194 234 290 390 412
#     4  12  26  48  74 108 144 202 234 304 370 414
#
# _framework density 23.065052000000001
#
# number of rings (size 3 to 8) (size 9 to 14) (size 15 to 20)
#    0.000    1.333    2.222    2.000    6.222    5.333 
#    0.000   12.222    0.000    0.000    0.000    0.000 
#    0.000    0.000    0.000    0.000    0.000    0.000 
#
# Total GULP energy -200593.373450 kJ/mol
# GULP energy per Si atom -5572.038151 kJ/mol
# Density = 2.301256 g / cm^3
# Si number density = 23.065052 Si / 1000 Ang^3
#
#
#
# Elastic Constant Matrix: (Units=GPa)
#
#
# Indices 1 2 3 4 5 6 
#
# 1 134.5489 38.2564 2.9366 0.0001 0.0000 0.0000
# 2 38.2564 108.5185 20.8874 0.0002 0.0000 0.0000
# 3 2.9366 20.8874 64.8640 0.0000 0.0000 -0.0002
# 4 0.0001 0.0002 0.0000 29.2744 0.0000 -0.0001
# 5 0.0000 0.0000 0.0000 0.0000 25.1701 0.0000
# 6 0.0000 0.0000 -0.0002 -0.0001 0.0000 25.8981
#
#
#
# Elastic Compliance Matrix: (Units=1/GPa)
#
#
# Indices 1 2 3 4 5 6 
#
# 1 0.008282 -0.003036 0.000603 0.000000 0.000000 0.000000
# 2 -0.003036 0.010937 -0.003384 0.000000 0.000000 0.000000
# 3 0.000603 -0.003384 0.016479 0.000000 0.000000 0.000000
# 4 0.000000 0.000000 0.000000 0.034159 0.000000 0.000000
# 5 0.000000 0.000000 0.000000 0.000000 0.039730 0.000000
# 6 0.000000 0.000000 0.000000 0.000000 0.000000 0.038613
#
#
# Mechanical properties :
#
#
# Convention : Reuss Voigt Hill
#
# Bulk Modulus (GPa) = 41.55711 48.01026 44.78369
# Shear Modulus (GPa) = 29.78736 32.45860 31.12298
#
# Velocity S-wave (km/s) = 3.59757 3.75542 3.67734
# Velocity P-wave (km/s) = 5.94249 6.29798 6.12282
#
# Compressibility (1/GPa) = 0.02406327
#
# Stress axis : x y z
#
# Youngs Moduli (GPa) = 120.74019 91.43576 60.68177
#
# Poissons Ratio (x) = 0.27758 -0.03657
# Poissons Ratio (y) = 0.36654 0.20537
# Poissons Ratio (z) = -0.07276 0.30945
#
# Static dielectric constant tensor:
#      x y z
#    x 1.916190 0.000000 0.000000 
#    y 0.000000 1.944000 0.000000 
#    z 0.000000 0.000000 1.895290 
# 
# From -- ./inp_files/10672.got.cif
#   From: 2010.05.17/outbox.cif.g08.bks.cpg/sg73_6_cif.got.tgz:10672.got - 2010.06.03 17:35:07.
