data_PCOD9531451
_publ_section_title
;
Structure prediction by ZEFSAII (Michael W. Deem and Ramdas Pophale) SiO2 
 PCOD9531451
Probable space group: I B C A 
;
_chemical_formula_sum "Si O2"
_cell_formula_units_Z 120
_cell_length_a 22.528898
_cell_length_b 26.513197
_cell_length_c 9.278081
_cell_angle_alpha 90.000000
_cell_angle_beta 90.000000
_cell_angle_gamma 90.000000
_cell_volume 5541.919425
_symmetry_space_group_name_H-M "I B C A "
_symmetry_group_IT_number 73
_symmetry_cell_setting 'orthorhombic'
loop_
_space_group_symop_operation_xyz
x,y,z
-x,1/2-y,z
x,-y,1/2-z
1/2-x,y,-z
-x,-y,-z
x,1/2+y,-z
-x,y,1/2+z
1/2+x,-y,z
1/2+x,1/2+y,1/2+z
1/2-x,-y,1/2+z
1/2+x,1/2-y,-z
-x,1/2+y,1/2-z
1/2-x,1/2-y,1/2-z
1/2+x,y,1/2-z
1/2-x,1/2+y,z
x,1/2-y,1/2+z
loop_
_atom_site_type_symbol
_atom_site_label
_atom_site_fract_x
_atom_site_fract_y
_atom_site_fract_z
Si Si1 0.055905 0.046944 0.541483
Si Si2 0.554205 0.932829 0.879909
Si Si3 0.500000 0.750000 0.602404
Si Si4 0.349321 0.119109 0.551834
Si Si5 0.414670 0.713880 0.353552
Si Si6 0.208481 0.224403 0.867060
Si Si7 0.240185 0.546532 0.664328
Si Si8 0.331828 0.618603 0.779165
O O1 0.045460 0.057082 0.709983
O O2 0.116421 0.067510 0.478596
O O3 0.007670 0.080310 0.454429
O O4 0.061704 0.986347 0.536343
O O5 0.609397 0.894920 0.872406
O O6 0.457690 0.719272 0.492702
O O7 0.545224 0.722043 0.711743
O O8 0.384932 0.159444 0.641519
O O9 0.292961 0.099897 0.639829
O O10 0.341921 0.138135 0.386566
O O11 0.358490 0.752474 0.364405
O O12 0.250000 0.250000 0.750000
O O13 0.201926 0.164239 0.852954
O O14 0.250000 0.236607 0.000000
O O15 0.212258 0.500000 0.750000
O O16 0.250000 0.529211 0.500000
O O17 0.298164 0.565287 0.752554
#
# Coordination Sequence:
#
# PCOD9531451 Si02
#       8
#    16  16   8  16  16  16  16  16
#     4   9  19  36  58  87 118 163 203 259 319 382
#     4   9  19  37  60  85 123 157 209 258 319 383
#     4  10  24  42  68 100 134 172 222 280 346 396
#     4  10  21  39  64  91 126 171 214 263 339 387
#     4  11  23  43  68  97 137 173 222 279 339 414
#     4  12  25  44  69  99 137 177 226 282 344 412
#     4  10  23  41  63  90 128 172 221 273 331 392
#     4  10  22  39  65  93 124 171 216 271 330 394
#
# _framework density 21.653147000000001
#
# number of rings (size 3 to 8) (size 9 to 14) (size 15 to 20)
#    0.000    1.867    0.000    3.200    5.600    5.867 
#    4.800    1.333    0.000    0.000    0.000    0.000 
#    0.000    0.000    0.000    0.000    0.000    0.000 
#
# Total GULP energy -334122.557435 kJ/mol
# GULP energy per Si atom -5568.709291 kJ/mol
# Density = 2.160386 g / cm^3
# Si number density = 21.653147 Si / 1000 Ang^3
#
#
#
# Elastic Constant Matrix: (Units=GPa)
#
#
# Indices 1 2 3 4 5 6 
#
# 1 93.5881 20.6200 28.7011 0.0000 0.0000 0.0000
# 2 20.6200 56.9035 31.3161 0.0000 0.0000 0.0000
# 3 28.7011 31.3161 50.7261 0.0000 0.0000 0.0000
# 4 0.0000 0.0000 0.0000 8.4986 0.0000 0.0000
# 5 0.0000 0.0000 0.0000 0.0000 23.7121 0.0000
# 6 0.0000 0.0000 0.0000 0.0000 0.0000 30.8208
#
#
#
# Elastic Compliance Matrix: (Units=1/GPa)
#
#
# Indices 1 2 3 4 5 6 
#
# 1 0.012966 -0.001001 -0.006718 0.000000 0.000000 0.000000
# 2 -0.001001 0.026694 -0.015913 0.000000 0.000000 0.000000
# 3 -0.006718 -0.015913 0.033339 0.000000 0.000000 0.000000
# 4 0.000000 0.000000 0.000000 0.117666 0.000000 0.000000
# 5 0.000000 0.000000 0.000000 0.000000 0.042172 0.000000
# 6 0.000000 0.000000 0.000000 0.000000 0.000000 0.032446
#
#
# Mechanical properties :
#
#
# Convention : Reuss Voigt Hill
#
# Bulk Modulus (GPa) = 38.85926 40.27687 39.56807
# Shear Modulus (GPa) = 15.57020 20.64501 18.10761
#
# Velocity S-wave (km/s) = 2.68446 3.09113 2.89495
# Velocity P-wave (km/s) = 5.25297 5.60192 5.43025
#
# Compressibility (1/GPa) = 0.02573389
#
# Stress axis : x y z
#
# Youngs Moduli (GPa) = 77.12484 37.46148 29.99491
#
# Poissons Ratio (x) = 0.03751 0.20151
# Poissons Ratio (y) = 0.07722 0.47732
# Poissons Ratio (z) = 0.51813 0.59613
#
# Static dielectric constant tensor:
#      x y z
#    x 1.889520 0.000000 0.000000 
#    y 0.000000 1.773380 0.000000 
#    z 0.000000 0.000000 1.752900 
# 
# From -- ./inp_files/7405.got.cif
#   From: 2010.05.17/outbox.cif.g08.bks.cpg/sg73_4_cif.got.tgz:7405.got - 2010.06.03 17:35:07.
