data_PCOD9531695
_publ_section_title
;
Structure prediction by ZEFSAII (Michael W. Deem and Ramdas Pophale) SiO2 
 PCOD9531695
Probable space group: I B C A 
;
_chemical_formula_sum "Si O2"
_cell_formula_units_Z 88
_cell_length_a 20.269874
_cell_length_b 12.081280
_cell_length_c 15.087870
_cell_angle_alpha 90.000000
_cell_angle_beta 90.000000
_cell_angle_gamma 90.000000
_cell_volume 3694.808485
_symmetry_space_group_name_H-M "I B C A "
_symmetry_group_IT_number 73
_symmetry_cell_setting 'orthorhombic'
loop_
_space_group_symop_operation_xyz
x,y,z
-x,1/2-y,z
x,-y,1/2-z
1/2-x,y,-z
-x,-y,-z
x,1/2+y,-z
-x,y,1/2+z
1/2+x,-y,z
1/2+x,1/2+y,1/2+z
1/2-x,-y,1/2+z
1/2+x,1/2-y,-z
-x,1/2+y,1/2-z
1/2-x,1/2-y,1/2-z
1/2+x,y,1/2-z
1/2-x,1/2+y,z
x,1/2-y,1/2+z
loop_
_atom_site_type_symbol
_atom_site_label
_atom_site_fract_x
_atom_site_fract_y
_atom_site_fract_z
Si Si1 0.937169 0.097683 0.905455
Si Si2 0.668659 0.877046 0.707495
Si Si3 0.057165 0.963014 0.896293
Si Si4 0.708608 0.474702 0.645466
Si Si5 0.250000 0.154591 0.000000
Si Si6 0.366636 0.192821 0.111043
O O1 0.862533 0.056276 0.891486
O O2 0.928257 0.225613 0.882751
O O3 0.990304 0.017738 0.859034
O O4 0.955795 0.089464 0.008582
O O5 0.732473 0.882695 0.644886
O O6 0.668805 0.799615 0.792887
O O7 0.669083 0.000000 0.750000
O O8 0.598318 0.873876 0.659623
O O9 0.105792 0.069362 0.906172
O O10 0.698863 0.500000 0.750000
O O11 0.733384 0.576221 0.584602
O O12 0.184495 0.217700 0.968026
#
# Coordination Sequence:
#
# PCOD9531695 Si02
#       6
#    16  16  16  16   8  16
#     4  11  24  38  65  98 128 175 225 283 335 406
#     4   9  18  38  66  87 124 176 215 272 341 394
#     4  10  21  43  64  88 133 178 221 275 346 400
#     4  11  20  39  63  94 130 174 218 277 343 400
#     4  12  20  40  66  98 134 182 216 280 338 408
#     4  11  22  40  66  95 130 174 228 273 334 404
#
# _framework density 23.817202000000002
#
# number of rings (size 3 to 8) (size 9 to 14) (size 15 to 20)
#    0.000    1.455    7.273    0.545    0.000    5.091 
#    3.273    0.000    0.000   10.909    0.000    0.000 
#    0.000    0.000    0.000    0.000    0.000    0.000 
#
# Total GULP energy -245550.951681 kJ/mol
# GULP energy per Si atom -5580.703447 kJ/mol
# Density = 2.376299 g / cm^3
# Si number density = 23.817202 Si / 1000 Ang^3
#
#
#
# Elastic Constant Matrix: (Units=GPa)
#
#
# Indices 1 2 3 4 5 6 
#
# 1 151.5880 13.6873 36.4643 0.0000 0.0000 0.0000
# 2 13.6873 29.2005 18.3762 0.0000 0.0000 0.0000
# 3 36.4643 18.3762 88.5451 0.0000 0.0000 0.0000
# 4 0.0000 0.0000 0.0000 19.2517 0.0000 0.0000
# 5 0.0000 0.0000 0.0000 0.0000 22.8846 0.0000
# 6 0.0000 0.0000 0.0000 0.0000 0.0000 33.5257
#
#
#
# Elastic Compliance Matrix: (Units=1/GPa)
#
#
# Indices 1 2 3 4 5 6 
#
# 1 0.007402 -0.001784 -0.002678 0.000000 0.000000 0.000000
# 2 -0.001784 0.039821 -0.007529 0.000000 0.000000 0.000000
# 3 -0.002678 -0.007529 0.013959 0.000000 0.000000 0.000000
# 4 0.000000 0.000000 0.000000 0.051944 0.000000 0.000000
# 5 0.000000 0.000000 0.000000 0.000000 0.043697 0.000000
# 6 0.000000 0.000000 0.000000 0.000000 0.000000 0.029828
#
#
# Mechanical properties :
#
#
# Convention : Reuss Voigt Hill
#
# Bulk Modulus (GPa) = 26.88280 45.15437 36.01859
# Shear Modulus (GPa) = 22.41811 28.51943 25.46877
#
# Velocity S-wave (km/s) = 3.07132 3.46414 3.27363
# Velocity P-wave (km/s) = 4.88764 5.91610 5.42629
#
# Compressibility (1/GPa) = 0.03719851
#
# Stress axis : x y z
#
# Youngs Moduli (GPa) = 135.09615 25.11257 71.63765
#
# Poissons Ratio (x) = 0.04481 0.19185
# Poissons Ratio (y) = 0.24106 0.53939
# Poissons Ratio (z) = 0.36179 0.18908
#
# Static dielectric constant tensor:
#      x y z
#    x 2.033380 0.000000 0.000000 
#    y 0.000000 1.982750 0.000000 
#    z 0.000000 0.000000 1.938860 
# 
# From -- ./inp_files/18546.got.cif
#   From: 2010.05.17/outbox.cif.g08.bks.cpg/sg73_10_cif.got.tgz:18546.got - 2010.06.03 17:35:07.
