data_PCOD9531982
_publ_section_title
;
Structure prediction by ZEFSAII (Michael W. Deem and Ramdas Pophale) SiO2 
 PCOD9531982
Probable space group: I B C A 
;
_chemical_formula_sum "Si O2"
_cell_formula_units_Z 120
_cell_length_a 21.529344
_cell_length_b 8.969721
_cell_length_c 28.970967
_cell_angle_alpha 90.000000
_cell_angle_beta 90.000000
_cell_angle_gamma 90.000000
_cell_volume 5594.647434
_symmetry_space_group_name_H-M "I B C A "
_symmetry_group_IT_number 73
_symmetry_cell_setting 'orthorhombic'
loop_
_space_group_symop_operation_xyz
x,y,z
-x,1/2-y,z
x,-y,1/2-z
1/2-x,y,-z
-x,-y,-z
x,1/2+y,-z
-x,y,1/2+z
1/2+x,-y,z
1/2+x,1/2+y,1/2+z
1/2-x,-y,1/2+z
1/2+x,1/2-y,-z
-x,1/2+y,1/2-z
1/2-x,1/2-y,1/2-z
1/2+x,y,1/2-z
1/2-x,1/2+y,z
x,1/2-y,1/2+z
loop_
_atom_site_type_symbol
_atom_site_label
_atom_site_fract_x
_atom_site_fract_y
_atom_site_fract_z
Si Si1 0.437203 0.848806 0.969197
Si Si2 0.336751 0.227024 0.102641
Si Si3 0.520432 0.588055 0.069032
Si Si4 0.250000 0.472292 0.500000
Si Si5 0.879140 0.585030 0.865890
Si Si6 0.824867 0.734703 0.290143
Si Si7 0.310263 0.118248 0.692768
Si Si8 0.200961 0.770689 0.938700
O O1 0.500000 0.750000 0.967353
O O2 0.383095 0.767098 0.940138
O O3 0.459338 0.998192 0.944307
O O4 0.434788 0.894003 0.023532
O O5 0.343772 0.337502 0.145602
O O6 0.267253 0.250691 0.085377
O O7 0.338653 0.062694 0.125387
O O8 0.500000 0.750000 0.082502
O O9 0.556437 0.527193 0.113015
O O10 0.200885 0.369304 0.527089
O O11 0.290201 0.579024 0.532200
O O12 0.875803 0.667661 0.817275
O O13 0.851680 0.709084 0.901161
O O14 0.761600 0.825974 0.302747
O O15 0.838394 0.711426 0.235930
O O16 0.814180 0.561096 0.303916
#
# Coordination Sequence:
#
# PCOD9531982 Si02
#       8
#    16  16  16   8  16  16  16  16
#     4  10  22  44  62  87 125 167 218 256 308 364
#     4  12  24  38  65  91 126 164 207 261 312 380
#     4  10  24  42  64  91 121 169 217 263 306 362
#     4  10  24  38  48  76 132 170 200 236 302 378
#     4  12  24  39  63  93 128 159 212 259 310 382
#     4  10  22  40  62  92 130 159 203 251 313 387
#     4  10  22  40  62  93 127 164 198 252 314 381
#     4  11  24  38  54  89 124 164 204 247 313 371
#
# _framework density 21.449074
#
# number of rings (size 3 to 8) (size 9 to 14) (size 15 to 20)
#    0.000    1.333    4.000    0.800    7.467    1.600 
#    0.000    0.000    0.000    0.800    0.000    0.000 
#    0.000    0.000    0.000    0.000    0.000    0.000 
#
# Total GULP energy -334769.306516 kJ/mol
# GULP energy per Si atom -5579.488442 kJ/mol
# Density = 2.140025 g / cm^3
# Si number density = 21.449074 Si / 1000 Ang^3
#
#
#
# Elastic Constant Matrix: (Units=GPa)
#
#
# Indices 1 2 3 4 5 6 
#
# 1 38.1204 -8.3461 14.7394 0.0000 0.0000 0.0000
# 2 -8.3461 69.8433 13.7084 0.0000 0.0000 0.0000
# 3 14.7394 13.7084 83.6459 0.0000 0.0000 0.0000
# 4 0.0000 0.0000 0.0000 27.5576 0.0000 0.0000
# 5 0.0000 0.0000 0.0000 0.0000 20.3611 0.0000
# 6 0.0000 0.0000 0.0000 0.0000 0.0000 -1.1365
#
#
#
# Elastic Compliance Matrix: (Units=1/GPa)
#
#
# Indices 1 2 3 4 5 6 
#
# 1 0.029577 0.004709 -0.005984 0.000000 0.000000 0.000000
# 2 0.004709 0.015543 -0.003377 0.000000 0.000000 0.000000
# 3 -0.005984 -0.003377 0.013563 0.000000 0.000000 0.000000
# 4 0.000000 0.000000 0.000000 0.036288 0.000000 0.000000
# 5 0.000000 0.000000 0.000000 0.000000 0.049113 0.000000
# 6 0.000000 0.000000 0.000000 0.000000 0.000000 -0.879883
#
#
# Mechanical properties :
#
#
# Convention : Reuss Voigt Hill
#
# Bulk Modulus (GPa) = 20.25120 25.75700 23.00410
# Shear Modulus (GPa) = -7.04190 20.79030 6.87420
#
# Velocity S-wave (km/s) = -1.81389 3.11671 1.79216
# Velocity P-wave (km/s) = 2.25279 4.99864 3.87695
#
# Compressibility (1/GPa) = 0.04937980
#
# Stress axis : x y z
#
# Youngs Moduli (GPa) = 33.80987 64.33646 73.73013
#
# Poissons Ratio (x) = -0.30295 0.44117
# Poissons Ratio (y) = -0.15920 0.24899
# Poissons Ratio (z) = 0.20230 0.21727
#
# Static dielectric constant tensor:
#      x y z
#    x 1.867200 0.000000 0.000000 
#    y 0.000000 1.795220 0.000000 
#    z 0.000000 0.000000 1.816880 
# 
# From -- ./inp_files/34817.got.cif
#   From: 2010.05.17/outbox.cif.g08.bks.cpg/sg73_18_cif.got.tgz:34817.got - 2010.06.03 17:35:07.
