data_PCOD9531673
_publ_section_title
;
Structure prediction by ZEFSAII (Michael W. Deem and Ramdas Pophale) SiO2 
 PCOD9531673
Probable space group: I B C A 
;
_chemical_formula_sum "Si O2"
_cell_formula_units_Z 112
_cell_length_a 31.706422
_cell_length_b 14.292633
_cell_length_c 10.890353
_cell_angle_alpha 90.000000
_cell_angle_beta 90.000000
_cell_angle_gamma 90.000000
_cell_volume 4935.162248
_symmetry_space_group_name_H-M "I B C A "
_symmetry_group_IT_number 73
_symmetry_cell_setting 'orthorhombic'
loop_
_space_group_symop_operation_xyz
x,y,z
-x,1/2-y,z
x,-y,1/2-z
1/2-x,y,-z
-x,-y,-z
x,1/2+y,-z
-x,y,1/2+z
1/2+x,-y,z
1/2+x,1/2+y,1/2+z
1/2-x,-y,1/2+z
1/2+x,1/2-y,-z
-x,1/2+y,1/2-z
1/2-x,1/2-y,1/2-z
1/2+x,y,1/2-z
1/2-x,1/2+y,z
x,1/2-y,1/2+z
loop_
_atom_site_type_symbol
_atom_site_label
_atom_site_fract_x
_atom_site_fract_y
_atom_site_fract_z
Si Si1 0.126503 0.754273 0.641847
Si Si2 0.724290 0.759772 0.876642
Si Si3 0.023027 0.020166 0.126604
Si Si4 0.454951 0.729159 0.180575
Si Si5 0.571654 0.379781 0.506238
Si Si6 0.281630 0.518605 0.896396
Si Si7 0.373150 0.472462 0.609832
O O1 0.176020 0.729617 0.657871
O O2 0.089473 0.744642 0.746599
O O3 0.110858 0.684497 0.538122
O O4 0.123491 0.861599 0.598492
O O5 0.750000 0.750000 0.750000
O O6 0.719199 0.869616 0.901960
O O7 0.750000 0.724637 0.000000
O O8 0.042654 0.123744 0.126965
O O9 0.996443 0.000000 0.250000
O O10 0.053839 0.929057 0.128504
O O11 0.000000 0.000000 0.000000
O O12 0.500000 0.750000 0.250427
O O13 0.456270 0.810069 0.075009
O O14 0.587497 0.471074 0.437395
O O15 0.273827 0.500000 0.750000
O O16 0.328474 0.491167 0.940338
O O17 0.250000 0.482204 0.000000
O O18 0.369443 0.500000 0.750000
#
# Coordination Sequence:
#
# PCOD9531673 Si02
#       7
#    16  16  16  16  16  16  16
#     4  11  25  45  73 106 153 192 258 317 380 471
#     4  10  24  44  72 105 143 191 245 310 385 456
#     4  12  27  51  73 106 152 197 255 314 375 450
#     4  12  26  47  77 110 148 204 255 309 386 460
#     4  12  25  44  73 104 143 199 249 318 374 452
#     4   9  20  39  63  97 138 181 241 303 368 460
#     4  10  21  42  69  98 138 197 246 300 387 452
#
# _framework density 22.694289999999999
#
# number of rings (size 3 to 8) (size 9 to 14) (size 15 to 20)
#    0.000    1.143    4.286    0.857    2.000    5.143 
#    2.571    0.714    0.000    0.000    0.000    0.000 
#    0.000    0.000    0.000    0.000    0.000    0.000 
#
# Total GULP energy -311798.256834 kJ/mol
# GULP energy per Si atom -5567.826015 kJ/mol
# Density = 2.264264 g / cm^3
# Si number density = 22.694290 Si / 1000 Ang^3
#
#
#
# Elastic Constant Matrix: (Units=GPa)
#
#
# Indices 1 2 3 4 5 6 
#
# 1 164.9617 44.3711 67.6566 0.0000 0.0000 0.0000
# 2 44.3711 122.0503 38.0675 0.0000 0.0000 0.0000
# 3 67.6566 38.0675 87.5818 0.0000 0.0000 0.0000
# 4 0.0000 0.0000 0.0000 20.1769 0.0000 0.0000
# 5 0.0000 0.0000 0.0000 0.0000 47.3779 0.0000
# 6 0.0000 0.0000 0.0000 0.0000 0.0000 24.6176
#
#
#
# Elastic Compliance Matrix: (Units=1/GPa)
#
#
# Indices 1 2 3 4 5 6 
#
# 1 0.009044 -0.001283 -0.006429 0.000000 0.000000 0.000000
# 2 -0.001283 0.009660 -0.003208 0.000000 0.000000 0.000000
# 3 -0.006429 -0.003208 0.017778 0.000000 0.000000 0.000000
# 4 0.000000 0.000000 0.000000 0.049562 0.000000 0.000000
# 5 0.000000 0.000000 0.000000 0.000000 0.021107 0.000000
# 6 0.000000 0.000000 0.000000 0.000000 0.000000 0.040621
#
#
# Mechanical properties :
#
#
# Convention : Reuss Voigt Hill
#
# Bulk Modulus (GPa) = 68.28912 74.97602 71.63257
# Shear Modulus (GPa) = 28.65463 33.40107 31.02785
#
# Velocity S-wave (km/s) = 3.55721 3.84054 3.70159
# Velocity P-wave (km/s) = 6.85769 7.26467 7.06411
#
# Compressibility (1/GPa) = 0.01464362
#
# Stress axis : x y z
#
# Youngs Moduli (GPa) = 110.57479 103.51729 56.24818
#
# Poissons Ratio (x) = 0.13278 0.36160
# Poissons Ratio (y) = 0.14183 0.18044
# Poissons Ratio (z) = 0.71085 0.33208
#
# Static dielectric constant tensor:
#      x y z
#    x 2.095810 0.000000 0.000000 
#    y 0.000000 1.844380 0.000000 
#    z 0.000000 0.000000 1.894150 
# 
# From -- ./inp_files/14787.got.cif
#   From: 2010.05.17/outbox.cif.g08.bks.cpg/sg73_8_cif.got.tgz:14787.got - 2010.06.03 17:35:07.
