data_PCOD9531044
_publ_section_title
;
Structure prediction by ZEFSAII (Michael W. Deem and Ramdas Pophale) SiO2 
 PCOD9531044
Probable space group: I B C A 
;
_chemical_formula_sum "Si O2"
_cell_formula_units_Z 88
_cell_length_a 17.339426
_cell_length_b 19.371145
_cell_length_c 12.182377
_cell_angle_alpha 90.000000
_cell_angle_beta 90.000000
_cell_angle_gamma 90.000000
_cell_volume 4091.872037
_symmetry_space_group_name_H-M "I B C A "
_symmetry_group_IT_number 73
_symmetry_cell_setting 'orthorhombic'
loop_
_space_group_symop_operation_xyz
x,y,z
-x,1/2-y,z
x,-y,1/2-z
1/2-x,y,-z
-x,-y,-z
x,1/2+y,-z
-x,y,1/2+z
1/2+x,-y,z
1/2+x,1/2+y,1/2+z
1/2-x,-y,1/2+z
1/2+x,1/2-y,-z
-x,1/2+y,1/2-z
1/2-x,1/2-y,1/2-z
1/2+x,y,1/2-z
1/2-x,1/2+y,z
x,1/2-y,1/2+z
loop_
_atom_site_type_symbol
_atom_site_label
_atom_site_fract_x
_atom_site_fract_y
_atom_site_fract_z
Si Si1 0.669346 0.377715 0.945853
Si Si2 0.311215 0.131273 0.697184
Si Si3 0.864173 0.610215 0.876964
Si Si4 0.089948 0.978934 0.090681
Si Si5 0.547279 0.500000 0.250000
Si Si6 0.343329 0.264944 0.014464
O O1 0.690636 0.350269 0.824423
O O2 0.616235 0.443707 0.933739
O O3 0.750000 0.399572 0.000000
O O4 0.631367 0.314114 0.010891
O O5 0.227019 0.113640 0.648680
O O6 0.360326 0.062312 0.680818
O O7 0.350379 0.192323 0.626773
O O8 0.903799 0.568571 0.778281
O O9 0.889179 0.565108 0.982514
O O10 0.880131 0.688667 0.917180
O O11 0.005833 0.982730 0.144508
O O12 0.250000 0.260913 0.000000
#
# Coordination Sequence:
#
# PCOD9531044 Si02
#       6
#    16  16  16  16   8  16
#     4  11  21  34  66  98 120 154 208 259 319 377
#     4  10  20  41  65  90 126 158 202 270 321 351
#     4  10  23  39  61  88 121 164 210 251 314 375
#     4  11  22  41  61  92 127 158 210 263 309 371
#     4  12  24  38  62  86 124 174 202 250 308 372
#     4   8  19  38  58  90 123 153 191 263 312 364
#
# _framework density 21.506049999999998
#
# number of rings (size 3 to 8) (size 9 to 14) (size 15 to 20)
#    0.000    1.818    1.818    3.273    5.091    6.545 
#    0.000    0.909    0.000    0.000    0.000    0.000 
#    0.000    0.000    0.000    0.000    0.000    0.000 
#
# Total GULP energy -245485.733816 kJ/mol
# GULP energy per Si atom -5579.221223 kJ/mol
# Density = 2.145710 g / cm^3
# Si number density = 21.506050 Si / 1000 Ang^3
#
#
#
# Elastic Constant Matrix: (Units=GPa)
#
#
# Indices 1 2 3 4 5 6 
#
# 1 49.4578 28.6852 16.7107 0.0000 0.0000 0.0000
# 2 28.6852 137.2139 33.3980 0.0000 0.0000 0.0000
# 3 16.7107 33.3980 73.7489 0.0000 0.0000 0.0000
# 4 0.0000 0.0000 0.0000 33.9860 0.0000 0.0000
# 5 0.0000 0.0000 0.0000 0.0000 30.0387 0.0000
# 6 0.0000 0.0000 0.0000 0.0000 0.0000 -0.9511
#
#
#
# Elastic Compliance Matrix: (Units=1/GPa)
#
#
# Indices 1 2 3 4 5 6 
#
# 1 0.023799 -0.004116 -0.003528 0.000000 0.000000 0.000000
# 2 -0.004116 0.008903 -0.003099 0.000000 0.000000 0.000000
# 3 -0.003528 -0.003099 0.015762 0.000000 0.000000 0.000000
# 4 0.000000 0.000000 0.000000 0.029424 0.000000 0.000000
# 5 0.000000 0.000000 0.000000 0.000000 0.033290 0.000000
# 6 0.000000 0.000000 0.000000 0.000000 0.000000 -1.051451
#
#
# Mechanical properties :
#
#
# Convention : Reuss Voigt Hill
#
# Bulk Modulus (GPa) = 37.06936 46.44538 41.75737
# Shear Modulus (GPa) = -5.49576 24.72317 9.61371
#
# Velocity S-wave (km/s) = -1.60031 3.39424 2.11659
# Velocity P-wave (km/s) = 3.72283 6.08313 5.04301
#
# Compressibility (1/GPa) = 0.02697646
#
# Stress axis : x y z
#
# Youngs Moduli (GPa) = 42.01868 112.32482 63.44202
#
# Poissons Ratio (x) = 0.46238 0.22385
# Poissons Ratio (y) = 0.17297 0.19660
# Poissons Ratio (z) = 0.14826 0.34809
#
# Static dielectric constant tensor:
#      x y z
#    x 1.764160 0.000000 0.000000 
#    y 0.000000 1.790640 0.000000 
#    z 0.000000 0.000000 1.863870 
# 
# From -- ./inp_files/11879.got.cif
#   From: 2010.05.17/outbox.cif.g08.bks.cpg/sg73_6_cif.got.tgz:11879.got - 2010.06.03 17:35:07.
