data_PCOD9531841
_publ_section_title
;
Structure prediction by ZEFSAII (Michael W. Deem and Ramdas Pophale) SiO2 
 PCOD9531841
Probable space group: I B C A 
;
_chemical_formula_sum "Si O2"
_cell_formula_units_Z 72
_cell_length_a 27.301045
_cell_length_b 23.294181
_cell_length_c 5.093926
_cell_angle_alpha 90.000000
_cell_angle_beta 90.000000
_cell_angle_gamma 90.000000
_cell_volume 3239.510173
_symmetry_space_group_name_H-M "I B C A "
_symmetry_group_IT_number 73
_symmetry_cell_setting 'orthorhombic'
loop_
_space_group_symop_operation_xyz
x,y,z
-x,1/2-y,z
x,-y,1/2-z
1/2-x,y,-z
-x,-y,-z
x,1/2+y,-z
-x,y,1/2+z
1/2+x,-y,z
1/2+x,1/2+y,1/2+z
1/2-x,-y,1/2+z
1/2+x,1/2-y,-z
-x,1/2+y,1/2-z
1/2-x,1/2-y,1/2-z
1/2+x,y,1/2-z
1/2-x,1/2+y,z
x,1/2-y,1/2+z
loop_
_atom_site_type_symbol
_atom_site_label
_atom_site_fract_x
_atom_site_fract_y
_atom_site_fract_z
Si Si1 0.250000 0.845554 0.000000
Si Si2 0.375928 0.587545 0.298741
Si Si3 0.315329 0.561939 0.788963
Si Si4 0.343237 0.787017 0.772645
Si Si5 0.019896 0.064372 0.056693
O O1 0.218934 0.886615 0.807892
O O2 0.287891 0.808059 0.832844
O O3 0.360502 0.562299 0.579862
O O4 0.375440 0.656388 0.320688
O O5 0.426809 0.566038 0.181954
O O6 0.334693 0.571484 0.082137
O O7 0.290951 0.500000 0.750000
O O8 0.351533 0.763123 0.483135
O O9 0.983904 0.092320 0.271016
O O10 0.000000 0.000000 0.000000
#
# Coordination Sequence:
#
# PCOD9531841 Si02
#       5
#     8  16  16  16  16
#     4  10  24  42  60  96 124 172 230 264 310 376
#     4  11  24  42  62  97 129 165 214 263 320 385
#     4  11  25  39  63  87 138 177 205 255 320 385
#     4  11  23  41  66  90 122 169 218 276 314 358
#     4  10  22  37  64  94 126 158 203 251 319 385
#
# _framework density 22.225584000000001
#
# number of rings (size 3 to 8) (size 9 to 14) (size 15 to 20)
#    0.000    1.333    0.000    5.333    9.333   10.667 
#    0.000    0.000    0.000    4.000    0.000    0.000 
#    0.000    0.000    0.000    0.000    0.000    0.000 
#
# Total GULP energy -201424.234327 kJ/mol
# GULP energy per Si atom -5595.117620 kJ/mol
# Density = 2.217500 g / cm^3
# Si number density = 22.225584 Si / 1000 Ang^3
#
#
#
# Elastic Constant Matrix: (Units=GPa)
#
#
# Indices 1 2 3 4 5 6 
#
# 1 72.2819 9.1671 7.8794 0.0000 0.0000 0.0000
# 2 9.1671 81.9568 -7.5484 0.0000 0.0000 0.0000
# 3 7.8794 -7.5484 100.8875 0.0000 0.0000 0.0000
# 4 0.0000 0.0000 0.0000 32.4982 0.0000 0.0000
# 5 0.0000 0.0000 0.0000 0.0000 35.6756 0.0000
# 6 0.0000 0.0000 0.0000 0.0000 0.0000 24.6028
#
#
#
# Elastic Compliance Matrix: (Units=1/GPa)
#
#
# Indices 1 2 3 4 5 6 
#
# 1 0.014185 -0.001700 -0.001235 0.000000 0.000000 0.000000
# 2 -0.001700 0.012490 0.001067 0.000000 0.000000 0.000000
# 3 -0.001235 0.001067 0.010088 0.000000 0.000000 0.000000
# 4 0.000000 0.000000 0.000000 0.030771 0.000000 0.000000
# 5 0.000000 0.000000 0.000000 0.000000 0.028030 0.000000
# 6 0.000000 0.000000 0.000000 0.000000 0.000000 0.040646
#
#
# Mechanical properties :
#
#
# Convention : Reuss Voigt Hill
#
# Bulk Modulus (GPa) = 30.27819 30.45804 30.36811
# Shear Modulus (GPa) = 33.12227 34.93053 34.02640
#
# Velocity S-wave (km/s) = 3.86460 3.96869 3.91699
# Velocity P-wave (km/s) = 5.79363 5.89359 5.84383
#
# Compressibility (1/GPa) = 0.03302708
#
# Stress axis : x y z
#
# Youngs Moduli (GPa) = 70.49702 80.06380 99.12428
#
# Poissons Ratio (x) = 0.13614 0.12243
# Poissons Ratio (y) = 0.11987 -0.10580
# Poissons Ratio (z) = 0.08707 -0.08545
#
# Static dielectric constant tensor:
#      x y z
#    x 1.849530 0.000000 0.000000 
#    y 0.000000 1.852670 0.000000 
#    z 0.000000 0.000000 1.925420 
# 
# From -- ./inp_files/2538.got.cif
#   From: 2010.05.17/outbox.cif.g08.bks.cpg/sg73_2_cif.got.tgz:2538.got - 2010.06.03 17:35:07.
