data_PCOD9531461
_publ_section_title
;
Structure prediction by ZEFSAII (Michael W. Deem and Ramdas Pophale) SiO2 
 PCOD9531461
Probable space group: I B C A 
;
_chemical_formula_sum "Si O2"
_cell_formula_units_Z 48
_cell_length_a 17.730981
_cell_length_b 7.078384
_cell_length_c 13.952634
_cell_angle_alpha 90.000000
_cell_angle_beta 90.000000
_cell_angle_gamma 90.000000
_cell_volume 1751.148941
_symmetry_space_group_name_H-M "I B C A "
_symmetry_group_IT_number 73
_symmetry_cell_setting 'orthorhombic'
loop_
_space_group_symop_operation_xyz
x,y,z
-x,1/2-y,z
x,-y,1/2-z
1/2-x,y,-z
-x,-y,-z
x,1/2+y,-z
-x,y,1/2+z
1/2+x,-y,z
1/2+x,1/2+y,1/2+z
1/2-x,-y,1/2+z
1/2+x,1/2-y,-z
-x,1/2+y,1/2-z
1/2-x,1/2-y,1/2-z
1/2+x,y,1/2-z
1/2-x,1/2+y,z
x,1/2-y,1/2+z
loop_
_atom_site_type_symbol
_atom_site_label
_atom_site_fract_x
_atom_site_fract_y
_atom_site_fract_z
Si Si1 0.882836 0.500000 0.750000
Si Si2 0.250000 0.593828 0.500000
Si Si3 0.167381 0.660490 0.871350
Si Si4 0.989460 0.528618 0.388440
O O1 0.838268 0.684454 0.787727
O O2 0.942679 0.567592 0.668239
O O3 0.235770 0.474716 0.597115
O O4 0.324779 0.711584 0.530580
O O5 0.097935 0.516825 0.862176
O O6 0.000000 0.750000 0.367576
O O7 0.000000 0.500000 0.500000
#
# Coordination Sequence:
#
# PCOD9531461 Si02
#       4
#     8   8  16  16
#     4  10  22  38  62  98 132 168 224 282 332 388
#     4  10  22  42  70  96 138 184 220 272 328 420
#     4  10  21  41  64  98 133 176 227 268 338 400
#     4  10  21  39  65  92 126 170 221 284 333 381
#
# _framework density 27.410574
#
# number of rings (size 3 to 8) (size 9 to 14) (size 15 to 20)
#    0.000    2.000    0.000    4.000    0.000    5.333 
#    0.000   21.667    0.000    0.000    0.000    0.000 
#    0.000    0.000    0.000    0.000    0.000    0.000 
#
# Total GULP energy -133693.310460 kJ/mol
# GULP energy per Si atom -5570.554603 kJ/mol
# Density = 2.734819 g / cm^3
# Si number density = 27.410574 Si / 1000 Ang^3
#
#
#
# Elastic Constant Matrix: (Units=GPa)
#
#
# Indices 1 2 3 4 5 6 
#
# 1 99.9858 53.8391 48.4962 0.0000 0.0000 0.0000
# 2 53.8391 99.8958 43.6940 0.0000 0.0000 0.0000
# 3 48.4962 43.6940 161.1016 0.0000 0.0000 0.0000
# 4 0.0000 0.0000 0.0000 35.0364 0.0000 0.0000
# 5 0.0000 0.0000 0.0000 0.0000 57.4726 0.0000
# 6 0.0000 0.0000 0.0000 0.0000 0.0000 45.6068
#
#
#
# Elastic Compliance Matrix: (Units=1/GPa)
#
#
# Indices 1 2 3 4 5 6 
#
# 1 0.015018 -0.006940 -0.002639 0.000000 0.000000 0.000000
# 2 -0.006940 0.014565 -0.001861 0.000000 0.000000 0.000000
# 3 -0.002639 -0.001861 0.007506 0.000000 0.000000 0.000000
# 4 0.000000 0.000000 0.000000 0.028542 0.000000 0.000000
# 5 0.000000 0.000000 0.000000 0.000000 0.017400 0.000000
# 6 0.000000 0.000000 0.000000 0.000000 0.000000 0.021927
#
#
# Mechanical properties :
#
#
# Convention : Reuss Voigt Hill
#
# Bulk Modulus (GPa) = 70.37379 72.56022 71.46701
# Shear Modulus (GPa) = 37.71497 41.95342 39.83420
#
# Velocity S-wave (km/s) = 3.71337 3.91648 3.81628
# Velocity P-wave (km/s) = 6.64193 6.85425 6.74893
#
# Compressibility (1/GPa) = 0.01420984
#
# Stress axis : x y z
#
# Youngs Moduli (GPa) = 66.58594 68.65872 133.22055
#
# Poissons Ratio (x) = 0.47649 0.35152
# Poissons Ratio (y) = 0.46210 0.24794
# Poissons Ratio (z) = 0.17570 0.12778
#
# Static dielectric constant tensor:
#      x y z
#    x 2.324390 0.000000 0.000000 
#    y 0.000000 2.301690 0.000000 
#    z 0.000000 0.000000 2.152520 
# 
# From -- ./inp_files/4327.got.cif
#   From: 2010.05.17/outbox.cif.g08.bks.cpg/sg73_3_cif.got.tgz:4327.got - 2010.06.03 17:35:07.
