data_PCOD9531016
_publ_section_title
;
Structure prediction by ZEFSAII (Michael W. Deem and Ramdas Pophale) SiO2 
 PCOD9531016
Probable space group: I B C A 
;
_chemical_formula_sum "Si O2"
_cell_formula_units_Z 88
_cell_length_a 27.532543
_cell_length_b 9.326395
_cell_length_c 15.427553
_cell_angle_alpha 90.000000
_cell_angle_beta 90.000000
_cell_angle_gamma 90.000000
_cell_volume 3961.477361
_symmetry_space_group_name_H-M "I B C A "
_symmetry_group_IT_number 73
_symmetry_cell_setting 'orthorhombic'
loop_
_space_group_symop_operation_xyz
x,y,z
-x,1/2-y,z
x,-y,1/2-z
1/2-x,y,-z
-x,-y,-z
x,1/2+y,-z
-x,y,1/2+z
1/2+x,-y,z
1/2+x,1/2+y,1/2+z
1/2-x,-y,1/2+z
1/2+x,1/2-y,-z
-x,1/2+y,1/2-z
1/2-x,1/2-y,1/2-z
1/2+x,y,1/2-z
1/2-x,1/2+y,z
x,1/2-y,1/2+z
loop_
_atom_site_type_symbol
_atom_site_label
_atom_site_fract_x
_atom_site_fract_y
_atom_site_fract_z
Si Si1 0.000000 0.250000 0.024040
Si Si2 0.795107 0.377797 0.088697
Si Si3 0.468451 0.023482 0.112775
Si Si4 0.194537 0.209072 0.426351
Si Si5 0.611611 0.500000 0.250000
Si Si6 0.946811 0.500000 0.250000
Si Si7 0.857920 0.204963 0.745166
O O1 0.032752 0.358996 0.079720
O O2 0.029164 0.138579 0.963787
O O3 0.792624 0.542658 0.059516
O O4 0.742828 0.300861 0.096979
O O5 0.821686 0.375028 0.180756
O O6 0.822954 0.285745 0.014604
O O7 0.423894 0.055203 0.175062
O O8 0.517930 0.031704 0.169241
O O9 0.158613 0.208373 0.344859
O O10 0.642240 0.369147 0.284645
O O11 0.910579 0.632636 0.264751
#
# Coordination Sequence:
#
# PCOD9531016 Si02
#       7
#     8  16  16  16   8   8  16
#     4  10  20  40  68  98 112 164 230 266 320 388
#     4  11  24  45  70  98 133 175 217 269 331 396
#     4  10  22  44  66  90 130 174 218 262 330 394
#     4  11  24  45  70  98 133 175 217 269 331 396
#     4  11  26  42  63  94 132 180 217 266 328 389
#     4  11  22  46  63  88 136 172 211 272 328 397
#     4  12  25  43  65 102 133 177 219 276 328 385
#
# _framework density 22.213933999999998
#
# number of rings (size 3 to 8) (size 9 to 14) (size 15 to 20)
#    0.000    1.091    1.818    4.909    5.091    2.909 
#   19.636    0.000    0.000    0.000    0.000    0.000 
#    0.000    0.000    0.000    0.000    0.000    0.000 
#
# Total GULP energy -245998.737092 kJ/mol
# GULP energy per Si atom -5590.880388 kJ/mol
# Density = 2.216337 g / cm^3
# Si number density = 22.213934 Si / 1000 Ang^3
#
#
#
# Elastic Constant Matrix: (Units=GPa)
#
#
# Indices 1 2 3 4 5 6 
#
# 1 31.3908 19.8090 23.3963 0.0000 0.0000 0.0000
# 2 19.8090 153.2354 8.1772 0.0000 0.0000 0.0000
# 3 23.3963 8.1772 83.9147 0.0000 0.0000 0.0000
# 4 0.0000 0.0000 0.0000 40.8479 0.0000 0.0000
# 5 0.0000 0.0000 0.0000 0.0000 -11.8636 0.0000
# 6 0.0000 0.0000 0.0000 0.0000 0.0000 21.7079
#
#
#
# Elastic Compliance Matrix: (Units=1/GPa)
#
#
# Indices 1 2 3 4 5 6 
#
# 1 0.043760 -0.005032 -0.011710 0.000000 0.000000 0.000000
# 2 -0.005032 0.007139 0.000707 0.000000 0.000000 0.000000
# 3 -0.011710 0.000707 0.015113 0.000000 0.000000 0.000000
# 4 0.000000 0.000000 0.000000 0.024481 0.000000 0.000000
# 5 0.000000 0.000000 0.000000 0.000000 -0.084292 0.000000
# 6 0.000000 0.000000 0.000000 0.000000 0.000000 0.046066
#
#
# Mechanical properties :
#
#
# Convention : Reuss Voigt Hill
#
# Bulk Modulus (GPa) = 29.46254 41.25620 35.35937
# Shear Modulus (GPa) = 52.27341 24.61567 38.44454
#
# Velocity S-wave (km/s) = 4.85622 3.33245 4.16462
# Velocity P-wave (km/s) = 6.68848 5.78096 6.25121
#
# Compressibility (1/GPa) = 0.03394141
#
# Stress axis : x y z
#
# Youngs Moduli (GPa) = 22.85200 140.08242 66.16869
#
# Poissons Ratio (x) = 0.70489 0.77486
# Poissons Ratio (y) = 0.11499 -0.04680
# Poissons Ratio (z) = 0.26760 -0.09908
#
# Static dielectric constant tensor:
#      x y z
#    x 1.782400 0.000000 0.000000 
#    y 0.000000 1.794960 0.000000 
#    z 0.000000 0.000000 1.820800 
# 
# From -- ./inp_files/24133.got.cif
#   From: 2010.05.17/outbox.cif.g08.bks.cpg/sg73_13_cif.got.tgz:24133.got - 2010.06.03 17:35:07.
