data_PCOD9531626
_publ_section_title
;
Structure prediction by ZEFSAII (Michael W. Deem and Ramdas Pophale) SiO2 
 PCOD9531626
Probable space group: I B C A 
;
_chemical_formula_sum "Si O2"
_cell_formula_units_Z 104
_cell_length_a 17.583769
_cell_length_b 10.874471
_cell_length_c 24.160123
_cell_angle_alpha 90.000000
_cell_angle_beta 90.000000
_cell_angle_gamma 90.000000
_cell_volume 4619.758255
_symmetry_space_group_name_H-M "I B C A "
_symmetry_group_IT_number 73
_symmetry_cell_setting 'orthorhombic'
loop_
_space_group_symop_operation_xyz
x,y,z
-x,1/2-y,z
x,-y,1/2-z
1/2-x,y,-z
-x,-y,-z
x,1/2+y,-z
-x,y,1/2+z
1/2+x,-y,z
1/2+x,1/2+y,1/2+z
1/2-x,-y,1/2+z
1/2+x,1/2-y,-z
-x,1/2+y,1/2-z
1/2-x,1/2-y,1/2-z
1/2+x,y,1/2-z
1/2-x,1/2+y,z
x,1/2-y,1/2+z
loop_
_atom_site_type_symbol
_atom_site_label
_atom_site_fract_x
_atom_site_fract_y
_atom_site_fract_z
Si Si1 0.063153 0.921642 0.567247
Si Si2 0.410389 0.251281 0.668251
Si Si3 0.395119 0.016488 0.954054
Si Si4 0.821432 0.115647 0.110475
Si Si5 0.250000 0.136791 0.500000
Si Si6 0.167524 0.241086 0.223548
Si Si7 0.672634 0.010631 0.345383
O O1 0.096956 0.827103 0.611534
O O2 0.087045 0.892938 0.504503
O O3 0.104088 0.048066 0.586291
O O4 0.972043 0.940031 0.561369
O O5 0.500000 0.250000 0.673809
O O6 0.383063 0.298492 0.727935
O O7 0.367066 0.121855 0.662268
O O8 0.369498 0.073898 0.896926
O O9 0.323004 0.939085 0.976787
O O10 0.839193 0.189911 0.165593
O O11 0.758575 0.016741 0.133952
O O12 0.782241 0.188379 0.058608
O O13 0.250000 0.250000 0.250000
O O14 0.160221 0.098393 0.206511
#
# Coordination Sequence:
#
# PCOD9531626 Si02
#       7
#    16  16  16  16   8  16  16
#     4  10  21  41  69 105 136 183 238 302 383 454
#     4  12  25  43  68  99 139 190 241 297 380 454
#     4   9  19  41  69 100 142 175 233 309 368 458
#     4  10  22  42  69 102 137 181 243 302 375 450
#     4   8  18  40  70 104 134 178 230 298 386 430
#     4  12  26  44  67 102 137 196 246 307 368 451
#     4  11  23  45  69  99 141 184 244 307 374 452
#
# _framework density 22.512
#
# number of rings (size 3 to 8) (size 9 to 14) (size 15 to 20)
#    0.000    1.538    3.077    1.385    0.000    3.077 
#   11.077    0.769    0.000    0.000    0.000    0.000 
#    0.000    0.000    0.000    0.000    0.000    0.000 
#
# Total GULP energy -289790.186697 kJ/mol
# GULP energy per Si atom -5572.888206 kJ/mol
# Density = 2.246076 g / cm^3
# Si number density = 22.512000 Si / 1000 Ang^3
#
#
#
# Elastic Constant Matrix: (Units=GPa)
#
#
# Indices 1 2 3 4 5 6 
#
# 1 106.2270 30.5889 28.6796 0.0000 0.0000 0.0000
# 2 30.5889 54.8833 62.4265 0.0000 0.0000 0.0000
# 3 28.6796 62.4265 197.0534 0.0000 0.0000 0.0000
# 4 0.0000 0.0000 0.0000 39.6526 0.0000 0.0000
# 5 0.0000 0.0000 0.0000 0.0000 7.4134 0.0000
# 6 0.0000 0.0000 0.0000 0.0000 0.0000 19.7165
#
#
#
# Elastic Compliance Matrix: (Units=1/GPa)
#
#
# Indices 1 2 3 4 5 6 
#
# 1 0.011251 -0.006891 0.000546 0.000000 0.000000 0.000000
# 2 -0.006891 0.032706 -0.009358 0.000000 0.000000 0.000000
# 3 0.000546 -0.009358 0.007960 0.000000 0.000000 0.000000
# 4 0.000000 0.000000 0.000000 0.025219 0.000000 0.000000
# 5 0.000000 0.000000 0.000000 0.000000 0.134891 0.000000
# 6 0.000000 0.000000 0.000000 0.000000 0.000000 0.050719
#
#
# Mechanical properties :
#
#
# Convention : Reuss Voigt Hill
#
# Bulk Modulus (GPa) = 48.75911 66.83929 57.79920
# Shear Modulus (GPa) = 16.61186 29.12108 22.86647
#
# Velocity S-wave (km/s) = 2.71940 3.60054 3.19053
# Velocity P-wave (km/s) = 5.61840 6.85858 6.26923
#
# Compressibility (1/GPa) = 0.02050899
#
# Stress axis : x y z
#
# Youngs Moduli (GPa) = 88.88185 30.57572 125.62796
#
# Poissons Ratio (x) = 0.21071 -0.06855
# Poissons Ratio (y) = 0.61251 1.17565
# Poissons Ratio (z) = -0.04850 0.28613
#
# Static dielectric constant tensor:
#      x y z
#    x 1.777430 0.000000 0.000000 
#    y 0.000000 1.799260 0.000000 
#    z 0.000000 0.000000 2.309820 
# 
# From -- ./inp_files/26534.got.cif
#   From: 2010.05.17/outbox.cif.g08.bks.cpg/sg73_14_cif.got.tgz:26534.got - 2010.06.03 17:35:07.
