data_PCOD9531276
_publ_section_title
;
Structure prediction by ZEFSAII (Michael W. Deem and Ramdas Pophale) SiO2 
 PCOD9531276
Probable space group: I B C A 
;
_chemical_formula_sum "Si O2"
_cell_formula_units_Z 96
_cell_length_a 21.446453
_cell_length_b 10.474423
_cell_length_c 18.993830
_cell_angle_alpha 90.000000
_cell_angle_beta 90.000000
_cell_angle_gamma 90.000000
_cell_volume 4266.759167
_symmetry_space_group_name_H-M "I B C A "
_symmetry_group_IT_number 73
_symmetry_cell_setting 'orthorhombic'
loop_
_space_group_symop_operation_xyz
x,y,z
-x,1/2-y,z
x,-y,1/2-z
1/2-x,y,-z
-x,-y,-z
x,1/2+y,-z
-x,y,1/2+z
1/2+x,-y,z
1/2+x,1/2+y,1/2+z
1/2-x,-y,1/2+z
1/2+x,1/2-y,-z
-x,1/2+y,1/2-z
1/2-x,1/2-y,1/2-z
1/2+x,y,1/2-z
1/2-x,1/2+y,z
x,1/2-y,1/2+z
loop_
_atom_site_type_symbol
_atom_site_label
_atom_site_fract_x
_atom_site_fract_y
_atom_site_fract_z
Si Si1 0.741665 0.292987 0.416184
Si Si2 0.500000 0.750000 0.501838
Si Si3 0.684689 0.052170 0.591465
Si Si4 0.573374 0.925225 0.676361
Si Si5 0.373379 0.126123 0.939800
Si Si6 0.000000 0.250000 0.757582
Si Si7 0.459736 0.560278 0.380008
O O1 0.750000 0.286148 0.500000
O O2 0.738540 0.443978 0.401695
O O3 0.674666 0.224927 0.404823
O O4 0.792175 0.193138 0.385609
O O5 0.437277 0.800559 0.539376
O O6 0.474462 0.640501 0.449516
O O7 0.631095 0.987909 0.637430
O O8 0.658324 0.070701 0.511823
O O9 0.557352 0.786255 0.706091
O O10 0.569824 0.000000 0.750000
O O11 0.514752 0.958107 0.627832
O O12 0.394573 0.009865 0.890542
O O13 0.030058 0.352246 0.811499
#
# Coordination Sequence:
#
# PCOD9531276 Si02
#       7
#    16   8  16  16  16   8  16
#     4  10  23  41  63  93 131 176 215 270 341 397
#     4  11  20  31  54 102 137 162 195 268 346 415
#     4  11  23  44  66  95 131 177 227 276 327 405
#     4  10  22  42  64  89 129 175 217 275 333 398
#     4  11  22  35  64 100 136 166 211 274 347 416
#     4   9  22  41  62  86 129 176 217 268 352 397
#     4  10  21  37  58  96 132 165 210 268 342 418
#
# _framework density 22.499513
#
# number of rings (size 3 to 8) (size 9 to 14) (size 15 to 20)
#    0.000    1.667    1.667    3.000    4.667    1.333 
#    0.000    0.833    0.000    0.000    0.000    0.000 
#    0.000    0.000    0.000    0.000    0.000    0.000 
#
# Total GULP energy -267678.997600 kJ/mol
# GULP energy per Si atom -5576.645783 kJ/mol
# Density = 2.244830 g / cm^3
# Si number density = 22.499513 Si / 1000 Ang^3
#
#
#
# Elastic Constant Matrix: (Units=GPa)
#
#
# Indices 1 2 3 4 5 6 
#
# 1 67.2044 20.4787 14.1470 0.0000 0.0000 0.0000
# 2 20.4787 82.3052 20.0048 0.0000 0.0000 0.0000
# 3 14.1470 20.0048 50.7995 0.0000 0.0000 0.0000
# 4 0.0000 0.0000 0.0000 -1.2617 0.0000 0.0000
# 5 0.0000 0.0000 0.0000 0.0000 6.1621 0.0000
# 6 0.0000 0.0000 0.0000 0.0000 0.0000 35.2161
#
#
#
# Elastic Compliance Matrix: (Units=1/GPa)
#
#
# Indices 1 2 3 4 5 6 
#
# 1 0.016590 -0.003323 -0.003311 0.000000 0.000000 0.000000
# 2 -0.003323 0.014101 -0.004628 0.000000 0.000000 0.000000
# 3 -0.003311 -0.004628 0.022430 0.000000 0.000000 0.000000
# 4 0.000000 0.000000 0.000000 -0.792574 0.000000 0.000000
# 5 0.000000 0.000000 0.000000 0.000000 0.162282 0.000000
# 6 0.000000 0.000000 0.000000 0.000000 0.000000 0.028396
#
#
# Mechanical properties :
#
#
# Convention : Reuss Voigt Hill
#
# Bulk Modulus (GPa) = 32.68319 34.39668 33.53993
# Shear Modulus (GPa) = -9.68896 17.73521 4.02312
#
# Velocity S-wave (km/s) = -2.07741 2.81062 1.33865
# Velocity P-wave (km/s) = 2.96707 5.08466 4.16277
#
# Compressibility (1/GPa) = 0.03059677
#
# Stress axis : x y z
#
# Youngs Moduli (GPa) = 60.27868 70.91453 44.58340
#
# Poissons Ratio (x) = 0.23564 0.14764
# Poissons Ratio (y) = 0.20030 0.20632
# Poissons Ratio (z) = 0.19961 0.32818
#
# Static dielectric constant tensor:
#      x y z
#    x 1.896630 0.000000 0.000000 
#    y 0.000000 1.963570 0.000000 
#    z 0.000000 0.000000 1.811800 
# 
# From -- ./inp_files/26936.got.cif
#   From: 2010.05.17/outbox.cif.g08.bks.cpg/sg73_14_cif.got.tgz:26936.got - 2010.06.03 17:35:07.
