data_PCOD9531476
_publ_section_title
;
Structure prediction by ZEFSAII (Michael W. Deem and Ramdas Pophale) SiO2 
 PCOD9531476
Probable space group: I B C A 
;
_chemical_formula_sum "Si O2"
_cell_formula_units_Z 120
_cell_length_a 27.881194
_cell_length_b 9.119243
_cell_length_c 24.603008
_cell_angle_alpha 90.000000
_cell_angle_beta 90.000000
_cell_angle_gamma 90.000000
_cell_volume 6255.447227
_symmetry_space_group_name_H-M "I B C A "
_symmetry_group_IT_number 73
_symmetry_cell_setting 'orthorhombic'
loop_
_space_group_symop_operation_xyz
x,y,z
-x,1/2-y,z
x,-y,1/2-z
1/2-x,y,-z
-x,-y,-z
x,1/2+y,-z
-x,y,1/2+z
1/2+x,-y,z
1/2+x,1/2+y,1/2+z
1/2-x,-y,1/2+z
1/2+x,1/2-y,-z
-x,1/2+y,1/2-z
1/2-x,1/2-y,1/2-z
1/2+x,y,1/2-z
1/2-x,1/2+y,z
x,1/2-y,1/2+z
loop_
_atom_site_type_symbol
_atom_site_label
_atom_site_fract_x
_atom_site_fract_y
_atom_site_fract_z
Si Si1 0.853553 0.815879 0.944489
Si Si2 0.954169 0.164078 0.259978
Si Si3 0.759152 0.550827 0.404794
Si Si4 0.848486 0.524617 0.548067
Si Si5 0.276750 0.221875 0.666902
Si Si6 0.632938 0.566503 0.333674
Si Si7 0.376498 0.727414 0.180155
Si Si8 0.311895 0.000000 0.750000
O O1 0.801076 0.888728 0.941361
O O2 0.848335 0.647996 0.960376
O O3 0.876170 0.818855 0.883747
O O4 0.873203 0.899371 0.996815
O O5 0.910741 0.133854 0.300982
O O6 0.928453 0.244230 0.208423
O O7 0.000000 0.250000 0.280365
O O8 0.972166 0.000000 0.250000
O O9 0.707013 0.560289 0.433202
O O10 0.760779 0.654976 0.351083
O O11 0.772503 0.389044 0.384346
O O12 0.877673 0.559163 0.602635
O O13 0.323866 0.320574 0.673817
O O14 0.277912 0.113860 0.717713
O O15 0.645019 0.396318 0.317377
O O16 0.347356 0.603243 0.213444
#
# Coordination Sequence:
#
# PCOD9531476 Si02
#       8
#    16  16  16  16  16  16  16   8
#     4  11  22  38  57  82 117 161 207 253 306 351
#     4  10  21  39  67  97 126 155 192 250 315 382
#     4  11  22  38  52  83 113 156 211 265 303 345
#     4  10  23  36  59  81 118 160 210 259 302 354
#     4  11  23  36  57  79 118 160 208 254 308 354
#     4   9  21  42  61  86 125 162 199 250 314 369
#     4  10  22  40  61  91 125 157 200 254 307 382
#     4  12  22  36  62  82 112 166 208 246 302 374
#
# _framework density 19.183281999999998
#
# number of rings (size 3 to 8) (size 9 to 14) (size 15 to 20)
#    0.000    1.600    4.000    0.400    4.667    1.600 
#    0.000    0.000    0.000    0.800    0.000    5.600 
#    0.000    0.000    0.000    0.000    0.000    0.000 
#
# Total GULP energy -334222.274784 kJ/mol
# GULP energy per Si atom -5570.371246 kJ/mol
# Density = 1.913962 g / cm^3
# Si number density = 19.183282 Si / 1000 Ang^3
#
#
#
# Elastic Constant Matrix: (Units=GPa)
#
#
# Indices 1 2 3 4 5 6 
#
# 1 26.2551 28.0022 15.5832 0.0000 0.0000 0.0000
# 2 28.0022 101.8597 49.9426 0.0000 0.0000 0.0000
# 3 15.5832 49.9426 100.0369 0.0000 0.0000 0.0000
# 4 0.0000 0.0000 0.0000 -40.6290 0.0000 0.0000
# 5 0.0000 0.0000 0.0000 0.0000 3.9592 0.0000
# 6 0.0000 0.0000 0.0000 0.0000 0.0000 21.4919
#
#
#
# Elastic Compliance Matrix: (Units=1/GPa)
#
#
# Indices 1 2 3 4 5 6 
#
# 1 0.054020 -0.014201 -0.001325 0.000000 0.000000 0.000000
# 2 -0.014201 0.016733 -0.006141 0.000000 0.000000 0.000000
# 3 -0.001325 -0.006141 0.013269 0.000000 0.000000 0.000000
# 4 0.000000 0.000000 0.000000 -0.024613 0.000000 0.000000
# 5 0.000000 0.000000 0.000000 0.000000 0.252574 0.000000
# 6 0.000000 0.000000 0.000000 0.000000 0.000000 0.046529
#
#
# Mechanical properties :
#
#
# Convention : Reuss Voigt Hill
#
# Bulk Modulus (GPa) = 24.57825 46.13418 35.35622
# Shear Modulus (GPa) = 12.03632 5.93935 8.98784
#
# Velocity S-wave (km/s) = 2.50759 1.76149 2.16689
# Velocity P-wave (km/s) = 4.60697 5.31399 4.97306
#
# Compressibility (1/GPa) = 0.04068638
#
# Stress axis : x y z
#
# Youngs Moduli (GPa) = 18.51159 59.76357 75.36444
#
# Poissons Ratio (x) = 0.84869 0.09988
# Poissons Ratio (y) = 0.26288 0.46285
# Poissons Ratio (z) = 0.02453 0.36704
#
# Static dielectric constant tensor:
#      x y z
#    x 1.669350 0.000000 0.000000 
#    y 0.000000 1.728510 0.000000 
#    z 0.000000 0.000000 1.861280 
# 
# From -- ./inp_files/33003.got.cif
#   From: 2010.05.17/outbox.cif.g08.bks.cpg/sg73_17_cif.got.tgz:33003.got - 2010.06.03 17:35:07.
