data_PCOD9531066
_publ_section_title
;
Structure prediction by ZEFSAII (Michael W. Deem and Ramdas Pophale) SiO2 
 PCOD9531066
Probable space group: I B C A 
;
_chemical_formula_sum "Si O2"
_cell_formula_units_Z 104
_cell_length_a 27.476435
_cell_length_b 20.576290
_cell_length_c 8.913768
_cell_angle_alpha 90.000000
_cell_angle_beta 90.000000
_cell_angle_gamma 90.000000
_cell_volume 5039.515462
_symmetry_space_group_name_H-M "I B C A "
_symmetry_group_IT_number 73
_symmetry_cell_setting 'orthorhombic'
loop_
_space_group_symop_operation_xyz
x,y,z
-x,1/2-y,z
x,-y,1/2-z
1/2-x,y,-z
-x,-y,-z
x,1/2+y,-z
-x,y,1/2+z
1/2+x,-y,z
1/2+x,1/2+y,1/2+z
1/2-x,-y,1/2+z
1/2+x,1/2-y,-z
-x,1/2+y,1/2-z
1/2-x,1/2-y,1/2-z
1/2+x,y,1/2-z
1/2-x,1/2+y,z
x,1/2-y,1/2+z
loop_
_atom_site_type_symbol
_atom_site_label
_atom_site_fract_x
_atom_site_fract_y
_atom_site_fract_z
Si Si1 0.138271 0.500000 0.750000
Si Si2 0.880537 0.192691 0.978459
Si Si3 0.937803 0.825420 0.015346
Si Si4 0.435389 0.560857 0.462867
Si Si5 0.156242 0.139429 0.163752
Si Si6 0.786648 0.755586 0.386173
Si Si7 0.990882 0.890565 0.287416
O O1 0.103613 0.511725 0.604874
O O2 0.166824 0.566603 0.781696
O O3 0.856896 0.181545 0.813495
O O4 0.919556 0.251139 0.972837
O O5 0.906627 0.125594 0.011295
O O6 0.838124 0.208087 0.097975
O O7 0.891314 0.860806 0.941186
O O8 0.982205 0.840338 0.900933
O O9 0.953717 0.854151 0.175711
O O10 0.468932 0.551956 0.608214
O O11 0.468410 0.580682 0.322103
O O12 0.197154 0.181159 0.079893
O O13 0.750000 0.789114 0.500000
O O14 0.750000 0.750000 0.250000
#
# Coordination Sequence:
#
# PCOD9531066 Si02
#       7
#     8  16  16  16  16  16  16
#     4  10  20  42  62  78 122 168 202 244 298 366
#     4  10  21  35  58  85 123 153 194 238 319 366
#     4  10  21  35  53  84 124 155 203 255 303 350
#     4  10  22  36  55  84 118 166 209 246 293 342
#     4  10  21  41  61  88 116 164 192 243 312 358
#     4  11  22  38  66  97 118 144 188 249 307 384
#     4  10  21  35  52  88 117 163 212 253 292 339
#
# _framework density 20.636904000000001
#
# number of rings (size 3 to 8) (size 9 to 14) (size 15 to 20)
#    0.000    1.846    4.615    0.000    4.308    4.308 
#    0.000    0.000    6.769    0.000    0.000    0.000 
#    0.000    0.000    0.000    0.000    0.000    0.000 
#
# Total GULP energy -289876.067627 kJ/mol
# GULP energy per Si atom -5574.539762 kJ/mol
# Density = 2.058993 g / cm^3
# Si number density = 20.636904 Si / 1000 Ang^3
#
#
#
# Elastic Constant Matrix: (Units=GPa)
#
#
# Indices 1 2 3 4 5 6 
#
# 1 55.9272 7.2188 9.6225 0.0000 0.0000 0.0000
# 2 7.2188 92.6128 -5.0667 0.0000 0.0000 0.0000
# 3 9.6225 -5.0667 83.4052 0.0000 0.0000 0.0000
# 4 0.0000 0.0000 0.0000 25.4211 0.0000 0.0000
# 5 0.0000 0.0000 0.0000 0.0000 35.8583 0.0000
# 6 0.0000 0.0000 0.0000 0.0000 0.0000 9.4531
#
#
#
# Elastic Compliance Matrix: (Units=1/GPa)
#
#
# Indices 1 2 3 4 5 6 
#
# 1 0.018465 -0.001561 -0.002225 0.000000 0.000000 0.000000
# 2 -0.001561 0.010966 0.000846 0.000000 0.000000 0.000000
# 3 -0.002225 0.000846 0.012298 0.000000 0.000000 0.000000
# 4 0.000000 0.000000 0.000000 0.039337 0.000000 0.000000
# 5 0.000000 0.000000 0.000000 0.000000 0.027888 0.000000
# 6 0.000000 0.000000 0.000000 0.000000 0.000000 0.105785
#
#
# Mechanical properties :
#
#
# Convention : Reuss Voigt Hill
#
# Bulk Modulus (GPa) = 27.89524 28.38825 28.14175
# Shear Modulus (GPa) = 21.49912 28.82454 25.16183
#
# Velocity S-wave (km/s) = 3.23116 3.74136 3.49558
# Velocity P-wave (km/s) = 5.24090 5.69646 5.47342
#
# Compressibility (1/GPa) = 0.03584840
#
# Stress axis : x y z
#
# Youngs Moduli (GPa) = 54.15733 91.19421 81.31554
#
# Poissons Ratio (x) = 0.14235 0.18094
# Poissons Ratio (y) = 0.08454 -0.06881
# Poissons Ratio (z) = 0.12051 -0.07717
#
# Static dielectric constant tensor:
#      x y z
#    x 1.770160 0.000000 0.000000 
#    y 0.000000 1.750070 0.000000 
#    z 0.000000 0.000000 1.892080 
# 
# From -- ./inp_files/7884.got.cif
#   From: 2010.05.17/outbox.cif.g08.bks.cpg/sg73_4_cif.got.tgz:7884.got - 2010.06.03 17:35:07.
