data_PCOD9531608
_publ_section_title
;
Structure prediction by ZEFSAII (Michael W. Deem and Ramdas Pophale) SiO2 
 PCOD9531608
Probable space group: I B C A 
;
_chemical_formula_sum "Si O2"
_cell_formula_units_Z 112
_cell_length_a 13.893224
_cell_length_b 28.129175
_cell_length_c 12.608450
_cell_angle_alpha 90.000000
_cell_angle_beta 90.000000
_cell_angle_gamma 90.000000
_cell_volume 4927.444410
_symmetry_space_group_name_H-M "I B C A "
_symmetry_group_IT_number 73
_symmetry_cell_setting 'orthorhombic'
loop_
_space_group_symop_operation_xyz
x,y,z
-x,1/2-y,z
x,-y,1/2-z
1/2-x,y,-z
-x,-y,-z
x,1/2+y,-z
-x,y,1/2+z
1/2+x,-y,z
1/2+x,1/2+y,1/2+z
1/2-x,-y,1/2+z
1/2+x,1/2-y,-z
-x,1/2+y,1/2-z
1/2-x,1/2-y,1/2-z
1/2+x,y,1/2-z
1/2-x,1/2+y,z
x,1/2-y,1/2+z
loop_
_atom_site_type_symbol
_atom_site_label
_atom_site_fract_x
_atom_site_fract_y
_atom_site_fract_z
Si Si1 0.150207 0.687947 0.721384
Si Si2 0.076045 0.615708 0.868957
Si Si3 0.636674 0.034057 0.520654
Si Si4 0.860958 0.931329 0.532553
Si Si5 0.992393 0.053869 0.290206
Si Si6 0.042317 0.170610 0.479915
Si Si7 0.813627 0.263441 0.596452
O O1 0.151463 0.640225 0.790190
O O2 0.056929 0.685432 0.643129
O O3 0.240871 0.696955 0.645083
O O4 0.154621 0.729972 0.807280
O O5 0.103995 0.566942 0.924358
O O6 0.989384 0.596874 0.793700
O O7 0.054303 0.655249 0.959370
O O8 0.750000 0.031355 0.500000
O O9 0.593002 0.058809 0.624295
O O10 0.601406 0.979394 0.524066
O O11 0.750000 0.929074 0.500000
O O12 0.902517 0.879687 0.508921
O O13 0.903932 0.941199 0.650088
O O14 0.986129 0.000000 0.250000
O O15 0.094761 0.211339 0.545834
O O16 0.750000 0.240912 0.500000
#
# Coordination Sequence:
#
# PCOD9531608 Si02
#       7
#    16  16  16  16  16  16  16
#     4  10  21  41  66  93 127 169 218 270 352 396
#     4  12  23  39  66  96 131 177 224 278 335 404
#     4  11  25  44  61  98 141 178 226 277 336 399
#     4  11  21  40  69  96 133 180 222 273 336 408
#     4  12  23  43  67  96 140 185 223 284 337 400
#     4  11  22  41  67  95 132 170 223 275 337 409
#     4   9  21  42  68  96 124 167 221 285 338 416
#
# _framework density 22.729835000000001
#
# number of rings (size 3 to 8) (size 9 to 14) (size 15 to 20)
#    0.000    1.143    4.286    2.571    0.000    2.286 
#    5.143   10.000    0.000    0.000    0.000    0.000 
#    0.000    0.000    0.000    0.000    0.000    0.000 
#
# Total GULP energy -312119.884223 kJ/mol
# GULP energy per Si atom -5573.569361 kJ/mol
# Density = 2.267810 g / cm^3
# Si number density = 22.729835 Si / 1000 Ang^3
#
#
#
# Elastic Constant Matrix: (Units=GPa)
#
#
# Indices 1 2 3 4 5 6 
#
# 1 47.4362 17.8524 32.9204 0.0000 0.0000 0.0000
# 2 17.8524 69.7993 39.4460 0.0000 0.0000 0.0000
# 3 32.9204 39.4460 116.6813 0.0002 0.0000 0.0000
# 4 0.0000 0.0000 0.0002 52.4022 0.0000 0.0000
# 5 0.0000 0.0000 0.0000 0.0000 10.8878 0.0000
# 6 0.0000 0.0000 0.0000 0.0000 0.0000 19.9073
#
#
#
# Elastic Compliance Matrix: (Units=1/GPa)
#
#
# Indices 1 2 3 4 5 6 
#
# 1 0.026776 -0.003188 -0.006477 0.000000 0.000000 0.000000
# 2 -0.003188 0.018090 -0.005216 0.000000 0.000000 0.000000
# 3 -0.006477 -0.005216 0.012161 0.000000 0.000000 0.000000
# 4 0.000000 0.000000 0.000000 0.019083 0.000000 0.000000
# 5 0.000000 0.000000 0.000000 0.000000 0.091846 0.000000
# 6 0.000000 0.000000 0.000000 0.000000 0.000000 0.050233
#
#
# Mechanical properties :
#
#
# Convention : Reuss Voigt Hill
#
# Bulk Modulus (GPa) = 36.67731 46.03939 41.35835
# Shear Modulus (GPa) = 19.45233 26.21932 22.83582
#
# Velocity S-wave (km/s) = 2.92859 3.40004 3.17308
# Velocity P-wave (km/s) = 5.25421 5.97601 5.62670
#
# Compressibility (1/GPa) = 0.02726482
#
# Stress axis : x y z
#
# Youngs Moduli (GPa) = 37.34751 55.27908 82.22968
#
# Poissons Ratio (x) = 0.17624 0.53257
# Poissons Ratio (y) = 0.11907 0.42892
# Poissons Ratio (z) = 0.24189 0.28834
#
# Static dielectric constant tensor:
#      x y z
#    x 4.760490 0.000000 -0.000010 
#    y 0.000000 1.827060 0.000000 
#    z -0.000010 0.000000 1.923640 
# 
# From -- ./inp_files/11234.got.cif
#   From: 2010.05.17/outbox.cif.g08.bks.cpg/sg73_6_cif.got.tgz:11234.got - 2010.06.03 17:35:07.
