data_PCOD9531331
_publ_section_title
;
Structure prediction by ZEFSAII (Michael W. Deem and Ramdas Pophale) SiO2 
 PCOD9531331
Probable space group: I B C A 
;
_chemical_formula_sum "Si O2"
_cell_formula_units_Z 112
_cell_length_a 25.802188
_cell_length_b 14.290788
_cell_length_c 14.408508
_cell_angle_alpha 90.000000
_cell_angle_beta 90.000000
_cell_angle_gamma 90.000000
_cell_volume 5312.901006
_symmetry_space_group_name_H-M "I B C A "
_symmetry_group_IT_number 73
_symmetry_cell_setting 'orthorhombic'
loop_
_space_group_symop_operation_xyz
x,y,z
-x,1/2-y,z
x,-y,1/2-z
1/2-x,y,-z
-x,-y,-z
x,1/2+y,-z
-x,y,1/2+z
1/2+x,-y,z
1/2+x,1/2+y,1/2+z
1/2-x,-y,1/2+z
1/2+x,1/2-y,-z
-x,1/2+y,1/2-z
1/2-x,1/2-y,1/2-z
1/2+x,y,1/2-z
1/2-x,1/2+y,z
x,1/2-y,1/2+z
loop_
_atom_site_type_symbol
_atom_site_label
_atom_site_fract_x
_atom_site_fract_y
_atom_site_fract_z
Si Si1 0.736464 0.599226 0.734497
Si Si2 0.120583 0.263548 0.097791
Si Si3 0.014073 0.891479 0.631502
Si Si4 0.085887 0.218904 0.397227
Si Si5 0.616951 0.601646 0.720459
Si Si6 0.741570 0.764233 0.609447
Si Si7 0.050930 0.426148 0.181348
O O1 0.763023 0.500000 0.750000
O O2 0.677678 0.582253 0.700640
O O3 0.760967 0.669253 0.659391
O O4 0.733817 0.651410 0.833061
O O5 0.098718 0.162816 0.132128
O O6 0.179924 0.271093 0.129856
O O7 0.085184 0.345106 0.140393
O O8 0.120670 0.276370 0.987604
O O9 0.062169 0.822114 0.616116
O O10 0.008617 0.887257 0.744948
O O11 0.964062 0.847501 0.584917
O O12 0.025388 0.999858 0.611008
O O13 0.111420 0.173588 0.306602
O O14 0.594687 0.500000 0.750000
O O15 0.750000 0.765103 0.500000
O O16 0.080963 0.500000 0.250000
#
# Coordination Sequence:
#
# PCOD9531331 Si02
#       7
#    16  16  16  16  16  16  16
#     4   9  20  39  60  85 115 156 193 236 294 356
#     4  11  22  37  62  87 114 157 198 237 298 349
#     4   8  20  38  57  79 117 150 192 241 288 330
#     4  11  20  37  56  87 118 156 193 241 289 350
#     4  10  21  38  58  86 122 152 196 241 293 349
#     4  10  21  38  59  89 118 153 191 244 295 350
#     4   8  18  40  59  81 114 150 198 241 282 345
#
# _framework density 21.080760999999999
#
# number of rings (size 3 to 8) (size 9 to 14) (size 15 to 20)
#    0.857    1.429    1.429    0.857    2.000    2.857 
#    5.143    2.857    0.000    0.000    0.000    0.000 
#    0.000    0.000    0.000    0.000    0.000    0.000 
#
# Total GULP energy -311856.057358 kJ/mol
# GULP energy per Si atom -5568.858167 kJ/mol
# Density = 2.103278 g / cm^3
# Si number density = 21.080761 Si / 1000 Ang^3
#
#
#
# Elastic Constant Matrix: (Units=GPa)
#
#
# Indices 1 2 3 4 5 6 
#
# 1 33.1434 5.5359 -14.3973 0.0000 0.0000 0.0000
# 2 5.5359 118.8747 28.7591 0.0000 0.0000 0.0000
# 3 -14.3973 28.7591 85.8101 0.0000 0.0000 0.0000
# 4 0.0000 0.0000 0.0000 14.0219 0.0000 0.0000
# 5 0.0000 0.0000 0.0000 0.0000 -27.3475 0.0000
# 6 0.0000 0.0000 0.0000 0.0000 0.0000 11.3371
#
#
#
# Elastic Compliance Matrix: (Units=1/GPa)
#
#
# Indices 1 2 3 4 5 6 
#
# 1 0.033619 -0.003189 0.006709 0.000000 0.000000 0.000000
# 2 -0.003189 0.009457 -0.003704 0.000000 0.000000 0.000000
# 3 0.006709 -0.003704 0.014021 0.000000 0.000000 0.000000
# 4 0.000000 0.000000 0.000000 0.071317 0.000000 0.000000
# 5 0.000000 0.000000 0.000000 0.000000 -0.036566 0.000000
# 6 0.000000 0.000000 0.000000 0.000000 0.000000 0.088206
#
#
# Mechanical properties :
#
#
# Convention : Reuss Voigt Hill
#
# Bulk Modulus (GPa) = 17.62766 30.84706 24.23736
# Shear Modulus (GPa) = 25.08391 14.13101 19.60746
#
# Velocity S-wave (km/s) = 3.45323 2.59188 3.05308
# Velocity P-wave (km/s) = 4.92746 4.86021 4.89395
#
# Compressibility (1/GPa) = 0.05672903
#
# Stress axis : x y z
#
# Youngs Moduli (GPa) = 29.74504 105.74249 71.32215
#
# Poissons Ratio (x) = 0.33719 -0.47853
# Poissons Ratio (y) = 0.09485 0.26421
# Poissons Ratio (z) = -0.19957 0.39172
#
# Static dielectric constant tensor:
#      x y z
#    x 1.799200 0.000000 0.000000 
#    y 0.000000 1.788640 0.000000 
#    z 0.000000 0.000000 1.782730 
# 
# From -- ./inp_files/19837.got.cif
#   From: 2010.05.17/outbox.cif.g08.bks.cpg/sg73_10_cif.got.tgz:19837.got - 2010.06.03 17:35:07.
