data_PCOD9531874
_publ_section_title
;
Structure prediction by ZEFSAII (Michael W. Deem and Ramdas Pophale) SiO2 
 PCOD9531874
Probable space group: I B C A 
;
_chemical_formula_sum "Si O2"
_cell_formula_units_Z 40
_cell_length_a 18.482847
_cell_length_b 17.257683
_cell_length_c 5.018440
_cell_angle_alpha 90.000000
_cell_angle_beta 90.000000
_cell_angle_gamma 90.000000
_cell_volume 1600.737400
_symmetry_space_group_name_H-M "I B C A "
_symmetry_group_IT_number 73
_symmetry_cell_setting 'orthorhombic'
loop_
_space_group_symop_operation_xyz
x,y,z
-x,1/2-y,z
x,-y,1/2-z
1/2-x,y,-z
-x,-y,-z
x,1/2+y,-z
-x,y,1/2+z
1/2+x,-y,z
1/2+x,1/2+y,1/2+z
1/2-x,-y,1/2+z
1/2+x,1/2-y,-z
-x,1/2+y,1/2-z
1/2-x,1/2-y,1/2-z
1/2+x,y,1/2-z
1/2-x,1/2+y,z
x,1/2-y,1/2+z
loop_
_atom_site_type_symbol
_atom_site_label
_atom_site_fract_x
_atom_site_fract_y
_atom_site_fract_z
Si Si1 0.327783 0.415851 0.352730
Si Si2 0.250000 0.806789 0.000000
Si Si3 0.957360 0.094028 0.274707
O O1 0.351343 0.500000 0.250000
O O2 0.250000 0.423930 0.500000
O O3 0.384843 0.384178 0.565871
O O4 0.313768 0.364122 0.092885
O O5 0.250000 0.750000 0.250000
O O6 0.021069 0.119552 0.479087
O O7 0.955582 0.000000 0.250000
#
# Coordination Sequence:
#
# PCOD9531874 Si02
#       3
#    16   8  16
#     4  12  24  41  74 106 138 178 241 301 348 424
#     4  12  28  46  66 100 142 184 230 292 366 424
#     4  10  22  38  62 102 146 179 220 291 368 423
#
# _framework density 24.988482999999999
#
# number of rings (size 3 to 8) (size 9 to 14) (size 15 to 20)
#    0.000    0.800    4.000    4.800    5.600    0.000 
#    0.000    0.000    0.000    7.200    0.000    0.000 
#    0.000    0.000    0.000    0.000    0.000    0.000 
#
# Total GULP energy -111838.369324 kJ/mol
# GULP energy per Si atom -5591.918466 kJ/mol
# Density = 2.493161 g / cm^3
# Si number density = 24.988483 Si / 1000 Ang^3
#
#
#
# Elastic Constant Matrix: (Units=GPa)
#
#
# Indices 1 2 3 4 5 6 
#
# 1 146.9358 1.5499 53.1639 0.0000 0.0000 0.0000
# 2 1.5499 85.2691 45.8776 0.0000 0.0000 0.0000
# 3 53.1639 45.8776 229.1208 0.0000 0.0000 0.0000
# 4 0.0000 0.0000 0.0000 50.8245 0.0000 0.0000
# 5 0.0000 0.0000 0.0000 0.0000 65.0943 0.0000
# 6 0.0000 0.0000 0.0000 0.0000 0.0000 -7.7527
#
#
#
# Elastic Compliance Matrix: (Units=1/GPa)
#
#
# Indices 1 2 3 4 5 6 
#
# 1 0.007490 0.000895 -0.001917 0.000000 0.000000 0.000000
# 2 0.000895 0.013251 -0.002861 0.000000 0.000000 0.000000
# 3 -0.001917 -0.002861 0.005382 0.000000 0.000000 0.000000
# 4 0.000000 0.000000 0.000000 0.019676 0.000000 0.000000
# 5 0.000000 0.000000 0.000000 0.000000 0.015362 0.000000
# 6 0.000000 0.000000 0.000000 0.000000 0.000000 -0.128987
#
#
# Mechanical properties :
#
#
# Convention : Reuss Voigt Hill
#
# Bulk Modulus (GPa) = 54.47464 73.61206 64.04335
# Shear Modulus (GPa) = -92.69240 45.68217 -23.50511
#
# Velocity S-wave (km/s) = -6.09710 4.28030 -3.07031
# Velocity P-wave (km/s) = 5.26487 7.34509 3.62156
#
# Compressibility (1/GPa) = 0.01835717
#
# Stress axis : x y z
#
# Youngs Moduli (GPa) = 133.51259 75.46826 185.79665
#
# Poissons Ratio (x) = -0.06757 0.35621
# Poissons Ratio (y) = -0.11954 0.53156
# Poissons Ratio (z) = 0.25597 0.21591
#
# Static dielectric constant tensor:
#      x y z
#    x 2.075520 0.000000 0.000000 
#    y 0.000000 2.080620 0.000000 
#    z 0.000000 0.000000 1.982590 
# 
# From -- ./inp_files/1373.got.cif
#   From: 2010.05.17/outbox.cif.g08.bks.cpg/sg73_1_cif.got.tgz:1373.got - 2010.06.03 17:35:07.
