data_PCOD9531916
_publ_section_title
;
Structure prediction by ZEFSAII (Michael W. Deem and Ramdas Pophale) SiO2 
 PCOD9531916
Probable space group: I B C A 
;
_chemical_formula_sum "Si O2"
_cell_formula_units_Z 104
_cell_length_a 26.888515
_cell_length_b 22.770663
_cell_length_c 8.023282
_cell_angle_alpha 90.000000
_cell_angle_beta 90.000000
_cell_angle_gamma 90.000000
_cell_volume 4912.409363
_symmetry_space_group_name_H-M "I B C A "
_symmetry_group_IT_number 73
_symmetry_cell_setting 'orthorhombic'
loop_
_space_group_symop_operation_xyz
x,y,z
-x,1/2-y,z
x,-y,1/2-z
1/2-x,y,-z
-x,-y,-z
x,1/2+y,-z
-x,y,1/2+z
1/2+x,-y,z
1/2+x,1/2+y,1/2+z
1/2-x,-y,1/2+z
1/2+x,1/2-y,-z
-x,1/2+y,1/2-z
1/2-x,1/2-y,1/2-z
1/2+x,y,1/2-z
1/2-x,1/2+y,z
x,1/2-y,1/2+z
loop_
_atom_site_type_symbol
_atom_site_label
_atom_site_fract_x
_atom_site_fract_y
_atom_site_fract_z
Si Si1 0.046414 0.208140 0.644221
Si Si2 0.124957 0.000000 0.750000
Si Si3 0.065069 0.063763 0.229653
Si Si4 0.620925 0.245485 0.108853
Si Si5 0.648957 0.653992 0.643610
Si Si6 0.304812 0.032725 0.929800
Si Si7 0.538834 0.421166 0.391693
O O1 0.097931 0.217387 0.741038
O O2 0.068960 0.219964 0.462684
O O3 0.028940 0.143214 0.677606
O O4 0.000000 0.250000 0.671066
O O5 0.157497 0.985602 0.583224
O O6 0.085688 0.948779 0.796885
O O7 0.097977 0.115006 0.148009
O O8 0.052370 0.082780 0.415798
O O9 0.014873 0.049377 0.129064
O O10 0.090826 0.000000 0.250000
O O11 0.651745 0.190560 0.182442
O O12 0.646794 0.293740 0.991856
O O13 0.687906 0.602503 0.607467
O O14 0.308691 0.000000 0.750000
O O15 0.250000 0.021197 0.000000
#
# Coordination Sequence:
#
# PCOD9531916 Si02
#       7
#    16   8  16  16  16  16  16
#     4  11  22  34  55  85 132 183 240 287 330 401
#     4  12  26  48  74 104 146 194 236 306 368 448
#     4  12  25  40  60  96 145 190 245 297 351 426
#     4  10  22  39  59  95 128 186 238 283 356 418
#     4  11  23  45  70  98 147 189 239 306 362 432
#     4  12  27  52  82 114 144 181 240 308 389 458
#     4  12  25  39  61  98 136 191 243 287 354 421
#
# _framework density 21.170874000000001
#
# number of rings (size 3 to 8) (size 9 to 14) (size 15 to 20)
#    0.000    0.615    3.077    6.000    6.462    0.000 
#    0.000    0.769    0.000    0.000    0.000    0.000 
#    0.000    0.000    0.000    0.000    0.000    0.000 
#
# Total GULP energy -289915.932749 kJ/mol
# GULP energy per Si atom -5575.306399 kJ/mol
# Density = 2.112269 g / cm^3
# Si number density = 21.170874 Si / 1000 Ang^3
#
#
#
# Elastic Constant Matrix: (Units=GPa)
#
#
# Indices 1 2 3 4 5 6 
#
# 1 93.1325 26.7280 43.6597 0.0000 0.0000 0.0000
# 2 26.7280 141.7297 42.8872 0.0000 0.0000 0.0000
# 3 43.6597 42.8872 94.9873 0.0000 0.0000 0.0000
# 4 0.0000 0.0000 0.0000 35.2176 0.0000 0.0000
# 5 0.0000 0.0000 0.0000 0.0000 8.2718 0.0000
# 6 0.0000 0.0000 0.0000 0.0000 0.0000 41.5181
#
#
#
# Elastic Compliance Matrix: (Units=1/GPa)
#
#
# Indices 1 2 3 4 5 6 
#
# 1 0.013762 -0.000789 -0.005969 0.000000 0.000000 0.000000
# 2 -0.000789 0.008217 -0.003348 0.000000 0.000000 0.000000
# 3 -0.005969 -0.003348 0.014783 0.000000 0.000000 0.000000
# 4 0.000000 0.000000 0.000000 0.028395 0.000000 0.000000
# 5 0.000000 0.000000 0.000000 0.000000 0.120892 0.000000
# 6 0.000000 0.000000 0.000000 0.000000 0.000000 0.024086
#
#
# Mechanical properties :
#
#
# Convention : Reuss Voigt Hill
#
# Bulk Modulus (GPa) = 60.42052 61.82216 61.12134
# Shear Modulus (GPa) = 21.19861 31.43981 26.31921
#
# Velocity S-wave (km/s) = 3.16778 3.85782 3.52970
# Velocity P-wave (km/s) = 6.47929 7.00775 6.74869
#
# Compressibility (1/GPa) = 0.01655067
#
# Stress axis : x y z
#
# Youngs Moduli (GPa) = 72.66264 121.69230 67.64561
#
# Poissons Ratio (x) = 0.09602 0.40380
# Poissons Ratio (y) = 0.05733 0.22645
# Poissons Ratio (z) = 0.43375 0.40737
#
# Static dielectric constant tensor:
#      x y z
#    x 1.745170 0.000000 0.000000 
#    y 0.000000 1.826970 0.000000 
#    z 0.000000 0.000000 2.313710 
# 
# From -- ./inp_files/8001.got.cif
#   From: 2010.05.17/outbox.cif.g08.bks.cpg/sg73_5_cif.got.tgz:8001.got - 2010.06.03 17:35:07.
