data_PCOD9531856
_publ_section_title
;
Structure prediction by ZEFSAII (Michael W. Deem and Ramdas Pophale) SiO2 
 PCOD9531856
Probable space group: I B C A 
;
_chemical_formula_sum "Si O2"
_cell_formula_units_Z 88
_cell_length_a 14.905009
_cell_length_b 7.982140
_cell_length_c 31.511378
_cell_angle_alpha 90.000000
_cell_angle_beta 90.000000
_cell_angle_gamma 90.000000
_cell_volume 3749.030544
_symmetry_space_group_name_H-M "I B C A "
_symmetry_group_IT_number 73
_symmetry_cell_setting 'orthorhombic'
loop_
_space_group_symop_operation_xyz
x,y,z
-x,1/2-y,z
x,-y,1/2-z
1/2-x,y,-z
-x,-y,-z
x,1/2+y,-z
-x,y,1/2+z
1/2+x,-y,z
1/2+x,1/2+y,1/2+z
1/2-x,-y,1/2+z
1/2+x,1/2-y,-z
-x,1/2+y,1/2-z
1/2-x,1/2-y,1/2-z
1/2+x,y,1/2-z
1/2-x,1/2+y,z
x,1/2-y,1/2+z
loop_
_atom_site_type_symbol
_atom_site_label
_atom_site_fract_x
_atom_site_fract_y
_atom_site_fract_z
Si Si1 0.750000 0.716550 0.500000
Si Si2 0.164255 0.669010 0.228267
Si Si3 0.500000 0.250000 0.914951
Si Si4 0.348225 0.526274 0.552364
Si Si5 0.444338 0.505409 0.151393
Si Si6 0.140504 0.658861 0.137302
Si Si7 0.059930 0.500000 0.750000
O O1 0.721238 0.830136 0.539357
O O2 0.665377 0.604846 0.485884
O O3 0.127728 0.500000 0.250000
O O4 0.250000 0.750000 0.250000
O O5 0.191639 0.618573 0.180799
O O6 0.093696 0.817124 0.231939
O O7 0.444071 0.385057 0.941678
O O8 0.566454 0.345327 0.882335
O O9 0.324439 0.426798 0.595117
O O10 0.541863 0.422455 0.143163
O O11 0.373950 0.358862 0.139329
O O12 0.450528 0.563852 0.200193
#
# Coordination Sequence:
#
# PCOD9531856 Si02
#       7
#     8  16   8  16  16  16   8
#     4  10  24  46  68  98 132 166 214 270 360 420
#     4  11  23  38  55  86 129 173 221 261 314 385
#     4  10  22  40  70 100 128 172 224 272 336 404
#     4  10  23  44  68  98 130 168 218 275 339 417
#     4   9  20  37  62  93 124 166 218 272 323 368
#     4   9  21  40  61  90 125 166 214 270 319 388
#     4  10  22  38  58  86 126 172 218 276 316 366
#
# _framework density 23.472736999999999
#
# number of rings (size 3 to 8) (size 9 to 14) (size 15 to 20)
#    0.000    2.182    0.909    0.000    6.364    6.545 
#    0.000    1.818    0.000    0.000    0.000    0.000 
#    0.000    0.000    0.000    0.000    0.000    0.000 
#
# Total GULP energy -244981.153539 kJ/mol
# GULP energy per Si atom -5567.753490 kJ/mol
# Density = 2.341931 g / cm^3
# Si number density = 23.472737 Si / 1000 Ang^3
#
#
#
# Elastic Constant Matrix: (Units=GPa)
#
#
# Indices 1 2 3 4 5 6 
#
# 1 11.2416 6.5824 32.4677 0.0000 0.0000 0.0000
# 2 6.5824 121.5243 64.6420 0.0000 0.0000 0.0000
# 3 32.4677 64.6420 150.2538 0.0000 0.0000 0.0000
# 4 0.0000 0.0000 0.0000 43.3250 0.0000 0.0000
# 5 0.0000 0.0000 0.0000 0.0000 17.8260 0.0000
# 6 0.0000 0.0000 0.0000 0.0000 0.0000 8.2179
#
#
#
# Elastic Compliance Matrix: (Units=1/GPa)
#
#
# Indices 1 2 3 4 5 6 
#
# 1 0.274444 0.021629 -0.068609 0.000000 0.000000 0.000000
# 2 0.021629 0.012375 -0.009998 0.000000 0.000000 0.000000
# 3 -0.068609 -0.009998 0.025782 0.000000 0.000000 0.000000
# 4 0.000000 0.000000 0.000000 0.023081 0.000000 0.000000
# 5 0.000000 0.000000 0.000000 0.000000 0.056098 0.000000
# 6 0.000000 0.000000 0.000000 0.000000 0.000000 0.121686
#
#
# Mechanical properties :
#
#
# Convention : Reuss Voigt Hill
#
# Bulk Modulus (GPa) = 5.03406 54.48932 29.76169
# Shear Modulus (GPa) = 7.20839 25.82895 16.51867
#
# Velocity S-wave (km/s) = 1.75432 3.32080 2.65569
# Velocity P-wave (km/s) = 2.50056 6.16181 4.70216
#
# Compressibility (1/GPa) = 0.19864665
#
# Stress axis : x y z
#
# Youngs Moduli (GPa) = 3.64373 80.80545 38.78664
#
# Poissons Ratio (x) = -1.74778 2.66110
# Poissons Ratio (y) = -0.07881 0.38779
# Poissons Ratio (z) = 0.24999 0.80789
#
# Static dielectric constant tensor:
#      x y z
#    x -5.000530 0.000000 0.000000 
#    y 0.000000 1.934900 0.000000 
#    z 0.000000 0.000000 1.927640 
# 
# From -- ./inp_files/34532.got.cif
#   From: 2010.05.17/outbox.cif.g08.bks.cpg/sg73_18_cif.got.tgz:34532.got - 2010.06.03 17:35:07.
