data_PCOD9531595
_publ_section_title
;
Structure prediction by ZEFSAII (Michael W. Deem and Ramdas Pophale) SiO2 
 PCOD9531595
Probable space group: I B C A 
;
_chemical_formula_sum "Si O2"
_cell_formula_units_Z 112
_cell_length_a 28.519156
_cell_length_b 11.381087
_cell_length_c 16.012954
_cell_angle_alpha 90.000000
_cell_angle_beta 90.000000
_cell_angle_gamma 90.000000
_cell_volume 5197.468526
_symmetry_space_group_name_H-M "I B C A "
_symmetry_group_IT_number 73
_symmetry_cell_setting 'orthorhombic'
loop_
_space_group_symop_operation_xyz
x,y,z
-x,1/2-y,z
x,-y,1/2-z
1/2-x,y,-z
-x,-y,-z
x,1/2+y,-z
-x,y,1/2+z
1/2+x,-y,z
1/2+x,1/2+y,1/2+z
1/2-x,-y,1/2+z
1/2+x,1/2-y,-z
-x,1/2+y,1/2-z
1/2-x,1/2-y,1/2-z
1/2+x,y,1/2-z
1/2-x,1/2+y,z
x,1/2-y,1/2+z
loop_
_atom_site_type_symbol
_atom_site_label
_atom_site_fract_x
_atom_site_fract_y
_atom_site_fract_z
Si Si1 0.121132 0.865551 0.061636
Si Si2 0.055102 0.020160 0.149673
Si Si3 0.803356 0.725142 0.642636
Si Si4 0.885307 0.757312 0.884781
Si Si5 0.704785 0.840690 0.675001
Si Si6 0.302236 0.515078 0.969700
Si Si7 0.530291 0.372635 0.298937
O O1 0.149140 0.798247 0.134515
O O2 0.071942 0.908462 0.098507
O O3 0.113497 0.786596 0.979898
O O4 0.157619 0.967151 0.030645
O O5 0.092944 0.116528 0.126880
O O6 0.004912 0.077759 0.130316
O O7 0.056236 0.000000 0.250000
O O8 0.757599 0.806017 0.651787
O O9 0.800446 0.647708 0.726249
O O10 0.801844 0.650297 0.557568
O O11 0.832259 0.758637 0.851750
O O12 0.919785 0.673061 0.830469
O O13 0.689539 0.946710 0.616767
O O14 0.250000 0.485420 0.000000
O O15 0.500000 0.250000 0.268563
O O16 0.538116 0.500000 0.250000
#
# Coordination Sequence:
#
# PCOD9531595 Si02
#       7
#    16  16  16  16  16  16  16
#     4  11  23  38  59  93 121 164 208 256 324 373
#     4  10  21  41  65  91 124 164 216 262 322 397
#     4  11  23  38  58  82 120 160 207 255 303 369
#     4  10  22  38  63  89 127 162 207 271 324 385
#     4  10  23  40  57  84 114 159 210 250 303 373
#     4  11  23  37  56  81 121 157 198 253 308 368
#     4   9  20  41  67  96 128 170 213 269 334 396
#
# _framework density 21.548952
#
# number of rings (size 3 to 8) (size 9 to 14) (size 15 to 20)
#    0.000    1.714    1.429    2.143    6.000    2.857 
#    0.000    4.286    0.000    7.714    0.000    0.000 
#    0.000    0.000    0.000    0.000    0.000    0.000 
#
# Total GULP energy -311874.392918 kJ/mol
# GULP energy per Si atom -5569.185588 kJ/mol
# Density = 2.149991 g / cm^3
# Si number density = 21.548952 Si / 1000 Ang^3
#
#
#
# Elastic Constant Matrix: (Units=GPa)
#
#
# Indices 1 2 3 4 5 6 
#
# 1 38.7366 4.2391 3.0940 0.0000 0.0000 0.0000
# 2 4.2391 48.6532 19.9302 0.0000 0.0000 0.0000
# 3 3.0940 19.9302 63.8476 0.0000 0.0000 0.0000
# 4 0.0000 0.0000 0.0000 -13.3633 0.0000 0.0000
# 5 0.0000 0.0000 0.0000 0.0000 20.0262 0.0000
# 6 0.0000 0.0000 0.0000 0.0000 0.0000 28.8293
#
#
#
# Elastic Compliance Matrix: (Units=1/GPa)
#
#
# Indices 1 2 3 4 5 6 
#
# 1 0.026086 -0.002012 -0.000636 0.000000 0.000000 0.000000
# 2 -0.002012 0.023722 -0.007307 0.000000 0.000000 0.000000
# 3 -0.000636 -0.007307 0.017974 0.000000 0.000000 0.000000
# 4 0.000000 0.000000 0.000000 -0.074832 0.000000 0.000000
# 5 0.000000 0.000000 0.000000 0.000000 0.049934 0.000000
# 6 0.000000 0.000000 0.000000 0.000000 0.000000 0.034687
#
#
# Mechanical properties :
#
#
# Convention : Reuss Voigt Hill
#
# Bulk Modulus (GPa) = 20.88934 22.86267 21.87600
# Shear Modulus (GPa) = 44.07558 15.36338 29.71948
#
# Velocity S-wave (km/s) = 4.52748 2.67301 3.71773
# Velocity P-wave (km/s) = 6.08652 4.48992 5.34813
#
# Compressibility (1/GPa) = 0.04787131
#
# Stress axis : x y z
#
# Youngs Moduli (GPa) = 38.33416 42.15424 55.63545
#
# Poissons Ratio (x) = 0.08483 0.03538
# Poissons Ratio (y) = 0.07714 0.40655
# Poissons Ratio (z) = 0.02438 0.30804
#
# Static dielectric constant tensor:
#      x y z
#    x 1.782080 0.000000 0.000000 
#    y 0.000000 2.402020 0.000000 
#    z 0.000000 0.000000 1.777930 
# 
# From -- ./inp_files/16353.got.cif
#   From: 2010.05.17/outbox.cif.g08.bks.cpg/sg73_9_cif.got.tgz:16353.got - 2010.06.03 17:35:07.
