data_PCOD9531501
_publ_section_title
;
Structure prediction by ZEFSAII (Michael W. Deem and Ramdas Pophale) SiO2 
 PCOD9531501
Probable space group: I B C A 
;
_chemical_formula_sum "Si O2"
_cell_formula_units_Z 104
_cell_length_a 14.334175
_cell_length_b 16.312453
_cell_length_c 21.882815
_cell_angle_alpha 90.000000
_cell_angle_beta 90.000000
_cell_angle_gamma 90.000000
_cell_volume 5116.761384
_symmetry_space_group_name_H-M "I B C A "
_symmetry_group_IT_number 73
_symmetry_cell_setting 'orthorhombic'
loop_
_space_group_symop_operation_xyz
x,y,z
-x,1/2-y,z
x,-y,1/2-z
1/2-x,y,-z
-x,-y,-z
x,1/2+y,-z
-x,y,1/2+z
1/2+x,-y,z
1/2+x,1/2+y,1/2+z
1/2-x,-y,1/2+z
1/2+x,1/2-y,-z
-x,1/2+y,1/2-z
1/2-x,1/2-y,1/2-z
1/2+x,y,1/2-z
1/2-x,1/2+y,z
x,1/2-y,1/2+z
loop_
_atom_site_type_symbol
_atom_site_label
_atom_site_fract_x
_atom_site_fract_y
_atom_site_fract_z
Si Si1 0.500000 0.750000 0.412814
Si Si2 0.604716 0.648262 0.316382
Si Si3 0.801953 0.104372 0.090031
Si Si4 0.240513 0.969392 0.316875
Si Si5 0.599155 0.097564 0.034890
Si Si6 0.529480 0.496233 0.855595
Si Si7 0.431471 0.323954 0.825294
O O1 0.578244 0.716214 0.366125
O O2 0.533399 0.824871 0.454182
O O3 0.710997 0.618245 0.323966
O O4 0.532310 0.571604 0.328416
O O5 0.590033 0.676281 0.246752
O O6 0.788436 0.025707 0.132550
O O7 0.699124 0.120357 0.064584
O O8 0.840097 0.176887 0.132419
O O9 0.873048 0.084245 0.035117
O O10 0.268985 0.000000 0.250000
O O11 0.130378 0.982436 0.324083
O O12 0.555595 0.023373 0.074788
O O13 0.477560 0.410959 0.843936
O O14 0.500000 0.250000 0.839625
#
# Coordination Sequence:
#
# PCOD9531501 Si02
#       7
#     8  16  16  16  16  16  16
#     4  10  22  40  62  86 122 170 196 246 306 362
#     4  11  20  40  59  88 125 155 204 248 303 373
#     4  10  21  40  62  89 122 162 203 253 298 356
#     4  11  19  35  64  89 116 160 202 249 312 356
#     4   9  22  42  62  86 122 165 208 244 298 361
#     4  10  22  39  61  87 119 162 207 250 299 369
#     4  12  23  37  58  91 127 154 198 258 306 358
#
# _framework density 20.325357
#
# number of rings (size 3 to 8) (size 9 to 14) (size 15 to 20)
#    0.000    1.538    3.846    1.385    1.077    1.846 
#    0.000    1.538    0.000    1.846    0.000    0.000 
#    0.000    0.000    0.000    0.000    0.000    0.000 
#
# Total GULP energy -290245.286739 kJ/mol
# GULP energy per Si atom -5581.640130 kJ/mol
# Density = 2.027910 g / cm^3
# Si number density = 20.325357 Si / 1000 Ang^3
#
#
#
# Elastic Constant Matrix: (Units=GPa)
#
#
# Indices 1 2 3 4 5 6 
#
# 1 54.2239 -4.4434 15.9665 0.0000 0.0000 0.0000
# 2 -4.4434 38.6560 -2.3203 0.0000 0.0000 0.0000
# 3 15.9665 -2.3203 107.2475 0.0000 0.0000 0.0000
# 4 0.0000 0.0000 0.0000 13.6871 0.0000 0.0000
# 5 0.0000 0.0000 0.0000 0.0000 108.4200 0.0000
# 6 0.0000 0.0000 0.0000 0.0000 0.0000 -0.7807
#
#
#
# Elastic Compliance Matrix: (Units=1/GPa)
#
#
# Indices 1 2 3 4 5 6 
#
# 1 0.019451 0.002065 -0.002851 0.000000 0.000000 0.000000
# 2 0.002065 0.026122 0.000258 0.000000 0.000000 0.000000
# 3 -0.002851 0.000258 0.009754 0.000000 0.000000 0.000000
# 4 0.000000 0.000000 0.000000 0.073062 0.000000 0.000000
# 5 0.000000 0.000000 0.000000 0.000000 0.009223 0.000000
# 6 0.000000 0.000000 0.000000 0.000000 0.000000 -1.280858
#
#
# Mechanical properties :
#
#
# Convention : Reuss Voigt Hill
#
# Bulk Modulus (GPa) = 18.42647 24.28145 21.35396
# Shear Modulus (GPa) = -4.44801 36.99359 16.27279
#
# Velocity S-wave (km/s) = -1.48093 4.27086 2.83258
# Velocity P-wave (km/s) = 2.48218 6.02433 4.60727
#
# Compressibility (1/GPa) = 0.05426977
#
# Stress axis : x y z
#
# Youngs Moduli (GPa) = 51.41195 38.28188 102.51942
#
# Poissons Ratio (x) = -0.07904 0.29229
# Poissons Ratio (y) = -0.10615 -0.02643
# Poissons Ratio (z) = 0.14658 -0.00987
#
# Static dielectric constant tensor:
#      x y z
#    x 1.790820 0.000000 0.000000 
#    y 0.000000 1.718560 0.000000 
#    z 0.000000 0.000000 1.731290 
# 
# From -- ./inp_files/19486.got.cif
#   From: 2010.05.17/outbox.cif.g08.bks.cpg/sg73_10_cif.got.tgz:19486.got - 2010.06.03 17:35:07.
