data_PCOD9531602
_publ_section_title
;
Structure prediction by ZEFSAII (Michael W. Deem and Ramdas Pophale) SiO2 
 PCOD9531602
Probable space group: I B C A 
;
_chemical_formula_sum "Si O2"
_cell_formula_units_Z 64
_cell_length_a 14.795425
_cell_length_b 9.452920
_cell_length_c 17.319391
_cell_angle_alpha 90.000000
_cell_angle_beta 90.000000
_cell_angle_gamma 90.000000
_cell_volume 2422.289486
_symmetry_space_group_name_H-M "I B C A "
_symmetry_group_IT_number 73
_symmetry_cell_setting 'orthorhombic'
loop_
_space_group_symop_operation_xyz
x,y,z
-x,1/2-y,z
x,-y,1/2-z
1/2-x,y,-z
-x,-y,-z
x,1/2+y,-z
-x,y,1/2+z
1/2+x,-y,z
1/2+x,1/2+y,1/2+z
1/2-x,-y,1/2+z
1/2+x,1/2-y,-z
-x,1/2+y,1/2-z
1/2-x,1/2-y,1/2-z
1/2+x,y,1/2-z
1/2-x,1/2+y,z
x,1/2-y,1/2+z
loop_
_atom_site_type_symbol
_atom_site_label
_atom_site_fract_x
_atom_site_fract_y
_atom_site_fract_z
Si Si1 0.325793 0.832530 0.911122
Si Si2 0.750000 0.904508 0.000000
Si Si3 0.500000 0.250000 0.309125
Si Si4 0.002670 0.482900 0.407548
Si Si5 0.157659 0.875347 0.702100
O O1 0.427932 0.866036 0.889665
O O2 0.283659 0.744822 0.840093
O O3 0.282123 0.981289 0.936058
O O4 0.324646 0.715446 0.979689
O O5 0.470301 0.376372 0.364637
O O6 0.582384 0.305724 0.257272
O O7 0.097915 0.447738 0.366996
O O8 0.000000 0.500000 0.500000
O O9 0.204474 0.000000 0.750000
#
# Coordination Sequence:
#
# PCOD9531602 Si02
#       5
#    16   8   8  16  16
#     4  11  22  45  66  93 142 173 234 279 329 403
#     4  10  26  42  70  98 128 198 236 282 312 388
#     4  10  22  38  62 106 134 178 202 274 390 410
#     4  11  23  36  70 105 133 167 225 285 365 412
#     4  10  21  41  66 101 137 169 212 285 363 419
#
# _framework density 26.421282999999999
#
# number of rings (size 3 to 8) (size 9 to 14) (size 15 to 20)
#    0.000    1.500    2.500    1.500    7.000    0.000 
#    4.500    1.250    0.000    0.000    0.000    0.000 
#    0.000    0.000    0.000    0.000    0.000    0.000 
#
# Total GULP energy -178921.227693 kJ/mol
# GULP energy per Si atom -5591.288365 kJ/mol
# Density = 2.636115 g / cm^3
# Si number density = 26.421283 Si / 1000 Ang^3
#
#
#
# Elastic Constant Matrix: (Units=GPa)
#
#
# Indices 1 2 3 4 5 6 
#
# 1 51.8360 32.2865 0.0345 0.0000 0.0000 0.0000
# 2 32.2865 204.7680 59.4010 0.0000 0.0000 0.0000
# 3 0.0345 59.4010 128.8205 0.0000 0.0000 0.0000
# 4 0.0000 0.0000 0.0000 49.5514 0.0000 0.0000
# 5 0.0000 0.0000 0.0000 0.0000 29.6438 0.0000
# 6 0.0000 0.0000 0.0000 0.0000 0.0000 47.5116
#
#
#
# Elastic Compliance Matrix: (Units=1/GPa)
#
#
# Indices 1 2 3 4 5 6 
#
# 1 0.021756 -0.003958 0.001819 0.000000 0.000000 0.000000
# 2 -0.003958 0.006358 -0.002931 0.000000 0.000000 0.000000
# 3 0.001819 -0.002931 0.009114 0.000000 0.000000 0.000000
# 4 0.000000 0.000000 0.000000 0.020181 0.000000 0.000000
# 5 0.000000 0.000000 0.000000 0.000000 0.033734 0.000000
# 6 0.000000 0.000000 0.000000 0.000000 0.000000 0.021047
#
#
# Mechanical properties :
#
#
# Convention : Reuss Voigt Hill
#
# Bulk Modulus (GPa) = 36.91623 63.20761 50.06192
# Shear Modulus (GPa) = 38.06400 44.92153 41.49276
#
# Velocity S-wave (km/s) = 3.79972 4.12782 3.96716
# Velocity P-wave (km/s) = 5.76654 6.83326 6.32244
#
# Compressibility (1/GPa) = 0.02708836
#
# Stress axis : x y z
#
# Youngs Moduli (GPa) = 45.96491 157.28719 109.72611
#
# Poissons Ratio (x) = 0.62255 -0.19962
# Poissons Ratio (y) = 0.18193 0.32156
# Poissons Ratio (z) = -0.08362 0.46095
#
# Static dielectric constant tensor:
#      x y z
#    x 2.634030 0.000000 0.000000 
#    y 0.000000 2.106310 0.000000 
#    z 0.000000 0.000000 2.219450 
# 
# From -- ./inp_files/19106.got.cif
#   From: 2010.05.17/outbox.cif.g08.bks.cpg/sg73_10_cif.got.tgz:19106.got - 2010.06.03 17:35:07.
