data_PCOD9531711
_publ_section_title
;
Structure prediction by ZEFSAII (Michael W. Deem and Ramdas Pophale) SiO2 
 PCOD9531711
Probable space group: I B C A 
;
_chemical_formula_sum "Si O2"
_cell_formula_units_Z 96
_cell_length_a 14.726602
_cell_length_b 12.630551
_cell_length_c 21.320431
_cell_angle_alpha 90.000000
_cell_angle_beta 90.000000
_cell_angle_gamma 90.000000
_cell_volume 3965.708849
_symmetry_space_group_name_H-M "I B C A "
_symmetry_group_IT_number 73
_symmetry_cell_setting 'orthorhombic'
loop_
_space_group_symop_operation_xyz
x,y,z
-x,1/2-y,z
x,-y,1/2-z
1/2-x,y,-z
-x,-y,-z
x,1/2+y,-z
-x,y,1/2+z
1/2+x,-y,z
1/2+x,1/2+y,1/2+z
1/2-x,-y,1/2+z
1/2+x,1/2-y,-z
-x,1/2+y,1/2-z
1/2-x,1/2-y,1/2-z
1/2+x,y,1/2-z
1/2-x,1/2+y,z
x,1/2-y,1/2+z
loop_
_atom_site_type_symbol
_atom_site_label
_atom_site_fract_x
_atom_site_fract_y
_atom_site_fract_z
Si Si1 0.207752 0.918782 0.696987
Si Si2 0.568287 0.494131 0.896778
Si Si3 0.996584 0.641218 0.706618
Si Si4 0.929842 0.158794 0.070611
Si Si5 0.624255 0.703625 0.677737
Si Si6 0.743613 0.537378 0.065869
O O1 0.270858 0.814742 0.693481
O O2 0.107872 0.885639 0.719189
O O3 0.244711 0.000000 0.750000
O O4 0.208394 0.976671 0.628718
O O5 0.533989 0.546569 0.833653
O O6 0.481998 0.453416 0.935498
O O7 0.612184 0.382543 0.877480
O O8 0.650904 0.564413 0.921109
O O9 0.063076 0.667496 0.764093
O O10 0.000000 0.750000 0.667047
O O11 0.912192 0.191290 0.144002
O O12 0.826125 0.133562 0.051875
O O13 0.000000 0.250000 0.045140
O O14 0.750000 0.473496 0.000000
#
# Coordination Sequence:
#
# PCOD9531711 Si02
#       6
#    16  16  16  16  16  16
#     4  11  24  43  72 103 147 191 243 310 376 445
#     4  10  21  43  67  96 142 181 243 291 366 434
#     4  12  24  37  65 105 144 189 240 301 368 444
#     4  10  22  44  71  99 142 191 242 302 370 437
#     4  10  22  39  66 101 138 189 235 294 365 440
#     4  11  25  46  74 102 142 197 247 304 371 451
#
# _framework density 24.207525
#
# number of rings (size 3 to 8) (size 9 to 14) (size 15 to 20)
#    0.000    1.333    1.667    5.000    7.000    1.333 
#    0.000    8.333    0.000    0.000    0.000    0.000 
#    0.000    0.000    0.000    0.000    0.000    0.000 
#
# Total GULP energy -267489.721650 kJ/mol
# GULP energy per Si atom -5572.702534 kJ/mol
# Density = 2.415243 g / cm^3
# Si number density = 24.207525 Si / 1000 Ang^3
#
#
#
# Elastic Constant Matrix: (Units=GPa)
#
#
# Indices 1 2 3 4 5 6 
#
# 1 177.4537 24.2785 22.3898 0.0000 0.0000 0.0000
# 2 24.2785 66.4794 19.3107 0.0000 0.0000 0.0000
# 3 22.3898 19.3107 109.3746 0.0000 0.0000 0.0000
# 4 0.0000 0.0000 0.0000 11.1691 0.0000 0.0000
# 5 0.0000 0.0000 0.0000 0.0000 -17.0860 0.0000
# 6 0.0000 0.0000 0.0000 0.0000 0.0000 42.3710
#
#
#
# Elastic Compliance Matrix: (Units=1/GPa)
#
#
# Indices 1 2 3 4 5 6 
#
# 1 0.006013 -0.001938 -0.000889 0.000000 0.000000 0.000000
# 2 -0.001938 0.016480 -0.002513 0.000000 0.000000 0.000000
# 3 -0.000889 -0.002513 0.009768 0.000000 0.000000 0.000000
# 4 0.000000 0.000000 0.000000 0.089533 0.000000 0.000000
# 5 0.000000 0.000000 0.000000 0.000000 -0.058527 0.000000
# 6 0.000000 0.000000 0.000000 0.000000 0.000000 0.023601
#
#
# Mechanical properties :
#
#
# Convention : Reuss Voigt Hill
#
# Bulk Modulus (GPa) = 46.33442 53.91841 50.12641
# Shear Modulus (GPa) = 47.73721 26.44607 37.09164
#
# Velocity S-wave (km/s) = 4.44554 3.30884 3.91862
# Velocity P-wave (km/s) = 6.74777 6.07616 6.42075
#
# Compressibility (1/GPa) = 0.02158223
#
# Stress axis : x y z
#
# Youngs Moduli (GPa) = 166.32014 60.68023 102.36993
#
# Poissons Ratio (x) = 0.11758 0.09098
# Poissons Ratio (y) = 0.32227 0.25725
# Poissons Ratio (z) = 0.14781 0.15249
#
# Static dielectric constant tensor:
#      x y z
#    x 2.014620 0.000000 0.000000 
#    y 0.000000 2.069540 0.000000 
#    z 0.000000 0.000000 1.997890 
# 
# From -- ./inp_files/26015.got.cif
#   From: 2010.05.17/outbox.cif.g08.bks.cpg/sg73_14_cif.got.tgz:26015.got - 2010.06.03 17:35:07.
