data_PCOD9531560
_publ_section_title
;
Structure prediction by ZEFSAII (Michael W. Deem and Ramdas Pophale) SiO2 
 PCOD9531560
Probable space group: I B C A 
;
_chemical_formula_sum "Si O2"
_cell_formula_units_Z 112
_cell_length_a 29.214748
_cell_length_b 5.688310
_cell_length_c 25.881342
_cell_angle_alpha 90.000000
_cell_angle_beta 90.000000
_cell_angle_gamma 90.000000
_cell_volume 4301.027235
_symmetry_space_group_name_H-M "I B C A "
_symmetry_group_IT_number 73
_symmetry_cell_setting 'orthorhombic'
loop_
_space_group_symop_operation_xyz
x,y,z
-x,1/2-y,z
x,-y,1/2-z
1/2-x,y,-z
-x,-y,-z
x,1/2+y,-z
-x,y,1/2+z
1/2+x,-y,z
1/2+x,1/2+y,1/2+z
1/2-x,-y,1/2+z
1/2+x,1/2-y,-z
-x,1/2+y,1/2-z
1/2-x,1/2-y,1/2-z
1/2+x,y,1/2-z
1/2-x,1/2+y,z
x,1/2-y,1/2+z
loop_
_atom_site_type_symbol
_atom_site_label
_atom_site_fract_x
_atom_site_fract_y
_atom_site_fract_z
Si Si1 0.231385 0.786759 0.059131
Si Si2 0.628703 0.841487 0.932698
Si Si3 0.421551 0.000000 0.250000
Si Si4 0.762482 0.967911 0.310037
Si Si5 0.000000 0.750000 0.302821
Si Si6 0.862114 0.144583 0.161974
Si Si7 0.566357 0.491775 0.871782
Si Si8 0.443551 0.139694 0.983408
O O1 0.251396 0.032604 0.080479
O O2 0.176273 0.796046 0.060837
O O3 0.250000 0.781991 0.000000
O O4 0.641693 0.060930 0.896986
O O5 0.587983 0.719086 0.899197
O O6 0.605880 0.888782 0.987888
O O7 0.457301 0.802248 0.233525
O O8 0.390074 0.969026 0.300091
O O9 0.731857 0.743045 0.328842
O O10 0.750063 0.000000 0.250000
O O11 0.811961 0.845197 0.315500
O O12 0.980529 0.538867 0.339352
O O13 0.891853 0.380517 0.160577
O O14 0.558016 0.328522 0.922168
O O15 0.462651 0.380739 0.005806
#
# Coordination Sequence:
#
# PCOD9531560 Si02
#       8
#    16  16   8  16   8  16  16  16
#     4  10  25  39  63  99 143 196 248 296 348 408
#     4  11  25  40  70  98 146 191 246 295 357 437
#     4  10  24  46  76 104 142 180 238 316 386 450
#     4  10  23  44  68 100 141 187 238 303 352 424
#     4  10  24  48  74 106 144 172 246 310 386 452
#     4  11  23  44  69 105 138 195 244 297 373 441
#     4  10  24  43  69 103 138 188 239 305 366 450
#     4  10  21  40  68  97 139 189 227 287 349 413
#
# _framework density 26.040289999999999
#
# number of rings (size 3 to 8) (size 9 to 14) (size 15 to 20)
#    0.000    1.714    2.143    0.000   14.000    1.143 
#    0.000    2.857    0.000    0.000    0.000    0.000 
#    0.000    0.000    0.000    0.000    0.000    0.000 
#
# Total GULP energy -312400.433923 kJ/mol
# GULP energy per Si atom -5578.579177 kJ/mol
# Density = 2.598102 g / cm^3
# Si number density = 26.040290 Si / 1000 Ang^3
#
#
#
# Elastic Constant Matrix: (Units=GPa)
#
#
# Indices 1 2 3 4 5 6 
#
# 1 86.0200 16.2998 4.3395 0.0000 0.0000 0.0000
# 2 16.2998 132.7135 15.4714 0.0000 0.0000 0.0000
# 3 4.3395 15.4714 68.9822 0.0000 0.0000 0.0000
# 4 0.0000 0.0000 0.0000 -38.8652 0.0000 0.0000
# 5 0.0000 0.0000 0.0000 0.0000 66.1040 0.0000
# 6 0.0000 0.0000 0.0000 0.0000 0.0000 33.3399
#
#
#
# Elastic Compliance Matrix: (Units=1/GPa)
#
#
# Indices 1 2 3 4 5 6 
#
# 1 0.011915 -0.001413 -0.000433 0.000000 0.000000 0.000000
# 2 -0.001413 0.007905 -0.001684 0.000000 0.000000 0.000000
# 3 -0.000433 -0.001684 0.014901 0.000000 0.000000 0.000000
# 4 0.000000 0.000000 0.000000 -0.025730 0.000000 0.000000
# 5 0.000000 0.000000 0.000000 0.000000 0.015128 0.000000
# 6 0.000000 0.000000 0.000000 0.000000 0.000000 0.029994
#
#
# Mechanical properties :
#
#
# Convention : Reuss Voigt Hill
#
# Bulk Modulus (GPa) = 36.15085 39.99300 38.07192
# Shear Modulus (GPa) = 71.03013 28.88940 49.95977
#
# Velocity S-wave (km/s) = 5.22841 3.33440 4.38488
# Velocity P-wave (km/s) = 7.09656 5.49688 6.34732
#
# Compressibility (1/GPa) = 0.02766187
#
# Stress axis : x y z
#
# Youngs Moduli (GPa) = 83.92947 126.50404 67.10778
#
# Poissons Ratio (x) = 0.17874 0.02903
# Poissons Ratio (y) = 0.11859 0.11301
# Poissons Ratio (z) = 0.03631 0.21304
#
# Static dielectric constant tensor:
#      x y z
#    x 2.047390 0.000000 0.000000 
#    y 0.000000 2.180590 0.000000 
#    z 0.000000 0.000000 1.783830 
# 
# From -- ./inp_files/34937.got.cif
#   From: 2010.05.17/outbox.cif.g08.bks.cpg/sg73_18_cif.got.tgz:34937.got - 2010.06.03 17:35:07.
