data_PCOD9531266
_publ_section_title
;
Structure prediction by ZEFSAII (Michael W. Deem and Ramdas Pophale) SiO2 
 PCOD9531266
Probable space group: I B C A 
;
_chemical_formula_sum "Si O2"
_cell_formula_units_Z 120
_cell_length_a 13.583195
_cell_length_b 15.496958
_cell_length_c 24.697109
_cell_angle_alpha 90.000000
_cell_angle_beta 90.000000
_cell_angle_gamma 90.000000
_cell_volume 5198.697049
_symmetry_space_group_name_H-M "I B C A "
_symmetry_group_IT_number 73
_symmetry_cell_setting 'orthorhombic'
loop_
_space_group_symop_operation_xyz
x,y,z
-x,1/2-y,z
x,-y,1/2-z
1/2-x,y,-z
-x,-y,-z
x,1/2+y,-z
-x,y,1/2+z
1/2+x,-y,z
1/2+x,1/2+y,1/2+z
1/2-x,-y,1/2+z
1/2+x,1/2-y,-z
-x,1/2+y,1/2-z
1/2-x,1/2-y,1/2-z
1/2+x,y,1/2-z
1/2-x,1/2+y,z
x,1/2-y,1/2+z
loop_
_atom_site_type_symbol
_atom_site_label
_atom_site_fract_x
_atom_site_fract_y
_atom_site_fract_z
Si Si1 0.842723 0.955318 0.306643
Si Si2 0.500000 0.750000 0.540759
Si Si3 0.836890 0.640644 0.393396
Si Si4 0.971150 0.657921 0.128522
Si Si5 0.560694 0.482994 0.809124
Si Si6 0.251211 0.686114 0.633218
Si Si7 0.853642 0.613273 0.970164
Si Si8 0.854404 0.438598 0.919170
O O1 0.772384 0.873911 0.315718
O O2 0.958267 0.930679 0.303810
O O3 0.821963 0.000000 0.250000
O O4 0.836138 0.017522 0.359573
O O5 0.572325 0.686713 0.575614
O O6 0.568802 0.817055 0.508533
O O7 0.876305 0.566948 0.353609
O O8 0.778493 0.714503 0.360084
O O9 0.751859 0.602369 0.432427
O O10 0.966520 0.577236 0.168673
O O11 0.857974 0.670115 0.111046
O O12 0.000000 0.750000 0.153249
O O13 0.057792 0.629674 0.087485
O O14 0.603528 0.500000 0.750000
O O15 0.328055 0.650226 0.589229
O O16 0.885754 0.514956 0.959882
O O17 0.750000 0.612768 0.000000
#
# Coordination Sequence:
#
# PCOD9531266 Si02
#       8
#    16   8  16  16  16  16  16  16
#     4   9  19  37  59  88 124 167 213 270 325 391
#     4  10  22  42  68  96 128 168 212 262 326 400
#     4  11  20  39  64  90 124 175 219 267 328 393
#     4  11  21  40  59  86 123 172 215 268 324 386
#     4  10  21  37  57  86 126 166 218 277 329 384
#     4  10  21  38  64  90 126 171 218 264 331 391
#     4  10  22  43  67 100 131 162 209 267 323 399
#     4  10  21  38  63  90 128 168 213 262 328 385
#
# _framework density 23.082706999999999
#
# number of rings (size 3 to 8) (size 9 to 14) (size 15 to 20)
#    0.000    1.867    1.333    4.800    0.000    2.133 
#    9.600    6.667    0.000    0.000    0.000    0.000 
#    0.000    0.000    0.000    0.000    0.000    0.000 
#
# Total GULP energy -335002.774253 kJ/mol
# GULP energy per Si atom -5583.379571 kJ/mol
# Density = 2.303017 g / cm^3
# Si number density = 23.082707 Si / 1000 Ang^3
#
#
#
# Elastic Constant Matrix: (Units=GPa)
#
#
# Indices 1 2 3 4 5 6 
#
# 1 150.6469 54.7875 20.3153 0.0000 0.0000 0.0000
# 2 54.7875 156.6900 36.1197 0.0000 0.0000 0.0000
# 3 20.3153 36.1197 60.7594 0.0000 0.0000 0.0000
# 4 0.0000 0.0000 0.0000 -0.0085 0.0000 0.0000
# 5 0.0000 0.0000 0.0000 0.0000 7.9500 0.0000
# 6 0.0000 0.0000 0.0000 0.0000 0.0000 35.5418
#
#
#
# Elastic Compliance Matrix: (Units=1/GPa)
#
#
# Indices 1 2 3 4 5 6 
#
# 1 0.007671 -0.002423 -0.001124 0.000000 0.000000 0.000000
# 2 -0.002423 0.008161 -0.004041 0.000000 0.000000 0.000000
# 3 -0.001124 -0.004041 0.019237 0.000001 0.000000 0.000000
# 4 0.000000 0.000000 0.000001********** 0.000001 0.000000
# 5 0.000000 0.000000 0.000000 0.000001 0.125786 0.000000
# 6 0.000000 0.000000 0.000000 0.000000 0.000000 0.028136
#
#
# Mechanical properties :
#
#
# Convention : Reuss Voigt Hill
#
# Bulk Modulus (GPa) = 50.27359 65.61570 57.94464
# Shear Modulus (GPa) = -0.04275 25.82159 12.88942
#
# Velocity S-wave (km/s) = -0.13623 3.34826 2.36562
# Velocity P-wave (km/s) = 4.66929 6.59059 5.71131
#
# Compressibility (1/GPa) = 0.01989116
#
# Stress axis : x y z
#
# Youngs Moduli (GPa) = 130.36358 122.53705 51.98391
#
# Poissons Ratio (x) = 0.29690 0.05845
# Poissons Ratio (y) = 0.31587 0.21008
# Poissons Ratio (z) = 0.14658 0.49520
#
# Static dielectric constant tensor:
#      x y z
#    x 1.927190 0.000000 0.000000 
#    y 0.000000 1.887800 0.000000 
#    z 0.000000 0.000000 1.872570 
# 
# From -- ./inp_files/34405.got.cif
#   From: 2010.05.17/outbox.cif.g08.bks.cpg/sg73_18_cif.got.tgz:34405.got - 2010.06.03 17:35:07.
