data_PCOD9531557
_publ_section_title
;
Structure prediction by ZEFSAII (Michael W. Deem and Ramdas Pophale) SiO2 
 PCOD9531557
Probable space group: I B C A 
;
_chemical_formula_sum "Si O2"
_cell_formula_units_Z 112
_cell_length_a 15.223138
_cell_length_b 29.830544
_cell_length_c 11.471314
_cell_angle_alpha 90.000000
_cell_angle_beta 90.000000
_cell_angle_gamma 90.000000
_cell_volume 5209.289883
_symmetry_space_group_name_H-M "I B C A "
_symmetry_group_IT_number 73
_symmetry_cell_setting 'orthorhombic'
loop_
_space_group_symop_operation_xyz
x,y,z
-x,1/2-y,z
x,-y,1/2-z
1/2-x,y,-z
-x,-y,-z
x,1/2+y,-z
-x,y,1/2+z
1/2+x,-y,z
1/2+x,1/2+y,1/2+z
1/2-x,-y,1/2+z
1/2+x,1/2-y,-z
-x,1/2+y,1/2-z
1/2-x,1/2-y,1/2-z
1/2+x,y,1/2-z
1/2-x,1/2+y,z
x,1/2-y,1/2+z
loop_
_atom_site_type_symbol
_atom_site_label
_atom_site_fract_x
_atom_site_fract_y
_atom_site_fract_z
Si Si1 0.350270 0.934691 0.760217
Si Si2 0.311000 0.070579 0.105103
Si Si3 0.401738 0.839130 0.348936
Si Si4 0.100427 0.167453 0.281196
Si Si5 0.096408 0.997653 0.447952
Si Si6 0.404348 0.728443 0.050127
Si Si7 0.722199 0.791447 0.667400
O O1 0.249062 0.937038 0.718180
O O2 0.381227 0.883970 0.750567
O O3 0.399994 0.962759 0.659829
O O4 0.368981 0.957082 0.885737
O O5 0.382730 0.108686 0.127466
O O6 0.250000 0.089434 0.000000
O O7 0.346219 0.024286 0.051219
O O8 0.505428 0.830887 0.339375
O O9 0.372904 0.805708 0.451447
O O10 0.345149 0.823714 0.237479
O O11 0.092154 0.199413 0.168648
O O12 0.186667 0.182709 0.351968
O O13 0.000000 0.000000 0.500000
O O14 0.500000 0.750000 0.027119
O O15 0.334942 0.768006 0.068296
O O16 0.750000 0.750000 0.750000
#
# Coordination Sequence:
#
# PCOD9531557 Si02
#       7
#    16  16  16  16  16  16  16
#     4  10  21  41  69 101 140 177 222 294 341 409
#     4  10  21  41  69 101 133 181 230 270 350 418
#     4  12  24  42  68  96 132 184 225 280 338 409
#     4  11  23  44  67  99 134 174 234 277 338 409
#     4  10  21  40  68 105 137 176 228 277 349 429
#     4  11  24  40  62  96 133 179 231 282 338 401
#     4  10  24  41  63  95 136 172 228 283 334 397
#
# _framework density 21.500052
#
# number of rings (size 3 to 8) (size 9 to 14) (size 15 to 20)
#    0.000    1.429    2.857    2.571    6.000    0.000 
#    0.000   15.714    0.000    1.714    0.000    0.000 
#    0.000    0.000    0.000    0.000    0.000    0.000 
#
# Total GULP energy -312880.637752 kJ/mol
# GULP energy per Si atom -5587.154246 kJ/mol
# Density = 2.145112 g / cm^3
# Si number density = 21.500052 Si / 1000 Ang^3
#
#
#
# Elastic Constant Matrix: (Units=GPa)
#
#
# Indices 1 2 3 4 5 6 
#
# 1 150.2613 28.2335 31.8362 -0.0002 0.0001 0.0000
# 2 28.2335 75.6913 11.7346 -0.0001 0.0001 0.0000
# 3 31.8362 11.7346 42.6057 0.0002 0.0006 0.0000
# 4 -0.0002 -0.0001 0.0002 26.9073 0.0001 0.0000
# 5 0.0001 0.0001 0.0006 0.0001 25.3332 0.0000
# 6 0.0000 0.0000 0.0000 0.0000 0.0000 40.3431
#
#
#
# Elastic Compliance Matrix: (Units=1/GPa)
#
#
# Indices 1 2 3 4 5 6 
#
# 1 0.008248 -0.002216 -0.005553 0.000000 0.000000 0.000000
# 2 -0.002216 0.014396 -0.002309 0.000000 0.000000 0.000000
# 3 -0.005553 -0.002309 0.028256 0.000000 -0.000001 0.000000
# 4 0.000000 0.000000 0.000000 0.037165 0.000000 0.000000
# 5 0.000000 0.000000 -0.000001 0.000000 0.039474 0.000000
# 6 0.000000 0.000000 0.000000 0.000000 0.000000 0.024787
#
#
# Mechanical properties :
#
#
# Convention : Reuss Voigt Hill
#
# Bulk Modulus (GPa) = 32.52610 45.79631 39.16120
# Shear Modulus (GPa) = 27.36275 31.63364 29.49820
#
# Velocity S-wave (km/s) = 3.57134 3.83995 3.70808
# Velocity P-wave (km/s) = 5.67161 6.40368 6.04873
#
# Compressibility (1/GPa) = 0.03074454
#
# Stress axis : x y z
#
# Youngs Moduli (GPa) = 121.24337 69.46347 35.39028
#
# Poissons Ratio (x) = 0.15391 0.19652
# Poissons Ratio (y) = 0.26863 0.08173
# Poissons Ratio (z) = 0.67324 0.16042
#
# Static dielectric constant tensor:
#      x y z
#    x 1.841080 0.000000 0.000000 
#    y 0.000000 1.786450 0.000000 
#    z 0.000000 0.000000 1.816500 
# 
# From -- ./inp_files/11268.got.cif
#   From: 2010.05.17/outbox.cif.g08.bks.cpg/sg73_6_cif.got.tgz:11268.got - 2010.06.03 17:35:07.
