data_PCOD9531850
_publ_section_title
;
Structure prediction by ZEFSAII (Michael W. Deem and Ramdas Pophale) SiO2 
 PCOD9531850
Probable space group: I B C A 
;
_chemical_formula_sum "Si O2"
_cell_formula_units_Z 112
_cell_length_a 11.638552
_cell_length_b 17.740556
_cell_length_c 24.646407
_cell_angle_alpha 90.000000
_cell_angle_beta 90.000000
_cell_angle_gamma 90.000000
_cell_volume 5088.851691
_symmetry_space_group_name_H-M "I B C A "
_symmetry_group_IT_number 73
_symmetry_cell_setting 'orthorhombic'
loop_
_space_group_symop_operation_xyz
x,y,z
-x,1/2-y,z
x,-y,1/2-z
1/2-x,y,-z
-x,-y,-z
x,1/2+y,-z
-x,y,1/2+z
1/2+x,-y,z
1/2+x,1/2+y,1/2+z
1/2-x,-y,1/2+z
1/2+x,1/2-y,-z
-x,1/2+y,1/2-z
1/2-x,1/2-y,1/2-z
1/2+x,y,1/2-z
1/2-x,1/2+y,z
x,1/2-y,1/2+z
loop_
_atom_site_type_symbol
_atom_site_label
_atom_site_fract_x
_atom_site_fract_y
_atom_site_fract_z
Si Si1 0.785179 0.818799 0.595636
Si Si2 0.379680 0.668316 0.747828
Si Si3 0.788037 0.160356 0.438808
Si Si4 0.090696 0.055202 0.072232
Si Si5 0.970997 0.109611 0.961507
Si Si6 0.369666 0.840188 0.786030
Si Si7 0.049726 0.170426 0.623953
O O1 0.757854 0.729887 0.599549
O O2 0.846603 0.848650 0.649834
O O3 0.661434 0.855887 0.591002
O O4 0.865799 0.833761 0.544469
O O5 0.370604 0.749930 0.775724
O O6 0.500590 0.632268 0.770215
O O7 0.248729 0.633351 0.745719
O O8 0.407614 0.683259 0.684737
O O9 0.750000 0.182117 0.500000
O O10 0.721857 0.081993 0.429895
O O11 0.921755 0.146932 0.431773
O O12 0.038889 0.101995 0.121856
O O13 0.024376 0.090281 0.019909
O O14 0.070264 0.967441 0.066641
O O15 0.000000 0.250000 0.602782
#
# Coordination Sequence:
#
# PCOD9531850 Si02
#       7
#    16  16  16  16  16  16  16
#     4  11  23  35  62  93 121 150 201 258 305 351
#     4   9  18  32  52  83 119 148 188 242 301 362
#     4  10  22  38  55  87 120 149 199 254 296 348
#     4  10  23  41  60  78 122 170 202 239 304 366
#     4  10  24  40  57  86 119 165 204 243 299 370
#     4   9  18  32  54  86 119 150 187 247 305 369
#     4  11  20  36  59  91 115 154 201 245 299 360
#
# _framework density 22.008893
#
# number of rings (size 3 to 8) (size 9 to 14) (size 15 to 20)
#    0.000    2.000    2.857    0.429    8.000    0.000 
#    0.000    0.000    0.000    0.857    0.000    4.000 
#    0.000    0.000    0.000    0.000    0.000    0.000 
#
# Total GULP energy -311998.214067 kJ/mol
# GULP energy per Si atom -5571.396680 kJ/mol
# Density = 2.195880 g / cm^3
# Si number density = 22.008893 Si / 1000 Ang^3
#
#
#
# Elastic Constant Matrix: (Units=GPa)
#
#
# Indices 1 2 3 4 5 6 
#
# 1 152.7322 8.2440 14.8705 0.0000 0.0000 0.0000
# 2 8.2440 36.2570 -5.0341 0.0000 0.0000 0.0000
# 3 14.8705 -5.0341 31.0847 0.0000 0.0000 0.0000
# 4 0.0000 0.0000 0.0000 -1.3629 0.0000 0.0000
# 5 0.0000 0.0000 0.0000 0.0000 23.7824 0.0000
# 6 0.0000 0.0000 0.0000 0.0000 0.0000 -3.4578
#
#
#
# Elastic Compliance Matrix: (Units=1/GPa)
#
#
# Indices 1 2 3 4 5 6 
#
# 1 0.007022 -0.002110 -0.003701 0.000000 0.000000 0.000000
# 2 -0.002110 0.028850 0.005682 0.000000 0.000000 0.000000
# 3 -0.003701 0.005682 0.034861 0.000000 0.000000 0.000000
# 4 0.000000 0.000000 0.000000 -0.733755 0.000000 0.000000
# 5 0.000000 0.000000 0.000000 0.000000 0.042048 0.000000
# 6 0.000000 0.000000 0.000000 0.000000 0.000000 -0.289203
#
#
# Mechanical properties :
#
#
# Convention : Reuss Voigt Hill
#
# Bulk Modulus (GPa) = 14.18982 28.47050 21.33016
# Shear Modulus (GPa) = -5.64061 17.25859 5.80899
#
# Velocity S-wave (km/s) = -1.60264 2.80333 1.62638
# Velocity P-wave (km/s) = 1.74262 4.84172 3.63861
#
# Compressibility (1/GPa) = 0.07047306
#
# Stress axis : x y z
#
# Youngs Moduli (GPa) = 142.41679 34.66253 28.68553
#
# Poissons Ratio (x) = 0.07315 0.10616
# Poissons Ratio (y) = 0.30056 -0.16298
# Poissons Ratio (z) = 0.52706 -0.19694
#
# Static dielectric constant tensor:
#      x y z
#    x 1.889260 0.000000 0.000000 
#    y 0.000000 1.742020 0.000000 
#    z 0.000000 0.000000 1.825580 
# 
# From -- ./inp_files/34037.got.cif
#   From: 2010.05.17/outbox.cif.g08.bks.cpg/sg73_18_cif.got.tgz:34037.got - 2010.06.03 17:35:07.
