data_PCOD9531953
_publ_section_title
;
Structure prediction by ZEFSAII (Michael W. Deem and Ramdas Pophale) SiO2 
 PCOD9531953
Probable space group: I B C A 
;
_chemical_formula_sum "Si O2"
_cell_formula_units_Z 96
_cell_length_a 9.448301
_cell_length_b 20.029492
_cell_length_c 23.301118
_cell_angle_alpha 90.000000
_cell_angle_beta 90.000000
_cell_angle_gamma 90.000000
_cell_volume 4409.612370
_symmetry_space_group_name_H-M "I B C A "
_symmetry_group_IT_number 73
_symmetry_cell_setting 'orthorhombic'
loop_
_space_group_symop_operation_xyz
x,y,z
-x,1/2-y,z
x,-y,1/2-z
1/2-x,y,-z
-x,-y,-z
x,1/2+y,-z
-x,y,1/2+z
1/2+x,-y,z
1/2+x,1/2+y,1/2+z
1/2-x,-y,1/2+z
1/2+x,1/2-y,-z
-x,1/2+y,1/2-z
1/2-x,1/2-y,1/2-z
1/2+x,y,1/2-z
1/2-x,1/2+y,z
x,1/2-y,1/2+z
loop_
_atom_site_type_symbol
_atom_site_label
_atom_site_fract_x
_atom_site_fract_y
_atom_site_fract_z
Si Si1 0.288888 0.173959 0.235622
Si Si2 0.434647 0.087330 0.433074
Si Si3 0.880107 0.322857 0.887176
Si Si4 0.303572 0.806798 0.936728
Si Si5 0.007583 0.331371 0.674048
Si Si6 0.877058 0.554905 0.540613
O O1 0.250000 0.250000 0.250000
O O2 0.394521 0.171835 0.181033
O O3 0.366542 0.146464 0.291495
O O4 0.142029 0.146135 0.211686
O O5 0.282673 0.124571 0.430386
O O6 0.514412 0.132299 0.386735
O O7 0.507542 0.085497 0.496074
O O8 0.428370 0.008194 0.422565
O O9 0.777734 0.259586 0.898610
O O10 0.821835 0.388322 0.917544
O O11 0.032843 0.316197 0.918469
O O12 0.250000 0.784994 0.000000
O O13 0.000000 0.250000 0.670211
O O14 0.750000 0.530075 0.500000
#
# Coordination Sequence:
#
# PCOD9531953 Si02
#       6
#    16  16  16  16  16  16
#     4  10  22  40  65 102 136 181 232 294 360 419
#     4  11  24  42  67  95 141 188 229 297 350 438
#     4  11  24  39  69 101 145 182 235 296 354 429
#     4  11  22  39  64 104 136 183 231 295 357 412
#     4  10  22  39  67  99 136 178 236 293 353 421
#     4  11  24  43  67  98 141 189 235 282 370 436
#
# _framework density 21.770620999999998
#
# number of rings (size 3 to 8) (size 9 to 14) (size 15 to 20)
#    0.000    1.333    1.667    4.000   11.667    1.333 
#    0.000    0.833    0.000    2.000    0.000    0.000 
#    0.000    0.000    0.000    0.000    0.000    0.000 
#
# Total GULP energy -267438.736250 kJ/mol
# GULP energy per Si atom -5571.640339 kJ/mol
# Density = 2.172107 g / cm^3
# Si number density = 21.770621 Si / 1000 Ang^3
#
#
#
# Elastic Constant Matrix: (Units=GPa)
#
#
# Indices 1 2 3 4 5 6 
#
# 1 117.5287 25.2082 32.5515 0.0000 0.0000 0.0000
# 2 25.2082 96.7303 51.4768 0.0000 0.0000 0.0000
# 3 32.5515 51.4768 86.1316 0.0000 0.0000 0.0000
# 4 0.0000 0.0000 0.0000 32.0098 0.0000 0.0000
# 5 0.0000 0.0000 0.0000 0.0000 18.7016 0.0000
# 6 0.0000 0.0000 0.0000 0.0000 0.0000 26.1004
#
#
#
# Elastic Compliance Matrix: (Units=1/GPa)
#
#
# Indices 1 2 3 4 5 6 
#
# 1 0.009549 -0.000833 -0.003111 0.000000 0.000000 0.000000
# 2 -0.000833 0.015232 -0.008789 0.000000 0.000000 0.000000
# 3 -0.003111 -0.008789 0.018039 0.000000 0.000000 0.000000
# 4 0.000000 0.000000 0.000000 0.031240 0.000000 0.000000
# 5 0.000000 0.000000 0.000000 0.000000 0.053471 0.000000
# 6 0.000000 0.000000 0.000000 0.000000 0.000000 0.038314
#
#
# Mechanical properties :
#
#
# Convention : Reuss Voigt Hill
#
# Bulk Modulus (GPa) = 57.62291 57.65151 57.63721
# Shear Modulus (GPa) = 25.36849 28.10598 26.73723
#
# Velocity S-wave (km/s) = 3.41730 3.59695 3.50828
# Velocity P-wave (km/s) = 6.48816 6.61737 6.55308
#
# Compressibility (1/GPa) = 0.01735421
#
# Stress axis : x y z
#
# Youngs Moduli (GPa) = 104.72477 65.65050 55.43696
#
# Poissons Ratio (x) = 0.05468 0.17246
# Poissons Ratio (y) = 0.08722 0.48722
# Poissons Ratio (z) = 0.32580 0.57699
#
# Static dielectric constant tensor:
#      x y z
#    x 1.908780 0.000000 0.000000 
#    y 0.000000 2.527860 0.000000 
#    z 0.000000 0.000000 1.801530 
# 
# From -- ./inp_files/25465.got.cif
#   From: 2010.05.17/outbox.cif.g08.bks.cpg/sg73_13_cif.got.tgz:25465.got - 2010.06.03 17:35:07.
