data_PCOD9531113
_publ_section_title
;
Structure prediction by ZEFSAII (Michael W. Deem and Ramdas Pophale) SiO2 
 PCOD9531113
Probable space group: I B C A 
;
_chemical_formula_sum "Si O2"
_cell_formula_units_Z 96
_cell_length_a 25.946050
_cell_length_b 19.262659
_cell_length_c 8.506706
_cell_angle_alpha 90.000000
_cell_angle_beta 90.000000
_cell_angle_gamma 90.000000
_cell_volume 4251.565856
_symmetry_space_group_name_H-M "I B C A "
_symmetry_group_IT_number 73
_symmetry_cell_setting 'orthorhombic'
loop_
_space_group_symop_operation_xyz
x,y,z
-x,1/2-y,z
x,-y,1/2-z
1/2-x,y,-z
-x,-y,-z
x,1/2+y,-z
-x,y,1/2+z
1/2+x,-y,z
1/2+x,1/2+y,1/2+z
1/2-x,-y,1/2+z
1/2+x,1/2-y,-z
-x,1/2+y,1/2-z
1/2-x,1/2-y,1/2-z
1/2+x,y,1/2-z
1/2-x,1/2+y,z
x,1/2-y,1/2+z
loop_
_atom_site_type_symbol
_atom_site_label
_atom_site_fract_x
_atom_site_fract_y
_atom_site_fract_z
Si Si1 0.330845 0.851304 0.838084
Si Si2 0.834240 0.000000 0.750000
Si Si3 0.307887 0.272191 0.472181
Si Si4 0.000000 0.250000 0.933209
Si Si5 0.597471 0.516590 0.430823
Si Si6 0.068153 0.127241 0.509344
Si Si7 0.596244 0.667206 0.339527
O O1 0.309011 0.809571 0.987153
O O2 0.322101 0.796153 0.701013
O O3 0.307633 0.926060 0.790431
O O4 0.392215 0.864588 0.864444
O O5 0.864943 0.013671 0.583913
O O6 0.250000 0.297639 0.500000
O O7 0.352271 0.307841 0.576602
O O8 0.948456 0.275674 0.848623
O O9 0.979473 0.179523 0.013110
O O10 0.617938 0.500000 0.250000
O O11 0.557512 0.454117 0.465418
O O12 0.578342 0.595070 0.418810
O O13 0.102247 0.149868 0.658111
#
# Coordination Sequence:
#
# PCOD9531113 Si02
#       7
#    16   8  16   8  16  16  16
#     4  11  23  43  71 101 138 182 234 289 353 425
#     4  10  20  42  72 102 138 188 238 294 358 426
#     4  12  25  43  71 102 140 187 232 292 358 427
#     4  12  24  38  72 102 138 178 234 292 360 426
#     4   9  20  41  69  95 139 188 232 291 358 428
#     4  10  23  41  68 101 139 182 231 290 358 425
#     4  11  23  43  67  99 142 181 236 293 351 427
#
# _framework density 22.579916000000001
#
# number of rings (size 3 to 8) (size 9 to 14) (size 15 to 20)
#    0.000    1.333    3.333    2.000    0.000    2.000 
#    0.000    0.833    7.333    0.000    0.000    0.000 
#    0.000    0.000    0.000    0.000    0.000    0.000 
#
# Total GULP energy -267241.598042 kJ/mol
# GULP energy per Si atom -5567.533293 kJ/mol
# Density = 2.252852 g / cm^3
# Si number density = 22.579916 Si / 1000 Ang^3
#
#
#
# Elastic Constant Matrix: (Units=GPa)
#
#
# Indices 1 2 3 4 5 6 
#
# 1 93.1198 44.4684 25.4050 0.0000 0.0000 0.0000
# 2 44.4684 170.7094 29.1898 0.0000 0.0000 0.0000
# 3 25.4050 29.1898 82.0868 0.0000 0.0000 0.0000
# 4 0.0000 0.0000 0.0000 29.5936 0.0000 0.0000
# 5 0.0000 0.0000 0.0000 0.0000 -17.1873 0.0000
# 6 0.0000 0.0000 0.0000 0.0000 0.0000 15.0011
#
#
#
# Elastic Compliance Matrix: (Units=1/GPa)
#
#
# Indices 1 2 3 4 5 6 
#
# 1 0.012916 -0.002854 -0.002982 0.000000 0.000000 0.000000
# 2 -0.002854 0.006868 -0.001559 0.000000 0.000000 0.000000
# 3 -0.002982 -0.001559 0.013659 0.000000 0.000000 0.000000
# 4 0.000000 0.000000 0.000000 0.033791 0.000000 0.000000
# 5 0.000000 0.000000 0.000000 0.000000 -0.058183 0.000000
# 6 0.000000 0.000000 0.000000 0.000000 0.000000 0.066662
#
#
# Mechanical properties :
#
#
# Convention : Reuss Voigt Hill
#
# Bulk Modulus (GPa) = 53.61321 60.44916 57.03119
# Shear Modulus (GPa) = 51.69481 21.93835 36.81658
#
# Velocity S-wave (km/s) = 4.78997 3.12041 4.04233
# Velocity P-wave (km/s) = 7.37476 6.30967 6.86291
#
# Compressibility (1/GPa) = 0.01865212
#
# Stress axis : x y z
#
# Youngs Moduli (GPa) = 77.42588 145.60239 73.20921
#
# Poissons Ratio (x) = 0.41562 0.21832
# Poissons Ratio (y) = 0.22101 0.11412
# Poissons Ratio (z) = 0.23090 0.22697
#
# Static dielectric constant tensor:
#      x y z
#    x 1.950740 0.000000 0.000000 
#    y 0.000000 1.895770 0.000000 
#    z 0.000000 0.000000 1.908420 
# 
# From -- ./inp_files/7844.got.cif
#   From: 2010.05.17/outbox.cif.g08.bks.cpg/sg73_4_cif.got.tgz:7844.got - 2010.06.03 17:35:07.
