data_PCOD9531468
_publ_section_title
;
Structure prediction by ZEFSAII (Michael W. Deem and Ramdas Pophale) SiO2 
 PCOD9531468
Probable space group: I B C A 
;
_chemical_formula_sum "Si O2"
_cell_formula_units_Z 112
_cell_length_a 14.748627
_cell_length_b 15.062240
_cell_length_c 24.100662
_cell_angle_alpha 90.000000
_cell_angle_beta 90.000000
_cell_angle_gamma 90.000000
_cell_volume 5353.898427
_symmetry_space_group_name_H-M "I B C A "
_symmetry_group_IT_number 73
_symmetry_cell_setting 'orthorhombic'
loop_
_space_group_symop_operation_xyz
x,y,z
-x,1/2-y,z
x,-y,1/2-z
1/2-x,y,-z
-x,-y,-z
x,1/2+y,-z
-x,y,1/2+z
1/2+x,-y,z
1/2+x,1/2+y,1/2+z
1/2-x,-y,1/2+z
1/2+x,1/2-y,-z
-x,1/2+y,1/2-z
1/2-x,1/2-y,1/2-z
1/2+x,y,1/2-z
1/2-x,1/2+y,z
x,1/2-y,1/2+z
loop_
_atom_site_type_symbol
_atom_site_label
_atom_site_fract_x
_atom_site_fract_y
_atom_site_fract_z
Si Si1 0.453656 0.161582 0.656810
Si Si2 0.324988 0.678164 0.239079
Si Si3 0.375402 0.585683 0.540487
Si Si4 0.563509 0.011214 0.842928
Si Si5 0.602614 0.377122 0.866525
Si Si6 0.173221 0.548047 0.577246
Si Si7 0.287902 0.500000 0.750000
Si Si8 0.000000 0.750000 0.950041
O O1 0.500000 0.250000 0.634301
O O2 0.402199 0.181439 0.714305
O O3 0.382587 0.116517 0.614892
O O4 0.531827 0.089117 0.665456
O O5 0.250000 0.750000 0.250000
O O6 0.356958 0.691662 0.176572
O O7 0.277233 0.582477 0.239108
O O8 0.420019 0.533780 0.592248
O O9 0.271179 0.588720 0.562245
O O10 0.374407 0.533668 0.482399
O O11 0.425098 0.679552 0.526456
O O12 0.476044 0.072430 0.831389
O O13 0.647801 0.025078 0.802201
O O14 0.668668 0.453720 0.890563
O O15 0.559594 0.318926 0.914675
#
# Coordination Sequence:
#
# PCOD9531468 Si02
#       8
#    16  16  16  16  16  16   8   8
#     4  11  24  40  60  96 130 171 216 275 317 393
#     4  12  26  38  64  94 131 170 219 273 333 399
#     4  10  22  44  67  98 129 176 219 277 329 399
#     4  10  21  39  66  87 130 170 219 263 334 395
#     4  10  23  41  63  94 127 177 217 273 334 400
#     4  10  23  44  67  93 136 172 225 271 334 400
#     4  12  22  40  64  94 126 176 212 280 326 396
#     4  10  24  38  72  94 134 170 222 276 328 404
#
# _framework density 20.919336000000001
#
# number of rings (size 3 to 8) (size 9 to 14) (size 15 to 20)
#    0.000    1.429    0.000    5.143    8.000    5.143 
#    0.000    1.429    0.000    0.000    0.000    0.000 
#    0.000    0.000    0.000    0.000    0.000    0.000 
#
# Total GULP energy -312517.286230 kJ/mol
# GULP energy per Si atom -5580.665826 kJ/mol
# Density = 2.087172 g / cm^3
# Si number density = 20.919336 Si / 1000 Ang^3
#
#
#
# Elastic Constant Matrix: (Units=GPa)
#
#
# Indices 1 2 3 4 5 6 
#
# 1 51.2696 -4.7498 13.2551 0.0000 0.0000 0.0000
# 2 -4.7498 52.7879 -4.7371 0.0000 0.0000 0.0000
# 3 13.2551 -4.7371 89.3012 0.0000 0.0000 0.0000
# 4 0.0000 0.0000 0.0000 17.8362 0.0000 0.0000
# 5 0.0000 0.0000 0.0000 0.0000 40.6250 0.0000
# 6 0.0000 0.0000 0.0000 0.0000 0.0000 23.1472
#
#
#
# Elastic Compliance Matrix: (Units=1/GPa)
#
#
# Indices 1 2 3 4 5 6 
#
# 1 0.020412 0.001572 -0.002946 0.000000 0.000000 0.000000
# 2 0.001572 0.019155 0.000783 0.000000 0.000000 0.000000
# 3 -0.002946 0.000783 0.011677 0.000000 0.000000 0.000000
# 4 0.000000 0.000000 0.000000 0.056066 0.000000 0.000000
# 5 0.000000 0.000000 0.000000 0.000000 0.024615 0.000000
# 6 0.000000 0.000000 0.000000 0.000000 0.000000 0.043202
#
#
# Mechanical properties :
#
#
# Convention : Reuss Voigt Hill
#
# Bulk Modulus (GPa) = 19.97532 22.32166 21.14849
# Shear Modulus (GPa) = 25.90709 28.96106 27.43407
#
# Velocity S-wave (km/s) = 3.52295 3.72481 3.62528
# Velocity P-wave (km/s) = 5.11055 5.40300 5.25881
#
# Compressibility (1/GPa) = 0.05006179
#
# Stress axis : x y z
#
# Youngs Moduli (GPa) = 48.99043 52.20444 85.63909
#
# Poissons Ratio (x) = -0.08208 0.25233
# Poissons Ratio (y) = -0.07703 -0.06704
# Poissons Ratio (z) = 0.14434 -0.04086
#
# Static dielectric constant tensor:
#      x y z
#    x 1.807510 0.000000 0.000000 
#    y 0.000000 1.751610 0.000000 
#    z 0.000000 0.000000 1.762390 
# 
# From -- ./inp_files/29574.got.cif
#   From: 2010.05.17/outbox.cif.g08.bks.cpg/sg73_15_cif.got.tgz:29574.got - 2010.06.03 17:35:07.
