data_PCOD9531290
_publ_section_title
;
Structure prediction by ZEFSAII (Michael W. Deem and Ramdas Pophale) SiO2 
 PCOD9531290
Probable space group: I B C A 
;
_chemical_formula_sum "Si O2"
_cell_formula_units_Z 72
_cell_length_a 12.676152
_cell_length_b 28.309127
_cell_length_c 9.392985
_cell_angle_alpha 90.000000
_cell_angle_beta 90.000000
_cell_angle_gamma 90.000000
_cell_volume 3370.680152
_symmetry_space_group_name_H-M "I B C A "
_symmetry_group_IT_number 73
_symmetry_cell_setting 'orthorhombic'
loop_
_space_group_symop_operation_xyz
x,y,z
-x,1/2-y,z
x,-y,1/2-z
1/2-x,y,-z
-x,-y,-z
x,1/2+y,-z
-x,y,1/2+z
1/2+x,-y,z
1/2+x,1/2+y,1/2+z
1/2-x,-y,1/2+z
1/2+x,1/2-y,-z
-x,1/2+y,1/2-z
1/2-x,1/2-y,1/2-z
1/2+x,y,1/2-z
1/2-x,1/2+y,z
x,1/2-y,1/2+z
loop_
_atom_site_type_symbol
_atom_site_label
_atom_site_fract_x
_atom_site_fract_y
_atom_site_fract_z
Si Si1 0.365676 0.944460 0.722129
Si Si2 0.312605 0.884479 0.137605
Si Si3 0.648048 0.785523 0.753064
Si Si4 0.498201 0.942662 0.983885
Si Si5 0.000000 0.250000 0.002512
O O1 0.263959 0.920233 0.783305
O O2 0.392790 0.930282 0.561236
O O3 0.351785 0.000000 0.750000
O O4 0.466900 0.931797 0.822382
O O5 0.328104 0.840704 0.241596
O O6 0.408755 0.914530 0.071998
O O7 0.250000 0.864694 0.000000
O O8 0.750000 0.750000 0.750000
O O9 0.576481 0.777127 0.612009
O O10 0.578135 0.776774 0.893867
O O11 0.500000 0.000000 0.000000
#
# Coordination Sequence:
#
# PCOD9531290 Si02
#       5
#    16  16  16  16   8
#     4   9  19  36  57  83 116 155 197 246 304 364
#     4  10  21  37  61  90 121 159 206 257 313 375
#     4  11  23  43  66  93 128 165 209 266 321 384
#     4   9  19  36  56  80 115 154 194 243 298 360
#     4  10  24  42  66  92 124 168 210 256 328 390
#
# _framework density 21.360672999999998
#
# number of rings (size 3 to 8) (size 9 to 14) (size 15 to 20)
#    0.000    2.222    0.000    2.000    0.000    9.778 
#    0.000    5.556    0.000    0.000    0.000    0.000 
#    0.000    0.000    0.000    0.000    0.000    0.000 
#
# Total GULP energy -200607.137390 kJ/mol
# GULP energy per Si atom -5572.420483 kJ/mol
# Density = 2.131205 g / cm^3
# Si number density = 21.360673 Si / 1000 Ang^3
#
#
#
# Elastic Constant Matrix: (Units=GPa)
#
#
# Indices 1 2 3 4 5 6 
#
# 1 54.1953 37.9946 25.1639 -0.0003 0.0001 0.0000
# 2 37.9946 74.2460 39.0053 -0.0002 0.0001 0.0000
# 3 25.1639 39.0053 92.3812 0.0008 0.0002 -0.0001
# 4 -0.0003 -0.0002 0.0008 10.7893 -0.0002 0.0000
# 5 0.0001 0.0001 0.0002 -0.0002 35.3373 0.0000
# 6 0.0000 0.0000 -0.0001 0.0000 0.0000 18.0757
#
#
#
# Elastic Compliance Matrix: (Units=1/GPa)
#
#
# Indices 1 2 3 4 5 6 
#
# 1 0.029091 -0.013781 -0.002106 0.000001 0.000000 0.000000
# 2 -0.013781 0.023836 -0.006310 0.000000 0.000000 0.000000
# 3 -0.002106 -0.006310 0.014063 -0.000001 0.000000 0.000000
# 4 0.000001 0.000000 -0.000001 0.092685 0.000001 0.000000
# 5 0.000000 0.000000 0.000000 0.000001 0.028299 0.000000
# 6 0.000000 0.000000 0.000000 0.000000 0.000000 0.055323
#
#
# Mechanical properties :
#
#
# Convention : Reuss Voigt Hill
#
# Bulk Modulus (GPa) = 44.25536 47.23888 45.74712
# Shear Modulus (GPa) = 16.93649 20.75103 18.84376
#
# Velocity S-wave (km/s) = 2.81887 3.12021 2.97336
# Velocity P-wave (km/s) = 5.59981 5.92822 5.76635
#
# Compressibility (1/GPa) = 0.02259613
#
# Stress axis : x y z
#
# Youngs Moduli (GPa) = 34.37539 41.95342 71.11061
#
# Poissons Ratio (x) = 0.57814 0.14973
# Poissons Ratio (y) = 0.47371 0.44873
# Poissons Ratio (z) = 0.07238 0.26474
#
# Static dielectric constant tensor:
#      x y z
#    x 1.794560 0.000000 0.000000 
#    y 0.000000 1.669290 0.000000 
#    z 0.000000 0.000000 1.802250 
# 
# From -- ./inp_files/4784.got.cif
#   From: 2010.05.17/outbox.cif.g08.bks.cpg/sg73_3_cif.got.tgz:4784.got - 2010.06.03 17:35:07.
