data_PCOD9531619
_publ_section_title
;
Structure prediction by ZEFSAII (Michael W. Deem and Ramdas Pophale) SiO2 
 PCOD9531619
Probable space group: I B C A 
;
_chemical_formula_sum "Si O2"
_cell_formula_units_Z 112
_cell_length_a 16.288269
_cell_length_b 22.043513
_cell_length_c 15.366018
_cell_angle_alpha 90.000000
_cell_angle_beta 90.000000
_cell_angle_gamma 90.000000
_cell_volume 5517.179050
_symmetry_space_group_name_H-M "I B C A "
_symmetry_group_IT_number 73
_symmetry_cell_setting 'orthorhombic'
loop_
_space_group_symop_operation_xyz
x,y,z
-x,1/2-y,z
x,-y,1/2-z
1/2-x,y,-z
-x,-y,-z
x,1/2+y,-z
-x,y,1/2+z
1/2+x,-y,z
1/2+x,1/2+y,1/2+z
1/2-x,-y,1/2+z
1/2+x,1/2-y,-z
-x,1/2+y,1/2-z
1/2-x,1/2-y,1/2-z
1/2+x,y,1/2-z
1/2-x,1/2+y,z
x,1/2-y,1/2+z
loop_
_atom_site_type_symbol
_atom_site_label
_atom_site_fract_x
_atom_site_fract_y
_atom_site_fract_z
Si Si1 0.932260 0.411265 0.520379
Si Si2 0.851319 0.650155 0.644206
Si Si3 0.250000 0.920141 0.500000
Si Si4 0.907136 0.528939 0.412340
Si Si5 0.816220 0.000000 0.750000
Si Si6 0.032086 0.817598 0.113826
Si Si7 0.305681 0.781651 0.825586
Si Si8 0.703427 0.603319 0.166467
O O1 0.929104 0.461117 0.442988
O O2 0.929370 0.346916 0.472402
O O3 0.861330 0.415740 0.592858
O O4 0.018698 0.426083 0.566452
O O5 0.789314 0.615754 0.580687
O O6 0.829328 0.720472 0.624388
O O7 0.835394 0.627234 0.742509
O O8 0.949265 0.644010 0.631402
O O9 0.173106 0.957411 0.467814
O O10 0.876499 0.534808 0.314666
O O11 0.760655 0.953307 0.694509
O O12 0.103328 0.811802 0.187746
O O13 0.000000 0.750000 0.098594
O O14 0.250000 0.750000 0.750000
O O15 0.254366 0.837404 0.864425
#
# Coordination Sequence:
#
# PCOD9531619 Si02
#       8
#    16  16   8  16   8  16  16  16
#     4  11  25  43  63  97 133 171 219 282 337 400
#     4  10  22  41  68  94 130 173 218 278 334 404
#     4  12  20  44  70  94 126 174 232 276 338 418
#     4  11  25  42  65  95 130 171 224 281 339 405
#     4  12  24  42  66  94 126 182 220 278 338 412
#     4  10  21  41  67  96 132 175 223 276 342 398
#     4   9  21  41  63  97 132 169 214 273 330 399
#     4  11  24  41  64  95 132 170 221 266 339 401
#
# _framework density 20.300229000000002
#
# number of rings (size 3 to 8) (size 9 to 14) (size 15 to 20)
#    0.000    1.429    2.857    1.714    0.000    6.857 
#    0.000    2.143    0.000    0.000    0.000    0.000 
#    0.000    0.000    0.000    0.000    0.000    0.000 
#
# Total GULP energy -311859.379822 kJ/mol
# GULP energy per Si atom -5568.917497 kJ/mol
# Density = 2.025402 g / cm^3
# Si number density = 20.300229 Si / 1000 Ang^3
#
#
#
# Elastic Constant Matrix: (Units=GPa)
#
#
# Indices 1 2 3 4 5 6 
#
# 1 138.2144 34.8153 39.0236 0.0000 0.0000 0.0000
# 2 34.8153 49.8823 6.4757 0.0000 0.0000 0.0000
# 3 39.0236 6.4757 60.0581 0.0000 0.0000 0.0000
# 4 0.0000 0.0000 0.0000 21.2699 0.0000 0.0000
# 5 0.0000 0.0000 0.0000 0.0000 38.6591 0.0000
# 6 0.0000 0.0000 0.0000 0.0000 0.0000 31.6366
#
#
#
# Elastic Compliance Matrix: (Units=1/GPa)
#
#
# Indices 1 2 3 4 5 6 
#
# 1 0.010660 -0.006634 -0.006211 0.000000 0.000000 0.000000
# 2 -0.006634 0.024460 0.001673 0.000000 0.000000 0.000000
# 3 -0.006211 0.001673 0.020506 0.000000 0.000000 0.000000
# 4 0.000000 0.000000 0.000000 0.047015 0.000000 0.000000
# 5 0.000000 0.000000 0.000000 0.000000 0.025867 0.000000
# 6 0.000000 0.000000 0.000000 0.000000 0.000000 0.031609
#
#
# Mechanical properties :
#
#
# Convention : Reuss Voigt Hill
#
# Bulk Modulus (GPa) = 30.04622 45.42044 37.73333
# Shear Modulus (GPa) = 25.83258 29.50246 27.66752
#
# Velocity S-wave (km/s) = 3.57112 3.81636 3.69578
# Velocity P-wave (km/s) = 5.64242 6.46857 6.06957
#
# Compressibility (1/GPa) = 0.03328205
#
# Stress axis : x y z
#
# Youngs Moduli (GPa) = 93.81086 40.88312 48.76647
#
# Poissons Ratio (x) = 0.27120 0.30289
# Poissons Ratio (y) = 0.62231 -0.08158
# Poissons Ratio (z) = 0.58266 -0.06839
#
# Static dielectric constant tensor:
#      x y z
#    x 1.764410 0.000000 0.000000 
#    y 0.000000 1.783050 0.000000 
#    z 0.000000 0.000000 1.662440 
# 
# From -- ./inp_files/17297.got.cif
#   From: 2010.05.17/outbox.cif.g08.bks.cpg/sg73_9_cif.got.tgz:17297.got - 2010.06.03 17:35:07.
