data_PCOD9531470
_publ_section_title
;
Structure prediction by ZEFSAII (Michael W. Deem and Ramdas Pophale) SiO2 
 PCOD9531470
Probable space group: I B C A 
;
_chemical_formula_sum "Si O2"
_cell_formula_units_Z 88
_cell_length_a 27.457776
_cell_length_b 23.282196
_cell_length_c 5.425696
_cell_angle_alpha 90.000000
_cell_angle_beta 90.000000
_cell_angle_gamma 90.000000
_cell_volume 3468.524412
_symmetry_space_group_name_H-M "I B C A "
_symmetry_group_IT_number 73
_symmetry_cell_setting 'orthorhombic'
loop_
_space_group_symop_operation_xyz
x,y,z
-x,1/2-y,z
x,-y,1/2-z
1/2-x,y,-z
-x,-y,-z
x,1/2+y,-z
-x,y,1/2+z
1/2+x,-y,z
1/2+x,1/2+y,1/2+z
1/2-x,-y,1/2+z
1/2+x,1/2-y,-z
-x,1/2+y,1/2-z
1/2-x,1/2-y,1/2-z
1/2+x,y,1/2-z
1/2-x,1/2+y,z
x,1/2-y,1/2+z
loop_
_atom_site_type_symbol
_atom_site_label
_atom_site_fract_x
_atom_site_fract_y
_atom_site_fract_z
Si Si1 0.824283 0.229639 0.696240
Si Si2 0.343715 0.500000 0.250000
Si Si3 0.628253 0.440211 0.186902
Si Si4 0.065600 0.224073 0.663696
Si Si5 0.969804 0.404768 0.583250
Si Si6 0.305727 0.115189 0.542659
O O1 0.800899 0.261297 0.930254
O O2 0.876958 0.261024 0.672002
O O3 0.828172 0.163425 0.777965
O O4 0.378925 0.455414 0.402917
O O5 0.308725 0.551186 0.346246
O O6 0.655373 0.500000 0.250000
O O7 0.579076 0.438546 0.342718
O O8 0.662578 0.390268 0.290214
O O9 0.048456 0.234559 0.942984
O O10 0.049792 0.160715 0.590321
O O11 0.993773 0.414740 0.316117
O O12 0.250000 0.130975 0.500000
#
# Coordination Sequence:
#
# PCOD9531470 Si02
#       6
#    16   8  16  16  16  16
#     4  10  23  43  71 106 147 200 242 305 377 452
#     4  10  26  44  80 104 154 200 256 316 398 446
#     4  10  25  48  71 106 144 201 250 317 389 453
#     4  10  21  39  66  95 138 183 232 293 367 440
#     4  12  28  44  73 108 144 193 254 313 381 452
#     4  11  26  45  77 113 153 202 259 318 383 468
#
# _framework density 25.371019
#
# number of rings (size 3 to 8) (size 9 to 14) (size 15 to 20)
#    0.000    1.455    0.000    3.273   16.545    3.636 
#    0.000    0.000    0.000    0.000    0.000    0.000 
#    0.000    0.000    0.000    0.000    0.000    0.000 
#
# Total GULP energy -245256.405120 kJ/mol
# GULP energy per Si atom -5574.009207 kJ/mol
# Density = 2.531327 g / cm^3
# Si number density = 25.371019 Si / 1000 Ang^3
#
#
#
# Elastic Constant Matrix: (Units=GPa)
#
#
# Indices 1 2 3 4 5 6 
#
# 1 95.0892 -14.2198 -5.6813 0.0000 0.0000 0.0000
# 2 -14.2198 119.3134 15.4594 0.0000 0.0000 0.0000
# 3 -5.6813 15.4594 104.6240 0.0000 0.0000 0.0000
# 4 0.0000 0.0000 0.0000 41.9457 0.0000 0.0000
# 5 0.0000 0.0000 0.0000 0.0000 9.5364 0.0000
# 6 0.0000 0.0000 0.0000 0.0000 0.0000 15.0169
#
#
#
# Elastic Compliance Matrix: (Units=1/GPa)
#
#
# Indices 1 2 3 4 5 6 
#
# 1 0.010724 0.001226 0.000401 0.000000 0.000000 0.000000
# 2 0.001226 0.008685 -0.001217 0.000000 0.000000 0.000000
# 3 0.000401 -0.001217 0.009760 0.000000 0.000000 0.000000
# 4 0.000000 0.000000 0.000000 0.023840 0.000000 0.000000
# 5 0.000000 0.000000 0.000000 0.000000 0.104861 0.000000
# 6 0.000000 0.000000 0.000000 0.000000 0.000000 0.066592
#
#
# Mechanical properties :
#
#
# Convention : Reuss Voigt Hill
#
# Bulk Modulus (GPa) = 33.34509 34.46036 33.90273
# Shear Modulus (GPa) = 21.40070 34.86436 28.13253
#
# Velocity S-wave (km/s) = 2.90747 3.71102 3.33354
# Velocity P-wave (km/s) = 4.94396 5.65458 5.31117
#
# Compressibility (1/GPa) = 0.02998942
#
# Stress axis : x y z
#
# Youngs Moduli (GPa) = 93.25091 115.14023 102.46319
#
# Poissons Ratio (x) = -0.14117 -0.04110
# Poissons Ratio (y) = -0.11433 0.12467
# Poissons Ratio (z) = -0.03741 0.14010
#
# Static dielectric constant tensor:
#      x y z
#    x 2.023910 0.000000 0.000000 
#    y 0.000000 2.002000 0.000000 
#    z 0.000000 0.000000 4.573580 
# 
# From -- ./inp_files/2270.got.cif
#   From: 2010.05.17/outbox.cif.g08.bks.cpg/sg73_2_cif.got.tgz:2270.got - 2010.06.03 17:35:07.
