data_PCOD9531638
_publ_section_title
;
Structure prediction by ZEFSAII (Michael W. Deem and Ramdas Pophale) SiO2 
 PCOD9531638
Probable space group: I B C A 
;
_chemical_formula_sum "Si O2"
_cell_formula_units_Z 64
_cell_length_a 23.025375
_cell_length_b 12.373665
_cell_length_c 8.796938
_cell_angle_alpha 90.000000
_cell_angle_beta 90.000000
_cell_angle_gamma 90.000000
_cell_volume 2506.320446
_symmetry_space_group_name_H-M "I B C A "
_symmetry_group_IT_number 73
_symmetry_cell_setting 'orthorhombic'
loop_
_space_group_symop_operation_xyz
x,y,z
-x,1/2-y,z
x,-y,1/2-z
1/2-x,y,-z
-x,-y,-z
x,1/2+y,-z
-x,y,1/2+z
1/2+x,-y,z
1/2+x,1/2+y,1/2+z
1/2-x,-y,1/2+z
1/2+x,1/2-y,-z
-x,1/2+y,1/2-z
1/2-x,1/2-y,1/2-z
1/2+x,y,1/2-z
1/2-x,1/2+y,z
x,1/2-y,1/2+z
loop_
_atom_site_type_symbol
_atom_site_label
_atom_site_fract_x
_atom_site_fract_y
_atom_site_fract_z
Si Si1 0.039034 0.868918 0.563728
Si Si2 0.428349 0.621778 0.603808
Si Si3 0.684537 0.720281 0.966348
Si Si4 0.638566 0.617919 0.667746
O O1 0.075713 0.856066 0.406590
O O2 0.058353 0.831980 0.730390
O O3 0.137032 0.648276 0.443182
O O4 0.972409 0.839353 0.527787
O O5 0.445999 0.496432 0.592294
O O6 0.750000 0.687363 0.000000
O O7 0.666733 0.804266 0.294233
O O8 0.676016 0.845449 0.018826
O O9 0.638513 0.500000 0.750000
#
# Coordination Sequence:
#
# PCOD9531638 Si02
#       4
#    16  16  16  16
#     4  10  21  41  76 113 150 205 261 328 406 486
#     4  10  21  42  74 113 156 201 260 331 403 483
#     4  12  27  49  73 111 158 211 276 334 403 498
#     4  12  26  49  76 111 154 211 270 338 411 482
#
# _framework density 25.535443999999998
#
# number of rings (size 3 to 8) (size 9 to 14) (size 15 to 20)
#    0.000    1.000    2.500    3.750    3.500    2.000 
#    4.500    5.000    0.000    0.000    0.000    0.000 
#    0.000    0.000    0.000    0.000    0.000    0.000 
#
# Total GULP energy -178468.774329 kJ/mol
# GULP energy per Si atom -5577.149198 kJ/mol
# Density = 2.547732 g / cm^3
# Si number density = 25.535444 Si / 1000 Ang^3
#
#
#
# Elastic Constant Matrix: (Units=GPa)
#
#
# Indices 1 2 3 4 5 6 
#
# 1 226.9790 41.3650 66.8645 0.0000 0.0000 0.0000
# 2 41.3650 89.3966 61.8771 0.0000 0.0000 0.0000
# 3 66.8645 61.8771 144.0675 0.0000 0.0000 0.0000
# 4 0.0000 0.0000 0.0000 65.9384 0.0000 0.0000
# 5 0.0000 0.0000 0.0000 0.0000 27.7177 0.0000
# 6 0.0000 0.0000 0.0000 0.0000 0.0000 23.5313
#
#
#
# Elastic Compliance Matrix: (Units=1/GPa)
#
#
# Indices 1 2 3 4 5 6 
#
# 1 0.005171 -0.001041 -0.001953 0.000000 0.000000 0.000000
# 2 -0.001041 0.016128 -0.006444 0.000000 0.000000 0.000000
# 3 -0.001953 -0.006444 0.010615 0.000000 0.000000 0.000000
# 4 0.000000 0.000000 0.000000 0.015166 0.000000 0.000000
# 5 0.000000 0.000000 0.000000 0.000000 0.036078 0.000000
# 6 0.000000 0.000000 0.000000 0.000000 0.000000 0.042497
#
#
# Mechanical properties :
#
#
# Convention : Reuss Voigt Hill
#
# Bulk Modulus (GPa) = 76.69456 88.96177 82.82817
# Shear Modulus (GPa) = 33.58520 42.79327 38.18923
#
# Velocity S-wave (km/s) = 3.63056 4.09814 3.87141
# Velocity P-wave (km/s) = 6.90466 7.57015 7.24505
#
# Compressibility (1/GPa) = 0.01303873
#
# Stress axis : x y z
#
# Youngs Moduli (GPa) = 193.39994 62.00413 94.20525
#
# Poissons Ratio (x) = 0.06454 0.18396
# Poissons Ratio (y) = 0.20131 0.60704
# Poissons Ratio (z) = 0.37765 0.39955
#
# Static dielectric constant tensor:
#      x y z
#    x 2.007800 0.000000 0.000000 
#    y 0.000000 2.528540 0.000000 
#    z 0.000000 0.000000 2.022750 
# 
# From -- ./inp_files/5200.got.cif
#   From: 2010.05.17/outbox.cif.g08.bks.cpg/sg73_3_cif.got.tgz:5200.got - 2010.06.03 17:35:07.
