data_PCOD9531328
_publ_section_title
;
Structure prediction by ZEFSAII (Michael W. Deem and Ramdas Pophale) SiO2 
 PCOD9531328
Probable space group: I B C A 
;
_chemical_formula_sum "Si O2"
_cell_formula_units_Z 80
_cell_length_a 13.383529
_cell_length_b 11.662335
_cell_length_c 25.846373
_cell_angle_alpha 90.000000
_cell_angle_beta 90.000000
_cell_angle_gamma 90.000000
_cell_volume 4034.184572
_symmetry_space_group_name_H-M "I B C A "
_symmetry_group_IT_number 73
_symmetry_cell_setting 'orthorhombic'
loop_
_space_group_symop_operation_xyz
x,y,z
-x,1/2-y,z
x,-y,1/2-z
1/2-x,y,-z
-x,-y,-z
x,1/2+y,-z
-x,y,1/2+z
1/2+x,-y,z
1/2+x,1/2+y,1/2+z
1/2-x,-y,1/2+z
1/2+x,1/2-y,-z
-x,1/2+y,1/2-z
1/2-x,1/2-y,1/2-z
1/2+x,y,1/2-z
1/2-x,1/2+y,z
x,1/2-y,1/2+z
loop_
_atom_site_type_symbol
_atom_site_label
_atom_site_fract_x
_atom_site_fract_y
_atom_site_fract_z
Si Si1 0.749126 0.961546 0.060756
Si Si2 0.722874 0.351131 0.645637
Si Si3 0.063123 0.007805 0.308549
Si Si4 0.397397 0.205319 0.880070
Si Si5 0.074822 0.656954 0.115341
O O1 0.673775 0.859962 0.078865
O O2 0.860192 0.924097 0.078703
O O3 0.715575 0.073163 0.093174
O O4 0.750000 0.980244 0.000000
O O5 0.672317 0.430789 0.688626
O O6 0.835871 0.308253 0.646569
O O7 0.656524 0.236531 0.643633
O O8 0.989848 0.083732 0.344292
O O9 0.028342 0.000000 0.250000
O O10 0.075396 0.886103 0.335996
O O11 0.500000 0.250000 0.904119
O O12 0.000000 0.750000 0.089607
#
# Coordination Sequence:
#
# PCOD9531328 Si02
#       5
#    16  16  16  16  16
#     4  10  21  38  60  85 116 156 198 240 291 350
#     4   9  20  38  56  83 120 151 188 240 291 345
#     4  10  21  38  61  87 113 151 196 238 293 352
#     4  10  21  38  58  85 120 152 193 244 289 348
#     4   9  19  38  59  83 118 150 188 242 291 345
#
# _framework density 19.830525000000002
#
# number of rings (size 3 to 8) (size 9 to 14) (size 15 to 20)
#    0.000    2.400    0.000    1.200    0.000    7.200 
#    0.000   28.000    0.000    0.000    0.000    0.000 
#    0.000    0.000    0.000    0.000    0.000    0.000 
#
# Total GULP energy -223026.156054 kJ/mol
# GULP energy per Si atom -5575.653901 kJ/mol
# Density = 1.978539 g / cm^3
# Si number density = 19.830525 Si / 1000 Ang^3
#
#
#
# Elastic Constant Matrix: (Units=GPa)
#
#
# Indices 1 2 3 4 5 6 
#
# 1 115.3036 34.9529 24.1429 0.0000 0.0000 0.0000
# 2 34.9529 77.9766 35.2949 0.0000 0.0000 0.0000
# 3 24.1429 35.2949 93.8840 0.0000 0.0000 0.0000
# 4 0.0000 0.0000 0.0000 2.6251 0.0000 0.0000
# 5 0.0000 0.0000 0.0000 0.0000 14.3003 0.0000
# 6 0.0000 0.0000 0.0000 0.0000 0.0000 40.2276
#
#
#
# Elastic Compliance Matrix: (Units=1/GPa)
#
#
# Indices 1 2 3 4 5 6 
#
# 1 0.010127 -0.004050 -0.001082 0.000000 0.000000 0.000000
# 2 -0.004050 0.017074 -0.005377 0.000000 0.000000 0.000000
# 3 -0.001082 -0.005377 0.012951 0.000000 0.000000 0.000000
# 4 0.000000 0.000000 0.000000 0.380939 0.000000 0.000000
# 5 0.000000 0.000000 0.000000 0.000000 0.069929 0.000000
# 6 0.000000 0.000000 0.000000 0.000000 0.000000 0.024859
#
#
# Mechanical properties :
#
#
# Convention : Reuss Voigt Hill
#
# Bulk Modulus (GPa) = 52.26252 52.88286 52.57269
# Shear Modulus (GPa) = 9.20347 24.28216 16.74282
#
# Velocity S-wave (km/s) = 2.15665 3.50306 2.90883
# Velocity P-wave (km/s) = 5.71081 6.56408 6.15226
#
# Compressibility (1/GPa) = 0.01913417
#
# Stress axis : x y z
#
# Youngs Moduli (GPa) = 98.74704 58.57001 77.21320
#
# Poissons Ratio (x) = 0.23719 0.08352
# Poissons Ratio (y) = 0.39990 0.41520
# Poissons Ratio (z) = 0.10682 0.31495
#
# Static dielectric constant tensor:
#      x y z
#    x 1.756420 0.000000 0.000000 
#    y 0.000000 1.722670 0.000000 
#    z 0.000000 0.000000 1.639720 
# 
# From -- ./inp_files/10779.got.cif
#   From: 2010.05.17/outbox.cif.g08.bks.cpg/sg73_6_cif.got.tgz:10779.got - 2010.06.03 17:35:07.
