data_PCOD9531800
_publ_section_title
;
Structure prediction by ZEFSAII (Michael W. Deem and Ramdas Pophale) SiO2 
 PCOD9531800
Probable space group: I B C A 
;
_chemical_formula_sum "Si O2"
_cell_formula_units_Z 104
_cell_length_a 10.036368
_cell_length_b 25.498714
_cell_length_c 19.992834
_cell_angle_alpha 90.000000
_cell_angle_beta 90.000000
_cell_angle_gamma 90.000000
_cell_volume 5116.455661
_symmetry_space_group_name_H-M "I B C A "
_symmetry_group_IT_number 73
_symmetry_cell_setting 'orthorhombic'
loop_
_space_group_symop_operation_xyz
x,y,z
-x,1/2-y,z
x,-y,1/2-z
1/2-x,y,-z
-x,-y,-z
x,1/2+y,-z
-x,y,1/2+z
1/2+x,-y,z
1/2+x,1/2+y,1/2+z
1/2-x,-y,1/2+z
1/2+x,1/2-y,-z
-x,1/2+y,1/2-z
1/2-x,1/2-y,1/2-z
1/2+x,y,1/2-z
1/2-x,1/2+y,z
x,1/2-y,1/2+z
loop_
_atom_site_type_symbol
_atom_site_label
_atom_site_fract_x
_atom_site_fract_y
_atom_site_fract_z
Si Si1 0.549737 0.500000 0.750000
Si Si2 0.299257 0.128002 0.636956
Si Si3 0.000688 0.370141 0.094526
Si Si4 0.690219 0.887765 0.214649
Si Si5 0.894161 0.207092 0.978579
Si Si6 0.560752 0.068088 0.646880
Si Si7 0.611431 0.957600 0.997957
O O1 0.632485 0.447417 0.770633
O O2 0.453998 0.485485 0.687916
O O3 0.308052 0.143143 0.715208
O O4 0.354090 0.168692 0.582146
O O5 0.407126 0.082129 0.633720
O O6 0.147740 0.113279 0.620039
O O7 0.905107 0.361504 0.158772
O O8 0.924778 0.414851 0.052892
O O9 0.037358 0.324069 0.041133
O O10 0.842621 0.894927 0.190157
O O11 0.000000 0.250000 0.956480
O O12 0.750000 0.229945 0.000000
O O13 0.621348 0.068793 0.574064
O O14 0.750000 0.987340 0.000000
O O15 0.500000 0.000000 0.000000
#
# Coordination Sequence:
#
# PCOD9531800 Si02
#       7
#     8  16  16  16  16  16  16
#     4  10  22  36  54  84 128 170 220 262 314 364
#     4  10  22  40  66  89 124 168 205 265 327 385
#     4  11  23  44  63  94 131 165 218 270 328 388
#     4  11  22  39  62  89 128 175 221 267 319 385
#     4  10  23  43  70  98 125 163 210 271 338 400
#     4  11  22  37  57  85 118 172 215 263 316 372
#     4  12  26  38  59  89 128 173 222 271 318 376
#
# _framework density 20.326571999999999
#
# number of rings (size 3 to 8) (size 9 to 14) (size 15 to 20)
#    0.000    1.231    3.077    3.231    2.154    4.308 
#    0.000    0.769    0.000    4.615    0.000    0.000 
#    0.000    0.000    0.000    0.000    0.000    0.000 
#
# Total GULP energy -289727.115867 kJ/mol
# GULP energy per Si atom -5571.675305 kJ/mol
# Density = 2.028031 g / cm^3
# Si number density = 20.326572 Si / 1000 Ang^3
#
#
#
# Elastic Constant Matrix: (Units=GPa)
#
#
# Indices 1 2 3 4 5 6 
#
# 1 126.1445 25.4677 28.8629 0.0000 0.0000 0.0000
# 2 25.4677 16.5383 7.8828 0.0000 0.0000 0.0000
# 3 28.8629 7.8828 118.4087 0.0000 0.0000 0.0000
# 4 0.0000 0.0000 0.0000 1.8893 0.0000 0.0000
# 5 0.0000 0.0000 0.0000 0.0000 9.6581 0.0000
# 6 0.0000 0.0000 0.0000 0.0000 0.0000 25.8996
#
#
#
# Elastic Compliance Matrix: (Units=1/GPa)
#
#
# Indices 1 2 3 4 5 6 
#
# 1 0.011836 -0.017404 -0.001727 0.000000 0.000000 0.000000
# 2 -0.017404 0.088038 -0.001619 0.000000 0.000000 0.000000
# 3 -0.001727 -0.001619 0.008974 0.000000 0.000000 0.000000
# 4 0.000000 0.000000 0.000000 0.529289 -0.000001 0.000000
# 5 0.000000 0.000000 0.000000 -0.000001 0.103540 0.000000
# 6 0.000000 0.000000 0.000000 0.000000 0.000000 0.038611
#
#
# Mechanical properties :
#
#
# Convention : Reuss Voigt Hill
#
# Bulk Modulus (GPa) = 14.84784 42.83535 28.84160
# Shear Modulus (GPa) = 5.92252 20.74796 13.33524
#
# Velocity S-wave (km/s) = 1.70880 3.19835 2.56413
# Velocity P-wave (km/s) = 3.34871 5.89564 4.79440
#
# Compressibility (1/GPa) = 0.06734987
#
# Stress axis : x y z
#
# Youngs Moduli (GPa) = 84.48680 11.35878 111.43390
#
# Poissons Ratio (x) = 0.19769 0.19239
# Poissons Ratio (y) = 1.47039 0.18037
# Poissons Ratio (z) = 0.14587 0.01839
#
# Static dielectric constant tensor:
#      x y z
#    x 1.839260 0.000000 0.000000 
#    y 0.000000 1.695360 0.000000 
#    z 0.000000 0.000000 1.802040 
# 
# From -- ./inp_files/24974.got.cif
#   From: 2010.05.17/outbox.cif.g08.bks.cpg/sg73_13_cif.got.tgz:24974.got - 2010.06.03 17:35:07.
