data_PCOD9531317
_publ_section_title
;
Structure prediction by ZEFSAII (Michael W. Deem and Ramdas Pophale) SiO2 
 PCOD9531317
Probable space group: I B C A 
;
_chemical_formula_sum "Si O2"
_cell_formula_units_Z 72
_cell_length_a 11.183087
_cell_length_b 18.066538
_cell_length_c 14.360671
_cell_angle_alpha 90.000000
_cell_angle_beta 90.000000
_cell_angle_gamma 90.000000
_cell_volume 2901.425176
_symmetry_space_group_name_H-M "I B C A "
_symmetry_group_IT_number 73
_symmetry_cell_setting 'orthorhombic'
loop_
_space_group_symop_operation_xyz
x,y,z
-x,1/2-y,z
x,-y,1/2-z
1/2-x,y,-z
-x,-y,-z
x,1/2+y,-z
-x,y,1/2+z
1/2+x,-y,z
1/2+x,1/2+y,1/2+z
1/2-x,-y,1/2+z
1/2+x,1/2-y,-z
-x,1/2+y,1/2-z
1/2-x,1/2-y,1/2-z
1/2+x,y,1/2-z
1/2-x,1/2+y,z
x,1/2-y,1/2+z
loop_
_atom_site_type_symbol
_atom_site_label
_atom_site_fract_x
_atom_site_fract_y
_atom_site_fract_z
Si Si1 0.750000 0.683849 0.000000
Si Si2 0.858895 0.044718 0.346211
Si Si3 0.615478 0.793512 0.878286
Si Si4 0.500897 0.166745 0.926474
Si Si5 0.600162 0.979456 0.142436
O O1 0.787514 0.733612 0.089903
O O2 0.631984 0.644235 0.036560
O O3 0.848028 0.132635 0.325312
O O4 0.735917 0.019020 0.395383
O O5 0.866733 0.000000 0.250000
O O6 0.987758 0.028068 0.394043
O O7 0.500000 0.750000 0.840258
O O8 0.577049 0.824404 0.980062
O O9 0.500000 0.250000 0.886256
O O10 0.444639 0.104568 0.864026
O O11 0.615181 0.000000 0.250000
#
# Coordination Sequence:
#
# PCOD9531317 Si02
#       5
#     8  16  16  16  16
#     4   8  16  32  58  88 114 144 194 252 302 350
#     4  10  21  38  57  82 120 162 200 240 291 355
#     4   9  18  34  59  89 117 149 193 247 303 353
#     4   9  18  34  60  89 116 149 195 249 300 352
#     4  10  22  39  58  83 120 162 201 241 292 355
#
# _framework density 24.815391000000002
#
# number of rings (size 3 to 8) (size 9 to 14) (size 15 to 20)
#    0.000    3.111    0.000    2.667    0.000    4.444 
#    0.000    5.556    0.000   18.667    0.000    0.000 
#    0.000    0.000    0.000    0.000    0.000    0.000 
#
# Total GULP energy -200930.466558 kJ/mol
# GULP energy per Si atom -5581.401849 kJ/mol
# Density = 2.475891 g / cm^3
# Si number density = 24.815391 Si / 1000 Ang^3
#
#
#
# Elastic Constant Matrix: (Units=GPa)
#
#
# Indices 1 2 3 4 5 6 
#
# 1 192.9321 6.3315 5.2966 0.0000 0.0000 0.0000
# 2 6.3315 98.9141 35.3919 0.0000 0.0000 0.0000
# 3 5.2966 35.3919 71.1186 -0.0001 0.0000 0.0001
# 4 0.0000 0.0000 -0.0001 39.8854 0.0000 0.0001
# 5 0.0000 0.0000 0.0000 0.0000 -21.6581 0.0000
# 6 0.0000 0.0000 0.0001 0.0001 0.0000 3.1146
#
#
#
# Elastic Compliance Matrix: (Units=1/GPa)
#
#
# Indices 1 2 3 4 5 6 
#
# 1 0.005198 -0.000236 -0.000270 0.000000 0.000000 0.000000
# 2 -0.000236 0.012311 -0.006109 0.000000 0.000000 0.000000
# 3 -0.000270 -0.006109 0.017121 0.000000 0.000000 -0.000001
# 4 0.000000 0.000000 0.000000 0.025072 0.000000 -0.000001
# 5 0.000000 0.000000 0.000000 0.000000 -0.046172 0.000000
# 6 0.000000 0.000000 -0.000001 -0.000001 0.000000 0.321073
#
#
# Mechanical properties :
#
#
# Convention : Reuss Voigt Hill
#
# Bulk Modulus (GPa) = 46.72709 50.77832 48.75270
# Shear Modulus (GPa) = 14.08586 25.33136 19.70861
#
# Velocity S-wave (km/s) = 2.38507 3.19845 2.82123
# Velocity P-wave (km/s) = 5.14349 5.84354 5.50466
#
# Compressibility (1/GPa) = 0.02140086
#
# Stress axis : x y z
#
# Youngs Moduli (GPa) = 192.36969 81.23055 58.40752
#
# Poissons Ratio (x) = 0.01919 0.01574
# Poissons Ratio (y) = 0.04546 0.35680
# Poissons Ratio (z) = 0.05185 0.49622
#
# Static dielectric constant tensor:
#      x y z
#    x 2.045980 0.000000 0.000000 
#    y 0.000000 2.014260 0.000000 
#    z 0.000000 0.000000 1.937010 
# 
# From -- ./inp_files/15961.got.cif
#   From: 2010.05.17/outbox.cif.g08.bks.cpg/sg73_8_cif.got.tgz:15961.got - 2010.06.03 17:35:07.
