data_PCOD9531655
_publ_section_title
;
Structure prediction by ZEFSAII (Michael W. Deem and Ramdas Pophale) SiO2 
 PCOD9531655
Probable space group: I B C A 
;
_chemical_formula_sum "Si O2"
_cell_formula_units_Z 96
_cell_length_a 15.375656
_cell_length_b 20.095716
_cell_length_c 13.370891
_cell_angle_alpha 90.000000
_cell_angle_beta 90.000000
_cell_angle_gamma 90.000000
_cell_volume 4131.402299
_symmetry_space_group_name_H-M "I B C A "
_symmetry_group_IT_number 73
_symmetry_cell_setting 'orthorhombic'
loop_
_space_group_symop_operation_xyz
x,y,z
-x,1/2-y,z
x,-y,1/2-z
1/2-x,y,-z
-x,-y,-z
x,1/2+y,-z
-x,y,1/2+z
1/2+x,-y,z
1/2+x,1/2+y,1/2+z
1/2-x,-y,1/2+z
1/2+x,1/2-y,-z
-x,1/2+y,1/2-z
1/2-x,1/2-y,1/2-z
1/2+x,y,1/2-z
1/2-x,1/2+y,z
x,1/2-y,1/2+z
loop_
_atom_site_type_symbol
_atom_site_label
_atom_site_fract_x
_atom_site_fract_y
_atom_site_fract_z
Si Si1 0.601104 0.568993 0.694419
Si Si2 0.689705 0.226630 0.658622
Si Si3 0.725690 0.584694 0.391623
Si Si4 0.048329 0.433595 0.466928
Si Si5 0.542023 0.321874 0.297980
Si Si6 0.070064 0.189179 0.478522
O O1 0.575329 0.500000 0.750000
O O2 0.706602 0.570589 0.697955
O O3 0.591030 0.582834 0.574687
O O4 0.533962 0.626092 0.727169
O O5 0.750000 0.250000 0.750000
O O6 0.731677 0.165016 0.600976
O O7 0.610317 0.188884 0.711642
O O8 0.650825 0.284136 0.587100
O O9 0.750000 0.553963 0.500000
O O10 0.625048 0.560999 0.385607
O O11 0.000000 0.500000 0.500000
O O12 0.979297 0.376574 0.441156
O O13 0.500000 0.250000 0.308018
O O14 0.588996 0.330540 0.405812
O O15 0.000000 0.250000 0.476660
#
# Coordination Sequence:
#
# PCOD9531655 Si02
#       6
#    16  16  16  16  16  16
#     4  10  23  44  68  96 140 181 237 303 348 435
#     4  12  25  37  69 103 141 185 233 302 361 428
#     4  10  23  43  65  97 136 187 231 286 370 434
#     4  10  22  41  71  98 132 192 233 286 371 430
#     4  10  23  41  67 101 130 182 243 285 363 429
#     4  10  21  42  66  96 141 183 230 298 351 436
#
# _framework density 23.236663
#
# number of rings (size 3 to 8) (size 9 to 14) (size 15 to 20)
#    0.000    1.667    1.667    1.500    7.000    1.333 
#    6.000    0.000    7.333    0.000    0.000    0.000 
#    0.000    0.000    0.000    0.000    0.000    0.000 
#
# Total GULP energy -267282.710490 kJ/mol
# GULP energy per Si atom -5568.389802 kJ/mol
# Density = 2.318378 g / cm^3
# Si number density = 23.236663 Si / 1000 Ang^3
#
#
#
# Elastic Constant Matrix: (Units=GPa)
#
#
# Indices 1 2 3 4 5 6 
#
# 1 68.2549 72.4524 26.8262 0.0000 0.0000 0.0000
# 2 72.4524 147.3860 24.9924 0.0000 0.0000 0.0000
# 3 26.8262 24.9924 104.6389 0.0000 0.0000 0.0000
# 4 0.0000 0.0000 0.0000 29.1079 0.0000 0.0000
# 5 0.0000 0.0000 0.0000 0.0000 40.3276 0.0000
# 6 0.0000 0.0000 0.0000 0.0000 0.0000 30.2691
#
#
#
# Elastic Compliance Matrix: (Units=1/GPa)
#
#
# Indices 1 2 3 4 5 6 
#
# 1 0.032752 -0.015296 -0.004743 0.000000 0.000000 0.000000
# 2 -0.015296 0.014215 0.000526 0.000000 0.000000 0.000000
# 3 -0.004743 0.000526 0.010647 0.000000 0.000000 0.000000
# 4 0.000000 0.000000 0.000000 0.034355 0.000000 0.000000
# 5 0.000000 0.000000 0.000000 0.000000 0.024797 0.000000
# 6 0.000000 0.000000 0.000000 0.000000 0.000000 0.033037
#
#
# Mechanical properties :
#
#
# Convention : Reuss Voigt Hill
#
# Bulk Modulus (GPa) = 53.79838 63.20242 58.50040
# Shear Modulus (GPa) = 25.63787 33.00818 29.32303
#
# Velocity S-wave (km/s) = 3.32526 3.77307 3.55622
# Velocity P-wave (km/s) = 6.16001 6.79999 6.48790
#
# Compressibility (1/GPa) = 0.01858792
#
# Stress axis : x y z
#
# Youngs Moduli (GPa) = 30.53274 70.34890 93.92319
#
# Poissons Ratio (x) = 1.07605 0.44550
# Poissons Ratio (y) = 0.46703 -0.04943
# Poissons Ratio (z) = 0.14482 -0.03702
#
# Static dielectric constant tensor:
#      x y z
#    x 2.420300 0.000000 0.000000 
#    y 0.000000 1.875220 0.000000 
#    z 0.000000 0.000000 1.960830 
# 
# From -- ./inp_files/17058.got.cif
#   From: 2010.05.17/outbox.cif.g08.bks.cpg/sg73_9_cif.got.tgz:17058.got - 2010.06.03 17:35:07.
