data_PCOD9531211
_publ_section_title
;
Structure prediction by ZEFSAII (Michael W. Deem and Ramdas Pophale) SiO2 
 PCOD9531211
Probable space group: I B C A 
;
_chemical_formula_sum "Si O2"
_cell_formula_units_Z 120
_cell_length_a 24.367824
_cell_length_b 23.994186
_cell_length_c 9.066145
_cell_angle_alpha 90.000000
_cell_angle_beta 90.000000
_cell_angle_gamma 90.000000
_cell_volume 5300.848975
_symmetry_space_group_name_H-M "I B C A "
_symmetry_group_IT_number 73
_symmetry_cell_setting 'orthorhombic'
loop_
_space_group_symop_operation_xyz
x,y,z
-x,1/2-y,z
x,-y,1/2-z
1/2-x,y,-z
-x,-y,-z
x,1/2+y,-z
-x,y,1/2+z
1/2+x,-y,z
1/2+x,1/2+y,1/2+z
1/2-x,-y,1/2+z
1/2+x,1/2-y,-z
-x,1/2+y,1/2-z
1/2-x,1/2-y,1/2-z
1/2+x,y,1/2-z
1/2-x,1/2+y,z
x,1/2-y,1/2+z
loop_
_atom_site_type_symbol
_atom_site_label
_atom_site_fract_x
_atom_site_fract_y
_atom_site_fract_z
Si Si1 0.564079 0.393542 0.290046
Si Si2 0.660223 0.041837 0.918338
Si Si3 0.000000 0.250000 0.482816
Si Si4 0.382891 0.210772 0.409306
Si Si5 0.539190 0.865450 0.010022
Si Si6 0.303288 0.639498 0.401736
Si Si7 0.801023 0.423682 0.894508
Si Si8 0.341398 0.667911 0.095368
O O1 0.600073 0.439220 0.371467
O O2 0.604256 0.338613 0.294630
O O3 0.551099 0.407336 0.122033
O O4 0.509277 0.381901 0.381536
O O5 0.699065 0.065241 0.782146
O O6 0.660901 0.976213 0.938176
O O7 0.680548 0.076579 0.057593
O O8 0.943766 0.265180 0.564891
O O9 0.982460 0.190106 0.419304
O O10 0.354272 0.178047 0.543772
O O11 0.345450 0.265259 0.388606
O O12 0.595077 0.852724 0.098804
O O13 0.250000 0.655126 0.500000
O O14 0.302337 0.647223 0.227226
O O15 0.750000 0.435802 0.000000
O O16 0.819643 0.362341 0.947381
#
# Coordination Sequence:
#
# PCOD9531211 Si02
#       8
#    16  16   8  16  16  16  16  16
#     4  10  21  40  64  96 133 174 213 272 335 394
#     4  10  23  44  66  92 131 164 214 286 335 385
#     4   8  18  34  54  90 120 164 212 264 312 378
#     4   9  22  37  61  92 134 171 212 275 331 387
#     4  10  21  35  63  94 131 170 220 266 324 401
#     4  11  24  40  62  93 133 173 217 276 336 396
#     4  11  23  43  72  92 119 174 224 275 332 393
#     4  11  24  39  63  97 130 170 229 267 327 400
#
# _framework density 22.637882999999999
#
# number of rings (size 3 to 8) (size 9 to 14) (size 15 to 20)
#    0.000    1.867    1.333    1.200    9.333    4.800 
#    0.000    0.667    0.000    0.000    0.000    0.000 
#    0.000    0.000    0.000    0.000    0.000    0.000 
#
# Total GULP energy -334252.645536 kJ/mol
# GULP energy per Si atom -5570.877426 kJ/mol
# Density = 2.258636 g / cm^3
# Si number density = 22.637883 Si / 1000 Ang^3
#
#
#
# Elastic Constant Matrix: (Units=GPa)
#
#
# Indices 1 2 3 4 5 6 
#
# 1 81.0482 7.2492 18.8600 0.0000 0.0000 0.0000
# 2 7.2492 56.3524 4.1930 0.0000 0.0000 0.0000
# 3 18.8600 4.1930 79.9687 0.0000 0.0000 0.0000
# 4 0.0000 0.0000 0.0000 24.0634 0.0000 0.0000
# 5 0.0000 0.0000 0.0000 0.0000 40.1075 0.0000
# 6 0.0000 0.0000 0.0000 0.0000 0.0000 17.1781
#
#
#
# Elastic Compliance Matrix: (Units=1/GPa)
#
#
# Indices 1 2 3 4 5 6 
#
# 1 0.013175 -0.001469 -0.003030 0.000000 0.000000 0.000000
# 2 -0.001469 0.017979 -0.000596 0.000000 0.000000 0.000000
# 3 -0.003030 -0.000596 0.013251 0.000000 0.000000 0.000000
# 4 0.000000 0.000000 0.000000 0.041557 0.000000 0.000000
# 5 0.000000 0.000000 0.000000 0.000000 0.024933 0.000000
# 6 0.000000 0.000000 0.000000 0.000000 0.000000 0.058214
#
#
# Mechanical properties :
#
#
# Convention : Reuss Voigt Hill
#
# Bulk Modulus (GPa) = 29.22847 30.88596 30.05721
# Shear Modulus (GPa) = 26.21866 28.74093 27.47979
#
# Velocity S-wave (km/s) = 3.40689 3.56700 3.48787
# Velocity P-wave (km/s) = 5.33059 5.53514 5.43383
#
# Compressibility (1/GPa) = 0.03421321
#
# Stress axis : x y z
#
# Youngs Moduli (GPa) = 75.90197 55.62088 75.46723
#
# Poissons Ratio (x) = 0.08173 0.22868
# Poissons Ratio (y) = 0.11153 0.04499
# Poissons Ratio (z) = 0.22999 0.03316
#
# Static dielectric constant tensor:
#      x y z
#    x 1.882850 0.000000 0.000000 
#    y 0.000000 1.893400 0.000000 
#    z 0.000000 0.000000 1.863620 
# 
# From -- ./inp_files/8054.got.cif
#   From: 2010.05.17/outbox.cif.g08.bks.cpg/sg73_5_cif.got.tgz:8054.got - 2010.06.03 17:35:07.
