data_PCOD9531667
_publ_section_title
;
Structure prediction by ZEFSAII (Michael W. Deem and Ramdas Pophale) SiO2 
 PCOD9531667
Probable space group: I B C A 
;
_chemical_formula_sum "Si O2"
_cell_formula_units_Z 72
_cell_length_a 18.008504
_cell_length_b 16.584463
_cell_length_c 10.275950
_cell_angle_alpha 90.000000
_cell_angle_beta 90.000000
_cell_angle_gamma 90.000000
_cell_volume 3069.029287
_symmetry_space_group_name_H-M "I B C A "
_symmetry_group_IT_number 73
_symmetry_cell_setting 'orthorhombic'
loop_
_space_group_symop_operation_xyz
x,y,z
-x,1/2-y,z
x,-y,1/2-z
1/2-x,y,-z
-x,-y,-z
x,1/2+y,-z
-x,y,1/2+z
1/2+x,-y,z
1/2+x,1/2+y,1/2+z
1/2-x,-y,1/2+z
1/2+x,1/2-y,-z
-x,1/2+y,1/2-z
1/2-x,1/2-y,1/2-z
1/2+x,y,1/2-z
1/2-x,1/2+y,z
x,1/2-y,1/2+z
loop_
_atom_site_type_symbol
_atom_site_label
_atom_site_fract_x
_atom_site_fract_y
_atom_site_fract_z
Si Si1 0.572025 0.096372 0.253668
Si Si2 0.750000 0.561655 0.000000
Si Si3 0.860018 0.946399 0.120137
Si Si4 0.497913 0.847014 0.496418
Si Si5 0.768873 0.657272 0.264614
O O1 0.506373 0.123223 0.353665
O O2 0.560804 0.127822 0.106644
O O3 0.647244 0.137920 0.306936
O O4 0.576975 0.000000 0.250000
O O5 0.823298 0.507634 0.981837
O O6 0.740512 0.614832 0.873889
O O7 0.928695 0.895338 0.068188
O O8 0.793082 0.885268 0.149042
O O9 0.500000 0.750000 0.497876
O O10 0.376243 0.000000 0.250000
O O11 0.750000 0.750000 0.250000
#
# Coordination Sequence:
#
# PCOD9531667 Si02
#       5
#    16   8  16  16  16
#     4  12  26  46  70 100 139 186 230 275 338 415
#     4  10  22  42  70 100 134 176 226 278 340 408
#     4  10  21  42  68  96 133 180 227 277 339 411
#     4  12  26  44  68 101 140 181 229 285 340 400
#     4  11  24  41  67 102 134 172 227 288 341 397
#
# _framework density 23.460187000000001
#
# number of rings (size 3 to 8) (size 9 to 14) (size 15 to 20)
#    0.000    0.889    0.000    8.000    0.000    8.000 
#    0.000    0.000    0.000    0.000    0.000    0.000 
#    0.000    0.000    0.000    0.000    0.000    0.000 
#
# Total GULP energy -201581.431078 kJ/mol
# GULP energy per Si atom -5599.484197 kJ/mol
# Density = 2.340679 g / cm^3
# Si number density = 23.460187 Si / 1000 Ang^3
#
#
#
# Elastic Constant Matrix: (Units=GPa)
#
#
# Indices 1 2 3 4 5 6 
#
# 1 78.0332 40.1102 6.1274 0.0000 0.0000 0.0000
# 2 40.1102 223.1727 46.3588 0.0000 0.0000 0.0000
# 3 6.1274 46.3588 69.2508 0.0000 0.0000 0.0000
# 4 0.0000 0.0000 0.0000 3.4549 0.0000 0.0000
# 5 0.0000 0.0000 0.0000 0.0000 40.0301 0.0000
# 6 0.0000 0.0000 0.0000 0.0000 0.0000 -17.4121
#
#
#
# Elastic Compliance Matrix: (Units=1/GPa)
#
#
# Indices 1 2 3 4 5 6 
#
# 1 0.014136 -0.002649 0.000523 0.000000 0.000000 0.000000
# 2 -0.002649 0.005701 -0.003582 0.000000 0.000000 0.000000
# 3 0.000523 -0.003582 0.016792 0.000000 0.000000 0.000000
# 4 0.000000 0.000000 0.000000 0.289445 0.000000 0.000000
# 5 0.000000 0.000000 0.000000 0.000000 0.024981 0.000000
# 6 0.000000 0.000000 0.000000 0.000000 0.000000 -0.057431
#
#
# Mechanical properties :
#
#
# Convention : Reuss Voigt Hill
#
# Bulk Modulus (GPa) = 39.66416 61.73884 50.70150
# Shear Modulus (GPa) = 15.95181 23.73860 19.84520
#
# Velocity S-wave (km/s) = 2.61042 3.18444 2.91161
# Velocity P-wave (km/s) = 5.10190 6.31620 5.74125
#
# Compressibility (1/GPa) = 0.02521168
#
# Stress axis : x y z
#
# Youngs Moduli (GPa) = 70.74283 175.40631 59.55223
#
# Poissons Ratio (x) = 0.46468 -0.03113
# Poissons Ratio (y) = 0.18741 0.21332
# Poissons Ratio (z) = -0.03698 0.62832
#
# Static dielectric constant tensor:
#      x y z
#    x 1.959540 0.000000 0.000000 
#    y 0.000000 1.819470 0.000000 
#    z 0.000000 0.000000 1.935560 
# 
# From -- ./inp_files/12566.got.cif
#   From: 2010.05.17/outbox.cif.g08.bks.cpg/sg73_7_cif.got.tgz:12566.got - 2010.06.03 17:35:07.
