data_PCOD9531399
_publ_section_title
;
Structure prediction by ZEFSAII (Michael W. Deem and Ramdas Pophale) SiO2 
 PCOD9531399
Probable space group: I B C A 
;
_chemical_formula_sum "Si O2"
_cell_formula_units_Z 120
_cell_length_a 14.073453
_cell_length_b 21.039488
_cell_length_c 19.891644
_cell_angle_alpha 90.000000
_cell_angle_beta 90.000000
_cell_angle_gamma 90.000000
_cell_volume 5889.880889
_symmetry_space_group_name_H-M "I B C A "
_symmetry_group_IT_number 73
_symmetry_cell_setting 'orthorhombic'
loop_
_space_group_symop_operation_xyz
x,y,z
-x,1/2-y,z
x,-y,1/2-z
1/2-x,y,-z
-x,-y,-z
x,1/2+y,-z
-x,y,1/2+z
1/2+x,-y,z
1/2+x,1/2+y,1/2+z
1/2-x,-y,1/2+z
1/2+x,1/2-y,-z
-x,1/2+y,1/2-z
1/2-x,1/2-y,1/2-z
1/2+x,y,1/2-z
1/2-x,1/2+y,z
x,1/2-y,1/2+z
loop_
_atom_site_type_symbol
_atom_site_label
_atom_site_fract_x
_atom_site_fract_y
_atom_site_fract_z
Si Si1 0.070840 0.689280 0.335952
Si Si2 0.717741 0.539193 0.359065
Si Si3 0.563367 0.946335 0.593202
Si Si4 0.898778 0.335928 0.824691
Si Si5 0.093409 0.609797 0.662141
Si Si6 0.628229 0.500000 0.750000
Si Si7 0.224402 0.778079 0.178005
Si Si8 0.633990 0.985837 0.447532
O O1 0.049205 0.624629 0.377468
O O2 0.079649 0.672195 0.255735
O O3 0.176354 0.711066 0.358605
O O4 0.000000 0.750000 0.342434
O O5 0.632608 0.487222 0.358021
O O6 0.671039 0.606424 0.342590
O O7 0.800029 0.526796 0.305345
O O8 0.776565 0.530322 0.428646
O O9 0.615227 0.957548 0.521203
O O10 0.461002 0.978341 0.579174
O O11 0.850070 0.271951 0.851557
O O12 0.999346 0.352899 0.857272
O O13 0.068483 0.555986 0.716716
O O14 0.170781 0.656725 0.691580
O O15 0.142464 0.575480 0.599993
O O16 0.250000 0.750000 0.250000
#
# Coordination Sequence:
#
# PCOD9531399 Si02
#       8
#    16  16  16  16  16   8  16  16
#     4  11  24  39  66  95 132 179 218 270 337 413
#     4  11  21  38  63  96 124 173 214 278 327 402
#     4  11  23  44  65  92 131 175 225 277 334 387
#     4  11  22  36  62  94 132 167 211 266 341 398
#     4  11  21  39  60  94 126 167 212 268 335 401
#     4  10  22  32  58  94 128 150 210 268 328 402
#     4  10  21  39  56  87 129 171 204 252 323 398
#     4  10  24  41  66  92 127 172 222 282 328 381
#
# _framework density 20.373926000000001
#
# number of rings (size 3 to 8) (size 9 to 14) (size 15 to 20)
#    0.000    1.333    1.333    6.400    5.600    0.533 
#    0.000    1.333    0.000    0.000    0.000    0.000 
#    0.000    0.000    0.000    0.000    0.000    0.000 
#
# Total GULP energy -334669.043224 kJ/mol
# GULP energy per Si atom -5577.817387 kJ/mol
# Density = 2.032755 g / cm^3
# Si number density = 20.373926 Si / 1000 Ang^3
#
#
#
# Elastic Constant Matrix: (Units=GPa)
#
#
# Indices 1 2 3 4 5 6 
#
# 1 69.6840 28.8234 -0.5614 0.0000 0.0000 0.0000
# 2 28.8234 119.2756 27.0910 0.0000 0.0000 0.0000
# 3 -0.5614 27.0910 55.4365 0.0000 0.0000 0.0000
# 4 0.0000 0.0000 0.0000 19.2831 0.0000 0.0000
# 5 0.0000 0.0000 0.0000 0.0000 21.9611 0.0000
# 6 0.0000 0.0000 0.0000 0.0000 0.0000 44.3029
#
#
#
# Elastic Compliance Matrix: (Units=1/GPa)
#
#
# Indices 1 2 3 4 5 6 
#
# 1 0.016209 -0.004448 0.002338 0.000000 0.000000 0.000000
# 2 -0.004448 0.010651 -0.005250 0.000000 0.000000 0.000000
# 3 0.002338 -0.005250 0.020628 0.000000 0.000000 0.000000
# 4 0.000000 0.000000 0.000000 0.051859 0.000000 0.000000
# 5 0.000000 0.000000 0.000000 0.000000 0.045535 0.000000
# 6 0.000000 0.000000 0.000000 0.000000 0.000000 0.022572
#
#
# Mechanical properties :
#
#
# Convention : Reuss Voigt Hill
#
# Bulk Modulus (GPa) = 30.51780 39.45580 34.98680
# Shear Modulus (GPa) = 25.89364 29.71229 27.80296
#
# Velocity S-wave (km/s) = 3.56886 3.82298 3.69810
# Velocity P-wave (km/s) = 5.65630 6.23656 5.95351
#
# Compressibility (1/GPa) = 0.03276776
#
# Stress axis : x y z
#
# Youngs Moduli (GPa) = 61.69351 93.88540 48.47780
#
# Poissons Ratio (x) = 0.41760 -0.11333
# Poissons Ratio (y) = 0.27441 0.25452
# Poissons Ratio (z) = -0.14423 0.49291
#
# Static dielectric constant tensor:
#      x y z
#    x 1.772060 0.000000 0.000000 
#    y 0.000000 1.952890 0.000000 
#    z 0.000000 0.000000 1.780850 
# 
# From -- ./inp_files/29640.got.cif
#   From: 2010.05.17/outbox.cif.g08.bks.cpg/sg73_15_cif.got.tgz:29640.got - 2010.06.03 17:35:07.
