data_PCOD9531069
_publ_section_title
;
Structure prediction by ZEFSAII (Michael W. Deem and Ramdas Pophale) SiO2 
 PCOD9531069
Probable space group: I B C A 
;
_chemical_formula_sum "Si O2"
_cell_formula_units_Z 120
_cell_length_a 7.965477
_cell_length_b 25.372536
_cell_length_c 25.965915
_cell_angle_alpha 90.000000
_cell_angle_beta 90.000000
_cell_angle_gamma 90.000000
_cell_volume 5247.824424
_symmetry_space_group_name_H-M "I B C A "
_symmetry_group_IT_number 73
_symmetry_cell_setting 'orthorhombic'
loop_
_space_group_symop_operation_xyz
x,y,z
-x,1/2-y,z
x,-y,1/2-z
1/2-x,y,-z
-x,-y,-z
x,1/2+y,-z
-x,y,1/2+z
1/2+x,-y,z
1/2+x,1/2+y,1/2+z
1/2-x,-y,1/2+z
1/2+x,1/2-y,-z
-x,1/2+y,1/2-z
1/2-x,1/2-y,1/2-z
1/2+x,y,1/2-z
1/2-x,1/2+y,z
x,1/2-y,1/2+z
loop_
_atom_site_type_symbol
_atom_site_label
_atom_site_fract_x
_atom_site_fract_y
_atom_site_fract_z
Si Si1 0.639536 0.537758 0.596039
Si Si2 0.473664 0.922263 0.902517
Si Si3 0.000000 0.750000 0.578932
Si Si4 0.933482 0.324477 0.331605
Si Si5 0.632561 0.796148 0.081113
Si Si6 0.157768 0.341175 0.248780
Si Si7 0.873742 0.881005 0.826013
Si Si8 0.050851 0.886347 0.489548
O O1 0.632439 0.475469 0.597524
O O2 0.831778 0.558536 0.596160
O O3 0.567885 0.566103 0.646580
O O4 0.537087 0.563117 0.548182
O O5 0.441409 0.884114 0.854219
O O6 0.451796 0.892866 0.957472
O O7 0.919766 0.792577 0.616791
O O8 0.819479 0.722868 0.560240
O O9 0.788798 0.317596 0.290367
O O10 0.092329 0.307008 0.296787
O O11 0.500000 0.750000 0.095750
O O12 0.662855 0.838213 0.128077
O O13 0.527561 0.831535 0.040074
O O14 0.228856 0.389214 0.283412
O O15 0.012185 0.357140 0.210867
O O16 0.250000 0.885707 0.500000
#
# Coordination Sequence:
#
# PCOD9531069 Si02
#       8
#    16  16   8  16  16  16  16  16
#     4  10  21  38  67  91 124 168 215 268 331 392
#     4  11  22  42  66  96 128 173 214 280 335 402
#     4  12  22  42  70 100 130 178 226 270 338 402
#     4  11  23  41  63  94 133 170 223 278 329 401
#     4  11  23  43  69  99 135 177 219 275 336 402
#     4  10  21  40  64  90 132 175 222 273 330 394
#     4  10  20  42  62  93 134 175 219 275 329 393
#     4   9  20  43  69  89 129 170 207 270 335 396
#
# _framework density 22.866619
#
# number of rings (size 3 to 8) (size 9 to 14) (size 15 to 20)
#    0.000    1.600    2.667    2.800    1.867    0.533 
#    9.600    4.000    5.867    0.000    0.000    0.000 
#    0.000    0.000    0.000    0.000    0.000    0.000 
#
# Total GULP energy -334072.829404 kJ/mol
# GULP energy per Si atom -5567.880490 kJ/mol
# Density = 2.281457 g / cm^3
# Si number density = 22.866619 Si / 1000 Ang^3
#
#
#
# Elastic Constant Matrix: (Units=GPa)
#
#
# Indices 1 2 3 4 5 6 
#
# 1 36.9619 22.1987 16.7292 0.0000 0.0000 0.0000
# 2 22.1987 110.1712 47.0591 0.0000 0.0000 0.0000
# 3 16.7292 47.0591 75.0017 0.0000 0.0000 0.0000
# 4 0.0000 0.0000 0.0000 -12.1926 0.0000 0.0000
# 5 0.0000 0.0000 0.0000 0.0000 30.5240 0.0000
# 6 0.0000 0.0000 0.0000 0.0000 0.0000 19.9109
#
#
#
# Elastic Compliance Matrix: (Units=1/GPa)
#
#
# Indices 1 2 3 4 5 6 
#
# 1 0.031713 -0.004602 -0.004186 0.000000 0.000000 0.000000
# 2 -0.004602 0.013068 -0.007173 0.000000 0.000000 0.000000
# 3 -0.004186 -0.007173 0.018767 0.000000 0.000000 0.000000
# 4 0.000000 0.000000 0.000000 -0.082017 0.000000 0.000000
# 5 0.000000 0.000000 0.000000 0.000000 0.032761 0.000000
# 6 0.000000 0.000000 0.000000 0.000000 0.000000 0.050224
#
#
# Mechanical properties :
#
#
# Convention : Reuss Voigt Hill
#
# Bulk Modulus (GPa) = 31.61898 43.78987 37.70442
# Shear Modulus (GPa) = 46.73732 16.72497 31.73115
#
# Velocity S-wave (km/s) = 4.52587 2.70740 3.72918
# Velocity P-wave (km/s) = 6.41630 5.38192 5.92174
#
# Compressibility (1/GPa) = 0.03162658
#
# Stress axis : x y z
#
# Youngs Moduli (GPa) = 31.53237 76.52340 53.28405
#
# Poissons Ratio (x) = 0.35215 0.22306
# Poissons Ratio (y) = 0.14511 0.38220
# Poissons Ratio (z) = 0.13200 0.54889
#
# Static dielectric constant tensor:
#      x y z
#    x 2.038250 0.000000 0.000000 
#    y 0.000000 1.905340 0.000000 
#    z 0.000000 0.000000 1.903330 
# 
# From -- ./inp_files/28525.got.cif
#   From: 2010.05.17/outbox.cif.g08.bks.cpg/sg73_15_cif.got.tgz:28525.got - 2010.06.03 17:35:07.
