data_PCOD9531930
_publ_section_title
;
Structure prediction by ZEFSAII (Michael W. Deem and Ramdas Pophale) SiO2 
 PCOD9531930
Probable space group: I B C A 
;
_chemical_formula_sum "Si O2"
_cell_formula_units_Z 96
_cell_length_a 12.879535
_cell_length_b 17.192526
_cell_length_c 20.199957
_cell_angle_alpha 90.000000
_cell_angle_beta 90.000000
_cell_angle_gamma 90.000000
_cell_volume 4472.911634
_symmetry_space_group_name_H-M "I B C A "
_symmetry_group_IT_number 73
_symmetry_cell_setting 'orthorhombic'
loop_
_space_group_symop_operation_xyz
x,y,z
-x,1/2-y,z
x,-y,1/2-z
1/2-x,y,-z
-x,-y,-z
x,1/2+y,-z
-x,y,1/2+z
1/2+x,-y,z
1/2+x,1/2+y,1/2+z
1/2-x,-y,1/2+z
1/2+x,1/2-y,-z
-x,1/2+y,1/2-z
1/2-x,1/2-y,1/2-z
1/2+x,y,1/2-z
1/2-x,1/2+y,z
x,1/2-y,1/2+z
loop_
_atom_site_type_symbol
_atom_site_label
_atom_site_fract_x
_atom_site_fract_y
_atom_site_fract_z
Si Si1 0.594192 0.299296 0.270354
Si Si2 0.395130 0.582312 0.622648
Si Si3 0.197175 0.665002 0.571666
Si Si4 0.309738 0.435145 0.562016
Si Si5 0.996113 0.656895 0.503048
Si Si6 0.245393 0.191387 0.153941
O O1 0.500000 0.250000 0.239394
O O2 0.566819 0.378317 0.309580
O O3 0.683125 0.320439 0.218105
O O4 0.642496 0.237052 0.323062
O O5 0.276016 0.611998 0.612733
O O6 0.380483 0.491979 0.606346
O O7 0.465325 0.618618 0.564801
O O8 0.250000 0.676911 0.500000
O O9 0.082801 0.634248 0.557694
O O10 0.194268 0.746343 0.608977
O O11 0.250000 0.475736 0.500000
O O12 0.386229 0.375332 0.525246
O O13 0.235575 0.386481 0.611056
O O14 0.000000 0.750000 0.496177
#
# Coordination Sequence:
#
# PCOD9531930 Si02
#       6
#    16  16  16  16  16  16
#     4  10  23  42  68  89 120 167 216 256 302 368
#     4  10  23  40  59  87 130 159 199 260 312 369
#     4   9  18  37  59  88 120 158 195 257 306 361
#     4  12  25  38  61  96 129 162 205 258 323 379
#     4  11  21  34  63  91 120 163 201 248 311 375
#     4  10  22  39  64  92 121 159 215 253 303 370
#
# _framework density 21.462530000000001
#
# number of rings (size 3 to 8) (size 9 to 14) (size 15 to 20)
#    0.000    1.667    1.667    3.000    9.333    0.667 
#    0.000    0.000    0.000    2.000    0.000    0.000 
#    0.000    0.000    0.000    0.000    0.000    0.000 
#
# Total GULP energy -267917.974979 kJ/mol
# GULP energy per Si atom -5581.624479 kJ/mol
# Density = 2.141368 g / cm^3
# Si number density = 21.462530 Si / 1000 Ang^3
#
#
#
# Elastic Constant Matrix: (Units=GPa)
#
#
# Indices 1 2 3 4 5 6 
#
# 1 36.4402 -8.2027 -9.4240 0.0000 0.0000 0.0000
# 2 -8.2027 79.9259 16.2506 0.0000 0.0000 0.0000
# 3 -9.4240 16.2506 30.1859 0.0000 0.0000 0.0000
# 4 0.0000 0.0000 0.0000 14.7614 0.0000 0.0000
# 5 0.0000 0.0000 0.0000 0.0000 16.8356 0.0000
# 6 0.0000 0.0000 0.0000 0.0000 0.0000 21.2252
#
#
#
# Elastic Compliance Matrix: (Units=1/GPa)
#
#
# Indices 1 2 3 4 5 6 
#
# 1 0.029976 0.001318 0.008649 0.000000 0.000000 0.000000
# 2 0.001318 0.014107 -0.007183 0.000000 0.000000 0.000000
# 3 0.008649 -0.007183 0.039695 0.000000 0.000000 0.000000
# 4 0.000000 0.000000 0.000000 0.067744 0.000000 0.000000
# 5 0.000000 0.000000 0.000000 0.000000 0.059398 0.000000
# 6 0.000000 0.000000 0.000000 0.000000 0.000000 0.047114
#
#
# Mechanical properties :
#
#
# Convention : Reuss Voigt Hill
#
# Bulk Modulus (GPa) = 11.19253 15.97775 13.58514
# Shear Modulus (GPa) = 17.71487 20.42634 19.07061
#
# Velocity S-wave (km/s) = 2.87607 3.08834 2.98410
# Velocity P-wave (km/s) = 4.03178 4.49197 4.26808
#
# Compressibility (1/GPa) = 0.08934530
#
# Stress axis : x y z
#
# Youngs Moduli (GPa) = 33.36048 70.88507 25.19186
#
# Poissons Ratio (x) = -0.09342 -0.21788
# Poissons Ratio (y) = -0.04396 0.18096
# Poissons Ratio (z) = -0.28853 0.50919
#
# Static dielectric constant tensor:
#      x y z
#    x 1.797300 0.000000 0.000000 
#    y 0.000000 1.813380 0.000000 
#    z 0.000000 0.000000 1.776000 
# 
# From -- ./inp_files/25993.got.cif
#   From: 2010.05.17/outbox.cif.g08.bks.cpg/sg73_13_cif.got.tgz:25993.got - 2010.06.03 17:35:07.
