data_PCOD9531596
_publ_section_title
;
Structure prediction by ZEFSAII (Michael W. Deem and Ramdas Pophale) SiO2 
 PCOD9531596
Probable space group: I B C A 
;
_chemical_formula_sum "Si O2"
_cell_formula_units_Z 120
_cell_length_a 24.636672
_cell_length_b 26.831636
_cell_length_c 8.962368
_cell_angle_alpha 90.000000
_cell_angle_beta 90.000000
_cell_angle_gamma 90.000000
_cell_volume 5924.503598
_symmetry_space_group_name_H-M "I B C A "
_symmetry_group_IT_number 73
_symmetry_cell_setting 'orthorhombic'
loop_
_space_group_symop_operation_xyz
x,y,z
-x,1/2-y,z
x,-y,1/2-z
1/2-x,y,-z
-x,-y,-z
x,1/2+y,-z
-x,y,1/2+z
1/2+x,-y,z
1/2+x,1/2+y,1/2+z
1/2-x,-y,1/2+z
1/2+x,1/2-y,-z
-x,1/2+y,1/2-z
1/2-x,1/2-y,1/2-z
1/2+x,y,1/2-z
1/2-x,1/2+y,z
x,1/2-y,1/2+z
loop_
_atom_site_type_symbol
_atom_site_label
_atom_site_fract_x
_atom_site_fract_y
_atom_site_fract_z
Si Si1 0.893391 0.545476 0.139853
Si Si2 0.189276 0.262902 0.300109
Si Si3 0.669884 0.600647 0.611708
Si Si4 0.568358 0.328583 0.936651
Si Si5 0.250000 0.166943 0.000000
Si Si6 0.615773 0.218165 0.978116
Si Si7 0.308118 0.002860 0.071814
Si Si8 0.463819 0.858615 0.893322
O O1 0.910923 0.500000 0.250000
O O2 0.848509 0.574275 0.238195
O O3 0.941541 0.584694 0.109326
O O4 0.860156 0.526265 0.996505
O O5 0.250000 0.250000 0.250000
O O6 0.201903 0.300430 0.434179
O O7 0.154021 0.284634 0.166293
O O8 0.154434 0.219232 0.375591
O O9 0.620587 0.635853 0.563386
O O10 0.723691 0.633399 0.627409
O O11 0.682193 0.558990 0.488072
O O12 0.584132 0.271258 0.970782
O O13 0.544034 0.334659 0.770305
O O14 0.524602 0.350194 0.051646
O O15 0.574398 0.173264 0.995981
O O16 0.305159 0.000000 0.250000
O O17 0.250000 0.986757 0.000000
#
# Coordination Sequence:
#
# PCOD9531596 Si02
#       8
#    16  16  16  16   8  16  16  16
#     4   9  22  46  66  92 132 168 218 277 332 387
#     4  12  23  40  61  93 135 178 215 261 323 386
#     4  10  21  41  65  92 127 170 211 267 323 397
#     4  11  24  43  64  92 128 170 214 273 327 388
#     4  12  22  36  68  92 132 172 218 256 332 386
#     4  12  24  42  63  92 136 172 220 269 322 398
#     4  11  22  39  66  95 128 168 211 265 331 397
#     4  11  26  43  67  96 126 172 227 272 334 387
#
# _framework density 20.254860999999998
#
# number of rings (size 3 to 8) (size 9 to 14) (size 15 to 20)
#    0.000    1.067    4.667    1.600    3.733    3.200 
#    0.000    6.667    0.000    0.000    0.000    0.000 
#    0.000    0.000    0.000    0.000    0.000    0.000 
#
# Total GULP energy -335078.883360 kJ/mol
# GULP energy per Si atom -5584.648056 kJ/mol
# Density = 2.020876 g / cm^3
# Si number density = 20.254861 Si / 1000 Ang^3
#
#
#
# Elastic Constant Matrix: (Units=GPa)
#
#
# Indices 1 2 3 4 5 6 
#
# 1 80.8593 26.7283 23.6997 0.0000 0.0000 0.0000
# 2 26.7283 83.4819 9.1516 0.0000 0.0000 0.0000
# 3 23.6997 9.1516 79.5177 0.0000 0.0000 0.0000
# 4 0.0000 0.0000 0.0000 11.3815 0.0000 0.0000
# 5 0.0000 0.0000 0.0000 0.0000 36.2353 0.0000
# 6 0.0000 0.0000 0.0000 0.0000 0.0000 16.7847
#
#
#
# Elastic Compliance Matrix: (Units=1/GPa)
#
#
# Indices 1 2 3 4 5 6 
#
# 1 0.014968 -0.004358 -0.003960 0.000000 0.000000 0.000000
# 2 -0.004358 0.013401 -0.000243 0.000000 0.000000 0.000000
# 3 -0.003960 -0.000243 0.013784 0.000000 0.000000 0.000000
# 4 0.000000 0.000000 0.000000 0.087862 0.000000 0.000000
# 5 0.000000 0.000000 0.000000 0.000000 0.027597 0.000000
# 6 0.000000 0.000000 0.000000 0.000000 0.000000 0.059578
#
#
# Mechanical properties :
#
#
# Convention : Reuss Voigt Hill
#
# Bulk Modulus (GPa) = 39.95121 40.33534 40.14328
# Shear Modulus (GPa) = 20.60526 25.16559 22.88543
#
# Velocity S-wave (km/s) = 3.19297 3.52866 3.36501
# Velocity P-wave (km/s) = 5.77586 6.04641 5.91268
#
# Compressibility (1/GPa) = 0.02503053
#
# Stress axis : x y z
#
# Youngs Moduli (GPa) = 66.80748 74.62292 72.54806
#
# Poissons Ratio (x) = 0.32523 0.28726
# Poissons Ratio (y) = 0.29117 0.01765
# Poissons Ratio (z) = 0.26453 0.01816
#
# Static dielectric constant tensor:
#      x y z
#    x 1.695130 0.000000 0.000000 
#    y 0.000000 1.779090 0.000000 
#    z 0.000000 0.000000 1.742120 
# 
# From -- ./inp_files/7480.got.cif
#   From: 2010.05.17/outbox.cif.g08.bks.cpg/sg73_4_cif.got.tgz:7480.got - 2010.06.03 17:35:07.
