data_PCOD9531052
_publ_section_title
;
Structure prediction by ZEFSAII (Michael W. Deem and Ramdas Pophale) SiO2 
 PCOD9531052
Probable space group: I B C A 
;
_chemical_formula_sum "Si O2"
_cell_formula_units_Z 96
_cell_length_a 18.248322
_cell_length_b 18.573224
_cell_length_c 13.842368
_cell_angle_alpha 90.000000
_cell_angle_beta 90.000000
_cell_angle_gamma 90.000000
_cell_volume 4691.596169
_symmetry_space_group_name_H-M "I B C A "
_symmetry_group_IT_number 73
_symmetry_cell_setting 'orthorhombic'
loop_
_space_group_symop_operation_xyz
x,y,z
-x,1/2-y,z
x,-y,1/2-z
1/2-x,y,-z
-x,-y,-z
x,1/2+y,-z
-x,y,1/2+z
1/2+x,-y,z
1/2+x,1/2+y,1/2+z
1/2-x,-y,1/2+z
1/2+x,1/2-y,-z
-x,1/2+y,1/2-z
1/2-x,1/2-y,1/2-z
1/2+x,y,1/2-z
1/2-x,1/2+y,z
x,1/2-y,1/2+z
loop_
_atom_site_type_symbol
_atom_site_label
_atom_site_fract_x
_atom_site_fract_y
_atom_site_fract_z
Si Si1 0.750000 0.472941 0.500000
Si Si2 0.250000 0.295322 0.500000
Si Si3 0.539417 0.679861 0.642809
Si Si4 0.188475 0.709427 0.806927
Si Si5 0.237583 0.919330 0.789340
Si Si6 0.372886 0.096354 0.025341
Si Si7 0.571869 0.415328 0.234082
O O1 0.754945 0.425261 0.403050
O O2 0.823136 0.524461 0.507373
O O3 0.203838 0.261262 0.584899
O O4 0.190143 0.345778 0.448918
O O5 0.500000 0.750000 0.597251
O O6 0.602839 0.714628 0.710093
O O7 0.581965 0.628594 0.565535
O O8 0.485870 0.632208 0.707763
O O9 0.250000 0.750000 0.750000
O O10 0.208752 0.627572 0.777285
O O11 0.153277 0.896525 0.773534
O O12 0.241610 0.000000 0.750000
O O13 0.424525 0.091979 0.118210
O O14 0.558520 0.500000 0.250000
#
# Coordination Sequence:
#
# PCOD9531052 Si02
#       7
#     8   8  16  16  16  16  16
#     4  11  20  39  74 104 125 161 236 294 330 400
#     4   9  18  37  68  86 113 169 212 264 324 386
#     4  11  26  42  61  96 138 181 225 267 338 426
#     4  11  23  42  67  94 126 167 225 283 326 391
#     4  11  20  39  69  96 122 168 219 274 329 394
#     4  10  20  41  67  92 127 176 214 271 343 387
#     4  11  22  42  67  93 137 177 210 280 348 402
#
# _framework density 20.462119999999999
#
# number of rings (size 3 to 8) (size 9 to 14) (size 15 to 20)
#    0.000    1.333    5.000    3.000    0.000    4.000 
#    6.000    0.000    0.000    0.000    0.000    0.000 
#    0.000    0.000    0.000    0.000    0.000    0.000 
#
# Total GULP energy -267437.150142 kJ/mol
# GULP energy per Si atom -5571.607295 kJ/mol
# Density = 2.041555 g / cm^3
# Si number density = 20.462120 Si / 1000 Ang^3
#
#
#
# Elastic Constant Matrix: (Units=GPa)
#
#
# Indices 1 2 3 4 5 6 
#
# 1 89.1335 33.0834 27.7228 0.0000 0.0000 0.0000
# 2 33.0834 48.5040 15.6902 0.0000 0.0000 0.0000
# 3 27.7228 15.6902 116.7884 0.0000 0.0000 0.0000
# 4 0.0000 0.0000 0.0000 20.9485 0.0000 0.0000
# 5 0.0000 0.0000 0.0000 0.0000 31.0213 0.0000
# 6 0.0000 0.0000 0.0000 0.0000 0.0000 25.4328
#
#
#
# Elastic Compliance Matrix: (Units=1/GPa)
#
#
# Indices 1 2 3 4 5 6 
#
# 1 0.015631 -0.009891 -0.002382 0.000000 0.000000 0.000000
# 2 -0.009891 0.027813 -0.001389 0.000000 0.000000 0.000000
# 3 -0.002382 -0.001389 0.009314 0.000000 0.000000 0.000000
# 4 0.000000 0.000000 0.000000 0.047736 0.000000 0.000000
# 5 0.000000 0.000000 0.000000 0.000000 0.032236 0.000000
# 6 0.000000 0.000000 0.000000 0.000000 0.000000 0.039319
#
#
# Mechanical properties :
#
#
# Convention : Reuss Voigt Hill
#
# Bulk Modulus (GPa) = 39.31548 45.26875 42.29211
# Shear Modulus (GPa) = 24.05573 27.34249 25.69911
#
# Velocity S-wave (km/s) = 3.43246 3.65944 3.54776
# Velocity P-wave (km/s) = 5.91308 6.32665 6.12336
#
# Compressibility (1/GPa) = 0.02543528
#
# Stress axis : x y z
#
# Youngs Moduli (GPa) = 63.97482 35.95494 107.36078
#
# Poissons Ratio (x) = 0.35564 0.25569
# Poissons Ratio (y) = 0.63279 0.14908
# Poissons Ratio (z) = 0.15236 0.04993
#
# Static dielectric constant tensor:
#      x y z
#    x 1.780590 0.000000 0.000000 
#    y 0.000000 1.575000 0.000000 
#    z 0.000000 0.000000 1.602460 
# 
# From -- ./inp_files/17096.got.cif
#   From: 2010.05.17/outbox.cif.g08.bks.cpg/sg73_9_cif.got.tgz:17096.got - 2010.06.03 17:35:07.
