data_PCOD9531917
_publ_section_title
;
Structure prediction by ZEFSAII (Michael W. Deem and Ramdas Pophale) SiO2 
 PCOD9531917
Probable space group: I B C A 
;
_chemical_formula_sum "Si O2"
_cell_formula_units_Z 80
_cell_length_a 13.961890
_cell_length_b 18.760307
_cell_length_c 12.278260
_cell_angle_alpha 90.000000
_cell_angle_beta 90.000000
_cell_angle_gamma 90.000000
_cell_volume 3216.036571
_symmetry_space_group_name_H-M "I B C A "
_symmetry_group_IT_number 73
_symmetry_cell_setting 'orthorhombic'
loop_
_space_group_symop_operation_xyz
x,y,z
-x,1/2-y,z
x,-y,1/2-z
1/2-x,y,-z
-x,-y,-z
x,1/2+y,-z
-x,y,1/2+z
1/2+x,-y,z
1/2+x,1/2+y,1/2+z
1/2-x,-y,1/2+z
1/2+x,1/2-y,-z
-x,1/2+y,1/2-z
1/2-x,1/2-y,1/2-z
1/2+x,y,1/2-z
1/2-x,1/2+y,z
x,1/2-y,1/2+z
loop_
_atom_site_type_symbol
_atom_site_label
_atom_site_fract_x
_atom_site_fract_y
_atom_site_fract_z
Si Si1 0.878460 0.624418 0.680610
Si Si2 0.250875 0.687351 0.663365
Si Si3 0.891494 0.737871 0.026521
Si Si4 0.141749 0.501055 0.491801
Si Si5 0.006715 0.561829 0.839542
O O1 0.793609 0.622525 0.769622
O O2 0.872668 0.690558 0.597247
O O3 0.864865 0.558003 0.602299
O O4 0.972143 0.626496 0.760980
O O5 0.250000 0.750000 0.750000
O O6 0.146616 0.677690 0.610983
O O7 0.325133 0.719032 0.575112
O O8 0.000000 0.750000 0.992969
O O9 0.250000 0.528344 0.500000
O O10 0.065563 0.558344 0.444255
O O11 0.105532 0.459669 0.600509
O O12 0.993325 0.500000 0.750000
#
# Coordination Sequence:
#
# PCOD9531917 Si02
#       5
#    16  16  16  16  16
#     4  10  22  39  65  89 125 173 204 257 316 373
#     4   9  21  39  58  86 128 158 206 259 299 365
#     4  10  22  39  60  91 126 165 212 255 303 372
#     4  10  22  39  67  93 126 161 209 261 315 385
#     4   9  21  43  62  95 128 157 213 261 316 377
#
# _framework density 24.875339
#
# number of rings (size 3 to 8) (size 9 to 14) (size 15 to 20)
#    0.000    2.400    0.000    0.000    8.400    7.200 
#    3.600    0.000    0.000    0.000    0.000    0.000 
#    0.000    0.000    0.000    0.000    0.000    0.000 
#
# Total GULP energy -222686.633936 kJ/mol
# GULP energy per Si atom -5567.165848 kJ/mol
# Density = 2.481872 g / cm^3
# Si number density = 24.875339 Si / 1000 Ang^3
#
#
#
# Elastic Constant Matrix: (Units=GPa)
#
#
# Indices 1 2 3 4 5 6 
#
# 1 90.3353 -12.4381 20.2273 -0.0002 0.0000 0.0000
# 2 -12.4381 18.2531 15.2927 0.0000 0.0000 0.0000
# 3 20.2273 15.2927 123.7725 -0.0002 0.0000 0.0000
# 4 -0.0002 0.0000 -0.0002 -932.2033 -0.0001 0.0000
# 5 0.0000 0.0000 0.0000 -0.0001 37.8054 0.0000
# 6 0.0000 0.0000 0.0000 0.0000 0.0000 19.4511
#
#
#
# Elastic Compliance Matrix: (Units=1/GPa)
#
#
# Indices 1 2 3 4 5 6 
#
# 1 0.013625 0.012437 -0.003763 0.000000 0.000000 0.000000
# 2 0.012437 0.072464 -0.010986 0.000000 0.000000 0.000000
# 3 -0.003763 -0.010986 0.010052 0.000000 0.000000 0.000000
# 4 0.000000 0.000000 0.000000 -0.001073 0.000000 0.000000
# 5 0.000000 0.000000 0.000000 0.000000 0.026451 0.000000
# 6 0.000000 0.000000 0.000000 0.000000 0.000000 0.051411
#
#
# Mechanical properties :
#
#
# Convention : Reuss Voigt Hill
#
# Bulk Modulus (GPa) = 10.92688 30.94721 20.93705
# Shear Modulus (GPa) = 24.03149 -161.03745 -68.50298
#
# Velocity S-wave (km/s) = 3.11155 -8.05471 -5.25341
# Velocity P-wave (km/s) = 4.16067 8.60445 5.32566
#
# Compressibility (1/GPa) = 0.09151740
#
# Stress axis : x y z
#
# Youngs Moduli (GPa) = 73.39450 13.79987 99.48545
#
# Poissons Ratio (x) = -0.17163 0.37440
# Poissons Ratio (y) = -0.91283 1.09294
# Poissons Ratio (z) = 0.27621 0.15160
#
# Static dielectric constant tensor:
#      x y z
#    x 2.122600 0.000000 0.000000 
#    y 0.000000 2.093010 0.000000 
#    z 0.000000 0.000000 1.716530 
# 
# From -- ./inp_files/10792.got.cif
#   From: 2010.05.17/outbox.cif.g08.bks.cpg/sg73_6_cif.got.tgz:10792.got - 2010.06.03 17:35:07.
