data_PCOD9531575
_publ_section_title
;
Structure prediction by ZEFSAII (Michael W. Deem and Ramdas Pophale) SiO2 
 PCOD9531575
Probable space group: I B C A 
;
_chemical_formula_sum "Si O2"
_cell_formula_units_Z 56
_cell_length_a 18.457624
_cell_length_b 8.244953
_cell_length_c 14.193623
_cell_angle_alpha 90.000000
_cell_angle_beta 90.000000
_cell_angle_gamma 90.000000
_cell_volume 2160.017376
_symmetry_space_group_name_H-M "I B C A "
_symmetry_group_IT_number 73
_symmetry_cell_setting 'orthorhombic'
loop_
_space_group_symop_operation_xyz
x,y,z
-x,1/2-y,z
x,-y,1/2-z
1/2-x,y,-z
-x,-y,-z
x,1/2+y,-z
-x,y,1/2+z
1/2+x,-y,z
1/2+x,1/2+y,1/2+z
1/2-x,-y,1/2+z
1/2+x,1/2-y,-z
-x,1/2+y,1/2-z
1/2-x,1/2-y,1/2-z
1/2+x,y,1/2-z
1/2-x,1/2+y,z
x,1/2-y,1/2+z
loop_
_atom_site_type_symbol
_atom_site_label
_atom_site_fract_x
_atom_site_fract_y
_atom_site_fract_z
Si Si1 0.132453 0.829252 0.222820
Si Si2 0.912384 0.559173 0.593413
Si Si3 0.719095 0.395381 0.346397
Si Si4 0.000000 0.750000 0.938061
O O1 0.085372 0.687835 0.178398
O O2 0.175940 0.765631 0.314738
O O3 0.196325 0.859919 0.144767
O O4 0.097846 0.000000 0.250000
O O5 0.830064 0.493771 0.581392
O O6 0.942928 0.655417 0.504491
O O7 0.959372 0.397687 0.612407
O O8 0.714396 0.500000 0.250000
#
# Coordination Sequence:
#
# PCOD9531575 Si02
#       4
#    16  16  16   8
#     4   9  17  33  63  95 117 141 187 264 335 369
#     4  10  21  41  59  81 121 167 212 252 296 359
#     4   8  16  34  60  89 117 144 188 259 326 364
#     4  10  24  42  58  76 122 184 220 240 270 352
#
# _framework density 25.925716999999999
#
# number of rings (size 3 to 8) (size 9 to 14) (size 15 to 20)
#    0.000    2.857    0.000    1.714    0.000    4.571 
#    0.000   21.429    0.000    0.000    0.000    0.000 
#    0.000    0.000    0.000    0.000    0.000    0.000 
#
# Total GULP energy -156437.204368 kJ/mol
# GULP energy per Si atom -5587.043013 kJ/mol
# Density = 2.586671 g / cm^3
# Si number density = 25.925717 Si / 1000 Ang^3
#
#
#
# Elastic Constant Matrix: (Units=GPa)
#
#
# Indices 1 2 3 4 5 6 
#
# 1 111.4231 61.1784 53.3725 0.0000 0.0000 0.0000
# 2 61.1784 243.4265 46.4798 0.0000 0.0000 0.0000
# 3 53.3725 46.4798 58.2740 0.0000 0.0000 0.0000
# 4 0.0000 0.0000 0.0000 31.0867 0.0000 0.0000
# 5 0.0000 0.0000 0.0000 0.0000 143.8760 0.0000
# 6 0.0000 0.0000 0.0000 0.0000 0.0000 45.0202
#
#
#
# Elastic Compliance Matrix: (Units=1/GPa)
#
#
# Indices 1 2 3 4 5 6 
#
# 1 0.016431 -0.001482 -0.013867 0.000000 0.000000 0.000000
# 2 -0.001482 0.004980 -0.002615 0.000000 0.000000 0.000000
# 3 -0.013867 -0.002615 0.031946 0.000000 0.000000 0.000000
# 4 0.000000 0.000000 0.000000 0.032168 0.000000 0.000000
# 5 0.000000 0.000000 0.000000 0.000000 0.006950 0.000000
# 6 0.000000 0.000000 0.000000 0.000000 0.000000 0.022212
#
#
# Mechanical properties :
#
#
# Convention : Reuss Voigt Hill
#
# Bulk Modulus (GPa) = 57.37209 81.68722 69.52966
# Shear Modulus (GPa) = 31.96441 60.80277 46.38359
#
# Velocity S-wave (km/s) = 3.51511 4.84805 4.23436
# Velocity P-wave (km/s) = 6.21708 7.93188 7.12625
#
# Compressibility (1/GPa) = 0.01743008
#
# Stress axis : x y z
#
# Youngs Moduli (GPa) = 60.86195 200.81725 31.30250
#
# Poissons Ratio (x) = 0.29754 0.43407
# Poissons Ratio (y) = 0.09018 0.08185
# Poissons Ratio (z) = 0.84396 0.52509
#
# Static dielectric constant tensor:
#      x y z
#    x 2.187820 0.000000 0.000000 
#    y 0.000000 2.077020 0.000000 
#    z 0.000000 0.000000 2.039810 
# 
# From -- ./inp_files/5132.got.cif
#   From: 2010.05.17/outbox.cif.g08.bks.cpg/sg73_3_cif.got.tgz:5132.got - 2010.06.03 17:35:07.
