data_PCOD9531807
_publ_section_title
;
Structure prediction by ZEFSAII (Michael W. Deem and Ramdas Pophale) SiO2 
 PCOD9531807
Probable space group: I B C A 
;
_chemical_formula_sum "Si O2"
_cell_formula_units_Z 88
_cell_length_a 24.580705
_cell_length_b 20.416934
_cell_length_c 7.803953
_cell_angle_alpha 90.000000
_cell_angle_beta 90.000000
_cell_angle_gamma 90.000000
_cell_volume 3916.512390
_symmetry_space_group_name_H-M "I B C A "
_symmetry_group_IT_number 73
_symmetry_cell_setting 'orthorhombic'
loop_
_space_group_symop_operation_xyz
x,y,z
-x,1/2-y,z
x,-y,1/2-z
1/2-x,y,-z
-x,-y,-z
x,1/2+y,-z
-x,y,1/2+z
1/2+x,-y,z
1/2+x,1/2+y,1/2+z
1/2-x,-y,1/2+z
1/2+x,1/2-y,-z
-x,1/2+y,1/2-z
1/2-x,1/2-y,1/2-z
1/2+x,y,1/2-z
1/2-x,1/2+y,z
x,1/2-y,1/2+z
loop_
_atom_site_type_symbol
_atom_site_label
_atom_site_fract_x
_atom_site_fract_y
_atom_site_fract_z
Si Si1 0.439415 0.890400 0.485358
Si Si2 0.174276 0.193292 0.709131
Si Si3 0.363843 0.063239 0.329477
Si Si4 0.750000 0.790563 0.000000
Si Si5 0.562329 0.250294 0.648713
Si Si6 0.438307 0.596632 0.379704
O O1 0.399170 0.910974 0.333081
O O2 0.440606 0.810532 0.485765
O O3 0.498703 0.913655 0.425101
O O4 0.427751 0.913157 0.678261
O O5 0.170291 0.125287 0.609907
O O6 0.207555 0.173055 0.879464
O O7 0.210806 0.244952 0.611533
O O8 0.116322 0.227572 0.748034
O O9 0.403826 0.052738 0.489750
O O10 0.335512 0.000000 0.250000
O O11 0.500000 0.250000 0.722550
O O12 0.571339 0.324939 0.587766
#
# Coordination Sequence:
#
# PCOD9531807 Si02
#       6
#    16  16  16   8  16  16
#     4  10  22  36  57  90 129 179 219 263 327 390
#     4  10  22  43  65 100 127 166 214 272 332 393
#     4  11  25  42  60  87 128 173 223 271 318 388
#     4  10  22  42  74  94 126 160 212 278 338 392
#     4   9  21  34  64 100 138 165 206 271 344 401
#     4  11  21  37  58  91 130 176 222 266 323 396
#
# _framework density 22.468971
#
# number of rings (size 3 to 8) (size 9 to 14) (size 15 to 20)
#    0.000    1.818    1.818    1.091   10.182    3.636 
#    0.000    0.909    0.000    0.000    0.000    0.000 
#    0.000    0.000    0.000    0.000    0.000    0.000 
#
# Total GULP energy -245485.026149 kJ/mol
# GULP energy per Si atom -5579.205140 kJ/mol
# Density = 2.241783 g / cm^3
# Si number density = 22.468971 Si / 1000 Ang^3
#
#
#
# Elastic Constant Matrix: (Units=GPa)
#
#
# Indices 1 2 3 4 5 6 
#
# 1 92.4508 9.0343 14.4600 0.0000 0.0000 0.0000
# 2 9.0343 45.0643 -4.6964 0.0000 0.0000 0.0000
# 3 14.4600 -4.6964 110.2973 0.0000 0.0000 0.0000
# 4 0.0000 0.0000 0.0000 22.4568 0.0000 0.0000
# 5 0.0000 0.0000 0.0000 0.0000 32.2705 0.0000
# 6 0.0000 0.0000 0.0000 0.0000 0.0000 2.8800
#
#
#
# Elastic Compliance Matrix: (Units=1/GPa)
#
#
# Indices 1 2 3 4 5 6 
#
# 1 0.011302 -0.002431 -0.001585 0.000000 0.000000 0.000000
# 2 -0.002431 0.022812 0.001290 0.000000 0.000000 0.000000
# 3 -0.001585 0.001290 0.009329 0.000000 0.000000 0.000000
# 4 0.000000 0.000000 0.000000 0.044530 0.000000 0.000000
# 5 0.000000 0.000000 0.000000 0.000000 0.030988 0.000000
# 6 0.000000 0.000000 0.000000 0.000000 0.000000 0.347217
#
#
# Mechanical properties :
#
#
# Convention : Reuss Voigt Hill
#
# Bulk Modulus (GPa) = 26.32190 31.71204 29.01697
# Shear Modulus (GPa) = 10.32430 26.78910 18.55670
#
# Velocity S-wave (km/s) = 2.14590 3.45667 2.87693
# Velocity P-wave (km/s) = 4.22848 5.48414 4.89673
#
# Compressibility (1/GPa) = 0.03799117
#
# Stress axis : x y z
#
# Youngs Moduli (GPa) = 88.47947 43.83598 107.19079
#
# Poissons Ratio (x) = 0.10657 0.16992
# Poissons Ratio (y) = 0.21509 -0.13828
# Poissons Ratio (z) = 0.14026 -0.05655
#
# Static dielectric constant tensor:
#      x y z
#    x 1.850600 0.000000 0.000000 
#    y 0.000000 1.895800 0.000000 
#    z 0.000000 0.000000 1.934370 
# 
# From -- ./inp_files/7037.got.cif
#   From: 2010.05.17/outbox.cif.g08.bks.cpg/sg73_4_cif.got.tgz:7037.got - 2010.06.03 17:35:07.
