data_PCOD9531637
_publ_section_title
;
Structure prediction by ZEFSAII (Michael W. Deem and Ramdas Pophale) SiO2 
 PCOD9531637
Probable space group: I B C A 
;
_chemical_formula_sum "Si O2"
_cell_formula_units_Z 120
_cell_length_a 12.014047
_cell_length_b 24.880422
_cell_length_c 18.438337
_cell_angle_alpha 90.000000
_cell_angle_beta 90.000000
_cell_angle_gamma 90.000000
_cell_volume 5511.487378
_symmetry_space_group_name_H-M "I B C A "
_symmetry_group_IT_number 73
_symmetry_cell_setting 'orthorhombic'
loop_
_space_group_symop_operation_xyz
x,y,z
-x,1/2-y,z
x,-y,1/2-z
1/2-x,y,-z
-x,-y,-z
x,1/2+y,-z
-x,y,1/2+z
1/2+x,-y,z
1/2+x,1/2+y,1/2+z
1/2-x,-y,1/2+z
1/2+x,1/2-y,-z
-x,1/2+y,1/2-z
1/2-x,1/2-y,1/2-z
1/2+x,y,1/2-z
1/2-x,1/2+y,z
x,1/2-y,1/2+z
loop_
_atom_site_type_symbol
_atom_site_label
_atom_site_fract_x
_atom_site_fract_y
_atom_site_fract_z
Si Si1 0.152970 0.392238 0.101973
Si Si2 0.084689 0.065279 0.753410
Si Si3 0.540405 0.690759 0.588420
Si Si4 0.565559 0.195959 0.578661
Si Si5 0.597777 0.391949 0.641750
Si Si6 0.750000 0.422633 0.000000
Si Si7 0.760328 0.137150 0.356307
Si Si8 0.384286 0.521711 0.474891
O O1 0.095340 0.418515 0.170695
O O2 0.273866 0.373311 0.132224
O O3 0.158110 0.437892 0.038902
O O4 0.071531 0.344469 0.078191
O O5 0.187833 0.095028 0.797849
O O6 0.971435 0.091479 0.786576
O O7 0.088364 0.000000 0.750000
O O8 0.500000 0.750000 0.614454
O O9 0.592689 0.697145 0.507571
O O10 0.632469 0.657633 0.636161
O O11 0.500000 0.250000 0.593062
O O12 0.479562 0.148574 0.597636
O O13 0.664738 0.190508 0.637212
O O14 0.602897 0.447133 0.598483
O O15 0.704727 0.388148 0.065411
O O16 0.675265 0.465723 0.959369
O O17 0.500000 0.500000 0.500000
#
# Coordination Sequence:
#
# PCOD9531637 Si02
#       8
#    16  16  16  16  16   8  16  16
#     4  12  25  45  66 102 138 180 231 285 352 418
#     4  11  27  47  69  98 142 193 227 282 353 425
#     4  11  24  42  71 103 136 183 230 295 357 413
#     4  10  21  41  72 102 137 179 227 301 360 404
#     4  11  24  44  66 104 136 175 239 285 342 427
#     4  12  20  36  64  96 128 174 218 280 344 392
#     4  11  23  44  66 104 140 180 240 286 347 426
#     4  12  22  39  67  98 134 176 223 285 342 414
#
# _framework density 21.772708000000002
#
# number of rings (size 3 to 8) (size 9 to 14) (size 15 to 20)
#    0.000    0.800    4.000    4.000    3.733    0.533 
#    0.000    3.333    0.000    0.000    0.000    0.000 
#    0.000    0.000    0.000    0.000    0.000    0.000 
#
# Total GULP energy -334092.454096 kJ/mol
# GULP energy per Si atom -5568.207568 kJ/mol
# Density = 2.172315 g / cm^3
# Si number density = 21.772708 Si / 1000 Ang^3
#
#
#
# Elastic Constant Matrix: (Units=GPa)
#
#
# Indices 1 2 3 4 5 6 
#
# 1 130.1954 30.7866 9.1628 0.0000 0.0000 0.0000
# 2 30.7866 75.8396 14.0397 0.0000 0.0000 0.0000
# 3 9.1628 14.0397 80.4465 0.0000 0.0000 0.0000
# 4 0.0000 0.0000 0.0000 23.3901 0.0000 0.0000
# 5 0.0000 0.0000 0.0000 0.0000 38.8402 0.0000
# 6 0.0000 0.0000 0.0000 0.0000 0.0000 42.6438
#
#
#
# Elastic Compliance Matrix: (Units=1/GPa)
#
#
# Indices 1 2 3 4 5 6 
#
# 1 0.008507 -0.003383 -0.000379 0.000000 0.000000 0.000000
# 2 -0.003383 0.014972 -0.002227 0.000000 0.000000 0.000000
# 3 -0.000379 -0.002227 0.012862 0.000000 0.000000 0.000000
# 4 0.000000 0.000000 0.000000 0.042753 0.000000 0.000000
# 5 0.000000 0.000000 0.000000 0.000000 0.025747 0.000000
# 6 0.000000 0.000000 0.000000 0.000000 0.000000 0.023450
#
#
# Mechanical properties :
#
#
# Convention : Reuss Voigt Hill
#
# Bulk Modulus (GPa) = 41.04656 43.82886 42.43771
# Shear Modulus (GPa) = 33.69474 36.47431 35.08452
#
# Velocity S-wave (km/s) = 3.93818 4.09740 4.01858
# Velocity P-wave (km/s) = 6.29065 6.52371 6.40824
#
# Compressibility (1/GPa) = 0.02436258
#
# Stress axis : x y z
#
# Youngs Moduli (GPa) = 117.54371 66.79316 77.74556
#
# Poissons Ratio (x) = 0.22599 0.02943
# Poissons Ratio (y) = 0.39771 0.17318
# Poissons Ratio (z) = 0.04449 0.14878
#
# Static dielectric constant tensor:
#      x y z
#    x 2.013970 -0.000010 0.000000 
#    y -0.000010 -2.976420 0.000000 
#    z 0.000000 0.000000 1.772110 
# 
# From -- ./inp_files/25611.got.cif
#   From: 2010.05.17/outbox.cif.g08.bks.cpg/sg73_13_cif.got.tgz:25611.got - 2010.06.03 17:35:07.
