data_PCOD9531894
_publ_section_title
;
Structure prediction by ZEFSAII (Michael W. Deem and Ramdas Pophale) SiO2 
 PCOD9531894
Probable space group: I B C A 
;
_chemical_formula_sum "Si O2"
_cell_formula_units_Z 72
_cell_length_a 5.244792
_cell_length_b 21.647280
_cell_length_c 30.232861
_cell_angle_alpha 90.000000
_cell_angle_beta 90.000000
_cell_angle_gamma 90.000000
_cell_volume 3432.502415
_symmetry_space_group_name_H-M "I B C A "
_symmetry_group_IT_number 73
_symmetry_cell_setting 'orthorhombic'
loop_
_space_group_symop_operation_xyz
x,y,z
-x,1/2-y,z
x,-y,1/2-z
1/2-x,y,-z
-x,-y,-z
x,1/2+y,-z
-x,y,1/2+z
1/2+x,-y,z
1/2+x,1/2+y,1/2+z
1/2-x,-y,1/2+z
1/2+x,1/2-y,-z
-x,1/2+y,1/2-z
1/2-x,1/2-y,1/2-z
1/2+x,y,1/2-z
1/2-x,1/2+y,z
x,1/2-y,1/2+z
loop_
_atom_site_type_symbol
_atom_site_label
_atom_site_fract_x
_atom_site_fract_y
_atom_site_fract_z
Si Si1 0.587701 0.181333 0.402077
Si Si2 0.750000 0.647310 0.500000
Si Si3 0.579151 0.611018 0.870258
Si Si4 0.444874 0.538198 0.951918
Si Si5 0.895541 0.429093 0.269812
O O1 0.500000 0.250000 0.390396
O O2 0.644938 0.179506 0.455492
O O3 0.349826 0.136859 0.388782
O O4 0.848708 0.160812 0.377032
O O5 0.536526 0.601741 0.479166
O O6 0.478552 0.556710 0.901432
O O7 0.611139 0.581698 0.821912
O O8 0.666695 0.489758 0.959471
O O9 0.898914 0.500000 0.250000
O O10 0.649230 0.399141 0.248652
#
# Coordination Sequence:
#
# PCOD9531894 Si02
#       5
#    16   8  16  16  16
#     4  11  25  45  69  92 128 178 231 285 322 367
#     4  10  24  42  60  96 124 178 232 272 314 382
#     4  11  24  42  65  99 134 170 219 272 333 395
#     4  11  23  36  60  86 137 174 206 253 327 396
#     4  10  22  38  66  98 135 166 209 259 331 404
#
# _framework density 20.975951999999999
#
# number of rings (size 3 to 8) (size 9 to 14) (size 15 to 20)
#    0.000    1.333    0.000    5.333    6.222   10.667 
#    0.000    0.000    0.000   13.333    0.000    0.000 
#    0.000    0.000    0.000    0.000    0.000    0.000 
#
# Total GULP energy -200717.265899 kJ/mol
# GULP energy per Si atom -5575.479608 kJ/mol
# Density = 2.092821 g / cm^3
# Si number density = 20.975952 Si / 1000 Ang^3
#
#
#
# Elastic Constant Matrix: (Units=GPa)
#
#
# Indices 1 2 3 4 5 6 
#
# 1 146.4638 11.2100 15.9643 0.0000 0.0000 0.0000
# 2 11.2100 49.9061 13.3463 0.0000 0.0000 0.0000
# 3 15.9643 13.3463 135.1861 0.0000 0.0000 0.0000
# 4 0.0000 0.0000 0.0000 11.0681 0.0000 0.0000
# 5 0.0000 0.0000 0.0000 0.0000 29.0354 0.0000
# 6 0.0000 0.0000 0.0000 0.0000 0.0000 11.4589
#
#
#
# Elastic Compliance Matrix: (Units=1/GPa)
#
#
# Indices 1 2 3 4 5 6 
#
# 1 0.007009 -0.001390 -0.000691 0.000000 0.000000 0.000000
# 2 -0.001390 0.020857 -0.001895 0.000000 0.000000 0.000000
# 3 -0.000691 -0.001895 0.007666 0.000000 0.000000 0.000000
# 4 0.000000 0.000000 0.000000 0.090350 0.000000 0.000000
# 5 0.000000 0.000000 0.000000 0.000000 0.034441 0.000000
# 6 0.000000 0.000000 0.000000 0.000000 0.000000 0.087268
#
#
# Mechanical properties :
#
#
# Convention : Reuss Voigt Hill
#
# Bulk Modulus (GPa) = 36.25663 45.84414 41.05039
# Shear Modulus (GPa) = 18.88685 29.71484 24.30084
#
# Velocity S-wave (km/s) = 3.00393 3.76788 3.40738
# Velocity P-wave (km/s) = 5.41792 6.39001 5.92394
#
# Compressibility (1/GPa) = 0.02758116
#
# Stress axis : x y z
#
# Youngs Moduli (GPa) = 142.66837 47.94650 130.44891
#
# Poissons Ratio (x) = 0.06663 0.09008
# Poissons Ratio (y) = 0.19828 0.24720
# Poissons Ratio (z) = 0.09852 0.09086
#
# Static dielectric constant tensor:
#      x y z
#    x 1.777390 0.000000 0.000000 
#    y 0.000000 1.761210 0.000000 
#    z 0.000000 0.000000 1.827740 
# 
# From -- ./inp_files/2528.got.cif
#   From: 2010.05.17/outbox.cif.g08.bks.cpg/sg73_2_cif.got.tgz:2528.got - 2010.06.03 17:35:07.
