data_PCOD9531859
_publ_section_title
;
Structure prediction by ZEFSAII (Michael W. Deem and Ramdas Pophale) SiO2 
 PCOD9531859
Probable space group: I B C A 
;
_chemical_formula_sum "Si O2"
_cell_formula_units_Z 96
_cell_length_a 23.863415
_cell_length_b 19.247959
_cell_length_c 8.766882
_cell_angle_alpha 90.000000
_cell_angle_beta 90.000000
_cell_angle_gamma 90.000000
_cell_volume 4026.822068
_symmetry_space_group_name_H-M "I B C A "
_symmetry_group_IT_number 73
_symmetry_cell_setting 'orthorhombic'
loop_
_space_group_symop_operation_xyz
x,y,z
-x,1/2-y,z
x,-y,1/2-z
1/2-x,y,-z
-x,-y,-z
x,1/2+y,-z
-x,y,1/2+z
1/2+x,-y,z
1/2+x,1/2+y,1/2+z
1/2-x,-y,1/2+z
1/2+x,1/2-y,-z
-x,1/2+y,1/2-z
1/2-x,1/2-y,1/2-z
1/2+x,y,1/2-z
1/2-x,1/2+y,z
x,1/2-y,1/2+z
loop_
_atom_site_type_symbol
_atom_site_label
_atom_site_fract_x
_atom_site_fract_y
_atom_site_fract_z
Si Si1 0.483318 0.597099 0.396813
Si Si2 0.043825 0.191774 0.148094
Si Si3 0.335229 0.794941 0.543433
Si Si4 0.082766 0.060033 0.661166
Si Si5 0.276946 0.568954 0.167028
Si Si6 0.817328 0.659894 0.802558
O O1 0.513238 0.646430 0.519298
O O2 0.443412 0.642783 0.290789
O O3 0.532230 0.573059 0.282209
O O4 0.446157 0.544740 0.498188
O O5 0.100399 0.220779 0.080369
O O6 0.000000 0.250000 0.198930
O O7 0.317459 0.865841 0.629721
O O8 0.327943 0.810399 0.366613
O O9 0.302673 0.726731 0.597382
O O10 0.125380 0.123119 0.643326
O O11 0.116007 0.000000 0.750000
O O12 0.300114 0.500000 0.250000
O O13 0.230354 0.602239 0.279465
O O14 0.250000 0.551697 0.000000
#
# Coordination Sequence:
#
# PCOD9531859 Si02
#       6
#    16  16  16  16  16  16
#     4  10  22  38  58  91 126 175 222 276 323 404
#     4  11  22  37  62  94 135 173 221 267 331 391
#     4  11  24  42  66  99 135 171 222 276 334 400
#     4  11  22  41  62  91 133 177 228 274 338 398
#     4  10  24  48  71  99 132 171 222 285 338 405
#     4  11  24  42  67  97 132 173 221 278 340 400
#
# _framework density 23.840139000000001
#
# number of rings (size 3 to 8) (size 9 to 14) (size 15 to 20)
#    0.000    1.333    1.667    4.000    4.667    1.333 
#    6.000    0.833    0.000    0.000    0.000    0.000 
#    0.000    0.000    0.000    0.000    0.000    0.000 
#
# Total GULP energy -268458.060322 kJ/mol
# GULP energy per Si atom -5592.876257 kJ/mol
# Density = 2.378588 g / cm^3
# Si number density = 23.840139 Si / 1000 Ang^3
#
#
#
# Elastic Constant Matrix: (Units=GPa)
#
#
# Indices 1 2 3 4 5 6 
#
# 1 66.3844 9.6201 9.6420 0.0000 0.0000 0.0000
# 2 9.6201 88.9052 10.6439 0.0000 0.0000 0.0000
# 3 9.6420 10.6439 62.1742 0.0000 0.0000 0.0000
# 4 0.0000 0.0000 0.0000 28.1755 0.0000 0.0000
# 5 0.0000 0.0000 0.0000 0.0000 18.6114 0.0000
# 6 0.0000 0.0000 0.0000 0.0000 0.0000 94.2409
#
#
#
# Elastic Compliance Matrix: (Units=1/GPa)
#
#
# Indices 1 2 3 4 5 6 
#
# 1 0.015586 -0.001426 -0.002173 0.000000 0.000000 0.000000
# 2 -0.001426 0.011614 -0.001767 0.000000 0.000000 0.000000
# 3 -0.002173 -0.001767 0.016723 0.000000 0.000000 0.000000
# 4 0.000000 0.000000 0.000000 0.035492 0.000000 0.000000
# 5 0.000000 0.000000 0.000000 0.000000 0.053731 0.000000
# 6 0.000000 0.000000 0.000000 0.000000 0.000000 0.010611
#
#
# Mechanical properties :
#
#
# Convention : Reuss Voigt Hill
#
# Bulk Modulus (GPa) = 30.12898 30.80842 30.46870
# Shear Modulus (GPa) = 30.20183 40.70941 35.45562
#
# Velocity S-wave (km/s) = 3.56314 4.13679 3.86064
# Velocity P-wave (km/s) = 5.43998 5.98067 5.71672
#
# Compressibility (1/GPa) = 0.03319063
#
# Stress axis : x y z
#
# Youngs Moduli (GPa) = 64.15977 86.10420 59.79677
#
# Poissons Ratio (x) = 0.12282 0.12993
# Poissons Ratio (y) = 0.09152 0.10566
# Poissons Ratio (z) = 0.13941 0.15215
#
# Static dielectric constant tensor:
#      x y z
#    x 1.928660 0.000000 0.000000 
#    y 0.000000 2.001050 0.000000 
#    z 0.000000 0.000000 1.873070 
# 
# From -- ./inp_files/7799.got.cif
#   From: 2010.05.17/outbox.cif.g08.bks.cpg/sg73_4_cif.got.tgz:7799.got - 2010.06.03 17:35:07.
