data_PCOD9531099
_publ_section_title
;
Structure prediction by ZEFSAII (Michael W. Deem and Ramdas Pophale) SiO2 
 PCOD9531099
Probable space group: I B C A 
;
_chemical_formula_sum "Si O2"
_cell_formula_units_Z 88
_cell_length_a 12.028107
_cell_length_b 21.648252
_cell_length_c 14.187386
_cell_angle_alpha 90.000000
_cell_angle_beta 90.000000
_cell_angle_gamma 90.000000
_cell_volume 3694.217850
_symmetry_space_group_name_H-M "I B C A "
_symmetry_group_IT_number 73
_symmetry_cell_setting 'orthorhombic'
loop_
_space_group_symop_operation_xyz
x,y,z
-x,1/2-y,z
x,-y,1/2-z
1/2-x,y,-z
-x,-y,-z
x,1/2+y,-z
-x,y,1/2+z
1/2+x,-y,z
1/2+x,1/2+y,1/2+z
1/2-x,-y,1/2+z
1/2+x,1/2-y,-z
-x,1/2+y,1/2-z
1/2-x,1/2-y,1/2-z
1/2+x,y,1/2-z
1/2-x,1/2+y,z
x,1/2-y,1/2+z
loop_
_atom_site_type_symbol
_atom_site_label
_atom_site_fract_x
_atom_site_fract_y
_atom_site_fract_z
Si Si1 0.500000 0.250000 0.566871
Si Si2 0.750000 0.945516 0.500000
Si Si3 0.260382 0.617647 0.220578
Si Si4 0.197585 0.827489 0.095134
Si Si5 0.092320 0.958724 0.598957
Si Si6 0.125194 0.356685 0.540106
Si Si7 0.415105 0.500000 0.250000
O O1 0.594556 0.285728 0.623718
O O2 0.445967 0.302028 0.501771
O O3 0.671985 0.896429 0.444864
O O4 0.819237 0.988609 0.430294
O O5 0.231634 0.657943 0.312160
O O6 0.151928 0.591462 0.167671
O O7 0.346460 0.650784 0.149568
O O8 0.333698 0.557976 0.244917
O O9 0.250000 0.798023 0.000000
O O10 0.073507 0.920570 0.501517
O O11 0.994273 0.989035 0.659333
O O12 0.250000 0.357002 0.500000
#
# Coordination Sequence:
#
# PCOD9531099 Si02
#       7
#     8   8  16  16  16  16   8
#     4  12  24  46  64  96 136 174 240 280 336 414
#     4  10  20  42  68  96 132 180 208 274 344 406
#     4  11  23  43  64 102 133 178 227 277 348 407
#     4  10  25  42  70  94 133 180 225 280 344 405
#     4  11  22  43  66  99 145 169 223 281 350 414
#     4  10  24  43  67  93 132 183 220 283 342 406
#     4  12  24  32  66 104 140 172 218 278 340 422
#
# _framework density 23.821010999999999
#
# number of rings (size 3 to 8) (size 9 to 14) (size 15 to 20)
#    0.545    0.727    2.727    4.364    2.545    1.455 
#    0.000    8.182    0.000    0.000    0.000    0.000 
#    0.000    0.000    0.000    0.000    0.000    0.000 
#
# Total GULP energy -245648.829350 kJ/mol
# GULP energy per Si atom -5582.927940 kJ/mol
# Density = 2.376679 g / cm^3
# Si number density = 23.821011 Si / 1000 Ang^3
#
#
#
# Elastic Constant Matrix: (Units=GPa)
#
#
# Indices 1 2 3 4 5 6 
#
# 1 30.4100 -3.5989 3.9355 0.0000 0.0000 0.0001
# 2 -3.5989 67.0985 5.2243 0.0001 0.0000 0.0004
# 3 3.9355 5.2243 102.4739 0.0002 0.0000 0.0005
# 4 0.0000 0.0001 0.0002 -14.6157 0.0000 0.0003
# 5 0.0000 0.0000 0.0000 0.0000 32.4155 0.0000
# 6 0.0001 0.0004 0.0005 0.0003 0.0000 185.0904
#
#
#
# Elastic Compliance Matrix: (Units=1/GPa)
#
#
# Indices 1 2 3 4 5 6 
#
# 1 0.033286 0.001892 -0.001375 0.000000 0.000000 0.000000
# 2 0.001892 0.015070 -0.000841 0.000000 0.000000 0.000000
# 3 -0.001375 -0.000841 0.009854 0.000000 0.000000 0.000000
# 4 0.000000 0.000000 0.000000 -0.068420 0.000000 0.000000
# 5 0.000000 0.000000 0.000000 0.000000 0.030849 0.000000
# 6 0.000000 0.000000 0.000000 0.000000 0.000000 0.005403
#
#
# Mechanical properties :
#
#
# Convention : Reuss Voigt Hill
#
# Bulk Modulus (GPa) = 17.37207 23.45601 20.41404
# Shear Modulus (GPa) = 108.98546 53.53948 81.26247
#
# Velocity S-wave (km/s) = 6.77135 4.74600 5.84704
# Velocity P-wave (km/s) = 8.27305 6.31671 7.36017
#
# Compressibility (1/GPa) = 0.05756368
#
# Stress axis : x y z
#
# Youngs Moduli (GPa) = 30.04281 66.35504 101.47894
#
# Poissons Ratio (x) = -0.12557 0.13951
# Poissons Ratio (y) = -0.05685 0.08534
# Poissons Ratio (z) = 0.04130 0.05580
#
# Static dielectric constant tensor:
#      x y z
#    x 4.670000 0.000000 -0.000030 
#    y 0.000000 1.899950 0.000000 
#    z -0.000030 0.000000 2.652700 
# 
# From -- ./inp_files/16154.got.cif
#   From: 2010.05.17/outbox.cif.g08.bks.cpg/sg73_9_cif.got.tgz:16154.got - 2010.06.03 17:35:07.
