data_PCOD9531780
_publ_section_title
;
Structure prediction by ZEFSAII (Michael W. Deem and Ramdas Pophale) SiO2 
 PCOD9531780
Probable space group: I B C A 
;
_chemical_formula_sum "Si O2"
_cell_formula_units_Z 72
_cell_length_a 8.791095
_cell_length_b 21.556133
_cell_length_c 20.121376
_cell_angle_alpha 90.000000
_cell_angle_beta 90.000000
_cell_angle_gamma 90.000000
_cell_volume 3813.041257
_symmetry_space_group_name_H-M "I B C A "
_symmetry_group_IT_number 73
_symmetry_cell_setting 'orthorhombic'
loop_
_space_group_symop_operation_xyz
x,y,z
-x,1/2-y,z
x,-y,1/2-z
1/2-x,y,-z
-x,-y,-z
x,1/2+y,-z
-x,y,1/2+z
1/2+x,-y,z
1/2+x,1/2+y,1/2+z
1/2-x,-y,1/2+z
1/2+x,1/2-y,-z
-x,1/2+y,1/2-z
1/2-x,1/2-y,1/2-z
1/2+x,y,1/2-z
1/2-x,1/2+y,z
x,1/2-y,1/2+z
loop_
_atom_site_type_symbol
_atom_site_label
_atom_site_fract_x
_atom_site_fract_y
_atom_site_fract_z
Si Si1 0.883303 0.085002 0.313585
Si Si2 0.694861 0.310878 0.291363
Si Si3 0.135739 0.500000 0.750000
Si Si4 0.750000 0.720329 0.000000
Si Si5 0.458758 0.676941 0.391192
Si Si6 0.000000 0.250000 0.100280
O O1 0.862633 0.139325 0.259970
O O2 0.912762 0.125042 0.380629
O O3 0.739871 0.040309 0.300283
O O4 0.027309 0.043396 0.293961
O O5 0.750000 0.250000 0.250000
O O6 0.838511 0.334297 0.332670
O O7 0.564660 0.299469 0.346825
O O8 0.631685 0.677724 0.960127
O O9 0.853745 0.759446 0.948103
O O10 0.500000 0.750000 0.383682
#
# Coordination Sequence:
#
# PCOD9531780 Si02
#       6
#    16  16   8   8  16   8
#     4  11  21  39  56  88 118 156 192 247 300 357
#     4  11  20  32  58  95 120 144 186 245 317 358
#     4  10  24  36  56  84 120 156 202 236 306 346
#     4  10  22  38  50  86 124 164 192 228 298 366
#     4  11  20  34  59  85 123 151 188 242 296 364
#     4  10  22  34  56  86 130 154 194 232 300 384
#
# _framework density 18.882565
#
# number of rings (size 3 to 8) (size 9 to 14) (size 15 to 20)
#    0.000    1.333    5.556    1.333    0.000    0.000 
#    0.000    0.000    0.000    1.333    0.000    0.000 
#    0.000    0.000    0.000    0.000    0.000    0.000 
#
# Total GULP energy -200460.008875 kJ/mol
# GULP energy per Si atom -5568.333580 kJ/mol
# Density = 1.883959 g / cm^3
# Si number density = 18.882565 Si / 1000 Ang^3
#
#
#
# Elastic Constant Matrix: (Units=GPa)
#
#
# Indices 1 2 3 4 5 6 
#
# 1 77.8672 45.9254 27.7589 0.0000 0.0000 0.0000
# 2 45.9254 104.9712 30.4455 0.0000 0.0000 0.0000
# 3 27.7589 30.4455 76.1119 0.0000 0.0000 0.0000
# 4 0.0000 0.0000 0.0000 8.4121 0.0000 0.0000
# 5 0.0000 0.0000 0.0000 0.0000 42.1026 0.0000
# 6 0.0000 0.0000 0.0000 0.0000 0.0000 39.6287
#
#
#
# Elastic Compliance Matrix: (Units=1/GPa)
#
#
# Indices 1 2 3 4 5 6 
#
# 1 0.018290 -0.006863 -0.003925 0.000000 0.000000 0.000000
# 2 -0.006863 0.013352 -0.002838 0.000000 0.000000 0.000000
# 3 -0.003925 -0.002838 0.015705 0.000000 0.000000 0.000000
# 4 0.000000 0.000000 0.000000 0.118876 0.000000 0.000000
# 5 0.000000 0.000000 0.000000 0.000000 0.023752 0.000000
# 6 0.000000 0.000000 0.000000 0.000000 0.000000 0.025234
#
#
# Mechanical properties :
#
#
# Convention : Reuss Voigt Hill
#
# Bulk Modulus (GPa) = 49.76476 51.91220 50.83848
# Shear Modulus (GPa) = 20.06749 28.35005 24.20877
#
# Velocity S-wave (km/s) = 3.26352 3.87898 3.58448
# Velocity P-wave (km/s) = 6.37282 6.90027 6.64179
#
# Compressibility (1/GPa) = 0.02009454
#
# Stress axis : x y z
#
# Youngs Moduli (GPa) = 54.67602 74.89361 63.67314
#
# Poissons Ratio (x) = 0.51402 0.24992
# Poissons Ratio (y) = 0.37526 0.18070
# Poissons Ratio (z) = 0.21460 0.21254
#
# Static dielectric constant tensor:
#      x y z
#    x 1.774000 0.000000 0.000000 
#    y 0.000000 1.678040 0.000000 
#    z 0.000000 0.000000 1.665960 
# 
# From -- ./inp_files/6143.got.cif
#   From: 2010.05.17/outbox.cif.g08.bks.cpg/sg73_4_cif.got.tgz:6143.got - 2010.06.03 17:35:07.
