data_PCOD9531493
_publ_section_title
;
Structure prediction by ZEFSAII (Michael W. Deem and Ramdas Pophale) SiO2 
 PCOD9531493
Probable space group: I B C A 
;
_chemical_formula_sum "Si O2"
_cell_formula_units_Z 104
_cell_length_a 16.967331
_cell_length_b 22.897350
_cell_length_c 13.615463
_cell_angle_alpha 90.000000
_cell_angle_beta 90.000000
_cell_angle_gamma 90.000000
_cell_volume 5289.701546
_symmetry_space_group_name_H-M "I B C A "
_symmetry_group_IT_number 73
_symmetry_cell_setting 'orthorhombic'
loop_
_space_group_symop_operation_xyz
x,y,z
-x,1/2-y,z
x,-y,1/2-z
1/2-x,y,-z
-x,-y,-z
x,1/2+y,-z
-x,y,1/2+z
1/2+x,-y,z
1/2+x,1/2+y,1/2+z
1/2-x,-y,1/2+z
1/2+x,1/2-y,-z
-x,1/2+y,1/2-z
1/2-x,1/2-y,1/2-z
1/2+x,y,1/2-z
1/2-x,1/2+y,z
x,1/2-y,1/2+z
loop_
_atom_site_type_symbol
_atom_site_label
_atom_site_fract_x
_atom_site_fract_y
_atom_site_fract_z
Si Si1 0.526119 0.892881 0.957978
Si Si2 0.826531 0.024781 0.449793
Si Si3 0.047740 0.689866 0.398735
Si Si4 0.756382 0.500000 0.250000
Si Si5 0.078442 0.709550 0.183676
Si Si6 0.678599 0.792284 0.436129
Si Si7 0.350589 0.578215 0.398933
O O1 0.591199 0.942852 0.965569
O O2 0.564751 0.840739 0.895431
O O3 0.445084 0.911678 0.903234
O O4 0.502730 0.865189 0.063559
O O5 0.750000 0.054702 0.500000
O O6 0.801161 0.021215 0.336804
O O7 0.834020 0.962309 0.505481
O O8 0.085926 0.682576 0.292051
O O9 0.108383 0.700669 0.486016
O O10 0.000000 0.750000 0.392777
O O11 0.814604 0.454793 0.305138
O O12 0.150235 0.750592 0.150800
O O13 0.000000 0.750000 0.181275
O O14 0.750000 0.768408 0.500000
O O15 0.691525 0.858814 0.402358
#
# Coordination Sequence:
#
# PCOD9531493 Si02
#       7
#    16  16  16   8  16  16  16
#     4  11  21  40  65  90 123 165 216 254 314 386
#     4  10  23  40  60  91 127 161 207 268 325 367
#     4  10  21  40  61  83 123 161 199 253 306 364
#     4  10  22  42  60  88 130 156 206 272 316 368
#     4  11  21  39  60  91 120 160 206 256 306 368
#     4  11  21  39  64  89 124 165 209 254 313 381
#     4  10  22  41  64  86 122 170 209 251 316 384
#
# _framework density 19.660845999999999
#
# number of rings (size 3 to 8) (size 9 to 14) (size 15 to 20)
#    0.000    1.538    4.615    1.846    0.000    8.000 
#    0.000    0.000    0.000    0.000    0.000    0.000 
#    0.000    0.000    0.000    0.000    0.000    0.000 
#
# Total GULP energy -290042.006687 kJ/mol
# GULP energy per Si atom -5577.730898 kJ/mol
# Density = 1.961610 g / cm^3
# Si number density = 19.660846 Si / 1000 Ang^3
#
#
#
# Elastic Constant Matrix: (Units=GPa)
#
#
# Indices 1 2 3 4 5 6 
#
# 1 70.2562 30.5875 24.0408 0.0000 0.0000 0.0000
# 2 30.5875 83.5715 53.4298 0.0000 0.0000 0.0000
# 3 24.0408 53.4298 148.4868 0.0000 0.0000 0.0000
# 4 0.0000 0.0000 0.0000 -2.4584 0.0000 0.0000
# 5 0.0000 0.0000 0.0000 0.0000 6.6565 0.0000
# 6 0.0000 0.0000 0.0000 0.0000 0.0000 19.0394
#
#
#
# Elastic Compliance Matrix: (Units=1/GPa)
#
#
# Indices 1 2 3 4 5 6 
#
# 1 0.016982 -0.005790 -0.000666 0.000000 0.000000 0.000000
# 2 -0.005790 0.017515 -0.005365 0.000000 0.000000 0.000000
# 3 -0.000666 -0.005365 0.008773 0.000000 0.000000 0.000000
# 4 0.000000 0.000000 0.000000 -0.406768 0.000000 0.000000
# 5 0.000000 0.000000 0.000000 0.000000 0.150230 0.000000
# 6 0.000000 0.000000 0.000000 0.000000 0.000000 0.052523
#
#
# Mechanical properties :
#
#
# Convention : Reuss Voigt Hill
#
# Bulk Modulus (GPa) = 50.94674 57.60340 54.27507
# Shear Modulus (GPa) = -38.29630 17.59791 -10.34920
#
# Velocity S-wave (km/s) = -4.41823 2.99502 -2.29680
# Velocity P-wave (km/s) = 0.24211 6.42825 4.54223
#
# Compressibility (1/GPa) = 0.01962834
#
# Stress axis : x y z
#
# Youngs Moduli (GPa) = 58.88515 57.09453 113.98683
#
# Poissons Ratio (x) = 0.33055 0.07594
# Poissons Ratio (y) = 0.34092 0.61154
# Poissons Ratio (z) = 0.03923 0.30631
#
# Static dielectric constant tensor:
#      x y z
#    x 1.556530 0.000000 0.000000 
#    y 0.000000 1.739240 0.000000 
#    z 0.000000 0.000000 1.700910 
# 
# From -- ./inp_files/18121.got.cif
#   From: 2010.05.17/outbox.cif.g08.bks.cpg/sg73_10_cif.got.tgz:18121.got - 2010.06.03 17:35:07.
