data_PCOD9531275
_publ_section_title
;
Structure prediction by ZEFSAII (Michael W. Deem and Ramdas Pophale) SiO2 
 PCOD9531275
Probable space group: I B C A 
;
_chemical_formula_sum "Si O2"
_cell_formula_units_Z 64
_cell_length_a 5.090752
_cell_length_b 20.962217
_cell_length_c 24.216979
_cell_angle_alpha 90.000000
_cell_angle_beta 90.000000
_cell_angle_gamma 90.000000
_cell_volume 2584.277332
_symmetry_space_group_name_H-M "I B C A "
_symmetry_group_IT_number 73
_symmetry_cell_setting 'orthorhombic'
loop_
_space_group_symop_operation_xyz
x,y,z
-x,1/2-y,z
x,-y,1/2-z
1/2-x,y,-z
-x,-y,-z
x,1/2+y,-z
-x,y,1/2+z
1/2+x,-y,z
1/2+x,1/2+y,1/2+z
1/2-x,-y,1/2+z
1/2+x,1/2-y,-z
-x,1/2+y,1/2-z
1/2-x,1/2-y,1/2-z
1/2+x,y,1/2-z
1/2-x,1/2+y,z
x,1/2-y,1/2+z
loop_
_atom_site_type_symbol
_atom_site_label
_atom_site_fract_x
_atom_site_fract_y
_atom_site_fract_z
Si Si1 0.378624 0.821502 0.058597
Si Si2 0.463958 0.042693 0.905895
Si Si3 0.635739 0.074553 0.782299
Si Si4 0.257454 0.291914 0.173948
O O1 0.500000 0.750000 0.054206
O O2 0.551039 0.884863 0.071186
O O3 0.184711 0.818401 0.111910
O O4 0.250000 0.833680 0.000000
O O5 0.509724 0.052062 0.839780
O O6 0.718297 0.000961 0.921791
O O7 0.436793 0.058480 0.732738
O O8 0.669377 0.150222 0.788620
O O9 0.500000 0.250000 0.193332
O O10 0.000000 0.250000 0.167535
#
# Coordination Sequence:
#
# PCOD9531275 Si02
#       4
#    16  16  16  16
#     4  10  23  43  72 102 134 176 224 275 334 400
#     4  11  26  46  68  99 138 177 222 277 335 397
#     4  11  23  38  61  92 126 171 223 271 323 387
#     4  10  21  37  58  90 131 170 213 268 329 392
#
# _framework density 24.765141
#
# number of rings (size 3 to 8) (size 9 to 14) (size 15 to 20)
#    0.000    1.500    0.000    3.750    0.000   19.000 
#    0.000    0.000    0.000    0.000    0.000    0.000 
#    0.000    0.000    0.000    0.000    0.000    0.000 
#
# Total GULP energy -178876.866102 kJ/mol
# GULP energy per Si atom -5589.902066 kJ/mol
# Density = 2.470877 g / cm^3
# Si number density = 24.765141 Si / 1000 Ang^3
#
#
#
# Elastic Constant Matrix: (Units=GPa)
#
#
# Indices 1 2 3 4 5 6 
#
# 1 123.1630 26.6422 -1.3364 0.0000 0.0000 0.0000
# 2 26.6422 154.6687 18.2993 0.0000 0.0000 0.0000
# 3 -1.3364 18.2993 79.8921 0.0000 0.0000 0.0000
# 4 0.0000 0.0000 0.0000 26.6240 0.0000 0.0000
# 5 0.0000 0.0000 0.0000 0.0000 15.0060 0.0000
# 6 0.0000 0.0000 0.0000 0.0000 0.0000 101.4023
#
#
#
# Elastic Compliance Matrix: (Units=1/GPa)
#
#
# Indices 1 2 3 4 5 6 
#
# 1 0.008452 -0.001514 0.000488 0.000000 0.000000 0.000000
# 2 -0.001514 0.006917 -0.001610 0.000000 0.000000 0.000000
# 3 0.000488 -0.001610 0.012894 0.000000 0.000000 0.000000
# 4 0.000000 0.000000 0.000000 0.037560 0.000000 0.000000
# 5 0.000000 0.000000 0.000000 0.000000 0.066640 0.000000
# 6 0.000000 0.000000 0.000000 0.000000 0.000000 0.009862
#
#
# Mechanical properties :
#
#
# Convention : Reuss Voigt Hill
#
# Bulk Modulus (GPa) = 43.49320 49.43712 46.46516
# Shear Modulus (GPa) = 32.20438 49.54771 40.87604
#
# Velocity S-wave (km/s) = 3.61001 4.47777 4.06710
# Velocity P-wave (km/s) = 5.91410 6.83664 6.39204
#
# Compressibility (1/GPa) = 0.02299210
#
# Stress axis : x y z
#
# Youngs Moduli (GPa) = 118.31461 144.57977 77.55718
#
# Poissons Ratio (x) = 0.21884 -0.03785
# Poissons Ratio (y) = 0.17909 0.12483
# Poissons Ratio (z) = -0.05775 0.23271
#
# Static dielectric constant tensor:
#      x y z
#    x 1.902680 0.000000 0.000000 
#    y 0.000000 1.952830 0.000000 
#    z 0.000000 0.000000 2.002880 
# 
# From -- ./inp_files/1543.got.cif
#   From: 2010.05.17/outbox.cif.g08.bks.cpg/sg73_1_cif.got.tgz:1543.got - 2010.06.03 17:35:07.
