data_PCOD9531731
_publ_section_title
;
Structure prediction by ZEFSAII (Michael W. Deem and Ramdas Pophale) SiO2 
 PCOD9531731
Probable space group: I B C A 
;
_chemical_formula_sum "Si O2"
_cell_formula_units_Z 96
_cell_length_a 19.181170
_cell_length_b 12.908812
_cell_length_c 16.655198
_cell_angle_alpha 90.000000
_cell_angle_beta 90.000000
_cell_angle_gamma 90.000000
_cell_volume 4123.928912
_symmetry_space_group_name_H-M "I B C A "
_symmetry_group_IT_number 73
_symmetry_cell_setting 'orthorhombic'
loop_
_space_group_symop_operation_xyz
x,y,z
-x,1/2-y,z
x,-y,1/2-z
1/2-x,y,-z
-x,-y,-z
x,1/2+y,-z
-x,y,1/2+z
1/2+x,-y,z
1/2+x,1/2+y,1/2+z
1/2-x,-y,1/2+z
1/2+x,1/2-y,-z
-x,1/2+y,1/2-z
1/2-x,1/2-y,1/2-z
1/2+x,y,1/2-z
1/2-x,1/2+y,z
x,1/2-y,1/2+z
loop_
_atom_site_type_symbol
_atom_site_label
_atom_site_fract_x
_atom_site_fract_y
_atom_site_fract_z
Si Si1 0.890817 0.169423 0.312845
Si Si2 0.000000 0.250000 0.187541
Si Si3 0.891773 0.396584 0.108201
Si Si4 0.250000 0.438413 0.000000
Si Si5 0.754401 0.562644 0.329688
Si Si6 0.029841 0.606106 0.037676
Si Si7 0.116769 0.362866 0.922489
O O1 0.818283 0.112010 0.303121
O O2 0.941562 0.105567 0.372535
O O3 0.871446 0.278066 0.355182
O O4 0.939075 0.195913 0.238226
O O5 0.040340 0.159988 0.140974
O O6 0.819302 0.362658 0.147682
O O7 0.892198 0.521951 0.115796
O O8 0.900432 0.373122 0.013969
O O9 0.257286 0.502239 0.915578
O O10 0.180028 0.373087 0.984443
O O11 0.777177 0.500000 0.250000
O O12 0.956902 0.668040 0.038045
O O13 0.000000 0.500000 0.000000
#
# Coordination Sequence:
#
# PCOD9531731 Si02
#       7
#    16   8  16   8  16  16  16
#     4  12  25  45  69 108 142 187 248 303 372 446
#     4  12  28  42  70 102 144 188 244 306 366 446
#     4  10  26  46  68 100 141 193 239 300 377 429
#     4  10  24  48  72 104 140 206 238 300 386 436
#     4  11  26  48  75 105 152 198 247 304 374 453
#     4  10  21  43  72  97 135 188 242 302 364 437
#     4  10  22  44  74 100 147 187 246 311 368 440
#
# _framework density 23.278770999999999
#
# number of rings (size 3 to 8) (size 9 to 14) (size 15 to 20)
#    0.000    1.333    1.667    3.000    7.000    6.667 
#    0.000    0.000    0.000    0.000    0.000    0.000 
#    0.000    0.000    0.000    0.000    0.000    0.000 
#
# Total GULP energy -267850.905564 kJ/mol
# GULP energy per Si atom -5580.227199 kJ/mol
# Density = 2.322579 g / cm^3
# Si number density = 23.278771 Si / 1000 Ang^3
#
#
#
# Elastic Constant Matrix: (Units=GPa)
#
#
# Indices 1 2 3 4 5 6 
#
# 1 168.8213 17.4098 10.1729 0.0000 0.0000 0.0000
# 2 17.4098 48.2266 0.7266 0.0000 0.0000 0.0000
# 3 10.1729 0.7266 54.5317 0.0000 0.0000 0.0000
# 4 0.0000 0.0000 0.0000 26.1401 0.0000 0.0000
# 5 0.0000 0.0000 0.0000 0.0000 44.8318 0.0000
# 6 0.0000 0.0000 0.0000 0.0000 0.0000 35.9870
#
#
#
# Elastic Compliance Matrix: (Units=1/GPa)
#
#
# Indices 1 2 3 4 5 6 
#
# 1 0.006221 -0.002229 -0.001131 0.000000 0.000000 0.000000
# 2 -0.002229 0.021538 0.000129 0.000000 0.000000 0.000000
# 3 -0.001131 0.000129 0.018547 0.000000 0.000000 0.000000
# 4 0.000000 0.000000 0.000000 0.038255 0.000000 0.000000
# 5 0.000000 0.000000 0.000000 0.000000 0.022306 0.000000
# 6 0.000000 0.000000 0.000000 0.000000 0.000000 0.027788
#
#
# Mechanical properties :
#
#
# Convention : Reuss Voigt Hill
#
# Bulk Modulus (GPa) = 25.09739 36.46646 30.78192
# Shear Modulus (GPa) = 32.38361 37.60980 34.99671
#
# Velocity S-wave (km/s) = 3.73382 4.02385 3.88154
# Velocity P-wave (km/s) = 5.42155 6.10636 5.77411
#
# Compressibility (1/GPa) = 0.03984479
#
# Stress axis : x y z
#
# Youngs Moduli (GPa) = 160.73484 46.42930 53.91649
#
# Poissons Ratio (x) = 0.10349 0.06097
# Poissons Ratio (y) = 0.35826 -0.00695
# Poissons Ratio (z) = 0.18178 -0.00598
#
# Static dielectric constant tensor:
#      x y z
#    x 1.930280 0.000000 0.000000 
#    y 0.000000 2.040740 0.000000 
#    z 0.000000 0.000000 1.960160 
# 
# From -- ./inp_files/18678.got.cif
#   From: 2010.05.17/outbox.cif.g08.bks.cpg/sg73_10_cif.got.tgz:18678.got - 2010.06.03 17:35:07.
