data_PCOD9531939
_publ_section_title
;
Structure prediction by ZEFSAII (Michael W. Deem and Ramdas Pophale) SiO2 
 PCOD9531939
Probable space group: I B C A 
;
_chemical_formula_sum "Si O2"
_cell_formula_units_Z 96
_cell_length_a 22.030920
_cell_length_b 24.463587
_cell_length_c 8.173350
_cell_angle_alpha 90.000000
_cell_angle_beta 90.000000
_cell_angle_gamma 90.000000
_cell_volume 4405.070531
_symmetry_space_group_name_H-M "I B C A "
_symmetry_group_IT_number 73
_symmetry_cell_setting 'orthorhombic'
loop_
_space_group_symop_operation_xyz
x,y,z
-x,1/2-y,z
x,-y,1/2-z
1/2-x,y,-z
-x,-y,-z
x,1/2+y,-z
-x,y,1/2+z
1/2+x,-y,z
1/2+x,1/2+y,1/2+z
1/2-x,-y,1/2+z
1/2+x,1/2-y,-z
-x,1/2+y,1/2-z
1/2-x,1/2-y,1/2-z
1/2+x,y,1/2-z
1/2-x,1/2+y,z
x,1/2-y,1/2+z
loop_
_atom_site_type_symbol
_atom_site_label
_atom_site_fract_x
_atom_site_fract_y
_atom_site_fract_z
Si Si1 0.282317 0.324091 0.750504
Si Si2 0.966217 0.126456 0.017015
Si Si3 0.433990 0.059858 0.183080
Si Si4 0.797813 0.444264 0.852257
Si Si5 0.829969 0.270851 0.075943
Si Si6 0.046694 0.204097 0.241262
O O1 0.286352 0.388988 0.750856
O O2 0.215401 0.305133 0.693600
O O3 0.305452 0.290847 0.906889
O O4 0.323311 0.299405 0.599967
O O5 0.932399 0.163620 0.884989
O O6 0.011388 0.084583 0.923499
O O7 0.926789 0.096518 0.153524
O O8 0.009241 0.167097 0.116519
O O9 0.368827 0.058403 0.093774
O O10 0.449370 0.000000 0.250000
O O11 0.791043 0.500000 0.750000
O O12 0.750000 0.443559 0.000000
O O13 0.897158 0.271818 0.144302
O O14 0.000000 0.250000 0.304024
#
# Coordination Sequence:
#
# PCOD9531939 Si02
#       6
#    16  16  16  16  16  16
#     4  10  22  43  65  93 125 171 218 274 319 395
#     4  10  23  40  63  98 129 175 215 266 334 388
#     4  10  22  43  68  94 127 171 222 281 323 393
#     4  11  24  47  68  96 134 177 225 281 333 392
#     4  10  22  39  66  92 129 168 214 262 335 385
#     4  11  24  37  60  98 137 173 208 264 325 401
#
# _framework density 21.793067000000001
#
# number of rings (size 3 to 8) (size 9 to 14) (size 15 to 20)
#    0.000    1.667    1.667    2.000    9.333    0.000 
#   12.000    0.833    0.000    0.000    0.000    0.000 
#    0.000    0.000    0.000    0.000    0.000    0.000 
#
# Total GULP energy -268374.490382 kJ/mol
# GULP energy per Si atom -5591.135216 kJ/mol
# Density = 2.174347 g / cm^3
# Si number density = 21.793067 Si / 1000 Ang^3
#
#
#
# Elastic Constant Matrix: (Units=GPa)
#
#
# Indices 1 2 3 4 5 6 
#
# 1 98.2007 30.3630 28.2645 0.0000 0.0000 0.0000
# 2 30.3630 148.5967 25.5049 0.0000 0.0000 0.0000
# 3 28.2645 25.5049 75.4109 0.0000 0.0000 0.0000
# 4 0.0000 0.0000 0.0000 26.2186 0.0000 0.0000
# 5 0.0000 0.0000 0.0000 0.0000 1.5685 0.0000
# 6 0.0000 0.0000 0.0000 0.0000 0.0000 -4.6304
#
#
#
# Elastic Compliance Matrix: (Units=1/GPa)
#
#
# Indices 1 2 3 4 5 6 
#
# 1 0.011832 -0.001759 -0.003840 0.000000 0.000000 0.000000
# 2 -0.001759 0.007406 -0.001846 0.000000 0.000000 0.000000
# 3 -0.003840 -0.001846 0.015324 0.000000 0.000000 0.000000
# 4 0.000000 0.000000 0.000000 0.038141 0.000000 0.000000
# 5 0.000000 0.000000 0.000000 0.000000 0.637559 0.000000
# 6 0.000000 0.000000 0.000000 0.000000 0.000000 -0.215963
#
#
# Mechanical properties :
#
#
# Convention : Reuss Voigt Hill
#
# Bulk Modulus (GPa) = 50.82923 54.49700 52.66312
# Shear Modulus (GPa) = 9.69470 20.50305 15.09887
#
# Velocity S-wave (km/s) = 2.11144 3.07058 2.63502
# Velocity P-wave (km/s) = 5.41465 6.13451 5.78579
#
# Compressibility (1/GPa) = 0.01967372
#
# Stress axis : x y z
#
# Youngs Moduli (GPa) = 84.51499 135.03042 65.25649
#
# Poissons Ratio (x) = 0.23746 0.25059
# Poissons Ratio (y) = 0.14863 0.12044
# Poissons Ratio (z) = 0.32454 0.24921
#
# Static dielectric constant tensor:
#      x y z
#    x 1.803580 0.000000 0.000000 
#    y 0.000000 1.798330 0.000000 
#    z 0.000000 0.000000 1.862950 
# 
# From -- ./inp_files/7179.got.cif
#   From: 2010.05.17/outbox.cif.g08.bks.cpg/sg73_4_cif.got.tgz:7179.got - 2010.06.03 17:35:07.
