data_PCOD9531986
_publ_section_title
;
Structure prediction by ZEFSAII (Michael W. Deem and Ramdas Pophale) SiO2 
 PCOD9531986
Probable space group: I B C A 
;
_chemical_formula_sum "Si O2"
_cell_formula_units_Z 64
_cell_length_a 25.992789
_cell_length_b 9.596490
_cell_length_c 9.567227
_cell_angle_alpha 90.000000
_cell_angle_beta 90.000000
_cell_angle_gamma 90.000000
_cell_volume 2386.444699
_symmetry_space_group_name_H-M "I B C A "
_symmetry_group_IT_number 73
_symmetry_cell_setting 'orthorhombic'
loop_
_space_group_symop_operation_xyz
x,y,z
-x,1/2-y,z
x,-y,1/2-z
1/2-x,y,-z
-x,-y,-z
x,1/2+y,-z
-x,y,1/2+z
1/2+x,-y,z
1/2+x,1/2+y,1/2+z
1/2-x,-y,1/2+z
1/2+x,1/2-y,-z
-x,1/2+y,1/2-z
1/2-x,1/2-y,1/2-z
1/2+x,y,1/2-z
1/2-x,1/2+y,z
x,1/2-y,1/2+z
loop_
_atom_site_type_symbol
_atom_site_label
_atom_site_fract_x
_atom_site_fract_y
_atom_site_fract_z
Si Si1 0.730939 0.855343 0.133527
Si Si2 0.128615 0.646516 0.010895
Si Si3 0.185151 0.000000 0.750000
Si Si4 0.500000 0.250000 0.766566
Si Si5 0.061642 0.105857 0.484729
O O1 0.750000 0.750000 0.250000
O O2 0.671223 0.883101 0.108455
O O3 0.769097 0.012099 0.365594
O O4 0.750000 0.773636 0.000000
O O5 0.077506 0.555391 0.983423
O O6 0.147319 0.604075 0.166941
O O7 0.114998 0.808302 0.006100
O O8 0.465738 0.159776 0.656676
O O9 0.468678 0.349700 0.874343
#
# Coordination Sequence:
#
# PCOD9531986 Si02
#       5
#    16  16   8   8  16
#     4  10  23  41  65  98 142 186 229 286 349 419
#     4  11  24  43  72 102 140 188 242 293 357 445
#     4  10  22  40  62  98 138 180 226 284 344 414
#     4  10  26  46  70 100 142 182 238 316 382 438
#     4  11  25  45  70 101 136 184 239 300 371 439
#
# _framework density 26.818135999999999
#
# number of rings (size 3 to 8) (size 9 to 14) (size 15 to 20)
#    0.000    1.500    0.000    3.000    0.000   18.000 
#    0.000    0.000    0.000    0.000    0.000    0.000 
#    0.000    0.000    0.000    0.000    0.000    0.000 
#
# Total GULP energy -178240.423224 kJ/mol
# GULP energy per Si atom -5570.013226 kJ/mol
# Density = 2.675710 g / cm^3
# Si number density = 26.818136 Si / 1000 Ang^3
#
#
#
# Elastic Constant Matrix: (Units=GPa)
#
#
# Indices 1 2 3 4 5 6 
#
# 1 112.9742 12.0294 43.3318 0.0000 0.0000 0.0000
# 2 12.0294 94.0631 21.6878 0.0000 0.0000 0.0000
# 3 43.3318 21.6878 193.9979 0.0000 0.0000 0.0000
# 4 0.0000 0.0000 0.0000 42.9968 0.0000 0.0000
# 5 0.0000 0.0000 0.0000 0.0000 60.4874 0.0000
# 6 0.0000 0.0000 0.0000 0.0000 0.0000 180.9753
#
#
#
# Elastic Compliance Matrix: (Units=1/GPa)
#
#
# Indices 1 2 3 4 5 6 
#
# 1 0.009734 -0.000763 -0.002089 0.000000 0.000000 0.000000
# 2 -0.000763 0.010972 -0.001056 0.000000 0.000000 0.000000
# 3 -0.002089 -0.001056 0.005739 0.000000 0.000000 0.000000
# 4 0.000000 0.000000 0.000000 0.023258 0.000000 0.000000
# 5 0.000000 0.000000 0.000000 0.000000 0.016532 0.000000
# 6 0.000000 0.000000 0.000000 0.000000 0.000000 0.005526
#
#
# Mechanical properties :
#
#
# Convention : Reuss Voigt Hill
#
# Bulk Modulus (GPa) = 53.67939 61.68147 57.68043
# Shear Modulus (GPa) = 58.28357 78.49098 68.38728
#
# Velocity S-wave (km/s) = 4.66691 5.41585 5.05527
# Velocity P-wave (km/s) = 7.00711 7.88406 7.45849
#
# Compressibility (1/GPa) = 0.01862912
#
# Stress axis : x y z
#
# Youngs Moduli (GPa) = 102.73211 91.13872 174.23583
#
# Poissons Ratio (x) = 0.06956 0.36396
# Poissons Ratio (y) = 0.07841 0.18402
# Poissons Ratio (z) = 0.21460 0.09626
#
# Static dielectric constant tensor:
#      x y z
#    x 2.285130 0.000000 0.000000 
#    y 0.000000 2.346470 0.000000 
#    z 0.000000 0.000000 1.949690 
# 
# From -- ./inp_files/8260.got.cif
#   From: 2010.05.17/outbox.cif.g08.bks.cpg/sg73_5_cif.got.tgz:8260.got - 2010.06.03 17:35:07.
