data_PCOD9531295
_publ_section_title
;
Structure prediction by ZEFSAII (Michael W. Deem and Ramdas Pophale) SiO2 
 PCOD9531295
Probable space group: I B C A 
;
_chemical_formula_sum "Si O2"
_cell_formula_units_Z 96
_cell_length_a 8.237244
_cell_length_b 18.660055
_cell_length_c 28.922069
_cell_angle_alpha 90.000000
_cell_angle_beta 90.000000
_cell_angle_gamma 90.000000
_cell_volume 4445.536783
_symmetry_space_group_name_H-M "I B C A "
_symmetry_group_IT_number 73
_symmetry_cell_setting 'orthorhombic'
loop_
_space_group_symop_operation_xyz
x,y,z
-x,1/2-y,z
x,-y,1/2-z
1/2-x,y,-z
-x,-y,-z
x,1/2+y,-z
-x,y,1/2+z
1/2+x,-y,z
1/2+x,1/2+y,1/2+z
1/2-x,-y,1/2+z
1/2+x,1/2-y,-z
-x,1/2+y,1/2-z
1/2-x,1/2-y,1/2-z
1/2+x,y,1/2-z
1/2-x,1/2+y,z
x,1/2-y,1/2+z
loop_
_atom_site_type_symbol
_atom_site_label
_atom_site_fract_x
_atom_site_fract_y
_atom_site_fract_z
Si Si1 0.390560 0.678554 0.723126
Si Si2 0.750000 0.779473 0.500000
Si Si3 0.844295 0.718568 0.677523
Si Si4 0.500000 0.250000 0.427489
Si Si5 0.556082 0.629155 0.639146
Si Si6 0.018959 0.095399 0.472149
Si Si7 0.670901 0.543221 0.560812
O O1 0.500000 0.750000 0.717853
O O2 0.226004 0.709130 0.701555
O O3 0.376741 0.667468 0.777637
O O4 0.468077 0.621655 0.688394
O O5 0.654122 0.736138 0.539279
O O6 0.612347 0.829507 0.475944
O O7 0.717982 0.676212 0.647169
O O8 0.000000 0.750000 0.652177
O O9 0.541823 0.317461 0.394871
O O10 0.602592 0.558893 0.611486
O O11 0.850411 0.077719 0.444705
O O12 0.954281 0.077774 0.523796
O O13 0.153700 0.039709 0.452976
#
# Coordination Sequence:
#
# PCOD9531295 Si02
#       7
#    16   8  16   8  16  16  16
#     4   8  15  30  49  74 116 155 182 227 294 346
#     4  12  26  40  58  80 130 166 188 242 308 352
#     4   9  16  28  50  80 114 155 186 227 292 359
#     4  12  26  38  54  86 122 168 188 240 314 358
#     4  11  20  36  54  84 121 149 199 245 284 360
#     4  10  21  40  60  81 112 155 202 251 292 335
#     4  10  21  37  62  85 108 152 209 252 286 336
#
# _framework density 21.594694
#
# number of rings (size 3 to 8) (size 9 to 14) (size 15 to 20)
#    0.000    2.000    4.167    3.000    2.333    1.333 
#    0.000    0.000    0.000    0.000    0.000    3.500 
#    0.000    0.000    0.000    0.000    0.000    0.000 
#
# Total GULP energy -267457.245771 kJ/mol
# GULP energy per Si atom -5572.025954 kJ/mol
# Density = 2.154554 g / cm^3
# Si number density = 21.594694 Si / 1000 Ang^3
#
#
#
# Elastic Constant Matrix: (Units=GPa)
#
#
# Indices 1 2 3 4 5 6 
#
# 1 80.7529 3.6124 12.3957 0.0000 0.0000 0.0000
# 2 3.6124 47.5568 13.5294 0.0000 0.0000 0.0000
# 3 12.3957 13.5294 84.6487 0.0000 0.0000 0.0000
# 4 0.0000 0.0000 0.0000 26.7766 0.0000 0.0000
# 5 0.0000 0.0000 0.0000 0.0000 29.1382 0.0000
# 6 0.0000 0.0000 0.0000 0.0000 0.0000 22.3700
#
#
#
# Elastic Compliance Matrix: (Units=1/GPa)
#
#
# Indices 1 2 3 4 5 6 
#
# 1 0.012678 -0.000456 -0.001784 0.000000 0.000000 0.000000
# 2 -0.000456 0.022046 -0.003457 0.000000 0.000000 0.000000
# 3 -0.001784 -0.003457 0.012627 0.000000 0.000000 0.000000
# 4 0.000000 0.000000 0.000000 0.037346 0.000000 0.000000
# 5 0.000000 0.000000 0.000000 0.000000 0.034319 0.000000
# 6 0.000000 0.000000 0.000000 0.000000 0.000000 0.044703
#
#
# Mechanical properties :
#
#
# Convention : Reuss Voigt Hill
#
# Bulk Modulus (GPa) = 27.81003 30.22596 29.01800
# Shear Modulus (GPa) = 26.72418 27.88503 27.30461
#
# Velocity S-wave (km/s) = 3.52168 3.59735 3.55972
# Velocity P-wave (km/s) = 5.42609 5.59302 5.51019
#
# Compressibility (1/GPa) = 0.03595825
#
# Stress axis : x y z
#
# Youngs Moduli (GPa) = 78.87913 45.36070 79.19396
#
# Poissons Ratio (x) = 0.02066 0.14126
# Poissons Ratio (y) = 0.03593 0.27376
# Poissons Ratio (z) = 0.14069 0.15680
#
# Static dielectric constant tensor:
#      x y z
#    x 1.928780 0.000000 0.000000 
#    y 0.000000 1.819380 0.000000 
#    z 0.000000 0.000000 1.822620 
# 
# From -- ./inp_files/31340.got.cif
#   From: 2010.05.17/outbox.cif.g08.bks.cpg/sg73_16_cif.got.tgz:31340.got - 2010.06.03 17:35:07.
