data_PCOD9531926
_publ_section_title
;
Structure prediction by ZEFSAII (Michael W. Deem and Ramdas Pophale) SiO2 
 PCOD9531926
Probable space group: I B C A 
;
_chemical_formula_sum "Si O2"
_cell_formula_units_Z 88
_cell_length_a 14.022007
_cell_length_b 15.709433
_cell_length_c 19.940629
_cell_angle_alpha 90.000000
_cell_angle_beta 90.000000
_cell_angle_gamma 90.000000
_cell_volume 4392.477478
_symmetry_space_group_name_H-M "I B C A "
_symmetry_group_IT_number 73
_symmetry_cell_setting 'orthorhombic'
loop_
_space_group_symop_operation_xyz
x,y,z
-x,1/2-y,z
x,-y,1/2-z
1/2-x,y,-z
-x,-y,-z
x,1/2+y,-z
-x,y,1/2+z
1/2+x,-y,z
1/2+x,1/2+y,1/2+z
1/2-x,-y,1/2+z
1/2+x,1/2-y,-z
-x,1/2+y,1/2-z
1/2-x,1/2-y,1/2-z
1/2+x,y,1/2-z
1/2-x,1/2+y,z
x,1/2-y,1/2+z
loop_
_atom_site_type_symbol
_atom_site_label
_atom_site_fract_x
_atom_site_fract_y
_atom_site_fract_z
Si Si1 0.500000 0.250000 0.663023
Si Si2 0.649563 0.557481 0.033224
Si Si3 0.992283 0.920334 0.078742
Si Si4 0.010579 0.446758 0.692607
Si Si5 0.838189 0.669736 0.257382
Si Si6 0.660004 0.828576 0.663903
O O1 0.478113 0.332365 0.617616
O O2 0.408397 0.223400 0.707805
O O3 0.604899 0.467448 0.056973
O O4 0.672557 0.625819 0.092210
O O5 0.750000 0.541220 0.000000
O O6 0.567812 0.590799 0.981707
O O7 0.030169 0.992508 0.130206
O O8 0.957213 0.500000 0.750000
O O9 0.944730 0.364872 0.680360
O O10 0.107450 0.414215 0.723370
O O11 0.832150 0.727065 0.325006
O O12 0.741282 0.647590 0.218483
#
# Coordination Sequence:
#
# PCOD9531926 Si02
#       6
#     8  16  16  16  16  16
#     4  12  20  42  62  94 132 160 206 274 322 390
#     4  10  22  45  63  90 129 170 217 259 310 393
#     4  10  23  41  65  90 124 172 214 257 323 378
#     4  11  20  39  63  91 127 167 208 265 318 380
#     4  11  21  38  65  99 129 161 209 269 332 377
#     4  10  22  39  63  95 129 161 210 267 316 379
#
# _framework density 20.034253
#
# number of rings (size 3 to 8) (size 9 to 14) (size 15 to 20)
#    0.000    1.455    3.636    1.091    0.000    0.727 
#   19.636    0.909    0.000    0.000    0.000    0.000 
#    0.000    0.000    0.000    0.000    0.000    0.000 
#
# Total GULP energy -245117.150671 kJ/mol
# GULP energy per Si atom -5570.844333 kJ/mol
# Density = 1.998865 g / cm^3
# Si number density = 20.034253 Si / 1000 Ang^3
#
#
#
# Elastic Constant Matrix: (Units=GPa)
#
#
# Indices 1 2 3 4 5 6 
#
# 1 79.6790 46.1792 34.4036 0.0000 0.0000 0.0000
# 2 46.1792 117.2833 58.0550 0.0000 0.0000 0.0000
# 3 34.4036 58.0550 82.8252 0.0000 0.0000 0.0000
# 4 0.0000 0.0000 0.0000 30.5088 0.0000 0.0000
# 5 0.0000 0.0000 0.0000 0.0000 23.2822 0.0000
# 6 0.0000 0.0000 0.0000 0.0000 0.0000 47.9898
#
#
#
# Elastic Compliance Matrix: (Units=1/GPa)
#
#
# Indices 1 2 3 4 5 6 
#
# 1 0.016940 -0.004880 -0.003616 0.000000 0.000000 0.000000
# 2 -0.004880 0.014462 -0.008110 0.000000 0.000000 0.000000
# 3 -0.003616 -0.008110 0.019260 0.000000 0.000000 0.000000
# 4 0.000000 0.000000 0.000000 0.032777 0.000000 0.000000
# 5 0.000000 0.000000 0.000000 0.000000 0.042951 0.000000
# 6 0.000000 0.000000 0.000000 0.000000 0.000000 0.020838
#
#
# Mechanical properties :
#
#
# Convention : Reuss Voigt Hill
#
# Bulk Modulus (GPa) = 57.30508 61.89590 59.60049
# Shear Modulus (GPa) = 26.84453 29.76613 28.30533
#
# Velocity S-wave (km/s) = 3.66448 3.85874 3.76286
# Velocity P-wave (km/s) = 6.82424 7.12848 6.97802
#
# Compressibility (1/GPa) = 0.01745046
#
# Stress axis : x y z
#
# Youngs Moduli (GPa) = 59.03209 69.14521 51.92066
#
# Poissons Ratio (x) = 0.33744 0.18774
# Poissons Ratio (y) = 0.28808 0.42108
# Poissons Ratio (z) = 0.21345 0.56077
#
# Static dielectric constant tensor:
#      x y z
#    x 1.702410 0.000000 0.000000 
#    y 0.000000 1.772970 0.000000 
#    z 0.000000 0.000000 1.790880 
# 
# From -- ./inp_files/18064.got.cif
#   From: 2010.05.17/outbox.cif.g08.bks.cpg/sg73_10_cif.got.tgz:18064.got - 2010.06.03 17:35:07.
