data_PCOD9531678
_publ_section_title
;
Structure prediction by ZEFSAII (Michael W. Deem and Ramdas Pophale) SiO2 
 PCOD9531678
Probable space group: I B C A 
;
_chemical_formula_sum "Si O2"
_cell_formula_units_Z 112
_cell_length_a 13.972153
_cell_length_b 16.106752
_cell_length_c 21.974427
_cell_angle_alpha 90.000000
_cell_angle_beta 90.000000
_cell_angle_gamma 90.000000
_cell_volume 4945.256971
_symmetry_space_group_name_H-M "I B C A "
_symmetry_group_IT_number 73
_symmetry_cell_setting 'orthorhombic'
loop_
_space_group_symop_operation_xyz
x,y,z
-x,1/2-y,z
x,-y,1/2-z
1/2-x,y,-z
-x,-y,-z
x,1/2+y,-z
-x,y,1/2+z
1/2+x,-y,z
1/2+x,1/2+y,1/2+z
1/2-x,-y,1/2+z
1/2+x,1/2-y,-z
-x,1/2+y,1/2-z
1/2-x,1/2-y,1/2-z
1/2+x,y,1/2-z
1/2-x,1/2+y,z
x,1/2-y,1/2+z
loop_
_atom_site_type_symbol
_atom_site_label
_atom_site_fract_x
_atom_site_fract_y
_atom_site_fract_z
Si Si1 0.441052 0.584605 0.496154
Si Si2 0.699269 0.729616 0.154651
Si Si3 0.602609 0.480072 0.629656
Si Si4 0.939338 0.329226 0.092812
Si Si5 0.320596 0.950095 0.107974
Si Si6 0.386426 0.741219 0.784109
Si Si7 0.930203 0.441511 0.805399
O O1 0.500000 0.500000 0.500000
O O2 0.417920 0.585274 0.425426
O O3 0.508073 0.652999 0.528471
O O4 0.347474 0.570807 0.538327
O O5 0.666607 0.790510 0.100192
O O6 0.662538 0.637243 0.141540
O O7 0.651007 0.764307 0.216751
O O8 0.812087 0.721863 0.167582
O O9 0.567118 0.577059 0.621012
O O10 0.716840 0.482337 0.627110
O O11 0.545422 0.442037 0.686727
O O12 0.000000 0.250000 0.119828
O O13 0.393706 0.018676 0.132104
O O14 0.500000 0.750000 0.790846
O O15 0.376944 0.642948 0.792968
O O16 0.905159 0.500000 0.750000
#
# Coordination Sequence:
#
# PCOD9531678 Si02
#       7
#    16  16  16  16  16  16  16
#     4  10  21  42  71  96 127 180 218 287 337 407
#     4  11  23  41  67 100 129 188 231 273 350 410
#     4  11  25  42  72 101 135 177 226 290 351 406
#     4  11  20  41  73  99 126 174 235 277 338 421
#     4  12  22  44  70  97 138 175 236 277 341 429
#     4  11  25  41  63  94 146 179 225 292 338 400
#     4  12  24  42  65 103 134 183 224 278 341 410
#
# _framework density 22.647963000000001
#
# number of rings (size 3 to 8) (size 9 to 14) (size 15 to 20)
#    0.000    0.857    5.714    2.571    2.000    0.571 
#    0.000    2.143    9.429    0.000    0.000    0.000 
#    0.000    0.000    0.000    0.000    0.000    0.000 
#
# Total GULP energy -312063.810546 kJ/mol
# GULP energy per Si atom -5572.568045 kJ/mol
# Density = 2.259642 g / cm^3
# Si number density = 22.647963 Si / 1000 Ang^3
#
#
#
# Elastic Constant Matrix: (Units=GPa)
#
#
# Indices 1 2 3 4 5 6 
#
# 1 110.9937 11.4246 7.5826 0.0000 0.0000 0.0000
# 2 11.4246 77.7173 14.3410 0.0000 0.0000 0.0000
# 3 7.5826 14.3410 46.7385 0.0000 0.0000 0.0000
# 4 0.0000 0.0000 0.0000 22.9239 0.0000 0.0000
# 5 0.0000 0.0000 0.0000 0.0000 30.0535 0.0000
# 6 0.0000 0.0000 0.0000 0.0000 0.0000 32.2132
#
#
#
# Elastic Compliance Matrix: (Units=1/GPa)
#
#
# Indices 1 2 3 4 5 6 
#
# 1 0.009205 -0.001142 -0.001143 0.000000 0.000000 0.000000
# 2 -0.001142 0.013781 -0.004043 0.000000 0.000000 0.000000
# 3 -0.001143 -0.004043 0.022822 0.000000 0.000000 0.000000
# 4 0.000000 0.000000 0.000000 0.043623 0.000000 0.000000
# 5 0.000000 0.000000 0.000000 0.000000 0.033274 0.000000
# 6 0.000000 0.000000 0.000000 0.000000 0.000000 0.031043
#
#
# Mechanical properties :
#
#
# Convention : Reuss Voigt Hill
#
# Bulk Modulus (GPa) = 30.16487 33.57178 31.86833
# Shear Modulus (GPa) = 28.17618 30.51155 29.34386
#
# Velocity S-wave (km/s) = 3.53100 3.67442 3.60342
# Velocity P-wave (km/s) = 5.47466 5.73213 5.60487
#
# Compressibility (1/GPa) = 0.03315115
#
# Stress axis : x y z
#
# Youngs Moduli (GPa) = 108.63452 72.56283 43.81804
#
# Poissons Ratio (x) = 0.08289 0.05008
# Poissons Ratio (y) = 0.12409 0.17717
# Poissons Ratio (z) = 0.12416 0.29339
#
# Static dielectric constant tensor:
#      x y z
#    x 1.951820 0.000000 0.000000 
#    y 0.000000 1.838730 0.000000 
#    z 0.000000 0.000000 1.887210 
# 
# From -- ./inp_files/29525.got.cif
#   From: 2010.05.17/outbox.cif.g08.bks.cpg/sg73_15_cif.got.tgz:29525.got - 2010.06.03 17:35:07.
