data_PCOD9531235
_publ_section_title
;
Structure prediction by ZEFSAII (Michael W. Deem and Ramdas Pophale) SiO2 
 PCOD9531235
Probable space group: I B C A 
;
_chemical_formula_sum "Si O2"
_cell_formula_units_Z 96
_cell_length_a 18.541703
_cell_length_b 8.939630
_cell_length_c 24.293871
_cell_angle_alpha 90.000000
_cell_angle_beta 90.000000
_cell_angle_gamma 90.000000
_cell_volume 4026.854016
_symmetry_space_group_name_H-M "I B C A "
_symmetry_group_IT_number 73
_symmetry_cell_setting 'orthorhombic'
loop_
_space_group_symop_operation_xyz
x,y,z
-x,1/2-y,z
x,-y,1/2-z
1/2-x,y,-z
-x,-y,-z
x,1/2+y,-z
-x,y,1/2+z
1/2+x,-y,z
1/2+x,1/2+y,1/2+z
1/2-x,-y,1/2+z
1/2+x,1/2-y,-z
-x,1/2+y,1/2-z
1/2-x,1/2-y,1/2-z
1/2+x,y,1/2-z
1/2-x,1/2+y,z
x,1/2-y,1/2+z
loop_
_atom_site_type_symbol
_atom_site_label
_atom_site_fract_x
_atom_site_fract_y
_atom_site_fract_z
Si Si1 0.402985 0.974311 0.003833
Si Si2 0.245995 0.203136 0.842269
Si Si3 0.968296 0.508829 0.615842
Si Si4 0.148412 0.926267 0.805295
Si Si5 0.896280 0.163241 0.884682
Si Si6 0.685015 0.732661 0.541874
O O1 0.337346 0.906368 0.040848
O O2 0.465522 0.971207 0.050281
O O3 0.397967 0.872307 0.949597
O O4 0.381503 0.134497 0.979909
O O5 0.205212 0.053509 0.824825
O O6 0.303418 0.277367 0.800710
O O7 0.181877 0.320216 0.858290
O O8 0.289992 0.180864 0.898646
O O9 0.917150 0.404319 0.651970
O O10 0.931078 0.672164 0.620622
O O11 0.048964 0.536734 0.637414
O O12 0.117583 0.000000 0.750000
O O13 0.750000 0.711558 0.500000
#
# Coordination Sequence:
#
# PCOD9531235 Si02
#       6
#    16  16  16  16  16  16
#     4  12  20  36  56  88 123 161 196 232 287 367
#     4  11  22  39  61  90 121 156 200 255 302 362
#     4  10  21  39  57  86 120 161 199 242 293 364
#     4  11  23  41  65  87 114 154 206 260 307 348
#     4  10  21  36  59  85 121 161 194 232 301 365
#     4  12  22  32  58  89 126 157 193 237 297 358
#
# _framework density 23.839952
#
# number of rings (size 3 to 8) (size 9 to 14) (size 15 to 20)
#    0.000    1.000    5.000    3.500    0.000    0.000 
#    0.000    0.833    0.000    8.000    0.000    0.000 
#    0.000    0.000    0.000    0.000    0.000    0.000 
#
# Total GULP energy -268064.379067 kJ/mol
# GULP energy per Si atom -5584.674564 kJ/mol
# Density = 2.378569 g / cm^3
# Si number density = 23.839952 Si / 1000 Ang^3
#
#
#
# Elastic Constant Matrix: (Units=GPa)
#
#
# Indices 1 2 3 4 5 6 
#
# 1 69.6992 8.3119 -7.0809 0.0000 0.0000 0.0000
# 2 8.3119 32.9610 -22.3440 0.0000 0.0000 0.0000
# 3 -7.0809 -22.3440 44.8418 0.0000 0.0000 0.0000
# 4 0.0000 0.0000 0.0000 21.8882 0.0000 0.0000
# 5 0.0000 0.0000 0.0000 0.0000 22.1803 0.0000
# 6 0.0000 0.0000 0.0000 0.0000 0.0000 7.3078
#
#
#
# Elastic Compliance Matrix: (Units=1/GPa)
#
#
# Indices 1 2 3 4 5 6 
#
# 1 0.014808 -0.003245 0.000721 0.000000 0.000000 0.000000
# 2 -0.003245 0.046525 0.022670 0.000000 0.000000 0.000000
# 3 0.000721 0.022670 0.033711 0.000000 0.000000 0.000000
# 4 0.000000 0.000000 0.000000 0.045687 0.000000 0.000000
# 5 0.000000 0.000000 0.000000 0.000000 0.045085 0.000000
# 6 0.000000 0.000000 0.000000 0.000000 0.000000 0.136840
#
#
# Mechanical properties :
#
#
# Convention : Reuss Voigt Hill
#
# Bulk Modulus (GPa) = 7.38898 11.69733 9.54316
# Shear Modulus (GPa) = 15.26834 21.51626 18.39230
#
# Velocity S-wave (km/s) = 2.53346 3.00747 2.78059
# Velocity P-wave (km/s) = 3.41526 4.12033 3.78425
#
# Compressibility (1/GPa) = 0.13533664
#
# Stress axis : x y z
#
# Youngs Moduli (GPa) = 67.53274 21.49371 29.66406
#
# Poissons Ratio (x) = 0.06975 -0.02140
# Poissons Ratio (y) = 0.21915 -0.67250
# Poissons Ratio (z) = -0.04871 -0.48727
#
# Static dielectric constant tensor:
#      x y z
#    x 1.972850 0.000000 0.000000 
#    y 0.000000 1.942460 0.000000 
#    z 0.000000 0.000000 1.940920 
# 
# From -- ./inp_files/26898.got.cif
#   From: 2010.05.17/outbox.cif.g08.bks.cpg/sg73_14_cif.got.tgz:26898.got - 2010.06.03 17:35:07.
