data_PCOD9531715
_publ_section_title
;
Structure prediction by ZEFSAII (Michael W. Deem and Ramdas Pophale) SiO2 
 PCOD9531715
Probable space group: I B C A 
;
_chemical_formula_sum "Si O2"
_cell_formula_units_Z 120
_cell_length_a 8.911176
_cell_length_b 22.220039
_cell_length_c 28.982349
_cell_angle_alpha 90.000000
_cell_angle_beta 90.000000
_cell_angle_gamma 90.000000
_cell_volume 5738.698654
_symmetry_space_group_name_H-M "I B C A "
_symmetry_group_IT_number 73
_symmetry_cell_setting 'orthorhombic'
loop_
_space_group_symop_operation_xyz
x,y,z
-x,1/2-y,z
x,-y,1/2-z
1/2-x,y,-z
-x,-y,-z
x,1/2+y,-z
-x,y,1/2+z
1/2+x,-y,z
1/2+x,1/2+y,1/2+z
1/2-x,-y,1/2+z
1/2+x,1/2-y,-z
-x,1/2+y,1/2-z
1/2-x,1/2-y,1/2-z
1/2+x,y,1/2-z
1/2-x,1/2+y,z
x,1/2-y,1/2+z
loop_
_atom_site_type_symbol
_atom_site_label
_atom_site_fract_x
_atom_site_fract_y
_atom_site_fract_z
Si Si1 0.665380 0.776450 0.454077
Si Si2 0.252453 0.354954 0.445418
Si Si3 0.399909 0.126993 0.783045
Si Si4 0.589778 0.812355 0.793474
Si Si5 0.968894 0.129844 0.886024
Si Si6 0.746045 0.473178 0.352642
Si Si7 0.453476 0.581350 0.120576
Si Si8 0.740599 0.000000 0.250000
O O1 0.500000 0.750000 0.466690
O O2 0.750000 0.798206 0.500000
O O3 0.747790 0.716649 0.435937
O O4 0.640978 0.826321 0.414988
O O5 0.250000 0.363097 0.500000
O O6 0.400668 0.382331 0.423323
O O7 0.104046 0.383765 0.421750
O O8 0.518470 0.145483 0.745205
O O9 0.266780 0.176734 0.785956
O O10 0.468065 0.122516 0.834091
O O11 0.343855 0.060783 0.766528
O O12 0.500000 0.750000 0.788418
O O13 0.549480 0.835503 0.844352
O O14 0.875002 0.076444 0.862189
O O15 0.605625 0.455340 0.383636
O O16 0.819759 0.535593 0.366944
O O17 0.689315 0.479257 0.299279
#
# Coordination Sequence:
#
# PCOD9531715 Si02
#       8
#    16  16  16  16  16  16  16   8
#     4   9  20  38  67  96 128 173 222 270 331 392
#     4  10  21  43  68  94 131 174 221 271 334 395
#     4  11  24  39  67  91 133 171 223 273 333 394
#     4  12  24  42  62  93 137 179 218 266 337 412
#     4  11  22  41  66  97 129 177 218 273 332 396
#     4  11  24  40  66  92 133 163 224 267 335 393
#     4  11  24  42  63  97 125 169 215 277 328 400
#     4  10  22  42  62  96 122 172 222 274 318 388
#
# _framework density 20.910665000000002
#
# number of rings (size 3 to 8) (size 9 to 14) (size 15 to 20)
#    0.000    1.333    2.667    3.200    1.867    5.867 
#    0.000    3.333    0.000    0.000    0.000    0.000 
#    0.000    0.000    0.000    0.000    0.000    0.000 
#
# Total GULP energy -334941.649242 kJ/mol
# GULP energy per Si atom -5582.360821 kJ/mol
# Density = 2.086307 g / cm^3
# Si number density = 20.910665 Si / 1000 Ang^3
#
#
#
# Elastic Constant Matrix: (Units=GPa)
#
#
# Indices 1 2 3 4 5 6 
#
# 1 38.5776 5.6807 11.9440 0.0000 0.0000 0.0000
# 2 5.6807 38.0261 24.2679 0.0000 0.0000 0.0000
# 3 11.9440 24.2679 105.4623 0.0000 0.0000 0.0000
# 4 0.0000 0.0000 0.0000 18.3527 0.0000 0.0000
# 5 0.0000 0.0000 0.0000 0.0000 22.3050 0.0000
# 6 0.0000 0.0000 0.0000 0.0000 0.0000 22.1246
#
#
#
# Elastic Compliance Matrix: (Units=1/GPa)
#
#
# Indices 1 2 3 4 5 6 
#
# 1 0.027056 -0.002445 -0.002502 0.000000 0.000000 0.000000
# 2 -0.002445 0.031045 -0.006867 0.000000 0.000000 0.000000
# 3 -0.002502 -0.006867 0.011346 0.000000 0.000000 0.000000
# 4 0.000000 0.000000 0.000000 0.054488 0.000000 0.000000
# 5 0.000000 0.000000 0.000000 0.000000 0.044833 0.000000
# 6 0.000000 0.000000 0.000000 0.000000 0.000000 0.045199
#
#
# Mechanical properties :
#
#
# Convention : Reuss Voigt Hill
#
# Bulk Modulus (GPa) = 21.82474 29.53904 25.68189
# Shear Modulus (GPa) = 19.77317 21.90134 20.83725
#
# Velocity S-wave (km/s) = 3.07840 3.23983 3.16015
# Velocity P-wave (km/s) = 4.80575 5.30587 5.06199
#
# Compressibility (1/GPa) = 0.04581955
#
# Stress axis : x y z
#
# Youngs Moduli (GPa) = 36.95987 32.21084 88.14058
#
# Poissons Ratio (x) = 0.07877 0.22049
# Poissons Ratio (y) = 0.09038 0.60525
# Poissons Ratio (z) = 0.09246 0.22119
#
# Static dielectric constant tensor:
#      x y z
#    x 1.789130 0.000000 0.000000 
#    y 0.000000 1.776490 0.000000 
#    z 0.000000 0.000000 1.717990 
# 
# From -- ./inp_files/31424.got.cif
#   From: 2010.05.17/outbox.cif.g08.bks.cpg/sg73_16_cif.got.tgz:31424.got - 2010.06.03 17:35:07.
