data_PCOD9531023
_publ_section_title
;
Structure prediction by ZEFSAII (Michael W. Deem and Ramdas Pophale) SiO2 
 PCOD9531023
Probable space group: I B C A 
;
_chemical_formula_sum "Si O2"
_cell_formula_units_Z 120
_cell_length_a 18.141022
_cell_length_b 10.713635
_cell_length_c 26.562203
_cell_angle_alpha 90.000000
_cell_angle_beta 90.000000
_cell_angle_gamma 90.000000
_cell_volume 5162.531182
_symmetry_space_group_name_H-M "I B C A "
_symmetry_group_IT_number 73
_symmetry_cell_setting 'orthorhombic'
loop_
_space_group_symop_operation_xyz
x,y,z
-x,1/2-y,z
x,-y,1/2-z
1/2-x,y,-z
-x,-y,-z
x,1/2+y,-z
-x,y,1/2+z
1/2+x,-y,z
1/2+x,1/2+y,1/2+z
1/2-x,-y,1/2+z
1/2+x,1/2-y,-z
-x,1/2+y,1/2-z
1/2-x,1/2-y,1/2-z
1/2+x,y,1/2-z
1/2-x,1/2+y,z
x,1/2-y,1/2+z
loop_
_atom_site_type_symbol
_atom_site_label
_atom_site_fract_x
_atom_site_fract_y
_atom_site_fract_z
Si Si1 0.038394 0.384721 0.969419
Si Si2 0.814667 0.632357 0.366152
Si Si3 0.474919 0.008894 0.128435
Si Si4 0.596637 0.029765 0.193058
Si Si5 0.000000 0.750000 0.230268
Si Si6 0.913718 0.206215 0.064527
Si Si7 0.334309 0.599414 0.826579
Si Si8 0.353526 0.827568 0.220972
O O1 0.000000 0.250000 0.963873
O O2 0.031378 0.436619 0.913089
O O3 0.103592 0.345945 0.008420
O O4 0.000000 0.500000 0.000000
O O5 0.838351 0.495168 0.345959
O O6 0.859241 0.689036 0.413375
O O7 0.726638 0.629734 0.368178
O O8 0.836833 0.719818 0.318644
O O9 0.530250 0.948266 0.168740
O O10 0.416572 0.106111 0.151313
O O11 0.420792 0.908862 0.102608
O O12 0.552167 0.157305 0.198966
O O13 0.619349 0.000000 0.250000
O O14 0.060169 0.675665 0.263550
O O15 0.000000 0.250000 0.063387
O O16 0.331563 0.458708 0.804084
O O17 0.318456 0.682136 0.776801
#
# Coordination Sequence:
#
# PCOD9531023 Si02
#       8
#    16  16  16  16   8  16  16  16
#     4   9  21  40  69 103 128 161 222 302 367 419
#     4  12  25  40  66  91 139 192 240 274 354 454
#     4  11  21  39  65  99 135 172 229 305 358 413
#     4  12  25  37  60 101 135 183 241 290 350 433
#     4  12  24  38  60  92 134 180 246 312 338 408
#     4  10  20  40  70  99 122 169 240 293 355 425
#     4  11  25  40  59  96 140 191 227 293 363 433
#     4  11  24  39  62  86 142 191 244 281 351 427
#
# _framework density 23.244412000000001
#
# number of rings (size 3 to 8) (size 9 to 14) (size 15 to 20)
#    0.000    1.067    5.333    1.200    3.733    1.067 
#    0.000    0.000    0.000    3.200    3.467    0.000 
#    0.000    0.000    0.000    0.000    0.000    0.000 
#
# Total GULP energy -334150.721846 kJ/mol
# GULP energy per Si atom -5569.178697 kJ/mol
# Density = 2.319151 g / cm^3
# Si number density = 23.244412 Si / 1000 Ang^3
#
#
#
# Elastic Constant Matrix: (Units=GPa)
#
#
# Indices 1 2 3 4 5 6 
#
# 1 94.3892 3.0332 35.6567 0.0000 0.0000 0.0000
# 2 3.0332 65.7794 -3.8783 0.0000 0.0000 0.0000
# 3 35.6567 -3.8783 75.6011 0.0000 0.0000 0.0000
# 4 0.0000 0.0000 0.0000 28.9294 0.0000 0.0000
# 5 0.0000 0.0000 0.0000 0.0000 20.2985 0.0000
# 6 0.0000 0.0000 0.0000 0.0000 0.0000 13.9522
#
#
#
# Elastic Compliance Matrix: (Units=1/GPa)
#
#
# Indices 1 2 3 4 5 6 
#
# 1 0.012951 -0.000960 -0.006158 0.000000 0.000000 0.000000
# 2 -0.000960 0.015320 0.001239 0.000000 0.000000 0.000000
# 3 -0.006158 0.001239 0.016195 0.000000 0.000000 0.000000
# 4 0.000000 0.000000 0.000000 0.034567 0.000000 0.000000
# 5 0.000000 0.000000 0.000000 0.000000 0.049265 0.000000
# 6 0.000000 0.000000 0.000000 0.000000 0.000000 0.071673
#
#
# Mechanical properties :
#
#
# Convention : Reuss Voigt Hill
#
# Bulk Modulus (GPa) = 30.57373 33.93254 32.25314
# Shear Modulus (GPa) = 22.45856 26.03322 24.24589
#
# Velocity S-wave (km/s) = 3.11173 3.35024 3.23319
# Velocity P-wave (km/s) = 5.10806 5.44016 5.27672
#
# Compressibility (1/GPa) = 0.03270781
#
# Stress axis : x y z
#
# Youngs Moduli (GPa) = 77.21154 65.27569 61.74709
#
# Poissons Ratio (x) = 0.06268 0.38022
# Poissons Ratio (y) = 0.07414 -0.07649
# Poissons Ratio (z) = 0.47545 -0.08086
#
# Static dielectric constant tensor:
#      x y z
#    x 1.902870 0.000000 0.000000 
#    y 0.000000 2.027480 0.000000 
#    z 0.000000 0.000000 1.983450 
# 
# From -- ./inp_files/32473.got.cif
#   From: 2010.05.17/outbox.cif.g08.bks.cpg/sg73_17_cif.got.tgz:32473.got - 2010.06.03 17:35:07.
