data_PCOD9531265
_publ_section_title
;
Structure prediction by ZEFSAII (Michael W. Deem and Ramdas Pophale) SiO2 
 PCOD9531265
Probable space group: I B C A 
;
_chemical_formula_sum "Si O2"
_cell_formula_units_Z 112
_cell_length_a 13.318302
_cell_length_b 14.068051
_cell_length_c 29.466894
_cell_angle_alpha 90.000000
_cell_angle_beta 90.000000
_cell_angle_gamma 90.000000
_cell_volume 5520.992453
_symmetry_space_group_name_H-M "I B C A "
_symmetry_group_IT_number 73
_symmetry_cell_setting 'orthorhombic'
loop_
_space_group_symop_operation_xyz
x,y,z
-x,1/2-y,z
x,-y,1/2-z
1/2-x,y,-z
-x,-y,-z
x,1/2+y,-z
-x,y,1/2+z
1/2+x,-y,z
1/2+x,1/2+y,1/2+z
1/2-x,-y,1/2+z
1/2+x,1/2-y,-z
-x,1/2+y,1/2-z
1/2-x,1/2-y,1/2-z
1/2+x,y,1/2-z
1/2-x,1/2+y,z
x,1/2-y,1/2+z
loop_
_atom_site_type_symbol
_atom_site_label
_atom_site_fract_x
_atom_site_fract_y
_atom_site_fract_z
Si Si1 0.710713 0.601152 0.903798
Si Si2 0.932008 0.950907 0.434290
Si Si3 0.880461 0.530513 0.699973
Si Si4 0.557032 0.026380 0.350732
Si Si5 0.968831 0.640722 0.031012
Si Si6 0.238858 0.841249 0.813936
Si Si7 0.179550 0.144528 0.219866
O O1 0.815999 0.565020 0.922834
O O2 0.651193 0.521150 0.875334
O O3 0.638454 0.630325 0.944458
O O4 0.724456 0.680823 0.864588
O O5 0.960940 0.891590 0.478822
O O6 0.998076 0.920035 0.390876
O O7 0.959578 0.061461 0.445025
O O8 0.914919 0.500000 0.750000
O O9 0.828495 0.434766 0.681488
O O10 0.790936 0.606162 0.705473
O O11 0.975921 0.549405 0.668644
O O12 0.597686 0.087986 0.308858
O O13 0.000000 0.750000 0.035068
O O14 0.176606 0.754385 0.793507
O O15 0.320804 0.865023 0.774600
#
# Coordination Sequence:
#
# PCOD9531265 Si02
#       7
#    16  16  16  16  16  16  16
#     4  11  22  39  64  93 126 166 206 269 321 383
#     4  10  22  44  65  96 129 157 217 266 323 391
#     4  10  21  37  57  86 124 164 212 258 303 370
#     4  11  21  36  66  88 123 170 207 255 315 379
#     4  10  24  44  69  94 127 165 213 267 325 400
#     4  10  21  39  58  87 127 161 217 261 304 379
#     4  10  22  38  59  87 126 170 212 263 312 364
#
# _framework density 20.286207000000001
#
# number of rings (size 3 to 8) (size 9 to 14) (size 15 to 20)
#    0.000    1.714    2.857    0.429    2.000    5.143 
#    0.000    7.143    0.000    0.000    0.000    0.000 
#    0.000    0.000    0.000    0.000    0.000    0.000 
#
# Total GULP energy -312406.346082 kJ/mol
# GULP energy per Si atom -5578.684751 kJ/mol
# Density = 2.024003 g / cm^3
# Si number density = 20.286207 Si / 1000 Ang^3
#
#
#
# Elastic Constant Matrix: (Units=GPa)
#
#
# Indices 1 2 3 4 5 6 
#
# 1 119.8525 29.9728 50.3238 0.0000 0.0000 0.0000
# 2 29.9728 74.1041 3.4047 0.0000 0.0000 0.0000
# 3 50.3238 3.4047 110.8157 0.0000 0.0000 0.0000
# 4 0.0000 0.0000 0.0000 19.0873 0.0000 0.0000
# 5 0.0000 0.0000 0.0000 0.0000 38.7869 0.0000
# 6 0.0000 0.0000 0.0000 0.0000 0.0000 16.3794
#
#
#
# Elastic Compliance Matrix: (Units=1/GPa)
#
#
# Indices 1 2 3 4 5 6 
#
# 1 0.011617 -0.004463 -0.005138 0.000000 0.000000 0.000000
# 2 -0.004463 0.015228 0.001559 0.000000 0.000000 0.000000
# 3 -0.005138 0.001559 0.011310 0.000000 0.000000 0.000000
# 4 0.000000 0.000000 0.000000 0.052391 0.000000 0.000000
# 5 0.000000 0.000000 0.000000 0.000000 0.025782 0.000000
# 6 0.000000 0.000000 0.000000 0.000000 0.000000 0.061052
#
#
# Mechanical properties :
#
#
# Convention : Reuss Voigt Hill
#
# Bulk Modulus (GPa) = 45.31077 52.46389 48.88733
# Shear Modulus (GPa) = 24.89777 29.58879 27.24328
#
# Velocity S-wave (km/s) = 3.50712 3.82326 3.66860
# Velocity P-wave (km/s) = 6.22769 6.73853 6.48814
#
# Compressibility (1/GPa) = 0.02206981
#
# Stress axis : x y z
#
# Youngs Moduli (GPa) = 86.07942 65.66879 88.42043
#
# Poissons Ratio (x) = 0.29306 0.45435
# Poissons Ratio (y) = 0.38415 -0.13782
# Poissons Ratio (z) = 0.44232 -0.10236
#
# Static dielectric constant tensor:
#      x y z
#    x 1.751530 0.000000 0.000000 
#    y 0.000000 1.715900 0.000000 
#    z 0.000000 0.000000 1.790380 
# 
# From -- ./inp_files/17452.got.cif
#   From: 2010.05.17/outbox.cif.g08.bks.cpg/sg73_9_cif.got.tgz:17452.got - 2010.06.03 17:35:07.
