data_PCOD9531878
_publ_section_title
;
Structure prediction by ZEFSAII (Michael W. Deem and Ramdas Pophale) SiO2 
 PCOD9531878
Probable space group: I B C A 
;
_chemical_formula_sum "Si O2"
_cell_formula_units_Z 104
_cell_length_a 24.807333
_cell_length_b 9.370911
_cell_length_c 19.587384
_cell_angle_alpha 90.000000
_cell_angle_beta 90.000000
_cell_angle_gamma 90.000000
_cell_volume 4553.426462
_symmetry_space_group_name_H-M "I B C A "
_symmetry_group_IT_number 73
_symmetry_cell_setting 'orthorhombic'
loop_
_space_group_symop_operation_xyz
x,y,z
-x,1/2-y,z
x,-y,1/2-z
1/2-x,y,-z
-x,-y,-z
x,1/2+y,-z
-x,y,1/2+z
1/2+x,-y,z
1/2+x,1/2+y,1/2+z
1/2-x,-y,1/2+z
1/2+x,1/2-y,-z
-x,1/2+y,1/2-z
1/2-x,1/2-y,1/2-z
1/2+x,y,1/2-z
1/2-x,1/2+y,z
x,1/2-y,1/2+z
loop_
_atom_site_type_symbol
_atom_site_label
_atom_site_fract_x
_atom_site_fract_y
_atom_site_fract_z
Si Si1 0.349014 0.145133 0.182325
Si Si2 0.319990 0.799358 0.682220
Si Si3 0.500000 0.250000 0.181482
Si Si4 0.939993 0.500000 0.750000
Si Si5 0.250000 0.045004 0.000000
Si Si6 0.596105 0.832067 0.421916
Si Si7 0.751304 0.552261 0.150026
Si Si8 0.133830 0.150265 0.041617
O O1 0.348394 0.241031 0.250651
O O2 0.398091 0.031544 0.188097
O O3 0.356491 0.255213 0.121166
O O4 0.298199 0.044850 0.174682
O O5 0.264684 0.707642 0.675249
O O6 0.354840 0.774471 0.614110
O O7 0.302699 0.965121 0.677214
O O8 0.521832 0.368205 0.233780
O O9 0.545487 0.186838 0.129615
O O10 0.249731 0.952575 0.931483
O O11 0.306309 0.130358 0.992045
O O12 0.595637 0.739538 0.491421
O O13 0.609680 0.993819 0.442220
#
# Coordination Sequence:
#
# PCOD9531878 Si02
#       8
#    16  16   8   8   8  16  16  16
#     4  11  22  43  68  97 142 187 237 303 364 432
#     4  11  25  39  65 100 145 196 242 291 353 427
#     4  10  26  48  78 110 140 186 242 314 382 446
#     4  10  22  46  76 100 140 178 236 306 386 430
#     4  10  22  38  62  94 136 192 234 276 336 428
#     4  11  26  47  71 102 140 185 242 306 367 449
#     4  11  22  39  61  95 143 194 242 283 346 421
#     4  11  25  43  69 100 144 191 239 291 367 439
#
# _framework density 22.839943000000002
#
# number of rings (size 3 to 8) (size 9 to 14) (size 15 to 20)
#    0.000    1.231    3.077    1.385    4.308    6.769 
#    0.000    0.000    0.000    0.000    0.000    0.000 
#    0.000    0.000    0.000    0.000    0.000    0.000 
#
# Total GULP energy -290460.056666 kJ/mol
# GULP energy per Si atom -5585.770321 kJ/mol
# Density = 2.278796 g / cm^3
# Si number density = 22.839943 Si / 1000 Ang^3
#
#
#
# Elastic Constant Matrix: (Units=GPa)
#
#
# Indices 1 2 3 4 5 6 
#
# 1 66.5372 45.4883 16.2562 0.0000 0.0000 0.0000
# 2 45.4883 153.6690 63.2220 0.0000 0.0000 0.0000
# 3 16.2562 63.2220 164.5302 0.0000 0.0000 0.0000
# 4 0.0000 0.0000 0.0000 46.0521 0.0000 0.0000
# 5 0.0000 0.0000 0.0000 0.0000 0.8618 0.0000
# 6 0.0000 0.0000 0.0000 0.0000 0.0000 25.4111
#
#
#
# Elastic Compliance Matrix: (Units=1/GPa)
#
#
# Indices 1 2 3 4 5 6 
#
# 1 0.018858 -0.005720 0.000335 0.000000 0.000000 0.000000
# 2 -0.005720 0.009464 -0.003072 0.000000 0.000000 0.000000
# 3 0.000335 -0.003072 0.007225 0.000000 0.000000 0.000000
# 4 0.000000 0.000000 0.000000 0.021715 0.000000 0.000000
# 5 0.000000 0.000000 0.000000 0.000000 1.160329 0.000000
# 6 0.000000 0.000000 0.000000 0.000000 0.000000 0.039353
#
#
# Mechanical properties :
#
#
# Convention : Reuss Voigt Hill
#
# Bulk Modulus (GPa) = 53.66620 70.51883 62.09251
# Shear Modulus (GPa) = 3.90604 31.78300 17.84452
#
# Velocity S-wave (km/s) = 1.30916 3.73440 2.79818
# Velocity P-wave (km/s) = 5.08260 7.03822 6.13879
#
# Compressibility (1/GPa) = 0.01863370
#
# Stress axis : x y z
#
# Youngs Moduli (GPa) = 53.02841 105.65935 138.40578
#
# Poissons Ratio (x) = 0.60436 -0.04632
# Poissons Ratio (y) = 0.30332 0.42513
# Poissons Ratio (z) = -0.01775 0.32454
#
# Static dielectric constant tensor:
#      x y z
#    x 1.912680 0.000000 0.000000 
#    y 0.000000 1.867650 0.000000 
#    z 0.000000 0.000000 1.864000 
# 
# From -- ./inp_files/27630.got.cif
#   From: 2010.05.17/outbox.cif.g08.bks.cpg/sg73_14_cif.got.tgz:27630.got - 2010.06.03 17:35:07.
