data_PCOD9531810
_publ_section_title
;
Structure prediction by ZEFSAII (Michael W. Deem and Ramdas Pophale) SiO2 
 PCOD9531810
Probable space group: I B C A 
;
_chemical_formula_sum "Si O2"
_cell_formula_units_Z 96
_cell_length_a 17.114940
_cell_length_b 9.782796
_cell_length_c 30.998376
_cell_angle_alpha 90.000000
_cell_angle_beta 90.000000
_cell_angle_gamma 90.000000
_cell_volume 5190.119054
_symmetry_space_group_name_H-M "I B C A "
_symmetry_group_IT_number 73
_symmetry_cell_setting 'orthorhombic'
loop_
_space_group_symop_operation_xyz
x,y,z
-x,1/2-y,z
x,-y,1/2-z
1/2-x,y,-z
-x,-y,-z
x,1/2+y,-z
-x,y,1/2+z
1/2+x,-y,z
1/2+x,1/2+y,1/2+z
1/2-x,-y,1/2+z
1/2+x,1/2-y,-z
-x,1/2+y,1/2-z
1/2-x,1/2-y,1/2-z
1/2+x,y,1/2-z
1/2-x,1/2+y,z
x,1/2-y,1/2+z
loop_
_atom_site_type_symbol
_atom_site_label
_atom_site_fract_x
_atom_site_fract_y
_atom_site_fract_z
Si Si1 0.688176 0.008581 0.072566
Si Si2 0.712574 0.533846 0.672077
Si Si3 0.334421 0.806644 0.062670
Si Si4 0.000000 0.750000 0.783892
Si Si5 0.651444 0.665159 0.163069
Si Si6 0.403644 0.000000 0.750000
Si Si7 0.552699 0.375102 0.515327
O O1 0.686575 0.015241 0.124491
O O2 0.694004 0.849398 0.060928
O O3 0.762753 0.090951 0.055767
O O4 0.611966 0.073022 0.051465
O O5 0.798132 0.466596 0.677457
O O6 0.704668 0.699044 0.671953
O O7 0.653047 0.484925 0.708770
O O8 0.362982 0.835917 0.111546
O O9 0.398918 0.827006 0.026468
O O10 0.930553 0.685032 0.812824
O O11 0.042119 0.631789 0.756815
O O12 0.500000 0.250000 0.530922
O O13 0.500000 0.500000 0.500000
#
# Coordination Sequence:
#
# PCOD9531810 Si02
#       7
#    16  16  16   8  16   8  16
#     4  10  22  41  59  84 116 153 199 238 290 346
#     4   9  20  39  60  84 114 153 194 241 281 360
#     4  10  22  39  63  81 115 155 196 239 283 350
#     4  10  22  36  58  88 118 148 186 240 300 346
#     4   9  20  38  62  86 113 152 194 238 294 341
#     4  10  22  38  58  86 120 152 192 236 296 350
#     4  12  25  38  57  86 118 155 192 241 294 340
#
# _framework density 18.496687000000001
#
# number of rings (size 3 to 8) (size 9 to 14) (size 15 to 20)
#    0.000    2.000    1.667    0.500    3.500    7.333 
#    1.500    0.000    0.000    0.000    0.000    0.000 
#    0.000    0.000    0.000    0.000    0.000    0.000 
#
# Total GULP energy -268007.668553 kJ/mol
# GULP energy per Si atom -5583.493095 kJ/mol
# Density = 1.845459 g / cm^3
# Si number density = 18.496687 Si / 1000 Ang^3
#
#
#
# Elastic Constant Matrix: (Units=GPa)
#
#
# Indices 1 2 3 4 5 6 
#
# 1 70.3288 28.0695 31.3418 0.0000 0.0000 0.0000
# 2 28.0695 64.7968 28.2301 0.0000 0.0000 0.0000
# 3 31.3418 28.2301 57.0045 0.0000 0.0000 0.0000
# 4 0.0000 0.0000 0.0000 17.8936 0.0000 0.0000
# 5 0.0000 0.0000 0.0000 0.0000 469.2034 0.0000
# 6 0.0000 0.0000 0.0000 0.0000 0.0000 44.8928
#
#
#
# Elastic Compliance Matrix: (Units=1/GPa)
#
#
# Indices 1 2 3 4 5 6 
#
# 1 0.020001 -0.004939 -0.008551 0.000000 0.000000 0.000000
# 2 -0.004939 0.020898 -0.007634 0.000000 0.000000 0.000000
# 3 -0.008551 -0.007634 0.026024 0.000000 0.000000 0.000000
# 4 0.000000 0.000000 0.000000 0.055886 0.000000 0.000000
# 5 0.000000 0.000000 0.000000 0.000000 0.002131 0.000000
# 6 0.000000 0.000000 0.000000 0.000000 0.000000 0.022275
#
#
# Mechanical properties :
#
#
# Convention : Reuss Voigt Hill
#
# Bulk Modulus (GPa) = 40.52494 40.82367 40.67431
# Shear Modulus (GPa) = 25.29238 113.36389 69.32813
#
# Velocity S-wave (km/s) = 3.70185 7.83721 6.12885
# Velocity P-wave (km/s) = 6.34259 10.19875 8.49244
#
# Compressibility (1/GPa) = 0.02467616
#
# Stress axis : x y z
#
# Youngs Moduli (GPa) = 49.99814 47.85105 38.42563
#
# Poissons Ratio (x) = 0.23633 0.32857
# Poissons Ratio (y) = 0.24693 0.29334
# Poissons Ratio (z) = 0.42752 0.36529
#
# Static dielectric constant tensor:
#      x y z
#    x 1.612330 0.000000 0.000000 
#    y 0.000000 1.637280 0.000000 
#    z 0.000000 0.000000 1.632910 
# 
# From -- ./inp_files/34277.got.cif
#   From: 2010.05.17/outbox.cif.g08.bks.cpg/sg73_18_cif.got.tgz:34277.got - 2010.06.03 17:35:07.
