data_PCOD9531022
_publ_section_title
;
Structure prediction by ZEFSAII (Michael W. Deem and Ramdas Pophale) SiO2 
 PCOD9531022
Probable space group: I B C A 
;
_chemical_formula_sum "Si O2"
_cell_formula_units_Z 96
_cell_length_a 21.155073
_cell_length_b 20.254014
_cell_length_c 9.226356
_cell_angle_alpha 90.000000
_cell_angle_beta 90.000000
_cell_angle_gamma 90.000000
_cell_volume 3953.264222
_symmetry_space_group_name_H-M "I B C A "
_symmetry_group_IT_number 73
_symmetry_cell_setting 'orthorhombic'
loop_
_space_group_symop_operation_xyz
x,y,z
-x,1/2-y,z
x,-y,1/2-z
1/2-x,y,-z
-x,-y,-z
x,1/2+y,-z
-x,y,1/2+z
1/2+x,-y,z
1/2+x,1/2+y,1/2+z
1/2-x,-y,1/2+z
1/2+x,1/2-y,-z
-x,1/2+y,1/2-z
1/2-x,1/2-y,1/2-z
1/2+x,y,1/2-z
1/2-x,1/2+y,z
x,1/2-y,1/2+z
loop_
_atom_site_type_symbol
_atom_site_label
_atom_site_fract_x
_atom_site_fract_y
_atom_site_fract_z
Si Si1 0.929016 0.240977 0.121812
Si Si2 0.377917 0.165772 0.641839
Si Si3 0.086982 0.126361 0.854461
Si Si4 0.035920 0.452080 0.887729
Si Si5 0.750000 0.507781 0.500000
Si Si6 0.163853 0.000000 0.750000
Si Si7 0.191307 0.362292 0.592033
O O1 0.921682 0.302749 0.231546
O O2 0.916868 0.181166 0.233014
O O3 0.000000 0.250000 0.060915
O O4 0.883469 0.216347 0.990878
O O5 0.400985 0.092412 0.593794
O O6 0.315157 0.160350 0.742192
O O7 0.121126 0.060043 0.800203
O O8 0.015659 0.105918 0.882569
O O9 0.128682 0.146128 0.993576
O O10 0.044772 0.500000 0.750000
O O11 0.000000 0.500000 0.000000
O O12 0.792589 0.473857 0.619065
O O13 0.794441 0.559277 0.411355
O O14 0.250000 0.333214 0.500000
#
# Coordination Sequence:
#
# PCOD9531022 Si02
#       7
#    16  16  16  16   8   8  16
#     4  12  26  45  69 103 141 194 246 298 376 467
#     4  12  26  45  72 101 142 195 247 307 374 448
#     4  11  22  44  67 100 145 187 244 301 370 445
#     4  12  25  41  65 105 147 186 233 307 383 448
#     4   8  20  40  68  96 142 190 238 292 378 440
#     4  10  20  40  70  98 142 190 236 308 356 446
#     4   9  22  46  69  99 141 192 248 308 369 450
#
# _framework density 24.283729000000001
#
# number of rings (size 3 to 8) (size 9 to 14) (size 15 to 20)
#    0.500    0.667    2.500    3.500    2.333    1.333 
#    4.500    3.333    0.000    0.000    0.000    0.000 
#    0.000    0.000    0.000    0.000    0.000    0.000 
#
# Total GULP energy -267591.178528 kJ/mol
# GULP energy per Si atom -5574.816219 kJ/mol
# Density = 2.422846 g / cm^3
# Si number density = 24.283729 Si / 1000 Ang^3
#
#
#
# Elastic Constant Matrix: (Units=GPa)
#
#
# Indices 1 2 3 4 5 6 
#
# 1 47.7950 2.0212 18.9194 0.0000 0.0000 0.0000
# 2 2.0212 101.0418 47.6357 0.0000 0.0000 0.0000
# 3 18.9194 47.6357 108.9009 0.0000 0.0000 0.0000
# 4 0.0000 0.0000 0.0000 -20.7176 0.0000 0.0000
# 5 0.0000 0.0000 0.0000 0.0000 37.4478 0.0000
# 6 0.0000 0.0000 0.0000 0.0000 0.0000 12.2386
#
#
#
# Elastic Compliance Matrix: (Units=1/GPa)
#
#
# Indices 1 2 3 4 5 6 
#
# 1 0.022717 0.001772 -0.004721 0.000000 0.000000 0.000000
# 2 0.001772 0.012606 -0.005822 0.000000 0.000000 0.000000
# 3 -0.004721 -0.005822 0.012550 0.000000 0.000000 0.000000
# 4 0.000000 0.000000 0.000000 -0.048268 0.000000 0.000000
# 5 0.000000 0.000000 0.000000 0.000000 0.026704 0.000000
# 6 0.000000 0.000000 0.000000 0.000000 0.000000 0.081709
#
#
# Mechanical properties :
#
#
# Convention : Reuss Voigt Hill
#
# Bulk Modulus (GPa) = 32.97219 43.87670 38.42445
# Shear Modulus (GPa) = 36.85398 18.40452 27.62925
#
# Velocity S-wave (km/s) = 3.89992 2.75598 3.37674
# Velocity P-wave (km/s) = 5.82121 5.31364 5.57321
#
# Compressibility (1/GPa) = 0.03032859
#
# Stress axis : x y z
#
# Youngs Moduli (GPa) = 44.02039 79.32598 79.68385
#
# Poissons Ratio (x) = -0.14053 0.37623
# Poissons Ratio (y) = -0.07798 0.46392
# Poissons Ratio (z) = 0.20784 0.46184
#
# Static dielectric constant tensor:
#      x y z
#    x 1.506040 0.000000 0.000000 
#    y 0.000000 2.005020 0.000000 
#    z 0.000000 0.000000 1.937090 
# 
# From -- ./inp_files/7853.got.cif
#   From: 2010.05.17/outbox.cif.g08.bks.cpg/sg73_4_cif.got.tgz:7853.got - 2010.06.03 17:35:07.
