data_PCOD9531026
_publ_section_title
;
Structure prediction by ZEFSAII (Michael W. Deem and Ramdas Pophale) SiO2 
 PCOD9531026
Probable space group: I B C A 
;
_chemical_formula_sum "Si O2"
_cell_formula_units_Z 56
_cell_length_a 9.249756
_cell_length_b 14.317205
_cell_length_c 17.664663
_cell_angle_alpha 90.000000
_cell_angle_beta 90.000000
_cell_angle_gamma 90.000000
_cell_volume 2339.342854
_symmetry_space_group_name_H-M "I B C A "
_symmetry_group_IT_number 73
_symmetry_cell_setting 'orthorhombic'
loop_
_space_group_symop_operation_xyz
x,y,z
-x,1/2-y,z
x,-y,1/2-z
1/2-x,y,-z
-x,-y,-z
x,1/2+y,-z
-x,y,1/2+z
1/2+x,-y,z
1/2+x,1/2+y,1/2+z
1/2-x,-y,1/2+z
1/2+x,1/2-y,-z
-x,1/2+y,1/2-z
1/2-x,1/2-y,1/2-z
1/2+x,y,1/2-z
1/2-x,1/2+y,z
x,1/2-y,1/2+z
loop_
_atom_site_type_symbol
_atom_site_label
_atom_site_fract_x
_atom_site_fract_y
_atom_site_fract_z
Si Si1 0.726554 0.390364 0.588045
Si Si2 0.786797 0.687955 0.651764
Si Si3 0.548544 0.009376 0.658676
Si Si4 0.500000 0.750000 0.217357
O O1 0.750000 0.407334 0.500000
O O2 0.688732 0.281319 0.602830
O O3 0.603550 0.453468 0.627332
O O4 0.877162 0.415710 0.628021
O O5 0.842475 0.588795 0.624280
O O6 0.888462 0.699029 0.725743
O O7 0.617709 0.688926 0.672293
O O8 0.544267 0.000000 0.750000
#
# Coordination Sequence:
#
# PCOD9531026 Si02
#       4
#    16  16  16   8
#     4  12  28  48  69 109 154 198 246 304 388 458
#     4  11  24  44  72 104 149 185 247 302 380 431
#     4  12  26  46  79 110 144 197 258 320 368 447
#     4  10  20  40  72 106 130 184 242 308 354 438
#
# _framework density 23.938344000000001
#
# number of rings (size 3 to 8) (size 9 to 14) (size 15 to 20)
#    0.000    0.571    2.857    5.143    8.000    1.143 
#    5.143    0.000    0.000    0.000    0.000    0.000 
#    0.000    0.000    0.000    0.000    0.000    0.000 
#
# Total GULP energy -156478.677077 kJ/mol
# GULP energy per Si atom -5588.524181 kJ/mol
# Density = 2.388386 g / cm^3
# Si number density = 23.938344 Si / 1000 Ang^3
#
#
#
# Elastic Constant Matrix: (Units=GPa)
#
#
# Indices 1 2 3 4 5 6 
#
# 1 194.9056 45.4859 38.8678 0.0000 0.0000 0.0000
# 2 45.4859 98.3335 24.7595 0.0000 0.0000 0.0000
# 3 38.8678 24.7595 153.8189 0.0000 0.0000 0.0000
# 4 0.0000 0.0000 0.0000 18.7624 0.0000 0.0000
# 5 0.0000 0.0000 0.0000 0.0000 46.3241 0.0000
# 6 0.0000 0.0000 0.0000 0.0000 0.0000 77.0411
#
#
#
# Elastic Compliance Matrix: (Units=1/GPa)
#
#
# Indices 1 2 3 4 5 6 
#
# 1 0.005925 -0.002464 -0.001101 0.000000 0.000000 0.000000
# 2 -0.002464 0.011623 -0.001248 0.000000 0.000000 0.000000
# 3 -0.001101 -0.001248 0.006980 0.000000 0.000000 0.000000
# 4 0.000000 0.000000 0.000000 0.053298 0.000000 0.000000
# 5 0.000000 0.000000 0.000000 0.000000 0.021587 0.000000
# 6 0.000000 0.000000 0.000000 0.000000 0.000000 0.012980
#
#
# Mechanical properties :
#
#
# Convention : Reuss Voigt Hill
#
# Bulk Modulus (GPa) = 67.09906 73.92049 70.50977
# Shear Modulus (GPa) = 39.37403 50.95519 45.16461
#
# Velocity S-wave (km/s) = 4.06003 4.61868 4.34833
# Velocity P-wave (km/s) = 7.07596 7.70646 7.39793
#
# Compressibility (1/GPa) = 0.01490334
#
# Stress axis : x y z
#
# Youngs Moduli (GPa) = 168.77279 86.03315 143.26198
#
# Poissons Ratio (x) = 0.21196 0.15768
# Poissons Ratio (y) = 0.41580 0.17885
# Poissons Ratio (z) = 0.18576 0.10741
#
# Static dielectric constant tensor:
#      x y z
#    x 1.919830 0.000000 0.000000 
#    y 0.000000 2.118030 0.000000 
#    z 0.000000 0.000000 1.884320 
# 
# From -- ./inp_files/20538.got.cif
#   From: 2010.05.17/outbox.cif.g08.bks.cpg/sg73_11_cif.got.tgz:20538.got - 2010.06.03 17:35:07.
