data_PCOD9531691
_publ_section_title
;
Structure prediction by ZEFSAII (Michael W. Deem and Ramdas Pophale) SiO2 
 PCOD9531691
Probable space group: I B C A 
;
_chemical_formula_sum "Si O2"
_cell_formula_units_Z 120
_cell_length_a 11.731660
_cell_length_b 27.329178
_cell_length_c 18.465246
_cell_angle_alpha 90.000000
_cell_angle_beta 90.000000
_cell_angle_gamma 90.000000
_cell_volume 5920.264841
_symmetry_space_group_name_H-M "I B C A "
_symmetry_group_IT_number 73
_symmetry_cell_setting 'orthorhombic'
loop_
_space_group_symop_operation_xyz
x,y,z
-x,1/2-y,z
x,-y,1/2-z
1/2-x,y,-z
-x,-y,-z
x,1/2+y,-z
-x,y,1/2+z
1/2+x,-y,z
1/2+x,1/2+y,1/2+z
1/2-x,-y,1/2+z
1/2+x,1/2-y,-z
-x,1/2+y,1/2-z
1/2-x,1/2-y,1/2-z
1/2+x,y,1/2-z
1/2-x,1/2+y,z
x,1/2-y,1/2+z
loop_
_atom_site_type_symbol
_atom_site_label
_atom_site_fract_x
_atom_site_fract_y
_atom_site_fract_z
Si Si1 0.000000 0.250000 0.089994
Si Si2 0.987706 0.412419 0.585411
Si Si3 0.074010 0.855134 0.163770
Si Si4 0.235614 0.936725 0.826366
Si Si5 0.326950 0.099180 0.169011
Si Si6 0.385280 0.168886 0.509734
Si Si7 0.297149 0.977292 0.575664
Si Si8 0.876524 0.330339 0.177083
O O1 0.933677 0.211223 0.041044
O O2 0.909558 0.280497 0.137516
O O3 0.881117 0.433168 0.629154
O O4 0.942104 0.381807 0.517236
O O5 0.078784 0.453664 0.565888
O O6 0.050022 0.373453 0.638604
O O7 0.182099 0.891211 0.157545
O O8 0.088295 0.827458 0.239354
O O9 0.958481 0.886626 0.167058
O O10 0.078462 0.822643 0.092250
O O11 0.205276 0.931462 0.741566
O O12 0.297687 0.984009 0.858967
O O13 0.286142 0.066711 0.101388
O O14 0.251798 0.149015 0.171163
O O15 0.250000 0.165651 0.500000
O O16 0.250000 0.998183 0.500000
#
# Coordination Sequence:
#
# PCOD9531691 Si02
#       8
#     8  16  16  16  16  16  16  16
#     4  10  24  42  66  96 130 168 206 270 332 396
#     4  10  21  43  63  87 135 173 209 270 335 381
#     4  11  22  39  67  93 124 172 217 264 327 391
#     4  11  23  39  64  92 125 173 220 270 318 375
#     4  10  22  43  63  93 128 171 221 268 318 378
#     4  11  23  41  65  96 131 166 214 267 336 402
#     4  11  25  39  61  96 132 173 223 267 320 378
#     4   9  21  42  66  90 124 170 209 263 330 388
#
# _framework density 20.269362999999998
#
# number of rings (size 3 to 8) (size 9 to 14) (size 15 to 20)
#    0.000    1.600    2.667    1.200    3.733    2.133 
#    0.000    2.667    0.000    0.000    0.000    0.000 
#    0.000    0.000    0.000    0.000    0.000    0.000 
#
# Total GULP energy -335285.402521 kJ/mol
# GULP energy per Si atom -5588.090042 kJ/mol
# Density = 2.022323 g / cm^3
# Si number density = 20.269363 Si / 1000 Ang^3
#
#
#
# Elastic Constant Matrix: (Units=GPa)
#
#
# Indices 1 2 3 4 5 6 
#
# 1 92.3979 14.4614 23.5411 0.0000 0.0000 0.0000
# 2 14.4614 60.7343 24.1768 0.0000 0.0000 0.0000
# 3 23.5411 24.1768 110.6192 0.0000 0.0001 0.0000
# 4 0.0000 0.0000 0.0000 19.2287 0.0000 0.0000
# 5 0.0000 0.0000 0.0001 0.0000 29.5045 0.0000
# 6 0.0000 0.0000 0.0000 0.0000 0.0000 8.2662
#
#
#
# Elastic Compliance Matrix: (Units=1/GPa)
#
#
# Indices 1 2 3 4 5 6 
#
# 1 0.011652 -0.001958 -0.002052 0.000000 0.000000 0.000000
# 2 -0.001958 0.018363 -0.003597 0.000000 0.000000 0.000000
# 3 -0.002052 -0.003597 0.010263 0.000000 0.000000 0.000000
# 4 0.000000 0.000000 0.000000 0.052006 0.000000 0.000000
# 5 0.000000 0.000000 0.000000 0.000000 0.033893 0.000000
# 6 0.000000 0.000000 0.000000 0.000000 0.000000 0.120975
#
#
# Mechanical properties :
#
#
# Convention : Reuss Voigt Hill
#
# Bulk Modulus (GPa) = 39.89584 43.12332 41.50958
# Shear Modulus (GPa) = 18.46934 24.83801 21.65367
#
# Velocity S-wave (km/s) = 3.02187 3.50436 3.27203
# Velocity P-wave (km/s) = 5.64811 6.13966 5.89901
#
# Compressibility (1/GPa) = 0.02506527
#
# Stress axis : x y z
#
# Youngs Moduli (GPa) = 85.82283 54.45706 97.43952
#
# Poissons Ratio (x) = 0.10661 0.19993
# Poissons Ratio (y) = 0.16801 0.35047
# Poissons Ratio (z) = 0.17609 0.19587
#
# Static dielectric constant tensor:
#      x y z
#    x 1.691000 0.000000 0.000000 
#    y 0.000000 1.701570 0.000000 
#    z 0.000000 0.000000 1.731140 
# 
# From -- ./inp_files/14373.got.cif
#   From: 2010.05.17/outbox.cif.g08.bks.cpg/sg73_8_cif.got.tgz:14373.got - 2010.06.03 17:35:07.
