data_PCOD9531743
_publ_section_title
;
Structure prediction by ZEFSAII (Michael W. Deem and Ramdas Pophale) SiO2 
 PCOD9531743
Probable space group: I B C A 
;
_chemical_formula_sum "Si O2"
_cell_formula_units_Z 112
_cell_length_a 11.094601
_cell_length_b 16.810884
_cell_length_c 29.623659
_cell_angle_alpha 90.000000
_cell_angle_beta 90.000000
_cell_angle_gamma 90.000000
_cell_volume 5525.110134
_symmetry_space_group_name_H-M "I B C A "
_symmetry_group_IT_number 73
_symmetry_cell_setting 'orthorhombic'
loop_
_space_group_symop_operation_xyz
x,y,z
-x,1/2-y,z
x,-y,1/2-z
1/2-x,y,-z
-x,-y,-z
x,1/2+y,-z
-x,y,1/2+z
1/2+x,-y,z
1/2+x,1/2+y,1/2+z
1/2-x,-y,1/2+z
1/2+x,1/2-y,-z
-x,1/2+y,1/2-z
1/2-x,1/2-y,1/2-z
1/2+x,y,1/2-z
1/2-x,1/2+y,z
x,1/2-y,1/2+z
loop_
_atom_site_type_symbol
_atom_site_label
_atom_site_fract_x
_atom_site_fract_y
_atom_site_fract_z
Si Si1 0.892888 0.937060 0.985611
Si Si2 0.161951 0.677427 0.803744
Si Si3 0.531019 0.158326 0.564811
Si Si4 0.230366 0.646634 0.293432
Si Si5 0.018858 0.957469 0.796496
Si Si6 0.122744 0.433357 0.864928
Si Si7 0.727482 0.084809 0.393916
O O1 0.876084 0.917077 0.932748
O O2 0.750000 0.957255 0.000000
O O3 0.941727 0.860476 0.012613
O O4 0.000000 0.000000 0.000000
O O5 0.239553 0.658074 0.759123
O O6 0.166123 0.771891 0.808654
O O7 0.204403 0.635934 0.849417
O O8 0.039738 0.629938 0.794759
O O9 0.500000 0.250000 0.572131
O O10 0.429000 0.107148 0.590245
O O11 0.652868 0.123666 0.586533
O O12 0.158141 0.564196 0.297010
O O13 0.340187 0.632437 0.328023
O O14 0.984788 0.000000 0.750000
O O15 0.971069 0.009007 0.838372
O O16 0.230380 0.492175 0.880002
#
# Coordination Sequence:
#
# PCOD9531743 Si02
#       7
#    16  16  16  16  16  16  16
#     4  10  21  44  69  97 131 172 217 280 341 412
#     4  10  23  41  58  87 124 168 213 267 321 386
#     4  11  23  41  68 100 130 165 218 279 339 402
#     4  11  23  38  59  85 130 169 212 266 324 378
#     4  11  23  37  57  84 121 166 217 260 315 379
#     4  11  22  39  62  94 126 170 221 257 330 388
#     4  10  22  40  68  91 133 167 220 272 331 401
#
# _framework density 20.271090000000001
#
# number of rings (size 3 to 8) (size 9 to 14) (size 15 to 20)
#    0.000    1.429    2.857    2.143    6.000    0.000 
#    0.000    5.000    0.000    0.000    0.000    0.000 
#    0.000    0.000    0.000    0.000    0.000    0.000 
#
# Total GULP energy -311771.599386 kJ/mol
# GULP energy per Si atom -5567.349989 kJ/mol
# Density = 2.022495 g / cm^3
# Si number density = 20.271090 Si / 1000 Ang^3
#
#
#
# Elastic Constant Matrix: (Units=GPa)
#
#
# Indices 1 2 3 4 5 6 
#
# 1 51.7336 43.3718 13.3298 0.0000 0.0000 0.0000
# 2 43.3718 134.9624 44.9883 0.0000 0.0000 0.0000
# 3 13.3298 44.9883 111.4134 0.0000 0.0000 0.0000
# 4 0.0000 0.0000 0.0000 26.0608 0.0000 0.0000
# 5 0.0000 0.0000 0.0000 0.0000 20.2305 0.0000
# 6 0.0000 0.0000 0.0000 0.0000 0.0000 4.4424
#
#
#
# Elastic Compliance Matrix: (Units=1/GPa)
#
#
# Indices 1 2 3 4 5 6 
#
# 1 0.026467 -0.008609 0.000310 0.000000 0.000000 0.000000
# 2 -0.008609 0.011362 -0.003558 0.000000 0.000000 0.000000
# 3 0.000310 -0.003558 0.010375 0.000000 0.000000 0.000000
# 4 0.000000 0.000000 0.000000 0.038372 0.000000 0.000000
# 5 0.000000 0.000000 0.000000 0.000000 0.049430 0.000000
# 6 0.000000 0.000000 0.000000 0.000000 0.000000 0.225104
#
#
# Mechanical properties :
#
#
# Convention : Reuss Voigt Hill
#
# Bulk Modulus (GPa) = 40.83258 55.72102 48.27680
# Shear Modulus (GPa) = 12.72301 23.24137 17.98219
#
# Velocity S-wave (km/s) = 2.50800 3.38971 2.98163
# Velocity P-wave (km/s) = 5.34544 6.54735 5.97669
#
# Compressibility (1/GPa) = 0.02449025
#
# Stress axis : x y z
#
# Youngs Moduli (GPa) = 37.78239 88.01248 96.38338
#
# Poissons Ratio (x) = 0.75768 -0.02984
# Poissons Ratio (y) = 0.32526 0.34293
# Poissons Ratio (z) = -0.01170 0.31315
#
# Static dielectric constant tensor:
#      x y z
#    x 1.914820 0.000000 0.000000 
#    y 0.000000 1.812830 0.000000 
#    z 0.000000 0.000000 1.772260 
# 
# From -- ./inp_files/16354.got.cif
#   From: 2010.05.17/outbox.cif.g08.bks.cpg/sg73_9_cif.got.tgz:16354.got - 2010.06.03 17:35:07.
