data_PCOD9531136
_publ_section_title
;
Structure prediction by ZEFSAII (Michael W. Deem and Ramdas Pophale) SiO2 
 PCOD9531136
Probable space group: I B C A 
;
_chemical_formula_sum "Si O2"
_cell_formula_units_Z 80
_cell_length_a 13.178818
_cell_length_b 23.136404
_cell_length_c 10.909684
_cell_angle_alpha 90.000000
_cell_angle_beta 90.000000
_cell_angle_gamma 90.000000
_cell_volume 3326.476740
_symmetry_space_group_name_H-M "I B C A "
_symmetry_group_IT_number 73
_symmetry_cell_setting 'orthorhombic'
loop_
_space_group_symop_operation_xyz
x,y,z
-x,1/2-y,z
x,-y,1/2-z
1/2-x,y,-z
-x,-y,-z
x,1/2+y,-z
-x,y,1/2+z
1/2+x,-y,z
1/2+x,1/2+y,1/2+z
1/2-x,-y,1/2+z
1/2+x,1/2-y,-z
-x,1/2+y,1/2-z
1/2-x,1/2-y,1/2-z
1/2+x,y,1/2-z
1/2-x,1/2+y,z
x,1/2-y,1/2+z
loop_
_atom_site_type_symbol
_atom_site_label
_atom_site_fract_x
_atom_site_fract_y
_atom_site_fract_z
Si Si1 0.151538 0.454684 0.076260
Si Si2 0.529575 0.865747 0.443843
Si Si3 0.337587 0.220797 0.400733
Si Si4 0.324927 0.663088 0.223437
Si Si5 0.669512 0.914709 0.858820
O O1 0.154146 0.431886 0.215152
O O2 0.155451 0.523595 0.076985
O O3 0.250000 0.432983 0.000000
O O4 0.057080 0.425895 0.009234
O O5 0.575448 0.816406 0.532960
O O6 0.594679 0.860544 0.319665
O O7 0.413245 0.868732 0.405340
O O8 0.250000 0.233617 0.500000
O O9 0.370348 0.281382 0.343783
O O10 0.275210 0.185874 0.296746
O O11 0.281134 0.613245 0.136730
#
# Coordination Sequence:
#
# PCOD9531136 Si02
#       5
#    16  16  16  16  16
#     4  11  22  47  71 102 147 193 240 307 375 433
#     4  11  21  45  73  98 149 185 236 312 362 432
#     4   9  19  40  70  94 133 188 234 292 357 421
#     4  10  20  43  70 100 139 190 239 291 368 439
#     4  11  24  41  72 110 139 188 253 292 372 452
#
# _framework density 24.049468000000001
#
# number of rings (size 3 to 8) (size 9 to 14) (size 15 to 20)
#    0.000    1.600    4.000    1.200    0.000    0.800 
#   14.400   13.000    0.000    0.000    0.000    0.000 
#    0.000    0.000    0.000    0.000    0.000    0.000 
#
# Total GULP energy -223961.707965 kJ/mol
# GULP energy per Si atom -5599.042699 kJ/mol
# Density = 2.399473 g / cm^3
# Si number density = 24.049468 Si / 1000 Ang^3
#
#
#
# Elastic Constant Matrix: (Units=GPa)
#
#
# Indices 1 2 3 4 5 6 
#
# 1 106.5750 30.9959 58.0688 0.0000 0.0000 0.0000
# 2 30.9959 136.1635 51.6228 0.0000 0.0000 0.0000
# 3 58.0688 51.6228 101.9712 -0.0001 0.0000 0.0000
# 4 0.0000 0.0000 -0.0001 41.2112 0.0000 0.0000
# 5 0.0000 0.0000 0.0000 0.0000 40.9791 0.0000
# 6 0.0000 0.0000 0.0000 0.0000 0.0000 25.7206
#
#
#
# Elastic Compliance Matrix: (Units=1/GPa)
#
#
# Indices 1 2 3 4 5 6 
#
# 1 0.013608 -0.000198 -0.007649 0.000000 0.000000 0.000000
# 2 -0.000198 0.009091 -0.004490 0.000000 0.000000 0.000000
# 3 -0.007649 -0.004490 0.016436 0.000000 0.000000 0.000000
# 4 0.000000 0.000000 0.000000 0.024265 0.000000 0.000000
# 5 0.000000 0.000000 0.000000 0.000000 0.024403 0.000000
# 6 0.000000 0.000000 0.000000 0.000000 0.000000 0.038879
#
#
# Mechanical properties :
#
#
# Convention : Reuss Voigt Hill
#
# Bulk Modulus (GPa) = 69.14909 69.56496 69.35702
# Shear Modulus (GPa) = 32.01489 35.18367 33.59928
#
# Velocity S-wave (km/s) = 3.65253 3.82903 3.74182
# Velocity P-wave (km/s) = 6.82666 6.96686 6.89712
#
# Compressibility (1/GPa) = 0.01446151
#
# Stress axis : x y z
#
# Youngs Moduli (GPa) = 73.48380 109.99480 60.84304
#
# Poissons Ratio (x) = 0.02175 0.46541
# Poissons Ratio (y) = 0.01453 0.27318
# Poissons Ratio (z) = 0.56211 0.49386
#
# Static dielectric constant tensor:
#      x y z
#    x 1.874210 0.000000 0.000000 
#    y 0.000000 1.916090 0.000000 
#    z 0.000000 0.000000 1.954720 
# 
# From -- ./inp_files/10819.got.cif
#   From: 2010.05.17/outbox.cif.g08.bks.cpg/sg73_6_cif.got.tgz:10819.got - 2010.06.03 17:35:07.
