data_PCOD9531246
_publ_section_title
;
Structure prediction by ZEFSAII (Michael W. Deem and Ramdas Pophale) SiO2 
 PCOD9531246
Probable space group: I B C A 
;
_chemical_formula_sum "Si O2"
_cell_formula_units_Z 96
_cell_length_a 19.422297
_cell_length_b 7.211909
_cell_length_c 25.215232
_cell_angle_alpha 90.000000
_cell_angle_beta 90.000000
_cell_angle_gamma 90.000000
_cell_volume 3531.943905
_symmetry_space_group_name_H-M "I B C A "
_symmetry_group_IT_number 73
_symmetry_cell_setting 'orthorhombic'
loop_
_space_group_symop_operation_xyz
x,y,z
-x,1/2-y,z
x,-y,1/2-z
1/2-x,y,-z
-x,-y,-z
x,1/2+y,-z
-x,y,1/2+z
1/2+x,-y,z
1/2+x,1/2+y,1/2+z
1/2-x,-y,1/2+z
1/2+x,1/2-y,-z
-x,1/2+y,1/2-z
1/2-x,1/2-y,1/2-z
1/2+x,y,1/2-z
1/2-x,1/2+y,z
x,1/2-y,1/2+z
loop_
_atom_site_type_symbol
_atom_site_label
_atom_site_fract_x
_atom_site_fract_y
_atom_site_fract_z
Si Si1 0.806748 0.676362 0.168541
Si Si2 0.656048 0.602876 0.176295
Si Si3 0.372468 0.420949 0.941321
Si Si4 0.339649 0.648885 0.446737
Si Si5 0.433668 0.081426 0.802443
Si Si6 0.483326 0.528884 0.416188
O O1 0.731612 0.667760 0.193823
O O2 0.795749 0.612894 0.106205
O O3 0.862997 0.535022 0.189788
O O4 0.839382 0.880456 0.175840
O O5 0.645440 0.664910 0.115054
O O6 0.594225 0.709630 0.204786
O O7 0.358049 0.638428 0.937427
O O8 0.455753 0.419025 0.945568
O O9 0.326289 0.356309 0.990482
O O10 0.407668 0.519326 0.441775
O O11 0.467308 0.000000 0.750000
O O12 0.476168 0.042375 0.855965
O O13 0.500000 0.750000 0.414678
#
# Coordination Sequence:
#
# PCOD9531246 Si02
#       6
#    16  16  16  16  16  16
#     4  10  22  43  64  96 138 162 219 277 324 392
#     4  11  23  42  66  95 132 173 213 279 331 389
#     4  10  21  36  62  97 129 174 216 254 323 387
#     4   9  20  35  62  93 128 175 209 262 315 385
#     4  11  25  45  70  94 123 174 222 275 346 396
#     4   9  20  43  62  91 137 165 218 281 320 387
#
# _framework density 27.180499999999999
#
# number of rings (size 3 to 8) (size 9 to 14) (size 15 to 20)
#    0.000    2.000    1.667    1.500    4.667    2.667 
#    3.000    3.333    0.000    0.000    0.000    0.000 
#    0.000    0.000    0.000    0.000    0.000    0.000 
#
# Total GULP energy -268658.340726 kJ/mol
# GULP energy per Si atom -5597.048765 kJ/mol
# Density = 2.711864 g / cm^3
# Si number density = 27.180500 Si / 1000 Ang^3
#
#
#
# Elastic Constant Matrix: (Units=GPa)
#
#
# Indices 1 2 3 4 5 6 
#
# 1 77.5774 31.8704 15.2286 0.0000 0.0000 0.0000
# 2 31.8704 119.0566 6.8110 0.0000 0.0000 0.0000
# 3 15.2286 6.8110 145.9329 0.0000 0.0000 0.0000
# 4 0.0000 0.0000 0.0000 33.5122 0.0000 0.0000
# 5 0.0000 0.0000 0.0000 0.0000 10.1035 0.0000
# 6 0.0000 0.0000 0.0000 0.0000 0.0000 25.8258
#
#
#
# Elastic Compliance Matrix: (Units=1/GPa)
#
#
# Indices 1 2 3 4 5 6 
#
# 1 0.014747 -0.003870 -0.001358 0.000000 0.000000 0.000000
# 2 -0.003870 0.009437 -0.000037 0.000000 0.000000 0.000000
# 3 -0.001358 -0.000037 0.006996 0.000000 0.000000 0.000000
# 4 0.000000 0.000000 0.000000 0.029840 0.000000 0.000000
# 5 0.000000 0.000000 0.000000 0.000000 0.098975 0.000000
# 6 0.000000 0.000000 0.000000 0.000000 0.000000 0.038721
#
#
# Mechanical properties :
#
#
# Convention : Reuss Voigt Hill
#
# Bulk Modulus (GPa) = 48.42484 50.04300 49.23392
# Shear Modulus (GPa) = 23.13428 33.13210 28.13319
#
# Velocity S-wave (km/s) = 2.92059 3.49516 3.22071
# Velocity P-wave (km/s) = 5.40627 5.89402 5.65541
#
# Compressibility (1/GPa) = 0.02065056
#
# Stress axis : x y z
#
# Youngs Moduli (GPa) = 67.81126 105.96144 142.94058
#
# Poissons Ratio (x) = 0.41006 0.19415
# Poissons Ratio (y) = 0.26242 0.00524
# Poissons Ratio (z) = 0.09211 0.00388
#
# Static dielectric constant tensor:
#      x y z
#    x 2.087980 0.000000 0.000000 
#    y 0.000000 2.076080 0.000000 
#    z 0.000000 0.000000 2.219670 
# 
# From -- ./inp_files/6424.got.cif
#   From: 2010.05.17/outbox.cif.g08.bks.cpg/sg73_4_cif.got.tgz:6424.got - 2010.06.03 17:35:07.
