data_PCOD9531980
_publ_section_title
;
Structure prediction by ZEFSAII (Michael W. Deem and Ramdas Pophale) SiO2 
 PCOD9531980
Probable space group: I B C A 
;
_chemical_formula_sum "Si O2"
_cell_formula_units_Z 80
_cell_length_a 13.865441
_cell_length_b 7.767225
_cell_length_c 28.727059
_cell_angle_alpha 90.000000
_cell_angle_beta 90.000000
_cell_angle_gamma 90.000000
_cell_volume 3093.789345
_symmetry_space_group_name_H-M "I B C A "
_symmetry_group_IT_number 73
_symmetry_cell_setting 'orthorhombic'
loop_
_space_group_symop_operation_xyz
x,y,z
-x,1/2-y,z
x,-y,1/2-z
1/2-x,y,-z
-x,-y,-z
x,1/2+y,-z
-x,y,1/2+z
1/2+x,-y,z
1/2+x,1/2+y,1/2+z
1/2-x,-y,1/2+z
1/2+x,1/2-y,-z
-x,1/2+y,1/2-z
1/2-x,1/2-y,1/2-z
1/2+x,y,1/2-z
1/2-x,1/2+y,z
x,1/2-y,1/2+z
loop_
_atom_site_type_symbol
_atom_site_label
_atom_site_fract_x
_atom_site_fract_y
_atom_site_fract_z
Si Si1 0.190398 0.870389 0.848668
Si Si2 0.144444 0.500000 0.250000
Si Si3 0.500000 0.250000 0.203690
Si Si4 0.874055 0.898018 0.961571
Si Si5 0.849329 0.000697 0.059116
Si Si6 0.894147 0.009675 0.866445
O O1 0.139684 0.002612 0.885067
O O2 0.139691 0.683865 0.851649
O O3 0.299793 0.868505 0.866715
O O4 0.197822 0.943465 0.796767
O O5 0.080979 0.335423 0.264368
O O6 0.537738 0.095321 0.171324
O O7 0.763758 0.960609 0.952017
O O8 0.931041 0.992183 0.919716
O O9 0.871438 0.698580 0.950719
O O10 0.900677 0.909385 0.015683
#
# Coordination Sequence:
#
# PCOD9531980 Si02
#       6
#    16   8   8  16  16  16
#     4  10  22  40  63  91 119 155 206 251 288 346
#     4  12  26  42  64  86 116 160 200 250 300 350
#     4  12  26  42  62  86 120 158 196 246 308 364
#     4   9  16  28  52  84 117 148 183 236 293 343
#     4   9  16  28  52  85 116 146 189 240 285 337
#     4  10  22  40  62  91 122 155 198 247 300 357
#
# _framework density 25.858256000000001
#
# number of rings (size 3 to 8) (size 9 to 14) (size 15 to 20)
#    0.000    2.000    0.000    4.800    0.000    8.800 
#    0.000    0.000    0.000   12.000    0.000    0.000 
#    0.000    0.000    0.000    0.000    0.000    0.000 
#
# Total GULP energy -223649.108942 kJ/mol
# GULP energy per Si atom -5591.227724 kJ/mol
# Density = 2.579940 g / cm^3
# Si number density = 25.858256 Si / 1000 Ang^3
#
#
#
# Elastic Constant Matrix: (Units=GPa)
#
#
# Indices 1 2 3 4 5 6 
#
# 1 47.2089 6.1130 19.8313 0.0000 0.0000 0.0000
# 2 6.1130 104.9113 63.7110 0.0000 0.0000 0.0000
# 3 19.8313 63.7110 190.2444 0.0000 0.0000 0.0000
# 4 0.0000 0.0000 0.0000 45.9019 0.0000 0.0000
# 5 0.0000 0.0000 0.0000 0.0000 37.8201 0.0000
# 6 0.0000 0.0000 0.0000 0.0000 0.0000 35.0183
#
#
#
# Elastic Compliance Matrix: (Units=1/GPa)
#
#
# Indices 1 2 3 4 5 6 
#
# 1 0.022154 0.000140 -0.002356 0.000000 0.000000 0.000000
# 2 0.000140 0.011966 -0.004022 0.000000 0.000000 0.000000
# 3 -0.002356 -0.004022 0.006849 0.000000 0.000000 0.000000
# 4 0.000000 0.000000 0.000000 0.021786 0.000000 0.000000
# 5 0.000000 0.000000 0.000000 0.000000 0.026441 0.000000
# 6 0.000000 0.000000 0.000000 0.000000 0.000000 0.028557
#
#
# Mechanical properties :
#
#
# Convention : Reuss Voigt Hill
#
# Bulk Modulus (GPa) = 35.09653 57.96392 46.53023
# Shear Modulus (GPa) = 35.78426 40.59535 38.18980
#
# Velocity S-wave (km/s) = 3.72407 3.96652 3.84720
# Velocity P-wave (km/s) = 5.66513 6.59108 6.14557
#
# Compressibility (1/GPa) = 0.02849284
#
# Stress axis : x y z
#
# Youngs Moduli (GPa) = 45.13836 83.56891 146.00821
#
# Poissons Ratio (x) = -0.01170 0.34403
# Poissons Ratio (y) = -0.00632 0.58724
# Poissons Ratio (z) = 0.10636 0.33611
#
# Static dielectric constant tensor:
#      x y z
#    x 2.142880 0.000000 0.000000 
#    y 0.000000 1.966080 0.000000 
#    z 0.000000 0.000000 8.582860 
# 
# From -- ./inp_files/5634.got.cif
#   From: 2010.05.17/outbox.cif.g08.bks.cpg/sg73_3_cif.got.tgz:5634.got - 2010.06.03 17:35:07.
