data_PCOD9531921
_publ_section_title
;
Structure prediction by ZEFSAII (Michael W. Deem and Ramdas Pophale) SiO2 
 PCOD9531921
Probable space group: I B C A 
;
_chemical_formula_sum "Si O2"
_cell_formula_units_Z 112
_cell_length_a 11.929586
_cell_length_b 13.813510
_cell_length_c 29.698588
_cell_angle_alpha 90.000000
_cell_angle_beta 90.000000
_cell_angle_gamma 90.000000
_cell_volume 4894.014146
_symmetry_space_group_name_H-M "I B C A "
_symmetry_group_IT_number 73
_symmetry_cell_setting 'orthorhombic'
loop_
_space_group_symop_operation_xyz
x,y,z
-x,1/2-y,z
x,-y,1/2-z
1/2-x,y,-z
-x,-y,-z
x,1/2+y,-z
-x,y,1/2+z
1/2+x,-y,z
1/2+x,1/2+y,1/2+z
1/2-x,-y,1/2+z
1/2+x,1/2-y,-z
-x,1/2+y,1/2-z
1/2-x,1/2-y,1/2-z
1/2+x,y,1/2-z
1/2-x,1/2+y,z
x,1/2-y,1/2+z
loop_
_atom_site_type_symbol
_atom_site_label
_atom_site_fract_x
_atom_site_fract_y
_atom_site_fract_z
Si Si1 0.774977 0.046569 0.646467
Si Si2 0.200915 0.144952 0.302093
Si Si3 0.451217 0.020986 0.930022
Si Si4 0.627236 0.085982 0.984794
Si Si5 0.314503 0.204985 0.958646
Si Si6 0.614779 0.299839 0.787760
Si Si7 0.627181 0.780040 0.884218
O O1 0.866359 0.000719 0.610957
O O2 0.842750 0.128574 0.673724
O O3 0.664367 0.108325 0.629899
O O4 0.754580 0.957200 0.679796
O O5 0.304400 0.207507 0.284609
O O6 0.116281 0.143156 0.259776
O O7 0.148596 0.209687 0.341930
O O8 0.584185 0.041059 0.937409
O O9 0.401759 0.126916 0.941915
O O10 0.438898 0.943650 0.970232
O O11 0.628593 0.199817 0.977579
O O12 0.750000 0.055764 0.000000
O O13 0.221885 0.237269 0.922147
O O14 0.250000 0.157203 0.000000
O O15 0.500000 0.250000 0.799941
O O16 0.500000 0.750000 0.898721
#
# Coordination Sequence:
#
# PCOD9531921 Si02
#       7
#    16  16  16  16  16  16  16
#     4  10  23  42  68 101 136 183 231 286 350 422
#     4  10  22  42  70 101 141 177 230 283 342 429
#     4  10  22  42  61  92 129 171 229 286 346 414
#     4  10  22  39  64  88 124 173 224 286 346 406
#     4  10  22  39  62  86 126 171 224 276 346 411
#     4  10  22  43  70 102 143 183 222 282 349 415
#     4  10  23  43  66  99 136 177 232 294 349 414
#
# _framework density 22.885096999999998
#
# number of rings (size 3 to 8) (size 9 to 14) (size 15 to 20)
#    0.000    2.000    0.000    1.714    4.000    6.857 
#    7.714    4.286    0.000    0.000    0.000    0.000 
#    0.000    0.000    0.000    0.000    0.000    0.000 
#
# Total GULP energy -311956.000087 kJ/mol
# GULP energy per Si atom -5570.642859 kJ/mol
# Density = 2.283301 g / cm^3
# Si number density = 22.885097 Si / 1000 Ang^3
#
#
#
# Elastic Constant Matrix: (Units=GPa)
#
#
# Indices 1 2 3 4 5 6 
#
# 1 90.6062 27.7904 14.5323 0.0000 0.0000 0.0000
# 2 27.7904 136.8629 35.4222 0.0000 0.0000 0.0000
# 3 14.5323 35.4222 73.5735 0.0000 0.0000 0.0000
# 4 0.0000 0.0000 0.0000 43.1127 0.0000 0.0000
# 5 0.0000 0.0000 0.0000 0.0000 12.0097 0.0000
# 6 0.0000 0.0000 0.0000 0.0000 0.0000 -2.8548
#
#
#
# Elastic Compliance Matrix: (Units=1/GPa)
#
#
# Indices 1 2 3 4 5 6 
#
# 1 0.011887 -0.002063 -0.001355 0.000000 0.000000 0.000000
# 2 -0.002063 0.008705 -0.003783 0.000000 0.000000 0.000000
# 3 -0.001355 -0.003783 0.015681 0.000000 0.000000 0.000000
# 4 0.000000 0.000000 0.000000 0.023195 0.000000 0.000000
# 5 0.000000 0.000000 0.000000 0.000000 0.083266 0.000000
# 6 0.000000 0.000000 0.000000 0.000000 0.000000 -0.350283
#
#
# Mechanical properties :
#
#
# Convention : Reuss Voigt Hill
#
# Bulk Modulus (GPa) = 45.72416 50.72584 48.22500
# Shear Modulus (GPa) = -26.90238 25.34002 -0.78118
#
# Velocity S-wave (km/s) = -3.43234 3.33118 -0.58488
# Velocity P-wave (km/s) = 2.07734 6.08352 4.54558
#
# Compressibility (1/GPa) = 0.02187028
#
# Stress axis : x y z
#
# Youngs Moduli (GPa) = 84.12687 114.88046 63.77164
#
# Poissons Ratio (x) = 0.23701 0.08639
# Poissons Ratio (y) = 0.17356 0.24127
# Poissons Ratio (z) = 0.11396 0.43464
#
# Static dielectric constant tensor:
#      x y z
#    x 2.093300 0.000000 0.000000 
#    y 0.000000 1.846300 0.000000 
#    z 0.000000 0.000000 1.917800 
# 
# From -- ./inp_files/34023.got.cif
#   From: 2010.05.17/outbox.cif.g08.bks.cpg/sg73_18_cif.got.tgz:34023.got - 2010.06.03 17:35:07.
