data_PCOD9531178
_publ_section_title
;
Structure prediction by ZEFSAII (Michael W. Deem and Ramdas Pophale) SiO2 
 PCOD9531178
Probable space group: I B C A 
;
_chemical_formula_sum "Si O2"
_cell_formula_units_Z 104
_cell_length_a 18.265263
_cell_length_b 14.318687
_cell_length_c 17.346059
_cell_angle_alpha 90.000000
_cell_angle_beta 90.000000
_cell_angle_gamma 90.000000
_cell_volume 4536.594322
_symmetry_space_group_name_H-M "I B C A "
_symmetry_group_IT_number 73
_symmetry_cell_setting 'orthorhombic'
loop_
_space_group_symop_operation_xyz
x,y,z
-x,1/2-y,z
x,-y,1/2-z
1/2-x,y,-z
-x,-y,-z
x,1/2+y,-z
-x,y,1/2+z
1/2+x,-y,z
1/2+x,1/2+y,1/2+z
1/2-x,-y,1/2+z
1/2+x,1/2-y,-z
-x,1/2+y,1/2-z
1/2-x,1/2-y,1/2-z
1/2+x,y,1/2-z
1/2-x,1/2+y,z
x,1/2-y,1/2+z
loop_
_atom_site_type_symbol
_atom_site_label
_atom_site_fract_x
_atom_site_fract_y
_atom_site_fract_z
Si Si1 0.136960 0.743635 0.323994
Si Si2 0.228150 0.423243 0.683632
Si Si3 0.556492 0.620792 0.464998
Si Si4 0.329597 0.282531 0.992163
Si Si5 0.396742 0.090458 0.197476
Si Si6 0.669696 0.987231 0.463428
Si Si7 0.500000 0.750000 0.077886
O O1 0.194842 0.821560 0.297893
O O2 0.166594 0.690711 0.400956
O O3 0.113288 0.676186 0.255924
O O4 0.063546 0.782346 0.364026
O O5 0.224365 0.500000 0.750000
O O6 0.314327 0.420013 0.662376
O O7 0.176494 0.460801 0.616807
O O8 0.613742 0.705391 0.480340
O O9 0.547888 0.608713 0.373290
O O10 0.599025 0.529614 0.494360
O O11 0.491822 0.660033 0.520392
O O12 0.250000 0.238101 0.000000
O O13 0.335019 0.375949 0.041251
O O14 0.413982 0.000000 0.250000
O O15 0.750000 0.004752 0.500000
#
# Coordination Sequence:
#
# PCOD9531178 Si02
#       7
#    16  16  16  16  16  16   8
#     4  11  23  44  61  92 133 166 214 270 322 377
#     4  11  23  37  64 100 134 164 205 262 341 399
#     4  11  21  42  64  90 124 173 219 264 316 379
#     4  10  21  33  63  93 123 168 207 256 324 388
#     4  11  24  39  64  98 132 161 203 271 345 395
#     4  11  20  37  62  94 133 160 209 263 322 388
#     4  10  24  44  68  86 118 182 226 268 298 376
#
# _framework density 22.924686999999999
#
# number of rings (size 3 to 8) (size 9 to 14) (size 15 to 20)
#    0.000    1.231    4.615    2.769    8.615    0.615 
#    0.000    7.692    0.000    0.000    0.000    0.000 
#    0.000    0.000    0.000    0.000    0.000    0.000 
#
# Total GULP energy -290184.778317 kJ/mol
# GULP energy per Si atom -5580.476506 kJ/mol
# Density = 2.287251 g / cm^3
# Si number density = 22.924687 Si / 1000 Ang^3
#
#
#
# Elastic Constant Matrix: (Units=GPa)
#
#
# Indices 1 2 3 4 5 6 
#
# 1 37.6990 -1.4076 -16.1303 0.0000 0.0000 0.0000
# 2 -1.4076 109.1422 6.8302 0.0000 0.0000 0.0000
# 3 -16.1303 6.8302 81.3876 0.0000 0.0000 0.0000
# 4 0.0000 0.0000 0.0000 32.8071 0.0000 0.0000
# 5 0.0000 0.0000 0.0000 0.0000 -287.2860 0.0000
# 6 0.0000 0.0000 0.0000 0.0000 0.0000 58.9798
#
#
#
# Elastic Compliance Matrix: (Units=1/GPa)
#
#
# Indices 1 2 3 4 5 6 
#
# 1 0.028984 0.000014 0.005743 0.000000 0.000000 0.000000
# 2 0.000014 0.009211 -0.000770 0.000000 0.000000 0.000000
# 3 0.005743 -0.000770 0.013490 0.000000 0.000000 0.000000
# 4 0.000000 0.000000 0.000000 0.030481 0.000000 0.000000
# 5 0.000000 0.000000 0.000000 0.000000 -0.003481 0.000000
# 6 0.000000 0.000000 0.000000 0.000000 0.000000 0.016955
#
#
# Mechanical properties :
#
#
# Convention : Reuss Voigt Hill
#
# Bulk Modulus (GPa) = 16.21825 22.97926 19.59875
# Shear Modulus (GPa) = 47.07313 -23.17070 11.95121
#
# Velocity S-wave (km/s) = 4.53634 -3.18265 2.28573
# Velocity P-wave (km/s) = 5.87604 1.86014 3.94130
#
# Compressibility (1/GPa) = 0.06165895
#
# Stress axis : x y z
#
# Youngs Moduli (GPa) = 34.50214 108.56887 74.13040
#
# Poissons Ratio (x) = -0.00156 -0.42574
# Poissons Ratio (y) = -0.00050 0.05709
# Poissons Ratio (z) = -0.19815 0.08361
#
# Static dielectric constant tensor:
#      x y z
#    x 1.968140 0.000000 0.000000 
#    y 0.000000 1.836770 0.000000 
#    z 0.000000 0.000000 1.901750 
# 
# From -- ./inp_files/23218.got.cif
#   From: 2010.05.17/outbox.cif.g08.bks.cpg/sg73_12_cif.got.tgz:23218.got - 2010.06.03 17:35:07.
