data_PCOD9531753
_publ_section_title
;
Structure prediction by ZEFSAII (Michael W. Deem and Ramdas Pophale) SiO2 
 PCOD9531753
Probable space group: I B C A 
;
_chemical_formula_sum "Si O2"
_cell_formula_units_Z 56
_cell_length_a 16.029944
_cell_length_b 14.155537
_cell_length_c 11.345846
_cell_angle_alpha 90.000000
_cell_angle_beta 90.000000
_cell_angle_gamma 90.000000
_cell_volume 2574.513888
_symmetry_space_group_name_H-M "I B C A "
_symmetry_group_IT_number 73
_symmetry_cell_setting 'orthorhombic'
loop_
_space_group_symop_operation_xyz
x,y,z
-x,1/2-y,z
x,-y,1/2-z
1/2-x,y,-z
-x,-y,-z
x,1/2+y,-z
-x,y,1/2+z
1/2+x,-y,z
1/2+x,1/2+y,1/2+z
1/2-x,-y,1/2+z
1/2+x,1/2-y,-z
-x,1/2+y,1/2-z
1/2-x,1/2-y,1/2-z
1/2+x,y,1/2-z
1/2-x,1/2+y,z
x,1/2-y,1/2+z
loop_
_atom_site_type_symbol
_atom_site_label
_atom_site_fract_x
_atom_site_fract_y
_atom_site_fract_z
Si Si1 0.500000 0.250000 0.609260
Si Si2 0.599544 0.890271 0.262226
Si Si3 0.767527 0.061651 0.129607
Si Si4 0.840595 0.745967 0.443018
O O1 0.481908 0.160941 0.690895
O O2 0.417366 0.259847 0.532608
O O3 0.678281 0.888719 0.349586
O O4 0.635552 0.833380 0.151906
O O5 0.581212 0.000000 0.250000
O O6 0.832141 0.148466 0.114053
O O7 0.782379 0.000000 0.250000
O O8 0.750000 0.013741 0.000000
O O9 0.750000 0.726629 0.500000
#
# Coordination Sequence:
#
# PCOD9531753 Si02
#       4
#     8  16  16  16
#     4  12  24  48  76 106 162 192 272 324 394 472
#     4  11  25  46  73 111 149 201 268 324 393 468
#     4  10  21  44  78 117 147 199 263 321 394 468
#     4  11  24  48  75 109 154 212 258 322 398 467
#
# _framework density 21.75168
#
# number of rings (size 3 to 8) (size 9 to 14) (size 15 to 20)
#    0.000    1.143    5.714    1.714    0.000    5.714 
#    0.000    7.143    0.000    0.000    0.000    0.000 
#    0.000    0.000    0.000    0.000    0.000    0.000 
#
# Total GULP energy -156147.525276 kJ/mol
# GULP energy per Si atom -5576.697331 kJ/mol
# Density = 2.170217 g / cm^3
# Si number density = 21.751680 Si / 1000 Ang^3
#
#
#
# Elastic Constant Matrix: (Units=GPa)
#
#
# Indices 1 2 3 4 5 6 
#
# 1 149.1537 74.2904 67.7044 0.0000 0.0000 0.0000
# 2 74.2904 160.4036 97.1585 0.0000 0.0000 0.0000
# 3 67.7044 97.1585 161.1079 0.0000 0.0000 0.0000
# 4 0.0000 0.0000 0.0000 -87.0775 0.0000 0.0000
# 5 0.0000 0.0000 0.0000 0.0000 66.9172 0.0000
# 6 0.0000 0.0000 0.0000 0.0000 0.0000 52.9592
#
#
#
# Elastic Compliance Matrix: (Units=1/GPa)
#
#
# Indices 1 2 3 4 5 6 
#
# 1 0.009115 -0.002996 -0.002024 0.000000 0.000000 0.000000
# 2 -0.002996 0.010807 -0.005258 0.000000 0.000000 0.000000
# 3 -0.002024 -0.005258 0.010229 0.000000 0.000000 0.000000
# 4 0.000000 0.000000 0.000000 -0.011484 0.000000 0.000000
# 5 0.000000 0.000000 0.000000 0.000000 0.014944 0.000000
# 6 0.000000 0.000000 0.000000 0.000000 0.000000 0.018882
#
#
# Mechanical properties :
#
#
# Convention : Reuss Voigt Hill
#
# Bulk Modulus (GPa) = 104.22384 105.44131 104.83258
# Shear Modulus (GPa) = 65.57616 21.99392 43.78504
#
# Velocity S-wave (km/s) = 5.49664 3.18329 4.49146
# Velocity P-wave (km/s) = 9.39699 7.87981 8.67164
#
# Compressibility (1/GPa) = 0.00959473
#
# Stress axis : x y z
#
# Youngs Moduli (GPa) = 109.70471 92.53509 97.76488
#
# Poissons Ratio (x) = 0.27722 0.19788
# Poissons Ratio (y) = 0.32865 0.51407
# Poissons Ratio (z) = 0.22204 0.48657
#
# Static dielectric constant tensor:
#      x y z
#    x 1.750560 0.000000 0.000000 
#    y 0.000000 1.866010 0.000000 
#    z 0.000000 0.000000 1.926330 
# 
# From -- ./inp_files/10214.got.cif
#   From: 2010.05.17/outbox.cif.g08.bks.cpg/sg73_6_cif.got.tgz:10214.got - 2010.06.03 17:35:07.
