data_PCOD9531475
_publ_section_title
;
Structure prediction by ZEFSAII (Michael W. Deem and Ramdas Pophale) SiO2 
 PCOD9531475
Probable space group: I B C A 
;
_chemical_formula_sum "Si O2"
_cell_formula_units_Z 96
_cell_length_a 16.073598
_cell_length_b 15.158916
_cell_length_c 19.453401
_cell_angle_alpha 90.000000
_cell_angle_beta 90.000000
_cell_angle_gamma 90.000000
_cell_volume 4739.983043
_symmetry_space_group_name_H-M "I B C A "
_symmetry_group_IT_number 73
_symmetry_cell_setting 'orthorhombic'
loop_
_space_group_symop_operation_xyz
x,y,z
-x,1/2-y,z
x,-y,1/2-z
1/2-x,y,-z
-x,-y,-z
x,1/2+y,-z
-x,y,1/2+z
1/2+x,-y,z
1/2+x,1/2+y,1/2+z
1/2-x,-y,1/2+z
1/2+x,1/2-y,-z
-x,1/2+y,1/2-z
1/2-x,1/2-y,1/2-z
1/2+x,y,1/2-z
1/2-x,1/2+y,z
x,1/2-y,1/2+z
loop_
_atom_site_type_symbol
_atom_site_label
_atom_site_fract_x
_atom_site_fract_y
_atom_site_fract_z
Si Si1 0.148922 0.191504 0.631567
Si Si2 0.925190 0.993658 0.552525
Si Si3 0.150508 0.180035 0.010597
Si Si4 0.982657 0.550787 0.816958
Si Si5 0.158284 0.178776 0.403293
Si Si6 0.413786 0.802083 0.753194
O O1 0.117432 0.257366 0.572042
O O2 0.088401 0.108895 0.645547
O O3 0.242052 0.171536 0.606438
O O4 0.145512 0.245225 0.703363
O O5 0.874100 0.081786 0.533286
O O6 0.970841 0.993418 0.626382
O O7 0.872239 0.904247 0.551742
O O8 0.000000 0.000000 0.500000
O O9 0.250000 0.180418 0.000000
O O10 0.125908 0.231347 0.940399
O O11 0.948138 0.500000 0.750000
O O12 0.055881 0.612409 0.787527
O O13 0.124651 0.177490 0.326168
O O14 0.500000 0.750000 0.763424
#
# Coordination Sequence:
#
# PCOD9531475 Si02
#       6
#    16  16  16  16  16  16
#     4  10  22  43  67  93 131 181 221 276 340 402
#     4  12  26  40  66  99 134 178 223 278 339 406
#     4  10  24  44  66  93 134 175 219 278 341 397
#     4  11  22  42  64  97 134 173 223 274 338 402
#     4  11  24  42  66 100 133 174 233 279 336 406
#     4  10  21  39  67  93 130 170 220 271 333 406
#
# _framework density 20.253236999999999
#
# number of rings (size 3 to 8) (size 9 to 14) (size 15 to 20)
#    0.000    1.333    3.333    1.500    2.333    4.667 
#    3.000    1.667    0.000    0.000    0.000    0.000 
#    0.000    0.000    0.000    0.000    0.000    0.000 
#
# Total GULP energy -267716.217374 kJ/mol
# GULP energy per Si atom -5577.421195 kJ/mol
# Density = 2.020714 g / cm^3
# Si number density = 20.253237 Si / 1000 Ang^3
#
#
#
# Elastic Constant Matrix: (Units=GPa)
#
#
# Indices 1 2 3 4 5 6 
#
# 1 43.7828 14.3548 34.6262 0.0000 0.0000 0.0000
# 2 14.3548 55.1976 18.9185 0.0000 0.0000 0.0000
# 3 34.6262 18.9185 67.0716 0.0000 0.0000 0.0000
# 4 0.0000 0.0000 0.0000 31.1847 0.0000 0.0000
# 5 0.0000 0.0000 0.0000 0.0000 12.1760 0.0000
# 6 0.0000 0.0000 0.0000 0.0000 0.0000 26.9282
#
#
#
# Elastic Compliance Matrix: (Units=1/GPa)
#
#
# Indices 1 2 3 4 5 6 
#
# 1 0.039239 -0.003611 -0.019239 0.000000 0.000000 0.000000
# 2 -0.003611 0.020388 -0.003887 0.000000 0.000000 0.000000
# 3 -0.019239 -0.003887 0.025938 0.000000 0.000000 0.000000
# 4 0.000000 0.000000 0.000000 0.032067 0.000000 0.000000
# 5 0.000000 0.000000 0.000000 0.000000 0.082129 0.000000
# 6 0.000000 0.000000 0.000000 0.000000 0.000000 0.037136
#
#
# Mechanical properties :
#
#
# Convention : Reuss Voigt Hill
#
# Bulk Modulus (GPa) = 31.16006 33.53899 32.34953
# Shear Modulus (GPa) = 16.60761 20.60130 18.60446
#
# Velocity S-wave (km/s) = 2.86667 3.19279 3.03412
# Velocity P-wave (km/s) = 5.13572 5.49433 5.31805
#
# Compressibility (1/GPa) = 0.03209237
#
# Stress axis : x y z
#
# Youngs Moduli (GPa) = 25.48463 49.04888 38.55343
#
# Poissons Ratio (x) = 0.17710 0.74173
# Poissons Ratio (y) = 0.09202 0.14984
# Poissons Ratio (z) = 0.49030 0.19064
#
# Static dielectric constant tensor:
#      x y z
#    x 1.706140 0.000000 0.000000 
#    y 0.000000 1.819180 0.000000 
#    z 0.000000 0.000000 1.759550 
# 
# From -- ./inp_files/17009.got.cif
#   From: 2010.05.17/outbox.cif.g08.bks.cpg/sg73_9_cif.got.tgz:17009.got - 2010.06.03 17:35:07.
