data_PCOD9531692
_publ_section_title
;
Structure prediction by ZEFSAII (Michael W. Deem and Ramdas Pophale) SiO2 
 PCOD9531692
Probable space group: I B C A 
;
_chemical_formula_sum "Si O2"
_cell_formula_units_Z 88
_cell_length_a 20.528232
_cell_length_b 12.768343
_cell_length_c 17.463306
_cell_angle_alpha 90.000000
_cell_angle_beta 90.000000
_cell_angle_gamma 90.000000
_cell_volume 4577.333459
_symmetry_space_group_name_H-M "I B C A "
_symmetry_group_IT_number 73
_symmetry_cell_setting 'orthorhombic'
loop_
_space_group_symop_operation_xyz
x,y,z
-x,1/2-y,z
x,-y,1/2-z
1/2-x,y,-z
-x,-y,-z
x,1/2+y,-z
-x,y,1/2+z
1/2+x,-y,z
1/2+x,1/2+y,1/2+z
1/2-x,-y,1/2+z
1/2+x,1/2-y,-z
-x,1/2+y,1/2-z
1/2-x,1/2-y,1/2-z
1/2+x,y,1/2-z
1/2-x,1/2+y,z
x,1/2-y,1/2+z
loop_
_atom_site_type_symbol
_atom_site_label
_atom_site_fract_x
_atom_site_fract_y
_atom_site_fract_z
Si Si1 0.174098 0.919126 0.508889
Si Si2 0.496911 0.929611 0.810362
Si Si3 0.941272 0.072508 0.969283
Si Si4 0.363281 0.516463 0.661951
Si Si5 0.000000 0.750000 0.801013
Si Si6 0.611430 0.768589 0.585114
O O1 0.250000 0.941350 0.500000
O O2 0.161855 0.931044 0.600495
O O3 0.154807 0.813334 0.462769
O O4 0.125111 0.006132 0.474615
O O5 0.456925 0.895499 0.883100
O O6 0.558679 0.996679 0.838466
O O7 0.523756 0.837238 0.758169
O O8 0.457262 0.000000 0.750000
O O9 0.932811 0.172063 0.022821
O O10 0.000000 0.000000 0.000000
O O11 0.341513 0.500000 0.750000
O O12 0.352422 0.634520 0.629248
O O13 0.060787 0.717684 0.854438
#
# Coordination Sequence:
#
# PCOD9531692 Si02
#       6
#    16  16  16  16   8  16
#     4  11  25  42  62  92 129 174 225 264 320 402
#     4  11  20  36  58  97 128 155 208 266 334 377
#     4  11  21  39  64  91 121 161 212 268 324 378
#     4  10  21  43  63  88 130 169 207 266 331 382
#     4  12  22  32  62  98 130 160 204 280 336 390
#     4  11  22  36  61  90 128 165 210 258 327 388
#
# _framework density 19.225168
#
# number of rings (size 3 to 8) (size 9 to 14) (size 15 to 20)
#    0.000    1.091    7.273    2.182    2.545    2.909 
#    0.000    3.636    0.000    0.000    0.000    0.000 
#    0.000    0.000    0.000    0.000    0.000    0.000 
#
# Total GULP energy -245119.695733 kJ/mol
# GULP energy per Si atom -5570.902176 kJ/mol
# Density = 1.918141 g / cm^3
# Si number density = 19.225168 Si / 1000 Ang^3
#
#
#
# Elastic Constant Matrix: (Units=GPa)
#
#
# Indices 1 2 3 4 5 6 
#
# 1 95.5189 27.6853 38.1504 0.0000 0.0000 0.0000
# 2 27.6853 58.8755 32.7249 0.0000 0.0000 0.0000
# 3 38.1504 32.7249 168.6959 0.0000 0.0000 0.0000
# 4 0.0000 0.0000 0.0000 40.6974 0.0000 0.0000
# 5 0.0000 0.0000 0.0000 0.0000 9.7752 0.0000
# 6 0.0000 0.0000 0.0000 0.0000 0.0000 14.7443
#
#
#
# Elastic Compliance Matrix: (Units=1/GPa)
#
#
# Indices 1 2 3 4 5 6 
#
# 1 0.012649 -0.004885 -0.001913 0.000000 0.000000 0.000000
# 2 -0.004885 0.020924 -0.002954 0.000000 0.000000 0.000000
# 3 -0.001913 -0.002954 0.006934 0.000000 0.000000 0.000000
# 4 0.000000 0.000000 0.000000 0.024572 0.000000 0.000000
# 5 0.000000 0.000000 0.000000 0.000000 0.102299 0.000000
# 6 0.000000 0.000000 0.000000 0.000000 0.000000 0.067823
#
#
# Mechanical properties :
#
#
# Convention : Reuss Voigt Hill
#
# Bulk Modulus (GPa) = 47.61326 57.80128 52.70727
# Shear Modulus (GPa) = 19.10548 28.01204 23.55876
#
# Velocity S-wave (km/s) = 3.15584 3.82127 3.50439
# Velocity P-wave (km/s) = 6.17244 7.04274 6.62190
#
# Compressibility (1/GPa) = 0.02100255
#
# Stress axis : x y z
#
# Youngs Moduli (GPa) = 79.05788 47.79187 144.22625
#
# Poissons Ratio (x) = 0.23345 0.27590
# Poissons Ratio (y) = 0.38617 0.42609
# Poissons Ratio (z) = 0.15124 0.14119
#
# Static dielectric constant tensor:
#      x y z
#    x 1.666590 0.000000 0.000000 
#    y 0.000000 1.773290 0.000000 
#    z 0.000000 0.000000 1.734730 
# 
# From -- ./inp_files/23069.got.cif
#   From: 2010.05.17/outbox.cif.g08.bks.cpg/sg73_12_cif.got.tgz:23069.got - 2010.06.03 17:35:07.
