data_PCOD9531362
_publ_section_title
;
Structure prediction by ZEFSAII (Michael W. Deem and Ramdas Pophale) SiO2 
 PCOD9531362
Probable space group: I B C A 
;
_chemical_formula_sum "Si O2"
_cell_formula_units_Z 88
_cell_length_a 8.753715
_cell_length_b 20.327480
_cell_length_c 21.770297
_cell_angle_alpha 90.000000
_cell_angle_beta 90.000000
_cell_angle_gamma 90.000000
_cell_volume 3873.827691
_symmetry_space_group_name_H-M "I B C A "
_symmetry_group_IT_number 73
_symmetry_cell_setting 'orthorhombic'
loop_
_space_group_symop_operation_xyz
x,y,z
-x,1/2-y,z
x,-y,1/2-z
1/2-x,y,-z
-x,-y,-z
x,1/2+y,-z
-x,y,1/2+z
1/2+x,-y,z
1/2+x,1/2+y,1/2+z
1/2-x,-y,1/2+z
1/2+x,1/2-y,-z
-x,1/2+y,1/2-z
1/2-x,1/2-y,1/2-z
1/2+x,y,1/2-z
1/2-x,1/2+y,z
x,1/2-y,1/2+z
loop_
_atom_site_type_symbol
_atom_site_label
_atom_site_fract_x
_atom_site_fract_y
_atom_site_fract_z
Si Si1 0.178544 0.556126 0.669340
Si Si2 0.000000 0.750000 0.775466
Si Si3 0.500000 0.250000 0.064803
Si Si4 0.915268 0.000000 0.250000
Si Si5 0.636285 0.018190 0.941928
Si Si6 0.704591 0.201464 0.165343
Si Si7 0.433155 0.113897 0.003702
O O1 0.025500 0.526729 0.697058
O O2 0.302166 0.556039 0.724977
O O3 0.259311 0.513974 0.617413
O O4 0.166247 0.628754 0.643500
O O5 0.880581 0.711323 0.817721
O O6 0.892890 0.790232 0.728223
O O7 0.643395 0.249842 0.112293
O O8 0.500155 0.183623 0.024652
O O9 0.551800 0.948375 0.949822
O O10 0.750000 0.025388 0.000000
O O11 0.520992 0.080596 0.945528
O O12 0.250000 0.123057 0.000000
#
# Coordination Sequence:
#
# PCOD9531362 Si02
#       7
#    16   8   8   8  16  16  16
#     4  11  23  42  65  96 135 171 224 276 342 396
#     4   9  20  40  57  90 126 174 233 249 322 402
#     4  11  24  40  65  96 134 168 219 279 334 410
#     4  10  26  40  60 104 132 174 218 290 332 394
#     4  10  23  43  71  97 129 175 219 277 344 413
#     4  10  21  38  63  89 127 177 213 275 323 394
#     4  10  24  43  64  97 126 169 216 272 339 397
#
# _framework density 22.716550000000002
#
# number of rings (size 3 to 8) (size 9 to 14) (size 15 to 20)
#    0.000    1.818    0.000    2.182   10.182    3.636 
#    6.545    0.000    0.000    0.000    0.000    0.000 
#    0.000    0.000    0.000    0.000    0.000    0.000 
#
# Total GULP energy -245681.256842 kJ/mol
# GULP energy per Si atom -5583.664928 kJ/mol
# Density = 2.266485 g / cm^3
# Si number density = 22.716550 Si / 1000 Ang^3
#
#
#
# Elastic Constant Matrix: (Units=GPa)
#
#
# Indices 1 2 3 4 5 6 
#
# 1 120.7536 22.2621 21.7885 0.0000 0.0000 0.0000
# 2 22.2621 106.6376 11.6659 0.0000 0.0000 0.0000
# 3 21.7885 11.6659 47.7301 0.0000 0.0000 0.0000
# 4 0.0000 0.0000 0.0000 28.8312 0.0000 0.0000
# 5 0.0000 0.0000 0.0000 0.0000 32.3165 0.0000
# 6 0.0000 0.0000 0.0000 0.0000 0.0000 25.6335
#
#
#
# Elastic Compliance Matrix: (Units=1/GPa)
#
#
# Indices 1 2 3 4 5 6 
#
# 1 0.009256 -0.001510 -0.003856 0.000000 0.000000 0.000000
# 2 -0.001510 0.009882 -0.001726 0.000000 0.000000 0.000000
# 3 -0.003856 -0.001726 0.023133 0.000000 0.000000 0.000000
# 4 0.000000 0.000000 0.000000 0.034685 0.000000 0.000000
# 5 0.000000 0.000000 0.000000 0.000000 0.030944 0.000000
# 6 0.000000 0.000000 0.000000 0.000000 0.000000 0.039011
#
#
# Mechanical properties :
#
#
# Convention : Reuss Voigt Hill
#
# Bulk Modulus (GPa) = 35.60466 42.95049 39.27757
# Shear Modulus (GPa) = 29.33297 31.98321 30.65809
#
# Velocity S-wave (km/s) = 3.59731 3.75630 3.67767
# Velocity P-wave (km/s) = 5.74122 6.14502 5.94655
#
# Compressibility (1/GPa) = 0.02808621
#
# Stress axis : x y z
#
# Youngs Moduli (GPa) = 108.04340 101.19749 43.22802
#
# Poissons Ratio (x) = 0.15285 0.16668
# Poissons Ratio (y) = 0.16319 0.07460
# Poissons Ratio (z) = 0.41661 0.17464
#
# Static dielectric constant tensor:
#      x y z
#    x 1.865160 0.000000 0.000000 
#    y 0.000000 1.851090 0.000000 
#    z 0.000000 0.000000 1.889470 
# 
# From -- ./inp_files/6331.got.cif
#   From: 2010.05.17/outbox.cif.g08.bks.cpg/sg73_4_cif.got.tgz:6331.got - 2010.06.03 17:35:07.
