data_PCOD9531959
_publ_section_title
;
Structure prediction by ZEFSAII (Michael W. Deem and Ramdas Pophale) SiO2 
 PCOD9531959
Probable space group: I B C A 
;
_chemical_formula_sum "Si O2"
_cell_formula_units_Z 88
_cell_length_a 10.673282
_cell_length_b 15.315780
_cell_length_c 25.552324
_cell_angle_alpha 90.000000
_cell_angle_beta 90.000000
_cell_angle_gamma 90.000000
_cell_volume 4177.029180
_symmetry_space_group_name_H-M "I B C A "
_symmetry_group_IT_number 73
_symmetry_cell_setting 'orthorhombic'
loop_
_space_group_symop_operation_xyz
x,y,z
-x,1/2-y,z
x,-y,1/2-z
1/2-x,y,-z
-x,-y,-z
x,1/2+y,-z
-x,y,1/2+z
1/2+x,-y,z
1/2+x,1/2+y,1/2+z
1/2-x,-y,1/2+z
1/2+x,1/2-y,-z
-x,1/2+y,1/2-z
1/2-x,1/2-y,1/2-z
1/2+x,y,1/2-z
1/2-x,1/2+y,z
x,1/2-y,1/2+z
loop_
_atom_site_type_symbol
_atom_site_label
_atom_site_fract_x
_atom_site_fract_y
_atom_site_fract_z
Si Si1 0.058996 0.594239 0.625807
Si Si2 0.238975 0.330096 0.193021
Si Si3 0.500000 0.250000 0.545188
Si Si4 0.000000 0.250000 0.639563
Si Si5 0.828577 0.363785 0.804801
Si Si6 0.250000 0.830470 0.500000
Si Si7 0.356655 0.409150 0.399010
O O1 0.196617 0.613450 0.648519
O O2 0.024738 0.667258 0.583213
O O3 0.066142 0.498052 0.602186
O O4 0.961724 0.602798 0.674250
O O5 0.217782 0.383352 0.246252
O O6 0.325530 0.242815 0.197026
O O7 0.106904 0.291281 0.175486
O O8 0.626662 0.227438 0.513176
O O9 0.052059 0.327041 0.604593
O O10 0.730199 0.398422 0.847594
O O11 0.275096 0.892150 0.549761
#
# Coordination Sequence:
#
# PCOD9531959 Si02
#       7
#    16  16   8   8  16   8  16
#     4  12  24  45  73 104 144 190 229 303 356 441
#     4  10  22  39  75  95 143 190 229 280 360 425
#     4  12  25  49  80 104 148 186 252 308 374 438
#     4  10  23  45  64 106 138 184 234 296 344 430
#     4  10  22  44  63 104 138 185 235 285 345 434
#     4  12  26  50  72 106 138 198 250 312 370 438
#     4  11  26  45  70 100 145 179 243 298 358 423
#
# _framework density 21.067606000000001
#
# number of rings (size 3 to 8) (size 9 to 14) (size 15 to 20)
#    0.000    1.091    3.636    1.636   10.182    2.182 
#    0.000    0.000    0.000    0.000    0.000    0.000 
#    0.000    0.000    0.000    0.000    0.000    0.000 
#
# Total GULP energy -245872.630886 kJ/mol
# GULP energy per Si atom -5588.014338 kJ/mol
# Density = 2.101966 g / cm^3
# Si number density = 21.067606 Si / 1000 Ang^3
#
#
#
# Elastic Constant Matrix: (Units=GPa)
#
#
# Indices 1 2 3 4 5 6 
#
# 1 118.7487 45.3346 51.0936 0.0000 0.0000 0.0000
# 2 45.3346 115.3050 49.9168 0.0000 0.0000 0.0000
# 3 51.0936 49.9168 113.9017 0.0000 0.0000 0.0000
# 4 0.0000 0.0000 0.0000 -10.6333 0.0000 0.0000
# 5 0.0000 0.0000 0.0000 0.0000 32.4750 0.0000
# 6 0.0000 0.0000 0.0000 0.0000 0.0000 23.5353
#
#
#
# Elastic Compliance Matrix: (Units=1/GPa)
#
#
# Indices 1 2 3 4 5 6 
#
# 1 0.011087 -0.002723 -0.003780 0.000000 0.000000 0.000000
# 2 -0.002723 0.011372 -0.003762 0.000000 0.000000 0.000000
# 3 -0.003780 -0.003762 0.012124 0.000000 0.000000 0.000000
# 4 0.000000 0.000000 0.000000 -0.094044 0.000000 0.000000
# 5 0.000000 0.000000 0.000000 0.000000 0.030793 0.000000
# 6 0.000000 0.000000 0.000000 0.000000 0.000000 0.042489
#
#
# Mechanical properties :
#
#
# Convention : Reuss Voigt Hill
#
# Bulk Modulus (GPa) = 71.16122 71.18280 71.17201
# Shear Modulus (GPa) = 128.08814 22.51610 75.30212
#
# Velocity S-wave (km/s) = 7.80581 3.27273 5.98504
# Velocity P-wave (km/s) = 10.72808 6.93845 9.03421
#
# Compressibility (1/GPa) = 0.01405260
#
# Stress axis : x y z
#
# Youngs Moduli (GPa) = 90.19531 87.93627 82.48067
#
# Poissons Ratio (x) = 0.23942 0.31179
# Poissons Ratio (y) = 0.24557 0.31032
# Poissons Ratio (z) = 0.34096 0.33085
#
# Static dielectric constant tensor:
#      x y z
#    x 1.799130 0.000000 0.000000 
#    y 0.000000 1.748250 0.000000 
#    z 0.000000 0.000000 1.788180 
# 
# From -- ./inp_files/11008.got.cif
#   From: 2010.05.17/outbox.cif.g08.bks.cpg/sg73_6_cif.got.tgz:11008.got - 2010.06.03 17:35:07.
