data_PCOD9531587
_publ_section_title
;
Structure prediction by ZEFSAII (Michael W. Deem and Ramdas Pophale) SiO2 
 PCOD9531587
Probable space group: I B C A 
;
_chemical_formula_sum "Si O2"
_cell_formula_units_Z 72
_cell_length_a 24.184604
_cell_length_b 12.985926
_cell_length_c 8.901225
_cell_angle_alpha 90.000000
_cell_angle_beta 90.000000
_cell_angle_gamma 90.000000
_cell_volume 2795.514076
_symmetry_space_group_name_H-M "I B C A "
_symmetry_group_IT_number 73
_symmetry_cell_setting 'orthorhombic'
loop_
_space_group_symop_operation_xyz
x,y,z
-x,1/2-y,z
x,-y,1/2-z
1/2-x,y,-z
-x,-y,-z
x,1/2+y,-z
-x,y,1/2+z
1/2+x,-y,z
1/2+x,1/2+y,1/2+z
1/2-x,-y,1/2+z
1/2+x,1/2-y,-z
-x,1/2+y,1/2-z
1/2-x,1/2-y,1/2-z
1/2+x,y,1/2-z
1/2-x,1/2+y,z
x,1/2-y,1/2+z
loop_
_atom_site_type_symbol
_atom_site_label
_atom_site_fract_x
_atom_site_fract_y
_atom_site_fract_z
Si Si1 0.149060 0.748067 0.665413
Si Si2 0.245069 0.000000 0.750000
Si Si3 0.250000 0.141243 0.500000
Si Si4 0.344478 0.899079 0.567273
Si Si5 0.024315 0.500000 0.250000
Si Si6 0.569705 0.916558 0.458432
O O1 0.206131 0.704182 0.595038
O O2 0.151957 0.864120 0.605524
O O3 0.145466 0.703878 0.833268
O O4 0.098274 0.688832 0.587585
O O5 0.218000 0.075226 0.628049
O O6 0.287336 0.060981 0.861458
O O7 0.388951 0.989550 0.585353
O O8 0.057566 0.571659 0.365164
O O9 0.985502 0.566735 0.139181
#
# Coordination Sequence:
#
# PCOD9531587 Si02
#       6
#    16   8   8  16   8  16
#     4  11  24  40  65  97 133 174 220 268 325 396
#     4  10  21  41  64  90 136 178 217 277 318 396
#     4  10  22  40  64  98 128 180 218 262 336 386
#     4  11  22  43  65  91 140 172 213 280 327 382
#     4  10  23  39  78  90 126 178 215 273 344 394
#     4  11  21  47  65  98 132 171 218 275 336 388
#
# _framework density 25.755547
#
# number of rings (size 3 to 8) (size 9 to 14) (size 15 to 20)
#    0.000    1.333    6.667    0.000    3.111    7.111 
#    0.000    6.667    0.000    0.000    0.000    0.000 
#    0.000    0.000    0.000    0.000    0.000    0.000 
#
# Total GULP energy -201428.832659 kJ/mol
# GULP energy per Si atom -5595.245352 kJ/mol
# Density = 2.569693 g / cm^3
# Si number density = 25.755547 Si / 1000 Ang^3
#
#
#
# Elastic Constant Matrix: (Units=GPa)
#
#
# Indices 1 2 3 4 5 6 
#
# 1 32.0621 -9.0174 20.6557 0.0000 0.0000 0.0000
# 2 -9.0174 43.8693 8.8372 0.0000 0.0000 0.0000
# 3 20.6557 8.8372 162.8041 0.0000 0.0000 0.0000
# 4 0.0000 0.0000 0.0000 44.9265 0.0000 0.0000
# 5 0.0000 0.0000 0.0000 0.0000 39.3574 0.0000
# 6 0.0000 0.0000 0.0000 0.0000 0.0000 40.1273
#
#
#
# Elastic Compliance Matrix: (Units=1/GPa)
#
#
# Indices 1 2 3 4 5 6 
#
# 1 0.036938 0.008631 -0.005155 0.000000 0.000000 0.000000
# 2 0.008631 0.025064 -0.002456 0.000000 0.000000 0.000000
# 3 -0.005155 -0.002456 0.006930 0.000000 0.000000 0.000000
# 4 0.000000 0.000000 0.000000 0.022259 0.000000 0.000000
# 5 0.000000 0.000000 0.000000 0.000000 0.025408 0.000000
# 6 0.000000 0.000000 0.000000 0.000000 0.000000 0.024921
#
#
# Mechanical properties :
#
#
# Convention : Reuss Voigt Hill
#
# Bulk Modulus (GPa) = 14.08998 31.07630 22.58314
# Shear Modulus (GPa) = 30.64941 39.43292 35.04116
#
# Velocity S-wave (km/s) = 3.45340 3.91710 3.69254
# Velocity P-wave (km/s) = 4.62426 5.70529 5.19298
#
# Compressibility (1/GPa) = 0.07097243
#
# Stress axis : x y z
#
# Youngs Moduli (GPa) = 27.07242 39.89822 144.30680
#
# Poissons Ratio (x) = -0.34436 0.74390
# Poissons Ratio (y) = -0.23366 0.35435
# Poissons Ratio (z) = 0.13956 0.09797
#
# Static dielectric constant tensor:
#      x y z
#    x 2.013640 0.000000 0.000000 
#    y 0.000000 2.090770 0.000000 
#    z 0.000000 0.000000 2.059700 
# 
# From -- ./inp_files/4858.got.cif
#   From: 2010.05.17/outbox.cif.g08.bks.cpg/sg73_3_cif.got.tgz:4858.got - 2010.06.03 17:35:07.
