data_PCOD9531133
_publ_section_title
;
Structure prediction by ZEFSAII (Michael W. Deem and Ramdas Pophale) SiO2 
 PCOD9531133
Probable space group: I B C A 
;
_chemical_formula_sum "Si O2"
_cell_formula_units_Z 88
_cell_length_a 25.235411
_cell_length_b 11.295821
_cell_length_c 14.846974
_cell_angle_alpha 90.000000
_cell_angle_beta 90.000000
_cell_angle_gamma 90.000000
_cell_volume 4232.199504
_symmetry_space_group_name_H-M "I B C A "
_symmetry_group_IT_number 73
_symmetry_cell_setting 'orthorhombic'
loop_
_space_group_symop_operation_xyz
x,y,z
-x,1/2-y,z
x,-y,1/2-z
1/2-x,y,-z
-x,-y,-z
x,1/2+y,-z
-x,y,1/2+z
1/2+x,-y,z
1/2+x,1/2+y,1/2+z
1/2-x,-y,1/2+z
1/2+x,1/2-y,-z
-x,1/2+y,1/2-z
1/2-x,1/2-y,1/2-z
1/2+x,y,1/2-z
1/2-x,1/2+y,z
x,1/2-y,1/2+z
loop_
_atom_site_type_symbol
_atom_site_label
_atom_site_fract_x
_atom_site_fract_y
_atom_site_fract_z
Si Si1 0.562606 0.994761 0.516278
Si Si2 0.138844 0.071565 0.656810
Si Si3 0.149388 0.742167 0.710009
Si Si4 0.936264 0.251034 0.927686
Si Si5 0.696105 0.500000 0.750000
Si Si6 0.275309 0.408216 0.596268
O O1 0.581697 0.952736 0.614976
O O2 0.581630 0.880116 0.459421
O O3 0.500000 0.000000 0.500000
O O4 0.579697 0.133977 0.510916
O O5 0.151934 0.202361 0.690026
O O6 0.144778 0.000000 0.750000
O O7 0.181452 0.014610 0.589208
O O8 0.092656 0.771261 0.666919
O O9 0.160474 0.605468 0.715000
O O10 0.192832 0.801093 0.643633
O O11 0.000000 0.250000 0.921687
O O12 0.732801 0.548044 0.669396
O O13 0.250000 0.380863 0.500000
#
# Coordination Sequence:
#
# PCOD9531133 Si02
#       6
#    16  16  16  16   8  16
#     4  10  21  40  69  95 132 172 232 286 341 415
#     4  10  20  43  68  91 130 184 221 272 350 407
#     4  11  24  44  68  96 146 179 228 291 346 421
#     4  10  22  42  69 102 135 178 229 288 349 418
#     4  12  26  44  64 110 142 176 240 292 342 420
#     4  11  24  42  71  98 133 184 236 281 348 408
#
# _framework density 20.79297
#
# number of rings (size 3 to 8) (size 9 to 14) (size 15 to 20)
#    0.000    1.455    6.364    0.545    2.545    3.636 
#    0.000    6.364    0.000    0.000    0.000    0.000 
#    0.000    0.000    0.000    0.000    0.000    0.000 
#
# Total GULP energy -245173.514841 kJ/mol
# GULP energy per Si atom -5572.125337 kJ/mol
# Density = 2.074564 g / cm^3
# Si number density = 20.792970 Si / 1000 Ang^3
#
#
#
# Elastic Constant Matrix: (Units=GPa)
#
#
# Indices 1 2 3 4 5 6 
#
# 1 57.4000 37.7647 35.9654 0.0000 0.0000 0.0000
# 2 37.7647 155.0249 35.0983 0.0000 0.0000 0.0000
# 3 35.9654 35.0983 71.3827 0.0000 0.0000 0.0000
# 4 0.0000 0.0000 0.0000 13.5270 0.0000 0.0000
# 5 0.0000 0.0000 0.0000 0.0000 58.5437 0.0000
# 6 0.0000 0.0000 0.0000 0.0000 0.0000 56.7201
#
#
#
# Elastic Compliance Matrix: (Units=1/GPa)
#
#
# Indices 1 2 3 4 5 6 
#
# 1 0.027509 -0.004010 -0.011888 0.000000 0.000000 0.000000
# 2 -0.004010 0.007843 -0.001836 0.000000 0.000000 0.000000
# 3 -0.011888 -0.001836 0.020902 0.000000 0.000000 0.000000
# 4 0.000000 0.000000 0.000000 0.073926 0.000000 0.000000
# 5 0.000000 0.000000 0.000000 0.000000 0.017081 0.000000
# 6 0.000000 0.000000 0.000000 0.000000 0.000000 0.017630
#
#
# Mechanical properties :
#
#
# Convention : Reuss Voigt Hill
#
# Bulk Modulus (GPa) = 48.11178 55.71827 51.91503
# Shear Modulus (GPa) = 24.12105 37.42344 30.77224
#
# Velocity S-wave (km/s) = 3.40966 4.24702 3.85117
# Velocity P-wave (km/s) = 6.22011 7.13474 6.69306
#
# Compressibility (1/GPa) = 0.02078493
#
# Stress axis : x y z
#
# Youngs Moduli (GPa) = 36.35224 127.50136 47.84300
#
# Poissons Ratio (x) = 0.51123 0.56878
# Poissons Ratio (y) = 0.14576 0.08785
# Poissons Ratio (z) = 0.43217 0.23411
#
# Static dielectric constant tensor:
#      x y z
#    x 1.761670 0.000000 0.000000 
#    y 0.000000 1.834430 0.000000 
#    z 0.000000 0.000000 1.745240 
# 
# From -- ./inp_files/16124.got.cif
#   From: 2010.05.17/outbox.cif.g08.bks.cpg/sg73_9_cif.got.tgz:16124.got - 2010.06.03 17:35:07.
