data_PCOD9531230
_publ_section_title
;
Structure prediction by ZEFSAII (Michael W. Deem and Ramdas Pophale) SiO2 
 PCOD9531230
Probable space group: I B C A 
;
_chemical_formula_sum "Si O2"
_cell_formula_units_Z 88
_cell_length_a 5.233295
_cell_length_b 28.863498
_cell_length_c 22.547963
_cell_angle_alpha 90.000000
_cell_angle_beta 90.000000
_cell_angle_gamma 90.000000
_cell_volume 3405.896863
_symmetry_space_group_name_H-M "I B C A "
_symmetry_group_IT_number 73
_symmetry_cell_setting 'orthorhombic'
loop_
_space_group_symop_operation_xyz
x,y,z
-x,1/2-y,z
x,-y,1/2-z
1/2-x,y,-z
-x,-y,-z
x,1/2+y,-z
-x,y,1/2+z
1/2+x,-y,z
1/2+x,1/2+y,1/2+z
1/2-x,-y,1/2+z
1/2+x,1/2-y,-z
-x,1/2+y,1/2-z
1/2-x,1/2-y,1/2-z
1/2+x,y,1/2-z
1/2-x,1/2+y,z
x,1/2-y,1/2+z
loop_
_atom_site_type_symbol
_atom_site_label
_atom_site_fract_x
_atom_site_fract_y
_atom_site_fract_z
Si Si1 0.887565 0.472996 0.171607
Si Si2 0.592837 0.846630 0.060301
Si Si3 0.938360 0.607773 0.656276
Si Si4 0.406079 0.202808 0.711666
Si Si5 0.187420 0.940666 0.934428
Si Si6 0.500000 0.250000 0.959024
O O1 0.664400 0.508483 0.189602
O O2 0.769718 0.423678 0.191270
O O3 0.953073 0.465956 0.100393
O O4 0.779775 0.862363 0.110452
O O5 0.399411 0.888205 0.052984
O O6 0.478661 0.797294 0.076630
O O7 0.750000 0.842639 0.000000
O O8 0.083240 0.649354 0.688594
O O9 0.097152 0.570494 0.615961
O O10 0.500000 0.250000 0.675415
O O11 0.120396 0.205853 0.736572
O O12 0.250000 0.960300 0.000000
O O13 0.250000 0.250087 0.000000
#
# Coordination Sequence:
#
# PCOD9531230 Si02
#       6
#    16  16  16  16  16   8
#     4  11  24  43  64  98 137 182 234 282 330 399
#     4  10  21  36  57  90 135 177 224 270 325 402
#     4  11  24  42  72  97 133 186 223 285 349 397
#     4  10  25  49  75 105 135 169 225 287 343 416
#     4  11  22  38  62  94 138 186 232 279 330 402
#     4  10  22  36  52  78 124 176 218 262 316 386
#
# _framework density 25.837539
#
# number of rings (size 3 to 8) (size 9 to 14) (size 15 to 20)
#    0.000    1.455    3.636    0.545    7.636    2.182 
#    3.273    0.000    0.000    3.273    0.000    0.000 
#    0.000    0.000    0.000    0.000    0.000    0.000 
#
# Total GULP energy -245410.911536 kJ/mol
# GULP energy per Si atom -5577.520717 kJ/mol
# Density = 2.577873 g / cm^3
# Si number density = 25.837539 Si / 1000 Ang^3
#
#
#
# Elastic Constant Matrix: (Units=GPa)
#
#
# Indices 1 2 3 4 5 6 
#
# 1 145.3055 42.8283 29.0620 0.0000 0.0000 0.0000
# 2 42.8283 138.5225 55.5246 0.0000 0.0000 0.0000
# 3 29.0620 55.5246 60.1440 0.0000 0.0000 0.0000
# 4 0.0000 0.0000 0.0000 31.8964 0.0000 0.0000
# 5 0.0000 0.0000 0.0000 0.0000 -0.3728 0.0000
# 6 0.0000 0.0000 0.0000 0.0000 0.0000 60.7355
#
#
#
# Elastic Compliance Matrix: (Units=1/GPa)
#
#
# Indices 1 2 3 4 5 6 
#
# 1 0.007792 -0.001429 -0.002446 0.000000 0.000000 0.000000
# 2 -0.001429 0.011722 -0.010131 0.000000 0.000000 0.000000
# 3 -0.002446 -0.010131 0.027162 0.000000 0.000000 0.000000
# 4 0.000000 0.000000 0.000000 0.031351 0.000000 0.000000
# 5 0.000000 0.000000 0.000000 0.000000 -2.682543 0.000000
# 6 0.000000 0.000000 0.000000 0.000000 0.000000 0.016465
#
#
# Mechanical properties :
#
#
# Convention : Reuss Voigt Hill
#
# Bulk Modulus (GPa) = 53.58001 66.53351 60.05676
# Shear Modulus (GPa) = -1.95785 32.88897 15.46556
#
# Velocity S-wave (km/s) = -0.87144 3.57166 2.44922
# Velocity P-wave (km/s) = 4.44632 6.54337 5.59399
#
# Compressibility (1/GPa) = 0.01866368
#
# Stress axis : x y z
#
# Youngs Moduli (GPa) = 128.32946 85.31265 36.81645
#
# Poissons Ratio (x) = 0.12188 0.09007
# Poissons Ratio (y) = 0.18334 0.37299
# Poissons Ratio (z) = 0.31395 0.86430
#
# Static dielectric constant tensor:
#      x y z
#    x 2.172100 0.000000 0.000000 
#    y 0.000000 2.208540 0.000000 
#    z 0.000000 0.000000 2.294860 
# 
# From -- ./inp_files/28086.got.cif
#   From: 2010.05.17/outbox.cif.g08.bks.cpg/sg73_15_cif.got.tgz:28086.got - 2010.06.03 17:35:07.
