data_PCOD9531701
_publ_section_title
;
Structure prediction by ZEFSAII (Michael W. Deem and Ramdas Pophale) SiO2 
 PCOD9531701
Probable space group: I B C A 
;
_chemical_formula_sum "Si O2"
_cell_formula_units_Z 120
_cell_length_a 22.792560
_cell_length_b 24.982967
_cell_length_c 10.016067
_cell_angle_alpha 90.000000
_cell_angle_beta 90.000000
_cell_angle_gamma 90.000000
_cell_volume 5703.406707
_symmetry_space_group_name_H-M "I B C A "
_symmetry_group_IT_number 73
_symmetry_cell_setting 'orthorhombic'
loop_
_space_group_symop_operation_xyz
x,y,z
-x,1/2-y,z
x,-y,1/2-z
1/2-x,y,-z
-x,-y,-z
x,1/2+y,-z
-x,y,1/2+z
1/2+x,-y,z
1/2+x,1/2+y,1/2+z
1/2-x,-y,1/2+z
1/2+x,1/2-y,-z
-x,1/2+y,1/2-z
1/2-x,1/2-y,1/2-z
1/2+x,y,1/2-z
1/2-x,1/2+y,z
x,1/2-y,1/2+z
loop_
_atom_site_type_symbol
_atom_site_label
_atom_site_fract_x
_atom_site_fract_y
_atom_site_fract_z
Si Si1 0.926699 0.687073 0.438187
Si Si2 0.790879 0.090821 0.122933
Si Si3 0.213056 0.500000 0.750000
Si Si4 0.624173 0.480236 0.551271
Si Si5 0.956380 0.458148 0.866180
Si Si6 0.068559 0.615336 0.673160
Si Si7 0.435784 0.308840 0.938730
Si Si8 0.120528 0.135174 0.801684
O O1 0.927698 0.647138 0.311564
O O2 0.911282 0.749356 0.415359
O O3 0.887447 0.664589 0.557985
O O4 0.995494 0.691810 0.475752
O O5 0.751999 0.049888 0.206984
O O6 0.818951 0.134887 0.220171
O O7 0.750000 0.110042 0.000000
O O8 0.844542 0.055733 0.061307
O O9 0.174406 0.485148 0.619606
O O10 0.566025 0.509696 0.496867
O O11 0.607580 0.437608 0.665760
O O12 0.971921 0.500000 0.750000
O O13 0.897682 0.425978 0.827459
O O14 0.005975 0.411863 0.870563
O O15 0.090267 0.656696 0.559720
O O16 0.426275 0.339887 0.801305
#
# Coordination Sequence:
#
# PCOD9531701 Si02
#       8
#    16  16   8  16  16  16  16  16
#     4  11  24  38  64  99 134 170 223 271 318 386
#     4  10  21  43  66  87 120 171 221 276 330 380
#     4  10  24  42  62  92 118 168 230 278 310 384
#     4  11  24  39  63  90 133 176 217 260 322 395
#     4  12  23  37  60  92 139 179 206 254 308 404
#     4  12  24  39  61 100 138 179 214 254 322 400
#     4  11  21  43  63  92 134 179 219 265 321 396
#     4  12  22  40  67  93 127 177 218 267 328 391
#
# _framework density 21.040057000000001
#
# number of rings (size 3 to 8) (size 9 to 14) (size 15 to 20)
#    0.000    0.800    5.333    2.000    2.800    2.133 
#    0.000    0.000    0.000    0.800    0.000    0.000 
#    0.000    0.000    0.000    0.000    0.000    0.000 
#
# Total GULP energy -334771.488841 kJ/mol
# GULP energy per Si atom -5579.524814 kJ/mol
# Density = 2.099217 g / cm^3
# Si number density = 21.040057 Si / 1000 Ang^3
#
#
#
# Elastic Constant Matrix: (Units=GPa)
#
#
# Indices 1 2 3 4 5 6 
#
# 1 64.4449 24.6335 28.2192 0.0000 0.0000 0.0000
# 2 24.6335 112.7971 61.5714 0.0000 0.0000 0.0000
# 3 28.2192 61.5714 109.1896 0.0000 0.0000 0.0000
# 4 0.0000 0.0000 0.0000 21.7992 0.0000 0.0000
# 5 0.0000 0.0000 0.0000 0.0000 33.7998 0.0000
# 6 0.0000 0.0000 0.0000 0.0000 0.0000 13.0237
#
#
#
# Elastic Compliance Matrix: (Units=1/GPa)
#
#
# Indices 1 2 3 4 5 6 
#
# 1 0.017801 -0.001988 -0.003479 0.000000 0.000000 0.000000
# 2 -0.001988 0.013030 -0.006834 0.000000 0.000000 0.000000
# 3 -0.003479 -0.006834 0.013911 0.000000 0.000000 0.000000
# 4 0.000000 0.000000 0.000000 0.045873 0.000000 0.000000
# 5 0.000000 0.000000 0.000000 0.000000 0.029586 0.000000
# 6 0.000000 0.000000 0.000000 0.000000 0.000000 0.076783
#
#
# Mechanical properties :
#
#
# Convention : Reuss Voigt Hill
#
# Bulk Modulus (GPa) = 49.65430 57.25331 53.45380
# Shear Modulus (GPa) = 21.90106 25.19170 23.54638
#
# Velocity S-wave (km/s) = 3.22983 3.46399 3.34896
# Velocity P-wave (km/s) = 6.12864 6.57796 6.35727
#
# Compressibility (1/GPa) = 0.02013924
#
# Stress axis : x y z
#
# Youngs Moduli (GPa) = 56.17776 76.74661 71.88539
#
# Poissons Ratio (x) = 0.15259 0.25011
# Poissons Ratio (y) = 0.11169 0.49124
# Poissons Ratio (z) = 0.19546 0.52446
#
# Static dielectric constant tensor:
#      x y z
#    x 1.824800 0.000000 0.000000 
#    y 0.000000 1.775260 0.000000 
#    z 0.000000 0.000000 1.779830 
# 
# From -- ./inp_files/7366.got.cif
#   From: 2010.05.17/outbox.cif.g08.bks.cpg/sg73_4_cif.got.tgz:7366.got - 2010.06.03 17:35:07.
