data_PCOD9531927
_publ_section_title
;
Structure prediction by ZEFSAII (Michael W. Deem and Ramdas Pophale) SiO2 
 PCOD9531927
Probable space group: I B C A 
;
_chemical_formula_sum "Si O2"
_cell_formula_units_Z 96
_cell_length_a 20.608728
_cell_length_b 13.528097
_cell_length_c 14.671585
_cell_angle_alpha 90.000000
_cell_angle_beta 90.000000
_cell_angle_gamma 90.000000
_cell_volume 4090.391997
_symmetry_space_group_name_H-M "I B C A "
_symmetry_group_IT_number 73
_symmetry_cell_setting 'orthorhombic'
loop_
_space_group_symop_operation_xyz
x,y,z
-x,1/2-y,z
x,-y,1/2-z
1/2-x,y,-z
-x,-y,-z
x,1/2+y,-z
-x,y,1/2+z
1/2+x,-y,z
1/2+x,1/2+y,1/2+z
1/2-x,-y,1/2+z
1/2+x,1/2-y,-z
-x,1/2+y,1/2-z
1/2-x,1/2-y,1/2-z
1/2+x,y,1/2-z
1/2-x,1/2+y,z
x,1/2-y,1/2+z
loop_
_atom_site_type_symbol
_atom_site_label
_atom_site_fract_x
_atom_site_fract_y
_atom_site_fract_z
Si Si1 0.155900 0.297018 0.658591
Si Si2 0.608014 0.895490 0.346210
Si Si3 0.730948 0.975654 0.142133
Si Si4 0.854131 0.929900 0.337305
Si Si5 0.425959 0.718183 0.975895
Si Si6 0.973971 0.476430 0.900844
O O1 0.126046 0.351680 0.747063
O O2 0.220177 0.359177 0.632735
O O3 0.166481 0.182238 0.681074
O O4 0.109988 0.301681 0.570308
O O5 0.663787 0.969785 0.380676
O O6 0.604904 0.806408 0.417981
O O7 0.537634 0.947896 0.343835
O O8 0.796908 0.020621 0.102215
O O9 0.737091 0.000000 0.250000
O O10 0.862031 0.000000 0.250000
O O11 0.926920 0.933988 0.375512
O O12 0.500000 0.750000 0.993886
O O13 0.429785 0.621210 0.912183
O O14 0.000000 0.500000 0.000000
#
# Coordination Sequence:
#
# PCOD9531927 Si02
#       6
#    16  16  16  16  16  16
#     4  11  23  42  68  94 127 176 224 267 335 410
#     4  10  22  43  66  93 132 172 218 275 334 395
#     4   9  22  42  66  94 126 168 216 273 330 393
#     4  11  24  41  66  97 131 171 218 275 334 399
#     4  10  22  39  63  96 131 169 217 276 333 401
#     4  11  23  41  62  94 137 173 217 278 334 396
#
# _framework density 23.469633999999999
#
# number of rings (size 3 to 8) (size 9 to 14) (size 15 to 20)
#    0.000    1.667    0.000    4.000    0.000   14.000 
#    0.000    9.167    0.000    0.000    0.000    0.000 
#    0.000    0.000    0.000    0.000    0.000    0.000 
#
# Total GULP energy -268430.784345 kJ/mol
# GULP energy per Si atom -5592.308007 kJ/mol
# Density = 2.341622 g / cm^3
# Si number density = 23.469634 Si / 1000 Ang^3
#
#
#
# Elastic Constant Matrix: (Units=GPa)
#
#
# Indices 1 2 3 4 5 6 
#
# 1 106.0268 44.2676 27.2386 0.0000 0.0000 0.0000
# 2 44.2676 123.5696 15.9876 0.0000 0.0000 0.0000
# 3 27.2386 15.9876 82.5351 0.0000 0.0000 0.0000
# 4 0.0000 0.0000 0.0000 34.3896 0.0000 0.0000
# 5 0.0000 0.0000 0.0000 0.0000 7.6960 0.0000
# 6 0.0000 0.0000 0.0000 0.0000 0.0000 24.8740
#
#
#
# Elastic Compliance Matrix: (Units=1/GPa)
#
#
# Indices 1 2 3 4 5 6 
#
# 1 0.011846 -0.003834 -0.003167 0.000000 0.000000 0.000000
# 2 -0.003834 0.009541 -0.000583 0.000000 0.000000 0.000000
# 3 -0.003167 -0.000583 0.013274 0.000000 0.000000 0.000000
# 4 0.000000 0.000000 0.000000 0.029079 0.000000 0.000000
# 5 0.000000 0.000000 0.000000 0.000000 0.129938 0.000000
# 6 0.000000 0.000000 0.000000 0.000000 0.000000 0.040203
#
#
# Mechanical properties :
#
#
# Convention : Reuss Voigt Hill
#
# Bulk Modulus (GPa) = 51.29752 54.12435 52.71093
# Shear Modulus (GPa) = 19.56593 28.36774 23.96683
#
# Velocity S-wave (km/s) = 2.89047 3.48041 3.19906
# Velocity P-wave (km/s) = 5.74840 6.26598 6.01276
#
# Compressibility (1/GPa) = 0.01949412
#
# Stress axis : x y z
#
# Youngs Moduli (GPa) = 84.41770 104.80534 75.33467
#
# Poissons Ratio (x) = 0.40182 0.23857
# Poissons Ratio (y) = 0.32365 0.04392
# Poissons Ratio (z) = 0.26733 0.06110
#
# Static dielectric constant tensor:
#      x y z
#    x 1.994970 0.000000 0.000000 
#    y 0.000000 1.972940 0.000000 
#    z 0.000000 0.000000 1.911860 
# 
# From -- ./inp_files/18637.got.cif
#   From: 2010.05.17/outbox.cif.g08.bks.cpg/sg73_10_cif.got.tgz:18637.got - 2010.06.03 17:35:07.
