data_PCOD9531208
_publ_section_title
;
Structure prediction by ZEFSAII (Michael W. Deem and Ramdas Pophale) SiO2 
 PCOD9531208
Probable space group: I B C A 
;
_chemical_formula_sum "Si O2"
_cell_formula_units_Z 104
_cell_length_a 21.577004
_cell_length_b 8.686308
_cell_length_c 27.454961
_cell_angle_alpha 90.000000
_cell_angle_beta 90.000000
_cell_angle_gamma 90.000000
_cell_volume 5145.732406
_symmetry_space_group_name_H-M "I B C A "
_symmetry_group_IT_number 73
_symmetry_cell_setting 'orthorhombic'
loop_
_space_group_symop_operation_xyz
x,y,z
-x,1/2-y,z
x,-y,1/2-z
1/2-x,y,-z
-x,-y,-z
x,1/2+y,-z
-x,y,1/2+z
1/2+x,-y,z
1/2+x,1/2+y,1/2+z
1/2-x,-y,1/2+z
1/2+x,1/2-y,-z
-x,1/2+y,1/2-z
1/2-x,1/2-y,1/2-z
1/2+x,y,1/2-z
1/2-x,1/2+y,z
x,1/2-y,1/2+z
loop_
_atom_site_type_symbol
_atom_site_label
_atom_site_fract_x
_atom_site_fract_y
_atom_site_fract_z
Si Si1 0.631736 0.228761 0.568366
Si Si2 0.706005 0.194801 0.830212
Si Si3 0.671471 0.964721 0.306428
Si Si4 0.150820 0.505740 0.986604
Si Si5 0.927025 0.231171 0.328774
Si Si6 0.370532 0.000000 0.250000
Si Si7 0.719242 0.784514 0.563034
O O1 0.611407 0.396471 0.548585
O O2 0.603261 0.183094 0.619724
O O3 0.707158 0.252377 0.569669
O O4 0.615734 0.109784 0.525768
O O5 0.778088 0.165135 0.819090
O O6 0.689454 0.374754 0.830826
O O7 0.669906 0.102278 0.788049
O O8 0.695636 0.145675 0.885929
O O9 0.605163 0.895716 0.318489
O O10 0.675724 0.000000 0.250000
O O11 0.190541 0.620684 0.952856
O O12 0.193512 0.397937 0.021309
O O13 0.908787 0.115794 0.284786
O O14 0.000000 0.250000 0.332605
#
# Coordination Sequence:
#
# PCOD9531208 Si02
#       7
#    16  16  16  16  16   8  16
#     4  11  20  38  60  89 126 164 209 256 317 375
#     4  12  24  37  70 101 136 161 205 265 345 390
#     4  12  23  43  64  98 134 171 206 267 328 389
#     4  10  21  35  60  95 130 159 201 260 328 396
#     4  12  28  46  66  89 129 181 229 262 310 380
#     4  12  26  44  64  98 128 168 214 276 322 388
#     4  11  20  33  58  94 130 165 193 251 329 395
#
# _framework density 20.210922
#
# number of rings (size 3 to 8) (size 9 to 14) (size 15 to 20)
#    0.000    0.615    3.846    6.923    3.231    0.000 
#    0.000    0.769    0.000    0.000    0.000    0.000 
#    0.000    0.000    0.000    0.000    0.000    0.000 
#
# Total GULP energy -290434.061028 kJ/mol
# GULP energy per Si atom -5585.270404 kJ/mol
# Density = 2.016492 g / cm^3
# Si number density = 20.210922 Si / 1000 Ang^3
#
#
#
# Elastic Constant Matrix: (Units=GPa)
#
#
# Indices 1 2 3 4 5 6 
#
# 1 92.2657 41.8433 46.5777 0.0000 0.0000 0.0000
# 2 41.8433 96.3619 21.8040 0.0000 0.0000 0.0000
# 3 46.5777 21.8040 159.5933 0.0000 0.0000 0.0000
# 4 0.0000 0.0000 0.0000 20.0518 0.0000 0.0000
# 5 0.0000 0.0000 0.0000 0.0000 -2.6180 0.0000
# 6 0.0000 0.0000 0.0000 0.0000 0.0000 31.6763
#
#
#
# Elastic Compliance Matrix: (Units=1/GPa)
#
#
# Indices 1 2 3 4 5 6 
#
# 1 0.015339 -0.005828 -0.003681 0.000000 0.000000 0.000000
# 2 -0.005828 0.012923 -0.000065 0.000000 0.000000 0.000000
# 3 -0.003681 -0.000065 0.007349 0.000000 0.000000 0.000000
# 4 0.000000 0.000000 0.000000 0.049871 0.000000 0.000000
# 5 0.000000 0.000000 0.000000 0.000000 -0.381974 0.000000
# 6 0.000000 0.000000 0.000000 0.000000 0.000000 0.031569
#
#
# Mechanical properties :
#
#
# Convention : Reuss Voigt Hill
#
# Bulk Modulus (GPa) = 60.73597 63.18566 61.96081
# Shear Modulus (GPa) = -20.80834 25.68841 2.44004
#
# Velocity S-wave (km/s) = -3.21216 3.56900 1.09996
# Velocity P-wave (km/s) = 4.04463 6.95088 5.68655
#
# Compressibility (1/GPa) = 0.01646471
#
# Stress axis : x y z
#
# Youngs Moduli (GPa) = 65.19179 77.38218 136.07381
#
# Poissons Ratio (x) = 0.45098 0.50083
# Poissons Ratio (y) = 0.37994 0.00880
# Poissons Ratio (z) = 0.23994 0.00500
#
# Static dielectric constant tensor:
#      x y z
#    x 1.689130 0.000000 0.000000 
#    y 0.000000 1.821640 0.000000 
#    z 0.000000 0.000000 1.769020 
# 
# From -- ./inp_files/32683.got.cif
#   From: 2010.05.17/outbox.cif.g08.bks.cpg/sg73_17_cif.got.tgz:32683.got - 2010.06.03 17:35:07.
