data_PCOD9531200
_publ_section_title
;
Structure prediction by ZEFSAII (Michael W. Deem and Ramdas Pophale) SiO2 
 PCOD9531200
Probable space group: I B C A 
;
_chemical_formula_sum "Si O2"
_cell_formula_units_Z 112
_cell_length_a 10.540378
_cell_length_b 22.599076
_cell_length_c 23.261656
_cell_angle_alpha 90.000000
_cell_angle_beta 90.000000
_cell_angle_gamma 90.000000
_cell_volume 5540.991673
_symmetry_space_group_name_H-M "I B C A "
_symmetry_group_IT_number 73
_symmetry_cell_setting 'orthorhombic'
loop_
_space_group_symop_operation_xyz
x,y,z
-x,1/2-y,z
x,-y,1/2-z
1/2-x,y,-z
-x,-y,-z
x,1/2+y,-z
-x,y,1/2+z
1/2+x,-y,z
1/2+x,1/2+y,1/2+z
1/2-x,-y,1/2+z
1/2+x,1/2-y,-z
-x,1/2+y,1/2-z
1/2-x,1/2-y,1/2-z
1/2+x,y,1/2-z
1/2-x,1/2+y,z
x,1/2-y,1/2+z
loop_
_atom_site_type_symbol
_atom_site_label
_atom_site_fract_x
_atom_site_fract_y
_atom_site_fract_z
Si Si1 0.632803 0.326267 0.326739
Si Si2 0.762460 0.500000 0.250000
Si Si3 0.500000 0.250000 0.601378
Si Si4 0.619735 0.884715 0.787411
Si Si5 0.461303 0.818168 0.562476
Si Si6 0.634418 0.916024 0.348071
Si Si7 0.255061 0.797953 0.645262
Si Si8 0.882965 0.638514 0.034447
O O1 0.574222 0.346521 0.266978
O O2 0.540656 0.335045 0.380628
O O3 0.756979 0.367264 0.334432
O O4 0.670399 0.257500 0.328823
O O5 0.670530 0.447857 0.230913
O O6 0.836625 0.527453 0.193904
O O7 0.609955 0.220382 0.637848
O O8 0.422122 0.199229 0.567227
O O9 0.503342 0.893780 0.829694
O O10 0.744036 0.853071 0.813255
O O11 0.500000 0.750000 0.547551
O O12 0.317243 0.814714 0.584179
O O13 0.504690 0.862713 0.512891
O O14 0.630325 0.913616 0.418218
O O15 0.750000 0.645328 0.000000
#
# Coordination Sequence:
#
# PCOD9531200 Si02
#       8
#    16   8   8  16  16  16  16  16
#     4  10  21  37  59  97 134 167 208 262 331 397
#     4  10  26  44  66  90 116 164 224 286 332 384
#     4  12  22  36  62  98 140 178 216 250 316 408
#     4  11  23  40  64  91 121 167 219 278 328 396
#     4  10  21  35  56  93 138 178 205 246 320 401
#     4  11  22  43  67  94 122 169 221 268 335 391
#     4  11  21  39  58  96 136 171 211 265 327 397
#     4  12  21  38  63  95 135 175 211 256 317 397
#
# _framework density 20.212989
#
# number of rings (size 3 to 8) (size 9 to 14) (size 15 to 20)
#    0.000    1.143    5.000    1.714    4.000    0.000 
#    6.429    0.000    0.000    3.429    0.000    0.000 
#    0.000    0.000    0.000    0.000    0.000    0.000 
#
# Total GULP energy -312232.636395 kJ/mol
# GULP energy per Si atom -5575.582793 kJ/mol
# Density = 2.016698 g / cm^3
# Si number density = 20.212989 Si / 1000 Ang^3
#
#
#
# Elastic Constant Matrix: (Units=GPa)
#
#
# Indices 1 2 3 4 5 6 
#
# 1 61.0124 24.0318 20.7674 0.0000 0.0000 0.0000
# 2 24.0318 57.5511 33.6637 0.0000 0.0000 0.0000
# 3 20.7674 33.6637 95.1670 0.0000 0.0000 0.0000
# 4 0.0000 0.0000 0.0000 2.0883 0.0000 0.0000
# 5 0.0000 0.0000 0.0000 0.0000 38.4460 0.0000
# 6 0.0000 0.0000 0.0000 0.0000 0.0000 4.5620
#
#
#
# Elastic Compliance Matrix: (Units=1/GPa)
#
#
# Indices 1 2 3 4 5 6 
#
# 1 0.019849 -0.007256 -0.001765 0.000000 0.000000 0.000000
# 2 -0.007256 0.024562 -0.007105 0.000000 0.000000 0.000000
# 3 -0.001765 -0.007105 0.013406 0.000000 0.000000 0.000000
# 4 0.000000 0.000000 0.000000 0.478865 0.000000 0.000000
# 5 0.000000 0.000000 0.000000 0.000000 0.026011 0.000000
# 6 0.000000 0.000000 0.000000 0.000000 0.000000 0.219204
#
#
# Mechanical properties :
#
#
# Convention : Reuss Voigt Hill
#
# Bulk Modulus (GPa) = 39.11542 41.18406 40.14974
# Shear Modulus (GPa) = 6.07777 18.03708 12.05742
#
# Velocity S-wave (km/s) = 1.73591 2.99046 2.44502
# Velocity P-wave (km/s) = 4.83854 5.68710 5.27990
#
# Compressibility (1/GPa) = 0.02556536
#
# Stress axis : x y z
#
# Youngs Moduli (GPa) = 50.38069 40.71378 74.59259
#
# Poissons Ratio (x) = 0.29542 0.13163
# Poissons Ratio (y) = 0.36557 0.52997
# Poissons Ratio (z) = 0.08891 0.28927
#
# Static dielectric constant tensor:
#      x y z
#    x 1.621980 0.000000 0.000000 
#    y 0.000000 1.719850 0.000000 
#    z 0.000000 0.000000 1.826600 
# 
# From -- ./inp_files/25610.got.cif
#   From: 2010.05.17/outbox.cif.g08.bks.cpg/sg73_13_cif.got.tgz:25610.got - 2010.06.03 17:35:07.
