data_PCOD9531132
_publ_section_title
;
Structure prediction by ZEFSAII (Michael W. Deem and Ramdas Pophale) SiO2 
 PCOD9531132
Probable space group: I B C A 
;
_chemical_formula_sum "Si O2"
_cell_formula_units_Z 120
_cell_length_a 22.818252
_cell_length_b 8.008380
_cell_length_c 29.808032
_cell_angle_alpha 90.000000
_cell_angle_beta 90.000000
_cell_angle_gamma 90.000000
_cell_volume 5447.037287
_symmetry_space_group_name_H-M "I B C A "
_symmetry_group_IT_number 73
_symmetry_cell_setting 'orthorhombic'
loop_
_space_group_symop_operation_xyz
x,y,z
-x,1/2-y,z
x,-y,1/2-z
1/2-x,y,-z
-x,-y,-z
x,1/2+y,-z
-x,y,1/2+z
1/2+x,-y,z
1/2+x,1/2+y,1/2+z
1/2-x,-y,1/2+z
1/2+x,1/2-y,-z
-x,1/2+y,1/2-z
1/2-x,1/2-y,1/2-z
1/2+x,y,1/2-z
1/2-x,1/2+y,z
x,1/2-y,1/2+z
loop_
_atom_site_type_symbol
_atom_site_label
_atom_site_fract_x
_atom_site_fract_y
_atom_site_fract_z
Si Si1 0.316164 0.266683 0.617735
Si Si2 0.875632 0.821714 0.269774
Si Si3 0.623949 0.692268 0.556852
Si Si4 0.185334 0.138541 0.477700
Si Si5 0.500000 0.250000 0.407884
Si Si6 0.312553 0.348941 0.858593
Si Si7 0.589979 0.166237 0.182284
Si Si8 0.975951 0.977764 0.325337
O O1 0.315480 0.269109 0.563641
O O2 0.322267 0.452289 0.637595
O O3 0.254767 0.190266 0.632751
O O4 0.367205 0.155260 0.639899
O O5 0.834825 0.779635 0.311374
O O6 0.877398 0.692820 0.229260
O O7 0.855082 0.000000 0.250000
O O8 0.940237 0.863204 0.290425
O O9 0.639608 0.814853 0.516134
O O10 0.662071 0.530039 0.544737
O O11 0.554272 0.677706 0.563782
O O12 0.650194 0.765137 0.602336
O O13 0.250000 0.126477 0.500000
O O14 0.524403 0.391647 0.373897
O O15 0.555928 0.342921 0.175376
O O16 0.543185 0.018778 0.185617
#
# Coordination Sequence:
#
# PCOD9531132 Si02
#       8
#    16  16  16  16   8  16  16  16
#     4  12  24  43  73 100 142 181 233 288 353 413
#     4  10  20  43  67  98 144 186 228 282 339 400
#     4  12  26  46  71 106 138 181 230 297 357 424
#     4  12  26  46  75 103 137 184 241 294 355 435
#     4  12  24  44  72 106 146 176 228 294 360 424
#     4  12  24  44  70 100 142 187 228 289 351 410
#     4  10  22  43  69 103 136 191 235 284 336 412
#     4  10  21  40  71  95 138 184 234 279 338 409
#
# _framework density 22.030324
#
# number of rings (size 3 to 8) (size 9 to 14) (size 15 to 20)
#    0.000    0.800    5.333    2.800    0.000    4.267 
#    0.000    1.333    0.000    0.000    0.000    0.000 
#    0.000    0.000    0.000    0.000    0.000    0.000 
#
# Total GULP energy -335882.365170 kJ/mol
# GULP energy per Si atom -5598.039420 kJ/mol
# Density = 2.198018 g / cm^3
# Si number density = 22.030324 Si / 1000 Ang^3
#
#
#
# Elastic Constant Matrix: (Units=GPa)
#
#
# Indices 1 2 3 4 5 6 
#
# 1 55.9188 -14.5647 37.8578 0.0000 0.0000 0.0000
# 2 -14.5647 45.8032 0.4459 0.0000 0.0000 0.0000
# 3 37.8578 0.4459 141.5366 0.0000 0.0000 0.0000
# 4 0.0000 0.0000 0.0000 23.2241 0.0000 0.0000
# 5 0.0000 0.0000 0.0000 0.0000 196.4120 0.0000
# 6 0.0000 0.0000 0.0000 0.0000 0.0000 11.4113
#
#
#
# Elastic Compliance Matrix: (Units=1/GPa)
#
#
# Indices 1 2 3 4 5 6 
#
# 1 0.024340 0.007803 -0.006535 0.000000 0.000000 0.000000
# 2 0.007803 0.024335 -0.002164 0.000000 0.000000 0.000000
# 3 -0.006535 -0.002164 0.008820 0.000000 0.000000 0.000000
# 4 0.000000 0.000000 0.000000 0.043059 0.000000 0.000000
# 5 0.000000 0.000000 0.000000 0.000000 0.005091 0.000000
# 6 0.000000 0.000000 0.000000 0.000000 0.000000 0.087632
#
#
# Mechanical properties :
#
#
# Convention : Reuss Voigt Hill
#
# Bulk Modulus (GPa) = 17.95210 32.30406 25.12808
# Shear Modulus (GPa) = 23.40431 60.84413 42.12422
#
# Velocity S-wave (km/s) = 3.26293 5.26102 4.37750
# Velocity P-wave (km/s) = 4.72886 7.18329 6.08120
#
# Compressibility (1/GPa) = 0.05570380
#
# Stress axis : x y z
#
# Youngs Moduli (GPa) = 41.08506 41.09316 113.37788
#
# Poissons Ratio (x) = -0.32066 0.74091
# Poissons Ratio (y) = -0.32060 0.24533
# Poissons Ratio (z) = 0.26849 0.08892
#
# Static dielectric constant tensor:
#      x y z
#    x 1.799800 0.000000 0.000000 
#    y 0.000000 1.852370 0.000000 
#    z 0.000000 0.000000 1.791910 
# 
# From -- ./inp_files/32899.got.cif
#   From: 2010.05.17/outbox.cif.g08.bks.cpg/sg73_17_cif.got.tgz:32899.got - 2010.06.03 17:35:07.
