data_PCOD9531174
_publ_section_title
;
Structure prediction by ZEFSAII (Michael W. Deem and Ramdas Pophale) SiO2 
 PCOD9531174
Probable space group: I B C A 
;
_chemical_formula_sum "Si O2"
_cell_formula_units_Z 96
_cell_length_a 16.783985
_cell_length_b 12.841610
_cell_length_c 21.893090
_cell_angle_alpha 90.000000
_cell_angle_beta 90.000000
_cell_angle_gamma 90.000000
_cell_volume 4718.691897
_symmetry_space_group_name_H-M "I B C A "
_symmetry_group_IT_number 73
_symmetry_cell_setting 'orthorhombic'
loop_
_space_group_symop_operation_xyz
x,y,z
-x,1/2-y,z
x,-y,1/2-z
1/2-x,y,-z
-x,-y,-z
x,1/2+y,-z
-x,y,1/2+z
1/2+x,-y,z
1/2+x,1/2+y,1/2+z
1/2-x,-y,1/2+z
1/2+x,1/2-y,-z
-x,1/2+y,1/2-z
1/2-x,1/2-y,1/2-z
1/2+x,y,1/2-z
1/2-x,1/2+y,z
x,1/2-y,1/2+z
loop_
_atom_site_type_symbol
_atom_site_label
_atom_site_fract_x
_atom_site_fract_y
_atom_site_fract_z
Si Si1 0.750000 0.191047 0.000000
Si Si2 0.678786 0.181258 0.394199
Si Si3 0.939479 0.500000 0.750000
Si Si4 0.301462 0.625027 0.241286
Si Si5 0.325816 0.612489 0.658684
Si Si6 0.054963 0.157613 0.317649
Si Si7 0.168707 0.951563 0.083668
O O1 0.737459 0.268067 0.943145
O O2 0.821224 0.114038 0.978658
O O3 0.713486 0.142766 0.329627
O O4 0.633102 0.287549 0.373609
O O5 0.646848 0.073405 0.422229
O O6 0.886628 0.462547 0.692588
O O7 0.996000 0.586453 0.721315
O O8 0.317374 0.500000 0.250000
O O9 0.228210 0.650400 0.284578
O O10 0.377154 0.685867 0.268210
O O11 0.258285 0.562152 0.613908
O O12 0.104651 0.100512 0.371002
O O13 0.000000 0.250000 0.341925
#
# Coordination Sequence:
#
# PCOD9531174 Si02
#       7
#     8  16   8  16  16  16  16
#     4  10  24  36  66  92 106 164 226 262 302 354
#     4  11  19  36  61  86 121 157 204 258 308 363
#     4  12  20  34  54  96 130 154 204 246 310 400
#     4  11  18  38  59  90 129 163 190 256 320 370
#     4  10  21  32  60  95 124 159 202 251 314 373
#     4  11  23  37  60  90 129 166 194 248 330 393
#     4  10  21  43  59  86 125 161 207 265 307 362
#
# _framework density 20.344622000000001
#
# number of rings (size 3 to 8) (size 9 to 14) (size 15 to 20)
#    0.000    1.333    5.000    2.000    0.000    6.667 
#    0.000    0.000    0.000   14.000    0.000    0.000 
#    0.000    0.000    0.000    0.000    0.000    0.000 
#
# Total GULP energy -267220.014693 kJ/mol
# GULP energy per Si atom -5567.083639 kJ/mol
# Density = 2.029832 g / cm^3
# Si number density = 20.344622 Si / 1000 Ang^3
#
#
#
# Elastic Constant Matrix: (Units=GPa)
#
#
# Indices 1 2 3 4 5 6 
#
# 1 75.2886 19.2779 -1.9386 0.0000 0.0000 0.0000
# 2 19.2779 93.7896 -0.9259 0.0000 0.0000 0.0000
# 3 -1.9386 -0.9259 52.6084 0.0000 0.0000 0.0000
# 4 0.0000 0.0000 0.0000 30.9622 0.0000 0.0000
# 5 0.0000 0.0000 0.0000 0.0000 -65.5834 0.0000
# 6 0.0000 0.0000 0.0000 0.0000 0.0000 206.9657
#
#
#
# Elastic Compliance Matrix: (Units=1/GPa)
#
#
# Indices 1 2 3 4 5 6 
#
# 1 0.014032 -0.002880 0.000466 0.000000 0.000000 0.000000
# 2 -0.002880 0.011255 0.000092 0.000000 0.000000 0.000000
# 3 0.000466 0.000092 0.019027 0.000000 0.000000 0.000000
# 4 0.000000 0.000000 0.000000 0.032297 0.000000 0.000000
# 5 0.000000 0.000000 0.000000 0.000000 -0.015248 0.000000
# 6 0.000000 0.000000 0.000000 0.000000 0.000000 0.004832
#
#
# Mechanical properties :
#
#
# Convention : Reuss Voigt Hill
#
# Bulk Modulus (GPa) = 25.20712 28.27929 26.74321
# Shear Modulus (GPa) = 59.48053 48.15379 53.81716
#
# Velocity S-wave (km/s) = 5.41294 4.87036 5.14881
# Velocity P-wave (km/s) = 7.17521 6.74963 6.96567
#
# Compressibility (1/GPa) = 0.03967133
#
# Stress axis : x y z
#
# Youngs Moduli (GPa) = 71.26805 88.84991 52.55645
#
# Poissons Ratio (x) = 0.25584 -0.02451
# Poissons Ratio (y) = 0.20522 -0.00483
# Poissons Ratio (z) = -0.03324 -0.00817
#
# Static dielectric constant tensor:
#      x y z
#    x 1.705290 0.000000 0.000000 
#    y 0.000000 1.922970 0.000000 
#    z 0.000000 0.000000 1.795780 
# 
# From -- ./inp_files/29799.got.cif
#   From: 2010.05.17/outbox.cif.g08.bks.cpg/sg73_15_cif.got.tgz:29799.got - 2010.06.03 17:35:07.
