data_PCOD9531877
_publ_section_title
;
Structure prediction by ZEFSAII (Michael W. Deem and Ramdas Pophale) SiO2 
 PCOD9531877
Probable space group: I B C A 
;
_chemical_formula_sum "Si O2"
_cell_formula_units_Z 72
_cell_length_a 13.801900
_cell_length_b 9.318972
_cell_length_c 21.480330
_cell_angle_alpha 90.000000
_cell_angle_beta 90.000000
_cell_angle_gamma 90.000000
_cell_volume 2762.789726
_symmetry_space_group_name_H-M "I B C A "
_symmetry_group_IT_number 73
_symmetry_cell_setting 'orthorhombic'
loop_
_space_group_symop_operation_xyz
x,y,z
-x,1/2-y,z
x,-y,1/2-z
1/2-x,y,-z
-x,-y,-z
x,1/2+y,-z
-x,y,1/2+z
1/2+x,-y,z
1/2+x,1/2+y,1/2+z
1/2-x,-y,1/2+z
1/2+x,1/2-y,-z
-x,1/2+y,1/2-z
1/2-x,1/2-y,1/2-z
1/2+x,y,1/2-z
1/2-x,1/2+y,z
x,1/2-y,1/2+z
loop_
_atom_site_type_symbol
_atom_site_label
_atom_site_fract_x
_atom_site_fract_y
_atom_site_fract_z
Si Si1 0.736981 0.716734 0.855799
Si Si2 0.625837 0.549323 0.662495
Si Si3 0.750000 0.237509 0.000000
Si Si4 0.565719 0.610090 0.297520
Si Si5 0.933629 0.617120 0.469051
O O1 0.699337 0.576569 0.820778
O O2 0.764623 0.679028 0.928538
O O3 0.645212 0.826089 0.845561
O O4 0.828728 0.795804 0.824211
O O5 0.518600 0.499969 0.679424
O O6 0.621055 0.547564 0.588015
O O7 0.848319 0.324618 0.988369
O O8 0.500000 0.750000 0.278043
O O9 0.615884 0.500000 0.250000
O O10 0.000000 0.750000 0.448755
O O11 0.000000 0.500000 0.500000
#
# Coordination Sequence:
#
# PCOD9531877 Si02
#       5
#    16  16   8  16  16
#     4  10  22  40  62  93 131 169 216 277 337 407
#     4  10  23  40  61  92 126 166 218 273 333 402
#     4  10  22  38  62  92 130 170 214 268 336 408
#     4  10  23  43  65  90 126 172 224 283 341 404
#     4  11  23  38  60  90 127 173 219 270 333 406
#
# _framework density 26.060616
#
# number of rings (size 3 to 8) (size 9 to 14) (size 15 to 20)
#    0.000    1.778    0.000    2.667    0.000   20.444 
#    0.000    4.444    0.000    0.000    0.000    0.000 
#    0.000    0.000    0.000    0.000    0.000    0.000 
#
# Total GULP energy -200796.493988 kJ/mol
# GULP energy per Si atom -5577.680389 kJ/mol
# Density = 2.600130 g / cm^3
# Si number density = 26.060616 Si / 1000 Ang^3
#
#
#
# Elastic Constant Matrix: (Units=GPa)
#
#
# Indices 1 2 3 4 5 6 
#
# 1 125.9458 39.9143 0.7524 0.0000 0.0000 0.0000
# 2 39.9143 96.1786 19.2155 0.0000 0.0000 0.0000
# 3 0.7524 19.2155 74.2160 0.0000 0.0000 0.0000
# 4 0.0000 0.0000 0.0000 -200.3891 0.0000 0.0000
# 5 0.0000 0.0000 0.0000 0.0000 44.2831 0.0000
# 6 0.0000 0.0000 0.0000 0.0000 0.0000 49.4399
#
#
#
# Elastic Compliance Matrix: (Units=1/GPa)
#
#
# Indices 1 2 3 4 5 6 
#
# 1 0.009205 -0.004009 0.000945 0.000000 0.000000 0.000000
# 2 -0.004009 0.012710 -0.003250 0.000000 0.000000 0.000000
# 3 0.000945 -0.003250 0.014306 0.000000 0.000000 0.000000
# 4 0.000000 0.000000 0.000000 -0.004990 0.000000 0.000000
# 5 0.000000 0.000000 0.000000 0.000000 0.022582 0.000000
# 6 0.000000 0.000000 0.000000 0.000000 0.000000 0.020227
#
#
# Mechanical properties :
#
#
# Convention : Reuss Voigt Hill
#
# Bulk Modulus (GPa) = 42.38638 46.23385 44.31011
# Shear Modulus (GPa) = 52.89203 -5.56934 23.66135
#
# Velocity S-wave (km/s) = 4.50997 -1.46346 3.01647
# Velocity P-wave (km/s) = 6.58936 3.86313 5.40108
#
# Compressibility (1/GPa) = 0.02359249
#
# Stress axis : x y z
#
# Youngs Moduli (GPa) = 108.64017 78.67635 69.90007
#
# Poissons Ratio (x) = 0.31539 -0.06603
# Poissons Ratio (y) = 0.43550 0.22719
# Poissons Ratio (z) = -0.10262 0.25572
#
# Static dielectric constant tensor:
#      x y z
#    x 1.687480 0.000000 0.000000 
#    y 0.000000 2.100240 0.000000 
#    z 0.000000 0.000000 2.178640 
# 
# From -- ./inp_files/15523.got.cif
#   From: 2010.05.17/outbox.cif.g08.bks.cpg/sg73_8_cif.got.tgz:15523.got - 2010.06.03 17:35:07.
