data_PCOD9531161
_publ_section_title
;
Structure prediction by ZEFSAII (Michael W. Deem and Ramdas Pophale) SiO2 
 PCOD9531161
Probable space group: I B C A 
;
_chemical_formula_sum "Si O2"
_cell_formula_units_Z 80
_cell_length_a 26.053741
_cell_length_b 14.660880
_cell_length_c 8.875932
_cell_angle_alpha 90.000000
_cell_angle_beta 90.000000
_cell_angle_gamma 90.000000
_cell_volume 3390.346584
_symmetry_space_group_name_H-M "I B C A "
_symmetry_group_IT_number 73
_symmetry_cell_setting 'orthorhombic'
loop_
_space_group_symop_operation_xyz
x,y,z
-x,1/2-y,z
x,-y,1/2-z
1/2-x,y,-z
-x,-y,-z
x,1/2+y,-z
-x,y,1/2+z
1/2+x,-y,z
1/2+x,1/2+y,1/2+z
1/2-x,-y,1/2+z
1/2+x,1/2-y,-z
-x,1/2+y,1/2-z
1/2-x,1/2-y,1/2-z
1/2+x,y,1/2-z
1/2-x,1/2+y,z
x,1/2-y,1/2+z
loop_
_atom_site_type_symbol
_atom_site_label
_atom_site_fract_x
_atom_site_fract_y
_atom_site_fract_z
Si Si1 0.500000 0.750000 0.263295
Si Si2 0.043921 0.859713 0.473583
Si Si3 0.188784 0.000000 0.750000
Si Si4 0.250000 0.789860 0.000000
Si Si5 0.549299 0.000000 0.250000
Si Si6 0.633019 0.490046 0.961606
Si Si7 0.281474 0.371641 0.297214
O O1 0.485115 0.829571 0.378726
O O2 0.455057 0.722825 0.146833
O O3 0.097847 0.903941 0.512296
O O4 0.018867 0.937914 0.366439
O O5 0.226209 0.078987 0.811418
O O6 0.155271 0.034366 0.610828
O O7 0.281899 0.721788 0.108216
O O8 0.216460 0.848681 0.118501
O O9 0.592112 0.047660 0.138993
O O10 0.677603 0.441154 0.865875
#
# Coordination Sequence:
#
# PCOD9531161 Si02
#       7
#     8  16   8   8   8  16  16
#     4  10  20  46  68  98 128 170 210 258 382 378
#     4   9  22  41  67  94 128 165 211 277 320 424
#     4  12  23  40  67  88 130 188 220 269 316 395
#     4  10  24  38  54  92 124 168 224 270 326 370
#     4   8  21  42  59  94 122 162 212 275 304 387
#     4  10  22  42  60  95 127 168 231 265 327 372
#     4  11  23  40  62  89 129 180 220 270 323 386
#
# _framework density 23.596406000000002
#
# number of rings (size 3 to 8) (size 9 to 14) (size 15 to 20)
#    1.200    0.800    2.000    0.600    5.600    2.400 
#    7.200    0.000    0.000    0.000    0.000    0.000 
#    0.000    0.000    0.000    0.000    0.000    0.000 
#
# Total GULP energy -222733.469665 kJ/mol
# GULP energy per Si atom -5568.336742 kJ/mol
# Density = 2.354270 g / cm^3
# Si number density = 23.596406 Si / 1000 Ang^3
#
#
#
# Elastic Constant Matrix: (Units=GPa)
#
#
# Indices 1 2 3 4 5 6 
#
# 1 53.0987 3.9683 33.4820 0.0000 0.0000 0.0000
# 2 3.9683 35.0911 19.3333 0.0000 0.0000 0.0000
# 3 33.4820 19.3333 136.0161 0.0000 0.0000 0.0000
# 4 0.0000 0.0000 0.0000 50.7338 0.0000 0.0000
# 5 0.0000 0.0000 0.0000 0.0000 4.5298 0.0000
# 6 0.0000 0.0000 0.0000 0.0000 0.0000 10.2269
#
#
#
# Elastic Compliance Matrix: (Units=1/GPa)
#
#
# Indices 1 2 3 4 5 6 
#
# 1 0.022303 0.000545 -0.005568 0.000000 0.000000 0.000000
# 2 0.000545 0.030932 -0.004531 0.000000 0.000000 0.000000
# 3 -0.005568 -0.004531 0.009367 0.000000 0.000000 0.000000
# 4 0.000000 0.000000 0.000000 0.019711 0.000000 0.000000
# 5 0.000000 0.000000 0.000000 0.000000 0.220762 0.000000
# 6 0.000000 0.000000 0.000000 0.000000 0.000000 0.097781
#
#
# Mechanical properties :
#
#
# Convention : Reuss Voigt Hill
#
# Bulk Modulus (GPa) = 22.99113 37.53033 30.26073
# Shear Modulus (GPa) = 11.50854 24.25959 17.88406
#
# Velocity S-wave (km/s) = 2.21084 3.20989 2.75601
# Velocity P-wave (km/s) = 4.03507 5.44770 4.79370
#
# Compressibility (1/GPa) = 0.04349503
#
# Stress axis : x y z
#
# Youngs Moduli (GPa) = 44.83737 32.32908 106.76202
#
# Poissons Ratio (x) = -0.01763 0.59441
# Poissons Ratio (y) = -0.02445 0.48373
# Poissons Ratio (z) = 0.24964 0.14648
#
# Static dielectric constant tensor:
#      x y z
#    x 1.886130 0.000000 0.000000 
#    y 0.000000 2.017060 0.000000 
#    z 0.000000 0.000000 1.957580 
# 
# From -- ./inp_files/8363.got.cif
#   From: 2010.05.17/outbox.cif.g08.bks.cpg/sg73_5_cif.got.tgz:8363.got - 2010.06.03 17:35:07.
