data_PCOD9531041
_publ_section_title
;
Structure prediction by ZEFSAII (Michael W. Deem and Ramdas Pophale) SiO2 
 PCOD9531041
Probable space group: I B C A 
;
_chemical_formula_sum "Si O2"
_cell_formula_units_Z 72
_cell_length_a 13.711669
_cell_length_b 25.384812
_cell_length_c 8.593975
_cell_angle_alpha 90.000000
_cell_angle_beta 90.000000
_cell_angle_gamma 90.000000
_cell_volume 2991.288891
_symmetry_space_group_name_H-M "I B C A "
_symmetry_group_IT_number 73
_symmetry_cell_setting 'orthorhombic'
loop_
_space_group_symop_operation_xyz
x,y,z
-x,1/2-y,z
x,-y,1/2-z
1/2-x,y,-z
-x,-y,-z
x,1/2+y,-z
-x,y,1/2+z
1/2+x,-y,z
1/2+x,1/2+y,1/2+z
1/2-x,-y,1/2+z
1/2+x,1/2-y,-z
-x,1/2+y,1/2-z
1/2-x,1/2-y,1/2-z
1/2+x,y,1/2-z
1/2-x,1/2+y,z
x,1/2-y,1/2+z
loop_
_atom_site_type_symbol
_atom_site_label
_atom_site_fract_x
_atom_site_fract_y
_atom_site_fract_z
Si Si1 0.621975 0.801154 0.231542
Si Si2 0.751702 0.000000 0.250000
Si Si3 0.112789 0.918985 0.936501
Si Si4 0.500000 0.750000 0.972352
Si Si5 0.396565 0.080064 0.803853
Si Si6 0.250000 0.177870 0.500000
O O1 0.588199 0.766172 0.086402
O O2 0.530698 0.796473 0.354062
O O3 0.637517 0.860120 0.171487
O O4 0.709415 0.790685 0.352030
O O5 0.818638 0.040212 0.153574
O O6 0.681017 0.036771 0.355828
O O7 0.005208 0.922614 0.867308
O O8 0.101633 0.929326 0.118936
O O9 0.166217 0.861891 0.934236
#
# Coordination Sequence:
#
# PCOD9531041 Si02
#       6
#    16   8  16   8  16   8
#     4  10  20  41  64  97 128 172 209 277 326 389
#     4  12  22  40  66 100 130 178 224 264 322 402
#     4  11  23  43  65  96 134 182 217 269 328 393
#     4  10  22  38  70  94 126 166 226 264 336 398
#     4  11  24  42  69  96 138 178 218 275 332 388
#     4  10  20  42  66  90 136 170 218 270 336 384
#
# _framework density 24.069894000000001
#
# number of rings (size 3 to 8) (size 9 to 14) (size 15 to 20)
#    0.000    1.333    4.444    3.333    0.000    6.222 
#    0.000    0.000    0.000    0.000    0.000    0.000 
#    0.000    0.000    0.000    0.000    0.000    0.000 
#
# Total GULP energy -201208.773227 kJ/mol
# GULP energy per Si atom -5589.132590 kJ/mol
# Density = 2.401511 g / cm^3
# Si number density = 24.069894 Si / 1000 Ang^3
#
#
#
# Elastic Constant Matrix: (Units=GPa)
#
#
# Indices 1 2 3 4 5 6 
#
# 1 72.5616 -2.7666 23.8116 0.0002 -0.0002 -0.0002
# 2 -2.7666 93.5846 25.9073 -0.0003 -0.0003 -0.0001
# 3 23.8116 25.9073 61.0482 0.0012 -0.0009 -0.0014
# 4 0.0002 -0.0003 0.0012 38.9721 -0.0004 -0.0003
# 5 -0.0002 -0.0003 -0.0009 -0.0004 37.1433 0.0002
# 6 -0.0002 -0.0001 -0.0014 -0.0003 0.0002 28.9289
#
#
#
# Elastic Compliance Matrix: (Units=1/GPa)
#
#
# Indices 1 2 3 4 5 6 
#
# 1 0.016322 0.002544 -0.007446 0.000000 0.000000 0.000000
# 2 0.002544 0.012504 -0.006299 0.000000 0.000000 0.000000
# 3 -0.007446 -0.006299 0.021958 -0.000001 0.000000 0.000001
# 4 0.000000 0.000000 -0.000001 0.025659 0.000000 0.000000
# 5 0.000000 0.000000 0.000000 0.000000 0.026923 0.000000
# 6 0.000000 0.000000 0.000001 0.000000 0.000000 0.034568
#
#
# Mechanical properties :
#
#
# Convention : Reuss Voigt Hill
#
# Bulk Modulus (GPa) = 35.23308 35.67766 35.45537
# Shear Modulus (GPa) = 29.44713 33.02500 31.23607
#
# Velocity S-wave (km/s) = 3.50151 3.70813 3.60630
# Velocity P-wave (km/s) = 5.56929 5.76093 5.66592
#
# Compressibility (1/GPa) = 0.02838242
#
# Stress axis : x y z
#
# Youngs Moduli (GPa) = 61.26795 79.97169 45.54209
#
# Poissons Ratio (x) = -0.20343 0.33909
# Poissons Ratio (y) = -0.15585 0.28686
# Poissons Ratio (z) = 0.45618 0.50372
#
# Static dielectric constant tensor:
#      x y z
#    x 1.983850 0.000000 0.000000 
#    y 0.000000 1.943320 0.000000 
#    z 0.000000 0.000000 1.879960 
# 
# From -- ./inp_files/4857.got.cif
#   From: 2010.05.17/outbox.cif.g08.bks.cpg/sg73_3_cif.got.tgz:4857.got - 2010.06.03 17:35:07.
