data_PCOD9531322
_publ_section_title
;
Structure prediction by ZEFSAII (Michael W. Deem and Ramdas Pophale) SiO2 
 PCOD9531322
Probable space group: I B C A 
;
_chemical_formula_sum "Si O2"
_cell_formula_units_Z 120
_cell_length_a 24.426062
_cell_length_b 20.247958
_cell_length_c 11.256065
_cell_angle_alpha 90.000000
_cell_angle_beta 90.000000
_cell_angle_gamma 90.000000
_cell_volume 5567.000736
_symmetry_space_group_name_H-M "I B C A "
_symmetry_group_IT_number 73
_symmetry_cell_setting 'orthorhombic'
loop_
_space_group_symop_operation_xyz
x,y,z
-x,1/2-y,z
x,-y,1/2-z
1/2-x,y,-z
-x,-y,-z
x,1/2+y,-z
-x,y,1/2+z
1/2+x,-y,z
1/2+x,1/2+y,1/2+z
1/2-x,-y,1/2+z
1/2+x,1/2-y,-z
-x,1/2+y,1/2-z
1/2-x,1/2-y,1/2-z
1/2+x,y,1/2-z
1/2-x,1/2+y,z
x,1/2-y,1/2+z
loop_
_atom_site_type_symbol
_atom_site_label
_atom_site_fract_x
_atom_site_fract_y
_atom_site_fract_z
Si Si1 0.154765 0.818382 0.088701
Si Si2 0.154194 0.425210 0.555254
Si Si3 0.075451 0.358976 0.736056
Si Si4 0.531709 0.427375 0.307108
Si Si5 0.250000 0.271961 0.500000
Si Si6 0.906969 0.562351 0.037837
Si Si7 0.737318 0.871781 0.216665
Si Si8 0.152016 0.922226 0.718343
O O1 0.103244 0.802378 0.179707
O O2 0.129347 0.873839 0.002873
O O3 0.196038 0.854191 0.179093
O O4 0.193036 0.766873 0.022347
O O5 0.113204 0.375131 0.623104
O O6 0.125877 0.495407 0.539860
O O7 0.208347 0.428558 0.636602
O O8 0.163533 0.405153 0.419857
O O9 0.079698 0.420774 0.827080
O O10 0.012144 0.368036 0.702895
O O11 0.518864 0.500000 0.250000
O O12 0.543557 0.440834 0.446182
O O13 0.589690 0.405654 0.249798
O O14 0.241379 0.313227 0.620599
O O15 0.795327 0.887857 0.274533
O O16 0.156057 0.000000 0.750000
#
# Coordination Sequence:
#
# PCOD9531322 Si02
#       8
#    16  16  16  16   8  16  16  16
#     4   9  25  40  63  93 123 164 216 271 325 371
#     4  11  19  39  56  92 129 162 213 252 333 394
#     4   9  23  36  61  91 125 173 209 258 325 376
#     4  11  21  36  57  92 135 171 210 256 308 404
#     4  12  22  46  66  90 116 168 228 270 324 390
#     4  10  21  38  57  96 127 169 208 250 332 375
#     4  11  24  40  65  94 121 175 208 276 334 393
#     4  11  23  35  55  95 132 164 209 255 330 392
#
# _framework density 21.555593999999999
#
# number of rings (size 3 to 8) (size 9 to 14) (size 15 to 20)
#    0.800    0.800    4.000    1.600    5.600    1.067 
#    0.000    0.000    0.000    0.800    0.000    0.000 
#    0.000    0.000    0.000    0.000    0.000    0.000 
#
# Total GULP energy -334010.456903 kJ/mol
# GULP energy per Si atom -5566.840948 kJ/mol
# Density = 2.150653 g / cm^3
# Si number density = 21.555594 Si / 1000 Ang^3
#
#
#
# Elastic Constant Matrix: (Units=GPa)
#
#
# Indices 1 2 3 4 5 6 
#
# 1 124.5605 22.0640 13.5314 0.0000 0.0000 0.0000
# 2 22.0640 28.7415 1.4551 0.0000 0.0000 0.0000
# 3 13.5314 1.4551 59.0450 0.0000 0.0000 0.0000
# 4 0.0000 0.0000 0.0000 21.0962 0.0000 0.0000
# 5 0.0000 0.0000 0.0000 0.0000 32.5586 0.0000
# 6 0.0000 0.0000 0.0000 0.0000 0.0000 38.9010
#
#
#
# Elastic Compliance Matrix: (Units=1/GPa)
#
#
# Indices 1 2 3 4 5 6 
#
# 1 0.009523 -0.007209 -0.002005 0.000000 0.000000 0.000000
# 2 -0.007209 0.040294 0.000659 0.000000 0.000000 0.000000
# 3 -0.002005 0.000659 0.017379 0.000000 0.000000 0.000000
# 4 0.000000 0.000000 0.000000 0.047402 0.000000 0.000000
# 5 0.000000 0.000000 0.000000 0.000000 0.030714 0.000000
# 6 0.000000 0.000000 0.000000 0.000000 0.000000 0.025706
#
#
# Mechanical properties :
#
#
# Convention : Reuss Voigt Hill
#
# Bulk Modulus (GPa) = 19.96537 31.82755 25.89646
# Shear Modulus (GPa) = 24.41134 30.19760 27.30447
#
# Velocity S-wave (km/s) = 3.36889 3.74694 3.56293
# Velocity P-wave (km/s) = 4.94115 5.78937 5.38200
#
# Compressibility (1/GPa) = 0.05008673
#
# Stress axis : x y z
#
# Youngs Moduli (GPa) = 105.00923 24.81784 57.53937
#
# Poissons Ratio (x) = 0.17891 0.11535
# Poissons Ratio (y) = 0.75701 -0.03792
# Poissons Ratio (z) = 0.21052 -0.01636
#
# Static dielectric constant tensor:
#      x y z
#    x 1.871780 0.000000 0.000000 
#    y 0.000000 1.794680 0.000000 
#    z 0.000000 0.000000 1.846990 
# 
# From -- ./inp_files/13841.got.cif
#   From: 2010.05.17/outbox.cif.g08.bks.cpg/sg73_7_cif.got.tgz:13841.got - 2010.06.03 17:35:07.
