data_PCOD9531296
_publ_section_title
;
Structure prediction by ZEFSAII (Michael W. Deem and Ramdas Pophale) SiO2 
 PCOD9531296
Probable space group: I B C A 
;
_chemical_formula_sum "Si O2"
_cell_formula_units_Z 72
_cell_length_a 11.844006
_cell_length_b 13.897758
_cell_length_c 22.124681
_cell_angle_alpha 90.000000
_cell_angle_beta 90.000000
_cell_angle_gamma 90.000000
_cell_volume 3641.835973
_symmetry_space_group_name_H-M "I B C A "
_symmetry_group_IT_number 73
_symmetry_cell_setting 'orthorhombic'
loop_
_space_group_symop_operation_xyz
x,y,z
-x,1/2-y,z
x,-y,1/2-z
1/2-x,y,-z
-x,-y,-z
x,1/2+y,-z
-x,y,1/2+z
1/2+x,-y,z
1/2+x,1/2+y,1/2+z
1/2-x,-y,1/2+z
1/2+x,1/2-y,-z
-x,1/2+y,1/2-z
1/2-x,1/2-y,1/2-z
1/2+x,y,1/2-z
1/2-x,1/2+y,z
x,1/2-y,1/2+z
loop_
_atom_site_type_symbol
_atom_site_label
_atom_site_fract_x
_atom_site_fract_y
_atom_site_fract_z
Si Si1 0.724346 0.132662 0.649323
Si Si2 0.322512 0.500000 0.250000
Si Si3 0.501165 0.391981 0.572473
Si Si4 0.892761 0.309660 0.316697
Si Si5 0.635993 0.915460 0.038073
O O1 0.752844 0.050956 0.697243
O O2 0.607025 0.102622 0.616942
O O3 0.709705 0.234556 0.682844
O O4 0.818819 0.137909 0.597281
O O5 0.385302 0.589388 0.282430
O O6 0.586678 0.328213 0.611437
O O7 0.446711 0.361051 0.508637
O O8 0.566677 0.491126 0.559678
O O9 0.000000 0.250000 0.293048
O O10 0.750000 0.941946 0.000000
#
# Coordination Sequence:
#
# PCOD9531296 Si02
#       5
#    16   8  16  16  16
#     4  10  21  37  62  91 125 160 214 252 312 379
#     4  12  22  40  66  86 128 178 204 268 308 368
#     4   9  18  36  61  87 121 161 201 261 322 367
#     4  10  22  39  61  93 124 162 214 256 319 373
#     4   9  17  35  64  88 119 161 205 255 321 376
#
# _framework density 19.770247999999999
#
# number of rings (size 3 to 8) (size 9 to 14) (size 15 to 20)
#    0.000    2.222    2.222    0.667    0.000    3.556 
#    0.000    7.778    4.889    0.000    0.000    0.000 
#    0.000    0.000    0.000    0.000    0.000    0.000 
#
# Total GULP energy -200439.837056 kJ/mol
# GULP energy per Si atom -5567.773252 kJ/mol
# Density = 1.972525 g / cm^3
# Si number density = 19.770248 Si / 1000 Ang^3
#
#
#
# Elastic Constant Matrix: (Units=GPa)
#
#
# Indices 1 2 3 4 5 6 
#
# 1 51.7380 47.5847 36.9021 0.0000 0.0000 0.0000
# 2 47.5847 139.6190 61.5135 0.0000 0.0000 0.0000
# 3 36.9021 61.5135 113.0282 0.0000 0.0000 0.0000
# 4 0.0000 0.0000 0.0000 27.2376 0.0000 0.0000
# 5 0.0000 0.0000 0.0000 0.0000 -0.7883 0.0000
# 6 0.0000 0.0000 0.0000 0.0000 0.0000 37.7448
#
#
#
# Elastic Compliance Matrix: (Units=1/GPa)
#
#
# Indices 1 2 3 4 5 6 
#
# 1 0.030709 -0.007957 -0.005696 0.000000 0.000000 0.000000
# 2 -0.007957 0.011483 -0.003652 0.000000 0.000000 0.000000
# 3 -0.005696 -0.003652 0.012694 0.000000 0.000000 0.000000
# 4 0.000000 0.000000 0.000000 0.036714 0.000000 0.000000
# 5 0.000000 0.000000 0.000000 0.000000 -1.268600 0.000000
# 6 0.000000 0.000000 0.000000 0.000000 0.000000 0.026494
#
#
# Mechanical properties :
#
#
# Convention : Reuss Voigt Hill
#
# Bulk Modulus (GPa) = 49.31492 66.26510 57.79001
# Shear Modulus (GPa) = -4.50800 23.39783 9.44491
#
# Velocity S-wave (km/s) = -1.51167 3.44392 2.18808
# Velocity P-wave (km/s) = 4.68522 7.02883 5.97310
#
# Compressibility (1/GPa) = 0.02027784
#
# Stress axis : x y z
#
# Youngs Moduli (GPa) = 32.56427 87.08549 78.77584
#
# Poissons Ratio (x) = 0.69291 0.44868
# Poissons Ratio (y) = 0.25910 0.28766
# Poissons Ratio (z) = 0.18547 0.31801
#
# Static dielectric constant tensor:
#      x y z
#    x 1.720510 0.000000 0.000000 
#    y 0.000000 1.702350 0.000000 
#    z 0.000000 0.000000 1.728740 
# 
# From -- ./inp_files/10596.got.cif
#   From: 2010.05.17/outbox.cif.g08.bks.cpg/sg73_6_cif.got.tgz:10596.got - 2010.06.03 17:35:07.
