data_PCOD9531309
_publ_section_title
;
Structure prediction by ZEFSAII (Michael W. Deem and Ramdas Pophale) SiO2 
 PCOD9531309
Probable space group: I B C A 
;
_chemical_formula_sum "Si O2"
_cell_formula_units_Z 64
_cell_length_a 15.279328
_cell_length_b 20.155832
_cell_length_c 8.908223
_cell_angle_alpha 90.000000
_cell_angle_beta 90.000000
_cell_angle_gamma 90.000000
_cell_volume 2743.443775
_symmetry_space_group_name_H-M "I B C A "
_symmetry_group_IT_number 73
_symmetry_cell_setting 'orthorhombic'
loop_
_space_group_symop_operation_xyz
x,y,z
-x,1/2-y,z
x,-y,1/2-z
1/2-x,y,-z
-x,-y,-z
x,1/2+y,-z
-x,y,1/2+z
1/2+x,-y,z
1/2+x,1/2+y,1/2+z
1/2-x,-y,1/2+z
1/2+x,1/2-y,-z
-x,1/2+y,1/2-z
1/2-x,1/2-y,1/2-z
1/2+x,y,1/2-z
1/2-x,1/2+y,z
x,1/2-y,1/2+z
loop_
_atom_site_type_symbol
_atom_site_label
_atom_site_fract_x
_atom_site_fract_y
_atom_site_fract_z
Si Si1 0.158558 0.071596 0.685577
Si Si2 0.581377 0.796075 0.218189
Si Si3 0.161095 0.807027 0.594027
Si Si4 0.129416 0.566897 0.659014
O O1 0.137534 0.132227 0.796412
O O2 0.117334 0.072297 0.519959
O O3 0.264976 0.074089 0.676463
O O4 0.134896 0.000000 0.750000
O O5 0.500000 0.750000 0.255243
O O6 0.660408 0.759764 0.307189
O O7 0.579912 0.871411 0.269194
O O8 0.593910 0.796098 0.040796
O O9 0.250000 0.820697 0.500000
O O10 0.105948 0.500000 0.750000
#
# Coordination Sequence:
#
# PCOD9531309 Si02
#       4
#    16  16  16  16
#     4  10  21  37  68 109 142 176 231 288 347 413
#     4  12  26  43  66 100 143 187 234 292 355 419
#     4  12  24  42  68 101 138 185 238 293 344 415
#     4  10  21  40  69 104 144 181 225 288 352 422
#
# _framework density 23.328344999999999
#
# number of rings (size 3 to 8) (size 9 to 14) (size 15 to 20)
#    0.000    1.000    2.500    4.500    7.000    0.000 
#    0.000    2.500    0.000    7.500    0.000    0.000 
#    0.000    0.000    0.000    0.000    0.000    0.000 
#
# Total GULP energy -179061.408021 kJ/mol
# GULP energy per Si atom -5595.669001 kJ/mol
# Density = 2.327525 g / cm^3
# Si number density = 23.328345 Si / 1000 Ang^3
#
#
#
# Elastic Constant Matrix: (Units=GPa)
#
#
# Indices 1 2 3 4 5 6 
#
# 1 60.6109 34.2990 33.1693 0.0000 0.0000 0.0000
# 2 34.2990 219.1498 108.8978 0.0000 0.0000 0.0000
# 3 33.1693 108.8978 217.9165 0.0000 0.0000 0.0000
# 4 0.0000 0.0000 0.0000 51.2100 0.0000 0.0000
# 5 0.0000 0.0000 0.0000 0.0000 13.9513 0.0000
# 6 0.0000 0.0000 0.0000 0.0000 0.0000 10.0420
#
#
#
# Elastic Compliance Matrix: (Units=1/GPa)
#
#
# Indices 1 2 3 4 5 6 
#
# 1 0.018638 -0.002005 -0.001835 0.000000 0.000000 0.000000
# 2 -0.002005 0.006286 -0.002836 0.000000 0.000000 0.000000
# 3 -0.001835 -0.002836 0.006285 0.000000 0.000000 0.000000
# 4 0.000000 0.000000 0.000000 0.019527 0.000000 0.000000
# 5 0.000000 0.000000 0.000000 0.000000 0.071678 0.000000
# 6 0.000000 0.000000 0.000000 0.000000 0.000000 0.099582
#
#
# Mechanical properties :
#
#
# Convention : Reuss Voigt Hill
#
# Bulk Modulus (GPa) = 56.00076 94.48993 75.24534
# Shear Modulus (GPa) = 20.72101 36.46141 28.59121
#
# Velocity S-wave (km/s) = 2.98356 3.95773 3.50465
# Velocity P-wave (km/s) = 5.99386 7.84073 6.97866
#
# Compressibility (1/GPa) = 0.01785690
#
# Stress axis : x y z
#
# Youngs Moduli (GPa) = 53.65526 159.07754 159.09680
#
# Poissons Ratio (x) = 0.31899 0.29191
# Poissons Ratio (y) = 0.10759 0.45122
# Poissons Ratio (z) = 0.09845 0.45117
#
# Static dielectric constant tensor:
#      x y z
#    x 1.978660 0.000000 0.000000 
#    y 0.000000 1.810050 0.000000 
#    z 0.000000 0.000000 1.877070 
# 
# From -- ./inp_files/5223.got.cif
#   From: 2010.05.17/outbox.cif.g08.bks.cpg/sg73_3_cif.got.tgz:5223.got - 2010.06.03 17:35:07.
