data_PCOD9531948
_publ_section_title
;
Structure prediction by ZEFSAII (Michael W. Deem and Ramdas Pophale) SiO2 
 PCOD9531948
Probable space group: I B C A 
;
_chemical_formula_sum "Si O2"
_cell_formula_units_Z 88
_cell_length_a 14.388039
_cell_length_b 13.977968
_cell_length_c 20.536690
_cell_angle_alpha 90.000000
_cell_angle_beta 90.000000
_cell_angle_gamma 90.000000
_cell_volume 4130.247678
_symmetry_space_group_name_H-M "I B C A "
_symmetry_group_IT_number 73
_symmetry_cell_setting 'orthorhombic'
loop_
_space_group_symop_operation_xyz
x,y,z
-x,1/2-y,z
x,-y,1/2-z
1/2-x,y,-z
-x,-y,-z
x,1/2+y,-z
-x,y,1/2+z
1/2+x,-y,z
1/2+x,1/2+y,1/2+z
1/2-x,-y,1/2+z
1/2+x,1/2-y,-z
-x,1/2+y,1/2-z
1/2-x,1/2-y,1/2-z
1/2+x,y,1/2-z
1/2-x,1/2+y,z
x,1/2-y,1/2+z
loop_
_atom_site_type_symbol
_atom_site_label
_atom_site_fract_x
_atom_site_fract_y
_atom_site_fract_z
Si Si1 0.652345 0.379103 0.462814
Si Si2 0.907874 0.008672 0.673553
Si Si3 0.500000 0.250000 0.028092
Si Si4 0.249957 0.355806 0.830651
Si Si5 0.922959 0.944195 0.089486
Si Si6 0.765583 0.132833 0.318107
O O1 0.750000 0.372071 0.500000
O O2 0.582390 0.298127 0.486741
O O3 0.675054 0.367194 0.386747
O O4 0.609535 0.485800 0.468763
O O5 0.839808 0.920526 0.655630
O O6 0.996689 0.999983 0.628409
O O7 0.933294 0.000000 0.750000
O O8 0.840257 0.100248 0.667387
O O9 0.459535 0.159914 0.068074
O O10 0.222254 0.245093 0.828795
O O11 0.282900 0.385056 0.758485
O O12 0.835517 0.924184 0.136373
#
# Coordination Sequence:
#
# PCOD9531948 Si02
#       6
#    16  16   8  16  16  16
#     4  12  27  46  72  98 141 189 241 283 346 421
#     4  10  22  39  67 107 136 167 224 287 358 426
#     4  12  30  48  64 106 140 192 242 294 342 428
#     4  10  22  44  67 102 141 177 231 281 354 424
#     4  12  25  44  75  96 141 181 235 293 361 412
#     4  10  22  41  72 101 138 180 218 297 364 411
#
# _framework density 21.306228999999998
#
# number of rings (size 3 to 8) (size 9 to 14) (size 15 to 20)
#    0.000    1.091    1.818    3.818    5.091    2.182 
#    0.000    0.909    0.000    0.000    0.000    0.000 
#    0.000    0.000    0.000    0.000    0.000    0.000 
#
# Total GULP energy -246128.400704 kJ/mol
# GULP energy per Si atom -5593.827289 kJ/mol
# Density = 2.125773 g / cm^3
# Si number density = 21.306229 Si / 1000 Ang^3
#
#
#
# Elastic Constant Matrix: (Units=GPa)
#
#
# Indices 1 2 3 4 5 6 
#
# 1 108.6126 40.1548 49.7692 0.0000 0.0000 0.0000
# 2 40.1548 71.1097 33.7137 0.0000 0.0000 0.0000
# 3 49.7692 33.7137 61.1674 0.0000 0.0000 0.0000
# 4 0.0000 0.0000 0.0000 35.4528 0.0000 0.0000
# 5 0.0000 0.0000 0.0000 0.0000 34.5792 0.0000
# 6 0.0000 0.0000 0.0000 0.0000 0.0000 20.2044
#
#
#
# Elastic Compliance Matrix: (Units=1/GPa)
#
#
# Indices 1 2 3 4 5 6 
#
# 1 0.015376 -0.003724 -0.010458 0.000000 0.000000 0.000000
# 2 -0.003724 0.019940 -0.007960 0.000000 0.000000 0.000000
# 3 -0.010458 -0.007960 0.029245 0.000000 0.000000 0.000000
# 4 0.000000 0.000000 0.000000 0.028206 0.000000 0.000000
# 5 0.000000 0.000000 0.000000 0.000000 0.028919 0.000000
# 6 0.000000 0.000000 0.000000 0.000000 0.000000 0.049494
#
#
# Mechanical properties :
#
#
# Convention : Reuss Voigt Hill
#
# Bulk Modulus (GPa) = 49.31865 54.24058 51.77962
# Shear Modulus (GPa) = 22.49980 25.86409 24.18194
#
# Velocity S-wave (km/s) = 3.25317 3.48792 3.37259
# Velocity P-wave (km/s) = 6.10808 6.46016 6.28658
#
# Compressibility (1/GPa) = 0.02027630
#
# Stress axis : x y z
#
# Youngs Moduli (GPa) = 65.03566 50.15108 34.19376
#
# Poissons Ratio (x) = 0.18679 0.35760
# Poissons Ratio (y) = 0.24222 0.27218
# Poissons Ratio (z) = 0.68015 0.39919
#
# Static dielectric constant tensor:
#      x y z
#    x 1.751080 0.000000 0.000000 
#    y 0.000000 1.786070 0.000000 
#    z 0.000000 0.000000 1.791430 
# 
# From -- ./inp_files/16937.got.cif
#   From: 2010.05.17/outbox.cif.g08.bks.cpg/sg73_9_cif.got.tgz:16937.got - 2010.06.03 17:35:07.
