data_PCOD9531080
_publ_section_title
;
Structure prediction by ZEFSAII (Michael W. Deem and Ramdas Pophale) SiO2 
 PCOD9531080
Probable space group: I B C A 
;
_chemical_formula_sum "Si O2"
_cell_formula_units_Z 96
_cell_length_a 17.767794
_cell_length_b 9.405836
_cell_length_c 26.743452
_cell_angle_alpha 90.000000
_cell_angle_beta 90.000000
_cell_angle_gamma 90.000000
_cell_volume 4469.391277
_symmetry_space_group_name_H-M "I B C A "
_symmetry_group_IT_number 73
_symmetry_cell_setting 'orthorhombic'
loop_
_space_group_symop_operation_xyz
x,y,z
-x,1/2-y,z
x,-y,1/2-z
1/2-x,y,-z
-x,-y,-z
x,1/2+y,-z
-x,y,1/2+z
1/2+x,-y,z
1/2+x,1/2+y,1/2+z
1/2-x,-y,1/2+z
1/2+x,1/2-y,-z
-x,1/2+y,1/2-z
1/2-x,1/2-y,1/2-z
1/2+x,y,1/2-z
1/2-x,1/2+y,z
x,1/2-y,1/2+z
loop_
_atom_site_type_symbol
_atom_site_label
_atom_site_fract_x
_atom_site_fract_y
_atom_site_fract_z
Si Si1 0.638575 0.363797 0.721699
Si Si2 0.802055 0.121074 0.208400
Si Si3 0.436832 0.860731 0.133401
Si Si4 0.339157 0.329163 0.959112
Si Si5 0.566727 0.175830 0.638119
Si Si6 0.689867 0.339723 0.056220
O O1 0.604749 0.500000 0.750000
O O2 0.676822 0.267188 0.764176
O O3 0.715650 0.405102 0.692271
O O4 0.585335 0.267628 0.687499
O O5 0.857641 0.129283 0.162149
O O6 0.819664 0.000000 0.250000
O O7 0.500000 0.750000 0.150273
O O8 0.412186 0.829052 0.076392
O O9 0.465427 0.018433 0.144699
O O10 0.312288 0.494258 0.960101
O O11 0.272668 0.227450 0.937606
O O12 0.348614 0.260154 0.013868
O O13 0.500000 0.250000 0.608155
O O14 0.642688 0.167669 0.606781
#
# Coordination Sequence:
#
# PCOD9531080 Si02
#       6
#    16  16  16  16  16  16
#     4  10  22  40  66  93 117 161 208 263 319 367
#     4  10  20  42  65  88 122 156 212 261 308 372
#     4  11  25  41  60  90 127 169 209 256 313 379
#     4  10  21  40  65  95 124 159 212 260 316 373
#     4  11  25  42  58  90 131 165 209 254 316 378
#     4  10  21  40  66  94 124 161 207 266 311 373
#
# _framework density 21.479436
#
# number of rings (size 3 to 8) (size 9 to 14) (size 15 to 20)
#    0.000    1.667    1.667    3.000    2.333    4.000 
#    0.000    3.333    0.000    0.000    0.000    0.000 
#    0.000    0.000    0.000    0.000    0.000    0.000 
#
# Total GULP energy -267507.322005 kJ/mol
# GULP energy per Si atom -5573.069208 kJ/mol
# Density = 2.143055 g / cm^3
# Si number density = 21.479436 Si / 1000 Ang^3
#
#
#
# Elastic Constant Matrix: (Units=GPa)
#
#
# Indices 1 2 3 4 5 6 
#
# 1 58.3199 36.1154 21.4239 0.0000 0.0000 0.0000
# 2 36.1154 169.8029 35.3877 0.0000 0.0000 0.0000
# 3 21.4239 35.3877 37.0455 0.0000 0.0000 0.0000
# 4 0.0000 0.0000 0.0000 22.2039 0.0000 0.0000
# 5 0.0000 0.0000 0.0000 0.0000 5.7740 0.0000
# 6 0.0000 0.0000 0.0000 0.0000 0.0000 -78.0727
#
#
#
# Elastic Compliance Matrix: (Units=1/GPa)
#
#
# Indices 1 2 3 4 5 6 
#
# 1 0.022661 -0.002608 -0.010614 0.000000 0.000000 0.000000
# 2 -0.002608 0.007653 -0.005803 0.000000 0.000000 0.000000
# 3 -0.010614 -0.005803 0.038675 0.000000 0.000000 0.000000
# 4 0.000000 0.000000 0.000000 0.045037 0.000000 0.000000
# 5 0.000000 0.000000 0.000000 0.000000 0.173189 0.000000
# 6 0.000000 0.000000 0.000000 0.000000 0.000000 -0.012809
#
#
# Mechanical properties :
#
#
# Convention : Reuss Voigt Hill
#
# Bulk Modulus (GPa) = 32.32031 50.11357 41.21694
# Shear Modulus (GPa) = 15.49099 1.46380 8.47740
#
# Velocity S-wave (km/s) = 2.68843 0.82642 1.98880
# Velocity P-wave (km/s) = 4.97158 4.92871 4.95020
#
# Compressibility (1/GPa) = 0.03094030
#
# Stress axis : x y z
#
# Youngs Moduli (GPa) = 44.12922 130.66614 25.85657
#
# Poissons Ratio (x) = 0.34074 0.27444
# Poissons Ratio (y) = 0.11508 0.15003
# Poissons Ratio (z) = 0.46839 0.75819
#
# Static dielectric constant tensor:
#      x y z
#    x 2.644810 0.000000 0.000000 
#    y 0.000000 1.808280 0.000000 
#    z 0.000000 0.000000 1.840360 
# 
# From -- ./inp_files/32615.got.cif
#   From: 2010.05.17/outbox.cif.g08.bks.cpg/sg73_17_cif.got.tgz:32615.got - 2010.06.03 17:35:07.
