data_PCOD9531702
_publ_section_title
;
Structure prediction by ZEFSAII (Michael W. Deem and Ramdas Pophale) SiO2 
 PCOD9531702
Probable space group: I B C A 
;
_chemical_formula_sum "Si O2"
_cell_formula_units_Z 88
_cell_length_a 22.859809
_cell_length_b 5.313169
_cell_length_c 31.778629
_cell_angle_alpha 90.000000
_cell_angle_beta 90.000000
_cell_angle_gamma 90.000000
_cell_volume 3859.769628
_symmetry_space_group_name_H-M "I B C A "
_symmetry_group_IT_number 73
_symmetry_cell_setting 'orthorhombic'
loop_
_space_group_symop_operation_xyz
x,y,z
-x,1/2-y,z
x,-y,1/2-z
1/2-x,y,-z
-x,-y,-z
x,1/2+y,-z
-x,y,1/2+z
1/2+x,-y,z
1/2+x,1/2+y,1/2+z
1/2-x,-y,1/2+z
1/2+x,1/2-y,-z
-x,1/2+y,1/2-z
1/2-x,1/2-y,1/2-z
1/2+x,y,1/2-z
1/2-x,1/2+y,z
x,1/2-y,1/2+z
loop_
_atom_site_type_symbol
_atom_site_label
_atom_site_fract_x
_atom_site_fract_y
_atom_site_fract_z
Si Si1 0.888477 0.216648 0.853246
Si Si2 0.500000 0.750000 0.528733
Si Si3 0.065847 0.747547 0.232859
Si Si4 0.316644 0.850887 0.016887
Si Si5 0.610809 0.278467 0.408579
Si Si6 0.779011 0.011264 0.800792
O O1 0.936111 0.256606 0.816962
O O2 0.886061 0.468595 0.880887
O O3 0.832664 0.142035 0.824694
O O4 0.898028 0.971648 0.881461
O O5 0.500000 0.500000 0.500000
O O6 0.442754 0.722573 0.558384
O O7 0.096921 0.500000 0.250000
O O8 0.000000 0.750000 0.251309
O O9 0.093913 0.000000 0.250000
O O10 0.328864 0.766896 0.064282
O O11 0.250000 0.879584 0.000000
O O12 0.343493 0.626988 0.989101
O O13 0.728835 0.217613 0.812879
O O14 0.781085 0.000000 0.750000
#
# Coordination Sequence:
#
# PCOD9531702 Si02
#       6
#    16   8  16  16  16  16
#     4  12  25  42  66 103 144 170 230 284 348 393
#     4  12  26  48  76  96 138 180 236 272 338 448
#     4  10  22  40  65  94 131 185 230 265 320 395
#     4  10  21  43  66  90 124 172 215 264 327 414
#     4  12  26  42  68 105 133 179 219 290 352 396
#     4  10  22  43  67  93 134 188 235 276 334 410
#
# _framework density 22.799289000000002
#
# number of rings (size 3 to 8) (size 9 to 14) (size 15 to 20)
#    0.000    1.091    0.000    6.000    2.545    2.182 
#   19.636    0.000    0.000    0.000    0.000    0.000 
#    0.000    0.000    0.000    0.000    0.000    0.000 
#
# Total GULP energy -245550.075832 kJ/mol
# GULP energy per Si atom -5580.683542 kJ/mol
# Density = 2.274740 g / cm^3
# Si number density = 22.799289 Si / 1000 Ang^3
#
#
#
# Elastic Constant Matrix: (Units=GPa)
#
#
# Indices 1 2 3 4 5 6 
#
# 1 76.2635 22.0891 27.5467 0.0000 0.0000 0.0000
# 2 22.0891 200.8071 67.2186 0.0000 0.0000 0.0000
# 3 27.5467 67.2186 119.8687 0.0000 0.0000 0.0000
# 4 0.0000 0.0000 0.0000 60.7405 0.0000 0.0000
# 5 0.0000 0.0000 0.0000 0.0000 24.4273 0.0000
# 6 0.0000 0.0000 0.0000 0.0000 0.0000 -2.7875
#
#
#
# Elastic Compliance Matrix: (Units=1/GPa)
#
#
# Indices 1 2 3 4 5 6 
#
# 1 0.014355 -0.000585 -0.002971 0.000000 0.000000 0.000000
# 2 -0.000585 0.006155 -0.003317 0.000000 0.000000 0.000000
# 3 -0.002971 -0.003317 0.010885 0.000000 0.000000 0.000000
# 4 0.000000 0.000000 0.000000 0.016463 0.000000 0.000000
# 5 0.000000 0.000000 0.000000 0.000000 0.040938 0.000000
# 6 0.000000 0.000000 0.000000 0.000000 0.000000 -0.358749
#
#
# Mechanical properties :
#
#
# Convention : Reuss Voigt Hill
#
# Bulk Modulus (GPa) = 56.65841 70.07199 63.36520
# Shear Modulus (GPa) = -19.97403 35.14840 7.58718
#
# Velocity S-wave (km/s) = -2.96308 3.93064 1.82621
# Velocity P-wave (km/s) = 3.63297 7.16944 5.68328
#
# Compressibility (1/GPa) = 0.01764963
#
# Stress axis : x y z
#
# Youngs Moduli (GPa) = 69.66261 162.48222 91.86724
#
# Poissons Ratio (x) = 0.09497 0.27295
# Poissons Ratio (y) = 0.04072 0.30472
# Poissons Ratio (z) = 0.20697 0.53894
#
# Static dielectric constant tensor:
#      x y z
#    x 3.717400 0.000000 0.000000 
#    y 0.000000 1.870920 0.000000 
#    z 0.000000 0.000000 1.838720 
# 
# From -- ./inp_files/34753.got.cif
#   From: 2010.05.17/outbox.cif.g08.bks.cpg/sg73_18_cif.got.tgz:34753.got - 2010.06.03 17:35:07.
