data_PCOD9531359
_publ_section_title
;
Structure prediction by ZEFSAII (Michael W. Deem and Ramdas Pophale) SiO2 
 PCOD9531359
Probable space group: I B C A 
;
_chemical_formula_sum "Si O2"
_cell_formula_units_Z 88
_cell_length_a 15.528742
_cell_length_b 10.114981
_cell_length_c 29.597068
_cell_angle_alpha 90.000000
_cell_angle_beta 90.000000
_cell_angle_gamma 90.000000
_cell_volume 4648.898199
_symmetry_space_group_name_H-M "I B C A "
_symmetry_group_IT_number 73
_symmetry_cell_setting 'orthorhombic'
loop_
_space_group_symop_operation_xyz
x,y,z
-x,1/2-y,z
x,-y,1/2-z
1/2-x,y,-z
-x,-y,-z
x,1/2+y,-z
-x,y,1/2+z
1/2+x,-y,z
1/2+x,1/2+y,1/2+z
1/2-x,-y,1/2+z
1/2+x,1/2-y,-z
-x,1/2+y,1/2-z
1/2-x,1/2-y,1/2-z
1/2+x,y,1/2-z
1/2-x,1/2+y,z
x,1/2-y,1/2+z
loop_
_atom_site_type_symbol
_atom_site_label
_atom_site_fract_x
_atom_site_fract_y
_atom_site_fract_z
Si Si1 0.596613 0.746054 0.850163
Si Si2 0.750000 0.161426 0.000000
Si Si3 0.733996 0.373580 0.718276
Si Si4 0.158336 0.461318 0.917126
Si Si5 0.162201 0.541981 0.364460
Si Si6 0.597449 0.755986 0.064792
O O1 0.500000 0.750000 0.833466
O O2 0.656469 0.671012 0.814276
O O3 0.605835 0.660067 0.895845
O O4 0.624077 0.896265 0.859479
O O5 0.691076 0.074490 0.033087
O O6 0.820972 0.238397 0.030560
O O7 0.717169 0.500000 0.750000
O O8 0.750000 0.250000 0.750000
O O9 0.814704 0.401583 0.684987
O O10 0.245643 0.476108 0.888594
O O11 0.107944 0.597774 0.915126
O O12 0.110346 0.644290 0.396310
O O13 0.500000 0.750000 0.045395
#
# Coordination Sequence:
#
# PCOD9531359 Si02
#       6
#    16   8  16  16  16  16
#     4  11  23  40  60  91 124 157 201 254 315 365
#     4  10  22  38  62  92 128 164 210 260 314 370
#     4  11  22  41  65  87 118 162 206 247 308 377
#     4  10  21  38  63  86 121 165 206 252 307 373
#     4  10  21  40  63  85 122 161 204 250 308 382
#     4  11  23  39  62  94 123 164 214 259 314 370
#
# _framework density 18.929216
#
# number of rings (size 3 to 8) (size 9 to 14) (size 15 to 20)
#    0.000    1.455    1.818    4.909    2.545    2.909 
#    3.273    0.000    0.000    0.000    0.000    0.000 
#    0.000    0.000    0.000    0.000    0.000    0.000 
#
# Total GULP energy -245463.852132 kJ/mol
# GULP energy per Si atom -5578.723912 kJ/mol
# Density = 1.888613 g / cm^3
# Si number density = 18.929216 Si / 1000 Ang^3
#
#
#
# Elastic Constant Matrix: (Units=GPa)
#
#
# Indices 1 2 3 4 5 6 
#
# 1 85.5522 45.1012 15.8263 0.0000 0.0000 0.0000
# 2 45.1012 167.0304 59.1071 0.0000 0.0000 0.0000
# 3 15.8263 59.1071 93.2821 0.0000 0.0000 0.0000
# 4 0.0000 0.0000 0.0000 7.5973 0.0000 0.0000
# 5 0.0000 0.0000 0.0000 0.0000 8.8951 0.0000
# 6 0.0000 0.0000 0.0000 0.0000 0.0000 -5.1130
#
#
#
# Elastic Compliance Matrix: (Units=1/GPa)
#
#
# Indices 1 2 3 4 5 6 
#
# 1 0.013629 -0.003689 0.000025 0.000000 0.000000 0.000000
# 2 -0.003689 0.008716 -0.004897 0.000000 0.000000 0.000000
# 3 0.000025 -0.004897 0.013819 0.000000 0.000000 0.000000
# 4 0.000000 0.000000 0.000000 0.131626 0.000000 0.000000
# 5 0.000000 0.000000 0.000000 0.000000 0.112422 0.000000
# 6 0.000000 0.000000 0.000000 0.000000 0.000000 -0.195579
#
#
# Mechanical properties :
#
#
# Convention : Reuss Voigt Hill
#
# Bulk Modulus (GPa) = 52.51488 65.10377 58.80932
# Shear Modulus (GPa) = 46.25297 17.33120 31.79209
#
# Velocity S-wave (km/s) = 4.94851 3.02914 4.10265
# Velocity P-wave (km/s) = 7.77517 6.83390 7.31968
#
# Compressibility (1/GPa) = 0.01904222
#
# Stress axis : x y z
#
# Youngs Moduli (GPa) = 73.37384 114.73344 72.36557
#
# Poissons Ratio (x) = 0.42324 -0.00182
# Poissons Ratio (y) = 0.27067 0.35436
# Poissons Ratio (z) = -0.00185 0.56183
#
# Static dielectric constant tensor:
#      x y z
#    x 1.663780 0.000000 0.000000 
#    y 0.000000 1.688480 0.000000 
#    z 0.000000 0.000000 1.633250 
# 
# From -- ./inp_files/14210.got.cif
#   From: 2010.05.17/outbox.cif.g08.bks.cpg/sg73_8_cif.got.tgz:14210.got - 2010.06.03 17:35:07.
