data_PCOD9531241
_publ_section_title
;
Structure prediction by ZEFSAII (Michael W. Deem and Ramdas Pophale) SiO2 
 PCOD9531241
Probable space group: I B C A 
;
_chemical_formula_sum "Si O2"
_cell_formula_units_Z 104
_cell_length_a 11.050870
_cell_length_b 28.852092
_cell_length_c 16.360156
_cell_angle_alpha 90.000000
_cell_angle_beta 90.000000
_cell_angle_gamma 90.000000
_cell_volume 5216.283884
_symmetry_space_group_name_H-M "I B C A "
_symmetry_group_IT_number 73
_symmetry_cell_setting 'orthorhombic'
loop_
_space_group_symop_operation_xyz
x,y,z
-x,1/2-y,z
x,-y,1/2-z
1/2-x,y,-z
-x,-y,-z
x,1/2+y,-z
-x,y,1/2+z
1/2+x,-y,z
1/2+x,1/2+y,1/2+z
1/2-x,-y,1/2+z
1/2+x,1/2-y,-z
-x,1/2+y,1/2-z
1/2-x,1/2-y,1/2-z
1/2+x,y,1/2-z
1/2-x,1/2+y,z
x,1/2-y,1/2+z
loop_
_atom_site_type_symbol
_atom_site_label
_atom_site_fract_x
_atom_site_fract_y
_atom_site_fract_z
Si Si1 0.250000 0.840876 0.000000
Si Si2 0.640621 0.374305 0.940885
Si Si3 0.494988 0.804841 0.940829
Si Si4 0.845764 0.139571 0.320990
Si Si5 0.711635 0.102003 0.853487
Si Si6 0.531902 0.060763 0.166323
Si Si7 0.995414 0.957673 0.856203
O O1 0.147926 0.814902 0.051680
O O2 0.321391 0.871939 0.064333
O O3 0.714458 0.355094 0.862384
O O4 0.566013 0.419260 0.913198
O O5 0.750000 0.388804 0.000000
O O6 0.565755 0.334793 0.989286
O O7 0.500000 0.750000 0.951902
O O8 0.562614 0.821934 0.857592
O O9 0.826528 0.133026 0.224234
O O10 0.911546 0.091088 0.346187
O O11 0.852751 0.090698 0.858152
O O12 0.637532 0.054220 0.850800
O O13 0.548456 0.051455 0.263282
O O14 0.526848 0.011015 0.123199
#
# Coordination Sequence:
#
# PCOD9531241 Si02
#       7
#     8  16  16  16  16  16  16
#     4  12  24  44  66  96 132 172 214 286 340 392
#     4  10  21  40  62  90 127 170 212 268 337 400
#     4  11  25  45  70  97 126 167 221 279 353 411
#     4  10  22  42  66  91 130 176 219 271 329 407
#     4  11  22  41  64  90 134 173 216 272 327 384
#     4  10  21  36  63  92 127 175 224 265 309 393
#     4  10  21  36  60  92 125 174 221 258 319 380
#
# _framework density 19.937564999999999
#
# number of rings (size 3 to 8) (size 9 to 14) (size 15 to 20)
#    0.000    1.538    4.615    0.000    5.385    1.231 
#    1.385    5.385    0.000    0.000    0.000    0.000 
#    0.000    0.000    0.000    0.000    0.000    0.000 
#
# Total GULP energy -289918.967981 kJ/mol
# GULP energy per Si atom -5575.364769 kJ/mol
# Density = 1.989219 g / cm^3
# Si number density = 19.937565 Si / 1000 Ang^3
#
#
#
# Elastic Constant Matrix: (Units=GPa)
#
#
# Indices 1 2 3 4 5 6 
#
# 1 74.3653 28.9127 19.6535 0.0000 0.0000 0.0000
# 2 28.9127 123.8956 40.7682 0.0000 0.0000 0.0000
# 3 19.6535 40.7682 75.8684 0.0001 -0.0001 0.0000
# 4 0.0000 0.0000 0.0001 10.1255 0.0000 0.0000
# 5 0.0000 0.0000 -0.0001 0.0000 15.0068 0.0000
# 6 0.0000 0.0000 0.0000 0.0000 0.0000 26.3922
#
#
#
# Elastic Compliance Matrix: (Units=1/GPa)
#
#
# Indices 1 2 3 4 5 6 
#
# 1 0.015158 -0.002728 -0.002461 0.000000 0.000000 0.000000
# 2 -0.002728 0.010296 -0.004826 0.000000 0.000000 0.000000
# 3 -0.002461 -0.004826 0.016411 0.000000 0.000000 0.000000
# 4 0.000000 0.000000 0.000000 0.098761 0.000000 0.000000
# 5 0.000000 0.000000 0.000000 0.000000 0.066636 0.000000
# 6 0.000000 0.000000 0.000000 0.000000 0.000000 0.037890
#
#
# Mechanical properties :
#
#
# Convention : Reuss Voigt Hill
#
# Bulk Modulus (GPa) = 45.79522 50.31091 48.05307
# Shear Modulus (GPa) = 18.35132 22.62457 20.48794
#
# Velocity S-wave (km/s) = 3.03717 3.37229 3.20911
# Velocity P-wave (km/s) = 5.94292 6.36020 6.15510
#
# Compressibility (1/GPa) = 0.02183634
#
# Stress axis : x y z
#
# Youngs Moduli (GPa) = 65.97192 97.12696 60.93304
#
# Poissons Ratio (x) = 0.26492 0.14996
# Poissons Ratio (y) = 0.17994 0.29406
# Poissons Ratio (z) = 0.16236 0.46873
#
# Static dielectric constant tensor:
#      x y z
#    x 1.733530 0.000000 0.000000 
#    y 0.000000 1.677790 0.000000 
#    z 0.000000 0.000000 1.738410 
# 
# From -- ./inp_files/21478.got.cif
#   From: 2010.05.17/outbox.cif.g08.bks.cpg/sg73_11_cif.got.tgz:21478.got - 2010.06.03 17:35:07.
