data_PCOD9531747
_publ_section_title
;
Structure prediction by ZEFSAII (Michael W. Deem and Ramdas Pophale) SiO2 
 PCOD9531747
Probable space group: I B C A 
;
_chemical_formula_sum "Si O2"
_cell_formula_units_Z 96
_cell_length_a 9.301062
_cell_length_b 24.702374
_cell_length_c 17.685872
_cell_angle_alpha 90.000000
_cell_angle_beta 90.000000
_cell_angle_gamma 90.000000
_cell_volume 4063.476099
_symmetry_space_group_name_H-M "I B C A "
_symmetry_group_IT_number 73
_symmetry_cell_setting 'orthorhombic'
loop_
_space_group_symop_operation_xyz
x,y,z
-x,1/2-y,z
x,-y,1/2-z
1/2-x,y,-z
-x,-y,-z
x,1/2+y,-z
-x,y,1/2+z
1/2+x,-y,z
1/2+x,1/2+y,1/2+z
1/2-x,-y,1/2+z
1/2+x,1/2-y,-z
-x,1/2+y,1/2-z
1/2-x,1/2-y,1/2-z
1/2+x,y,1/2-z
1/2-x,1/2+y,z
x,1/2-y,1/2+z
loop_
_atom_site_type_symbol
_atom_site_label
_atom_site_fract_x
_atom_site_fract_y
_atom_site_fract_z
Si Si1 0.999473 0.139230 0.461556
Si Si2 0.750000 0.337849 0.000000
Si Si3 0.313371 0.236275 0.607305
Si Si4 0.112510 0.000000 0.250000
Si Si5 0.032001 0.830668 0.874729
Si Si6 0.500000 0.750000 0.252552
Si Si7 0.250000 0.945358 0.000000
Si Si8 0.857523 0.950209 0.344276
O O1 0.085394 0.187082 0.420643
O O2 0.940313 0.159275 0.548035
O O3 0.118613 0.093589 0.473222
O O4 0.842235 0.118029 0.442961
O O5 0.814958 0.288692 0.943180
O O6 0.155351 0.211388 0.602193
O O7 0.366435 0.253263 0.690158
O O8 0.222790 0.957729 0.211909
O O9 0.002482 0.976224 0.311647
O O10 0.105898 0.887096 0.855469
O O11 0.970476 0.801931 0.800803
O O12 0.309194 0.973771 0.074701
#
# Coordination Sequence:
#
# PCOD9531747 Si02
#       8
#    16   8  16   8  16   8   8  16
#     4  11  20  39  61  83 121 174 226 255 318 369
#     4  12  21  34  60  83 128 178 230 265 296 365
#     4  12  21  38  57  84 124 182 218 260 302 371
#     4  10  24  48  70 104 126 168 208 278 356 420
#     4  11  23  40  61  90 130 175 207 268 313 388
#     4  12  26  34  56  98 138 170 224 258 318 372
#     4  10  21  44  72  95 122 170 216 275 330 403
#     4  10  23  45  75  95 133 167 218 271 345 401
#
# _framework density 23.625094000000001
#
# number of rings (size 3 to 8) (size 9 to 14) (size 15 to 20)
#    0.000    1.000    6.667    1.500    2.333    0.667 
#    3.000    3.333    0.000    0.000    0.000    0.000 
#    0.000    0.000    0.000    0.000    0.000    0.000 
#
# Total GULP energy -267288.313392 kJ/mol
# GULP energy per Si atom -5568.506529 kJ/mol
# Density = 2.357132 g / cm^3
# Si number density = 23.625094 Si / 1000 Ang^3
#
#
#
# Elastic Constant Matrix: (Units=GPa)
#
#
# Indices 1 2 3 4 5 6 
#
# 1 135.7112 16.0752 24.7677 0.0000 0.0000 0.0000
# 2 16.0752 53.5827 31.8817 0.0000 0.0000 0.0000
# 3 24.7677 31.8817 144.8454 -0.0001 0.0000 0.0001
# 4 0.0000 0.0000 -0.0001 33.6876 0.0000 0.0001
# 5 0.0000 0.0000 0.0000 0.0000 41.0809 0.0000
# 6 0.0000 0.0000 0.0001 0.0001 0.0000 14.5729
#
#
#
# Elastic Compliance Matrix: (Units=1/GPa)
#
#
# Indices 1 2 3 4 5 6 
#
# 1 0.007749 -0.001768 -0.000936 0.000000 0.000000 0.000000
# 2 -0.001768 0.021879 -0.004513 0.000000 0.000000 0.000000
# 3 -0.000936 -0.004513 0.008057 0.000000 0.000000 0.000000
# 4 0.000000 0.000000 0.000000 0.029684 0.000000 0.000000
# 5 0.000000 0.000000 0.000000 0.000000 0.024342 0.000000
# 6 0.000000 0.000000 0.000000 0.000000 0.000000 0.068620
#
#
# Mechanical properties :
#
#
# Convention : Reuss Voigt Hill
#
# Bulk Modulus (GPa) = 43.00975 53.28760 48.14868
# Shear Modulus (GPa) = 27.39483 35.29594 31.34539
#
# Velocity S-wave (km/s) = 3.40893 3.86943 3.64646
# Velocity P-wave (km/s) = 5.80853 6.52440 6.17684
#
# Compressibility (1/GPa) = 0.02325054
#
# Stress axis : x y z
#
# Youngs Moduli (GPa) = 129.05234 45.70686 124.10997
#
# Poissons Ratio (x) = 0.08080 0.11615
# Poissons Ratio (y) = 0.22815 0.56015
# Poissons Ratio (z) = 0.12078 0.20629
#
# Static dielectric constant tensor:
#      x y z
#    x 2.580750 0.000000 0.000000 
#    y 0.000000 1.899060 0.000000 
#    z 0.000000 0.000000 2.024550 
# 
# From -- ./inp_files/21410.got.cif
#   From: 2010.05.17/outbox.cif.g08.bks.cpg/sg73_11_cif.got.tgz:21410.got - 2010.06.03 17:35:07.
