data_PCOD9531018
_publ_section_title
;
Structure prediction by ZEFSAII (Michael W. Deem and Ramdas Pophale) SiO2 
 PCOD9531018
Probable space group: I B C A 
;
_chemical_formula_sum "Si O2"
_cell_formula_units_Z 88
_cell_length_a 20.509857
_cell_length_b 30.636405
_cell_length_c 5.718347
_cell_angle_alpha 90.000000
_cell_angle_beta 90.000000
_cell_angle_gamma 90.000000
_cell_volume 3593.113534
_symmetry_space_group_name_H-M "I B C A "
_symmetry_group_IT_number 73
_symmetry_cell_setting 'orthorhombic'
loop_
_space_group_symop_operation_xyz
x,y,z
-x,1/2-y,z
x,-y,1/2-z
1/2-x,y,-z
-x,-y,-z
x,1/2+y,-z
-x,y,1/2+z
1/2+x,-y,z
1/2+x,1/2+y,1/2+z
1/2-x,-y,1/2+z
1/2+x,1/2-y,-z
-x,1/2+y,1/2-z
1/2-x,1/2-y,1/2-z
1/2+x,y,1/2-z
1/2-x,1/2+y,z
x,1/2-y,1/2+z
loop_
_atom_site_type_symbol
_atom_site_label
_atom_site_fract_x
_atom_site_fract_y
_atom_site_fract_z
Si Si1 0.178019 0.552289 0.936688
Si Si2 0.924016 0.000000 0.250000
Si Si3 0.850417 0.862603 0.163163
Si Si4 0.676004 0.233597 0.759458
Si Si5 0.420491 0.077406 0.540377
Si Si6 0.511674 0.340634 0.079076
O O1 0.136794 0.554673 0.695301
O O2 0.250000 0.532873 0.000000
O O3 0.124850 0.529379 0.098372
O O4 0.184978 0.602972 0.002615
O O5 0.957190 0.963176 0.412603
O O6 0.818603 0.818670 0.250645
O O7 0.878320 0.891086 0.374824
O O8 0.913405 0.848127 0.018667
O O9 0.750000 0.250000 0.750000
O O10 0.646494 0.250617 0.509763
O O11 0.475149 0.112487 0.624351
O O12 0.514643 0.319363 0.339266
#
# Coordination Sequence:
#
# PCOD9531018 Si02
#       6
#    16   8  16  16  16  16
#     4  11  24  38  66  95 135 181 230 285 348 419
#     4  10  24  40  60  98 138 186 226 290 352 410
#     4  10  23  41  68 101 130 182 231 280 354 412
#     4  10  24  41  67 101 144 176 219 283 350 420
#     4  10  22  42  66  97 135 184 239 291 349 413
#     4  10  20  40  69  97 130 176 235 288 331 406
#
# _framework density 24.491292999999999
#
# number of rings (size 3 to 8) (size 9 to 14) (size 15 to 20)
#    0.000    1.818    1.818    0.545    7.636    3.636 
#    0.000    8.182    0.000   13.091    0.000    0.000 
#    0.000    0.000    0.000    0.000    0.000    0.000 
#
# Total GULP energy -244937.557546 kJ/mol
# GULP energy per Si atom -5566.762671 kJ/mol
# Density = 2.443555 g / cm^3
# Si number density = 24.491293 Si / 1000 Ang^3
#
#
#
# Elastic Constant Matrix: (Units=GPa)
#
#
# Indices 1 2 3 4 5 6 
#
# 1 48.7531 -12.6352 -16.1886 0.0000 0.0000 0.0000
# 2 -12.6352 124.4156 39.0477 0.0000 0.0000 0.0000
# 3 -16.1886 39.0477 123.4436 0.0000 0.0001 0.0000
# 4 0.0000 0.0000 0.0000 27.0025 0.0000 0.0000
# 5 0.0000 0.0000 0.0001 0.0000 115.3393 -0.0001
# 6 0.0000 0.0000 0.0000 0.0000 -0.0001 -2.2772
#
#
#
# Elastic Compliance Matrix: (Units=1/GPa)
#
#
# Indices 1 2 3 4 5 6 
#
# 1 0.021680 0.001454 0.002383 0.000000 0.000000 0.000000
# 2 0.001454 0.009021 -0.002663 0.000000 0.000000 0.000000
# 3 0.002383 -0.002663 0.009256 0.000000 0.000000 0.000000
# 4 0.000000 0.000000 0.000000 0.037034 0.000000 0.000000
# 5 0.000000 0.000000 0.000000 0.000000 0.008670 0.000000
# 6 0.000000 0.000000 0.000000 0.000000 0.000000 -0.439145
#
#
# Mechanical properties :
#
#
# Convention : Reuss Voigt Hill
#
# Bulk Modulus (GPa) = 23.63810 35.22889 29.43350
# Shear Modulus (GPa) = -14.63138 47.10550 16.23706
#
# Velocity S-wave (km/s) = -2.44685 4.39037 2.57762
# Velocity P-wave (km/s) = 1.29993 6.33371 4.57196
#
# Compressibility (1/GPa) = 0.04230458
#
# Stress axis : x y z
#
# Youngs Moduli (GPa) = 46.12621 110.85309 108.04127
#
# Poissons Ratio (x) = -0.16115 -0.25749
# Poissons Ratio (y) = -0.06706 0.28770
# Poissons Ratio (z) = -0.10993 0.29519
#
# Static dielectric constant tensor:
#      x y z
#    x 1.943760 0.000000 0.000000 
#    y 0.000000 1.992930 0.000000 
#    z 0.000000 0.000000 2.220720 
# 
# From -- ./inp_files/2280.got.cif
#   From: 2010.05.17/outbox.cif.g08.bks.cpg/sg73_2_cif.got.tgz:2280.got - 2010.06.03 17:35:07.
