data_PCOD9531368
_publ_section_title
;
Structure prediction by ZEFSAII (Michael W. Deem and Ramdas Pophale) SiO2 
 PCOD9531368
Probable space group: I B C A 
;
_chemical_formula_sum "Si O2"
_cell_formula_units_Z 104
_cell_length_a 21.254953
_cell_length_b 14.889730
_cell_length_c 15.703697
_cell_angle_alpha 90.000000
_cell_angle_beta 90.000000
_cell_angle_gamma 90.000000
_cell_volume 4969.914056
_symmetry_space_group_name_H-M "I B C A "
_symmetry_group_IT_number 73
_symmetry_cell_setting 'orthorhombic'
loop_
_space_group_symop_operation_xyz
x,y,z
-x,1/2-y,z
x,-y,1/2-z
1/2-x,y,-z
-x,-y,-z
x,1/2+y,-z
-x,y,1/2+z
1/2+x,-y,z
1/2+x,1/2+y,1/2+z
1/2-x,-y,1/2+z
1/2+x,1/2-y,-z
-x,1/2+y,1/2-z
1/2-x,1/2-y,1/2-z
1/2+x,y,1/2-z
1/2-x,1/2+y,z
x,1/2-y,1/2+z
loop_
_atom_site_type_symbol
_atom_site_label
_atom_site_fract_x
_atom_site_fract_y
_atom_site_fract_z
Si Si1 0.449910 0.669056 0.281989
Si Si2 0.122019 0.546705 0.380515
Si Si3 0.743539 0.981034 0.097081
Si Si4 0.471504 0.500000 0.750000
Si Si5 0.724855 0.223483 0.616786
Si Si6 0.152871 0.716812 0.287231
Si Si7 0.358498 0.113327 0.570849
O O1 0.500000 0.750000 0.291915
O O2 0.484700 0.585603 0.241182
O O3 0.392036 0.698230 0.221511
O O4 0.417405 0.642610 0.371684
O O5 0.192025 0.511240 0.359167
O O6 0.070768 0.484784 0.334926
O O7 0.113928 0.638384 0.329207
O O8 0.120252 0.569738 0.480882
O O9 0.745589 0.872995 0.091747
O O10 0.682437 0.038168 0.123416
O O11 0.750000 0.013625 0.000000
O O12 0.784167 0.273468 0.657849
O O13 0.676114 0.199209 0.691687
O O14 0.686405 0.296780 0.560040
#
# Coordination Sequence:
#
# PCOD9531368 Si02
#       7
#    16  16  16   8  16  16  16
#     4  11  25  47  62  93 130 176 228 280 322 391
#     4  11  22  43  67  95 130 173 216 275 334 404
#     4  10  22  36  62  96 129 163 205 260 337 392
#     4  12  26  44  72  88 134 180 232 278 318 400
#     4  10  21  38  63  95 131 168 202 269 332 395
#     4  10  21  40  63  92 127 166 217 262 330 389
#     4  10  24  43  64  98 133 163 218 278 332 401
#
# _framework density 20.925916000000001
#
# number of rings (size 3 to 8) (size 9 to 14) (size 15 to 20)
#    0.000    1.538    3.077    0.923    6.462    0.615 
#    2.769    0.000    0.000    0.000    0.000    0.000 
#    0.000    0.000    0.000    0.000    0.000    0.000 
#
# Total GULP energy -289791.083939 kJ/mol
# GULP energy per Si atom -5572.905460 kJ/mol
# Density = 2.087829 g / cm^3
# Si number density = 20.925916 Si / 1000 Ang^3
#
#
#
# Elastic Constant Matrix: (Units=GPa)
#
#
# Indices 1 2 3 4 5 6 
#
# 1 66.1071 10.2018 5.2826 0.0000 0.0000 0.0000
# 2 10.2018 83.3109 -5.9773 0.0000 0.0000 0.0000
# 3 5.2826 -5.9773 32.9386 0.0000 0.0000 0.0000
# 4 0.0000 0.0000 0.0000 25.8541 0.0000 0.0000
# 5 0.0000 0.0000 0.0000 0.0000 18.6702 0.0000
# 6 0.0000 0.0000 0.0000 0.0000 0.0000 33.6863
#
#
#
# Elastic Compliance Matrix: (Units=1/GPa)
#
#
# Indices 1 2 3 4 5 6 
#
# 1 0.015687 -0.002129 -0.002902 0.000000 0.000000 0.000000
# 2 -0.002129 0.012451 0.002601 0.000000 0.000000 0.000000
# 3 -0.002902 0.002601 0.031297 0.000000 0.000000 0.000000
# 4 0.000000 0.000000 0.000000 0.038679 0.000000 0.000000
# 5 0.000000 0.000000 0.000000 0.000000 0.053561 0.000000
# 6 0.000000 0.000000 0.000000 0.000000 0.000000 0.029686
#
#
# Mechanical properties :
#
#
# Convention : Reuss Voigt Hill
#
# Bulk Modulus (GPa) = 18.32386 22.37454 20.34920
# Shear Modulus (GPa) = 24.46025 27.16541 25.81283
#
# Velocity S-wave (km/s) = 3.42262 3.60692 3.51598
# Velocity P-wave (km/s) = 4.93910 5.29736 5.12136
#
# Compressibility (1/GPa) = 0.05457364
#
# Stress axis : x y z
#
# Youngs Moduli (GPa) = 63.74505 80.31764 31.95199
#
# Poissons Ratio (x) = 0.17102 0.09273
# Poissons Ratio (y) = 0.13573 -0.08310
# Poissons Ratio (z) = 0.18501 -0.20890
#
# Static dielectric constant tensor:
#      x y z
#    x 1.774880 0.000000 0.000000 
#    y 0.000000 1.795330 0.000000 
#    z 0.000000 0.000000 1.764090 
# 
# From -- ./inp_files/23212.got.cif
#   From: 2010.05.17/outbox.cif.g08.bks.cpg/sg73_12_cif.got.tgz:23212.got - 2010.06.03 17:35:07.
