data_PCOD9531617
_publ_section_title
;
Structure prediction by ZEFSAII (Michael W. Deem and Ramdas Pophale) SiO2 
 PCOD9531617
Probable space group: I B C A 
;
_chemical_formula_sum "Si O2"
_cell_formula_units_Z 112
_cell_length_a 21.523483
_cell_length_b 15.089770
_cell_length_c 15.456561
_cell_angle_alpha 90.000000
_cell_angle_beta 90.000000
_cell_angle_gamma 90.000000
_cell_volume 5020.050015
_symmetry_space_group_name_H-M "I B C A "
_symmetry_group_IT_number 73
_symmetry_cell_setting 'orthorhombic'
loop_
_space_group_symop_operation_xyz
x,y,z
-x,1/2-y,z
x,-y,1/2-z
1/2-x,y,-z
-x,-y,-z
x,1/2+y,-z
-x,y,1/2+z
1/2+x,-y,z
1/2+x,1/2+y,1/2+z
1/2-x,-y,1/2+z
1/2+x,1/2-y,-z
-x,1/2+y,1/2-z
1/2-x,1/2-y,1/2-z
1/2+x,y,1/2-z
1/2-x,1/2+y,z
x,1/2-y,1/2+z
loop_
_atom_site_type_symbol
_atom_site_label
_atom_site_fract_x
_atom_site_fract_y
_atom_site_fract_z
Si Si1 0.572286 0.729552 0.230029
Si Si2 0.274789 0.986334 0.346494
Si Si3 0.702858 0.702599 0.315517
Si Si4 0.196505 0.134457 0.429490
Si Si5 0.378447 0.999486 0.493230
Si Si6 0.459209 0.545315 0.658981
Si Si7 0.396510 0.570278 0.175025
O O1 0.500000 0.750000 0.263526
O O2 0.632245 0.688203 0.280892
O O3 0.560178 0.649559 0.161533
O O4 0.598978 0.827059 0.204835
O O5 0.258994 0.883489 0.344371
O O6 0.322138 0.991969 0.425526
O O7 0.300849 0.000000 0.250000
O O8 0.224169 0.062062 0.362386
O O9 0.750000 0.750000 0.250000
O O10 0.690754 0.769773 0.391994
O O11 0.250000 0.138547 0.500000
O O12 0.132104 0.096204 0.464590
O O13 0.371355 0.936528 0.576278
O O14 0.435505 0.997442 0.427655
O O15 0.439273 0.500000 0.750000
O O16 0.532817 0.540304 0.659734
O O17 0.373777 0.500000 0.250000
#
# Coordination Sequence:
#
# PCOD9531617 Si02
#       7
#    16  16  16  16  16  16  16
#     4  10  23  42  66 101 136 173 220 280 335 395
#     4  11  23  43  63  94 133 173 219 280 338 402
#     4  12  24  41  73  97 125 184 228 272 338 415
#     4  10  25  41  59  97 136 171 220 283 335 396
#     4  11  22  38  65  93 131 172 221 276 340 399
#     4  10  21  41  67  94 131 177 225 271 337 403
#     4  10  22  40  65  95 133 178 222 276 331 401
#
# _framework density 22.310535000000002
#
# number of rings (size 3 to 8) (size 9 to 14) (size 15 to 20)
#    0.000    1.429    1.429    3.429    4.000    3.429 
#    0.000    2.857    0.000    5.143    0.000    0.000 
#    0.000    0.000    0.000    0.000    0.000    0.000 
#
# Total GULP energy -311753.035628 kJ/mol
# GULP energy per Si atom -5567.018493 kJ/mol
# Density = 2.225975 g / cm^3
# Si number density = 22.310535 Si / 1000 Ang^3
#
#
#
# Elastic Constant Matrix: (Units=GPa)
#
#
# Indices 1 2 3 4 5 6 
#
# 1 71.1545 -11.6994 26.4807 0.0000 0.0000 0.0000
# 2 -11.6994 90.7563 34.9439 0.0000 0.0000 0.0000
# 3 26.4807 34.9439 119.4231 0.0000 0.0000 0.0000
# 4 0.0000 0.0000 0.0000 33.9658 0.0000 0.0000
# 5 0.0000 0.0000 0.0000 0.0000 -1.2191 0.0000
# 6 0.0000 0.0000 0.0000 0.0000 0.0000 22.8715
#
#
#
# Elastic Compliance Matrix: (Units=1/GPa)
#
#
# Indices 1 2 3 4 5 6 
#
# 1 0.016505 0.003986 -0.004826 0.000000 0.000000 0.000000
# 2 0.003986 0.013380 -0.004799 0.000000 0.000000 0.000000
# 3 -0.004826 -0.004799 0.010848 0.000000 0.000000 0.000000
# 4 0.000000 0.000000 0.000000 0.029441 0.000000 0.000000
# 5 0.000000 0.000000 0.000000 0.000000 -0.820294 0.000000
# 6 0.000000 0.000000 0.000000 0.000000 0.000000 0.043723
#
#
# Mechanical properties :
#
#
# Convention : Reuss Voigt Hill
#
# Bulk Modulus (GPa) = 33.95001 42.30937 38.12969
# Shear Modulus (GPa) = -7.29607 26.56422 9.63408
#
# Velocity S-wave (km/s) = -1.81034 3.45434 2.08028
# Velocity P-wave (km/s) = 3.29853 5.90889 4.78514
#
# Compressibility (1/GPa) = 0.02945507
#
# Stress axis : x y z
#
# Youngs Moduli (GPa) = 60.58621 74.73797 92.18336
#
# Poissons Ratio (x) = -0.29790 0.44490
# Poissons Ratio (y) = -0.24149 0.44238
# Poissons Ratio (z) = 0.29240 0.35866
#
# Static dielectric constant tensor:
#      x y z
#    x 1.967030 0.000000 0.000000 
#    y 0.000000 1.860130 0.000000 
#    z 0.000000 0.000000 1.863740 
# 
# From -- ./inp_files/19389.got.cif
#   From: 2010.05.17/outbox.cif.g08.bks.cpg/sg73_10_cif.got.tgz:19389.got - 2010.06.03 17:35:07.
