data_PCOD9531583
_publ_section_title
;
Structure prediction by ZEFSAII (Michael W. Deem and Ramdas Pophale) SiO2 
 PCOD9531583
Probable space group: I B C A 
;
_chemical_formula_sum "Si O2"
_cell_formula_units_Z 72
_cell_length_a 22.782917
_cell_length_b 5.223385
_cell_length_c 23.369989
_cell_angle_alpha 90.000000
_cell_angle_beta 90.000000
_cell_angle_gamma 90.000000
_cell_volume 2781.120930
_symmetry_space_group_name_H-M "I B C A "
_symmetry_group_IT_number 73
_symmetry_cell_setting 'orthorhombic'
loop_
_space_group_symop_operation_xyz
x,y,z
-x,1/2-y,z
x,-y,1/2-z
1/2-x,y,-z
-x,-y,-z
x,1/2+y,-z
-x,y,1/2+z
1/2+x,-y,z
1/2+x,1/2+y,1/2+z
1/2-x,-y,1/2+z
1/2+x,1/2-y,-z
-x,1/2+y,1/2-z
1/2-x,1/2-y,1/2-z
1/2+x,y,1/2-z
1/2-x,1/2+y,z
x,1/2-y,1/2+z
loop_
_atom_site_type_symbol
_atom_site_label
_atom_site_fract_x
_atom_site_fract_y
_atom_site_fract_z
Si Si1 0.594870 0.018428 0.311790
Si Si2 0.000000 0.250000 0.960194
Si Si3 0.270831 0.069871 0.813243
Si Si4 0.097239 0.490130 0.378718
Si Si5 0.317414 0.425714 0.524518
O O1 0.661354 0.125437 0.304877
O O2 0.572584 0.236825 0.355771
O O3 0.564459 0.000000 0.250000
O O4 0.604011 0.723610 0.329758
O O5 0.947390 0.334504 0.918787
O O6 0.000000 0.500000 0.000000
O O7 0.238765 0.300820 0.843970
O O8 0.244918 0.000000 0.750000
O O9 0.157408 0.527334 0.415193
O O10 0.250000 0.396426 0.500000
O O11 0.342186 0.640504 0.481870
#
# Coordination Sequence:
#
# PCOD9531583 Si02
#       5
#    16   8  16  16  16
#     4  11  24  43  66 100 148 194 241 295 346 438
#     4  12  26  48  80 106 140 176 240 326 386 452
#     4   9  17  33  54  81 124 179 233 278 325 387
#     4  12  24  44  71 105 138 191 246 292 380 446
#     4  10  21  41  63  95 137 175 227 297 365 431
#
# _framework density 25.888845
#
# number of rings (size 3 to 8) (size 9 to 14) (size 15 to 20)
#    0.000    1.333    0.000    6.000    0.000    3.556 
#   24.000    2.222    0.000    0.000    0.000    0.000 
#    0.000    0.000    0.000    0.000    0.000    0.000 
#
# Total GULP energy -200589.591545 kJ/mol
# GULP energy per Si atom -5571.933098 kJ/mol
# Density = 2.582992 g / cm^3
# Si number density = 25.888845 Si / 1000 Ang^3
#
#
#
# Elastic Constant Matrix: (Units=GPa)
#
#
# Indices 1 2 3 4 5 6 
#
# 1 66.6087 4.1902 20.7233 0.0000 0.0000 0.0000
# 2 4.1902 170.9324 6.7605 0.0000 0.0000 0.0000
# 3 20.7233 6.7605 62.1315 0.0000 0.0000 0.0000
# 4 0.0000 0.0000 0.0000 59.2390 0.0000 0.0000
# 5 0.0000 0.0000 0.0000 0.0000 15.1322 0.0000
# 6 0.0000 0.0000 0.0000 0.0000 0.0000 6.2212
#
#
#
# Elastic Compliance Matrix: (Units=1/GPa)
#
#
# Indices 1 2 3 4 5 6 
#
# 1 0.016758 -0.000191 -0.005569 0.000000 0.000000 0.000000
# 2 -0.000191 0.005878 -0.000576 0.000000 0.000000 0.000000
# 3 -0.005569 -0.000576 0.018015 0.000000 0.000000 0.000000
# 4 0.000000 0.000000 0.000000 0.016881 0.000000 0.000000
# 5 0.000000 0.000000 0.000000 0.000000 0.066084 0.000000
# 6 0.000000 0.000000 0.000000 0.000000 0.000000 0.160739
#
#
# Mechanical properties :
#
#
# Convention : Reuss Voigt Hill
#
# Bulk Modulus (GPa) = 35.73992 40.33565 38.03779
# Shear Modulus (GPa) = 16.32111 33.98505 25.15308
#
# Velocity S-wave (km/s) = 2.51356 3.62709 3.12040
# Velocity P-wave (km/s) = 4.71796 5.75806 5.26376
#
# Compressibility (1/GPa) = 0.02797991
#
# Stress axis : x y z
#
# Youngs Moduli (GPa) = 59.67464 170.13405 55.50962
#
# Poissons Ratio (x) = 0.03242 0.30911
# Poissons Ratio (y) = 0.01137 0.03197
# Poissons Ratio (z) = 0.33230 0.09800
#
# Static dielectric constant tensor:
#      x y z
#    x 0.920600 0.000000 0.000000 
#    y 0.000000 2.680080 0.000000 
#    z 0.000000 0.000000 2.388860 
# 
# From -- ./inp_files/27445.got.cif
#   From: 2010.05.17/outbox.cif.g08.bks.cpg/sg73_14_cif.got.tgz:27445.got - 2010.06.03 17:35:07.
