data_PCOD9531258
_publ_section_title
;
Structure prediction by ZEFSAII (Michael W. Deem and Ramdas Pophale) SiO2 
 PCOD9531258
Probable space group: I B C A 
;
_chemical_formula_sum "Si O2"
_cell_formula_units_Z 96
_cell_length_a 18.194871
_cell_length_b 30.101198
_cell_length_c 9.870983
_cell_angle_alpha 90.000000
_cell_angle_beta 90.000000
_cell_angle_gamma 90.000000
_cell_volume 5406.213158
_symmetry_space_group_name_H-M "I B C A "
_symmetry_group_IT_number 73
_symmetry_cell_setting 'orthorhombic'
loop_
_space_group_symop_operation_xyz
x,y,z
-x,1/2-y,z
x,-y,1/2-z
1/2-x,y,-z
-x,-y,-z
x,1/2+y,-z
-x,y,1/2+z
1/2+x,-y,z
1/2+x,1/2+y,1/2+z
1/2-x,-y,1/2+z
1/2+x,1/2-y,-z
-x,1/2+y,1/2-z
1/2-x,1/2-y,1/2-z
1/2+x,y,1/2-z
1/2-x,1/2+y,z
x,1/2-y,1/2+z
loop_
_atom_site_type_symbol
_atom_site_label
_atom_site_fract_x
_atom_site_fract_y
_atom_site_fract_z
Si Si1 0.415340 0.264036 0.784442
Si Si2 0.162860 0.292202 0.489077
Si Si3 0.681066 0.561075 0.101201
Si Si4 0.324042 0.040218 0.084306
Si Si5 0.437212 0.636141 0.640296
Si Si6 0.576277 0.119853 0.546808
O O1 0.500000 0.250000 0.760039
O O2 0.371724 0.269122 0.643997
O O3 0.414134 0.312169 0.858182
O O4 0.376581 0.228663 0.880852
O O5 0.250000 0.286775 0.500000
O O6 0.139582 0.343542 0.475920
O O7 0.651552 0.511197 0.073373
O O8 0.696227 0.556112 0.262706
O O9 0.624603 0.601799 0.087909
O O10 0.750000 0.567673 0.000000
O O11 0.387886 0.071884 0.031096
O O12 0.250000 0.044658 0.000000
O O13 0.509988 0.629715 0.553293
O O14 0.450327 0.624882 0.798260
#
# Coordination Sequence:
#
# PCOD9531258 Si02
#       6
#    16  16  16  16  16  16
#     4  11  22  39  60  82 114 155 191 237 295 344
#     4  11  23  38  59  86 114 147 196 242 287 345
#     4   9  19  36  56  83 113 144 188 231 282 344
#     4   9  18  35  58  80 112 150 180 230 288 338
#     4  10  22  36  56  82 110 150 187 235 287 339
#     4  10  21  37  55  81 114 147 189 232 286 342
#
# _framework density 17.757346999999999
#
# number of rings (size 3 to 8) (size 9 to 14) (size 15 to 20)
#    0.000    2.000    1.667    1.500    2.333    2.667 
#    0.000    1.667    0.000    0.000    0.000    0.000 
#    0.000    0.000    0.000    0.000    0.000    0.000 
#
# Total GULP energy -267733.252430 kJ/mol
# GULP energy per Si atom -5577.776092 kJ/mol
# Density = 1.771693 g / cm^3
# Si number density = 17.757347 Si / 1000 Ang^3
#
#
#
# Elastic Constant Matrix: (Units=GPa)
#
#
# Indices 1 2 3 4 5 6 
#
# 1 118.2848 36.0571 55.3158 0.0000 0.0000 -0.0102
# 2 36.0571 70.8673 35.0449 -0.0004 0.0005 -0.0137
# 3 55.3158 35.0449 46.6145 0.0001 0.0015 -0.0263
# 4 0.0000 -0.0004 0.0001 21.8529 0.0007 -0.0022
# 5 0.0000 0.0005 0.0015 0.0007 28.7968 -0.0087
# 6 -0.0102 -0.0137 -0.0263 -0.0022 -0.0087 66.1284
#
#
#
# Elastic Compliance Matrix: (Units=1/GPa)
#
#
# Indices 1 2 3 4 5 6 
#
# 1 0.019247 0.002390 -0.024637 0.000000 0.000001 -0.000006
# 2 0.002390 0.022758 -0.019947 0.000000 0.000001 -0.000003
# 3 -0.024637 -0.019947 0.065684 -0.000001 -0.000003 0.000018
# 4 0.000000 0.000000 -0.000001 0.045760 -0.000001 0.000002
# 5 0.000001 0.000001 -0.000003 -0.000001 0.034726 0.000005
# 6 -0.000006 -0.000003 0.000018 0.000002 0.000005 0.015122
#
#
# Mechanical properties :
#
#
# Convention : Reuss Voigt Hill
#
# Bulk Modulus (GPa) = 42.91170 54.28912 48.60041
# Shear Modulus (GPa) = 16.92326 30.64556 23.78441
#
# Velocity S-wave (km/s) = 3.09046 4.15878 3.66377
# Velocity P-wave (km/s) = 6.07887 7.32801 6.73247
#
# Compressibility (1/GPa) = 0.02330367
#
# Stress axis : x y z
#
# Youngs Moduli (GPa) = 51.95662 43.93968 15.22440
#
# Poissons Ratio (x) = -0.10504 0.37508
# Poissons Ratio (y) = -0.12420 0.30367
# Poissons Ratio (z) = 1.28004 0.87645
#
# Static dielectric constant tensor:
#      x y z
#    x 1.560980 0.000000 0.000000 
#    y 0.000000 1.619390 0.000000 
#    z 0.000000 0.000000 1.600720 
# 
# From -- ./inp_files/6453.got.cif
#   From: 2010.05.17/outbox.cif.g08.bks.cpg/sg73_4_cif.got.tgz:6453.got - 2010.06.03 17:35:07.
