data_PCOD9531503
_publ_section_title
;
Structure prediction by ZEFSAII (Michael W. Deem and Ramdas Pophale) SiO2 
 PCOD9531503
Probable space group: I B C A 
;
_chemical_formula_sum "Si O2"
_cell_formula_units_Z 112
_cell_length_a 14.418803
_cell_length_b 13.476598
_cell_length_c 27.297357
_cell_angle_alpha 90.000000
_cell_angle_beta 90.000000
_cell_angle_gamma 90.000000
_cell_volume 5304.324460
_symmetry_space_group_name_H-M "I B C A "
_symmetry_group_IT_number 73
_symmetry_cell_setting 'orthorhombic'
loop_
_space_group_symop_operation_xyz
x,y,z
-x,1/2-y,z
x,-y,1/2-z
1/2-x,y,-z
-x,-y,-z
x,1/2+y,-z
-x,y,1/2+z
1/2+x,-y,z
1/2+x,1/2+y,1/2+z
1/2-x,-y,1/2+z
1/2+x,1/2-y,-z
-x,1/2+y,1/2-z
1/2-x,1/2-y,1/2-z
1/2+x,y,1/2-z
1/2-x,1/2+y,z
x,1/2-y,1/2+z
loop_
_atom_site_type_symbol
_atom_site_label
_atom_site_fract_x
_atom_site_fract_y
_atom_site_fract_z
Si Si1 0.107319 0.619821 0.100466
Si Si2 0.106307 0.265599 0.295681
Si Si3 0.140034 0.600676 0.375497
Si Si4 0.758536 0.606597 0.773662
Si Si5 0.501140 0.364652 0.946233
Si Si6 0.727893 0.788853 0.443159
Si Si7 0.919748 0.055463 0.956111
O O1 0.095219 0.680934 0.151282
O O2 0.154834 0.513254 0.108371
O O3 0.170907 0.691211 0.068657
O O4 0.010469 0.596023 0.072902
O O5 0.177290 0.335321 0.265456
O O6 0.164692 0.162669 0.291760
O O7 0.000000 0.250000 0.277398
O O8 0.175048 0.603672 0.320839
O O9 0.187930 0.688261 0.406983
O O10 0.033614 0.620062 0.390792
O O11 0.736954 0.500000 0.750000
O O12 0.500000 0.250000 0.958926
O O13 0.588804 0.436744 0.952114
O O14 0.433294 0.415186 0.986853
O O15 0.750000 0.787404 0.500000
O O16 0.664475 0.885082 0.434465
#
# Coordination Sequence:
#
# PCOD9531503 Si02
#       7
#    16  16  16  16  16  16  16
#     4  11  23  42  67  94 132 176 224 275 333 415
#     4  11  24  44  74 102 130 180 229 279 357 417
#     4  11  24  41  64  98 132 171 219 276 343 393
#     4  11  24  47  71 101 140 172 229 302 344 415
#     4  10  21  40  62  90 132 176 218 269 326 390
#     4  12  23  39  62  93 130 175 217 268 330 401
#     4  10  22  39  61  92 130 174 223 266 322 402
#
# _framework density 21.114847000000001
#
# number of rings (size 3 to 8) (size 9 to 14) (size 15 to 20)
#    0.000    1.143    4.286    2.143    0.000    2.857 
#    0.000    0.000    0.000    0.000    0.000    0.000 
#    0.000    0.000    0.000    0.000    0.000    0.000 
#
# Total GULP energy -312302.611453 kJ/mol
# GULP energy per Si atom -5576.832347 kJ/mol
# Density = 2.106679 g / cm^3
# Si number density = 21.114847 Si / 1000 Ang^3
#
#
#
# Elastic Constant Matrix: (Units=GPa)
#
#
# Indices 1 2 3 4 5 6 
#
# 1 48.2741 6.3757 11.6093 0.0000 0.0000 0.0000
# 2 6.3757 127.6691 20.2502 0.0000 0.0000 0.0000
# 3 11.6093 20.2502 96.5429 0.0000 0.0000 0.0000
# 4 0.0000 0.0000 0.0000 21.8847 0.0000 0.0000
# 5 0.0000 0.0000 0.0000 0.0000 20.9441 0.0000
# 6 0.0000 0.0000 0.0000 0.0000 0.0000 16.7335
#
#
#
# Elastic Compliance Matrix: (Units=1/GPa)
#
#
# Indices 1 2 3 4 5 6 
#
# 1 0.021389 -0.000683 -0.002429 0.000000 0.000000 0.000000
# 2 -0.000683 0.008124 -0.001622 0.000000 0.000000 0.000000
# 3 -0.002429 -0.001622 0.010990 0.000000 0.000000 0.000000
# 4 0.000000 0.000000 0.000000 0.045694 0.000000 0.000000
# 5 0.000000 0.000000 0.000000 0.000000 0.047746 0.000000
# 6 0.000000 0.000000 0.000000 0.000000 0.000000 0.059760
#
#
# Mechanical properties :
#
#
# Convention : Reuss Voigt Hill
#
# Bulk Modulus (GPa) = 32.22019 38.77295 35.49657
# Shear Modulus (GPa) = 23.41732 27.52918 25.47325
#
# Velocity S-wave (km/s) = 3.33385 3.61471 3.47712
# Velocity P-wave (km/s) = 5.48744 5.98534 5.74179
#
# Compressibility (1/GPa) = 0.03103644
#
# Stress axis : x y z
#
# Youngs Moduli (GPa) = 46.75222 123.09029 90.98876
#
# Poissons Ratio (x) = 0.08406 0.22100
# Poissons Ratio (y) = 0.03193 0.14758
# Poissons Ratio (z) = 0.11355 0.19965
#
# Static dielectric constant tensor:
#      x y z
#    x 1.815060 0.000000 0.000000 
#    y 0.000000 1.785340 0.000000 
#    z 0.000000 0.000000 1.758810 
# 
# From -- ./inp_files/29537.got.cif
#   From: 2010.05.17/outbox.cif.g08.bks.cpg/sg73_15_cif.got.tgz:29537.got - 2010.06.03 17:35:07.
