data_PCOD9531935
_publ_section_title
;
Structure prediction by ZEFSAII (Michael W. Deem and Ramdas Pophale) SiO2 
 PCOD9531935
Probable space group: I B C A 
;
_chemical_formula_sum "Si O2"
_cell_formula_units_Z 104
_cell_length_a 16.675414
_cell_length_b 14.029997
_cell_length_c 22.125691
_cell_angle_alpha 90.000000
_cell_angle_beta 90.000000
_cell_angle_gamma 90.000000
_cell_volume 5176.438349
_symmetry_space_group_name_H-M "I B C A "
_symmetry_group_IT_number 73
_symmetry_cell_setting 'orthorhombic'
loop_
_space_group_symop_operation_xyz
x,y,z
-x,1/2-y,z
x,-y,1/2-z
1/2-x,y,-z
-x,-y,-z
x,1/2+y,-z
-x,y,1/2+z
1/2+x,-y,z
1/2+x,1/2+y,1/2+z
1/2-x,-y,1/2+z
1/2+x,1/2-y,-z
-x,1/2+y,1/2-z
1/2-x,1/2-y,1/2-z
1/2+x,y,1/2-z
1/2-x,1/2+y,z
x,1/2-y,1/2+z
loop_
_atom_site_type_symbol
_atom_site_label
_atom_site_fract_x
_atom_site_fract_y
_atom_site_fract_z
Si Si1 0.009975 0.857425 0.125594
Si Si2 0.748925 0.500000 0.750000
Si Si3 0.167305 0.366174 0.343270
Si Si4 0.074237 0.183740 0.140969
Si Si5 0.067094 0.516423 0.948321
Si Si6 0.701263 0.337411 0.945560
Si Si7 0.633314 0.334554 0.724005
O O1 0.048735 0.856204 0.192012
O O2 0.000000 0.750000 0.102891
O O3 0.919348 0.893568 0.129994
O O4 0.070841 0.914138 0.083230
O O5 0.803743 0.557540 0.704532
O O6 0.693317 0.422813 0.715656
O O7 0.233499 0.363439 0.395395
O O8 0.161109 0.263620 0.308332
O O9 0.044512 0.086347 0.108384
O O10 0.134847 0.224002 0.089904
O O11 0.120755 0.171698 0.203898
O O12 0.000000 0.250000 0.152628
O O13 0.149095 0.570090 0.968115
O O14 0.000000 0.500000 0.000000
O O15 0.750000 0.292459 0.000000
#
# Coordination Sequence:
#
# PCOD9531935 Si02
#       7
#    16   8  16  16  16  16  16
#     4  10  22  39  65  91 128 172 219 267 327 396
#     4  12  22  36  64  92 132 170 210 268 342 378
#     4  11  23  39  63  99 128 172 212 281 327 396
#     4  10  22  40  70  94 127 173 214 271 332 391
#     4  10  22  41  64  91 125 172 219 265 318 393
#     4  10  22  43  65  89 137 172 219 273 331 388
#     4  11  22  43  63  97 135 169 219 273 338 400
#
# _framework density 20.091032999999999
#
# number of rings (size 3 to 8) (size 9 to 14) (size 15 to 20)
#    0.923    0.615    1.538    4.615    0.000    3.692 
#    2.769    0.000    3.385    0.000    0.000    0.000 
#    0.000    0.000    0.000    0.000    0.000    0.000 
#
# Total GULP energy -289643.871428 kJ/mol
# GULP energy per Si atom -5570.074451 kJ/mol
# Density = 2.004531 g / cm^3
# Si number density = 20.091033 Si / 1000 Ang^3
#
#
#
# Elastic Constant Matrix: (Units=GPa)
#
#
# Indices 1 2 3 4 5 6 
#
# 1 94.6883 10.4867 12.2264 0.0000 0.0000 0.0000
# 2 10.4867 42.5862 7.2769 0.0000 0.0000 0.0000
# 3 12.2264 7.2769 77.9464 0.0000 0.0000 0.0000
# 4 0.0000 0.0000 0.0000 15.8942 0.0000 0.0000
# 5 0.0000 0.0000 0.0000 0.0000 -5.6673 0.0000
# 6 0.0000 0.0000 0.0000 0.0000 0.0000 11.6105
#
#
#
# Elastic Compliance Matrix: (Units=1/GPa)
#
#
# Indices 1 2 3 4 5 6 
#
# 1 0.011027 -0.002459 -0.001500 0.000000 0.000000 0.000000
# 2 -0.002459 0.024411 -0.001893 0.000000 0.000000 0.000000
# 3 -0.001500 -0.001893 0.013241 0.000000 0.000000 0.000000
# 4 0.000000 0.000000 0.000000 0.062916 0.000000 0.000000
# 5 0.000000 0.000000 0.000000 0.000000 -0.176450 0.000000
# 6 0.000000 0.000000 0.000000 0.000000 0.000000 0.086129
#
#
# Mechanical properties :
#
#
# Convention : Reuss Voigt Hill
#
# Bulk Modulus (GPa) = 27.04569 30.57790 28.81179
# Shear Modulus (GPa) = 110.36727 16.71621 63.54174
#
# Velocity S-wave (km/s) = 7.41976 2.88761 5.62988
# Velocity P-wave (km/s) = 9.32173 5.13522 7.52546
#
# Compressibility (1/GPa) = 0.03697447
#
# Stress axis : x y z
#
# Youngs Moduli (GPa) = 90.68650 40.96547 75.52090
#
# Poissons Ratio (x) = 0.10074 0.11329
# Poissons Ratio (y) = 0.22300 0.14298
# Poissons Ratio (z) = 0.13604 0.07756
#
# Static dielectric constant tensor:
#      x y z
#    x 2.653790 0.000000 0.000000 
#    y 0.000000 1.745070 0.000000 
#    z 0.000000 0.000000 1.803640 
# 
# From -- ./inp_files/29840.got.cif
#   From: 2010.05.17/outbox.cif.g08.bks.cpg/sg73_15_cif.got.tgz:29840.got - 2010.06.03 17:35:07.
