data_PCOD9531846
_publ_section_title
;
Structure prediction by ZEFSAII (Michael W. Deem and Ramdas Pophale) SiO2 
 PCOD9531846
Probable space group: I B C A 
;
_chemical_formula_sum "Si O2"
_cell_formula_units_Z 80
_cell_length_a 15.468323
_cell_length_b 8.779358
_cell_length_c 27.135995
_cell_angle_alpha 90.000000
_cell_angle_beta 90.000000
_cell_angle_gamma 90.000000
_cell_volume 3685.120908
_symmetry_space_group_name_H-M "I B C A "
_symmetry_group_IT_number 73
_symmetry_cell_setting 'orthorhombic'
loop_
_space_group_symop_operation_xyz
x,y,z
-x,1/2-y,z
x,-y,1/2-z
1/2-x,y,-z
-x,-y,-z
x,1/2+y,-z
-x,y,1/2+z
1/2+x,-y,z
1/2+x,1/2+y,1/2+z
1/2-x,-y,1/2+z
1/2+x,1/2-y,-z
-x,1/2+y,1/2-z
1/2-x,1/2-y,1/2-z
1/2+x,y,1/2-z
1/2-x,1/2+y,z
x,1/2-y,1/2+z
loop_
_atom_site_type_symbol
_atom_site_label
_atom_site_fract_x
_atom_site_fract_y
_atom_site_fract_z
Si Si1 0.000000 0.250000 0.299743
Si Si2 0.808780 0.039760 0.644413
Si Si3 0.380903 0.000000 0.750000
Si Si4 0.104231 0.733600 0.932981
Si Si5 0.867968 0.303417 0.880502
Si Si6 0.405205 0.457104 0.521298
O O1 0.057835 0.138170 0.267285
O O2 0.062213 0.338024 0.338067
O O3 0.866930 0.170284 0.619122
O O4 0.712913 0.087182 0.629306
O O5 0.823287 0.041673 0.702874
O O6 0.838245 0.872412 0.625841
O O7 0.000000 0.750000 0.932684
O O8 0.135398 0.894769 0.953714
O O9 0.138355 0.612682 0.973211
O O10 0.906317 0.334614 0.934630
O O11 0.500000 0.500000 0.500000
#
# Coordination Sequence:
#
# PCOD9531846 Si02
#       6
#     8  16   8  16  16  16
#     4  10  26  42  74  98 140 186 240 298 346 444
#     4  11  25  45  68 104 143 186 242 298 356 414
#     4  10  26  44  70 104 138 188 242 294 360 420
#     4  10  22  37  67 100 138 184 224 287 344 432
#     4  11  25  44  69 102 142 186 236 298 354 426
#     4  10  22  38  67 101 137 181 223 281 346 422
#
# _framework density 21.708922000000001
#
# number of rings (size 3 to 8) (size 9 to 14) (size 15 to 20)
#    0.000    1.600    0.000    2.400   16.800    6.400 
#    0.000    4.000    0.000    0.000    0.000    0.000 
#    0.000    0.000    0.000    0.000    0.000    0.000 
#
# Total GULP energy -223495.133862 kJ/mol
# GULP energy per Si atom -5587.378347 kJ/mol
# Density = 2.165951 g / cm^3
# Si number density = 21.708922 Si / 1000 Ang^3
#
#
#
# Elastic Constant Matrix: (Units=GPa)
#
#
# Indices 1 2 3 4 5 6 
#
# 1 79.0067 20.7463 41.4349 0.0000 0.0000 0.0000
# 2 20.7463 69.0918 42.0965 0.0000 0.0000 0.0000
# 3 41.4349 42.0965 161.6629 0.0000 0.0000 0.0000
# 4 0.0000 0.0000 0.0000 41.0842 0.0000 0.0000
# 5 0.0000 0.0000 0.0000 0.0000 42.9717 0.0000
# 6 0.0000 0.0000 0.0000 0.0000 0.0000 22.0118
#
#
#
# Elastic Compliance Matrix: (Units=1/GPa)
#
#
# Indices 1 2 3 4 5 6 
#
# 1 0.014997 -0.002569 -0.003175 0.000000 0.000000 0.000000
# 2 -0.002569 0.017643 -0.003936 0.000000 0.000000 0.000000
# 3 -0.003175 -0.003936 0.008024 0.000000 0.000000 0.000000
# 4 0.000000 0.000000 0.000000 0.024340 0.000000 0.000000
# 5 0.000000 0.000000 0.000000 0.000000 0.023271 0.000000
# 6 0.000000 0.000000 0.000000 0.000000 0.000000 0.045430
#
#
# Mechanical properties :
#
#
# Convention : Reuss Voigt Hill
#
# Bulk Modulus (GPa) = 46.93687 57.59074 52.26380
# Shear Modulus (GPa) = 31.21767 34.91245 33.06506
#
# Velocity S-wave (km/s) = 3.79623 4.01460 3.90694
# Velocity P-wave (km/s) = 6.39399 6.93365 6.66928
#
# Compressibility (1/GPa) = 0.02130521
#
# Stress axis : x y z
#
# Youngs Moduli (GPa) = 66.68128 56.68033 124.62150
#
# Poissons Ratio (x) = 0.14559 0.39565
# Poissons Ratio (y) = 0.17128 0.49048
# Poissons Ratio (z) = 0.21170 0.22308
#
# Static dielectric constant tensor:
#      x y z
#    x 1.857950 0.000000 0.000000 
#    y 0.000000 1.827410 0.000000 
#    z 0.000000 0.000000 1.769530 
# 
# From -- ./inp_files/32330.got.cif
#   From: 2010.05.17/outbox.cif.g08.bks.cpg/sg73_17_cif.got.tgz:32330.got - 2010.06.03 17:35:07.
