data_PCOD9531417
_publ_section_title
;
Structure prediction by ZEFSAII (Michael W. Deem and Ramdas Pophale) SiO2 
 PCOD9531417
Probable space group: I B C A 
;
_chemical_formula_sum "Si O2"
_cell_formula_units_Z 120
_cell_length_a 27.754197
_cell_length_b 21.870816
_cell_length_c 9.141423
_cell_angle_alpha 90.000000
_cell_angle_beta 90.000000
_cell_angle_gamma 90.000000
_cell_volume 5548.907164
_symmetry_space_group_name_H-M "I B C A "
_symmetry_group_IT_number 73
_symmetry_cell_setting 'orthorhombic'
loop_
_space_group_symop_operation_xyz
x,y,z
-x,1/2-y,z
x,-y,1/2-z
1/2-x,y,-z
-x,-y,-z
x,1/2+y,-z
-x,y,1/2+z
1/2+x,-y,z
1/2+x,1/2+y,1/2+z
1/2-x,-y,1/2+z
1/2+x,1/2-y,-z
-x,1/2+y,1/2-z
1/2-x,1/2-y,1/2-z
1/2+x,y,1/2-z
1/2-x,1/2+y,z
x,1/2-y,1/2+z
loop_
_atom_site_type_symbol
_atom_site_label
_atom_site_fract_x
_atom_site_fract_y
_atom_site_fract_z
Si Si1 0.161719 0.098250 0.296609
Si Si2 0.131571 0.289909 0.253944
Si Si3 0.565400 0.906283 0.710684
Si Si4 0.306115 0.521866 0.028425
Si Si5 0.992171 0.628409 0.539339
Si Si6 0.694208 0.281721 0.535143
Si Si7 0.932770 0.830611 0.770110
Si Si8 0.640655 0.500000 0.250000
O O1 0.187466 0.158919 0.360151
O O2 0.105545 0.116089 0.272583
O O3 0.171880 0.040503 0.402307
O O4 0.183137 0.075925 0.141939
O O5 0.095149 0.346105 0.255626
O O6 0.167142 0.275361 0.388508
O O7 0.097496 0.230861 0.240062
O O8 0.165114 0.296080 0.112091
O O9 0.530169 0.897409 0.575863
O O10 0.534533 0.920396 0.856533
O O11 0.605274 0.954405 0.669294
O O12 0.328699 0.534501 0.870563
O O13 0.250000 0.512079 0.000000
O O14 0.023055 0.668482 0.654774
O O15 0.954004 0.661344 0.432802
O O16 0.750000 0.270500 0.500000
#
# Coordination Sequence:
#
# PCOD9531417 Si02
#       8
#    16  16  16  16  16  16  16   8
#     4  10  22  42  64  90 132 168 208 261 321 375
#     4  11  23  40  63  91 127 162 211 260 325 384
#     4  11  24  40  60  89 122 164 204 261 316 377
#     4  11  23  40  66  96 123 166 218 263 310 372
#     4  10  22  39  62  89 122 158 212 253 311 384
#     4  11  23  41  64  93 130 172 210 260 320 388
#     4  10  21  39  61  91 122 163 202 259 317 373
#     4  12  24  42  64  90 128 162 208 264 322 372
#
# _framework density 21.625879000000001
#
# number of rings (size 3 to 8) (size 9 to 14) (size 15 to 20)
#    0.000    1.333    0.000    6.400    0.000    5.867 
#    0.000    8.667    0.000    0.000    0.000    0.000 
#    0.000    0.000    0.000    0.000    0.000    0.000 
#
# Total GULP energy -335376.824545 kJ/mol
# GULP energy per Si atom -5589.613742 kJ/mol
# Density = 2.157666 g / cm^3
# Si number density = 21.625879 Si / 1000 Ang^3
#
#
#
# Elastic Constant Matrix: (Units=GPa)
#
#
# Indices 1 2 3 4 5 6 
#
# 1 133.0433 17.6526 47.9691 0.0000 0.0000 0.0000
# 2 17.6526 17.6145 -11.3180 0.0000 0.0000 0.0000
# 3 47.9691 -11.3180 110.5614 0.0000 0.0000 0.0000
# 4 0.0000 0.0000 0.0000 21.5492 0.0000 0.0000
# 5 0.0000 0.0000 0.0000 0.0000 45.0705 0.0000
# 6 0.0000 0.0000 0.0000 0.0000 0.0000 -19.9115
#
#
#
# Elastic Compliance Matrix: (Units=1/GPa)
#
#
# Indices 1 2 3 4 5 6 
#
# 1 0.012301 -0.016866 -0.007064 0.000000 0.000000 0.000000
# 2 -0.016866 0.083895 0.015906 0.000000 0.000000 0.000000
# 3 -0.007064 0.015906 0.013738 0.000000 0.000000 0.000000
# 4 0.000000 0.000000 0.000000 0.046405 0.000000 0.000000
# 5 0.000000 0.000000 0.000000 0.000000 0.022187 0.000000
# 6 0.000000 0.000000 0.000000 0.000000 0.000000 -0.050222
#
#
# Mechanical properties :
#
#
# Convention : Reuss Voigt Hill
#
# Bulk Modulus (GPa) = 10.65128 41.09184 25.87156
# Shear Modulus (GPa) = 28.46615 23.13600 25.80107
#
# Velocity S-wave (km/s) = 3.63202 3.27437 3.45782
# Velocity P-wave (km/s) = 4.74602 5.77389 5.28500
#
# Compressibility (1/GPa) = 0.09388542
#
# Stress axis : x y z
#
# Youngs Moduli (GPa) = 81.29400 11.91971 72.79235
#
# Poissons Ratio (x) = 0.20104 0.51418
# Poissons Ratio (y) = 1.37113 -1.15783
# Poissons Ratio (z) = 0.57423 -0.18959
#
# Static dielectric constant tensor:
#      x y z
#    x 1.767370 0.000000 0.000000 
#    y 0.000000 1.827070 0.000000 
#    z 0.000000 0.000000 1.786350 
# 
# From -- ./inp_files/7367.got.cif
#   From: 2010.05.17/outbox.cif.g08.bks.cpg/sg73_4_cif.got.tgz:7367.got - 2010.06.03 17:35:07.
