data_PCOD9531650
_publ_section_title
;
Structure prediction by ZEFSAII (Michael W. Deem and Ramdas Pophale) SiO2 
 PCOD9531650
Probable space group: I B C A 
;
_chemical_formula_sum "Si O2"
_cell_formula_units_Z 88
_cell_length_a 8.337923
_cell_length_b 26.978108
_cell_length_c 17.662788
_cell_angle_alpha 90.000000
_cell_angle_beta 90.000000
_cell_angle_gamma 90.000000
_cell_volume 3973.092034
_symmetry_space_group_name_H-M "I B C A "
_symmetry_group_IT_number 73
_symmetry_cell_setting 'orthorhombic'
loop_
_space_group_symop_operation_xyz
x,y,z
-x,1/2-y,z
x,-y,1/2-z
1/2-x,y,-z
-x,-y,-z
x,1/2+y,-z
-x,y,1/2+z
1/2+x,-y,z
1/2+x,1/2+y,1/2+z
1/2-x,-y,1/2+z
1/2+x,1/2-y,-z
-x,1/2+y,1/2-z
1/2-x,1/2-y,1/2-z
1/2+x,y,1/2-z
1/2-x,1/2+y,z
x,1/2-y,1/2+z
loop_
_atom_site_type_symbol
_atom_site_label
_atom_site_fract_x
_atom_site_fract_y
_atom_site_fract_z
Si Si1 0.536074 0.070209 0.293871
Si Si2 0.750000 0.935179 0.500000
Si Si3 0.500000 0.750000 0.252346
Si Si4 0.750000 0.208284 0.500000
Si Si5 0.312098 0.468547 0.160985
Si Si6 0.273260 0.215490 0.636161
Si Si7 0.976776 0.859493 0.424114
O O1 0.566451 0.069218 0.203881
O O2 0.359785 0.050108 0.310967
O O3 0.554408 0.118417 0.346580
O O4 0.650875 0.025244 0.319311
O O5 0.809549 0.965256 0.571605
O O6 0.904953 0.903528 0.474002
O O7 0.570922 0.790654 0.311011
O O8 0.638835 0.733520 0.195936
O O9 0.701929 0.243837 0.570284
O O10 0.602095 0.175061 0.468930
O O11 0.186531 0.169288 0.598145
#
# Coordination Sequence:
#
# PCOD9531650 Si02
#       7
#    16   8   8   8  16  16  16
#     4  10  22  40  67  95 130 178 222 282 327 427
#     4  10  25  41  62  96 130 174 216 287 325 406
#     4  10  24  44  68  90 126 174 222 266 344 412
#     4  12  25  43  66  94 136 180 220 287 345 410
#     4  10  21  42  65  94 131 174 218 266 356 390
#     4  11  24  45  65  96 127 179 221 281 344 409
#     4  11  25  42  63  99 131 171 237 274 339 407
#
# _framework density 22.148994999999999
#
# number of rings (size 3 to 8) (size 9 to 14) (size 15 to 20)
#    0.000    1.455    1.818    2.727    5.091    9.455 
#    3.273    0.000    0.000    0.000    0.000    0.000 
#    0.000    0.000    0.000    0.000    0.000    0.000 
#
# Total GULP energy -245561.380078 kJ/mol
# GULP energy per Si atom -5580.940456 kJ/mol
# Density = 2.209858 g / cm^3
# Si number density = 22.148995 Si / 1000 Ang^3
#
#
#
# Elastic Constant Matrix: (Units=GPa)
#
#
# Indices 1 2 3 4 5 6 
#
# 1 43.3978 6.8542 33.2236 0.0001 0.0000 0.0000
# 2 6.8542 53.0709 21.8834 0.0000 0.0000 0.0000
# 3 33.2236 21.8834 116.7583 -0.0002 0.0000 -0.0002
# 4 0.0001 0.0000 -0.0002 431.1282 -0.0001 0.0000
# 5 0.0000 0.0000 0.0000 -0.0001 28.8922 0.0000
# 6 0.0000 0.0000 -0.0002 0.0000 0.0000 15.9854
#
#
#
# Elastic Compliance Matrix: (Units=1/GPa)
#
#
# Indices 1 2 3 4 5 6 
#
# 1 0.029467 -0.000377 -0.008314 0.000000 0.000000 0.000000
# 2 -0.000377 0.020426 -0.003721 0.000000 0.000000 0.000000
# 3 -0.008314 -0.003721 0.011628 0.000000 0.000000 0.000000
# 4 0.000000 0.000000 0.000000 0.002319 0.000000 0.000000
# 5 0.000000 0.000000 0.000000 0.000000 0.034611 0.000000
# 6 0.000000 0.000000 0.000000 0.000000 0.000000 0.062557
#
#
# Mechanical properties :
#
#
# Convention : Reuss Voigt Hill
#
# Bulk Modulus (GPa) = 27.25107 37.46107 32.35607
# Shear Modulus (GPa) = 25.24411 105.28554 65.26483
#
# Velocity S-wave (km/s) = 3.37967 6.90205 5.43417
# Velocity P-wave (km/s) = 5.24974 8.97038 7.34940
#
# Compressibility (1/GPa) = 0.03669581
#
# Stress axis : x y z
#
# Youngs Moduli (GPa) = 33.93598 48.95783 86.00012
#
# Poissons Ratio (x) = 0.01848 0.71502
# Poissons Ratio (y) = 0.01281 0.32000
# Poissons Ratio (z) = 0.28215 0.18217
#
# Static dielectric constant tensor:
#      x y z
#    x 1.835090 0.000000 0.000000 
#    y 0.000000 1.840380 0.000000 
#    z 0.000000 0.000000 1.916040 
# 
# From -- ./inp_files/20857.got.cif
#   From: 2010.05.17/outbox.cif.g08.bks.cpg/sg73_11_cif.got.tgz:20857.got - 2010.06.03 17:35:07.
