data_PCOD9531957
_publ_section_title
;
Structure prediction by ZEFSAII (Michael W. Deem and Ramdas Pophale) SiO2 
 PCOD9531957
Probable space group: I B C A 
;
_chemical_formula_sum "Si O2"
_cell_formula_units_Z 120
_cell_length_a 24.360328
_cell_length_b 13.356753
_cell_length_c 16.461333
_cell_angle_alpha 90.000000
_cell_angle_beta 90.000000
_cell_angle_gamma 90.000000
_cell_volume 5356.104317
_symmetry_space_group_name_H-M "I B C A "
_symmetry_group_IT_number 73
_symmetry_cell_setting 'orthorhombic'
loop_
_space_group_symop_operation_xyz
x,y,z
-x,1/2-y,z
x,-y,1/2-z
1/2-x,y,-z
-x,-y,-z
x,1/2+y,-z
-x,y,1/2+z
1/2+x,-y,z
1/2+x,1/2+y,1/2+z
1/2-x,-y,1/2+z
1/2+x,1/2-y,-z
-x,1/2+y,1/2-z
1/2-x,1/2-y,1/2-z
1/2+x,y,1/2-z
1/2-x,1/2+y,z
x,1/2-y,1/2+z
loop_
_atom_site_type_symbol
_atom_site_label
_atom_site_fract_x
_atom_site_fract_y
_atom_site_fract_z
Si Si1 0.303934 0.823366 0.954567
Si Si2 0.534773 0.000000 0.250000
Si Si3 0.897530 0.497531 0.910231
Si Si4 0.854447 0.666068 0.785465
Si Si5 0.824076 0.666992 0.402743
Si Si6 0.537393 0.339852 0.194004
Si Si7 0.896467 0.019921 0.912045
Si Si8 0.207271 0.875681 0.632613
O O1 0.346050 0.902780 0.920036
O O2 0.292105 0.743800 0.883936
O O3 0.250000 0.866924 0.000000
O O4 0.325344 0.746315 0.023739
O O5 0.496442 0.902452 0.238554
O O6 0.568505 0.969752 0.330403
O O7 0.878950 0.588830 0.852001
O O8 0.941110 0.423407 0.868755
O O9 0.839963 0.434648 0.917115
O O10 0.920917 0.530519 0.997183
O O11 0.827921 0.762445 0.824884
O O12 0.906333 0.700059 0.731911
O O13 0.811330 0.612260 0.725614
O O14 0.874363 0.592712 0.406857
O O15 0.768655 0.600589 0.395989
O O16 0.500000 0.250000 0.161844
#
# Coordination Sequence:
#
# PCOD9531957 Si02
#       8
#    16   8  16  16  16  16  16  16
#     4  10  23  40  65  94 138 187 220 270 338 407
#     4  12  28  48  66 104 134 178 228 306 342 404
#     4  11  23  45  72 100 133 187 232 281 348 428
#     4  11  22  45  71 101 133 182 234 284 346 422
#     4  11  23  41  65 100 140 183 221 282 337 406
#     4  11  24  47  74  94 133 175 226 293 358 400
#     4  12  27  42  67 100 143 173 233 279 349 412
#     4  10  22  39  68  99 139 179 234 269 339 414
#
# _framework density 22.404343999999998
#
# number of rings (size 3 to 8) (size 9 to 14) (size 15 to 20)
#    0.000    1.067    4.000    2.400    7.467    0.533 
#    2.400    0.667    0.000    0.000    0.000    0.000 
#    0.000    0.000    0.000    0.000    0.000    0.000 
#
# Total GULP energy -334865.734574 kJ/mol
# GULP energy per Si atom -5581.095576 kJ/mol
# Density = 2.235335 g / cm^3
# Si number density = 22.404344 Si / 1000 Ang^3
#
#
#
# Elastic Constant Matrix: (Units=GPa)
#
#
# Indices 1 2 3 4 5 6 
#
# 1 66.4746 24.5537 18.0943 0.0000 0.0000 0.0000
# 2 24.5537 46.5888 7.5796 0.0000 0.0000 0.0000
# 3 18.0943 7.5796 99.7261 0.0000 0.0000 0.0000
# 4 0.0000 0.0000 0.0000 23.5160 0.0000 0.0000
# 5 0.0000 0.0000 0.0000 0.0000 18.0589 0.0000
# 6 0.0000 0.0000 0.0000 0.0000 0.0000 41.2747
#
#
#
# Elastic Compliance Matrix: (Units=1/GPa)
#
#
# Indices 1 2 3 4 5 6 
#
# 1 0.019412 -0.009778 -0.002779 0.000000 0.000000 0.000000
# 2 -0.009778 0.026659 -0.000252 0.000000 0.000000 0.000000
# 3 -0.002779 -0.000252 0.010551 0.000000 0.000000 0.000000
# 4 0.000000 0.000000 0.000000 0.042524 0.000000 0.000000
# 5 0.000000 0.000000 0.000000 0.000000 0.055374 0.000000
# 6 0.000000 0.000000 0.000000 0.000000 0.000000 0.024228
#
#
# Mechanical properties :
#
#
# Convention : Reuss Voigt Hill
#
# Bulk Modulus (GPa) = 32.25512 34.80497 33.53004
# Shear Modulus (GPa) = 23.28825 27.40739 25.34782
#
# Velocity S-wave (km/s) = 3.22755 3.50137 3.36725
# Velocity P-wave (km/s) = 5.32142 5.64932 5.48782
#
# Compressibility (1/GPa) = 0.03100283
#
# Stress axis : x y z
#
# Youngs Moduli (GPa) = 51.51564 37.51088 94.77945
#
# Poissons Ratio (x) = 0.36680 0.26338
# Poissons Ratio (y) = 0.50374 0.02388
# Poissons Ratio (z) = 0.14315 0.00945
#
# Static dielectric constant tensor:
#      x y z
#    x 1.876440 0.000000 0.000000 
#    y 0.000000 1.815060 0.000000 
#    z 0.000000 0.000000 1.926640 
# 
# From -- ./inp_files/23677.got.cif
#   From: 2010.05.17/outbox.cif.g08.bks.cpg/sg73_12_cif.got.tgz:23677.got - 2010.06.03 17:35:07.
