data_PCOD9531585
_publ_section_title
;
Structure prediction by ZEFSAII (Michael W. Deem and Ramdas Pophale) SiO2 
 PCOD9531585
Probable space group: I B C A 
;
_chemical_formula_sum "Si O2"
_cell_formula_units_Z 80
_cell_length_a 14.700474
_cell_length_b 25.067638
_cell_length_c 8.685605
_cell_angle_alpha 90.000000
_cell_angle_beta 90.000000
_cell_angle_gamma 90.000000
_cell_volume 3200.698952
_symmetry_space_group_name_H-M "I B C A "
_symmetry_group_IT_number 73
_symmetry_cell_setting 'orthorhombic'
loop_
_space_group_symop_operation_xyz
x,y,z
-x,1/2-y,z
x,-y,1/2-z
1/2-x,y,-z
-x,-y,-z
x,1/2+y,-z
-x,y,1/2+z
1/2+x,-y,z
1/2+x,1/2+y,1/2+z
1/2-x,-y,1/2+z
1/2+x,1/2-y,-z
-x,1/2+y,1/2-z
1/2-x,1/2-y,1/2-z
1/2+x,y,1/2-z
1/2-x,1/2+y,z
x,1/2-y,1/2+z
loop_
_atom_site_type_symbol
_atom_site_label
_atom_site_fract_x
_atom_site_fract_y
_atom_site_fract_z
Si Si1 0.736914 0.661810 0.184530
Si Si2 0.646390 0.184745 0.523425
Si Si3 0.913696 0.783155 0.661606
Si Si4 0.998217 0.891035 0.530695
Si Si5 0.632201 0.560615 0.219314
O O1 0.648676 0.680030 0.284001
O O2 0.819304 0.700121 0.244235
O O3 0.721798 0.598449 0.214110
O O4 0.750000 0.666834 0.000000
O O5 0.750000 0.168895 0.500000
O O6 0.616083 0.245725 0.517140
O O7 0.577744 0.143206 0.446984
O O8 0.000000 0.750000 0.725429
O O9 0.946823 0.841129 0.606555
O O10 0.058466 0.925151 0.648005
O O11 0.926815 0.924978 0.433125
O O12 0.658435 0.500000 0.250000
#
# Coordination Sequence:
#
# PCOD9531585 Si02
#       5
#    16  16  16  16  16
#     4  11  22  42  66  97 141 179 232 291 345 433
#     4  10  23  39  63 101 140 178 227 275 351 437
#     4  10  21  41  64 101 139 187 217 278 360 436
#     4  10  23  42  67  96 137 176 233 294 342 426
#     4  11  24  45  69  96 130 183 243 299 354 403
#
# _framework density 24.994541999999999
#
# number of rings (size 3 to 8) (size 9 to 14) (size 15 to 20)
#    0.000    1.600    2.000    1.800    2.800    0.000 
#    3.600    5.000    0.000    0.000    0.000    0.000 
#    0.000    0.000    0.000    0.000    0.000    0.000 
#
# Total GULP energy -222759.775671 kJ/mol
# GULP energy per Si atom -5568.994392 kJ/mol
# Density = 2.493765 g / cm^3
# Si number density = 24.994542 Si / 1000 Ang^3
#
#
#
# Elastic Constant Matrix: (Units=GPa)
#
#
# Indices 1 2 3 4 5 6 
#
# 1 127.0298 51.8530 17.4322 0.0001 0.0001 0.0000
# 2 51.8530 154.5178 22.9877 -0.0005 -0.0004 0.0000
# 3 17.4322 22.9877 59.8755 0.0005 0.0001 -0.0001
# 4 0.0001 -0.0005 0.0005 24.3118 0.0000 0.0000
# 5 0.0001 -0.0004 0.0001 0.0000 45.5177 0.0000
# 6 0.0000 0.0000 -0.0001 0.0000 0.0000 52.2143
#
#
#
# Elastic Compliance Matrix: (Units=1/GPa)
#
#
# Indices 1 2 3 4 5 6 
#
# 1 0.009263 -0.002871 -0.001595 0.000000 0.000000 0.000000
# 2 -0.002871 0.007754 -0.002141 0.000000 0.000000 0.000000
# 3 -0.001595 -0.002141 0.017988 0.000000 0.000000 0.000000
# 4 0.000000 0.000000 0.000000 0.041132 0.000000 0.000000
# 5 0.000000 0.000000 0.000000 0.000000 0.021969 0.000000
# 6 0.000000 0.000000 0.000000 0.000000 0.000000 0.019152
#
#
# Mechanical properties :
#
#
# Convention : Reuss Voigt Hill
#
# Bulk Modulus (GPa) = 45.89065 58.44098 52.16581
# Shear Modulus (GPa) = 36.30162 41.01878 38.66020
#
# Velocity S-wave (km/s) = 3.81515 4.05546 3.93714
# Velocity P-wave (km/s) = 6.14876 6.73507 6.44858
#
# Compressibility (1/GPa) = 0.02179093
#
# Stress axis : x y z
#
# Youngs Moduli (GPa) = 107.95616 128.96922 55.59414
#
# Poissons Ratio (x) = 0.37030 0.08864
# Poissons Ratio (y) = 0.30997 0.11902
# Poissons Ratio (z) = 0.17214 0.27611
#
# Static dielectric constant tensor:
#      x y z
#    x 2.103320 0.000000 0.000000 
#    y 0.000000 2.026880 0.000000 
#    z 0.000000 0.000000 2.466720 
# 
# From -- ./inp_files/10813.got.cif
#   From: 2010.05.17/outbox.cif.g08.bks.cpg/sg73_6_cif.got.tgz:10813.got - 2010.06.03 17:35:07.
