data_PCOD9531522
_publ_section_title
;
Structure prediction by ZEFSAII (Michael W. Deem and Ramdas Pophale) SiO2 
 PCOD9531522
Probable space group: I B C A 
;
_chemical_formula_sum "Si O2"
_cell_formula_units_Z 72
_cell_length_a 12.976568
_cell_length_b 11.538130
_cell_length_c 21.702398
_cell_angle_alpha 90.000000
_cell_angle_beta 90.000000
_cell_angle_gamma 90.000000
_cell_volume 3249.398671
_symmetry_space_group_name_H-M "I B C A "
_symmetry_group_IT_number 73
_symmetry_cell_setting 'orthorhombic'
loop_
_space_group_symop_operation_xyz
x,y,z
-x,1/2-y,z
x,-y,1/2-z
1/2-x,y,-z
-x,-y,-z
x,1/2+y,-z
-x,y,1/2+z
1/2+x,-y,z
1/2+x,1/2+y,1/2+z
1/2-x,-y,1/2+z
1/2+x,1/2-y,-z
-x,1/2+y,1/2-z
1/2-x,1/2-y,1/2-z
1/2+x,y,1/2-z
1/2-x,1/2+y,z
x,1/2-y,1/2+z
loop_
_atom_site_type_symbol
_atom_site_label
_atom_site_fract_x
_atom_site_fract_y
_atom_site_fract_z
Si Si1 0.775635 0.805439 0.315207
Si Si2 0.250000 0.859232 0.500000
Si Si3 0.558137 0.001961 0.681762
Si Si4 0.113312 0.731073 0.108054
Si Si5 0.417789 0.149647 0.905438
O O1 0.750000 0.750000 0.250000
O O2 0.843239 0.919172 0.310244
O O3 0.668735 0.827666 0.350853
O O4 0.843394 0.715723 0.356406
O O5 0.313653 0.789542 0.449473
O O6 0.344043 0.908805 0.542389
O O7 0.484622 0.943835 0.631212
O O8 0.508601 0.000000 0.750000
O O9 0.598664 0.122949 0.654892
O O10 0.000000 0.750000 0.084296
O O11 0.500000 0.250000 0.927477
#
# Coordination Sequence:
#
# PCOD9531522 Si02
#       5
#    16   8  16  16  16
#     4  10  21  40  63  95 135 167 213 265 329 400
#     4  10  22  46  62  90 130 178 230 264 328 386
#     4  11  23  40  65 102 131 170 215 269 341 393
#     4  11  25  42  67  97 129 177 220 275 331 390
#     4   9  21  40  65  91 128 169 216 278 318 388
#
# _framework density 22.157945999999999
#
# number of rings (size 3 to 8) (size 9 to 14) (size 15 to 20)
#    0.000    1.778    2.222    0.667    3.111    4.444 
#    0.000   11.111    0.000    0.000    0.000    0.000 
#    0.000    0.000    0.000    0.000    0.000    0.000 
#
# Total GULP energy -200788.436746 kJ/mol
# GULP energy per Si atom -5577.456576 kJ/mol
# Density = 2.210751 g / cm^3
# Si number density = 22.157946 Si / 1000 Ang^3
#
#
#
# Elastic Constant Matrix: (Units=GPa)
#
#
# Indices 1 2 3 4 5 6 
#
# 1 138.0327 10.1110 52.0484 0.0000 0.0000 0.0000
# 2 10.1110 40.3556 11.1101 0.0000 0.0000 0.0000
# 3 52.0484 11.1101 129.6090 0.0000 0.0000 0.0000
# 4 0.0000 0.0000 0.0000 8.1387 0.0000 0.0000
# 5 0.0000 0.0000 0.0000 0.0000 53.2100 0.0000
# 6 0.0000 0.0000 0.0000 0.0000 0.0000 22.7961
#
#
#
# Elastic Compliance Matrix: (Units=1/GPa)
#
#
# Indices 1 2 3 4 5 6 
#
# 1 0.008597 -0.001233 -0.003347 0.000000 0.000000 0.000000
# 2 -0.001233 0.025555 -0.001696 0.000000 0.000000 0.000000
# 3 -0.003347 -0.001696 0.009205 0.000000 0.000000 0.000000
# 4 0.000000 0.000000 0.000000 0.122870 0.000000 0.000000
# 5 0.000000 0.000000 0.000000 0.000000 0.018793 0.000000
# 6 0.000000 0.000000 0.000000 0.000000 0.000000 0.043867
#
#
# Mechanical properties :
#
#
# Convention : Reuss Voigt Hill
#
# Bulk Modulus (GPa) = 32.45987 50.50403 41.48195
# Shear Modulus (GPa) = 19.86437 32.47747 26.17092
#
# Velocity S-wave (km/s) = 2.99739 3.83263 3.44045
# Velocity P-wave (km/s) = 5.16336 6.51365 5.87741
#
# Compressibility (1/GPa) = 0.03080727
#
# Stress axis : x y z
#
# Youngs Moduli (GPa) = 116.32109 39.13081 108.63865
#
# Poissons Ratio (x) = 0.04823 0.36358
# Poissons Ratio (y) = 0.14337 0.18421
# Poissons Ratio (z) = 0.38929 0.06635
#
# Static dielectric constant tensor:
#      x y z
#    x 1.864090 0.000000 0.000000 
#    y 0.000000 1.807540 0.000000 
#    z 0.000000 0.000000 2.858210 
# 
# From -- ./inp_files/10619.got.cif
#   From: 2010.05.17/outbox.cif.g08.bks.cpg/sg73_6_cif.got.tgz:10619.got - 2010.06.03 17:35:07.
