data_PCOD9531013
_publ_section_title
;
Structure prediction by ZEFSAII (Michael W. Deem and Ramdas Pophale) SiO2 
 PCOD9531013
Probable space group: I B C A 
;
_chemical_formula_sum "Si O2"
_cell_formula_units_Z 64
_cell_length_a 10.199740
_cell_length_b 17.437514
_cell_length_c 14.828838
_cell_angle_alpha 90.000000
_cell_angle_beta 90.000000
_cell_angle_gamma 90.000000
_cell_volume 2637.429086
_symmetry_space_group_name_H-M "I B C A "
_symmetry_group_IT_number 73
_symmetry_cell_setting 'orthorhombic'
loop_
_space_group_symop_operation_xyz
x,y,z
-x,1/2-y,z
x,-y,1/2-z
1/2-x,y,-z
-x,-y,-z
x,1/2+y,-z
-x,y,1/2+z
1/2+x,-y,z
1/2+x,1/2+y,1/2+z
1/2-x,-y,1/2+z
1/2+x,1/2-y,-z
-x,1/2+y,1/2-z
1/2-x,1/2-y,1/2-z
1/2+x,y,1/2-z
1/2-x,1/2+y,z
x,1/2-y,1/2+z
loop_
_atom_site_type_symbol
_atom_site_label
_atom_site_fract_x
_atom_site_fract_y
_atom_site_fract_z
Si Si1 0.802274 0.143137 0.313434
Si Si2 0.489452 0.086445 0.032247
Si Si3 0.856040 0.714470 0.077618
Si Si4 0.510416 0.342283 0.834354
O O1 0.865014 0.101957 0.402374
O O2 0.810962 0.233988 0.339193
O O3 0.650419 0.127124 0.300712
O O4 0.893927 0.126938 0.228352
O O5 0.493819 0.132073 0.937725
O O6 0.612410 0.124573 0.085872
O O7 0.500000 0.000000 0.000000
O O8 0.000000 0.750000 0.059980
O O9 0.750000 0.727120 0.000000
O O10 0.500000 0.250000 0.830384
#
# Coordination Sequence:
#
# PCOD9531013 Si02
#       4
#    16  16  16  16
#     4  11  24  45  68 102 136 172 230 289 338 405
#     4  11  25  44  67  99 140 183 224 276 340 409
#     4  10  20  40  68  95 129 170 219 275 330 392
#     4  12  24  43  73 101 132 178 228 285 345 401
#
# _framework density 24.266057
#
# number of rings (size 3 to 8) (size 9 to 14) (size 15 to 20)
#    0.000    1.000    0.000   10.500    0.000    7.000 
#    0.000    2.500    0.000    0.000    0.000    0.000 
#    0.000    0.000    0.000    0.000    0.000    0.000 
#
# Total GULP energy -178998.223160 kJ/mol
# GULP energy per Si atom -5593.694474 kJ/mol
# Density = 2.421083 g / cm^3
# Si number density = 24.266057 Si / 1000 Ang^3
#
#
#
# Elastic Constant Matrix: (Units=GPa)
#
#
# Indices 1 2 3 4 5 6 
#
# 1 166.8440 -3.5935 58.5155 0.0000 0.0000 0.0000
# 2 -3.5935 76.6938 11.3498 0.0000 0.0000 0.0000
# 3 58.5155 11.3498 143.1928 0.0000 0.0000 0.0000
# 4 0.0000 0.0000 0.0000 16.2013 0.0000 0.0000
# 5 0.0000 0.0000 0.0000 0.0000 53.9496 0.0000
# 6 0.0000 0.0000 0.0000 0.0000 0.0000 8.9181
#
#
#
# Elastic Compliance Matrix: (Units=1/GPa)
#
#
# Indices 1 2 3 4 5 6 
#
# 1 0.007040 0.000765 -0.002938 0.000000 0.000000 0.000000
# 2 0.000765 0.013277 -0.001365 0.000000 0.000000 0.000000
# 3 -0.002938 -0.001365 0.008292 0.000000 0.000000 0.000000
# 4 0.000000 0.000000 0.000000 0.061723 0.000000 0.000000
# 5 0.000000 0.000000 0.000000 0.000000 0.018536 0.000000
# 6 0.000000 0.000000 0.000000 0.000000 0.000000 0.112132
#
#
# Mechanical properties :
#
#
# Convention : Reuss Voigt Hill
#
# Bulk Modulus (GPa) = 46.43904 57.69716 52.06810
# Shear Modulus (GPa) = 21.25364 37.17771 29.21567
#
# Velocity S-wave (km/s) = 2.96270 3.91843 3.47360
# Velocity P-wave (km/s) = 5.55720 6.65588 6.13120
#
# Compressibility (1/GPa) = 0.02153361
#
# Stress axis : x y z
#
# Youngs Moduli (GPa) = 142.03777 75.32015 120.59473
#
# Poissons Ratio (x) = -0.05759 0.35426
# Poissons Ratio (y) = -0.10860 0.16459
# Poissons Ratio (z) = 0.41726 0.10280
#
# Static dielectric constant tensor:
#      x y z
#    x 2.011860 0.000000 0.000000 
#    y 0.000000 2.016680 0.000000 
#    z 0.000000 0.000000 2.016450 
# 
# From -- ./inp_files/15865.got.cif
#   From: 2010.05.17/outbox.cif.g08.bks.cpg/sg73_8_cif.got.tgz:15865.got - 2010.06.03 17:35:07.
