data_PCOD9531872
_publ_section_title
;
Structure prediction by ZEFSAII (Michael W. Deem and Ramdas Pophale) SiO2 
 PCOD9531872
Probable space group: I B C A 
;
_chemical_formula_sum "Si O2"
_cell_formula_units_Z 88
_cell_length_a 11.791601
_cell_length_b 22.997384
_cell_length_c 14.515876
_cell_angle_alpha 90.000000
_cell_angle_beta 90.000000
_cell_angle_gamma 90.000000
_cell_volume 3936.356844
_symmetry_space_group_name_H-M "I B C A "
_symmetry_group_IT_number 73
_symmetry_cell_setting 'orthorhombic'
loop_
_space_group_symop_operation_xyz
x,y,z
-x,1/2-y,z
x,-y,1/2-z
1/2-x,y,-z
-x,-y,-z
x,1/2+y,-z
-x,y,1/2+z
1/2+x,-y,z
1/2+x,1/2+y,1/2+z
1/2-x,-y,1/2+z
1/2+x,1/2-y,-z
-x,1/2+y,1/2-z
1/2-x,1/2-y,1/2-z
1/2+x,y,1/2-z
1/2-x,1/2+y,z
x,1/2-y,1/2+z
loop_
_atom_site_type_symbol
_atom_site_label
_atom_site_fract_x
_atom_site_fract_y
_atom_site_fract_z
Si Si1 0.000000 0.250000 0.196071
Si Si2 0.750000 0.741412 0.500000
Si Si3 0.736425 0.392520 0.175685
Si Si4 0.126650 0.000000 0.250000
Si Si5 0.563406 0.844183 0.052931
Si Si6 0.816743 0.192236 0.820344
Si Si7 0.517582 0.910052 0.389135
O O1 0.996648 0.193352 0.129299
O O2 0.107579 0.236970 0.261133
O O3 0.867371 0.704446 0.505980
O O4 0.756154 0.779229 0.592460
O O5 0.791101 0.450289 0.214763
O O6 0.828802 0.373537 0.100956
O O7 0.735351 0.342831 0.252423
O O8 0.612379 0.402954 0.139017
O O9 0.058992 0.030989 0.336008
O O10 0.490513 0.892437 0.998251
O O11 0.905148 0.142384 0.852075
#
# Coordination Sequence:
#
# PCOD9531872 Si02
#       7
#     8   8  16   8  16  16  16
#     4  10  22  38  62 100 136 190 226 268 346 432
#     4  12  22  40  62 100 144 182 218 280 334 428
#     4  10  22  42  64  95 125 173 226 289 343 421
#     4  10  24  42  70  90 122 180 234 294 362 400
#     4  11  22  37  64  94 139 175 228 278 347 410
#     4  10  24  37  65  99 138 177 231 263 352 418
#     4  11  21  44  65  97 132 175 228 293 348 423
#
# _framework density 22.355695999999998
#
# number of rings (size 3 to 8) (size 9 to 14) (size 15 to 20)
#    0.000    1.455    1.818    2.727    2.545    2.182 
#    3.273    0.000   16.000    0.000    0.000    0.000 
#    0.000    0.000    0.000    0.000    0.000    0.000 
#
# Total GULP energy -245676.627231 kJ/mol
# GULP energy per Si atom -5583.559710 kJ/mol
# Density = 2.230481 g / cm^3
# Si number density = 22.355696 Si / 1000 Ang^3
#
#
#
# Elastic Constant Matrix: (Units=GPa)
#
#
# Indices 1 2 3 4 5 6 
#
# 1 55.6087 33.0078 10.5791 0.0000 0.0000 0.0000
# 2 33.0078 101.6114 47.0071 0.0001 0.0000 -0.0002
# 3 10.5791 47.0071 110.0803 0.0002 0.0000 -0.0002
# 4 0.0000 0.0001 0.0002 37.3747 0.0000 -0.0002
# 5 0.0000 0.0000 0.0000 0.0000 33.9482 0.0001
# 6 0.0000 -0.0002 -0.0002 -0.0002 0.0001 11.1264
#
#
#
# Elastic Compliance Matrix: (Units=1/GPa)
#
#
# Indices 1 2 3 4 5 6 
#
# 1 0.022403 -0.007828 0.001190 0.000000 0.000000 0.000000
# 2 -0.007828 0.014999 -0.005653 0.000000 0.000000 0.000000
# 3 0.001190 -0.005653 0.011384 0.000000 0.000000 0.000000
# 4 0.000000 0.000000 0.000000 0.026756 0.000000 0.000001
# 5 0.000000 0.000000 0.000000 0.000000 0.029457 0.000000
# 6 0.000000 0.000000 0.000000 0.000001 0.000000 0.089876
#
#
# Mechanical properties :
#
#
# Convention : Reuss Voigt Hill
#
# Bulk Modulus (GPa) = 41.31524 49.83206 45.57365
# Shear Modulus (GPa) = 21.97565 28.27028 25.12297
#
# Velocity S-wave (km/s) = 3.13868 3.55993 3.35593
# Velocity P-wave (km/s) = 5.62638 6.26390 5.95368
#
# Compressibility (1/GPa) = 0.02420414
#
# Stress axis : x y z
#
# Youngs Moduli (GPa) = 44.63721 66.66980 87.84380
#
# Poissons Ratio (x) = 0.52188 -0.10450
# Poissons Ratio (y) = 0.34941 0.49656
# Poissons Ratio (z) = -0.05310 0.37687
#
# Static dielectric constant tensor:
#      x y z
#    x 1.814710 0.000000 0.000000 
#    y 0.000000 1.564080 0.000000 
#    z 0.000000 0.000000 1.999080 
# 
# From -- ./inp_files/13550.got.cif
#   From: 2010.05.17/outbox.cif.g08.bks.cpg/sg73_7_cif.got.tgz:13550.got - 2010.06.03 17:35:07.
