data_PCOD9531594
_publ_section_title
;
Structure prediction by ZEFSAII (Michael W. Deem and Ramdas Pophale) SiO2 
 PCOD9531594
Probable space group: I B C A 
;
_chemical_formula_sum "Si O2"
_cell_formula_units_Z 120
_cell_length_a 11.551278
_cell_length_b 19.956461
_cell_length_c 24.249758
_cell_angle_alpha 90.000000
_cell_angle_beta 90.000000
_cell_angle_gamma 90.000000
_cell_volume 5590.117965
_symmetry_space_group_name_H-M "I B C A "
_symmetry_group_IT_number 73
_symmetry_cell_setting 'orthorhombic'
loop_
_space_group_symop_operation_xyz
x,y,z
-x,1/2-y,z
x,-y,1/2-z
1/2-x,y,-z
-x,-y,-z
x,1/2+y,-z
-x,y,1/2+z
1/2+x,-y,z
1/2+x,1/2+y,1/2+z
1/2-x,-y,1/2+z
1/2+x,1/2-y,-z
-x,1/2+y,1/2-z
1/2-x,1/2-y,1/2-z
1/2+x,y,1/2-z
1/2-x,1/2+y,z
x,1/2-y,1/2+z
loop_
_atom_site_type_symbol
_atom_site_label
_atom_site_fract_x
_atom_site_fract_y
_atom_site_fract_z
Si Si1 0.272305 0.936348 0.436184
Si Si2 0.339081 0.683296 0.135193
Si Si3 0.932175 0.887009 0.330768
Si Si4 0.277354 0.282299 0.061346
Si Si5 0.000000 0.750000 0.633851
Si Si6 0.966650 0.537308 0.646295
Si Si7 0.861175 0.350248 0.790301
Si Si8 0.700361 0.421457 0.602919
O O1 0.250000 0.922538 0.500000
O O2 0.223084 0.873212 0.402752
O O3 0.401705 0.953337 0.413171
O O4 0.205754 0.004930 0.422411
O O5 0.469835 0.660807 0.144112
O O6 0.319834 0.752838 0.102878
O O7 0.264078 0.678936 0.191934
O O8 0.893033 0.854731 0.273238
O O9 0.814807 0.903601 0.363149
O O10 0.987698 0.962180 0.332008
O O11 0.393288 0.259481 0.092379
O O12 0.298444 0.361901 0.059109
O O13 0.250000 0.257479 0.000000
O O14 0.953850 0.692826 0.674961
O O15 0.878049 0.574041 0.687427
O O16 0.087562 0.575934 0.641093
#
# Coordination Sequence:
#
# PCOD9531594 Si02
#       8
#    16  16  16  16   8  16  16  16
#     4  10  21  41  65  90 126 173 212 266 330 381
#     4  10  23  42  62  96 129 165 224 265 312 408
#     4  11  24  41  66  94 130 172 211 278 331 381
#     4  11  24  43  66  93 131 175 213 268 335 389
#     4  10  22  42  66  92 128 170 228 266 316 404
#     4  10  21  42  62  94 132 161 223 269 316 402
#     4  10  22  40  65  90 125 175 210 266 328 378
#     4  11  23  41  64  97 130 163 219 275 322 397
#
# _framework density 21.466452
#
# number of rings (size 3 to 8) (size 9 to 14) (size 15 to 20)
#    0.000    1.600    2.667    1.200    1.867    3.200 
#    2.400    2.667    0.000    0.000    0.000    0.000 
#    0.000    0.000    0.000    0.000    0.000    0.000 
#
# Total GULP energy -334614.458553 kJ/mol
# GULP energy per Si atom -5576.907643 kJ/mol
# Density = 2.141759 g / cm^3
# Si number density = 21.466452 Si / 1000 Ang^3
#
#
#
# Elastic Constant Matrix: (Units=GPa)
#
#
# Indices 1 2 3 4 5 6 
#
# 1 86.8904 -2.9850 22.8652 0.0000 0.0000 0.0000
# 2 -2.9850 71.0900 2.8253 0.0000 0.0000 0.0000
# 3 22.8652 2.8253 84.3378 0.0000 0.0000 0.0000
# 4 0.0000 0.0000 0.0000 52.2272 0.0000 0.0000
# 5 0.0000 0.0000 0.0000 0.0000 -1.6280 0.0000
# 6 0.0000 0.0000 0.0000 0.0000 0.0000 26.1720
#
#
#
# Elastic Compliance Matrix: (Units=1/GPa)
#
#
# Indices 1 2 3 4 5 6 
#
# 1 0.012423 0.000656 -0.003390 0.000000 0.000000 0.000000
# 2 0.000656 0.014120 -0.000651 0.000000 0.000000 0.000000
# 3 -0.003390 -0.000651 0.012798 0.000000 0.000000 0.000000
# 4 0.000000 0.000000 0.000000 0.019147 0.000000 0.000000
# 5 0.000000 0.000000 0.000000 0.000000 -0.614250 0.000000
# 6 0.000000 0.000000 0.000000 0.000000 0.000000 0.038209
#
#
# Mechanical properties :
#
#
# Convention : Reuss Voigt Hill
#
# Bulk Modulus (GPa) = 30.70118 31.96990 31.33554
# Shear Modulus (GPa) = -10.00149 29.99507 9.99679
#
# Velocity S-wave (km/s) = -2.16084 3.74210 2.16033
# Velocity P-wave (km/s) = 2.84734 5.79624 4.56638
#
# Compressibility (1/GPa) = 0.03257203
#
# Stress axis : x y z
#
# Youngs Moduli (GPa) = 80.49313 70.82102 78.13716
#
# Poissons Ratio (x) = -0.04649 0.26490
# Poissons Ratio (y) = -0.05283 0.05087
# Poissons Ratio (z) = 0.27288 0.04610
#
# Static dielectric constant tensor:
#      x y z
#    x 1.791630 0.000000 0.000000 
#    y 0.000000 1.877610 0.000000 
#    z 0.000000 0.000000 1.772770 
# 
# From -- ./inp_files/29072.got.cif
#   From: 2010.05.17/outbox.cif.g08.bks.cpg/sg73_15_cif.got.tgz:29072.got - 2010.06.03 17:35:07.
