data_PCOD9531160
_publ_section_title
;
Structure prediction by ZEFSAII (Michael W. Deem and Ramdas Pophale) SiO2 
 PCOD9531160
Probable space group: I B C A 
;
_chemical_formula_sum "Si O2"
_cell_formula_units_Z 72
_cell_length_a 11.107166
_cell_length_b 26.185511
_cell_length_c 11.952562
_cell_angle_alpha 90.000000
_cell_angle_beta 90.000000
_cell_angle_gamma 90.000000
_cell_volume 3476.364618
_symmetry_space_group_name_H-M "I B C A "
_symmetry_group_IT_number 73
_symmetry_cell_setting 'orthorhombic'
loop_
_space_group_symop_operation_xyz
x,y,z
-x,1/2-y,z
x,-y,1/2-z
1/2-x,y,-z
-x,-y,-z
x,1/2+y,-z
-x,y,1/2+z
1/2+x,-y,z
1/2+x,1/2+y,1/2+z
1/2-x,-y,1/2+z
1/2+x,1/2-y,-z
-x,1/2+y,1/2-z
1/2-x,1/2-y,1/2-z
1/2+x,y,1/2-z
1/2-x,1/2+y,z
x,1/2-y,1/2+z
loop_
_atom_site_type_symbol
_atom_site_label
_atom_site_fract_x
_atom_site_fract_y
_atom_site_fract_z
Si Si1 0.281709 0.053361 0.810190
Si Si2 0.842225 0.123408 0.898843
Si Si3 0.750000 0.681097 0.500000
Si Si4 0.591254 0.912452 0.997781
Si Si5 0.136039 0.759011 0.169894
O O1 0.298448 0.095233 0.713405
O O2 0.174362 0.067170 0.896207
O O3 0.261927 0.000000 0.750000
O O4 0.397193 0.051449 0.894148
O O5 0.860116 0.183183 0.873336
O O6 0.964100 0.098654 0.944830
O O7 0.750000 0.118001 0.000000
O O8 0.849538 0.640690 0.455203
O O9 0.831914 0.717767 0.575024
O O10 0.250000 0.750000 0.250000
O O11 0.000000 0.750000 0.215004
#
# Coordination Sequence:
#
# PCOD9531160 Si02
#       5
#    16  16   8  16  16
#     4  10  25  47  73 101 134 189 239 297 376 418
#     4  12  27  42  71 111 139 184 247 294 359 443
#     4  10  20  46  62  96 138 182 226 272 366 410
#     4  10  24  47  71  97 152 181 233 308 351 445
#     4  12  25  42  71 104 144 191 235 293 359 434
#
# _framework density 20.711290999999999
#
# number of rings (size 3 to 8) (size 9 to 14) (size 15 to 20)
#    0.000    1.333    3.333    2.667    6.222    4.444 
#    0.000    0.000    0.000    0.000    0.000    0.000 
#    0.000    0.000    0.000    0.000    0.000    0.000 
#
# Total GULP energy -200823.227068 kJ/mol
# GULP energy per Si atom -5578.422974 kJ/mol
# Density = 2.066415 g / cm^3
# Si number density = 20.711291 Si / 1000 Ang^3
#
#
#
# Elastic Constant Matrix: (Units=GPa)
#
#
# Indices 1 2 3 4 5 6 
#
# 1 129.2972 40.3019 69.6450 0.0002 -0.0003 0.0001
# 2 40.3019 114.7832 63.0868 0.0001 -0.0002 0.0001
# 3 69.6450 63.0868 140.3642 0.0004 -0.0007 0.0003
# 4 0.0002 0.0001 0.0004 35.7413 -0.0003 0.0001
# 5 -0.0003 -0.0002 -0.0007 -0.0003 20.8595 -0.0002
# 6 0.0001 0.0001 0.0003 0.0001 -0.0002 15.8355
#
#
#
# Elastic Compliance Matrix: (Units=1/GPa)
#
#
# Indices 1 2 3 4 5 6 
#
# 1 0.010661 -0.001110 -0.004791 0.000000 0.000000 0.000000
# 2 -0.001110 0.011686 -0.004701 0.000000 0.000000 0.000000
# 3 -0.004791 -0.004701 0.011614 0.000000 0.000000 0.000000
# 4 0.000000 0.000000 0.000000 0.027979 0.000000 0.000000
# 5 0.000000 0.000000 0.000000 0.000000 0.047940 0.000000
# 6 0.000000 0.000000 0.000000 0.000000 0.000000 0.063149
#
#
# Mechanical properties :
#
#
# Convention : Reuss Voigt Hill
#
# Bulk Modulus (GPa) = 78.39084 81.16800 79.77942
# Shear Modulus (GPa) = 25.19084 28.58130 26.88607
#
# Velocity S-wave (km/s) = 3.49131 3.71885 3.60687
# Velocity P-wave (km/s) = 7.36097 7.59704 7.47994
#
# Compressibility (1/GPa) = 0.01275659
#
# Stress axis : x y z
#
# Youngs Moduli (GPa) = 93.80398 85.57379 86.10066
#
# Poissons Ratio (x) = 0.09499 0.41247
# Poissons Ratio (y) = 0.10413 0.40479
# Poissons Ratio (z) = 0.44937 0.40232
#
# Static dielectric constant tensor:
#      x y z
#    x 1.766030 0.000000 0.000000 
#    y 0.000000 1.858230 0.000000 
#    z 0.000000 0.000000 1.761420 
# 
# From -- ./inp_files/9690.got.cif
#   From: 2010.05.17/outbox.cif.g08.bks.cpg/sg73_5_cif.got.tgz:9690.got - 2010.06.03 17:35:07.
