data_PCOD9531781
_publ_section_title
;
Structure prediction by ZEFSAII (Michael W. Deem and Ramdas Pophale) SiO2 
 PCOD9531781
Probable space group: I B C A 
;
_chemical_formula_sum "Si O2"
_cell_formula_units_Z 88
_cell_length_a 11.877250
_cell_length_b 17.612930
_cell_length_c 23.270057
_cell_angle_alpha 90.000000
_cell_angle_beta 90.000000
_cell_angle_gamma 90.000000
_cell_volume 4867.937056
_symmetry_space_group_name_H-M "I B C A "
_symmetry_group_IT_number 73
_symmetry_cell_setting 'orthorhombic'
loop_
_space_group_symop_operation_xyz
x,y,z
-x,1/2-y,z
x,-y,1/2-z
1/2-x,y,-z
-x,-y,-z
x,1/2+y,-z
-x,y,1/2+z
1/2+x,-y,z
1/2+x,1/2+y,1/2+z
1/2-x,-y,1/2+z
1/2+x,1/2-y,-z
-x,1/2+y,1/2-z
1/2-x,1/2-y,1/2-z
1/2+x,y,1/2-z
1/2-x,1/2+y,z
x,1/2-y,1/2+z
loop_
_atom_site_type_symbol
_atom_site_label
_atom_site_fract_x
_atom_site_fract_y
_atom_site_fract_z
Si Si1 0.593191 0.315085 0.939551
Si Si2 0.500000 0.250000 0.754880
Si Si3 0.148580 0.367515 0.679085
Si Si4 0.750000 0.204863 0.000000
Si Si5 0.468736 0.500000 0.250000
Si Si6 0.915641 0.883312 0.171628
Si Si7 0.520016 0.339900 0.552283
O O1 0.500000 0.250000 0.929999
O O2 0.598934 0.368354 0.885056
O O3 0.702206 0.263142 0.952008
O O4 0.558962 0.358337 0.997758
O O5 0.401564 0.210309 0.792849
O O6 0.455683 0.315714 0.713376
O O7 0.281794 0.372978 0.669728
O O8 0.106282 0.436087 0.718898
O O9 0.851238 0.156967 0.971133
O O10 0.547074 0.539905 0.297096
O O11 0.979384 0.879028 0.110398
O O12 0.500000 0.250000 0.562710
#
# Coordination Sequence:
#
# PCOD9531781 Si02
#       7
#    16   8  16   8   8  16  16
#     4   9  17  30  54  86 113 140 178 231 295 344
#     4  10  22  34  56  90 108 144 202 238 292 346
#     4  11  20  39  56  80 116 153 190 244 289 339
#     4   8  16  30  52  90 120 138 172 240 298 342
#     4  10  26  40  52  78 116 162 206 228 280 342
#     4  11  21  38  59  81 115 152 196 240 284 349
#     4   9  17  32  55  90 115 141 184 235 297 347
#
# _framework density 18.077473000000001
#
# number of rings (size 3 to 8) (size 9 to 14) (size 15 to 20)
#    0.000    2.545    1.818    3.273    0.000    0.000 
#    0.000    4.545    0.000    1.091    0.000    0.000 
#    0.000    0.000    0.000    0.000    0.000    0.000 
#
# Total GULP energy -245016.323361 kJ/mol
# GULP energy per Si atom -5568.552804 kJ/mol
# Density = 1.803633 g / cm^3
# Si number density = 18.077473 Si / 1000 Ang^3
#
#
#
# Elastic Constant Matrix: (Units=GPa)
#
#
# Indices 1 2 3 4 5 6 
#
# 1 106.7686 19.8791 50.7487 0.0000 0.0000 0.0000
# 2 19.8791 41.9657 33.7636 0.0000 0.0000 0.0000
# 3 50.7487 33.7636 152.3280 0.0000 0.0000 0.0000
# 4 0.0000 0.0000 0.0000 17.9360 0.0000 0.0000
# 5 0.0000 0.0000 0.0000 0.0000 14.0695 0.0000
# 6 0.0000 0.0000 0.0000 0.0000 0.0000 9.2120
#
#
#
# Elastic Compliance Matrix: (Units=1/GPa)
#
#
# Indices 1 2 3 4 5 6 
#
# 1 0.011402 -0.002854 -0.003166 0.000000 0.000000 0.000000
# 2 -0.002854 0.029715 -0.005636 0.000000 0.000000 0.000000
# 3 -0.003166 -0.005636 0.008869 0.000000 0.000000 0.000000
# 4 0.000000 0.000000 0.000000 0.055754 0.000000 0.000000
# 5 0.000000 0.000000 0.000000 0.000000 0.071076 0.000000
# 6 0.000000 0.000000 0.000000 0.000000 0.000000 0.108554
#
#
# Mechanical properties :
#
#
# Convention : Reuss Voigt Hill
#
# Bulk Modulus (GPa) = 37.48865 56.64947 47.06906
# Shear Modulus (GPa) = 15.74447 21.35490 18.54968
#
# Velocity S-wave (km/s) = 2.95438 3.44073 3.20679
# Velocity P-wave (km/s) = 5.69391 6.86949 6.30914
#
# Compressibility (1/GPa) = 0.02667474
#
# Stress axis : x y z
#
# Youngs Moduli (GPa) = 87.70120 33.65309 112.75571
#
# Poissons Ratio (x) = 0.09604 0.35700
# Poissons Ratio (y) = 0.25029 0.63544
# Poissons Ratio (z) = 0.27768 0.18965
#
# Static dielectric constant tensor:
#      x y z
#    x 1.681750 0.000000 0.000000 
#    y 0.000000 1.603900 0.000000 
#    z 0.000000 0.000000 1.640270 
# 
# From -- ./inp_files/12790.got.cif
#   From: 2010.05.17/outbox.cif.g08.bks.cpg/sg73_7_cif.got.tgz:12790.got - 2010.06.03 17:35:07.
