data_PCOD9531408
_publ_section_title
;
Structure prediction by ZEFSAII (Michael W. Deem and Ramdas Pophale) SiO2 
 PCOD9531408
Probable space group: I B C A 
;
_chemical_formula_sum "Si O2"
_cell_formula_units_Z 80
_cell_length_a 24.175307
_cell_length_b 9.411817
_cell_length_c 17.776067
_cell_angle_alpha 90.000000
_cell_angle_beta 90.000000
_cell_angle_gamma 90.000000
_cell_volume 4044.651903
_symmetry_space_group_name_H-M "I B C A "
_symmetry_group_IT_number 73
_symmetry_cell_setting 'orthorhombic'
loop_
_space_group_symop_operation_xyz
x,y,z
-x,1/2-y,z
x,-y,1/2-z
1/2-x,y,-z
-x,-y,-z
x,1/2+y,-z
-x,y,1/2+z
1/2+x,-y,z
1/2+x,1/2+y,1/2+z
1/2-x,-y,1/2+z
1/2+x,1/2-y,-z
-x,1/2+y,1/2-z
1/2-x,1/2-y,1/2-z
1/2+x,y,1/2-z
1/2-x,1/2+y,z
x,1/2-y,1/2+z
loop_
_atom_site_type_symbol
_atom_site_label
_atom_site_fract_x
_atom_site_fract_y
_atom_site_fract_z
Si Si1 0.418877 0.484395 0.095735
Si Si2 0.782499 0.205039 0.075001
Si Si3 0.200563 0.004214 0.160778
Si Si4 0.020905 0.595192 0.314903
Si Si5 0.092755 0.194162 0.544228
O O1 0.361160 0.455017 0.137788
O O2 0.468124 0.508741 0.154106
O O3 0.412285 0.635894 0.052496
O O4 0.430418 0.365131 0.033763
O O5 0.792645 0.336707 0.129989
O O6 0.745711 0.090208 0.117953
O O7 0.750000 0.251302 0.000000
O O8 0.657133 0.151308 0.950086
O O9 0.207542 0.000000 0.250000
O O10 0.047556 0.500000 0.250000
O O11 0.000000 0.750000 0.287546
O O12 0.060243 0.627766 0.385428
#
# Coordination Sequence:
#
# PCOD9531408 Si02
#       5
#    16  16  16  16  16
#     4  10  21  39  60  86 120 154 202 247 304 362
#     4  11  22  39  61  87 121 162 206 250 299 364
#     4  11  23  38  60  89 122 160 202 255 308 356
#     4  10  22  40  60  87 122 155 195 251 307 362
#     4  10  22  37  61  88 115 157 205 249 295 365
#
# _framework density 19.779205000000001
#
# number of rings (size 3 to 8) (size 9 to 14) (size 15 to 20)
#    0.000    1.600    2.000    2.400    2.800    2.400 
#    0.000    2.000    0.000    0.000    0.000    0.000 
#    0.000    0.000    0.000    0.000    0.000    0.000 
#
# Total GULP energy -223610.585988 kJ/mol
# GULP energy per Si atom -5590.264650 kJ/mol
# Density = 1.973419 g / cm^3
# Si number density = 19.779205 Si / 1000 Ang^3
#
#
#
# Elastic Constant Matrix: (Units=GPa)
#
#
# Indices 1 2 3 4 5 6 
#
# 1 49.0995 -5.0396 -18.2273 0.0000 0.0000 0.0000
# 2 -5.0396 22.1878 20.7452 0.0000 0.0000 0.0000
# 3 -18.2273 20.7452 70.5857 0.0000 0.0000 0.0000
# 4 0.0000 0.0000 0.0000 24.1365 0.0000 0.0000
# 5 0.0000 0.0000 0.0000 0.0000 44.9808 0.0000
# 6 0.0000 0.0000 0.0000 0.0000 0.0000 23.8844
#
#
#
# Elastic Compliance Matrix: (Units=1/GPa)
#
#
# Indices 1 2 3 4 5 6 
#
# 1 0.022529 -0.000444 0.005948 0.000000 0.000000 0.000000
# 2 -0.000444 0.062156 -0.018382 0.000000 0.000000 0.000000
# 3 0.005948 -0.018382 0.021106 0.000000 0.000000 0.000000
# 4 0.000000 0.000000 0.000000 0.041431 0.000000 0.000000
# 5 0.000000 0.000000 0.000000 0.000000 0.022232 0.000000
# 6 0.000000 0.000000 0.000000 0.000000 0.000000 0.041868
#
#
# Mechanical properties :
#
#
# Convention : Reuss Voigt Hill
#
# Bulk Modulus (GPa) = 12.49465 15.20330 13.84898
# Shear Modulus (GPa) = 18.95681 28.22665 23.59173
#
# Velocity S-wave (km/s) = 3.09920 3.78178 3.45737
# Velocity P-wave (km/s) = 4.37464 5.17420 4.79113
#
# Compressibility (1/GPa) = 0.08003424
#
# Stress axis : x y z
#
# Youngs Moduli (GPa) = 44.38645 16.08854 47.38026
#
# Poissons Ratio (x) = 0.00715 -0.28183
# Poissons Ratio (y) = 0.01973 0.87097
# Poissons Ratio (z) = -0.26403 0.29575
#
# Static dielectric constant tensor:
#      x y z
#    x 1.698490 0.000000 0.000000 
#    y 0.000000 1.676420 0.000000 
#    z 0.000000 0.000000 1.653870 
# 
# From -- ./inp_files/19163.got.cif
#   From: 2010.05.17/outbox.cif.g08.bks.cpg/sg73_10_cif.got.tgz:19163.got - 2010.06.03 17:35:07.
