data_PCOD9531250
_publ_section_title
;
Structure prediction by ZEFSAII (Michael W. Deem and Ramdas Pophale) SiO2 
 PCOD9531250
Probable space group: I B C A 
;
_chemical_formula_sum "Si O2"
_cell_formula_units_Z 128
_cell_length_a 11.408935
_cell_length_b 23.350555
_cell_length_c 22.061094
_cell_angle_alpha 90.000000
_cell_angle_beta 90.000000
_cell_angle_gamma 90.000000
_cell_volume 5877.184957
_symmetry_space_group_name_H-M "I B C A "
_symmetry_group_IT_number 73
_symmetry_cell_setting 'orthorhombic'
loop_
_space_group_symop_operation_xyz
x,y,z
-x,1/2-y,z
x,-y,1/2-z
1/2-x,y,-z
-x,-y,-z
x,1/2+y,-z
-x,y,1/2+z
1/2+x,-y,z
1/2+x,1/2+y,1/2+z
1/2-x,-y,1/2+z
1/2+x,1/2-y,-z
-x,1/2+y,1/2-z
1/2-x,1/2-y,1/2-z
1/2+x,y,1/2-z
1/2-x,1/2+y,z
x,1/2-y,1/2+z
loop_
_atom_site_type_symbol
_atom_site_label
_atom_site_fract_x
_atom_site_fract_y
_atom_site_fract_z
Si Si1 0.700034 0.156847 0.567535
Si Si2 0.880977 0.636496 0.332628
Si Si3 0.141894 0.876036 0.101625
Si Si4 0.880166 0.423252 0.631530
Si Si5 0.666023 0.412397 0.229537
Si Si6 0.442397 0.453591 0.613990
Si Si7 0.116711 0.731313 0.523533
Si Si8 0.017627 0.684618 0.714682
O O1 0.750000 0.149312 0.500000
O O2 0.805733 0.163963 0.614283
O O3 0.630991 0.099397 0.586173
O O4 0.623589 0.214859 0.570346
O O5 0.794760 0.590787 0.299473
O O6 0.995148 0.607070 0.360519
O O7 0.919442 0.679028 0.279578
O O8 0.280461 0.885249 0.100606
O O9 0.104122 0.831905 0.049964
O O10 0.075306 0.936872 0.098567
O O11 0.095930 0.847389 0.164198
O O12 0.833947 0.430449 0.700939
O O13 0.900114 0.483367 0.597783
O O14 0.581941 0.449435 0.186262
O O15 0.604993 0.349670 0.222818
O O16 0.250000 0.732465 0.500000
O O17 0.000000 0.750000 0.486058
O O18 0.000000 0.750000 0.698693
#
# Coordination Sequence:
#
# PCOD9531250 Si02
#       8
#    16  16  16  16  16  16  16  16
#     4  10  23  44  70  93 127 174 227 278 340 402
#     4  10  22  40  60  96 133 174 226 274 336 407
#     4  11  23  40  65 100 133 173 227 270 343 413
#     4  11  23  40  62  96 135 175 220 281 329 404
#     4   9  20  39  56  93 128 172 217 266 327 403
#     4  10  22  40  65  90 127 172 224 270 334 392
#     4  11  24  46  74 100 134 178 231 289 346 410
#     4  10  21  36  64  93 136 174 213 272 340 401
#
# _framework density 21.779135
#
# number of rings (size 3 to 8) (size 9 to 14) (size 15 to 20)
#    0.000    1.750    2.500    0.750    7.000    4.500 
#    0.000    1.875    0.000    0.000    0.000    0.000 
#    0.000    0.000    0.000    0.000    0.000    0.000 
#
# Total GULP energy -357160.080327 kJ/mol
# GULP energy per Si atom -5580.626255 kJ/mol
# Density = 2.172956 g / cm^3
# Si number density = 21.779135 Si / 1000 Ang^3
#
#
#
# Elastic Constant Matrix: (Units=GPa)
#
#
# Indices 1 2 3 4 5 6 
#
# 1 131.4443 17.6794 -2.3964 0.0000 0.0000 0.0000
# 2 17.6794 91.4071 -8.6276 0.0000 0.0000 0.0000
# 3 -2.3964 -8.6276 29.8159 0.0000 0.0000 0.0000
# 4 0.0000 0.0000 0.0000 19.8565 0.0000 0.0000
# 5 0.0000 0.0000 0.0000 0.0000 29.4355 0.0000
# 6 0.0000 0.0000 0.0000 0.0000 0.0000 24.3851
#
#
#
# Elastic Compliance Matrix: (Units=1/GPa)
#
#
# Indices 1 2 3 4 5 6 
#
# 1 0.007812 -0.001492 0.000196 0.000000 0.000000 0.000000
# 2 -0.001492 0.011532 0.003217 0.000000 0.000000 0.000000
# 3 0.000196 0.003217 0.034486 0.000000 0.000000 0.000000
# 4 0.000000 0.000000 0.000000 0.050361 0.000000 0.000000
# 5 0.000000 0.000000 0.000000 0.000000 0.033973 0.000000
# 6 0.000000 0.000000 0.000000 0.000000 0.000000 0.041009
#
#
# Mechanical properties :
#
#
# Convention : Reuss Voigt Hill
#
# Bulk Modulus (GPa) = 17.33958 29.55313 23.44635
# Shear Modulus (GPa) = 25.69962 31.13621 28.41791
#
# Velocity S-wave (km/s) = 3.43886 3.78515 3.61615
# Velocity P-wave (km/s) = 4.87304 5.71858 5.31265
#
# Compressibility (1/GPa) = 0.05767153
#
# Stress axis : x y z
#
# Youngs Moduli (GPa) = 128.00662 86.71233 28.99744
#
# Poissons Ratio (x) = 0.12942 -0.00568
# Poissons Ratio (y) = 0.19105 -0.09329
# Poissons Ratio (z) = -0.02509 -0.27896
#
# Static dielectric constant tensor:
#      x y z
#    x 1.863580 0.000000 0.000000 
#    y 0.000000 1.790040 0.000000 
#    z 0.000000 0.000000 1.805610 
# 
# From -- ./inp_files/29150.got.cif
#   From: 2010.05.17/outbox.cif.g08.bks.cpg/sg73_15_cif.got.tgz:29150.got - 2010.06.03 17:35:07.
