data_PCOD9531086
_publ_section_title
;
Structure prediction by ZEFSAII (Michael W. Deem and Ramdas Pophale) SiO2 
 PCOD9531086
Probable space group: I B C A 
;
_chemical_formula_sum "Si O2"
_cell_formula_units_Z 88
_cell_length_a 21.712111
_cell_length_b 21.804901
_cell_length_c 9.294453
_cell_angle_alpha 90.000000
_cell_angle_beta 90.000000
_cell_angle_gamma 90.000000
_cell_volume 4400.276888
_symmetry_space_group_name_H-M "I B C A "
_symmetry_group_IT_number 73
_symmetry_cell_setting 'orthorhombic'
loop_
_space_group_symop_operation_xyz
x,y,z
-x,1/2-y,z
x,-y,1/2-z
1/2-x,y,-z
-x,-y,-z
x,1/2+y,-z
-x,y,1/2+z
1/2+x,-y,z
1/2+x,1/2+y,1/2+z
1/2-x,-y,1/2+z
1/2+x,1/2-y,-z
-x,1/2+y,1/2-z
1/2-x,1/2-y,1/2-z
1/2+x,y,1/2-z
1/2-x,1/2+y,z
x,1/2-y,1/2+z
loop_
_atom_site_type_symbol
_atom_site_label
_atom_site_fract_x
_atom_site_fract_y
_atom_site_fract_z
Si Si1 0.703674 0.535925 0.108219
Si Si2 0.853965 0.745009 0.698648
Si Si3 0.994387 0.500000 0.250000
Si Si4 0.753849 0.166716 0.831723
Si Si5 0.070493 0.927192 0.994524
Si Si6 0.564559 0.217983 0.952615
O O1 0.685327 0.500000 0.250000
O O2 0.742261 0.594962 0.160722
O O3 0.642446 0.558192 0.027916
O O4 0.750000 0.501374 0.000000
O O5 0.819084 0.809600 0.726361
O O6 0.800913 0.696583 0.738716
O O7 0.879980 0.749940 0.539299
O O8 0.913722 0.728337 0.790321
O O9 0.954727 0.457359 0.358320
O O10 0.034874 0.458085 0.141298
O O11 0.750000 0.188175 0.000000
O O12 0.061927 0.853876 0.990808
O O13 0.500000 0.250000 0.980497
#
# Coordination Sequence:
#
# PCOD9531086 Si02
#       6
#    16  16   8  16  16  16
#     4  11  23  44  65  97 133 172 225 283 333 388
#     4  11  22  42  63  94 126 177 214 263 340 389
#     4  10  26  46  74  94 128 192 220 274 340 392
#     4  10  20  42  67  86 130 174 214 271 328 401
#     4  11  24  49  69  97 137 173 232 276 333 406
#     4  12  26  41  66 101 137 173 220 276 330 405
#
# _framework density 19.998742
#
# number of rings (size 3 to 8) (size 9 to 14) (size 15 to 20)
#    0.000    1.091    4.545    1.636    6.364    0.000 
#    3.273    0.000    0.000    0.000    0.000    0.000 
#    0.000    0.000    0.000    0.000    0.000    0.000 
#
# Total GULP energy -245538.238676 kJ/mol
# GULP energy per Si atom -5580.414515 kJ/mol
# Density = 1.995322 g / cm^3
# Si number density = 19.998742 Si / 1000 Ang^3
#
#
#
# Elastic Constant Matrix: (Units=GPa)
#
#
# Indices 1 2 3 4 5 6 
#
# 1 110.8890 33.8305 17.6429 0.0000 0.0000 0.0000
# 2 33.8305 61.4513 38.7885 0.0000 0.0000 0.0000
# 3 17.6429 38.7885 73.3977 0.0000 0.0000 0.0000
# 4 0.0000 0.0000 0.0000 23.9964 0.0000 0.0000
# 5 0.0000 0.0000 0.0000 0.0000 29.7827 0.0000
# 6 0.0000 0.0000 0.0000 0.0000 0.0000 22.5271
#
#
#
# Elastic Compliance Matrix: (Units=1/GPa)
#
#
# Indices 1 2 3 4 5 6 
#
# 1 0.010872 -0.006506 0.000825 0.000000 0.000000 0.000000
# 2 -0.006506 0.028312 -0.013398 0.000000 0.000000 0.000000
# 3 0.000825 -0.013398 0.020507 0.000000 0.000000 0.000000
# 4 0.000000 0.000000 0.000000 0.041673 0.000000 0.000000
# 5 0.000000 0.000000 0.000000 0.000000 0.033577 0.000000
# 6 0.000000 0.000000 0.000000 0.000000 0.000000 0.044391
#
#
# Mechanical properties :
#
#
# Convention : Reuss Voigt Hill
#
# Bulk Modulus (GPa) = 46.44266 47.36241 46.90254
# Shear Modulus (GPa) = 22.25532 25.62631 23.94082
#
# Velocity S-wave (km/s) = 3.33954 3.58354 3.46369
# Velocity P-wave (km/s) = 6.17602 6.39191 6.28489
#
# Compressibility (1/GPa) = 0.02153193
#
# Stress axis : x y z
#
# Youngs Moduli (GPa) = 91.98283 35.32125 48.76477
#
# Poissons Ratio (x) = 0.22979 -0.04022
# Poissons Ratio (y) = 0.59842 0.65335
# Poissons Ratio (z) = -0.07587 0.47323
#
# Static dielectric constant tensor:
#      x y z
#    x 1.694800 0.000000 0.000000 
#    y 0.000000 1.694240 0.000000 
#    z 0.000000 0.000000 1.714860 
# 
# From -- ./inp_files/6289.got.cif
#   From: 2010.05.17/outbox.cif.g08.bks.cpg/sg73_4_cif.got.tgz:6289.got - 2010.06.03 17:35:07.
