data_PCOD9531759
_publ_section_title
;
Structure prediction by ZEFSAII (Michael W. Deem and Ramdas Pophale) SiO2 
 PCOD9531759
Probable space group: I B C A 
;
_chemical_formula_sum "Si O2"
_cell_formula_units_Z 104
_cell_length_a 28.840876
_cell_length_b 8.985307
_cell_length_c 19.164491
_cell_angle_alpha 90.000000
_cell_angle_beta 90.000000
_cell_angle_gamma 90.000000
_cell_volume 4966.365251
_symmetry_space_group_name_H-M "I B C A "
_symmetry_group_IT_number 73
_symmetry_cell_setting 'orthorhombic'
loop_
_space_group_symop_operation_xyz
x,y,z
-x,1/2-y,z
x,-y,1/2-z
1/2-x,y,-z
-x,-y,-z
x,1/2+y,-z
-x,y,1/2+z
1/2+x,-y,z
1/2+x,1/2+y,1/2+z
1/2-x,-y,1/2+z
1/2+x,1/2-y,-z
-x,1/2+y,1/2-z
1/2-x,1/2-y,1/2-z
1/2+x,y,1/2-z
1/2-x,1/2+y,z
x,1/2-y,1/2+z
loop_
_atom_site_type_symbol
_atom_site_label
_atom_site_fract_x
_atom_site_fract_y
_atom_site_fract_z
Si Si1 0.290278 0.759629 0.145471
Si Si2 0.038390 0.373235 0.439097
Si Si3 0.178340 0.000000 0.750000
Si Si4 0.970111 0.400078 0.098270
Si Si5 0.372786 0.531593 0.167814
Si Si6 0.279009 0.058076 0.069242
Si Si7 0.863469 0.303013 0.875526
O O1 0.336786 0.661256 0.147694
O O2 0.248844 0.643700 0.131286
O O3 0.292315 0.868793 0.212665
O O4 0.286613 0.884677 0.085497
O O5 0.047102 0.430128 0.518046
O O6 0.084740 0.322788 0.402479
O O7 0.000000 0.250000 0.451447
O O8 0.010784 0.482877 0.388772
O O9 0.148172 0.089588 0.808747
O O10 0.924418 0.420370 0.144281
O O11 0.000000 0.250000 0.104065
O O12 0.372290 0.500000 0.250000
O O13 0.356964 0.372438 0.136716
O O14 0.328243 0.138228 0.066069
O O15 0.250000 0.075511 0.000000
#
# Coordination Sequence:
#
# PCOD9531759 Si02
#       7
#    16  16   8  16  16  16  16
#     4  11  25  46  71  99 140 181 233 287 351 425
#     4  10  21  45  69 100 138 182 236 284 360 413
#     4  10  24  46  70 102 136 188 238 284 360 422
#     4  10  24  42  69 104 140 183 235 290 351 421
#     4  12  25  47  70 106 144 190 239 289 353 424
#     4  11  26  48  71 107 137 180 237 295 362 424
#     4  11  24  45  74 101 142 187 233 298 347 429
#
# _framework density 20.940867000000001
#
# number of rings (size 3 to 8) (size 9 to 14) (size 15 to 20)
#    0.000    1.231    3.077    1.385    6.462    2.462 
#   13.846    0.769    0.000    0.000    0.000    0.000 
#    0.000    0.000    0.000    0.000    0.000    0.000 
#
# Total GULP energy -290178.571078 kJ/mol
# GULP energy per Si atom -5580.357136 kJ/mol
# Density = 2.089320 g / cm^3
# Si number density = 20.940867 Si / 1000 Ang^3
#
#
#
# Elastic Constant Matrix: (Units=GPa)
#
#
# Indices 1 2 3 4 5 6 
#
# 1 114.3252 63.9339 38.0168 0.0000 0.0000 0.0000
# 2 63.9339 150.4294 29.9299 0.0000 0.0000 0.0000
# 3 38.0168 29.9299 64.2491 0.0000 0.0000 0.0000
# 4 0.0000 0.0000 0.0000 18.1911 0.0000 0.0000
# 5 0.0000 0.0000 0.0000 0.0000 19.8949 0.0000
# 6 0.0000 0.0000 0.0000 0.0000 0.0000 37.5061
#
#
#
# Elastic Compliance Matrix: (Units=1/GPa)
#
#
# Indices 1 2 3 4 5 6 
#
# 1 0.013128 -0.004446 -0.005697 0.000000 0.000000 0.000000
# 2 -0.004446 0.008832 -0.001484 0.000000 0.000000 0.000000
# 3 -0.005697 -0.001484 0.019626 0.000000 0.000000 0.000000
# 4 0.000000 0.000000 0.000000 0.054972 0.000000 0.000000
# 5 0.000000 0.000000 0.000000 0.000000 0.050264 0.000000
# 6 0.000000 0.000000 0.000000 0.000000 0.000000 0.026662
#
#
# Mechanical properties :
#
#
# Convention : Reuss Voigt Hill
#
# Bulk Modulus (GPa) = 54.54444 65.86276 60.20360
# Shear Modulus (GPa) = 24.64893 28.25998 26.45446
#
# Velocity S-wave (km/s) = 3.43457 3.67756 3.55814
# Velocity P-wave (km/s) = 6.46775 7.03936 6.75960
#
# Compressibility (1/GPa) = 0.01833367
#
# Stress axis : x y z
#
# Youngs Moduli (GPa) = 76.17558 113.21935 50.95183
#
# Poissons Ratio (x) = 0.50336 0.29025
# Poissons Ratio (y) = 0.33867 0.07560
# Poissons Ratio (z) = 0.43394 0.16800
#
# Static dielectric constant tensor:
#      x y z
#    x 1.713740 0.000000 0.000000 
#    y 0.000000 1.672640 0.000000 
#    z 0.000000 0.000000 1.829280 
# 
# From -- ./inp_files/27589.got.cif
#   From: 2010.05.17/outbox.cif.g08.bks.cpg/sg73_14_cif.got.tgz:27589.got - 2010.06.03 17:35:07.
