data_PCOD9531767
_publ_section_title
;
Structure prediction by ZEFSAII (Michael W. Deem and Ramdas Pophale) SiO2 
 PCOD9531767
Probable space group: I B C A 
;
_chemical_formula_sum "Si O2"
_cell_formula_units_Z 80
_cell_length_a 15.901955
_cell_length_b 20.068655
_cell_length_c 9.146442
_cell_angle_alpha 90.000000
_cell_angle_beta 90.000000
_cell_angle_gamma 90.000000
_cell_volume 2918.911798
_symmetry_space_group_name_H-M "I B C A "
_symmetry_group_IT_number 73
_symmetry_cell_setting 'orthorhombic'
loop_
_space_group_symop_operation_xyz
x,y,z
-x,1/2-y,z
x,-y,1/2-z
1/2-x,y,-z
-x,-y,-z
x,1/2+y,-z
-x,y,1/2+z
1/2+x,-y,z
1/2+x,1/2+y,1/2+z
1/2-x,-y,1/2+z
1/2+x,1/2-y,-z
-x,1/2+y,1/2-z
1/2-x,1/2-y,1/2-z
1/2+x,y,1/2-z
1/2-x,1/2+y,z
x,1/2-y,1/2+z
loop_
_atom_site_type_symbol
_atom_site_label
_atom_site_fract_x
_atom_site_fract_y
_atom_site_fract_z
Si Si1 0.981338 0.107155 0.894658
Si Si2 0.327153 0.129312 0.385601
Si Si3 0.881857 0.578186 0.375805
Si Si4 0.241871 0.500000 0.250000
Si Si5 0.000000 0.250000 0.414959
Si Si6 0.668531 0.226537 0.398375
O O1 0.911317 0.116657 0.020802
O O2 0.063915 0.081134 0.976640
O O3 0.994519 0.181407 0.829341
O O4 0.944241 0.067618 0.760319
O O5 0.250000 0.131060 0.500000
O O6 0.325843 0.203004 0.310228
O O7 0.311089 0.064923 0.288055
O O8 0.808002 0.524442 0.374260
O O9 0.841497 0.651328 0.341154
O O10 0.916927 0.239542 0.511002
O O11 0.750000 0.225573 0.500000
#
# Coordination Sequence:
#
# PCOD9531767 Si02
#       6
#    16  16  16   8   8  16
#     4  10  22  46  70 103 147 189 242 307 374 439
#     4  10  21  46  70 100 146 193 242 316 373 437
#     4  11  25  46  72 110 145 195 247 305 371 460
#     4  12  26  44  70 102 148 200 254 302 360 472
#     4   8  18  38  70 106 142 184 242 308 364 448
#     4   9  20  42  73 109 143 192 246 318 385 439
#
# _framework density 27.407474000000001
#
# number of rings (size 3 to 8) (size 9 to 14) (size 15 to 20)
#    0.000    2.000    2.000    0.000    0.000    8.000 
#   10.800    0.000    0.000    0.000    0.000    0.000 
#    0.000    0.000    0.000    0.000    0.000    0.000 
#
# Total GULP energy -224177.397155 kJ/mol
# GULP energy per Si atom -5604.434929 kJ/mol
# Density = 2.734509 g / cm^3
# Si number density = 27.407474 Si / 1000 Ang^3
#
#
#
# Elastic Constant Matrix: (Units=GPa)
#
#
# Indices 1 2 3 4 5 6 
#
# 1 146.7480 43.9693 57.9160 0.0000 0.0000 0.0000
# 2 43.9693 223.5962 48.4820 0.0000 0.0000 0.0000
# 3 57.9160 48.4820 92.0765 0.0000 0.0000 0.0000
# 4 0.0000 0.0000 0.0000 11.4101 0.0000 0.0000
# 5 0.0000 0.0000 0.0000 0.0000 63.7015 0.0000
# 6 0.0000 0.0000 0.0000 0.0000 0.0000 33.5309
#
#
#
# Elastic Compliance Matrix: (Units=1/GPa)
#
#
# Indices 1 2 3 4 5 6 
#
# 1 0.009141 -0.000622 -0.005422 0.000000 0.000000 0.000000
# 2 -0.000622 0.005091 -0.002290 0.000000 0.000000 0.000000
# 3 -0.005422 -0.002290 0.015476 0.000000 0.000000 0.000000
# 4 0.000000 0.000000 0.000000 0.087641 0.000000 0.000000
# 5 0.000000 0.000000 0.000000 0.000000 0.015698 0.000000
# 6 0.000000 0.000000 0.000000 0.000000 0.000000 0.029823
#
#
# Mechanical properties :
#
#
# Convention : Reuss Voigt Hill
#
# Bulk Modulus (GPa) = 76.67865 84.79505 80.73685
# Shear Modulus (GPa) = 27.19092 42.53207 34.86150
#
# Velocity S-wave (km/s) = 3.15318 3.94362 3.57034
# Velocity P-wave (km/s) = 6.42610 7.19319 6.82044
#
# Compressibility (1/GPa) = 0.01304144
#
# Stress axis : x y z
#
# Youngs Moduli (GPa) = 109.40230 196.42276 64.61412
#
# Poissons Ratio (x) = 0.12214 0.35034
# Poissons Ratio (y) = 0.06803 0.14794
# Poissons Ratio (z) = 0.59318 0.44972
#
# Static dielectric constant tensor:
#      x y z
#    x 2.131290 0.000000 0.000000 
#    y 0.000000 2.165080 0.000000 
#    z 0.000000 0.000000 2.124870 
# 
# From -- ./inp_files/17901.got.cif
#   From: 2010.05.17/outbox.cif.g08.bks.cpg/sg73_9_cif.got.tgz:17901.got - 2010.06.03 17:35:07.
