data_PCOD9531876
_publ_section_title
;
Structure prediction by ZEFSAII (Michael W. Deem and Ramdas Pophale) SiO2 
 PCOD9531876
Probable space group: I B C A 
;
_chemical_formula_sum "Si O2"
_cell_formula_units_Z 120
_cell_length_a 17.755007
_cell_length_b 17.821213
_cell_length_c 16.885062
_cell_angle_alpha 90.000000
_cell_angle_beta 90.000000
_cell_angle_gamma 90.000000
_cell_volume 5342.699752
_symmetry_space_group_name_H-M "I B C A "
_symmetry_group_IT_number 73
_symmetry_cell_setting 'orthorhombic'
loop_
_space_group_symop_operation_xyz
x,y,z
-x,1/2-y,z
x,-y,1/2-z
1/2-x,y,-z
-x,-y,-z
x,1/2+y,-z
-x,y,1/2+z
1/2+x,-y,z
1/2+x,1/2+y,1/2+z
1/2-x,-y,1/2+z
1/2+x,1/2-y,-z
-x,1/2+y,1/2-z
1/2-x,1/2-y,1/2-z
1/2+x,y,1/2-z
1/2-x,1/2+y,z
x,1/2-y,1/2+z
loop_
_atom_site_type_symbol
_atom_site_label
_atom_site_fract_x
_atom_site_fract_y
_atom_site_fract_z
Si Si1 0.696097 0.312048 0.430446
Si Si2 0.461278 0.835951 0.743195
Si Si3 0.250000 0.949194 0.500000
Si Si4 0.803789 0.707216 0.189460
Si Si5 0.847268 0.153614 0.416177
Si Si6 0.570602 0.799445 0.074130
Si Si7 0.602764 0.051397 0.991396
Si Si8 0.520276 0.946899 0.869964
O O1 0.750000 0.280679 0.500000
O O2 0.749964 0.345530 0.363264
O O3 0.638972 0.252047 0.394200
O O4 0.642548 0.371776 0.469995
O O5 0.500000 0.750000 0.757478
O O6 0.375620 0.828372 0.771419
O O7 0.460863 0.845179 0.648326
O O8 0.487886 0.913052 0.786779
O O9 0.228831 0.893209 0.571500
O O10 0.326055 0.997201 0.511825
O O11 0.750000 0.750000 0.250000
O O12 0.833868 0.769177 0.127652
O O13 0.890445 0.161212 0.500186
O O14 0.906619 0.106066 0.368363
O O15 0.500000 0.750000 0.044622
O O16 0.558791 0.019998 0.913379
O O17 0.546109 0.064818 0.064621
#
# Coordination Sequence:
#
# PCOD9531876 Si02
#       8
#    16  16   8  16  16  16  16  16
#     4  12  21  38  63  96 135 171 223 283 342 418
#     4  11  23  41  63  99 138 173 214 281 354 408
#     4  10  22  38  62  90 130 172 230 288 322 408
#     4  12  24  38  65 102 135 170 213 277 366 412
#     4  11  22  40  66  95 133 172 223 279 349 413
#     4  11  24  38  64 100 132 168 221 278 347 425
#     4  10  22  40  65  99 126 180 242 276 331 410
#     4  10  22  41  68  94 130 179 226 280 333 409
#
# _framework density 22.460554999999999
#
# number of rings (size 3 to 8) (size 9 to 14) (size 15 to 20)
#    0.000    1.067    4.667    2.400    1.867    0.000 
#    0.000    0.000    0.000   37.600    0.000    0.000 
#    0.000    0.000    0.000    0.000    0.000    0.000 
#
# Total GULP energy -334209.733985 kJ/mol
# GULP energy per Si atom -5570.162233 kJ/mol
# Density = 2.240943 g / cm^3
# Si number density = 22.460555 Si / 1000 Ang^3
#
#
#
# Elastic Constant Matrix: (Units=GPa)
#
#
# Indices 1 2 3 4 5 6 
#
# 1 125.4192 21.0291 21.7639 0.0000 0.0000 0.0000
# 2 21.0291 42.2413 18.9302 0.0000 0.0000 0.0000
# 3 21.7639 18.9302 72.8399 0.0000 0.0000 0.0000
# 4 0.0000 0.0000 0.0000 8.5793 0.0000 0.0000
# 5 0.0000 0.0000 0.0000 0.0000 37.1345 0.0000
# 6 0.0000 0.0000 0.0000 0.0000 0.0000 25.7103
#
#
#
# Elastic Compliance Matrix: (Units=1/GPa)
#
#
# Indices 1 2 3 4 5 6 
#
# 1 0.008882 -0.003659 -0.001703 0.000000 0.000000 0.000000
# 2 -0.003659 0.028301 -0.006262 0.000000 0.000000 0.000000
# 3 -0.001703 -0.006262 0.015865 0.000000 0.000000 0.000000
# 4 0.000000 0.000000 0.000000 0.116559 0.000000 0.000000
# 5 0.000000 0.000000 0.000000 0.000000 0.026929 0.000000
# 6 0.000000 0.000000 0.000000 0.000000 0.000000 0.038895
#
#
# Mechanical properties :
#
#
# Convention : Reuss Voigt Hill
#
# Bulk Modulus (GPa) = 33.55590 40.43854 36.99722
# Shear Modulus (GPa) = 18.61417 26.20331 22.40874
#
# Velocity S-wave (km/s) = 2.88192 3.41931 3.16205
# Velocity P-wave (km/s) = 5.10356 5.79933 5.46254
#
# Compressibility (1/GPa) = 0.02980102
#
# Stress axis : x y z
#
# Youngs Moduli (GPa) = 112.58414 35.33427 63.03173
#
# Poissons Ratio (x) = 0.12928 0.10735
# Poissons Ratio (y) = 0.41190 0.39470
# Poissons Ratio (z) = 0.19174 0.22126
#
# Static dielectric constant tensor:
#      x y z
#    x 1.871860 0.000000 0.000000 
#    y 0.000000 1.870870 0.000000 
#    z 0.000000 0.000000 2.170720 
# 
# From -- ./inp_files/22664.got.cif
#   From: 2010.05.17/outbox.cif.g08.bks.cpg/sg73_12_cif.got.tgz:22664.got - 2010.06.03 17:35:07.
