data_PCOD9531360
_publ_section_title
;
Structure prediction by ZEFSAII (Michael W. Deem and Ramdas Pophale) SiO2 
 PCOD9531360
Probable space group: I B C A 
;
_chemical_formula_sum "Si O2"
_cell_formula_units_Z 88
_cell_length_a 13.190447
_cell_length_b 15.021261
_cell_length_c 21.830508
_cell_angle_alpha 90.000000
_cell_angle_beta 90.000000
_cell_angle_gamma 90.000000
_cell_volume 4325.434575
_symmetry_space_group_name_H-M "I B C A "
_symmetry_group_IT_number 73
_symmetry_cell_setting 'orthorhombic'
loop_
_space_group_symop_operation_xyz
x,y,z
-x,1/2-y,z
x,-y,1/2-z
1/2-x,y,-z
-x,-y,-z
x,1/2+y,-z
-x,y,1/2+z
1/2+x,-y,z
1/2+x,1/2+y,1/2+z
1/2-x,-y,1/2+z
1/2+x,1/2-y,-z
-x,1/2+y,1/2-z
1/2-x,1/2-y,1/2-z
1/2+x,y,1/2-z
1/2-x,1/2+y,z
x,1/2-y,1/2+z
loop_
_atom_site_type_symbol
_atom_site_label
_atom_site_fract_x
_atom_site_fract_y
_atom_site_fract_z
Si Si1 0.952371 0.387664 0.042473
Si Si2 0.500000 0.250000 0.851845
Si Si3 0.243762 0.121886 0.104217
Si Si4 0.021839 0.420612 0.413540
Si Si5 0.213788 0.791246 0.813216
Si Si6 0.853231 0.537151 0.182721
O O1 0.829548 0.388560 0.044813
O O2 0.003345 0.480155 0.061420
O O3 0.973000 0.326222 0.100201
O O4 0.995546 0.362297 0.975629
O O5 0.592217 0.212119 0.812851
O O6 0.360975 0.095063 0.100972
O O7 0.241037 0.222121 0.131934
O O8 0.190457 0.050236 0.149204
O O9 0.945622 0.417868 0.355912
O O10 0.250000 0.750000 0.750000
O O11 0.265457 0.887592 0.817600
O O12 0.882227 0.500000 0.250000
#
# Coordination Sequence:
#
# PCOD9531360 Si02
#       6
#    16   8  16  16  16  16
#     4   9  20  39  61  91 120 162 209 257 318 382
#     4  10  22  40  66  86 128 164 204 266 332 364
#     4  10  21  39  61  90 123 162 210 260 313 374
#     4  10  21  38  63  88 125 165 208 258 319 373
#     4  11  23  41  61  91 123 164 209 252 313 388
#     4  11  23  40  59  91 130 162 215 260 314 378
#
# _framework density 20.344776
#
# number of rings (size 3 to 8) (size 9 to 14) (size 15 to 20)
#    0.000    1.818    1.818    1.636    0.000    4.364 
#    0.000    4.545    0.000    0.000    0.000    0.000 
#    0.000    0.000    0.000    0.000    0.000    0.000 
#
# Total GULP energy -244951.098958 kJ/mol
# GULP energy per Si atom -5567.070431 kJ/mol
# Density = 2.029847 g / cm^3
# Si number density = 20.344776 Si / 1000 Ang^3
#
#
#
# Elastic Constant Matrix: (Units=GPa)
#
#
# Indices 1 2 3 4 5 6 
#
# 1 133.7653 14.7555 47.2271 0.0000 0.0000 0.0000
# 2 14.7555 80.4632 13.9139 0.0000 0.0000 0.0000
# 3 47.2271 13.9139 97.0621 0.0000 0.0000 0.0000
# 4 0.0000 0.0000 0.0000 -35.3206 0.0000 0.0000
# 5 0.0000 0.0000 0.0000 0.0000 39.5044 0.0000
# 6 0.0000 0.0000 0.0000 0.0000 0.0000 22.0776
#
#
#
# Elastic Compliance Matrix: (Units=1/GPa)
#
#
# Indices 1 2 3 4 5 6 
#
# 1 0.009093 -0.000925 -0.004292 0.000000 0.000000 0.000000
# 2 -0.000925 0.012838 -0.001390 0.000000 0.000000 0.000000
# 3 -0.004292 -0.001390 0.012590 0.000000 0.000000 0.000000
# 4 0.000000 0.000000 0.000000 -0.028312 0.000000 0.000000
# 5 0.000000 0.000000 0.000000 0.000000 0.025314 0.000000
# 6 0.000000 0.000000 0.000000 0.000000 0.000000 0.045295
#
#
# Mechanical properties :
#
#
# Convention : Reuss Voigt Hill
#
# Bulk Modulus (GPa) = 46.93301 51.45374 49.19338
# Shear Modulus (GPa) = 51.47503 20.94522 36.21013
#
# Velocity S-wave (km/s) = 5.03550 3.21208 4.22337
# Velocity P-wave (km/s) = 7.54502 6.25319 6.92928
#
# Compressibility (1/GPa) = 0.02130696
#
# Stress axis : x y z
#
# Youngs Moduli (GPa) = 109.97363 77.89308 79.42712
#
# Poissons Ratio (x) = 0.07208 0.34088
# Poissons Ratio (y) = 0.10177 0.11041
# Poissons Ratio (z) = 0.47198 0.10828
#
# Static dielectric constant tensor:
#      x y z
#    x 1.808870 0.000000 0.000000 
#    y 0.000000 1.718500 0.000000 
#    z 0.000000 0.000000 1.780030 
# 
# From -- ./inp_files/21263.got.cif
#   From: 2010.05.17/outbox.cif.g08.bks.cpg/sg73_11_cif.got.tgz:21263.got - 2010.06.03 17:35:07.
