data_PCOD9531799
_publ_section_title
;
Structure prediction by ZEFSAII (Michael W. Deem and Ramdas Pophale) SiO2 
 PCOD9531799
Probable space group: I B C A 
;
_chemical_formula_sum "Si O2"
_cell_formula_units_Z 120
_cell_length_a 23.292094
_cell_length_b 22.625946
_cell_length_c 11.986627
_cell_angle_alpha 90.000000
_cell_angle_beta 90.000000
_cell_angle_gamma 90.000000
_cell_volume 6317.020286
_symmetry_space_group_name_H-M "I B C A "
_symmetry_group_IT_number 73
_symmetry_cell_setting 'orthorhombic'
loop_
_space_group_symop_operation_xyz
x,y,z
-x,1/2-y,z
x,-y,1/2-z
1/2-x,y,-z
-x,-y,-z
x,1/2+y,-z
-x,y,1/2+z
1/2+x,-y,z
1/2+x,1/2+y,1/2+z
1/2-x,-y,1/2+z
1/2+x,1/2-y,-z
-x,1/2+y,1/2-z
1/2-x,1/2-y,1/2-z
1/2+x,y,1/2-z
1/2-x,1/2+y,z
x,1/2-y,1/2+z
loop_
_atom_site_type_symbol
_atom_site_label
_atom_site_fract_x
_atom_site_fract_y
_atom_site_fract_z
Si Si1 0.950597 0.173783 0.664595
Si Si2 0.584339 0.309022 0.376769
Si Si3 0.708177 0.926901 0.247579
Si Si4 0.636756 0.097037 0.470838
Si Si5 0.896928 0.000000 0.250000
Si Si6 0.332212 0.119665 0.211325
Si Si7 0.436162 0.018254 0.480830
Si Si8 0.606332 0.369164 0.608355
O O1 0.926130 0.239391 0.641238
O O2 0.917005 0.132156 0.579292
O O3 0.931218 0.156746 0.790022
O O4 0.018899 0.167967 0.644580
O O5 0.629082 0.337163 0.287592
O O6 0.607360 0.324778 0.501648
O O7 0.683147 0.911104 0.126030
O O8 0.768372 0.892153 0.256264
O O9 0.664658 0.896926 0.337574
O O10 0.712287 0.000000 0.250000
O O11 0.662112 0.130933 0.578580
O O12 0.610654 0.032097 0.493769
O O13 0.858426 0.054276 0.284755
O O14 0.932783 0.027415 0.150729
O O15 0.423574 0.074354 0.554513
O O16 0.500000 0.000000 0.500000
#
# Coordination Sequence:
#
# PCOD9531799 Si02
#       8
#    16  16  16  16   8  16  16  16
#     4  10  26  43  69  91 137 172 222 279 332 403
#     4  11  25  44  66 101 125 178 225 278 332 394
#     4  11  22  43  65  96 134 175 218 271 337 411
#     4  10  23  41  63  95 126 176 214 267 338 401
#     4  10  22  36  52  98 122 166 206 258 328 390
#     4  11  23  40  67  92 128 169 225 269 324 402
#     4  11  22  35  61  95 137 165 207 274 336 413
#     4  11  24  42  66  99 132 177 223 270 343 400
#
# _framework density 18.996296999999998
#
# number of rings (size 3 to 8) (size 9 to 14) (size 15 to 20)
#    0.000    1.333    3.333    1.200    7.467    2.667 
#    2.400    2.667    5.867    0.000    0.000    0.000 
#    0.000    0.000    0.000    0.000    0.000    0.000 
#
# Total GULP energy -334306.123855 kJ/mol
# GULP energy per Si atom -5571.768731 kJ/mol
# Density = 1.895306 g / cm^3
# Si number density = 18.996297 Si / 1000 Ang^3
#
#
#
# Elastic Constant Matrix: (Units=GPa)
#
#
# Indices 1 2 3 4 5 6 
#
# 1 98.0914 22.5365 55.8336 0.0000 0.0000 0.0000
# 2 22.5365 79.4145 44.1028 0.0000 0.0000 0.0000
# 3 55.8336 44.1028 146.5251 0.0000 0.0000 0.0000
# 4 0.0000 0.0000 0.0000 25.4812 0.0000 0.0000
# 5 0.0000 0.0000 0.0000 0.0000 25.3899 0.0000
# 6 0.0000 0.0000 0.0000 0.0000 0.0000 -84.0191
#
#
#
# Elastic Compliance Matrix: (Units=1/GPa)
#
#
# Indices 1 2 3 4 5 6 
#
# 1 0.013103 -0.001135 -0.004651 0.000000 0.000000 0.000000
# 2 -0.001135 0.015218 -0.004148 0.000000 0.000000 0.000000
# 3 -0.004651 -0.004148 0.009846 0.000000 0.000000 0.000000
# 4 0.000000 0.000000 0.000000 0.039245 0.000000 0.000000
# 5 0.000000 0.000000 0.000000 0.000000 0.039386 0.000000
# 6 0.000000 0.000000 0.000000 0.000000 0.000000 -0.011902
#
#
# Mechanical properties :
#
#
# Convention : Reuss Voigt Hill
#
# Bulk Modulus (GPa) = 54.65191 63.21967 58.93579
# Shear Modulus (GPa) = 38.20811 6.80761 22.50786
#
# Velocity S-wave (km/s) = 4.48967 1.89511 3.44591
# Velocity P-wave (km/s) = 7.46381 6.17583 6.85015
#
# Compressibility (1/GPa) = 0.01829762
#
# Stress axis : x y z
#
# Youngs Moduli (GPa) = 76.31928 65.71237 101.56880
#
# Poissons Ratio (x) = 0.07461 0.47241
# Poissons Ratio (y) = 0.08665 0.42129
# Poissons Ratio (z) = 0.35497 0.27256
#
# Static dielectric constant tensor:
#      x y z
#    x 1.632250 0.000000 0.000000 
#    y 0.000000 1.664310 0.000000 
#    z 0.000000 0.000000 1.538130 
# 
# From -- ./inp_files/13859.got.cif
#   From: 2010.05.17/outbox.cif.g08.bks.cpg/sg73_7_cif.got.tgz:13859.got - 2010.06.03 17:35:07.
