data_PCOD9531661
_publ_section_title
;
Structure prediction by ZEFSAII (Michael W. Deem and Ramdas Pophale) SiO2 
 PCOD9531661
Probable space group: I B C A 
;
_chemical_formula_sum "Si O2"
_cell_formula_units_Z 72
_cell_length_a 12.070497
_cell_length_b 14.408541
_cell_length_c 18.028480
_cell_angle_alpha 90.000000
_cell_angle_beta 90.000000
_cell_angle_gamma 90.000000
_cell_volume 3135.481708
_symmetry_space_group_name_H-M "I B C A "
_symmetry_group_IT_number 73
_symmetry_cell_setting 'orthorhombic'
loop_
_space_group_symop_operation_xyz
x,y,z
-x,1/2-y,z
x,-y,1/2-z
1/2-x,y,-z
-x,-y,-z
x,1/2+y,-z
-x,y,1/2+z
1/2+x,-y,z
1/2+x,1/2+y,1/2+z
1/2-x,-y,1/2+z
1/2+x,1/2-y,-z
-x,1/2+y,1/2-z
1/2-x,1/2-y,1/2-z
1/2+x,y,1/2-z
1/2-x,1/2+y,z
x,1/2-y,1/2+z
loop_
_atom_site_type_symbol
_atom_site_label
_atom_site_fract_x
_atom_site_fract_y
_atom_site_fract_z
Si Si1 0.135737 0.000000 0.750000
Si Si2 0.544623 0.642947 0.536008
Si Si3 0.303096 0.368807 0.171783
Si Si4 0.017462 0.452112 0.393982
Si Si5 0.626681 0.211384 0.328780
O O1 0.216525 0.054513 0.696466
O O2 0.061100 0.053090 0.809866
O O3 0.500000 0.750000 0.530340
O O4 0.472509 0.556203 0.570337
O O5 0.576848 0.612605 0.454010
O O6 0.633764 0.643437 0.601507
O O7 0.392787 0.409306 0.114681
O O8 0.356510 0.334671 0.249405
O O9 0.221547 0.284885 0.151683
O O10 0.500000 0.250000 0.326393
#
# Coordination Sequence:
#
# PCOD9531661 Si02
#       5
#     8  16  16  16  16
#     4  12  22  40  66  94 130 170 226 288 336 410
#     4  10  22  44  67  93 136 178 217 282 353 413
#     4  11  23  39  68 100 130 182 236 279 343 414
#     4  11  24  43  68  98 136 179 227 288 355 418
#     4  10  21  42  67  97 137 177 228 290 340 404
#
# _framework density 22.962976999999999
#
# number of rings (size 3 to 8) (size 9 to 14) (size 15 to 20)
#    0.000    1.333    0.000    7.333    0.000    4.444 
#    0.000   31.111    0.000    0.000    0.000    0.000 
#    0.000    0.000    0.000    0.000    0.000    0.000 
#
# Total GULP energy -200436.830424 kJ/mol
# GULP energy per Si atom -5567.689734 kJ/mol
# Density = 2.291071 g / cm^3
# Si number density = 22.962977 Si / 1000 Ang^3
#
#
#
# Elastic Constant Matrix: (Units=GPa)
#
#
# Indices 1 2 3 4 5 6 
#
# 1 82.0837 21.2637 30.1053 0.0000 0.0000 0.0000
# 2 21.2637 83.7266 2.1261 0.0000 0.0000 0.0000
# 3 30.1053 2.1261 54.4363 0.0000 0.0000 0.0000
# 4 0.0000 0.0000 0.0000 42.9726 0.0000 0.0000
# 5 0.0000 0.0000 0.0000 0.0000 169.9659 0.0000
# 6 0.0000 0.0000 0.0000 0.0000 0.0000 21.8009
#
#
#
# Elastic Compliance Matrix: (Units=1/GPa)
#
#
# Indices 1 2 3 4 5 6 
#
# 1 0.016499 -0.003962 -0.008970 0.000000 0.000000 0.000000
# 2 -0.003962 0.012907 0.001687 0.000000 0.000000 0.000000
# 3 -0.008970 0.001687 0.023265 0.000000 0.000000 0.000000
# 4 0.000000 0.000000 0.000000 0.023271 0.000000 0.000000
# 5 0.000000 0.000000 0.000000 0.000000 0.005884 0.000000
# 6 0.000000 0.000000 0.000000 0.000000 0.000000 0.045870
#
#
# Mechanical properties :
#
#
# Convention : Reuss Voigt Hill
#
# Bulk Modulus (GPa) = 33.13344 36.35966 34.74655
# Shear Modulus (GPa) = 31.20225 58.06465 44.63345
#
# Velocity S-wave (km/s) = 3.69020 5.03399 4.41354
# Velocity P-wave (km/s) = 5.71114 7.04674 6.41380
#
# Compressibility (1/GPa) = 0.03018099
#
# Stress axis : x y z
#
# Youngs Moduli (GPa) = 60.61003 77.47675 42.98341
#
# Poissons Ratio (x) = 0.30699 0.38555
# Poissons Ratio (y) = 0.24016 -0.07252
# Poissons Ratio (z) = 0.54366 -0.13072
#
# Static dielectric constant tensor:
#      x y z
#    x 1.919170 0.000000 0.000000 
#    y 0.000000 0.280440 0.000000 
#    z 0.000000 0.000000 1.935230 
# 
# From -- ./inp_files/25254.got.cif
#   From: 2010.05.17/outbox.cif.g08.bks.cpg/sg73_13_cif.got.tgz:25254.got - 2010.06.03 17:35:07.
