data_PCOD9531864
_publ_section_title
;
Structure prediction by ZEFSAII (Michael W. Deem and Ramdas Pophale) SiO2 
 PCOD9531864
Probable space group: I B C A 
;
_chemical_formula_sum "Si O2"
_cell_formula_units_Z 80
_cell_length_a 8.952814
_cell_length_b 18.563642
_cell_length_c 19.976041
_cell_angle_alpha 90.000000
_cell_angle_beta 90.000000
_cell_angle_gamma 90.000000
_cell_volume 3319.954770
_symmetry_space_group_name_H-M "I B C A "
_symmetry_group_IT_number 73
_symmetry_cell_setting 'orthorhombic'
loop_
_space_group_symop_operation_xyz
x,y,z
-x,1/2-y,z
x,-y,1/2-z
1/2-x,y,-z
-x,-y,-z
x,1/2+y,-z
-x,y,1/2+z
1/2+x,-y,z
1/2+x,1/2+y,1/2+z
1/2-x,-y,1/2+z
1/2+x,1/2-y,-z
-x,1/2+y,1/2-z
1/2-x,1/2-y,1/2-z
1/2+x,y,1/2-z
1/2-x,1/2+y,z
x,1/2-y,1/2+z
loop_
_atom_site_type_symbol
_atom_site_label
_atom_site_fract_x
_atom_site_fract_y
_atom_site_fract_z
Si Si1 0.000000 0.750000 0.808526
Si Si2 0.723233 0.362588 0.865442
Si Si3 0.026014 0.536750 0.394887
Si Si4 0.250000 0.397838 0.000000
Si Si5 0.952288 0.632333 0.113280
Si Si6 0.798827 0.878011 0.280312
O O1 0.113053 0.703349 0.852449
O O2 0.101413 0.806834 0.769645
O O3 0.627405 0.419515 0.907363
O O4 0.883285 0.335231 0.889310
O O5 0.753040 0.402008 0.793514
O O6 0.140897 0.554652 0.453940
O O7 0.987575 0.453582 0.388609
O O8 0.104660 0.568500 0.327200
O O9 0.149028 0.351300 0.950405
O O10 0.848920 0.642967 0.178145
#
# Coordination Sequence:
#
# PCOD9531864 Si02
#       6
#     8  16  16   8  16  16
#     4  10  22  40  58  86 122 160 204 238 284 360
#     4  11  22  37  62  91 120 157 195 245 299 349
#     4  10  22  38  60  91 124 156 192 240 297 355
#     4  10  22  40  58  86 122 160 204 238 284 360
#     4  11  22  37  62  91 120 157 195 245 299 349
#     4  10  22  38  60  91 124 156 192 240 297 355
#
# _framework density 24.096713999999999
#
# number of rings (size 3 to 8) (size 9 to 14) (size 15 to 20)
#    0.000    1.600    0.000    6.000    0.000    6.400 
#    0.000    0.000    0.000   64.800    0.000    2.800 
#    0.000    0.000    0.000    0.000    0.000    0.000 
#
# Total GULP energy -223976.279924 kJ/mol
# GULP energy per Si atom -5599.406998 kJ/mol
# Density = 2.404187 g / cm^3
# Si number density = 24.096714 Si / 1000 Ang^3
#
#
#
# Elastic Constant Matrix: (Units=GPa)
#
#
# Indices 1 2 3 4 5 6 
#
# 1 202.2440 12.9558 54.0149 0.0000 0.0000 0.0000
# 2 12.9558 30.8636 7.7695 0.0000 0.0000 0.0000
# 3 54.0149 7.7695 95.0780 0.0000 0.0000 0.0000
# 4 0.0000 0.0000 0.0000 5.1068 0.0000 0.0000
# 5 0.0000 0.0000 0.0000 0.0000 50.5515 0.0000
# 6 0.0000 0.0000 0.0000 0.0000 0.0000 42.8585
#
#
#
# Elastic Compliance Matrix: (Units=1/GPa)
#
#
# Indices 1 2 3 4 5 6 
#
# 1 0.005912 -0.001671 -0.003222 0.000000 0.000000 0.000000
# 2 -0.001671 0.033553 -0.001793 0.000000 0.000000 0.000000
# 3 -0.003222 -0.001793 0.012495 0.000000 0.000000 0.000000
# 4 0.000000 0.000000 0.000000 0.195818 0.000000 0.000000
# 5 0.000000 0.000000 0.000000 0.000000 0.019782 0.000000
# 6 0.000000 0.000000 0.000000 0.000000 0.000000 0.023333
#
#
# Mechanical properties :
#
#
# Convention : Reuss Voigt Hill
#
# Bulk Modulus (GPa) = 25.91423 53.07401 39.49412
# Shear Modulus (GPa) = 15.76656 36.59972 26.18314
#
# Velocity S-wave (km/s) = 2.56071 3.90149 3.29992
# Velocity P-wave (km/s) = 4.41821 6.50913 5.56279
#
# Compressibility (1/GPa) = 0.03858884
#
# Stress axis : x y z
#
# Youngs Moduli (GPa) = 169.14378 29.80343 80.03351
#
# Poissons Ratio (x) = 0.04979 0.25789
# Poissons Ratio (y) = 0.28257 0.14348
# Poissons Ratio (z) = 0.54502 0.05343
#
# Static dielectric constant tensor:
#      x y z
#    x 1.956890 0.000000 0.000000 
#    y 0.000000 1.921740 0.000000 
#    z 0.000000 0.000000 1.920290 
# 
# From -- ./inp_files/28297.got.cif
#   From: 2010.05.17/outbox.cif.g08.bks.cpg/sg73_15_cif.got.tgz:28297.got - 2010.06.03 17:35:07.
