data_PCOD9531871
_publ_section_title
;
Structure prediction by ZEFSAII (Michael W. Deem and Ramdas Pophale) SiO2 
 PCOD9531871
Probable space group: I B C A 
;
_chemical_formula_sum "Si O2"
_cell_formula_units_Z 112
_cell_length_a 13.511312
_cell_length_b 12.712836
_cell_length_c 27.792390
_cell_angle_alpha 90.000000
_cell_angle_beta 90.000000
_cell_angle_gamma 90.000000
_cell_volume 4773.818055
_symmetry_space_group_name_H-M "I B C A "
_symmetry_group_IT_number 73
_symmetry_cell_setting 'orthorhombic'
loop_
_space_group_symop_operation_xyz
x,y,z
-x,1/2-y,z
x,-y,1/2-z
1/2-x,y,-z
-x,-y,-z
x,1/2+y,-z
-x,y,1/2+z
1/2+x,-y,z
1/2+x,1/2+y,1/2+z
1/2-x,-y,1/2+z
1/2+x,1/2-y,-z
-x,1/2+y,1/2-z
1/2-x,1/2-y,1/2-z
1/2+x,y,1/2-z
1/2-x,1/2+y,z
x,1/2-y,1/2+z
loop_
_atom_site_type_symbol
_atom_site_label
_atom_site_fract_x
_atom_site_fract_y
_atom_site_fract_z
Si Si1 0.271627 0.198734 0.445268
Si Si2 0.634964 0.166590 0.622343
Si Si3 0.889808 0.792314 0.799322
Si Si4 0.169781 0.967222 0.366136
Si Si5 0.111133 0.910280 0.465087
Si Si6 0.904014 0.985988 0.437583
Si Si7 0.683965 0.673983 0.805132
O O1 0.250000 0.164745 0.500000
O O2 0.179009 0.249005 0.416381
O O3 0.346067 0.297064 0.452312
O O4 0.328418 0.102984 0.419438
O O5 0.724494 0.089119 0.635788
O O6 0.618020 0.234161 0.669949
O O7 0.562758 0.080179 0.598522
O O8 0.898391 0.877090 0.842209
O O9 0.799756 0.709913 0.810081
O O10 0.847859 0.841422 0.749818
O O11 0.000000 0.750000 0.791513
O O12 0.146832 0.984632 0.421939
O O13 0.166237 0.069192 0.334369
O O14 0.993385 0.919616 0.460374
O O15 0.141309 0.947971 0.517854
#
# Coordination Sequence:
#
# PCOD9531871 Si02
#       7
#    16  16  16  16  16  16  16
#     4  11  22  36  62  84 121 169 213 259 308 381
#     4  10  22  38  61  94 124 168 216 260 319 384
#     4  10  23  44  70  96 133 170 219 279 345 413
#     4  10  22  39  65  94 128 169 219 272 332 402
#     4  10  24  40  57  92 126 163 220 261 321 385
#     4  11  23  39  59  88 130 170 212 269 319 380
#     4  10  22  43  67 100 131 168 223 279 336 411
#
# _framework density 23.461306
#
# number of rings (size 3 to 8) (size 9 to 14) (size 15 to 20)
#    0.000    1.714    1.429    1.714    6.000    5.714 
#    0.000    7.143    0.000    0.000    0.000    0.000 
#    0.000    0.000    0.000    0.000    0.000    0.000 
#
# Total GULP energy -312849.654448 kJ/mol
# GULP energy per Si atom -5586.600972 kJ/mol
# Density = 2.340791 g / cm^3
# Si number density = 23.461306 Si / 1000 Ang^3
#
#
#
# Elastic Constant Matrix: (Units=GPa)
#
#
# Indices 1 2 3 4 5 6 
#
# 1 71.4981 13.0052 -13.3490 0.0000 0.0000 0.0000
# 2 13.0052 70.0700 -3.4165 0.0000 0.0000 0.0000
# 3 -13.3490 -3.4165 70.5182 0.0000 0.0000 0.0000
# 4 0.0000 0.0000 0.0000 29.5938 0.0000 0.0000
# 5 0.0000 0.0000 0.0000 0.0000 15.5218 0.0000
# 6 0.0000 0.0000 0.0000 0.0000 0.0000 18.7791
#
#
#
# Elastic Compliance Matrix: (Units=1/GPa)
#
#
# Indices 1 2 3 4 5 6 
#
# 1 0.014973 -0.002647 0.002706 0.000000 0.000000 0.000000
# 2 -0.002647 0.014773 0.000215 0.000000 0.000000 0.000000
# 3 0.002706 0.000215 0.014703 0.000000 0.000000 0.000000
# 4 0.000000 0.000000 0.000000 0.033791 0.000000 0.000000
# 5 0.000000 0.000000 0.000000 0.000000 0.064425 0.000000
# 6 0.000000 0.000000 0.000000 0.000000 0.000000 0.053251
#
#
# Mechanical properties :
#
#
# Convention : Reuss Voigt Hill
#
# Bulk Modulus (GPa) = 22.22364 22.72952 22.47658
# Shear Modulus (GPa) = 23.76783 27.16871 25.46827
#
# Velocity S-wave (km/s) = 3.18632 3.40666 3.29833
# Velocity P-wave (km/s) = 4.79895 5.01826 4.90983
#
# Compressibility (1/GPa) = 0.04499713
#
# Stress axis : x y z
#
# Youngs Moduli (GPa) = 66.78631 67.69009 68.01145
#
# Poissons Ratio (x) = 0.17918 -0.18405
# Poissons Ratio (y) = 0.17679 -0.01460
# Poissons Ratio (z) = -0.18073 -0.01453
#
# Static dielectric constant tensor:
#      x y z
#    x 1.944750 0.000000 0.000000 
#    y 0.000000 1.879300 0.000000 
#    z 0.000000 0.000000 1.925390 
# 
# From -- ./inp_files/34006.got.cif
#   From: 2010.05.17/outbox.cif.g08.bks.cpg/sg73_18_cif.got.tgz:34006.got - 2010.06.03 17:35:07.
