data_PCOD9531104
_publ_section_title
;
Structure prediction by ZEFSAII (Michael W. Deem and Ramdas Pophale) SiO2 
 PCOD9531104
Probable space group: I B C A 
;
_chemical_formula_sum "Si O2"
_cell_formula_units_Z 72
_cell_length_a 12.148605
_cell_length_b 11.412918
_cell_length_c 20.386516
_cell_angle_alpha 90.000000
_cell_angle_beta 90.000000
_cell_angle_gamma 90.000000
_cell_volume 2826.611496
_symmetry_space_group_name_H-M "I B C A "
_symmetry_group_IT_number 73
_symmetry_cell_setting 'orthorhombic'
loop_
_space_group_symop_operation_xyz
x,y,z
-x,1/2-y,z
x,-y,1/2-z
1/2-x,y,-z
-x,-y,-z
x,1/2+y,-z
-x,y,1/2+z
1/2+x,-y,z
1/2+x,1/2+y,1/2+z
1/2-x,-y,1/2+z
1/2+x,1/2-y,-z
-x,1/2+y,1/2-z
1/2-x,1/2-y,1/2-z
1/2+x,y,1/2-z
1/2-x,1/2+y,z
x,1/2-y,1/2+z
loop_
_atom_site_type_symbol
_atom_site_label
_atom_site_fract_x
_atom_site_fract_y
_atom_site_fract_z
Si Si1 0.515553 0.585226 0.354379
Si Si2 0.878194 0.000000 0.750000
Si Si3 0.381259 0.459818 0.030461
Si Si4 0.903777 0.338499 0.596762
Si Si5 0.265084 0.868344 0.631039
O O1 0.457967 0.595273 0.284462
O O2 0.425329 0.616750 0.409051
O O3 0.541939 0.445070 0.363629
O O4 0.634143 0.638162 0.367358
O O5 0.804756 0.945374 0.807351
O O6 0.313045 0.565362 0.065337
O O7 0.500000 0.500000 0.000000
O O8 0.341374 0.391003 0.966121
O O9 0.819498 0.258656 0.636085
O O10 0.000000 0.250000 0.575190
#
# Coordination Sequence:
#
# PCOD9531104 Si02
#       5
#    16   8  16  16  16
#     4  10  22  41  66 101 129 175 225 269 330 396
#     4  10  20  42  70  84 136 172 210 284 334 366
#     4   9  19  38  60  91 132 167 206 266 321 384
#     4  11  20  43  66  88 138 179 208 266 345 383
#     4  11  22  42  67  97 133 175 220 275 327 395
#
# _framework density 25.472196
#
# number of rings (size 3 to 8) (size 9 to 14) (size 15 to 20)
#    0.000    1.778    6.667    0.667    0.000    3.556 
#    8.000    6.667    9.778    0.000    0.000    0.000 
#    0.000    0.000    0.000    0.000    0.000    0.000 
#
# Total GULP energy -201244.125405 kJ/mol
# GULP energy per Si atom -5590.114595 kJ/mol
# Density = 2.541422 g / cm^3
# Si number density = 25.472196 Si / 1000 Ang^3
#
#
#
# Elastic Constant Matrix: (Units=GPa)
#
#
# Indices 1 2 3 4 5 6 
#
# 1 26.2378 4.9849 -15.5381 0.0000 0.0000 0.0000
# 2 4.9849 113.1391 9.6423 0.0000 0.0000 0.0000
# 3 -15.5381 9.6423 105.7393 0.0000 0.0000 0.0000
# 4 0.0000 0.0000 0.0000 16.8508 0.0000 0.0000
# 5 0.0000 0.0000 0.0000 0.0000 35.6315 0.0000
# 6 0.0000 0.0000 0.0000 0.0000 0.0000 33.0499
#
#
#
# Elastic Compliance Matrix: (Units=1/GPa)
#
#
# Indices 1 2 3 4 5 6 
#
# 1 0.042392 -0.002417 0.006450 0.000000 0.000000 0.000000
# 2 -0.002417 0.009046 -0.001180 0.000000 0.000000 0.000000
# 3 0.006450 -0.001180 0.010513 0.000000 0.000000 0.000000
# 4 0.000000 0.000000 0.000000 0.059345 0.000000 0.000000
# 5 0.000000 0.000000 0.000000 0.000000 0.028065 0.000000
# 6 0.000000 0.000000 0.000000 0.000000 0.000000 0.030257
#
#
# Mechanical properties :
#
#
# Convention : Reuss Voigt Hill
#
# Bulk Modulus (GPa) = 14.78096 27.03272 20.90684
# Shear Modulus (GPa) = 25.44993 33.50822 29.47907
#
# Velocity S-wave (km/s) = 3.16432 3.63089 3.40561
# Velocity P-wave (km/s) = 4.37790 5.31164 4.86721
#
# Compressibility (1/GPa) = 0.06765459
#
# Stress axis : x y z
#
# Youngs Moduli (GPa) = 23.58948 110.54888 95.12376
#
# Poissons Ratio (x) = 0.26725 -0.61353
# Poissons Ratio (y) = 0.05703 0.11226
# Poissons Ratio (z) = -0.15215 0.13046
#
# Static dielectric constant tensor:
#      x y z
#    x 2.206280 0.000000 0.000000 
#    y 0.000000 2.078790 0.000000 
#    z 0.000000 0.000000 2.034910 
# 
# From -- ./inp_files/10648.got.cif
#   From: 2010.05.17/outbox.cif.g08.bks.cpg/sg73_6_cif.got.tgz:10648.got - 2010.06.03 17:35:07.
