data_PCOD9531680
_publ_section_title
;
Structure prediction by ZEFSAII (Michael W. Deem and Ramdas Pophale) SiO2 
 PCOD9531680
Probable space group: I B C A 
;
_chemical_formula_sum "Si O2"
_cell_formula_units_Z 64
_cell_length_a 12.215287
_cell_length_b 21.897502
_cell_length_c 11.031785
_cell_angle_alpha 90.000000
_cell_angle_beta 90.000000
_cell_angle_gamma 90.000000
_cell_volume 2950.828974
_symmetry_space_group_name_H-M "I B C A "
_symmetry_group_IT_number 73
_symmetry_cell_setting 'orthorhombic'
loop_
_space_group_symop_operation_xyz
x,y,z
-x,1/2-y,z
x,-y,1/2-z
1/2-x,y,-z
-x,-y,-z
x,1/2+y,-z
-x,y,1/2+z
1/2+x,-y,z
1/2+x,1/2+y,1/2+z
1/2-x,-y,1/2+z
1/2+x,1/2-y,-z
-x,1/2+y,1/2-z
1/2-x,1/2-y,1/2-z
1/2+x,y,1/2-z
1/2-x,1/2+y,z
x,1/2-y,1/2+z
loop_
_atom_site_type_symbol
_atom_site_label
_atom_site_fract_x
_atom_site_fract_y
_atom_site_fract_z
Si Si1 0.586706 0.988900 0.891445
Si Si2 0.225173 0.686610 0.185823
Si Si3 0.347498 0.380680 0.917666
Si Si4 0.597082 0.860688 0.010440
O O1 0.546425 0.000000 0.750000
O O2 0.666597 0.046273 0.904975
O O3 0.628304 0.922229 0.933378
O O4 0.500000 0.000000 0.000000
O O5 0.250000 0.750000 0.250000
O O6 0.166320 0.646824 0.286644
O O7 0.332691 0.651805 0.132118
O O8 0.139771 0.693336 0.075575
O O9 0.468283 0.364920 0.966348
O O10 0.250000 0.356157 0.000000
#
# Coordination Sequence:
#
# PCOD9531680 Si02
#       4
#    16  16  16  16
#     4  10  21  42  74 111 148 196 239 310 391 461
#     4  11  26  48  72 102 146 206 256 308 383 444
#     4  11  26  42  74 113 143 191 249 306 390 462
#     4  10  25  49  74 105 151 193 254 321 382 460
#
# _framework density 21.688818999999999
#
# number of rings (size 3 to 8) (size 9 to 14) (size 15 to 20)
#    0.000    1.500    2.500    0.000   10.500    3.000 
#    0.000    1.250    0.000    0.000    0.000    0.000 
#    0.000    0.000    0.000    0.000    0.000    0.000 
#
# Total GULP energy -178204.920602 kJ/mol
# GULP energy per Si atom -5568.903769 kJ/mol
# Density = 2.163945 g / cm^3
# Si number density = 21.688819 Si / 1000 Ang^3
#
#
#
# Elastic Constant Matrix: (Units=GPa)
#
#
# Indices 1 2 3 4 5 6 
#
# 1 140.5526 40.3849 59.4924 0.0000 0.0000 0.0000
# 2 40.3849 111.5678 37.7934 -0.0002 0.0000 0.0000
# 3 59.4924 37.7934 117.3782 -0.0002 0.0000 0.0000
# 4 0.0000 -0.0002 -0.0002 38.1746 0.0000 0.0000
# 5 0.0000 0.0000 0.0000 0.0000 39.8403 0.0000
# 6 0.0000 0.0000 0.0000 0.0000 0.0000 23.8174
#
#
#
# Elastic Compliance Matrix: (Units=1/GPa)
#
#
# Indices 1 2 3 4 5 6 
#
# 1 0.009446 -0.002017 -0.004138 0.000000 0.000000 0.000000
# 2 -0.002017 0.010491 -0.002355 0.000000 0.000000 0.000000
# 3 -0.004138 -0.002355 0.011375 0.000000 0.000000 0.000000
# 4 0.000000 0.000000 0.000000 0.026195 0.000000 0.000000
# 5 0.000000 0.000000 0.000000 0.000000 0.025100 0.000000
# 6 0.000000 0.000000 0.000000 0.000000 0.000000 0.041986
#
#
# Mechanical properties :
#
#
# Convention : Reuss Voigt Hill
#
# Bulk Modulus (GPa) = 69.97610 71.64889 70.81250
# Shear Modulus (GPa) = 34.15772 35.82165 34.98968
#
# Velocity S-wave (km/s) = 3.97281 4.06842 4.02090
# Velocity P-wave (km/s) = 7.30602 7.42806 7.36729
#
# Compressibility (1/GPa) = 0.01429059
#
# Stress axis : x y z
#
# Youngs Moduli (GPa) = 105.86505 95.31665 87.91031
#
# Poissons Ratio (x) = 0.19230 0.36378
# Poissons Ratio (y) = 0.21358 0.20707
# Poissons Ratio (z) = 0.43808 0.22452
#
# Static dielectric constant tensor:
#      x y z
#    x 1.758210 0.000000 0.000000 
#    y 0.000000 1.949210 0.000000 
#    z 0.000000 0.000000 1.903630 
# 
# From -- ./inp_files/9429.got.cif
#   From: 2010.05.17/outbox.cif.g08.bks.cpg/sg73_5_cif.got.tgz:9429.got - 2010.06.03 17:35:07.
