data_PCOD9531710
_publ_section_title
;
Structure prediction by ZEFSAII (Michael W. Deem and Ramdas Pophale) SiO2 
 PCOD9531710
Probable space group: I B C A 
;
_chemical_formula_sum "Si O2"
_cell_formula_units_Z 104
_cell_length_a 22.446120
_cell_length_b 23.880994
_cell_length_c 8.815516
_cell_angle_alpha 90.000000
_cell_angle_beta 90.000000
_cell_angle_gamma 90.000000
_cell_volume 4725.430911
_symmetry_space_group_name_H-M "I B C A "
_symmetry_group_IT_number 73
_symmetry_cell_setting 'orthorhombic'
loop_
_space_group_symop_operation_xyz
x,y,z
-x,1/2-y,z
x,-y,1/2-z
1/2-x,y,-z
-x,-y,-z
x,1/2+y,-z
-x,y,1/2+z
1/2+x,-y,z
1/2+x,1/2+y,1/2+z
1/2-x,-y,1/2+z
1/2+x,1/2-y,-z
-x,1/2+y,1/2-z
1/2-x,1/2-y,1/2-z
1/2+x,y,1/2-z
1/2-x,1/2+y,z
x,1/2-y,1/2+z
loop_
_atom_site_type_symbol
_atom_site_label
_atom_site_fract_x
_atom_site_fract_y
_atom_site_fract_z
Si Si1 0.810735 0.485832 0.574176
Si Si2 0.940454 0.021568 0.076532
Si Si3 0.000000 0.250000 0.582279
Si Si4 0.574714 0.351075 0.519166
Si Si5 0.802740 0.853315 0.389967
Si Si6 0.618658 0.701522 0.705541
Si Si7 0.690812 0.291014 0.092974
O O1 0.809373 0.500000 0.750000
O O2 0.750000 0.508082 0.500000
O O3 0.876540 0.500590 0.511859
O O4 0.808821 0.418581 0.573367
O O5 0.941410 0.000000 0.250000
O O6 0.941048 0.088883 0.051027
O O7 0.000000 0.000000 0.000000
O O8 0.977996 0.305647 0.493478
O O9 0.943239 0.233317 0.680617
O O10 0.632355 0.328562 0.427249
O O11 0.600520 0.351682 0.690714
O O12 0.750000 0.834477 0.500000
O O13 0.792067 0.838548 0.215420
O O14 0.645074 0.690425 0.538889
O O15 0.663074 0.740660 0.805580
O O16 0.750000 0.277317 0.000000
#
# Coordination Sequence:
#
# PCOD9531710 Si02
#       7
#    16  16   8  16  16  16  16
#     4   9  20  41  69  96 133 173 226 296 353 419
#     4  10  24  47  69 103 137 184 233 296 365 423
#     4  12  24  44  66  96 140 184 232 284 358 418
#     4  11  24  45  69  97 141 181 236 292 350 432
#     4  10  21  43  67  95 139 184 228 285 358 424
#     4  12  25  42  63 100 133 186 230 284 349 420
#     4  12  24  41  66  98 142 182 230 284 350 432
#
# _framework density 22.008573999999999
#
# number of rings (size 3 to 8) (size 9 to 14) (size 15 to 20)
#    0.000    1.231    3.077    1.846    2.154    2.462 
#    5.538    0.000    0.000    0.000    0.000    1.077 
#    0.000    0.000    0.000    0.000    0.000    0.000 
#
# Total GULP energy -290156.727811 kJ/mol
# GULP energy per Si atom -5579.937073 kJ/mol
# Density = 2.195848 g / cm^3
# Si number density = 22.008574 Si / 1000 Ang^3
#
#
#
# Elastic Constant Matrix: (Units=GPa)
#
#
# Indices 1 2 3 4 5 6 
#
# 1 199.6110 38.0423 61.1032 0.0000 0.0000 0.0000
# 2 38.0423 47.9151 29.6556 0.0000 0.0000 0.0000
# 3 61.1032 29.6556 125.1336 0.0000 0.0000 0.0000
# 4 0.0000 0.0000 0.0000 39.6515 0.0000 0.0000
# 5 0.0000 0.0000 0.0000 0.0000 45.5502 0.0000
# 6 0.0000 0.0000 0.0000 0.0000 0.0000 25.5238
#
#
#
# Elastic Compliance Matrix: (Units=1/GPa)
#
#
# Indices 1 2 3 4 5 6 
#
# 1 0.006402 -0.003689 -0.002252 0.000000 0.000000 0.000000
# 2 -0.003689 0.026584 -0.004499 0.000000 0.000000 0.000000
# 3 -0.002252 -0.004499 0.010157 0.000000 0.000000 0.000000
# 4 0.000000 0.000000 0.000000 0.025220 0.000000 0.000000
# 5 0.000000 0.000000 0.000000 0.000000 0.021954 0.000000
# 6 0.000000 0.000000 0.000000 0.000000 0.000000 0.039179
#
#
# Mechanical properties :
#
#
# Convention : Reuss Voigt Hill
#
# Bulk Modulus (GPa) = 44.91663 70.02910 57.47286
# Shear Modulus (GPa) = 31.68641 38.40235 35.04438
#
# Velocity S-wave (km/s) = 3.79849 4.18171 3.99470
# Velocity P-wave (km/s) = 6.30009 7.42992 6.88821
#
# Compressibility (1/GPa) = 0.02226347
#
# Stress axis : x y z
#
# Youngs Moduli (GPa) = 156.19679 37.61711 98.45244
#
# Poissons Ratio (x) = 0.13878 0.22170
# Poissons Ratio (y) = 0.57626 0.44290
# Poissons Ratio (z) = 0.35174 0.16922
#
# Static dielectric constant tensor:
#      x y z
#    x 1.857510 0.000000 0.000000 
#    y 0.000000 2.180390 0.000000 
#    z 0.000000 0.000000 1.833330 
# 
# From -- ./inp_files/6550.got.cif
#   From: 2010.05.17/outbox.cif.g08.bks.cpg/sg73_4_cif.got.tgz:6550.got - 2010.06.03 17:35:07.
