data_PCOD9531238
_publ_section_title
;
Structure prediction by ZEFSAII (Michael W. Deem and Ramdas Pophale) SiO2 
 PCOD9531238
Probable space group: I B C A 
;
_chemical_formula_sum "Si O2"
_cell_formula_units_Z 88
_cell_length_a 8.821915
_cell_length_b 23.158219
_cell_length_c 18.808065
_cell_angle_alpha 90.000000
_cell_angle_beta 90.000000
_cell_angle_gamma 90.000000
_cell_volume 3842.484662
_symmetry_space_group_name_H-M "I B C A "
_symmetry_group_IT_number 73
_symmetry_cell_setting 'orthorhombic'
loop_
_space_group_symop_operation_xyz
x,y,z
-x,1/2-y,z
x,-y,1/2-z
1/2-x,y,-z
-x,-y,-z
x,1/2+y,-z
-x,y,1/2+z
1/2+x,-y,z
1/2+x,1/2+y,1/2+z
1/2-x,-y,1/2+z
1/2+x,1/2-y,-z
-x,1/2+y,1/2-z
1/2-x,1/2-y,1/2-z
1/2+x,y,1/2-z
1/2-x,1/2+y,z
x,1/2-y,1/2+z
loop_
_atom_site_type_symbol
_atom_site_label
_atom_site_fract_x
_atom_site_fract_y
_atom_site_fract_z
Si Si1 0.134423 0.608085 0.821759
Si Si2 0.664246 0.033848 0.602657
Si Si3 0.483850 0.500000 0.750000
Si Si4 0.091991 0.700747 0.648022
Si Si5 0.852925 0.918614 0.564082
Si Si6 0.867474 0.323424 0.722049
O O1 0.218370 0.586897 0.892477
O O2 0.248830 0.638639 0.767224
O O3 0.081676 0.550713 0.782105
O O4 0.979530 0.643439 0.831692
O O5 0.519655 0.052133 0.555538
O O6 0.603569 0.026098 0.683095
O O7 0.749296 0.973658 0.587780
O O8 0.115709 0.637291 0.613923
O O9 0.259269 0.718705 0.676694
O O10 0.000000 0.750000 0.604593
O O11 0.982559 0.694222 0.716207
O O12 0.750000 0.895344 0.500000
#
# Coordination Sequence:
#
# PCOD9531238 Si02
#       6
#    16  16   8  16  16  16
#     4  11  19  30  54  94 143 172 206 271 351 447
#     4  12  23  37  63  97 142 182 228 292 361 432
#     4  12  20  28  58  96 134 170 216 264 356 428
#     4  11  23  43  69  97 135 177 232 295 361 423
#     4  12  27  44  64  93 137 192 244 289 342 415
#     4  10  21  36  60 101 135 171 216 288 370 437
#
# _framework density 22.901847
#
# number of rings (size 3 to 8) (size 9 to 14) (size 15 to 20)
#    0.000    0.727    5.455    3.818    2.545    0.000 
#    0.000    0.000    0.000   10.909    0.000    0.000 
#    0.000    0.000    0.000    0.000    0.000    0.000 
#
# Total GULP energy -245431.402685 kJ/mol
# GULP energy per Si atom -5577.986425 kJ/mol
# Density = 2.284972 g / cm^3
# Si number density = 22.901847 Si / 1000 Ang^3
#
#
#
# Elastic Constant Matrix: (Units=GPa)
#
#
# Indices 1 2 3 4 5 6 
#
# 1 185.6195 70.0008 39.9891 0.0000 0.0000 0.0000
# 2 70.0008 94.7938 29.2687 0.0000 0.0000 0.0000
# 3 39.9891 29.2687 44.0452 0.0000 0.0000 0.0000
# 4 0.0000 0.0000 0.0000 10.1718 0.0000 0.0000
# 5 0.0000 0.0000 0.0000 0.0000 10.6276 0.0000
# 6 0.0000 0.0000 0.0000 0.0000 0.0000 62.1110
#
#
#
# Elastic Compliance Matrix: (Units=1/GPa)
#
#
# Indices 1 2 3 4 5 6 
#
# 1 0.008046 -0.004638 -0.004223 0.000000 0.000000 0.000000
# 2 -0.004638 0.015946 -0.006385 0.000000 0.000000 0.000000
# 3 -0.004223 -0.006385 0.030782 0.000000 0.000000 0.000000
# 4 0.000000 0.000000 0.000000 0.098311 0.000000 0.000000
# 5 0.000000 0.000000 0.000000 0.000000 0.094095 0.000000
# 6 0.000000 0.000000 0.000000 0.000000 0.000000 0.016100
#
#
# Mechanical properties :
#
#
# Convention : Reuss Voigt Hill
#
# Bulk Modulus (GPa) = 41.18565 66.99732 54.09148
# Shear Modulus (GPa) = 16.56364 28.92873 22.74619
#
# Velocity S-wave (km/s) = 2.69224 3.55795 3.15493
# Velocity P-wave (km/s) = 5.26182 6.79679 6.07796
#
# Compressibility (1/GPa) = 0.02428030
#
# Stress axis : x y z
#
# Youngs Moduli (GPa) = 124.28195 62.71343 32.48687
#
# Poissons Ratio (x) = 0.29085 0.13721
# Poissons Ratio (y) = 0.57639 0.20744
# Poissons Ratio (z) = 0.52489 0.40045
#
# Static dielectric constant tensor:
#      x y z
#    x 2.002270 0.000000 0.000000 
#    y 0.000000 1.898490 0.000000 
#    z 0.000000 0.000000 1.904040 
# 
# From -- ./inp_files/24810.got.cif
#   From: 2010.05.17/outbox.cif.g08.bks.cpg/sg73_13_cif.got.tgz:24810.got - 2010.06.03 17:35:07.
