data_PCOD9531956
_publ_section_title
;
Structure prediction by ZEFSAII (Michael W. Deem and Ramdas Pophale) SiO2 
 PCOD9531956
Probable space group: I B C A 
;
_chemical_formula_sum "Si O2"
_cell_formula_units_Z 120
_cell_length_a 19.904212
_cell_length_b 25.845653
_cell_length_c 11.248556
_cell_angle_alpha 90.000000
_cell_angle_beta 90.000000
_cell_angle_gamma 90.000000
_cell_volume 5786.677414
_symmetry_space_group_name_H-M "I B C A "
_symmetry_group_IT_number 73
_symmetry_cell_setting 'orthorhombic'
loop_
_space_group_symop_operation_xyz
x,y,z
-x,1/2-y,z
x,-y,1/2-z
1/2-x,y,-z
-x,-y,-z
x,1/2+y,-z
-x,y,1/2+z
1/2+x,-y,z
1/2+x,1/2+y,1/2+z
1/2-x,-y,1/2+z
1/2+x,1/2-y,-z
-x,1/2+y,1/2-z
1/2-x,1/2-y,1/2-z
1/2+x,y,1/2-z
1/2-x,1/2+y,z
x,1/2-y,1/2+z
loop_
_atom_site_type_symbol
_atom_site_label
_atom_site_fract_x
_atom_site_fract_y
_atom_site_fract_z
Si Si1 0.983713 0.697816 0.149091
Si Si2 0.156816 0.602678 0.127022
Si Si3 0.750000 0.117605 0.000000
Si Si4 0.218979 0.440229 0.756256
Si Si5 0.110347 0.694620 0.982532
Si Si6 0.456149 0.613473 0.692666
Si Si7 0.624664 0.690858 0.029393
Si Si8 0.093059 0.087992 0.117034
O O1 0.003608 0.643987 0.205750
O O2 0.000000 0.750000 0.223555
O O3 0.037586 0.703697 0.041426
O O4 0.908806 0.695549 0.100649
O O5 0.232192 0.588988 0.162747
O O6 0.108591 0.590779 0.239591
O O7 0.151119 0.663287 0.085963
O O8 0.124569 0.574025 0.012232
O O9 0.730970 0.083193 0.113779
O O10 0.810542 0.155690 0.031435
O O11 0.238241 0.500000 0.750000
O O12 0.141714 0.434657 0.716075
O O13 0.136828 0.749318 0.936891
O O14 0.102090 0.650654 0.883509
O O15 0.428149 0.658194 0.606954
O O16 0.513347 0.578560 0.630861
#
# Coordination Sequence:
#
# PCOD9531956 Si02
#       8
#    16  16   8  16  16  16  16  16
#     4   9  18  29  54  87 126 176 221 245 293 374
#     4   9  21  43  65  96 129 179 216 264 332 394
#     4  12  28  42  62  98 128 164 206 282 328 390
#     4  12  27  48  72  90 119 169 227 285 347 395
#     4   8  19  35  61  94 129 182 212 250 314 395
#     4  11  18  35  63  94 136 170 211 268 314 382
#     4  11  20  38  55  95 143 167 213 252 319 394
#     4  10  22  39  68  97 128 172 222 268 318 398
#
# _framework density 20.737289000000001
#
# number of rings (size 3 to 8) (size 9 to 14) (size 15 to 20)
#    0.800    1.067    2.667    1.200    3.733    1.067 
#    2.400    2.000    0.000    2.400    0.000    0.000 
#    0.000    0.000    0.000    0.000    0.000    0.000 
#
# Total GULP energy -334246.918191 kJ/mol
# GULP energy per Si atom -5570.781970 kJ/mol
# Density = 2.069009 g / cm^3
# Si number density = 20.737289 Si / 1000 Ang^3
#
#
#
# Elastic Constant Matrix: (Units=GPa)
#
#
# Indices 1 2 3 4 5 6 
#
# 1 70.7644 29.7131 16.7237 0.0000 0.0000 0.0000
# 2 29.7131 47.4272 11.2746 0.0000 0.0000 0.0000
# 3 16.7237 11.2746 61.5527 0.0000 0.0000 0.0000
# 4 0.0000 0.0000 0.0000 0.6029 0.0000 0.0000
# 5 0.0000 0.0000 0.0000 0.0000 33.2784 0.0000
# 6 0.0000 0.0000 0.0000 0.0000 0.0000 13.8137
#
#
#
# Elastic Compliance Matrix: (Units=1/GPa)
#
#
# Indices 1 2 3 4 5 6 
#
# 1 0.019777 -0.011619 -0.003245 0.000000 0.000000 0.000000
# 2 -0.011619 0.028871 -0.002131 0.000000 0.000000 0.000000
# 3 -0.003245 -0.002131 0.017518 0.000000 0.000000 0.000000
# 4 0.000000 0.000000 0.000000 1.658522 0.000000 0.000000
# 5 0.000000 0.000000 0.000000 0.000000 0.030050 0.000000
# 6 0.000000 0.000000 0.000000 0.000000 0.000000 0.072392
#
#
# Mechanical properties :
#
#
# Convention : Reuss Voigt Hill
#
# Bulk Modulus (GPa) = 31.07971 32.79634 31.93802
# Shear Modulus (GPa) = 2.67116 17.67453 10.17284
#
# Velocity S-wave (km/s) = 1.13617 2.92260 2.21726
# Velocity P-wave (km/s) = 4.09159 5.21903 4.68931
#
# Compressibility (1/GPa) = 0.03217534
#
# Stress axis : x y z
#
# Youngs Moduli (GPa) = 50.56396 34.63702 57.08299
#
# Poissons Ratio (x) = 0.40244 0.18524
# Poissons Ratio (y) = 0.58749 0.12167
# Poissons Ratio (z) = 0.16409 0.07383
#
# Static dielectric constant tensor:
#      x y z
#    x 1.775800 0.000000 0.000000 
#    y 0.000000 1.799830 0.000000 
#    z 0.000000 0.000000 1.821660 
# 
# From -- ./inp_files/12325.got.cif
#   From: 2010.05.17/outbox.cif.g08.bks.cpg/sg73_7_cif.got.tgz:12325.got - 2010.06.03 17:35:07.
