data_PCOD9531535
_publ_section_title
;
Structure prediction by ZEFSAII (Michael W. Deem and Ramdas Pophale) SiO2 
 PCOD9531535
Probable space group: I B C A 
;
_chemical_formula_sum "Si O2"
_cell_formula_units_Z 104
_cell_length_a 8.381987
_cell_length_b 22.348824
_cell_length_c 23.918839
_cell_angle_alpha 90.000000
_cell_angle_beta 90.000000
_cell_angle_gamma 90.000000
_cell_volume 4480.657562
_symmetry_space_group_name_H-M "I B C A "
_symmetry_group_IT_number 73
_symmetry_cell_setting 'orthorhombic'
loop_
_space_group_symop_operation_xyz
x,y,z
-x,1/2-y,z
x,-y,1/2-z
1/2-x,y,-z
-x,-y,-z
x,1/2+y,-z
-x,y,1/2+z
1/2+x,-y,z
1/2+x,1/2+y,1/2+z
1/2-x,-y,1/2+z
1/2+x,1/2-y,-z
-x,1/2+y,1/2-z
1/2-x,1/2-y,1/2-z
1/2+x,y,1/2-z
1/2-x,1/2+y,z
x,1/2-y,1/2+z
loop_
_atom_site_type_symbol
_atom_site_label
_atom_site_fract_x
_atom_site_fract_y
_atom_site_fract_z
Si Si1 0.815342 0.077781 0.826006
Si Si2 0.809509 0.257638 0.063717
Si Si3 0.682930 0.048649 0.665566
Si Si4 0.693662 0.125631 0.936074
Si Si5 0.500000 0.750000 0.256222
Si Si6 0.690378 0.110844 0.436113
Si Si7 0.248456 0.660448 0.774052
O O1 0.782559 0.085457 0.891554
O O2 0.751844 0.133685 0.789333
O O3 0.002993 0.066227 0.818913
O O4 0.723175 0.016574 0.812390
O O5 0.757210 0.192840 0.084488
O O6 0.761897 0.322480 0.086993
O O7 0.000000 0.250000 0.063613
O O8 0.750000 0.260063 0.000000
O O9 0.726285 0.059645 0.600648
O O10 0.790054 0.100660 0.692927
O O11 0.503264 0.112113 0.933849
O O12 0.750000 0.119231 0.000000
O O13 0.378996 0.712602 0.219060
O O14 0.591400 0.697070 0.288045
O O15 0.750000 0.106419 0.500000
#
# Coordination Sequence:
#
# PCOD9531535 Si02
#       7
#    16  16  16  16   8  16  16
#     4  12  27  45  69 100 137 186 234 282 338 405
#     4   8  16  32  56  88 123 167 212 265 329 387
#     4  12  27  45  69 100 137 186 234 282 338 405
#     4  10  21  40  65  98 138 182 231 283 340 405
#     4  10  24  46  74 108 140 174 216 280 354 410
#     4  10  21  40  65  98 138 182 231 283 340 405
#     4  11  25  48  74 106 141 173 224 280 348 417
#
# _framework density 23.210877
#
# number of rings (size 3 to 8) (size 9 to 14) (size 15 to 20)
#    0.000    1.538    1.538    2.308    4.308    5.538 
#    2.769    3.077    0.000    0.000    0.000    0.000 
#    0.000    0.000    0.000    0.000    0.000    0.000 
#
# Total GULP energy -290213.901056 kJ/mol
# GULP energy per Si atom -5581.036559 kJ/mol
# Density = 2.315805 g / cm^3
# Si number density = 23.210877 Si / 1000 Ang^3
#
#
#
# Elastic Constant Matrix: (Units=GPa)
#
#
# Indices 1 2 3 4 5 6 
#
# 1 47.4595 28.0168 -1.5138 0.0000 0.0000 0.0000
# 2 28.0168 127.8469 22.5604 0.0000 0.0000 0.0000
# 3 -1.5138 22.5604 77.1962 0.0000 0.0000 0.0000
# 4 0.0000 0.0000 0.0000 23.0269 0.0000 0.0000
# 5 0.0000 0.0000 0.0000 0.0000 10.4606 0.0000
# 6 0.0000 0.0000 0.0000 0.0000 0.0000 33.5708
#
#
#
# Elastic Compliance Matrix: (Units=1/GPa)
#
#
# Indices 1 2 3 4 5 6 
#
# 1 0.024540 -0.005760 0.002164 0.000000 0.000000 0.000000
# 2 -0.005760 0.009599 -0.002918 0.000000 0.000000 0.000000
# 3 0.002164 -0.002918 0.013849 0.000000 0.000000 0.000000
# 4 0.000000 0.000000 0.000000 0.043428 0.000000 0.000000
# 5 0.000000 0.000000 0.000000 0.000000 0.095597 0.000000
# 6 0.000000 0.000000 0.000000 0.000000 0.000000 0.029788
#
#
# Mechanical properties :
#
#
# Convention : Reuss Voigt Hill
#
# Bulk Modulus (GPa) = 28.60318 38.95883 33.78101
# Shear Modulus (GPa) = 20.70561 26.97427 23.83994
#
# Velocity S-wave (km/s) = 2.98999 3.41271 3.20832
# Velocity P-wave (km/s) = 4.92645 5.68771 5.32071
#
# Compressibility (1/GPa) = 0.03496115
#
# Stress axis : x y z
#
# Youngs Moduli (GPa) = 40.75027 104.17740 72.20588
#
# Poissons Ratio (x) = 0.60003 -0.15629
# Poissons Ratio (y) = 0.23471 0.21071
# Poissons Ratio (z) = -0.08820 0.30401
#
# Static dielectric constant tensor:
#      x y z
#    x 1.927380 0.000000 0.000000 
#    y 0.000000 1.903310 0.000000 
#    z 0.000000 0.000000 1.900280 
# 
# From -- ./inp_files/31280.got.cif
#   From: 2010.05.17/outbox.cif.g08.bks.cpg/sg73_16_cif.got.tgz:31280.got - 2010.06.03 17:35:07.
