data_PCOD9531324
_publ_section_title
;
Structure prediction by ZEFSAII (Michael W. Deem and Ramdas Pophale) SiO2 
 PCOD9531324
Probable space group: I B C A 
;
_chemical_formula_sum "Si O2"
_cell_formula_units_Z 88
_cell_length_a 29.430023
_cell_length_b 29.074213
_cell_length_c 5.004008
_cell_angle_alpha 90.000000
_cell_angle_beta 90.000000
_cell_angle_gamma 90.000000
_cell_volume 4281.703251
_symmetry_space_group_name_H-M "I B C A "
_symmetry_group_IT_number 73
_symmetry_cell_setting 'orthorhombic'
loop_
_space_group_symop_operation_xyz
x,y,z
-x,1/2-y,z
x,-y,1/2-z
1/2-x,y,-z
-x,-y,-z
x,1/2+y,-z
-x,y,1/2+z
1/2+x,-y,z
1/2+x,1/2+y,1/2+z
1/2-x,-y,1/2+z
1/2+x,1/2-y,-z
-x,1/2+y,1/2-z
1/2-x,1/2-y,1/2-z
1/2+x,y,1/2-z
1/2-x,1/2+y,z
x,1/2-y,1/2+z
loop_
_atom_site_type_symbol
_atom_site_label
_atom_site_fract_x
_atom_site_fract_y
_atom_site_fract_z
Si Si1 0.645639 0.591068 0.430708
Si Si2 0.906739 0.632751 0.065183
Si Si3 0.029487 0.944957 0.068366
Si Si4 0.220698 0.655646 0.242302
Si Si5 0.893982 0.000000 0.250000
Si Si6 0.635672 0.280382 0.358650
O O1 0.619034 0.617479 0.665669
O O2 0.695705 0.612125 0.398545
O O3 0.636261 0.536512 0.418181
O O4 0.621704 0.607976 0.163564
O O5 0.955433 0.608425 0.063013
O O6 0.902454 0.685406 0.977821
O O7 0.012042 0.953695 0.366312
O O8 0.072413 0.973056 0.954218
O O9 0.250000 0.641831 0.500000
O O10 0.182808 0.690798 0.358634
O O11 0.250000 0.677342 0.000000
O O12 0.633410 0.263141 0.054967
#
# Coordination Sequence:
#
# PCOD9531324 Si02
#       6
#    16  16  16  16   8  16
#     4  10  21  38  58  80 114 161 195 227 287 352
#     4  10  21  39  57  81 119 156 188 228 290 364
#     4  11  22  36  59  90 121 149 187 242 300 342
#     4  11  22  38  57  83 120 153 190 246 306 350
#     4  10  22  38  60  88 118 154 202 246 280 348
#     4  11  22  37  61  87 111 150 199 242 291 354
#
# _framework density 20.552568999999998
#
# number of rings (size 3 to 8) (size 9 to 14) (size 15 to 20)
#    0.000    1.455    0.000    8.182    0.000    8.000 
#    0.000    0.909    0.000    3.273    0.000    0.000 
#    0.000    0.000    0.000    0.000    0.000    0.000 
#
# Total GULP energy -245368.401759 kJ/mol
# GULP energy per Si atom -5576.554585 kJ/mol
# Density = 2.050579 g / cm^3
# Si number density = 20.552569 Si / 1000 Ang^3
#
#
#
# Elastic Constant Matrix: (Units=GPa)
#
#
# Indices 1 2 3 4 5 6 
#
# 1 28.1301 23.5980 14.1980 0.0000 0.0000 0.0000
# 2 23.5980 85.3053 4.6650 0.0000 0.0000 0.0000
# 3 14.1980 4.6650 135.1517 0.0000 0.0000 0.0000
# 4 0.0000 0.0000 0.0000 33.3410 0.0000 0.0000
# 5 0.0000 0.0000 0.0000 0.0000 20.4629 0.0000
# 6 0.0000 0.0000 0.0000 0.0000 0.0000 26.8118
#
#
#
# Elastic Compliance Matrix: (Units=1/GPa)
#
#
# Indices 1 2 3 4 5 6 
#
# 1 0.049099 -0.013325 -0.004698 0.000000 0.000000 0.000000
# 2 -0.013325 0.015361 0.000870 0.000000 0.000000 0.000000
# 3 -0.004698 0.000870 0.007863 0.000000 0.000000 0.000000
# 4 0.000000 0.000000 0.000000 0.029993 0.000000 0.000000
# 5 0.000000 0.000000 0.000000 0.000000 0.048869 0.000000
# 6 0.000000 0.000000 0.000000 0.000000 0.000000 0.037297
#
#
# Mechanical properties :
#
#
# Convention : Reuss Voigt Hill
#
# Bulk Modulus (GPa) = 26.30518 37.05658 31.68088
# Shear Modulus (GPa) = 21.23496 29.86488 25.54992
#
# Velocity S-wave (km/s) = 3.21783 3.81609 3.52966
# Velocity P-wave (km/s) = 5.16069 6.12258 5.66210
#
# Compressibility (1/GPa) = 0.03801533
#
# Stress axis : x y z
#
# Youngs Moduli (GPa) = 20.36708 65.09899 127.18423
#
# Poissons Ratio (x) = 0.86746 0.59751
# Poissons Ratio (y) = 0.27140 -0.11060
# Poissons Ratio (z) = 0.09568 -0.05661
#
# Static dielectric constant tensor:
#      x y z
#    x 1.742810 0.000000 0.000000 
#    y 0.000000 1.881390 0.000000 
#    z 0.000000 0.000000 1.706590 
# 
# From -- ./inp_files/3106.got.cif
#   From: 2010.05.17/outbox.cif.g08.bks.cpg/sg73_2_cif.got.tgz:3106.got - 2010.06.03 17:35:07.
