data_PCOD9531531
_publ_section_title
;
Structure prediction by ZEFSAII (Michael W. Deem and Ramdas Pophale) SiO2 
 PCOD9531531
Probable space group: I B C A 
;
_chemical_formula_sum "Si O2"
_cell_formula_units_Z 80
_cell_length_a 9.824573
_cell_length_b 21.966637
_cell_length_c 16.180007
_cell_angle_alpha 90.000000
_cell_angle_beta 90.000000
_cell_angle_gamma 90.000000
_cell_volume 3491.853080
_symmetry_space_group_name_H-M "I B C A "
_symmetry_group_IT_number 73
_symmetry_cell_setting 'orthorhombic'
loop_
_space_group_symop_operation_xyz
x,y,z
-x,1/2-y,z
x,-y,1/2-z
1/2-x,y,-z
-x,-y,-z
x,1/2+y,-z
-x,y,1/2+z
1/2+x,-y,z
1/2+x,1/2+y,1/2+z
1/2-x,-y,1/2+z
1/2+x,1/2-y,-z
-x,1/2+y,1/2-z
1/2-x,1/2-y,1/2-z
1/2+x,y,1/2-z
1/2-x,1/2+y,z
x,1/2-y,1/2+z
loop_
_atom_site_type_symbol
_atom_site_label
_atom_site_fract_x
_atom_site_fract_y
_atom_site_fract_z
Si Si1 0.987759 0.926955 0.897461
Si Si2 0.764406 0.329409 0.139159
Si Si3 0.252079 0.121757 0.687648
Si Si4 0.000000 0.250000 0.069004
Si Si5 0.890855 0.500000 0.250000
Si Si6 0.020289 0.641541 0.551699
O O1 0.108716 0.889311 0.854836
O O2 0.849119 0.889292 0.887592
O O3 0.973043 0.984280 0.834955
O O4 0.014445 0.920918 0.996290
O O5 0.740562 0.332003 0.236760
O O6 0.622827 0.337168 0.091398
O O7 0.868114 0.275237 0.117094
O O8 0.366787 0.138127 0.621701
O O9 0.300480 0.057878 0.727218
O O10 0.052200 0.304639 0.011757
#
# Coordination Sequence:
#
# PCOD9531531 Si02
#       6
#    16  16  16   8   8  16
#     4  10  21  40  65  93 129 169 214 266 318 386
#     4  10  22  42  65  90 128 170 210 264 328 389
#     4  11  23  41  66  96 128 167 219 272 324 388
#     4  10  22  40  64  92 124 168 212 260 324 396
#     4  10  22  40  64  94 132 174 212 262 330 390
#     4  11  24  43  66  95 129 170 219 272 326 392
#
# _framework density 22.910471000000001
#
# number of rings (size 3 to 8) (size 9 to 14) (size 15 to 20)
#    0.000    1.600    0.000    6.000    0.000    9.600 
#    0.000   10.000    0.000    0.000    0.000    0.000 
#    0.000    0.000    0.000    0.000    0.000    0.000 
#
# Total GULP energy -223415.045394 kJ/mol
# GULP energy per Si atom -5585.376135 kJ/mol
# Density = 2.285833 g / cm^3
# Si number density = 22.910471 Si / 1000 Ang^3
#
#
#
# Elastic Constant Matrix: (Units=GPa)
#
#
# Indices 1 2 3 4 5 6 
#
# 1 62.7386 12.4556 42.3890 0.0000 0.0000 0.0000
# 2 12.4556 71.8845 46.9630 0.0000 0.0000 0.0000
# 3 42.3890 46.9630 163.8262 0.0000 0.0000 0.0000
# 4 0.0000 0.0000 0.0000 -183.3740 0.0000 0.0000
# 5 0.0000 0.0000 0.0000 0.0000 52.5723 0.0000
# 6 0.0000 0.0000 0.0000 0.0000 0.0000 18.6709
#
#
#
# Elastic Compliance Matrix: (Units=1/GPa)
#
#
# Indices 1 2 3 4 5 6 
#
# 1 0.019317 -0.000101 -0.004969 0.000000 0.000000 0.000000
# 2 -0.000101 0.017117 -0.004881 0.000000 0.000000 0.000000
# 3 -0.004969 -0.004881 0.008789 0.000000 0.000000 0.000000
# 4 0.000000 0.000000 0.000000 -0.005453 0.000000 0.000000
# 5 0.000000 0.000000 0.000000 0.000000 0.019021 0.000000
# 6 0.000000 0.000000 0.000000 0.000000 0.000000 0.053559
#
#
# Mechanical properties :
#
#
# Convention : Reuss Voigt Hill
#
# Bulk Modulus (GPa) = 39.49210 55.78495 47.63853
# Shear Modulus (GPa) = 35.53862 -9.31669 13.11096
#
# Velocity S-wave (km/s) = 3.94279 -2.01876 2.39481
# Velocity P-wave (km/s) = 6.16462 4.35524 5.33716
#
# Compressibility (1/GPa) = 0.02532152
#
# Stress axis : x y z
#
# Youngs Moduli (GPa) = 51.76906 58.42015 113.77904
#
# Poissons Ratio (x) = 0.00588 0.56539
# Poissons Ratio (y) = 0.00521 0.55535
# Poissons Ratio (z) = 0.25725 0.28514
#
# Static dielectric constant tensor:
#      x y z
#    x 1.783830 0.000000 0.000000 
#    y 0.000000 2.139700 0.000000 
#    z 0.000000 0.000000 1.915290 
# 
# From -- ./inp_files/16063.got.cif
#   From: 2010.05.17/outbox.cif.g08.bks.cpg/sg73_9_cif.got.tgz:16063.got - 2010.06.03 17:35:07.
