data_PCOD9531521
_publ_section_title
;
Structure prediction by ZEFSAII (Michael W. Deem and Ramdas Pophale) SiO2 
 PCOD9531521
Probable space group: I B C A 
;
_chemical_formula_sum "Si O2"
_cell_formula_units_Z 112
_cell_length_a 28.778573
_cell_length_b 14.480286
_cell_length_c 10.632612
_cell_angle_alpha 90.000000
_cell_angle_beta 90.000000
_cell_angle_gamma 90.000000
_cell_volume 4430.842995
_symmetry_space_group_name_H-M "I B C A "
_symmetry_group_IT_number 73
_symmetry_cell_setting 'orthorhombic'
loop_
_space_group_symop_operation_xyz
x,y,z
-x,1/2-y,z
x,-y,1/2-z
1/2-x,y,-z
-x,-y,-z
x,1/2+y,-z
-x,y,1/2+z
1/2+x,-y,z
1/2+x,1/2+y,1/2+z
1/2-x,-y,1/2+z
1/2+x,1/2-y,-z
-x,1/2+y,1/2-z
1/2-x,1/2-y,1/2-z
1/2+x,y,1/2-z
1/2-x,1/2+y,z
x,1/2-y,1/2+z
loop_
_atom_site_type_symbol
_atom_site_label
_atom_site_fract_x
_atom_site_fract_y
_atom_site_fract_z
Si Si1 0.801598 0.767561 0.402438
Si Si2 0.263517 0.097616 0.749766
Si Si3 0.426625 0.362291 0.179849
Si Si4 0.682022 0.386071 0.082601
Si Si5 0.887793 0.316115 0.725726
Si Si6 0.027923 0.594387 0.185079
Si Si7 0.094747 0.452581 0.551669
O O1 0.768444 0.853628 0.360731
O O2 0.792207 0.685252 0.301273
O O3 0.799043 0.713346 0.534313
O O4 0.856266 0.791059 0.391450
O O5 0.227429 0.068192 0.861063
O O6 0.291186 0.000000 0.750000
O O7 0.398065 0.268656 0.180676
O O8 0.481426 0.350125 0.155943
O O9 0.419971 0.397786 0.323327
O O10 0.409603 0.440300 0.085441
O O11 0.647155 0.381175 0.199462
O O12 0.648193 0.430684 0.981373
O O13 0.938010 0.360006 0.711872
O O14 0.011576 0.500000 0.250000
O O15 0.059718 0.574606 0.062276
#
# Coordination Sequence:
#
# PCOD9531521 Si02
#       7
#    16  16  16  16  16  16  16
#     4  10  21  42  63  90 132 163 208 272 325 389
#     4  10  23  41  67  96 127 168 213 268 331 401
#     4  11  21  40  61  89 128 171 217 266 319 380
#     4  10  21  40  63  93 130 164 213 267 319 393
#     4  10  23  38  61  92 119 166 213 263 319 376
#     4  11  23  40  60  89 128 169 219 268 319 381
#     4  10  22  38  61  89 125 170 214 265 318 377
#
# _framework density 25.277358
#
# number of rings (size 3 to 8) (size 9 to 14) (size 15 to 20)
#    0.000    1.714    2.857    1.286    0.000    8.571 
#    0.000    8.571    0.000    0.000    0.000    0.000 
#    0.000    0.000    0.000    0.000    0.000    0.000 
#
# Total GULP energy -312657.580554 kJ/mol
# GULP energy per Si atom -5583.171081 kJ/mol
# Density = 2.521983 g / cm^3
# Si number density = 25.277358 Si / 1000 Ang^3
#
#
#
# Elastic Constant Matrix: (Units=GPa)
#
#
# Indices 1 2 3 4 5 6 
#
# 1 84.1674 -1.3922 22.6479 0.0000 0.0000 0.0000
# 2 -1.3922 84.6140 3.4714 0.0000 0.0000 0.0000
# 3 22.6479 3.4714 67.2621 0.0000 0.0000 0.0000
# 4 0.0000 0.0000 0.0000 24.1442 0.0000 0.0000
# 5 0.0000 0.0000 0.0000 0.0000 33.9084 0.0000
# 6 0.0000 0.0000 0.0000 0.0000 0.0000 31.3504
#
#
#
# Elastic Compliance Matrix: (Units=1/GPa)
#
#
# Indices 1 2 3 4 5 6 
#
# 1 0.013078 0.000397 -0.004424 0.000000 0.000000 0.000000
# 2 0.000397 0.011855 -0.000745 0.000000 0.000000 0.000000
# 3 -0.004424 -0.000745 0.016395 0.000000 0.000000 0.000000
# 4 0.000000 0.000000 0.000000 0.041418 0.000000 0.000000
# 5 0.000000 0.000000 0.000000 0.000000 0.029491 0.000000
# 6 0.000000 0.000000 0.000000 0.000000 0.000000 0.031898
#
#
# Mechanical properties :
#
#
# Convention : Reuss Voigt Hill
#
# Bulk Modulus (GPa) = 31.46303 31.72198 31.59250
# Shear Modulus (GPa) = 30.43671 31.96836 31.20254
#
# Velocity S-wave (km/s) = 3.47379 3.56013 3.51722
# Velocity P-wave (km/s) = 5.34451 5.42919 5.38702
#
# Compressibility (1/GPa) = 0.03178333
#
# Stress axis : x y z
#
# Youngs Moduli (GPa) = 76.46393 84.34915 60.99313
#
# Poissons Ratio (x) = -0.03346 0.26983
# Poissons Ratio (y) = -0.03033 0.04547
# Poissons Ratio (z) = 0.33828 0.06288
#
# Static dielectric constant tensor:
#      x y z
#    x 1.996040 0.000000 0.000000 
#    y 0.000000 2.069170 0.000000 
#    z 0.000000 0.000000 2.400530 
# 
# From -- ./inp_files/14796.got.cif
#   From: 2010.05.17/outbox.cif.g08.bks.cpg/sg73_8_cif.got.tgz:14796.got - 2010.06.03 17:35:07.
