data_PCOD9531316
_publ_section_title
;
Structure prediction by ZEFSAII (Michael W. Deem and Ramdas Pophale) SiO2 
 PCOD9531316
Probable space group: I B C A 
;
_chemical_formula_sum "Si O2"
_cell_formula_units_Z 72
_cell_length_a 30.936048
_cell_length_b 24.574370
_cell_length_c 5.294163
_cell_angle_alpha 90.000000
_cell_angle_beta 90.000000
_cell_angle_gamma 90.000000
_cell_volume 4024.802131
_symmetry_space_group_name_H-M "I B C A "
_symmetry_group_IT_number 73
_symmetry_cell_setting 'orthorhombic'
loop_
_space_group_symop_operation_xyz
x,y,z
-x,1/2-y,z
x,-y,1/2-z
1/2-x,y,-z
-x,-y,-z
x,1/2+y,-z
-x,y,1/2+z
1/2+x,-y,z
1/2+x,1/2+y,1/2+z
1/2-x,-y,1/2+z
1/2+x,1/2-y,-z
-x,1/2+y,1/2-z
1/2-x,1/2-y,1/2-z
1/2+x,y,1/2-z
1/2-x,1/2+y,z
x,1/2-y,1/2+z
loop_
_atom_site_type_symbol
_atom_site_label
_atom_site_fract_x
_atom_site_fract_y
_atom_site_fract_z
Si Si1 0.200496 0.226200 0.751562
Si Si2 0.624835 0.434246 0.715615
Si Si3 0.174079 0.602330 0.207141
Si Si4 0.750000 0.528482 0.500000
Si Si5 0.524164 0.933970 0.263325
O O1 0.250000 0.250000 0.750000
O O2 0.179653 0.247392 0.496405
O O3 0.195477 0.161811 0.766970
O O4 0.628020 0.500000 0.750000
O O5 0.650861 0.415677 0.466029
O O6 0.574134 0.420703 0.689254
O O7 0.642643 0.404474 0.966427
O O8 0.213047 0.562601 0.136537
O O9 0.770143 0.500000 0.250000
O O10 0.494492 0.914930 0.495267
O O11 0.521901 0.000000 0.250000
#
# Coordination Sequence:
#
# PCOD9531316 Si02
#       5
#    16  16  16   8  16
#     4  10  21  38  56  74  96 131 181 237 286 316
#     4  11  22  36  54  83 120 150 181 220 265 325
#     4  12  23  37  55  77 108 147 187 230 279 321
#     4  12  24  36  50  72 108 152 192 216 254 326
#     4   9  17  31  52  77 109 149 182 211 255 314
#
# _framework density 17.889075999999999
#
# number of rings (size 3 to 8) (size 9 to 14) (size 15 to 20)
#    0.000    1.333    0.000    8.000    0.000    7.111 
#    0.000    0.000    0.000    0.000    0.000    0.000 
#    0.000   62.222    0.000    0.000    0.000    0.000 
#
# Total GULP energy -200777.171674 kJ/mol
# GULP energy per Si atom -5577.143658 kJ/mol
# Density = 1.784836 g / cm^3
# Si number density = 17.889076 Si / 1000 Ang^3
#
#
#
# Elastic Constant Matrix: (Units=GPa)
#
#
# Indices 1 2 3 4 5 6 
#
# 1 109.1261 35.4463 52.2697 0.0000 0.0000 0.0000
# 2 35.4463 92.0517 50.9487 0.0000 0.0000 0.0000
# 3 52.2697 50.9487 187.1051 0.0000 0.0000 0.0000
# 4 0.0000 0.0000 0.0000 23.4992 0.0000 0.0000
# 5 0.0000 0.0000 0.0000 0.0000 24.0952 0.0000
# 6 0.0000 0.0000 0.0000 0.0000 0.0000 15.9305
#
#
#
# Elastic Compliance Matrix: (Units=1/GPa)
#
#
# Indices 1 2 3 4 5 6 
#
# 1 0.011265 -0.003057 -0.002315 0.000000 0.000000 0.000000
# 2 -0.003057 0.013621 -0.002855 0.000000 0.000000 0.000000
# 3 -0.002315 -0.002855 0.006769 0.000000 0.000000 0.000000
# 4 0.000000 0.000000 0.000000 0.042555 0.000000 0.000000
# 5 0.000000 0.000000 0.000000 0.000000 0.041502 0.000000
# 6 0.000000 0.000000 0.000000 0.000000 0.000000 0.062772
#
#
# Mechanical properties :
#
#
# Convention : Reuss Voigt Hill
#
# Bulk Modulus (GPa) = 65.78203 73.95690 69.86946
# Shear Modulus (GPa) = 24.99951 29.34622 27.17286
#
# Velocity S-wave (km/s) = 3.74234 4.05465 3.90162
# Velocity P-wave (km/s) = 7.45154 7.95939 7.70965
#
# Compressibility (1/GPa) = 0.01520172
#
# Stress axis : x y z
#
# Youngs Moduli (GPa) = 88.76795 73.41763 147.74022
#
# Poissons Ratio (x) = 0.22442 0.34198
# Poissons Ratio (y) = 0.27134 0.42179
# Poissons Ratio (z) = 0.20547 0.20961
#
# Static dielectric constant tensor:
#      x y z
#    x 1.603410 0.000000 0.000000 
#    y 0.000000 1.673750 0.000000 
#    z 0.000000 0.000000 1.691860 
# 
# From -- ./inp_files/3006.got.cif
#   From: 2010.05.17/outbox.cif.g08.bks.cpg/sg73_2_cif.got.tgz:3006.got - 2010.06.03 17:35:07.
