data_PCOD9531719
_publ_section_title
;
Structure prediction by ZEFSAII (Michael W. Deem and Ramdas Pophale) SiO2 
 PCOD9531719
Probable space group: I B C A 
;
_chemical_formula_sum "Si O2"
_cell_formula_units_Z 120
_cell_length_a 15.109032
_cell_length_b 12.638220
_cell_length_c 27.860659
_cell_angle_alpha 90.000000
_cell_angle_beta 90.000000
_cell_angle_gamma 90.000000
_cell_volume 5320.028230
_symmetry_space_group_name_H-M "I B C A "
_symmetry_group_IT_number 73
_symmetry_cell_setting 'orthorhombic'
loop_
_space_group_symop_operation_xyz
x,y,z
-x,1/2-y,z
x,-y,1/2-z
1/2-x,y,-z
-x,-y,-z
x,1/2+y,-z
-x,y,1/2+z
1/2+x,-y,z
1/2+x,1/2+y,1/2+z
1/2-x,-y,1/2+z
1/2+x,1/2-y,-z
-x,1/2+y,1/2-z
1/2-x,1/2-y,1/2-z
1/2+x,y,1/2-z
1/2-x,1/2+y,z
x,1/2-y,1/2+z
loop_
_atom_site_type_symbol
_atom_site_label
_atom_site_fract_x
_atom_site_fract_y
_atom_site_fract_z
Si Si1 0.229272 0.151501 0.585754
Si Si2 0.464177 0.000000 0.250000
Si Si3 0.111074 0.114945 0.310703
Si Si4 0.953319 0.135795 0.440604
Si Si5 0.695703 0.458000 0.316442
Si Si6 0.387707 0.007526 0.584377
Si Si7 0.599239 0.793972 0.038464
Si Si8 0.661803 0.824989 0.855520
O O1 0.184146 0.098862 0.632226
O O2 0.299110 0.065941 0.567100
O O3 0.163938 0.196535 0.546506
O O4 0.281267 0.250980 0.609086
O O5 0.531601 0.921249 0.276972
O O6 0.393987 0.945838 0.213715
O O7 0.212378 0.087372 0.294686
O O8 0.101581 0.050766 0.361236
O O9 0.887707 0.260448 0.322468
O O10 0.892034 0.149737 0.486867
O O11 0.903255 0.114605 0.391480
O O12 0.000000 0.250000 0.433995
O O13 0.029688 0.050148 0.446028
O O14 0.709392 0.583553 0.325885
O O15 0.383778 0.882685 0.578546
O O16 0.500000 0.750000 0.041377
#
# Coordination Sequence:
#
# PCOD9531719 Si02
#       8
#    16   8  16  16  16  16  16  16
#     4  10  22  44  66  92 133 179 224 271 327 402
#     4  12  24  40  68  96 128 158 212 272 346 396
#     4  10  23  43  68  94 132 167 217 273 323 416
#     4  11  20  40  67  97 128 174 231 269 313 402
#     4  10  23  42  68  96 127 169 218 271 328 402
#     4  10  21  44  68  92 134 186 222 269 342 399
#     4  11  26  40  62 102 142 171 221 294 333 376
#     4  10  21  43  69  90 127 176 225 254 327 394
#
# _framework density 22.556270999999999
#
# number of rings (size 3 to 8) (size 9 to 14) (size 15 to 20)
#    0.000    1.867    2.667    3.200    3.733    0.533 
#    0.000   12.667    0.000    0.000    0.000    0.000 
#    0.000    0.000    0.000    0.000    0.000    0.000 
#
# Total GULP energy -335383.074917 kJ/mol
# GULP energy per Si atom -5589.717915 kJ/mol
# Density = 2.250493 g / cm^3
# Si number density = 22.556271 Si / 1000 Ang^3
#
#
#
# Elastic Constant Matrix: (Units=GPa)
#
#
# Indices 1 2 3 4 5 6 
#
# 1 137.7249 38.2229 47.6171 0.0000 0.0000 0.0000
# 2 38.2229 63.7544 13.1623 0.0000 0.0000 0.0000
# 3 47.6171 13.1623 51.8227 0.0000 0.0000 0.0000
# 4 0.0000 0.0000 0.0000 20.8210 0.0000 0.0000
# 5 0.0000 0.0000 0.0000 0.0000 -14.1669 0.0000
# 6 0.0000 0.0000 0.0000 0.0000 0.0000 25.6165
#
#
#
# Elastic Compliance Matrix: (Units=1/GPa)
#
#
# Indices 1 2 3 4 5 6 
#
# 1 0.012096 -0.005232 -0.009786 0.000000 0.000000 0.000000
# 2 -0.005232 0.018816 0.000028 0.000000 0.000000 0.000000
# 3 -0.009786 0.000028 0.028281 0.000000 0.000000 0.000000
# 4 0.000000 0.000000 0.000000 0.048028 0.000000 0.000000
# 5 0.000000 0.000000 0.000000 0.000000 -0.070587 0.000000
# 6 0.000000 0.000000 0.000000 0.000000 0.000000 0.039037
#
#
# Mechanical properties :
#
#
# Convention : Reuss Voigt Hill
#
# Bulk Modulus (GPa) = 34.22957 50.14520 42.18739
# Shear Modulus (GPa) = 43.33182 16.74076 30.03629
#
# Velocity S-wave (km/s) = 4.38774 2.72725 3.65309
# Velocity P-wave (km/s) = 6.39357 5.67421 6.04460
#
# Compressibility (1/GPa) = 0.02921451
#
# Stress axis : x y z
#
# Youngs Moduli (GPa) = 82.67096 53.14630 35.35949
#
# Poissons Ratio (x) = 0.27805 0.34602
# Poissons Ratio (y) = 0.43251 -0.00100
# Poissons Ratio (z) = 0.80899 -0.00150
#
# Static dielectric constant tensor:
#      x y z
#    x 1.887650 0.000000 0.000000 
#    y 0.000000 1.826170 0.000000 
#    z 0.000000 0.000000 1.880190 
# 
# From -- ./inp_files/34416.got.cif
#   From: 2010.05.17/outbox.cif.g08.bks.cpg/sg73_18_cif.got.tgz:34416.got - 2010.06.03 17:35:07.
