data_PCOD9531177
_publ_section_title
;
Structure prediction by ZEFSAII (Michael W. Deem and Ramdas Pophale) SiO2 
 PCOD9531177
Probable space group: I B C A 
;
_chemical_formula_sum "Si O2"
_cell_formula_units_Z 96
_cell_length_a 21.849102
_cell_length_b 13.835376
_cell_length_c 14.348684
_cell_angle_alpha 90.000000
_cell_angle_beta 90.000000
_cell_angle_gamma 90.000000
_cell_volume 4337.471455
_symmetry_space_group_name_H-M "I B C A "
_symmetry_group_IT_number 73
_symmetry_cell_setting 'orthorhombic'
loop_
_space_group_symop_operation_xyz
x,y,z
-x,1/2-y,z
x,-y,1/2-z
1/2-x,y,-z
-x,-y,-z
x,1/2+y,-z
-x,y,1/2+z
1/2+x,-y,z
1/2+x,1/2+y,1/2+z
1/2-x,-y,1/2+z
1/2+x,1/2-y,-z
-x,1/2+y,1/2-z
1/2-x,1/2-y,1/2-z
1/2+x,y,1/2-z
1/2-x,1/2+y,z
x,1/2-y,1/2+z
loop_
_atom_site_type_symbol
_atom_site_label
_atom_site_fract_x
_atom_site_fract_y
_atom_site_fract_z
Si Si1 0.315723 0.990961 0.971841
Si Si2 0.357098 0.166615 0.407867
Si Si3 0.720733 0.331099 0.864514
Si Si4 0.928583 0.757472 0.080430
Si Si5 0.643058 0.608449 0.292321
Si Si6 0.373911 0.097128 0.708832
O O1 0.334247 0.944889 0.875224
O O2 0.305056 0.102805 0.949066
O O3 0.250000 0.954539 0.000000
O O4 0.356626 0.942376 0.051121
O O5 0.291566 0.221059 0.393991
O O6 0.393478 0.227840 0.485306
O O7 0.379806 0.162556 0.301970
O O8 0.789011 0.358457 0.829803
O O9 0.673460 0.357333 0.781796
O O10 0.902758 0.856940 0.125576
O O11 0.915061 0.677004 0.159952
O O12 0.000000 0.750000 0.060510
O O13 0.648897 0.500000 0.250000
O O14 0.405429 0.000000 0.750000
#
# Coordination Sequence:
#
# PCOD9531177 Si02
#       6
#    16  16  16  16  16  16
#     4  10  21  33  59  99 138 170 214 275 346 431
#     4  11  25  41  69 100 141 189 233 288 364 438
#     4  11  22  40  67 105 140 180 223 285 372 441
#     4  11  27  47  67  99 138 191 252 296 350 422
#     4  12  26  46  72 110 148 181 239 307 368 440
#     4   9  19  41  66  91 129 178 229 284 350 423
#
# _framework density 22.132711
#
# number of rings (size 3 to 8) (size 9 to 14) (size 15 to 20)
#    0.000    1.333    1.667    4.000    9.333    1.333 
#    0.000    0.833    0.000    0.000    0.000    0.000 
#    0.000    0.000    0.000    0.000    0.000    0.000 
#
# Total GULP energy -267458.198840 kJ/mol
# GULP energy per Si atom -5572.045809 kJ/mol
# Density = 2.208234 g / cm^3
# Si number density = 22.132711 Si / 1000 Ang^3
#
#
#
# Elastic Constant Matrix: (Units=GPa)
#
#
# Indices 1 2 3 4 5 6 
#
# 1 77.8061 22.9534 29.8147 0.0000 0.0000 0.0000
# 2 22.9534 96.5533 31.1941 0.0000 0.0000 0.0000
# 3 29.8147 31.1941 142.2734 0.0000 0.0000 0.0000
# 4 0.0000 0.0000 0.0000 55.2745 0.0000 0.0000
# 5 0.0000 0.0000 0.0000 0.0000 17.5147 0.0000
# 6 0.0000 0.0000 0.0000 0.0000 0.0000 11.6699
#
#
#
# Elastic Compliance Matrix: (Units=1/GPa)
#
#
# Indices 1 2 3 4 5 6 
#
# 1 0.014587 -0.002669 -0.002472 0.000000 0.000000 0.000000
# 2 -0.002669 0.011635 -0.001992 0.000000 0.000000 0.000000
# 3 -0.002472 -0.001992 0.007983 0.000000 0.000000 0.000000
# 4 0.000000 0.000000 0.000000 0.018092 0.000000 0.000000
# 5 0.000000 0.000000 0.000000 0.000000 0.057095 0.000000
# 6 0.000000 0.000000 0.000000 0.000000 0.000000 0.085690
#
#
# Mechanical properties :
#
#
# Convention : Reuss Voigt Hill
#
# Bulk Modulus (GPa) = 50.14952 53.83968 51.99460
# Shear Modulus (GPa) = 23.14881 32.40321 27.77601
#
# Velocity S-wave (km/s) = 3.23756 3.83043 3.54641
# Velocity P-wave (km/s) = 6.05669 6.62884 6.34921
#
# Compressibility (1/GPa) = 0.01994037
#
# Stress axis : x y z
#
# Youngs Moduli (GPa) = 68.55418 85.94771 125.26074
#
# Poissons Ratio (x) = 0.22941 0.30959
# Poissons Ratio (y) = 0.18299 0.24948
# Poissons Ratio (z) = 0.16944 0.17118
#
# Static dielectric constant tensor:
#      x y z
#    x 1.767340 0.000000 0.000000 
#    y 0.000000 1.910160 0.000000 
#    z 0.000000 0.000000 1.845450 
# 
# From -- ./inp_files/18663.got.cif
#   From: 2010.05.17/outbox.cif.g08.bks.cpg/sg73_10_cif.got.tgz:18663.got - 2010.06.03 17:35:07.
