data_PCOD9531222
_publ_section_title
;
Structure prediction by ZEFSAII (Michael W. Deem and Ramdas Pophale) SiO2 
 PCOD9531222
Probable space group: I B C A 
;
_chemical_formula_sum "Si O2"
_cell_formula_units_Z 72
_cell_length_a 13.100279
_cell_length_b 28.439299
_cell_length_c 8.585340
_cell_angle_alpha 90.000000
_cell_angle_beta 90.000000
_cell_angle_gamma 90.000000
_cell_volume 3198.577893
_symmetry_space_group_name_H-M "I B C A "
_symmetry_group_IT_number 73
_symmetry_cell_setting 'orthorhombic'
loop_
_space_group_symop_operation_xyz
x,y,z
-x,1/2-y,z
x,-y,1/2-z
1/2-x,y,-z
-x,-y,-z
x,1/2+y,-z
-x,y,1/2+z
1/2+x,-y,z
1/2+x,1/2+y,1/2+z
1/2-x,-y,1/2+z
1/2+x,1/2-y,-z
-x,1/2+y,1/2-z
1/2-x,1/2-y,1/2-z
1/2+x,y,1/2-z
1/2-x,1/2+y,z
x,1/2-y,1/2+z
loop_
_atom_site_type_symbol
_atom_site_label
_atom_site_fract_x
_atom_site_fract_y
_atom_site_fract_z
Si Si1 0.812304 0.045308 0.347229
Si Si2 0.136199 0.201974 0.428328
Si Si3 0.991028 0.944913 0.957932
Si Si4 0.133864 0.594921 0.672411
Si Si5 0.000000 0.750000 0.823719
O O1 0.750000 0.027806 0.500000
O O2 0.903435 0.073945 0.424843
O O3 0.738657 0.076129 0.241971
O O4 0.846491 0.000000 0.250000
O O5 0.250000 0.210997 0.500000
O O6 0.134746 0.150350 0.351552
O O7 0.093145 0.234289 0.288134
O O8 0.051165 0.210414 0.564246
O O9 0.098743 0.923890 0.004848
O O10 0.946666 0.929344 0.792931
O O11 0.000000 0.000000 0.000000
#
# Coordination Sequence:
#
# PCOD9531222 Si02
#       5
#    16  16  16  16   8
#     4  10  21  36  56  85 123 167 214 264 317 380
#     4  11  24  44  72 102 133 174 221 282 350 419
#     4  11  22  39  60  87 129 177 219 264 319 378
#     4  11  23  38  60  93 125 165 218 270 323 387
#     4  10  24  48  72 100 136 172 222 280 354 436
#
# _framework density 22.510005
#
# number of rings (size 3 to 8) (size 9 to 14) (size 15 to 20)
#    0.000    1.333    0.000    6.667    0.000    6.222 
#    0.000   10.000    0.000    0.000    0.000    0.000 
#    0.000    0.000    0.000    0.000    0.000    0.000 
#
# Total GULP energy -200856.233905 kJ/mol
# GULP energy per Si atom -5579.339831 kJ/mol
# Density = 2.245877 g / cm^3
# Si number density = 22.510005 Si / 1000 Ang^3
#
#
#
# Elastic Constant Matrix: (Units=GPa)
#
#
# Indices 1 2 3 4 5 6 
#
# 1 90.6431 7.8984 71.9609 0.0003 -0.0001 0.0000
# 2 7.8984 81.6691 35.6514 0.0003 -0.0001 0.0001
# 3 71.9609 35.6514 125.3431 0.0013 -0.0002 -0.0003
# 4 0.0003 0.0003 0.0013 28.4619 -0.0002 0.0003
# 5 -0.0001 -0.0001 -0.0002 -0.0002 76.0509 0.0000
# 6 0.0000 0.0001 -0.0003 0.0003 0.0000 14.5494
#
#
#
# Elastic Compliance Matrix: (Units=1/GPa)
#
#
# Indices 1 2 3 4 5 6 
#
# 1 0.021222 0.003729 -0.013245 0.000000 0.000000 0.000000
# 2 0.003729 0.014636 -0.006304 0.000000 0.000000 0.000000
# 3 -0.013245 -0.006304 0.017375 -0.000001 0.000000 0.000000
# 4 0.000000 0.000000 -0.000001 0.035135 0.000000 -0.000001
# 5 0.000000 0.000000 0.000000 0.000000 0.013149 0.000000
# 6 0.000000 0.000000 0.000000 -0.000001 0.000000 0.068731
#
#
# Mechanical properties :
#
#
# Convention : Reuss Voigt Hill
#
# Bulk Modulus (GPa) = 46.30809 58.74186 52.52498
# Shear Modulus (GPa) = 23.91379 35.95542 29.93461
#
# Velocity S-wave (km/s) = 3.26293 4.00097 3.65065
# Velocity P-wave (km/s) = 5.90021 6.89175 6.41517
#
# Compressibility (1/GPa) = 0.02159450
#
# Stress axis : x y z
#
# Youngs Moduli (GPa) = 47.12066 68.32587 57.55397
#
# Poissons Ratio (x) = -0.25481 0.76228
# Poissons Ratio (y) = -0.17573 0.36281
# Poissons Ratio (z) = 0.62409 0.43072
#
# Static dielectric constant tensor:
#      x y z
#    x 1.894280 0.000000 0.000000 
#    y 0.000000 1.799420 0.000000 
#    z 0.000000 0.000000 1.899660 
# 
# From -- ./inp_files/4818.got.cif
#   From: 2010.05.17/outbox.cif.g08.bks.cpg/sg73_3_cif.got.tgz:4818.got - 2010.06.03 17:35:07.
