data_PCOD9531437
_publ_section_title
;
Structure prediction by ZEFSAII (Michael W. Deem and Ramdas Pophale) SiO2 
 PCOD9531437
Probable space group: I B C A 
;
_chemical_formula_sum "Si O2"
_cell_formula_units_Z 80
_cell_length_a 25.242002
_cell_length_b 16.328536
_cell_length_c 9.297236
_cell_angle_alpha 90.000000
_cell_angle_beta 90.000000
_cell_angle_gamma 90.000000
_cell_volume 3831.994703
_symmetry_space_group_name_H-M "I B C A "
_symmetry_group_IT_number 73
_symmetry_cell_setting 'orthorhombic'
loop_
_space_group_symop_operation_xyz
x,y,z
-x,1/2-y,z
x,-y,1/2-z
1/2-x,y,-z
-x,-y,-z
x,1/2+y,-z
-x,y,1/2+z
1/2+x,-y,z
1/2+x,1/2+y,1/2+z
1/2-x,-y,1/2+z
1/2+x,1/2-y,-z
-x,1/2+y,1/2-z
1/2-x,1/2-y,1/2-z
1/2+x,y,1/2-z
1/2-x,1/2+y,z
x,1/2-y,1/2+z
loop_
_atom_site_type_symbol
_atom_site_label
_atom_site_fract_x
_atom_site_fract_y
_atom_site_fract_z
Si Si1 0.969681 0.086677 0.327945
Si Si2 0.852152 0.363921 0.894246
Si Si3 0.464017 0.673833 0.536318
Si Si4 0.750000 0.611306 0.000000
Si Si5 0.346000 0.275777 0.905818
Si Si6 0.222042 0.500000 0.250000
O O1 0.912678 0.104782 0.399542
O O2 0.017430 0.098602 0.438286
O O3 0.967891 0.000000 0.250000
O O4 0.976718 0.151726 0.200084
O O5 0.837387 0.317058 0.040875
O O6 0.847615 0.297013 0.763936
O O7 0.815228 0.439059 0.844144
O O8 0.500000 0.750000 0.491015
O O9 0.402684 0.696343 0.531164
O O10 0.699668 0.668116 0.028115
O O11 0.744740 0.554354 0.860183
#
# Coordination Sequence:
#
# PCOD9531437 Si02
#       6
#    16  16  16   8  16   8
#     4  11  22  38  58  89 125 158 196 247 309 357
#     4  10  21  39  63  87 119 159 198 250 304 357
#     4  11  22  38  62  90 120 161 204 247 295 363
#     4  10  24  44  62  90 122 160 204 250 300 358
#     4  10  23  39  62  89 120 156 209 249 295 361
#     4  10  22  42  64  86 122 160 198 248 308 354
#
# _framework density 20.876854999999999
#
# number of rings (size 3 to 8) (size 9 to 14) (size 15 to 20)
#    0.000    1.600    3.000    1.200    2.800    5.600 
#    1.800    0.000    0.000    0.000    0.000    0.000 
#    0.000    0.000    0.000    0.000    0.000    0.000 
#
# Total GULP energy -223533.477272 kJ/mol
# GULP energy per Si atom -5588.336932 kJ/mol
# Density = 2.082934 g / cm^3
# Si number density = 20.876855 Si / 1000 Ang^3
#
#
#
# Elastic Constant Matrix: (Units=GPa)
#
#
# Indices 1 2 3 4 5 6 
#
# 1 51.4528 -8.7201 18.9443 0.0000 0.0000 0.0000
# 2 -8.7201 62.2852 3.3148 0.0000 0.0000 0.0000
# 3 18.9443 3.3148 24.6750 0.0000 0.0000 0.0000
# 4 0.0000 0.0000 0.0000 23.0176 0.0000 0.0000
# 5 0.0000 0.0000 0.0000 0.0000 11.6141 0.0000
# 6 0.0000 0.0000 0.0000 0.0000 0.0000 20.4690
#
#
#
# Elastic Compliance Matrix: (Units=1/GPa)
#
#
# Indices 1 2 3 4 5 6 
#
# 1 0.028689 0.005226 -0.022728 0.000000 0.000000 0.000000
# 2 0.005226 0.017123 -0.006313 0.000000 0.000000 0.000000
# 3 -0.022728 -0.006313 0.058825 0.000000 0.000000 0.000000
# 4 0.000000 0.000000 0.000000 0.043445 0.000000 0.000000
# 5 0.000000 0.000000 0.000000 0.000000 0.086102 0.000000
# 6 0.000000 0.000000 0.000000 0.000000 0.000000 0.048854
#
#
# Mechanical properties :
#
#
# Convention : Reuss Voigt Hill
#
# Bulk Modulus (GPa) = 17.54168 18.38787 17.96477
# Shear Modulus (GPa) = 14.29918 19.34507 16.82212
#
# Velocity S-wave (km/s) = 2.61996 3.04736 2.84170
# Velocity P-wave (km/s) = 4.19201 4.60530 4.40350
#
# Compressibility (1/GPa) = 0.05700710
#
# Stress axis : x y z
#
# Youngs Moduli (GPa) = 34.85615 58.40157 16.99971
#
# Poissons Ratio (x) = -0.30522 0.38638
# Poissons Ratio (y) = -0.18216 0.10731
# Poissons Ratio (z) = 0.79222 0.36867
#
# Static dielectric constant tensor:
#      x y z
#    x 1.705360 0.000000 0.000000 
#    y 0.000000 1.801230 0.000000 
#    z 0.000000 0.000000 1.766480 
# 
# From -- ./inp_files/5608.got.cif
#   From: 2010.05.17/outbox.cif.g08.bks.cpg/sg73_3_cif.got.tgz:5608.got - 2010.06.03 17:35:07.
