data_PCOD9531071
_publ_section_title
;
Structure prediction by ZEFSAII (Michael W. Deem and Ramdas Pophale) SiO2 
 PCOD9531071
Probable space group: I B C A 
;
_chemical_formula_sum "Si O2"
_cell_formula_units_Z 120
_cell_length_a 25.463043
_cell_length_b 19.081656
_cell_length_c 12.484823
_cell_angle_alpha 90.000000
_cell_angle_beta 90.000000
_cell_angle_gamma 90.000000
_cell_volume 6066.088685
_symmetry_space_group_name_H-M "I B C A "
_symmetry_group_IT_number 73
_symmetry_cell_setting 'orthorhombic'
loop_
_space_group_symop_operation_xyz
x,y,z
-x,1/2-y,z
x,-y,1/2-z
1/2-x,y,-z
-x,-y,-z
x,1/2+y,-z
-x,y,1/2+z
1/2+x,-y,z
1/2+x,1/2+y,1/2+z
1/2-x,-y,1/2+z
1/2+x,1/2-y,-z
-x,1/2+y,1/2-z
1/2-x,1/2-y,1/2-z
1/2+x,y,1/2-z
1/2-x,1/2+y,z
x,1/2-y,1/2+z
loop_
_atom_site_type_symbol
_atom_site_label
_atom_site_fract_x
_atom_site_fract_y
_atom_site_fract_z
Si Si1 0.250000 0.805743 0.000000
Si Si2 0.631998 0.637454 0.010927
Si Si3 0.872150 0.713066 0.199992
Si Si4 0.743512 0.973499 0.865666
Si Si5 0.874728 0.499676 0.868209
Si Si6 0.870826 0.655746 0.546460
Si Si7 0.717980 0.180109 0.367434
Si Si8 0.061297 0.738565 0.894426
O O1 0.195588 0.848554 0.987909
O O2 0.252252 0.751237 0.099775
O O3 0.619158 0.653995 0.888596
O O4 0.612049 0.563440 0.053996
O O5 0.600465 0.696484 0.077827
O O6 0.865168 0.787590 0.140820
O O7 0.821641 0.694512 0.270895
O O8 0.922230 0.716968 0.276054
O O9 0.687657 0.009746 0.854345
O O10 0.747413 0.889297 0.851346
O O11 0.771707 0.000000 0.750000
O O12 0.750000 0.983331 0.000000
O O13 0.899503 0.500000 0.750000
O O14 0.879068 0.422640 0.915713
O O15 0.821045 0.662558 0.467109
O O16 0.920474 0.679717 0.477283
O O17 0.000000 0.750000 0.904822
#
# Coordination Sequence:
#
# PCOD9531071 Si02
#       8
#     8  16  16  16  16  16  16  16
#     4  12  20  38  60  92 144 164 218 272 326 410
#     4  11  25  39  62 100 130 174 224 267 336 399
#     4  10  21  38  64  98 123 168 222 283 325 404
#     4  11  24  39  59  89 135 195 234 269 335 400
#     4  11  24  40  59  88 139 178 226 267 330 409
#     4  10  20  42  63  92 126 169 216 276 346 384
#     4  11  21  38  59  89 132 176 226 271 328 392
#     4  10  22  45  70  95 126 164 220 283 347 404
#
# _framework density 19.782104
#
# number of rings (size 3 to 8) (size 9 to 14) (size 15 to 20)
#    0.000    1.333    6.000    0.800    2.800    3.733 
#    0.000    2.667    0.000    1.600    0.000    0.000 
#    0.000    0.000    0.000    0.000    0.000    0.000 
#
# Total GULP energy -334121.402098 kJ/mol
# GULP energy per Si atom -5568.690035 kJ/mol
# Density = 1.973708 g / cm^3
# Si number density = 19.782104 Si / 1000 Ang^3
#
#
#
# Elastic Constant Matrix: (Units=GPa)
#
#
# Indices 1 2 3 4 5 6 
#
# 1 71.8377 7.7487 20.3065 0.0000 0.0000 0.0000
# 2 7.7487 124.9197 73.0009 0.0000 0.0000 0.0000
# 3 20.3065 73.0009 141.7112 0.0000 0.0000 0.0000
# 4 0.0000 0.0000 0.0000 2.4958 0.0000 0.0000
# 5 0.0000 0.0000 0.0000 0.0000 10.3953 0.0000
# 6 0.0000 0.0000 0.0000 0.0000 0.0000 2.2823
#
#
#
# Elastic Compliance Matrix: (Units=1/GPa)
#
#
# Indices 1 2 3 4 5 6 
#
# 1 0.014526 0.000451 -0.002314 0.000000 0.000000 0.000000
# 2 0.000451 0.011467 -0.005972 0.000000 0.000000 0.000000
# 3 -0.002314 -0.005972 0.010464 0.000000 0.000000 0.000000
# 4 0.000000 0.000000 0.000000 0.400680 0.000000 0.000000
# 5 0.000000 0.000000 0.000000 0.000000 0.096198 0.000000
# 6 0.000000 0.000000 0.000000 0.000000 0.000000 0.438162
#
#
# Mechanical properties :
#
#
# Convention : Reuss Voigt Hill
#
# Bulk Modulus (GPa) = 48.10420 60.06453 54.08436
# Shear Modulus (GPa) = 5.02970 18.86215 11.94593
#
# Velocity S-wave (km/s) = 1.59627 3.09122 2.46005
# Velocity P-wave (km/s) = 5.26946 6.57038 5.95555
#
# Compressibility (1/GPa) = 0.02078821
#
# Stress axis : x y z
#
# Youngs Moduli (GPa) = 68.84361 87.20744 95.56194
#
# Poissons Ratio (x) = -0.03934 0.22112
# Poissons Ratio (y) = -0.03106 0.57067
# Poissons Ratio (z) = 0.15929 0.52078
#
# Static dielectric constant tensor:
#      x y z
#    x 1.733190 0.000000 0.000000 
#    y 0.000000 1.702050 0.000000 
#    z 0.000000 0.000000 1.815290 
# 
# From -- ./inp_files/14351.got.cif
#   From: 2010.05.17/outbox.cif.g08.bks.cpg/sg73_8_cif.got.tgz:14351.got - 2010.06.03 17:35:07.
