data_PCOD9531427
_publ_section_title
;
Structure prediction by ZEFSAII (Michael W. Deem and Ramdas Pophale) SiO2 
 PCOD9531427
Probable space group: I B C A 
;
_chemical_formula_sum "Si O2"
_cell_formula_units_Z 112
_cell_length_a 14.148916
_cell_length_b 25.025503
_cell_length_c 14.238799
_cell_angle_alpha 90.000000
_cell_angle_beta 90.000000
_cell_angle_gamma 90.000000
_cell_volume 5041.727200
_symmetry_space_group_name_H-M "I B C A "
_symmetry_group_IT_number 73
_symmetry_cell_setting 'orthorhombic'
loop_
_space_group_symop_operation_xyz
x,y,z
-x,1/2-y,z
x,-y,1/2-z
1/2-x,y,-z
-x,-y,-z
x,1/2+y,-z
-x,y,1/2+z
1/2+x,-y,z
1/2+x,1/2+y,1/2+z
1/2-x,-y,1/2+z
1/2+x,1/2-y,-z
-x,1/2+y,1/2-z
1/2-x,1/2-y,1/2-z
1/2+x,y,1/2-z
1/2-x,1/2+y,z
x,1/2-y,1/2+z
loop_
_atom_site_type_symbol
_atom_site_label
_atom_site_fract_x
_atom_site_fract_y
_atom_site_fract_z
Si Si1 0.895069 0.224976 0.430680
Si Si2 0.110539 0.366095 0.718441
Si Si3 0.402664 0.671437 0.745787
Si Si4 0.691377 0.767836 0.134446
Si Si5 0.359943 0.925029 0.912781
Si Si6 0.544978 0.525448 0.647770
Si Si7 0.350197 0.921645 0.116599
O O1 0.900538 0.175145 0.358633
O O2 0.797422 0.251996 0.391268
O O3 0.867214 0.219602 0.539349
O O4 0.000000 0.250000 0.422857
O O5 0.190311 0.324292 0.689050
O O6 0.116573 0.387937 0.824692
O O7 0.100107 0.417981 0.650886
O O8 0.011435 0.334718 0.714245
O O9 0.360310 0.724025 0.697374
O O10 0.352089 0.620947 0.699491
O O11 0.253665 0.945260 0.892774
O O12 0.421921 0.978377 0.919659
O O13 0.366776 0.895726 0.013147
O O14 0.560884 0.500000 0.750000
O O15 0.435194 0.538529 0.636010
#
# Coordination Sequence:
#
# PCOD9531427 Si02
#       7
#    16  16  16  16  16  16  16
#     4  11  24  40  61  89 123 168 208 248 304 360
#     4  10  21  39  62  91 123 163 207 252 308 369
#     4  11  23  39  62  91 127 163 202 254 305 370
#     4  11  24  42  64  91 128 165 205 253 303 365
#     4  10  21  39  64  91 122 161 206 256 308 366
#     4   9  20  38  60  87 122 161 203 255 307 359
#     4  10  22  38  61  94 124 160 205 251 311 369
#
# _framework density 22.214607999999998
#
# number of rings (size 3 to 8) (size 9 to 14) (size 15 to 20)
#    0.000    1.714    0.000    3.857    0.000    9.714 
#    0.000    5.714    0.000    0.000    0.000    0.000 
#    0.000    0.000    0.000    0.000    0.000    0.000 
#
# Total GULP energy -312526.933460 kJ/mol
# GULP energy per Si atom -5580.838098 kJ/mol
# Density = 2.216405 g / cm^3
# Si number density = 22.214608 Si / 1000 Ang^3
#
#
#
# Elastic Constant Matrix: (Units=GPa)
#
#
# Indices 1 2 3 4 5 6 
#
# 1 114.2269 55.9242 17.1950 0.0000 0.0000 0.0000
# 2 55.9242 82.6764 41.2194 0.0002 0.0000 0.0000
# 3 17.1950 41.2194 105.2891 0.0002 0.0000 0.0000
# 4 0.0000 0.0002 0.0002 15.3546 0.0000 0.0000
# 5 0.0000 0.0000 0.0000 0.0000 40.9562 0.0000
# 6 0.0000 0.0000 0.0000 0.0000 0.0000 28.5341
#
#
#
# Elastic Compliance Matrix: (Units=1/GPa)
#
#
# Indices 1 2 3 4 5 6 
#
# 1 0.013324 -0.009851 0.001680 0.000000 0.000000 0.000000
# 2 -0.009851 0.022311 -0.007126 0.000000 0.000000 0.000000
# 3 0.001680 -0.007126 0.012013 0.000000 0.000000 0.000000
# 4 0.000000 0.000000 0.000000 0.065127 0.000000 0.000000
# 5 0.000000 0.000000 0.000000 0.000000 0.024416 0.000000
# 6 0.000000 0.000000 0.000000 0.000000 0.000000 0.035046
#
#
# Mechanical properties :
#
#
# Convention : Reuss Voigt Hill
#
# Bulk Modulus (GPa) = 58.62955 58.98552 58.80754
# Shear Modulus (GPa) = 23.97907 29.49256 26.73582
#
# Velocity S-wave (km/s) = 3.28903 3.64761 3.47295
# Velocity P-wave (km/s) = 6.39322 6.65960 6.52777
#
# Compressibility (1/GPa) = 0.01705624
#
# Stress axis : x y z
#
# Youngs Moduli (GPa) = 75.05070 44.82047 83.24377
#
# Poissons Ratio (x) = 0.44151 -0.13988
# Poissons Ratio (y) = 0.73930 0.59318
# Poissons Ratio (z) = -0.12611 0.31938
#
# Static dielectric constant tensor:
#      x y z
#    x 1.852170 0.000000 0.000000 
#    y 0.000000 1.815660 0.000000 
#    z 0.000000 0.000000 1.845680 
# 
# From -- ./inp_files/17260.got.cif
#   From: 2010.05.17/outbox.cif.g08.bks.cpg/sg73_9_cif.got.tgz:17260.got - 2010.06.03 17:35:07.
