data_PCOD9531234
_publ_section_title
;
Structure prediction by ZEFSAII (Michael W. Deem and Ramdas Pophale) SiO2 
 PCOD9531234
Probable space group: I B C A 
;
_chemical_formula_sum "Si O2"
_cell_formula_units_Z 88
_cell_length_a 10.528608
_cell_length_b 13.466737
_cell_length_c 28.509691
_cell_angle_alpha 90.000000
_cell_angle_beta 90.000000
_cell_angle_gamma 90.000000
_cell_volume 4042.274903
_symmetry_space_group_name_H-M "I B C A "
_symmetry_group_IT_number 73
_symmetry_cell_setting 'orthorhombic'
loop_
_space_group_symop_operation_xyz
x,y,z
-x,1/2-y,z
x,-y,1/2-z
1/2-x,y,-z
-x,-y,-z
x,1/2+y,-z
-x,y,1/2+z
1/2+x,-y,z
1/2+x,1/2+y,1/2+z
1/2-x,-y,1/2+z
1/2+x,1/2-y,-z
-x,1/2+y,1/2-z
1/2-x,1/2-y,1/2-z
1/2+x,y,1/2-z
1/2-x,1/2+y,z
x,1/2-y,1/2+z
loop_
_atom_site_type_symbol
_atom_site_label
_atom_site_fract_x
_atom_site_fract_y
_atom_site_fract_z
Si Si1 0.113885 0.314805 0.507678
Si Si2 0.891565 0.166982 0.684075
Si Si3 0.488707 0.000000 0.250000
Si Si4 0.888071 0.820814 0.193085
Si Si5 0.059318 0.402517 0.406529
Si Si6 0.670862 0.458292 0.907863
O O1 0.250000 0.261576 0.500000
O O2 0.069609 0.350869 0.456691
O O3 0.142250 0.405898 0.542465
O O4 0.000000 0.250000 0.528036
O O5 0.756316 0.212940 0.699506
O O6 0.865757 0.118973 0.633095
O O7 0.000000 0.250000 0.682222
O O8 0.930512 0.075258 0.717720
O O9 0.406057 0.071622 0.216806
O O10 0.912573 0.833597 0.137705
O O11 0.000000 0.750000 0.211564
O O12 0.178603 0.479442 0.405262
O O13 0.921958 0.449960 0.401470
#
# Coordination Sequence:
#
# PCOD9531234 Si02
#       6
#    16  16   8  16  16  16
#     4  10  21  36  58  88 124 160 203 249 301 367
#     4  11  25  43  66  95 127 165 210 260 316 376
#     4  12  24  44  68  90 126 164 214 262 322 368
#     4  11  25  43  66  95 127 165 210 260 316 376
#     4  10  21  39  61  90 123 161 205 252 306 368
#     4  10  21  39  61  90 123 161 205 252 306 368
#
# _framework density 21.769919000000002
#
# number of rings (size 3 to 8) (size 9 to 14) (size 15 to 20)
#    0.000    1.455    1.818    2.727    0.000    7.273 
#    0.000    0.000    0.000    0.000    0.000    0.000 
#    0.000    0.000    0.000    0.000    0.000    0.000 
#
# Total GULP energy -245863.397324 kJ/mol
# GULP energy per Si atom -5587.804485 kJ/mol
# Density = 2.172037 g / cm^3
# Si number density = 21.769919 Si / 1000 Ang^3
#
#
#
# Elastic Constant Matrix: (Units=GPa)
#
#
# Indices 1 2 3 4 5 6 
#
# 1 131.0133 25.4037 -27.9800 0.0000 0.0000 0.0000
# 2 25.4037 37.5685 -2.9261 0.0000 0.0000 0.0000
# 3 -27.9800 -2.9261 108.2159 0.0000 0.0000 0.0000
# 4 0.0000 0.0000 0.0000 39.5839 0.0000 0.0000
# 5 0.0000 0.0000 0.0000 0.0000 115.5287 0.0000
# 6 0.0000 0.0000 0.0000 0.0000 0.0000 37.7611
#
#
#
# Elastic Compliance Matrix: (Units=1/GPa)
#
#
# Indices 1 2 3 4 5 6 
#
# 1 0.009296 -0.006112 0.002238 0.000000 0.000000 0.000000
# 2 -0.006112 0.030692 -0.000750 0.000000 0.000000 0.000000
# 3 0.002238 -0.000750 0.009799 0.000000 0.000000 0.000000
# 4 0.000000 0.000000 0.000000 0.025263 0.000000 0.000000
# 5 0.000000 0.000000 0.000000 0.000000 0.008656 0.000000
# 6 0.000000 0.000000 0.000000 0.000000 0.000000 0.026482
#
#
# Mechanical properties :
#
#
# Convention : Reuss Voigt Hill
#
# Bulk Modulus (GPa) = 24.66688 29.53257 27.09972
# Shear Modulus (GPa) = 37.60852 57.39474 47.50163
#
# Velocity S-wave (km/s) = 4.16088 5.14018 4.67624
# Velocity P-wave (km/s) = 5.86850 6.98741 6.45225
#
# Compressibility (1/GPa) = 0.04054019
#
# Stress axis : x y z
#
# Youngs Moduli (GPa) = 107.57475 32.58162 102.04900
#
# Poissons Ratio (x) = 0.19912 -0.22841
# Poissons Ratio (y) = 0.65744 0.07656
# Poissons Ratio (z) = -0.24078 0.02445
#
# Static dielectric constant tensor:
#      x y z
#    x 1.817400 0.000000 0.000000 
#    y 0.000000 1.775100 0.000000 
#    z 0.000000 0.000000 1.790410 
# 
# From -- ./inp_files/14692.got.cif
#   From: 2010.05.17/outbox.cif.g08.bks.cpg/sg73_8_cif.got.tgz:14692.got - 2010.06.03 17:35:07.
