data_PCOD9531415
_publ_section_title
;
Structure prediction by ZEFSAII (Michael W. Deem and Ramdas Pophale) SiO2 
 PCOD9531415
Probable space group: I B C A 
;
_chemical_formula_sum "Si O2"
_cell_formula_units_Z 48
_cell_length_a 9.014123
_cell_length_b 14.072120
_cell_length_c 17.494704
_cell_angle_alpha 90.000000
_cell_angle_beta 90.000000
_cell_angle_gamma 90.000000
_cell_volume 2219.165074
_symmetry_space_group_name_H-M "I B C A "
_symmetry_group_IT_number 73
_symmetry_cell_setting 'orthorhombic'
loop_
_space_group_symop_operation_xyz
x,y,z
-x,1/2-y,z
x,-y,1/2-z
1/2-x,y,-z
-x,-y,-z
x,1/2+y,-z
-x,y,1/2+z
1/2+x,-y,z
1/2+x,1/2+y,1/2+z
1/2-x,-y,1/2+z
1/2+x,1/2-y,-z
-x,1/2+y,1/2-z
1/2-x,1/2-y,1/2-z
1/2+x,y,1/2-z
1/2-x,1/2+y,z
x,1/2-y,1/2+z
loop_
_atom_site_type_symbol
_atom_site_label
_atom_site_fract_x
_atom_site_fract_y
_atom_site_fract_z
Si Si1 0.605209 0.900521 0.056222
Si Si2 0.726069 0.228486 0.661788
Si Si3 0.950634 0.386592 0.406232
O O1 0.640702 0.824705 0.120456
O O2 0.565870 0.000348 0.095765
O O3 0.750000 0.914154 0.000000
O O4 0.483033 0.868037 0.995483
O O5 0.750000 0.250000 0.750000
O O6 0.690162 0.327869 0.620929
O O7 0.585765 0.158122 0.643449
#
# Coordination Sequence:
#
# PCOD9531415 Si02
#       3
#    16  16  16
#     4   9  19  39  66  89 115 154 200 249 292 352
#     4  10  21  39  61  90 124 155 192 246 306 358
#     4   9  20  40  61  88 117 154 203 242 294 355
#
# _framework density 21.629757000000001
#
# number of rings (size 3 to 8) (size 9 to 14) (size 15 to 20)
#    0.000    2.667    0.000    0.000    0.000    8.000 
#    0.000   50.000    0.000    0.000    0.000    0.000 
#    0.000    0.000    0.000    0.000    0.000    0.000 
#
# Total GULP energy -134080.064733 kJ/mol
# GULP energy per Si atom -5586.669364 kJ/mol
# Density = 2.158053 g / cm^3
# Si number density = 21.629757 Si / 1000 Ang^3
#
#
#
# Elastic Constant Matrix: (Units=GPa)
#
#
# Indices 1 2 3 4 5 6 
#
# 1 30.5235 41.7160 62.5728 0.0000 0.0000 0.0000
# 2 41.7160 142.2180 132.2467 0.0000 0.0000 0.0000
# 3 62.5728 132.2467 192.9488 0.0000 0.0000 0.0000
# 4 0.0000 0.0000 0.0000 -35.3797 0.0000 0.0000
# 5 0.0000 0.0000 0.0000 0.0000 22.7326 0.0000
# 6 0.0000 0.0000 0.0000 0.0000 0.0000 40.4433
#
#
#
# Elastic Compliance Matrix: (Units=1/GPa)
#
#
# Indices 1 2 3 4 5 6 
#
# 1 0.097994 0.002226 -0.033305 0.000000 0.000000 0.000000
# 2 0.002226 0.019439 -0.014045 0.000000 0.000000 0.000000
# 3 -0.033305 -0.014045 0.025610 0.000000 0.000000 0.000000
# 4 0.000000 0.000000 0.000000 -0.028265 0.000000 0.000000
# 5 0.000000 0.000000 0.000000 0.000000 0.043990 0.000000
# 6 0.000000 0.000000 0.000000 0.000000 0.000000 0.024726
#
#
# Mechanical properties :
#
#
# Convention : Reuss Voigt Hill
#
# Bulk Modulus (GPa) = 18.94142 93.19570 56.06856
# Shear Modulus (GPa) = 17.16202 14.16956 15.66579
#
# Velocity S-wave (km/s) = 2.81987 2.56226 2.69415
# Velocity P-wave (km/s) = 4.40209 7.20652 5.97128
#
# Compressibility (1/GPa) = 0.05279434
#
# Stress axis : x y z
#
# Youngs Moduli (GPa) = 10.20472 51.44232 39.04732
#
# Poissons Ratio (x) = -0.11448 1.30045
# Poissons Ratio (y) = -0.02271 0.54843
# Poissons Ratio (z) = 0.33986 0.72253
#
# Static dielectric constant tensor:
#      x y z
#    x 1.935860 0.000000 0.000000 
#    y 0.000000 1.779190 0.000000 
#    z 0.000000 0.000000 1.718070 
# 
# From -- ./inp_files/4297.got.cif
#   From: 2010.05.17/outbox.cif.g08.bks.cpg/sg73_3_cif.got.tgz:4297.got - 2010.06.03 17:35:07.
