data_PCOD9531320
_publ_section_title
;
Structure prediction by ZEFSAII (Michael W. Deem and Ramdas Pophale) SiO2 
 PCOD9531320
Probable space group: I B C A 
;
_chemical_formula_sum "Si O2"
_cell_formula_units_Z 80
_cell_length_a 8.649434
_cell_length_b 19.076052
_cell_length_c 21.583262
_cell_angle_alpha 90.000000
_cell_angle_beta 90.000000
_cell_angle_gamma 90.000000
_cell_volume 3561.174619
_symmetry_space_group_name_H-M "I B C A "
_symmetry_group_IT_number 73
_symmetry_cell_setting 'orthorhombic'
loop_
_space_group_symop_operation_xyz
x,y,z
-x,1/2-y,z
x,-y,1/2-z
1/2-x,y,-z
-x,-y,-z
x,1/2+y,-z
-x,y,1/2+z
1/2+x,-y,z
1/2+x,1/2+y,1/2+z
1/2-x,-y,1/2+z
1/2+x,1/2-y,-z
-x,1/2+y,1/2-z
1/2-x,1/2-y,1/2-z
1/2+x,y,1/2-z
1/2-x,1/2+y,z
x,1/2-y,1/2+z
loop_
_atom_site_type_symbol
_atom_site_label
_atom_site_fract_x
_atom_site_fract_y
_atom_site_fract_z
Si Si1 0.944630 0.533273 0.099863
Si Si2 0.500000 0.250000 0.219332
Si Si3 0.029512 0.117791 0.593202
Si Si4 0.250000 0.377809 0.000000
Si Si5 0.745449 0.419910 0.837820
Si Si6 0.734200 0.652377 0.207990
O O1 0.838525 0.494453 0.151199
O O2 0.014023 0.462446 0.068539
O O3 0.084250 0.573206 0.133657
O O4 0.844876 0.577653 0.051692
O O5 0.614897 0.292442 0.262931
O O6 0.387524 0.305876 0.186060
O O7 0.116793 0.160450 0.539966
O O8 0.140010 0.118321 0.652653
O O9 0.858982 0.133030 0.620004
O O10 0.733802 0.397232 0.766856
#
# Coordination Sequence:
#
# PCOD9531320 Si02
#       6
#    16   8  16   8  16  16
#     4  10  21  38  57  85 130 174 195 243 280 377
#     4  10  22  40  70  86 118 150 208 274 330 380
#     4  10  22  38  57  88 126 165 206 244 290 379
#     4  12  22  38  60  86 130 180 212 226 290 364
#     4  10  22  38  58  89 129 161 203 249 310 370
#     4  11  22  42  62  97 115 159 204 267 332 365
#
# _framework density 22.464497000000001
#
# number of rings (size 3 to 8) (size 9 to 14) (size 15 to 20)
#    1.200    0.400    4.000    0.600    2.800    1.600 
#    7.200    0.000    0.000    1.200    0.000    0.000 
#    0.000    0.000    0.000    0.000    0.000    0.000 
#
# Total GULP energy -222791.418235 kJ/mol
# GULP energy per Si atom -5569.785456 kJ/mol
# Density = 2.241337 g / cm^3
# Si number density = 22.464497 Si / 1000 Ang^3
#
#
#
# Elastic Constant Matrix: (Units=GPa)
#
#
# Indices 1 2 3 4 5 6 
#
# 1 145.5458 39.0269 41.1539 0.0000 0.0000 0.0000
# 2 39.0269 16.1914 17.6950 0.0000 0.0000 0.0000
# 3 41.1539 17.6950 92.6467 0.0000 0.0000 0.0000
# 4 0.0000 0.0000 0.0000 3.1840 0.0000 0.0000
# 5 0.0000 0.0000 0.0000 0.0000 38.8558 0.0000
# 6 0.0000 0.0000 0.0000 0.0000 0.0000 35.1745
#
#
#
# Elastic Compliance Matrix: (Units=1/GPa)
#
#
# Indices 1 2 3 4 5 6 
#
# 1 0.019437 -0.047285 0.000397 0.000000 0.000000 0.000000
# 2 -0.047285 0.193082 -0.015874 -0.000001 0.000000 0.000000
# 3 0.000397 -0.015874 0.013649 0.000000 0.000000 0.000000
# 4 0.000000 -0.000001 0.000000 0.314065 0.000000 0.000000
# 5 0.000000 0.000000 0.000000 0.000000 0.025736 0.000000
# 6 0.000000 0.000000 0.000000 0.000000 0.000000 0.028430
#
#
# Mechanical properties :
#
#
# Convention : Reuss Voigt Hill
#
# Bulk Modulus (GPa) = 9.93586 50.01506 29.97546
# Shear Modulus (GPa) = 6.63595 25.87675 16.25635
#
# Velocity S-wave (km/s) = 1.72058 3.39764 2.69299
# Velocity P-wave (km/s) = 2.89477 6.14038 4.80021
#
# Compressibility (1/GPa) = 0.10064557
#
# Stress axis : x y z
#
# Youngs Moduli (GPa) = 51.44695 5.17915 73.26482
#
# Poissons Ratio (x) = 0.24490 -0.02908
# Poissons Ratio (y) = 2.43267 1.16297
# Poissons Ratio (z) = -0.02042 0.08221
#
# Static dielectric constant tensor:
#      x y z
#    x 1.911030 0.000000 0.000000 
#    y 0.000000 1.925430 0.000000 
#    z 0.000000 0.000000 1.814050 
# 
# From -- ./inp_files/28376.got.cif
#   From: 2010.05.17/outbox.cif.g08.bks.cpg/sg73_15_cif.got.tgz:28376.got - 2010.06.03 17:35:07.
