data_PCOD9531528
_publ_section_title
;
Structure prediction by ZEFSAII (Michael W. Deem and Ramdas Pophale) SiO2 
 PCOD9531528
Probable space group: I B C A 
;
_chemical_formula_sum "Si O2"
_cell_formula_units_Z 88
_cell_length_a 15.241418
_cell_length_b 30.274486
_cell_length_c 8.381983
_cell_angle_alpha 90.000000
_cell_angle_beta 90.000000
_cell_angle_gamma 90.000000
_cell_volume 3867.665691
_symmetry_space_group_name_H-M "I B C A "
_symmetry_group_IT_number 73
_symmetry_cell_setting 'orthorhombic'
loop_
_space_group_symop_operation_xyz
x,y,z
-x,1/2-y,z
x,-y,1/2-z
1/2-x,y,-z
-x,-y,-z
x,1/2+y,-z
-x,y,1/2+z
1/2+x,-y,z
1/2+x,1/2+y,1/2+z
1/2-x,-y,1/2+z
1/2+x,1/2-y,-z
-x,1/2+y,1/2-z
1/2-x,1/2-y,1/2-z
1/2+x,y,1/2-z
1/2-x,1/2+y,z
x,1/2-y,1/2+z
loop_
_atom_site_type_symbol
_atom_site_label
_atom_site_fract_x
_atom_site_fract_y
_atom_site_fract_z
Si Si1 0.654385 0.684732 0.490189
Si Si2 0.525493 0.414145 0.222480
Si Si3 0.340346 0.476603 0.573569
Si Si4 0.040124 0.148707 0.509591
Si Si5 0.401496 0.232236 0.332301
Si Si6 0.418508 0.500000 0.250000
O O1 0.750000 0.662791 0.500000
O O2 0.565020 0.657870 0.523603
O O3 0.653813 0.726144 0.611621
O O4 0.636745 0.706434 0.317421
O O5 0.594835 0.435798 0.102927
O O6 0.571990 0.384115 0.352936
O O7 0.476856 0.457297 0.284792
O O8 0.455217 0.380651 0.146875
O O9 0.331437 0.500000 0.750000
O O10 0.250000 0.459715 0.500000
O O11 0.372233 0.507091 0.423029
O O12 0.085858 0.195831 0.527137
O O13 0.500000 0.250000 0.295215
#
# Coordination Sequence:
#
# PCOD9531528 Si02
#       6
#    16  16  16  16  16   8
#     4  11  23  40  65  96 132 171 217 281 348 404
#     4  12  23  44  69  98 130 180 235 281 340 413
#     4  12  25  44  70 101 138 178 232 292 359 411
#     4  11  23  40  67  94 133 172 227 281 330 413
#     4  10  21  40  64  91 126 174 223 266 334 420
#     4  12  24  46  74  98 136 188 238 292 344 428
#
# _framework density 22.752742000000001
#
# number of rings (size 3 to 8) (size 9 to 14) (size 15 to 20)
#    0.000    0.727    5.455    3.818    2.545    0.727 
#    0.000    0.000    0.000    0.000    0.000    0.000 
#    0.000    0.000    0.000    0.000    0.000    0.000 
#
# Total GULP energy -245450.886889 kJ/mol
# GULP energy per Si atom -5578.429247 kJ/mol
# Density = 2.270096 g / cm^3
# Si number density = 22.752742 Si / 1000 Ang^3
#
#
#
# Elastic Constant Matrix: (Units=GPa)
#
#
# Indices 1 2 3 4 5 6 
#
# 1 59.4744 0.7064 6.1562 0.0000 -0.0089 0.0009
# 2 0.7064 77.8075 19.1996 0.0032 -0.0108 0.0024
# 3 6.1562 19.1996 105.1167 -0.0040 -0.0391 -0.0101
# 4 0.0000 0.0032 -0.0040 43.5087 -0.0125 -0.0024
# 5 -0.0089 -0.0108 -0.0391 -0.0125 -44.1688 -0.0215
# 6 0.0009 0.0024 -0.0101 -0.0024 -0.0215 -21.5782
#
#
#
# Elastic Compliance Matrix: (Units=1/GPa)
#
#
# Indices 1 2 3 4 5 6 
#
# 1 0.016917 0.000095 -0.001008 0.000000 -0.000003 0.000001
# 2 0.000095 0.013459 -0.002464 -0.000001 -0.000001 0.000003
# 3 -0.001008 -0.002464 0.010022 0.000001 -0.000008 -0.000005
# 4 0.000000 -0.000001 0.000001 0.022984 -0.000007 -0.000003
# 5 -0.000003 -0.000001 -0.000008 -0.000007 -0.022640 0.000023
# 6 0.000001 0.000003 -0.000005 -0.000003 0.000023 -0.046343
#
#
# Mechanical properties :
#
#
# Convention : Reuss Voigt Hill
#
# Bulk Modulus (GPa) = 29.72203 32.72477 31.22340
# Shear Modulus (GPa) = 404.26336 9.97475 207.11905
#
# Velocity S-wave (km/s) = 13.34401 2.09607 9.55133
# Velocity P-wave (km/s) = 15.82745 4.50244 11.63572
#
# Compressibility (1/GPa) = 0.03364507
#
# Stress axis : x y z
#
# Youngs Moduli (GPa) = 59.11146 74.29777 99.77731
#
# Poissons Ratio (x) = -0.00707 0.10059
# Poissons Ratio (y) = -0.00563 0.24584
# Poissons Ratio (z) = 0.05959 0.18306
#
# Static dielectric constant tensor:
#      x y z
#    x 1.894250 0.000000 0.000000 
#    y 0.000000 1.816320 -0.000010 
#    z 0.000000 -0.000010 1.978360 
# 
# From -- ./inp_files/5716.got.cif
#   From: 2010.05.17/outbox.cif.g08.bks.cpg/sg73_3_cif.got.tgz:5716.got - 2010.06.03 17:35:07.
