data_PCOD9531645
_publ_section_title
;
Structure prediction by ZEFSAII (Michael W. Deem and Ramdas Pophale) SiO2 
 PCOD9531645
Probable space group: I B C A 
;
_chemical_formula_sum "Si O2"
_cell_formula_units_Z 56
_cell_length_a 5.610541
_cell_length_b 20.380524
_cell_length_c 18.204449
_cell_angle_alpha 90.000000
_cell_angle_beta 90.000000
_cell_angle_gamma 90.000000
_cell_volume 2081.601656
_symmetry_space_group_name_H-M "I B C A "
_symmetry_group_IT_number 73
_symmetry_cell_setting 'orthorhombic'
loop_
_space_group_symop_operation_xyz
x,y,z
-x,1/2-y,z
x,-y,1/2-z
1/2-x,y,-z
-x,-y,-z
x,1/2+y,-z
-x,y,1/2+z
1/2+x,-y,z
1/2+x,1/2+y,1/2+z
1/2-x,-y,1/2+z
1/2+x,1/2-y,-z
-x,1/2+y,1/2-z
1/2-x,1/2-y,1/2-z
1/2+x,y,1/2-z
1/2-x,1/2+y,z
x,1/2-y,1/2+z
loop_
_atom_site_type_symbol
_atom_site_label
_atom_site_fract_x
_atom_site_fract_y
_atom_site_fract_z
Si Si1 0.030631 0.884258 0.777712
Si Si2 0.998949 0.026185 0.915206
Si Si3 0.000000 0.750000 0.186764
Si Si4 0.753802 0.660364 0.085653
O O1 0.285048 0.914171 0.752087
O O2 0.049067 0.813239 0.735968
O O3 0.043704 0.872295 0.865525
O O4 0.960419 0.104329 0.910393
O O5 0.752639 0.996014 0.884537
O O6 0.000000 0.000000 0.000000
O O7 0.199461 0.773571 0.130020
O O8 0.750000 0.674053 0.000000
#
# Coordination Sequence:
#
# PCOD9531645 Si02
#       4
#    16  16   8  16
#     4  10  22  43  64  90 137 185 209 266 347 411
#     4  10  21  42  64  93 133 174 215 281 346 385
#     4  10  24  42  64 100 146 184 218 280 362 422
#     4  11  22  40  69 105 132 177 231 286 336 415
#
# _framework density 26.902360000000002
#
# number of rings (size 3 to 8) (size 9 to 14) (size 15 to 20)
#    0.000    1.714    2.857    3.429    0.000    8.000 
#    5.143    0.000    0.000   20.571    0.000    0.000 
#    0.000    0.000    0.000    0.000    0.000    0.000 
#
# Total GULP energy -156347.397583 kJ/mol
# GULP energy per Si atom -5583.835628 kJ/mol
# Density = 2.684113 g / cm^3
# Si number density = 26.902360 Si / 1000 Ang^3
#
#
#
# Elastic Constant Matrix: (Units=GPa)
#
#
# Indices 1 2 3 4 5 6 
#
# 1 193.9396 5.9110 26.7472 0.0000 0.0000 0.0000
# 2 5.9110 88.5805 21.7573 0.0000 0.0000 0.0000
# 3 26.7472 21.7573 228.9968 0.0000 0.0000 0.0000
# 4 0.0000 0.0000 0.0000 49.7118 0.0000 0.0000
# 5 0.0000 0.0000 0.0000 0.0000 21.2269 0.0000
# 6 0.0000 0.0000 0.0000 0.0000 0.0000 16.1695
#
#
#
# Elastic Compliance Matrix: (Units=1/GPa)
#
#
# Indices 1 2 3 4 5 6 
#
# 1 0.005244 -0.000204 -0.000593 0.000000 0.000000 0.000000
# 2 -0.000204 0.011567 -0.001075 0.000000 0.000000 0.000000
# 3 -0.000593 -0.001075 0.004538 0.000000 0.000000 0.000000
# 4 0.000000 0.000000 0.000000 0.020116 0.000000 0.000000
# 5 0.000000 0.000000 0.000000 0.000000 0.047110 0.000000
# 6 0.000000 0.000000 0.000000 0.000000 0.000000 0.061845
#
#
# Mechanical properties :
#
#
# Convention : Reuss Voigt Hill
#
# Bulk Modulus (GPa) = 56.80400 68.92757 62.86578
# Shear Modulus (GPa) = 31.24349 47.89506 39.56927
#
# Velocity S-wave (km/s) = 3.41158 4.22397 3.83932
# Velocity P-wave (km/s) = 6.05634 7.03323 6.56298
#
# Compressibility (1/GPa) = 0.01760439
#
# Stress axis : x y z
#
# Youngs Moduli (GPa) = 190.68422 86.45379 220.34677
#
# Poissons Ratio (x) = 0.01766 0.13069
# Poissons Ratio (y) = 0.03895 0.23690
# Poissons Ratio (z) = 0.11310 0.09295
#
# Static dielectric constant tensor:
#      x y z
#    x 2.479340 0.000000 0.000000 
#    y 0.000000 2.124380 0.000000 
#    z 0.000000 0.000000 2.135440 
# 
# From -- ./inp_files/20340.got.cif
#   From: 2010.05.17/outbox.cif.g08.bks.cpg/sg73_11_cif.got.tgz:20340.got - 2010.06.03 17:35:07.
