data_PCOD9531039
_publ_section_title
;
Structure prediction by ZEFSAII (Michael W. Deem and Ramdas Pophale) SiO2 
 PCOD9531039
Probable space group: I B C A 
;
_chemical_formula_sum "Si O2"
_cell_formula_units_Z 120
_cell_length_a 23.109491
_cell_length_b 13.463775
_cell_length_c 17.773332
_cell_angle_alpha 90.000000
_cell_angle_beta 90.000000
_cell_angle_gamma 90.000000
_cell_volume 5530.012064
_symmetry_space_group_name_H-M "I B C A "
_symmetry_group_IT_number 73
_symmetry_cell_setting 'orthorhombic'
loop_
_space_group_symop_operation_xyz
x,y,z
-x,1/2-y,z
x,-y,1/2-z
1/2-x,y,-z
-x,-y,-z
x,1/2+y,-z
-x,y,1/2+z
1/2+x,-y,z
1/2+x,1/2+y,1/2+z
1/2-x,-y,1/2+z
1/2+x,1/2-y,-z
-x,1/2+y,1/2-z
1/2-x,1/2-y,1/2-z
1/2+x,y,1/2-z
1/2-x,1/2+y,z
x,1/2-y,1/2+z
loop_
_atom_site_type_symbol
_atom_site_label
_atom_site_fract_x
_atom_site_fract_y
_atom_site_fract_z
Si Si1 0.657371 0.522548 0.631177
Si Si2 0.672120 0.749426 0.684071
Si Si3 0.500000 0.250000 0.765600
Si Si4 0.434687 0.273166 0.546612
Si Si5 0.888627 0.487106 0.964508
Si Si6 0.940184 0.667253 0.893223
Si Si7 0.884299 0.321274 0.319720
Si Si8 0.770111 0.595015 0.916841
O O1 0.665957 0.634987 0.658536
O O2 0.622758 0.524712 0.552705
O O3 0.626922 0.438721 0.682511
O O4 0.720426 0.476105 0.614638
O O5 0.616141 0.809467 0.655714
O O6 0.665127 0.739175 0.774139
O O7 0.720289 0.813213 0.640424
O O8 0.488107 0.335604 0.828349
O O9 0.555396 0.284604 0.718091
O O10 0.500000 0.250000 0.571824
O O11 0.412200 0.382544 0.564147
O O12 0.437456 0.251804 0.457623
O O13 0.390265 0.203976 0.592068
O O14 0.936000 0.568344 0.941658
O O15 0.828541 0.529853 0.929821
O O16 0.750000 0.630668 0.000000
#
# Coordination Sequence:
#
# PCOD9531039 Si02
#       8
#    16  16   8  16  16  16  16  16
#     4  11  21  40  69  99 131 173 225 277 338 407
#     4  10  22  42  63  95 136 176 212 278 341 398
#     4  10  22  44  62  88 134 182 216 278 342 402
#     4  12  23  41  65  96 130 177 223 280 332 399
#     4  10  22  41  64 100 128 168 225 283 323 398
#     4  10  20  41  64  88 130 172 221 268 330 397
#     4  11  24  42  63  95 138 170 225 277 341 410
#     4   9  22  41  69 101 133 175 231 274 336 403
#
# _framework density 21.699771999999999
#
# number of rings (size 3 to 8) (size 9 to 14) (size 15 to 20)
#    0.000    1.600    4.000    0.400    0.000    3.733 
#    7.200    7.333    0.000    0.000    0.000    0.000 
#    0.000    0.000    0.000    0.000    0.000    0.000 
#
# Total GULP energy -334376.516665 kJ/mol
# GULP energy per Si atom -5572.941944 kJ/mol
# Density = 2.165038 g / cm^3
# Si number density = 21.699772 Si / 1000 Ang^3
#
#
#
# Elastic Constant Matrix: (Units=GPa)
#
#
# Indices 1 2 3 4 5 6 
#
# 1 41.2487 18.5895 27.9059 0.0000 0.0000 0.0000
# 2 18.5895 105.1001 0.6543 0.0000 0.0000 0.0000
# 3 27.9059 0.6543 63.1284 0.0000 0.0000 0.0000
# 4 0.0000 0.0000 0.0000 297.8970 0.0000 0.0000
# 5 0.0000 0.0000 0.0000 0.0000 8.4536 0.0000
# 6 0.0000 0.0000 0.0000 0.0000 0.0000 708.3297
#
#
#
# Elastic Compliance Matrix: (Units=1/GPa)
#
#
# Indices 1 2 3 4 5 6 
#
# 1 0.038871 -0.006769 -0.017113 0.000000 0.000000 0.000000
# 2 -0.006769 0.010694 0.002881 0.000000 0.000000 0.000000
# 3 -0.017113 0.002881 0.023376 0.000000 0.000000 0.000000
# 4 0.000000 0.000000 0.000000 0.003357 0.000000 0.000000
# 5 0.000000 0.000000 0.000000 0.000000 0.118293 0.000000
# 6 0.000000 0.000000 0.000000 0.000000 0.000000 0.001412
#
#
# Mechanical properties :
#
#
# Convention : Reuss Voigt Hill
#
# Bulk Modulus (GPa) = 32.32049 33.75294 33.03671
# Shear Modulus (GPa) = 20.13567 213.75789 116.94678
#
# Velocity S-wave (km/s) = 3.04948 9.93584 7.34916
# Velocity P-wave (km/s) = 5.22741 12.13326 9.34189
#
# Compressibility (1/GPa) = 0.03094012
#
# Stress axis : x y z
#
# Youngs Moduli (GPa) = 25.72624 93.51028 42.77978
#
# Poissons Ratio (x) = 0.63294 0.73208
# Poissons Ratio (y) = 0.17413 -0.12326
# Poissons Ratio (z) = 0.44025 -0.26943
#
# Static dielectric constant tensor:
#      x y z
#    x 1.872500 0.000000 0.000000 
#    y 0.000000 1.807680 0.000000 
#    z 0.000000 0.000000 1.832710 
# 
# From -- ./inp_files/23949.got.cif
#   From: 2010.05.17/outbox.cif.g08.bks.cpg/sg73_12_cif.got.tgz:23949.got - 2010.06.03 17:35:07.
