data_PCOD9531256
_publ_section_title
;
Structure prediction by ZEFSAII (Michael W. Deem and Ramdas Pophale) SiO2 
 PCOD9531256
Probable space group: I B C A 
;
_chemical_formula_sum "Si O2"
_cell_formula_units_Z 112
_cell_length_a 35.094958
_cell_length_b 5.240664
_cell_length_c 29.512594
_cell_angle_alpha 90.000000
_cell_angle_beta 90.000000
_cell_angle_gamma 90.000000
_cell_volume 5427.982347
_symmetry_space_group_name_H-M "I B C A "
_symmetry_group_IT_number 73
_symmetry_cell_setting 'orthorhombic'
loop_
_space_group_symop_operation_xyz
x,y,z
-x,1/2-y,z
x,-y,1/2-z
1/2-x,y,-z
-x,-y,-z
x,1/2+y,-z
-x,y,1/2+z
1/2+x,-y,z
1/2+x,1/2+y,1/2+z
1/2-x,-y,1/2+z
1/2+x,1/2-y,-z
-x,1/2+y,1/2-z
1/2-x,1/2-y,1/2-z
1/2+x,y,1/2-z
1/2-x,1/2+y,z
x,1/2-y,1/2+z
loop_
_atom_site_type_symbol
_atom_site_label
_atom_site_fract_x
_atom_site_fract_y
_atom_site_fract_z
Si Si1 0.544500 0.703383 0.480863
Si Si2 0.223339 0.000000 0.250000
Si Si3 0.423329 0.985285 0.107805
Si Si4 0.974365 0.000000 0.750000
Si Si5 0.331020 0.996741 0.662204
Si Si6 0.079735 0.490601 0.835163
Si Si7 0.765693 0.364534 0.948817
Si Si8 0.164843 0.498393 0.101497
O O1 0.500000 0.750000 0.490790
O O2 0.561534 0.487063 0.514239
O O3 0.549424 0.576779 0.432108
O O4 0.250000 0.750000 0.250000
O O5 0.196660 0.994714 0.294729
O O6 0.425242 0.204443 0.146008
O O7 0.379737 0.988761 0.090123
O O8 0.430545 0.705615 0.127603
O O9 0.947339 0.966498 0.793056
O O10 0.000000 0.750000 0.744139
O O11 0.375612 0.972299 0.676525
O O12 0.324380 0.758530 0.628395
O O13 0.328349 0.262476 0.634958
O O14 0.741078 0.590174 0.926993
O O15 0.808711 0.454811 0.942162
O O16 0.750000 0.333028 0.000000
#
# Coordination Sequence:
#
# PCOD9531256 Si02
#       8
#    16   8  16   8  16  16  16  16
#     4  10  21  38  58  86 120 153 191 244 309 355
#     4  12  25  38  57  92 118 144 204 248 299 350
#     4  10  21  39  62  90 114 159 210 248 293 359
#     4  12  25  40  61  96 130 160 204 250 307 364
#     4  10  22  40  61  83 117 159 195 245 299 351
#     4  10  22  41  63  85 125 162 203 245 303 363
#     4  10  21  37  54  79 115 151 190 237 294 362
#     4  10  21  38  60  85 112 153 202 241 290 355
#
# _framework density 20.633818999999999
#
# number of rings (size 3 to 8) (size 9 to 14) (size 15 to 20)
#    0.000    1.714    0.000    3.857    0.000    5.143 
#    5.143    5.714    0.000    0.000    0.000    0.000 
#    0.000    0.000    0.000    0.000    0.000    0.000 
#
# Total GULP energy -312622.160768 kJ/mol
# GULP energy per Si atom -5582.538585 kJ/mol
# Density = 2.058686 g / cm^3
# Si number density = 20.633819 Si / 1000 Ang^3
#
#
#
# Elastic Constant Matrix: (Units=GPa)
#
#
# Indices 1 2 3 4 5 6 
#
# 1 41.9098 34.8191 35.9500 0.0000 0.0000 0.0000
# 2 34.8191 142.9311 17.3611 0.0000 0.0000 0.0000
# 3 35.9500 17.3611 54.8162 0.0000 0.0000 0.0000
# 4 0.0000 0.0000 0.0000 23.7629 0.0000 0.0000
# 5 0.0000 0.0000 0.0000 0.0000 46.9747 0.0000
# 6 0.0000 0.0000 0.0000 0.0000 0.0000 30.4806
#
#
#
# Elastic Compliance Matrix: (Units=1/GPa)
#
#
# Indices 1 2 3 4 5 6 
#
# 1 0.069749 -0.011893 -0.041977 0.000000 0.000000 0.000000
# 2 -0.011893 0.009304 0.004853 0.000000 0.000000 0.000000
# 3 -0.041977 0.004853 0.044235 0.000000 0.000000 0.000000
# 4 0.000000 0.000000 0.000000 0.042082 0.000000 0.000000
# 5 0.000000 0.000000 0.000000 0.000000 0.021288 0.000000
# 6 0.000000 0.000000 0.000000 0.000000 0.000000 0.032808
#
#
# Mechanical properties :
#
#
# Convention : Reuss Voigt Hill
#
# Bulk Modulus (GPa) = 39.59590 46.21306 42.90448
# Shear Modulus (GPa) = 15.34132 30.34543 22.84337
#
# Velocity S-wave (km/s) = 2.72968 3.83909 3.33090
# Velocity P-wave (km/s) = 5.40059 6.48821 5.96922
#
# Compressibility (1/GPa) = 0.02525514
#
# Stress axis : x y z
#
# Youngs Moduli (GPa) = 14.33721 107.47999 22.60640
#
# Poissons Ratio (x) = 1.27821 0.94894
# Poissons Ratio (y) = 0.17051 -0.10970
# Poissons Ratio (z) = 0.60183 -0.52158
#
# Static dielectric constant tensor:
#      x y z
#    x 1.734540 0.000000 0.000000 
#    y 0.000000 1.782510 0.000000 
#    z 0.000000 0.000000 0.889680 
# 
# From -- ./inp_files/34951.got.cif
#   From: 2010.05.17/outbox.cif.g08.bks.cpg/sg73_18_cif.got.tgz:34951.got - 2010.06.03 17:35:07.
