data_PCOD9531380
_publ_section_title
;
Structure prediction by ZEFSAII (Michael W. Deem and Ramdas Pophale) SiO2 
 PCOD9531380
Probable space group: I B C A 
;
_chemical_formula_sum "Si O2"
_cell_formula_units_Z 96
_cell_length_a 8.705553
_cell_length_b 16.808019
_cell_length_c 28.555205
_cell_angle_alpha 90.000000
_cell_angle_beta 90.000000
_cell_angle_gamma 90.000000
_cell_volume 4178.286123
_symmetry_space_group_name_H-M "I B C A "
_symmetry_group_IT_number 73
_symmetry_cell_setting 'orthorhombic'
loop_
_space_group_symop_operation_xyz
x,y,z
-x,1/2-y,z
x,-y,1/2-z
1/2-x,y,-z
-x,-y,-z
x,1/2+y,-z
-x,y,1/2+z
1/2+x,-y,z
1/2+x,1/2+y,1/2+z
1/2-x,-y,1/2+z
1/2+x,1/2-y,-z
-x,1/2+y,1/2-z
1/2-x,1/2-y,1/2-z
1/2+x,y,1/2-z
1/2-x,1/2+y,z
x,1/2-y,1/2+z
loop_
_atom_site_type_symbol
_atom_site_label
_atom_site_fract_x
_atom_site_fract_y
_atom_site_fract_z
Si Si1 0.126082 0.455514 0.145112
Si Si2 0.000000 0.250000 0.391689
Si Si3 0.587064 0.857249 0.472873
Si Si4 0.705406 0.592898 0.765912
Si Si5 0.871474 0.983780 0.922912
Si Si6 0.598177 0.866566 0.816867
Si Si7 0.250000 0.372092 0.500000
O O1 0.165534 0.410298 0.192983
O O2 0.276153 0.463849 0.113663
O O3 0.094816 0.545807 0.161020
O O4 0.991812 0.434895 0.108773
O O5 0.096562 0.193357 0.425456
O O6 0.103146 0.303244 0.357777
O O7 0.750000 0.850150 0.500000
O O8 0.566331 0.950295 0.459058
O O9 0.420745 0.832789 0.495678
O O10 0.673760 0.500000 0.750000
O O11 0.559217 0.635729 0.787638
O O12 0.765081 0.636184 0.719953
O O13 0.769197 0.924427 0.953144
#
# Coordination Sequence:
#
# PCOD9531380 Si02
#       7
#    16   8  16  16  16  16   8
#     4  11  20  35  63  98 132 169 211 280 351 408
#     4  12  26  48  66  92 138 188 242 272 326 418
#     4  12  26  45  71  99 139 187 230 288 344 412
#     4  10  21  38  65 100 130 168 221 285 355 405
#     4  12  20  38  65 103 136 167 219 286 357 412
#     4  11  23  40  65  92 134 179 222 279 335 410
#     4  12  24  42  72 108 134 174 230 294 370 416
#
# _framework density 22.975928
#
# number of rings (size 3 to 8) (size 9 to 14) (size 15 to 20)
#    0.000    0.667    5.833    3.000    3.500    0.667 
#    0.000    0.000    3.667    0.000    0.000    0.000 
#    0.000    0.000    0.000    0.000    0.000    0.000 
#
# Total GULP energy -268177.215202 kJ/mol
# GULP energy per Si atom -5587.025317 kJ/mol
# Density = 2.292363 g / cm^3
# Si number density = 22.975928 Si / 1000 Ang^3
#
#
#
# Elastic Constant Matrix: (Units=GPa)
#
#
# Indices 1 2 3 4 5 6 
#
# 1 121.9932 17.0095 57.6898 0.0000 0.0000 0.0000
# 2 17.0095 27.9815 38.3937 0.0000 0.0000 -0.0001
# 3 57.6898 38.3937 125.7440 0.0000 0.0000 -0.0001
# 4 0.0000 0.0000 0.0000 38.2958 0.0000 -0.0001
# 5 0.0000 0.0000 0.0000 0.0000 98.7880 0.0000
# 6 0.0000 -0.0001 -0.0001 -0.0001 0.0000 -380.2775
#
#
#
# Elastic Compliance Matrix: (Units=1/GPa)
#
#
# Indices 1 2 3 4 5 6 
#
# 1 0.010471 0.000390 -0.004923 0.000000 0.000000 0.000000
# 2 0.000390 0.061520 -0.018963 0.000000 0.000000 0.000000
# 3 -0.004923 -0.018963 0.016001 0.000000 0.000000 0.000000
# 4 0.000000 0.000000 0.000000 0.026113 0.000000 0.000000
# 5 0.000000 0.000000 0.000000 0.000000 0.010123 0.000000
# 6 0.000000 0.000000 0.000000 0.000000 0.000000 -0.002630
#
#
# Mechanical properties :
#
#
# Convention : Reuss Voigt Hill
#
# Bulk Modulus (GPa) = 24.39016 55.76717 40.07866
# Shear Modulus (GPa) = 27.43381 -37.79702 -5.18160
#
# Velocity S-wave (km/s) = 3.45921 -4.06035 -1.50337
# Velocity P-wave (km/s) = 5.15688 1.53062 3.80370
#
# Compressibility (1/GPa) = 0.04100015
#
# Stress axis : x y z
#
# Youngs Moduli (GPa) = 95.50336 16.25479 62.49529
#
# Poissons Ratio (x) = -0.00633 0.30766
# Poissons Ratio (y) = -0.03722 1.18509
# Poissons Ratio (z) = 0.47015 0.30824
#
# Static dielectric constant tensor:
#      x y z
#    x 1.959840 0.000000 0.000000 
#    y 0.000000 1.933670 0.000000 
#    z 0.000000 0.000000 1.919100 
# 
# From -- ./inp_files/31209.got.cif
#   From: 2010.05.17/outbox.cif.g08.bks.cpg/sg73_16_cif.got.tgz:31209.got - 2010.06.03 17:35:07.
