data_PCOD9531391
_publ_section_title
;
Structure prediction by ZEFSAII (Michael W. Deem and Ramdas Pophale) SiO2 
 PCOD9531391
Probable space group: I B C A 
;
_chemical_formula_sum "Si O2"
_cell_formula_units_Z 96
_cell_length_a 13.988262
_cell_length_b 15.385598
_cell_length_c 21.197023
_cell_angle_alpha 90.000000
_cell_angle_beta 90.000000
_cell_angle_gamma 90.000000
_cell_volume 4561.976145
_symmetry_space_group_name_H-M "I B C A "
_symmetry_group_IT_number 73
_symmetry_cell_setting 'orthorhombic'
loop_
_space_group_symop_operation_xyz
x,y,z
-x,1/2-y,z
x,-y,1/2-z
1/2-x,y,-z
-x,-y,-z
x,1/2+y,-z
-x,y,1/2+z
1/2+x,-y,z
1/2+x,1/2+y,1/2+z
1/2-x,-y,1/2+z
1/2+x,1/2-y,-z
-x,1/2+y,1/2-z
1/2-x,1/2-y,1/2-z
1/2+x,y,1/2-z
1/2-x,1/2+y,z
x,1/2-y,1/2+z
loop_
_atom_site_type_symbol
_atom_site_label
_atom_site_fract_x
_atom_site_fract_y
_atom_site_fract_z
Si Si1 0.503418 0.158624 0.103093
Si Si2 0.709629 0.468114 0.822052
Si Si3 0.542509 0.657371 0.635099
Si Si4 0.363809 0.875961 0.505222
Si Si5 0.666312 0.933646 0.452357
Si Si6 0.568295 0.006528 0.676688
O O1 0.500000 0.250000 0.137176
O O2 0.593162 0.144071 0.057522
O O3 0.501647 0.077673 0.148614
O O4 0.411684 0.151862 0.059014
O O5 0.694517 0.500000 0.750000
O O6 0.636232 0.387507 0.831998
O O7 0.695193 0.532848 0.882266
O O8 0.824204 0.456240 0.828228
O O9 0.500000 0.750000 0.657152
O O10 0.582080 0.667605 0.563871
O O11 0.458815 0.584478 0.643084
O O12 0.250000 0.862662 0.500000
O O13 0.378705 0.979761 0.516053
O O14 0.750000 0.908188 0.500000
O O15 0.548154 0.000000 0.750000
#
# Coordination Sequence:
#
# PCOD9531391 Si02
#       6
#    16  16  16  16  16  16
#     4  12  24  39  64 100 133 172 226 281 340 414
#     4  10  22  45  68  95 135 181 229 281 344 414
#     4  11  23  42  70 102 136 181 229 284 345 414
#     4  10  21  41  65  94 138 172 216 281 343 414
#     4  10  21  38  66  93 128 179 221 279 341 407
#     4  11  24  45  67  93 136 182 226 284 345 408
#
# _framework density 21.043513000000001
#
# number of rings (size 3 to 8) (size 9 to 14) (size 15 to 20)
#    0.000    1.333    3.333    4.500    2.333    1.333 
#    6.000    1.667    0.000    0.000    0.000    0.000 
#    0.000    0.000    0.000    0.000    0.000    0.000 
#
# Total GULP energy -267696.186238 kJ/mol
# GULP energy per Si atom -5577.003880 kJ/mol
# Density = 2.099562 g / cm^3
# Si number density = 21.043513 Si / 1000 Ang^3
#
#
#
# Elastic Constant Matrix: (Units=GPa)
#
#
# Indices 1 2 3 4 5 6 
#
# 1 120.6300 39.8660 41.5987 0.0000 0.0000 0.0000
# 2 39.8660 106.9279 28.3978 0.0000 0.0000 0.0000
# 3 41.5987 28.3978 97.4075 0.0000 0.0000 0.0000
# 4 0.0000 0.0000 0.0000 -3.6323 0.0000 0.0000
# 5 0.0000 0.0000 0.0000 0.0000 13.6239 0.0000
# 6 0.0000 0.0000 0.0000 0.0000 0.0000 -313.5018
#
#
#
# Elastic Compliance Matrix: (Units=1/GPa)
#
#
# Indices 1 2 3 4 5 6 
#
# 1 0.010519 -0.002958 -0.003630 0.000000 0.000000 0.000000
# 2 -0.002958 0.010969 -0.001935 0.000000 0.000000 0.000000
# 3 -0.003630 -0.001935 0.012380 0.000000 0.000000 0.000000
# 4 0.000000 0.000000 0.000000 -0.275304 0.000000 0.000000
# 5 0.000000 0.000000 0.000000 0.000000 0.073400 0.000000
# 6 0.000000 0.000000 0.000000 0.000000 0.000000 -0.003190
#
#
# Mechanical properties :
#
#
# Convention : Reuss Voigt Hill
#
# Bulk Modulus (GPa) = 59.44113 60.52116 59.98115
# Shear Modulus (GPa) = -33.65351 -46.36184 -40.00768
#
# Velocity S-wave (km/s) = -4.00338 -4.69886 -4.36499
# Velocity P-wave (km/s) = 2.63414 0.78521 1.77794
#
# Compressibility (1/GPa) = 0.01682337
#
# Stress axis : x y z
#
# Youngs Moduli (GPa) = 95.06530 91.16896 80.77312
#
# Poissons Ratio (x) = 0.26966 0.29320
# Poissons Ratio (y) = 0.28118 0.15626
# Poissons Ratio (z) = 0.34508 0.17638
#
# Static dielectric constant tensor:
#      x y z
#    x 1.811370 0.000000 0.000000 
#    y 0.000000 1.784060 0.000000 
#    z 0.000000 0.000000 1.754050 
# 
# From -- ./inp_files/17027.got.cif
#   From: 2010.05.17/outbox.cif.g08.bks.cpg/sg73_9_cif.got.tgz:17027.got - 2010.06.03 17:35:07.
