data_PCOD9531381
_publ_section_title
;
Structure prediction by ZEFSAII (Michael W. Deem and Ramdas Pophale) SiO2 
 PCOD9531381
Probable space group: I B C A 
;
_chemical_formula_sum "Si O2"
_cell_formula_units_Z 72
_cell_length_a 27.116691
_cell_length_b 5.565473
_cell_length_c 19.444652
_cell_angle_alpha 90.000000
_cell_angle_beta 90.000000
_cell_angle_gamma 90.000000
_cell_volume 2934.532661
_symmetry_space_group_name_H-M "I B C A "
_symmetry_group_IT_number 73
_symmetry_cell_setting 'orthorhombic'
loop_
_space_group_symop_operation_xyz
x,y,z
-x,1/2-y,z
x,-y,1/2-z
1/2-x,y,-z
-x,-y,-z
x,1/2+y,-z
-x,y,1/2+z
1/2+x,-y,z
1/2+x,1/2+y,1/2+z
1/2-x,-y,1/2+z
1/2+x,1/2-y,-z
-x,1/2+y,1/2-z
1/2-x,1/2-y,1/2-z
1/2+x,y,1/2-z
1/2-x,1/2+y,z
x,1/2-y,1/2+z
loop_
_atom_site_type_symbol
_atom_site_label
_atom_site_fract_x
_atom_site_fract_y
_atom_site_fract_z
Si Si1 0.368129 0.698204 0.376654
Si Si2 0.622646 0.500000 0.250000
Si Si3 0.451766 0.862367 0.681311
Si Si4 0.952946 0.150087 0.458645
Si Si5 0.768603 0.532094 0.420962
O O1 0.350811 0.829941 0.306148
O O2 0.414328 0.530300 0.358492
O O3 0.397506 0.867307 0.428479
O O4 0.324531 0.552637 0.411868
O O5 0.585441 0.342928 0.294636
O O6 0.500000 0.750000 0.647596
O O7 0.469360 0.000000 0.750000
O O8 0.956360 0.381656 0.509932
O O9 0.000000 0.250000 0.412070
O O10 0.750000 0.555078 0.500000
O O11 0.760903 0.800088 0.391062
#
# Coordination Sequence:
#
# PCOD9531381 Si02
#       5
#    16   8  16  16  16
#     4  11  26  41  75 102 148 190 250 312 372 447
#     4  10  24  42  66 104 154 188 248 282 378 434
#     4  10  21  38  65 102 148 198 236 284 348 447
#     4  10  25  42  64 100 143 190 237 294 368 440
#     4  10  25  47  75 105 133 181 253 318 382 434
#
# _framework density 24.535422000000001
#
# number of rings (size 3 to 8) (size 9 to 14) (size 15 to 20)
#    0.000    1.778    1.111    0.000   15.556    0.889 
#    0.000    1.111    0.000    0.000    0.000    0.000 
#    0.000    0.000    0.000    0.000    0.000    0.000 
#
# Total GULP energy -200709.553021 kJ/mol
# GULP energy per Si atom -5575.265362 kJ/mol
# Density = 2.447958 g / cm^3
# Si number density = 24.535422 Si / 1000 Ang^3
#
#
#
# Elastic Constant Matrix: (Units=GPa)
#
#
# Indices 1 2 3 4 5 6 
#
# 1 83.1234 -10.1378 28.9578 0.0000 0.0000 0.0000
# 2 -10.1378 116.1251 14.6151 0.0000 0.0000 0.0000
# 3 28.9578 14.6151 51.6082 0.0000 0.0000 0.0000
# 4 0.0000 0.0000 0.0000 -10.7081 0.0000 0.0000
# 5 0.0000 0.0000 0.0000 0.0000 24.7488 0.0000
# 6 0.0000 0.0000 0.0000 0.0000 0.0000 10.6384
#
#
#
# Elastic Compliance Matrix: (Units=1/GPa)
#
#
# Indices 1 2 3 4 5 6 
#
# 1 0.015656 0.002564 -0.009511 0.000000 0.000000 0.000000
# 2 0.002564 0.009350 -0.004086 0.000000 0.000000 0.000000
# 3 -0.009511 -0.004086 0.025871 0.000000 0.000000 0.000000
# 4 0.000000 0.000000 0.000000 -0.093387 0.000000 0.000000
# 5 0.000000 0.000000 0.000000 0.000000 0.040406 0.000000
# 6 0.000000 0.000000 0.000000 0.000000 0.000000 0.093999
#
#
# Mechanical properties :
#
#
# Convention : Reuss Voigt Hill
#
# Bulk Modulus (GPa) = 34.71062 35.30299 35.00680
# Shear Modulus (GPa) = 40.46486 19.43061 29.94774
#
# Velocity S-wave (km/s) = 4.06549 2.81720 3.49749
# Velocity P-wave (km/s) = 6.01793 5.00020 5.53252
#
# Compressibility (1/GPa) = 0.02880963
#
# Stress axis : x y z
#
# Youngs Moduli (GPa) = 63.87185 106.95741 38.65383
#
# Poissons Ratio (x) = -0.27422 0.36764
# Poissons Ratio (y) = -0.16376 0.15795
# Poissons Ratio (z) = 0.60748 0.43706
#
# Static dielectric constant tensor:
#      x y z
#    x 2.055700 0.000000 0.000000 
#    y 0.000000 -0.000800 0.000000 
#    z 0.000000 0.000000 2.339790 
# 
# From -- ./inp_files/1672.got.cif
#   From: 2010.05.17/outbox.cif.g08.bks.cpg/sg73_1_cif.got.tgz:1672.got - 2010.06.03 17:35:07.
