data_PCOD9531582
_publ_section_title
;
Structure prediction by ZEFSAII (Michael W. Deem and Ramdas Pophale) SiO2 
 PCOD9531582
Probable space group: I B C A 
;
_chemical_formula_sum "Si O2"
_cell_formula_units_Z 96
_cell_length_a 25.822212
_cell_length_b 12.691874
_cell_length_c 14.098719
_cell_angle_alpha 90.000000
_cell_angle_beta 90.000000
_cell_angle_gamma 90.000000
_cell_volume 4620.605057
_symmetry_space_group_name_H-M "I B C A "
_symmetry_group_IT_number 73
_symmetry_cell_setting 'orthorhombic'
loop_
_space_group_symop_operation_xyz
x,y,z
-x,1/2-y,z
x,-y,1/2-z
1/2-x,y,-z
-x,-y,-z
x,1/2+y,-z
-x,y,1/2+z
1/2+x,-y,z
1/2+x,1/2+y,1/2+z
1/2-x,-y,1/2+z
1/2+x,1/2-y,-z
-x,1/2+y,1/2-z
1/2-x,1/2-y,1/2-z
1/2+x,y,1/2-z
1/2-x,1/2+y,z
x,1/2-y,1/2+z
loop_
_atom_site_type_symbol
_atom_site_label
_atom_site_fract_x
_atom_site_fract_y
_atom_site_fract_z
Si Si1 0.667524 0.288110 0.369460
Si Si2 0.885413 0.006671 0.419298
Si Si3 0.583280 0.640245 0.578516
Si Si4 0.000000 0.750000 0.556040
Si Si5 0.498095 0.477244 0.643484
Si Si6 0.750000 0.322486 0.000000
Si Si7 0.198294 0.102095 0.807805
O O1 0.644171 0.398457 0.405661
O O2 0.618894 0.210825 0.355232
O O3 0.705050 0.246753 0.451666
O O4 0.696753 0.306164 0.270097
O O5 0.877613 0.069879 0.515947
O O6 0.947167 0.992664 0.416278
O O7 0.861787 0.080255 0.336889
O O8 0.548542 0.715996 0.510403
O O9 0.544433 0.557931 0.625518
O O10 0.010638 0.644428 0.617972
O O11 0.481502 0.500000 0.750000
O O12 0.772522 0.383272 0.907507
O O13 0.217801 0.000000 0.750000
#
# Coordination Sequence:
#
# PCOD9531582 Si02
#       7
#    16  16  16   8  16   8  16
#     4  11  23  41  68  96 129 176 225 278 339 403
#     4  10  21  41  63  91 131 180 213 268 340 404
#     4  11  21  40  62  96 133 173 226 266 339 402
#     4  10  22  38  66  88 134 186 218 270 340 400
#     4  11  23  38  62 100 134 174 223 270 329 409
#     4  12  24  46  68 100 132 172 234 288 348 390
#     4  10  23  43  70  98 131 176 225 275 351 411
#
# _framework density 20.776499000000001
#
# number of rings (size 3 to 8) (size 9 to 14) (size 15 to 20)
#    0.000    1.333    1.667    6.000    0.000    7.333 
#    3.000    0.833    0.000    0.000    0.000    0.000 
#    0.000    0.000    0.000    0.000    0.000    0.000 
#
# Total GULP energy -267772.956446 kJ/mol
# GULP energy per Si atom -5578.603259 kJ/mol
# Density = 2.072921 g / cm^3
# Si number density = 20.776499 Si / 1000 Ang^3
#
#
#
# Elastic Constant Matrix: (Units=GPa)
#
#
# Indices 1 2 3 4 5 6 
#
# 1 78.7048 51.7129 21.6337 0.0000 0.0000 0.0000
# 2 51.7129 107.8203 39.8296 0.0000 0.0000 0.0000
# 3 21.6337 39.8296 93.3927 0.0000 0.0000 0.0000
# 4 0.0000 0.0000 0.0000 33.6702 0.0000 0.0000
# 5 0.0000 0.0000 0.0000 0.0000 34.4876 0.0000
# 6 0.0000 0.0000 0.0000 0.0000 0.0000 12.3384
#
#
#
# Elastic Compliance Matrix: (Units=1/GPa)
#
#
# Indices 1 2 3 4 5 6 
#
# 1 0.018580 -0.008691 -0.000598 0.000000 0.000000 0.000000
# 2 -0.008691 0.015074 -0.004416 0.000000 0.000000 0.000000
# 3 -0.000598 -0.004416 0.012729 0.000000 0.000000 0.000000
# 4 0.000000 0.000000 0.000000 0.029700 0.000000 0.000000
# 5 0.000000 0.000000 0.000000 0.000000 0.028996 0.000000
# 6 0.000000 0.000000 0.000000 0.000000 0.000000 0.081048
#
#
# Mechanical properties :
#
#
# Convention : Reuss Voigt Hill
#
# Bulk Modulus (GPa) = 52.69935 56.25222 54.47579
# Shear Modulus (GPa) = 22.74177 27.21534 24.97855
#
# Velocity S-wave (km/s) = 3.31205 3.62319 3.47111
# Velocity P-wave (km/s) = 6.32821 6.68110 6.50704
#
# Compressibility (1/GPa) = 0.01897557
#
# Stress axis : x y z
#
# Youngs Moduli (GPa) = 53.82085 66.33913 78.56053
#
# Poissons Ratio (x) = 0.57653 0.04695
# Poissons Ratio (y) = 0.46774 0.34689
# Poissons Ratio (z) = 0.03216 0.29293
#
# Static dielectric constant tensor:
#      x y z
#    x 1.765400 0.000000 0.000000 
#    y 0.000000 1.774490 0.000000 
#    z 0.000000 0.000000 1.767080 
# 
# From -- ./inp_files/20012.got.cif
#   From: 2010.05.17/outbox.cif.g08.bks.cpg/sg73_11_cif.got.tgz:20012.got - 2010.06.03 17:35:07.
