data_PCOD9531748
_publ_section_title
;
Structure prediction by ZEFSAII (Michael W. Deem and Ramdas Pophale) SiO2 
 PCOD9531748
Probable space group: I B C A 
;
_chemical_formula_sum "Si O2"
_cell_formula_units_Z 96
_cell_length_a 27.210145
_cell_length_b 10.042912
_cell_length_c 17.211314
_cell_angle_alpha 90.000000
_cell_angle_beta 90.000000
_cell_angle_gamma 90.000000
_cell_volume 4703.320144
_symmetry_space_group_name_H-M "I B C A "
_symmetry_group_IT_number 73
_symmetry_cell_setting 'orthorhombic'
loop_
_space_group_symop_operation_xyz
x,y,z
-x,1/2-y,z
x,-y,1/2-z
1/2-x,y,-z
-x,-y,-z
x,1/2+y,-z
-x,y,1/2+z
1/2+x,-y,z
1/2+x,1/2+y,1/2+z
1/2-x,-y,1/2+z
1/2+x,1/2-y,-z
-x,1/2+y,1/2-z
1/2-x,1/2-y,1/2-z
1/2+x,y,1/2-z
1/2-x,1/2+y,z
x,1/2-y,1/2+z
loop_
_atom_site_type_symbol
_atom_site_label
_atom_site_fract_x
_atom_site_fract_y
_atom_site_fract_z
Si Si1 0.663092 0.094702 0.920595
Si Si2 0.652315 0.275720 0.263432
Si Si3 0.500000 0.250000 0.008771
Si Si4 0.250000 0.215312 0.500000
Si Si5 0.926043 0.000000 0.250000
Si Si6 0.554049 0.005258 0.921641
Si Si7 0.735020 0.114897 0.655521
Si Si8 0.323129 0.000000 0.750000
O O1 0.652047 0.210334 0.857180
O O2 0.698555 0.137139 0.990492
O O3 0.612175 0.022573 0.939542
O O4 0.697394 0.996925 0.871659
O O5 0.610573 0.376170 0.236306
O O6 0.704903 0.315325 0.225571
O O7 0.644154 0.127515 0.233770
O O8 0.534902 0.357270 0.054439
O O9 0.530054 0.137287 0.960570
O O10 0.254930 0.295811 0.580193
O O11 0.954540 0.980354 0.329439
O O12 0.785219 0.047831 0.683788
#
# Coordination Sequence:
#
# PCOD9531748 Si02
#       8
#    16  16   8   8   8  16  16   8
#     4  11  22  41  60  93 130 178 218 272 321 390
#     4  11  20  39  62  84 121 178 228 264 324 380
#     4  10  24  48  72 104 128 170 212 274 364 416
#     4  12  26  34  54 100 138 174 228 268 318 378
#     4  10  21  44  72  97 126 170 220 279 334 403
#     4  10  23  45  75  98 133 170 218 277 343 406
#     4  12  21  38  58  84 127 182 224 264 311 376
#     4  12  21  34  62  85 130 184 232 267 302 373
#
# _framework density 20.411111999999999
#
# number of rings (size 3 to 8) (size 9 to 14) (size 15 to 20)
#    0.000    1.000    6.667    2.000    2.333    0.667 
#    0.000    6.667    0.000    0.000    0.000    0.000 
#    0.000    0.000    0.000    0.000    0.000    0.000 
#
# Total GULP energy -267545.845878 kJ/mol
# GULP energy per Si atom -5573.871789 kJ/mol
# Density = 2.036466 g / cm^3
# Si number density = 20.411112 Si / 1000 Ang^3
#
#
#
# Elastic Constant Matrix: (Units=GPa)
#
#
# Indices 1 2 3 4 5 6 
#
# 1 47.6691 42.2780 46.1038 0.0000 0.0000 0.0000
# 2 42.2780 155.9610 39.9246 0.0000 0.0000 0.0000
# 3 46.1038 39.9246 97.4524 0.0000 0.0000 0.0000
# 4 0.0000 0.0000 0.0000 25.0978 0.0000 0.0000
# 5 0.0000 0.0000 0.0000 0.0000 -22.1488 0.0000
# 6 0.0000 0.0000 0.0000 0.0000 0.0000 -326.9777
#
#
#
# Elastic Compliance Matrix: (Units=1/GPa)
#
#
# Indices 1 2 3 4 5 6 
#
# 1 0.045581 -0.007637 -0.018435 0.000000 0.000000 0.000000
# 2 -0.007637 0.008443 0.000154 0.000000 0.000000 0.000000
# 3 -0.018435 0.000154 0.018920 0.000000 0.000000 0.000000
# 4 0.000000 0.000000 0.000000 0.039844 0.000000 0.000000
# 5 0.000000 0.000000 0.000000 0.000000 -0.045149 0.000000
# 6 0.000000 0.000000 0.000000 0.000000 0.000000 -0.003058
#
#
# Mechanical properties :
#
#
# Convention : Reuss Voigt Hill
#
# Bulk Modulus (GPa) = 47.37655 61.96616 54.67135
# Shear Modulus (GPa) = 40.50151 -53.28735 -6.39292
#
# Velocity S-wave (km/s) = 4.45937 -5.11505 -1.77169
# Velocity P-wave (km/s) = 7.05522 2.11187 4.76005
#
# Compressibility (1/GPa) = 0.02110749
#
# Stress axis : x y z
#
# Youngs Moduli (GPa) = 21.93891 118.44673 52.85463
#
# Poissons Ratio (x) = 0.90457 0.97439
# Poissons Ratio (y) = 0.16755 -0.00815
# Poissons Ratio (z) = 0.40445 -0.01826
#
# Static dielectric constant tensor:
#      x y z
#    x 1.763030 0.000000 0.000000 
#    y 0.000000 1.804590 0.000000 
#    z 0.000000 0.000000 2.066590 
# 
# From -- ./inp_files/27565.got.cif
#   From: 2010.05.17/outbox.cif.g08.bks.cpg/sg73_14_cif.got.tgz:27565.got - 2010.06.03 17:35:07.
