data_PCOD9531990
_publ_section_title
;
Structure prediction by ZEFSAII (Michael W. Deem and Ramdas Pophale) SiO2 
 PCOD9531990
Probable space group: I B C A 
;
_chemical_formula_sum "Si O2"
_cell_formula_units_Z 88
_cell_length_a 24.471959
_cell_length_b 12.066696
_cell_length_c 13.823651
_cell_angle_alpha 90.000000
_cell_angle_beta 90.000000
_cell_angle_gamma 90.000000
_cell_volume 4082.064557
_symmetry_space_group_name_H-M "I B C A "
_symmetry_group_IT_number 73
_symmetry_cell_setting 'orthorhombic'
loop_
_space_group_symop_operation_xyz
x,y,z
-x,1/2-y,z
x,-y,1/2-z
1/2-x,y,-z
-x,-y,-z
x,1/2+y,-z
-x,y,1/2+z
1/2+x,-y,z
1/2+x,1/2+y,1/2+z
1/2-x,-y,1/2+z
1/2+x,1/2-y,-z
-x,1/2+y,1/2-z
1/2-x,1/2-y,1/2-z
1/2+x,y,1/2-z
1/2-x,1/2+y,z
x,1/2-y,1/2+z
loop_
_atom_site_type_symbol
_atom_site_label
_atom_site_fract_x
_atom_site_fract_y
_atom_site_fract_z
Si Si1 0.773777 0.025762 0.406234
Si Si2 0.872730 0.171725 0.358248
Si Si3 0.059469 0.454432 0.521970
Si Si4 0.894758 0.304178 0.176653
Si Si5 0.183546 0.000000 0.250000
Si Si6 0.853476 0.852700 0.495857
O O1 0.750000 0.092424 0.500000
O O2 0.821188 0.089099 0.345919
O O3 0.724410 0.987652 0.339874
O O4 0.804145 0.923367 0.455297
O O5 0.915540 0.115910 0.432508
O O6 0.903845 0.218653 0.264624
O O7 0.845132 0.274019 0.413725
O O8 0.060966 0.379119 0.619033
O O9 0.100291 0.558997 0.528278
O O10 0.000000 0.500000 0.500000
O O11 0.853223 0.395343 0.220031
O O12 0.871257 0.227450 0.091499
#
# Coordination Sequence:
#
# PCOD9531990 Si02
#       6
#    16  16  16  16   8  16
#     4  11  22  36  59  92 131 176 221 264 314 377
#     4  10  22  40  63  93 129 169 213 264 320 379
#     4  10  23  45  68  92 126 164 210 269 324 385
#     4  11  23  41  63  92 128 166 211 266 322 384
#     4  12  24  38  60  94 130 170 220 266 316 378
#     4  10  22  41  62  89 130 170 214 267 318 378
#
# _framework density 21.557718000000001
#
# number of rings (size 3 to 8) (size 9 to 14) (size 15 to 20)
#    0.000    1.455    0.000    6.545    0.000   11.636 
#    0.000    9.091    0.000    0.000    0.000    0.000 
#    0.000    0.000    0.000    0.000    0.000    0.000 
#
# Total GULP energy -245647.346652 kJ/mol
# GULP energy per Si atom -5582.894242 kJ/mol
# Density = 2.150865 g / cm^3
# Si number density = 21.557718 Si / 1000 Ang^3
#
#
#
# Elastic Constant Matrix: (Units=GPa)
#
#
# Indices 1 2 3 4 5 6 
#
# 1 83.4824 33.4751 12.7303 0.0000 0.0000 0.0000
# 2 33.4751 95.5028 39.0166 0.0000 0.0000 0.0000
# 3 12.7303 39.0166 109.7549 0.0000 0.0000 0.0000
# 4 0.0000 0.0000 0.0000 37.5877 0.0000 0.0000
# 5 0.0000 0.0000 0.0000 0.0000 20.6739 0.0000
# 6 0.0000 0.0000 0.0000 0.0000 0.0000 9.1106
#
#
#
# Elastic Compliance Matrix: (Units=1/GPa)
#
#
# Indices 1 2 3 4 5 6 
#
# 1 0.013939 -0.004943 0.000140 0.000000 0.000000 0.000000
# 2 -0.004943 0.014003 -0.004405 0.000000 0.000000 0.000000
# 3 0.000140 -0.004405 0.010661 0.000000 0.000000 0.000000
# 4 0.000000 0.000000 0.000000 0.026604 0.000000 0.000000
# 5 0.000000 0.000000 0.000000 0.000000 0.048370 0.000000
# 6 0.000000 0.000000 0.000000 0.000000 0.000000 0.109763
#
#
# Mechanical properties :
#
#
# Convention : Reuss Voigt Hill
#
# Bulk Modulus (GPa) = 49.53368 51.02046 50.27707
# Shear Modulus (GPa) = 20.12197 27.04231 23.58214
#
# Velocity S-wave (km/s) = 3.05847 3.54561 3.31101
# Velocity P-wave (km/s) = 5.95814 6.36240 6.16359
#
# Compressibility (1/GPa) = 0.02018828
#
# Stress axis : x y z
#
# Youngs Moduli (GPa) = 71.73934 71.41308 93.80268
#
# Poissons Ratio (x) = 0.35302 -0.01318
# Poissons Ratio (y) = 0.35463 0.41316
# Poissons Ratio (z) = -0.01008 0.31454
#
# Static dielectric constant tensor:
#      x y z
#    x 1.766620 0.000000 0.000000 
#    y 0.000000 1.814770 0.000000 
#    z 0.000000 0.000000 1.880560 
# 
# From -- ./inp_files/19228.got.cif
#   From: 2010.05.17/outbox.cif.g08.bks.cpg/sg73_10_cif.got.tgz:19228.got - 2010.06.03 17:35:07.
