data_PCOD9531206
_publ_section_title
;
Structure prediction by ZEFSAII (Michael W. Deem and Ramdas Pophale) SiO2 
 PCOD9531206
Probable space group: I B C A 
;
_chemical_formula_sum "Si O2"
_cell_formula_units_Z 104
_cell_length_a 13.844550
_cell_length_b 20.211758
_cell_length_c 18.261158
_cell_angle_alpha 90.000000
_cell_angle_beta 90.000000
_cell_angle_gamma 90.000000
_cell_volume 5109.886431
_symmetry_space_group_name_H-M "I B C A "
_symmetry_group_IT_number 73
_symmetry_cell_setting 'orthorhombic'
loop_
_space_group_symop_operation_xyz
x,y,z
-x,1/2-y,z
x,-y,1/2-z
1/2-x,y,-z
-x,-y,-z
x,1/2+y,-z
-x,y,1/2+z
1/2+x,-y,z
1/2+x,1/2+y,1/2+z
1/2-x,-y,1/2+z
1/2+x,1/2-y,-z
-x,1/2+y,1/2-z
1/2-x,1/2-y,1/2-z
1/2+x,y,1/2-z
1/2-x,1/2+y,z
x,1/2-y,1/2+z
loop_
_atom_site_type_symbol
_atom_site_label
_atom_site_fract_x
_atom_site_fract_y
_atom_site_fract_z
Si Si1 0.600313 0.919839 0.330373
Si Si2 0.518651 0.937482 0.166639
Si Si3 0.342266 0.203476 0.243959
Si Si4 0.060747 0.316081 0.096576
Si Si5 0.750000 0.305305 0.500000
Si Si6 0.090279 0.279869 0.892907
Si Si7 0.698285 0.067109 0.783293
O O1 0.567166 0.915408 0.244469
O O2 0.566319 0.856085 0.374624
O O3 0.716070 0.911965 0.336692
O O4 0.565400 0.992380 0.355144
O O5 0.512419 0.878076 0.108410
O O6 0.405306 0.949831 0.183581
O O7 0.250000 0.250000 0.250000
O O8 0.393845 0.196534 0.322310
O O9 0.402204 0.237975 0.181310
O O10 0.314977 0.127396 0.227048
O O11 0.151995 0.332901 0.042637
O O12 0.000000 0.250000 0.081606
O O13 0.808435 0.270518 0.434555
O O14 0.000000 0.250000 0.934969
O O15 0.737947 0.000000 0.750000
#
# Coordination Sequence:
#
# PCOD9531206 Si02
#       7
#    16  16  16  16   8  16  16
#     4  11  20  36  61  95 129 158 199 263 324 370
#     4  10  21  35  58  97 125 156 202 255 323 380
#     4  11  20  38  65  98 122 155 209 258 315 373
#     4  11  23  41  66  90 126 166 208 265 319 379
#     4  12  26  46  60  86 130 172 216 256 324 378
#     4  12  24  41  67  93 125 167 212 265 316 376
#     4  11  19  32  53  89 138 159 179 251 325 366
#
# _framework density 20.352703000000002
#
# number of rings (size 3 to 8) (size 9 to 14) (size 15 to 20)
#    0.000    0.923    6.154    4.615    0.000    0.000 
#    0.000    0.769    0.000    1.846    0.000    0.000 
#    0.000    0.000    0.000    0.000    0.000    0.000 
#
# Total GULP energy -289534.227665 kJ/mol
# GULP energy per Si atom -5567.965917 kJ/mol
# Density = 2.030638 g / cm^3
# Si number density = 20.352703 Si / 1000 Ang^3
#
#
#
# Elastic Constant Matrix: (Units=GPa)
#
#
# Indices 1 2 3 4 5 6 
#
# 1 114.5564 34.7036 14.8893 0.0000 0.0000 0.0000
# 2 34.7036 150.0106 36.8807 0.0000 0.0000 0.0000
# 3 14.8893 36.8807 74.6755 0.0000 0.0000 0.0000
# 4 0.0000 0.0000 0.0000 -11.7665 0.0000 0.0000
# 5 0.0000 0.0000 0.0000 0.0000 27.2022 0.0000
# 6 0.0000 0.0000 0.0000 0.0000 0.0000 39.4287
#
#
#
# Elastic Compliance Matrix: (Units=1/GPa)
#
#
# Indices 1 2 3 4 5 6 
#
# 1 0.009442 -0.001959 -0.000915 0.000000 0.000000 0.000000
# 2 -0.001959 0.007994 -0.003557 0.000000 0.000000 0.000000
# 3 -0.000915 -0.003557 0.015331 0.000000 0.000000 0.000000
# 4 0.000000 0.000000 0.000000 -0.084987 0.000000 0.000000
# 5 0.000000 0.000000 0.000000 0.000000 0.036762 0.000000
# 6 0.000000 0.000000 0.000000 0.000000 0.000000 0.025362
#
#
# Mechanical properties :
#
#
# Convention : Reuss Voigt Hill
#
# Bulk Modulus (GPa) = 50.24328 56.90996 53.57662
# Shear Modulus (GPa) = 170.06274 27.82414 98.94344
#
# Velocity S-wave (km/s) = 9.15091 3.70144 6.97997
# Velocity P-wave (km/s) = 11.67871 6.80368 9.55726
#
# Compressibility (1/GPa) = 0.01990316
#
# Stress axis : x y z
#
# Youngs Moduli (GPa) = 105.91201 125.09246 65.22884
#
# Poissons Ratio (x) = 0.24510 0.05968
# Poissons Ratio (y) = 0.20752 0.23205
# Poissons Ratio (z) = 0.09690 0.44501
#
# Static dielectric constant tensor:
#      x y z
#    x 1.930360 0.000000 0.000000 
#    y 0.000000 1.776900 0.000000 
#    z 0.000000 0.000000 1.647530 
# 
# From -- ./inp_files/22052.got.cif
#   From: 2010.05.17/outbox.cif.g08.bks.cpg/sg73_12_cif.got.tgz:22052.got - 2010.06.03 17:35:07.
