data_PCOD9531353
_publ_section_title
;
Structure prediction by ZEFSAII (Michael W. Deem and Ramdas Pophale) SiO2 
 PCOD9531353
Probable space group: I B C A 
;
_chemical_formula_sum "Si O2"
_cell_formula_units_Z 80
_cell_length_a 9.409630
_cell_length_b 25.646909
_cell_length_c 15.828623
_cell_angle_alpha 90.000000
_cell_angle_beta 90.000000
_cell_angle_gamma 90.000000
_cell_volume 3819.888734
_symmetry_space_group_name_H-M "I B C A "
_symmetry_group_IT_number 73
_symmetry_cell_setting 'orthorhombic'
loop_
_space_group_symop_operation_xyz
x,y,z
-x,1/2-y,z
x,-y,1/2-z
1/2-x,y,-z
-x,-y,-z
x,1/2+y,-z
-x,y,1/2+z
1/2+x,-y,z
1/2+x,1/2+y,1/2+z
1/2-x,-y,1/2+z
1/2+x,1/2-y,-z
-x,1/2+y,1/2-z
1/2-x,1/2-y,1/2-z
1/2+x,y,1/2-z
1/2-x,1/2+y,z
x,1/2-y,1/2+z
loop_
_atom_site_type_symbol
_atom_site_label
_atom_site_fract_x
_atom_site_fract_y
_atom_site_fract_z
Si Si1 0.628958 0.284623 0.052035
Si Si2 0.646634 0.892548 0.189723
Si Si3 0.418960 0.053591 0.982034
Si Si4 0.842343 0.231056 0.672938
Si Si5 0.536888 0.116548 0.646293
O O1 0.500000 0.250000 0.016208
O O2 0.747644 0.248214 0.095309
O O3 0.559282 0.322087 0.123267
O O4 0.750000 0.318015 0.000000
O O5 0.570456 0.924364 0.113895
O O6 0.641316 0.831102 0.169214
O O7 0.579874 0.896623 0.283203
O O8 0.814332 0.904632 0.184543
O O9 0.250000 0.048000 0.000000
O O10 0.481461 0.092256 0.053431
O O11 0.500000 0.000000 0.000000
O O12 0.750000 0.250000 0.750000
O O13 0.000000 0.250000 0.677669
#
# Coordination Sequence:
#
# PCOD9531353 Si02
#       5
#    16  16  16  16  16
#     4  11  22  37  57  85 122 165 209 256 310 376
#     4  10  21  38  62  89 123 165 202 253 315 375
#     4  10  23  43  63  85 118 157 204 262 320 376
#     4  11  20  34  57  87 124 162 201 247 303 375
#     4  10  21  40  62  88 121 157 203 255 315 383
#
# _framework density 20.943019
#
# number of rings (size 3 to 8) (size 9 to 14) (size 15 to 20)
#    0.000    1.600    0.000    7.800    0.000    2.400 
#    0.000    5.000    0.000    0.000    0.000    0.000 
#    0.000    0.000    0.000    0.000    0.000    0.000 
#
# Total GULP energy -222673.004248 kJ/mol
# GULP energy per Si atom -5566.825106 kJ/mol
# Density = 2.089535 g / cm^3
# Si number density = 20.943019 Si / 1000 Ang^3
#
#
#
# Elastic Constant Matrix: (Units=GPa)
#
#
# Indices 1 2 3 4 5 6 
#
# 1 87.5534 20.5508 32.9257 0.0001 0.0000 0.0000
# 2 20.5508 63.4201 14.9531 0.0001 0.0000 0.0000
# 3 32.9257 14.9531 101.2616 0.0003 -0.0001 0.0000
# 4 0.0001 0.0001 0.0003 29.6977 0.0000 0.0000
# 5 0.0000 0.0000 -0.0001 0.0000 45.1134 0.0000
# 6 0.0000 0.0000 0.0000 0.0000 0.0000 31.5160
#
#
#
# Elastic Compliance Matrix: (Units=1/GPa)
#
#
# Indices 1 2 3 4 5 6 
#
# 1 0.013731 -0.003519 -0.003945 0.000000 0.000000 0.000000
# 2 -0.003519 0.017239 -0.001401 0.000000 0.000000 0.000000
# 3 -0.003945 -0.001401 0.011365 0.000000 0.000000 0.000000
# 4 0.000000 0.000000 0.000000 0.033673 0.000000 0.000000
# 5 0.000000 0.000000 0.000000 0.000000 0.022166 0.000000
# 6 0.000000 0.000000 0.000000 0.000000 0.000000 0.031730
#
#
# Mechanical properties :
#
#
# Convention : Reuss Voigt Hill
#
# Bulk Modulus (GPa) = 40.64442 43.23271 41.93856
# Shear Modulus (GPa) = 32.08486 33.51911 32.80199
#
# Velocity S-wave (km/s) = 3.91833 4.00495 3.96188
# Velocity P-wave (km/s) = 6.31826 6.48645 6.40291
#
# Compressibility (1/GPa) = 0.02460362
#
# Stress axis : x y z
#
# Youngs Moduli (GPa) = 72.82635 58.00907 87.98865
#
# Poissons Ratio (x) = 0.20415 0.34712
# Poissons Ratio (y) = 0.25630 0.12330
# Poissons Ratio (z) = 0.28731 0.08129
#
# Static dielectric constant tensor:
#      x y z
#    x 1.757160 0.000000 0.000000 
#    y 0.000000 1.831390 0.000000 
#    z 0.000000 0.000000 2.067410 
# 
# From -- ./inp_files/20740.got.cif
#   From: 2010.05.17/outbox.cif.g08.bks.cpg/sg73_11_cif.got.tgz:20740.got - 2010.06.03 17:35:07.
