data_PCOD9531739
_publ_section_title
;
Structure prediction by ZEFSAII (Michael W. Deem and Ramdas Pophale) SiO2 
 PCOD9531739
Probable space group: I B C A 
;
_chemical_formula_sum "Si O2"
_cell_formula_units_Z 88
_cell_length_a 13.679568
_cell_length_b 17.554983
_cell_length_c 17.809072
_cell_angle_alpha 90.000000
_cell_angle_beta 90.000000
_cell_angle_gamma 90.000000
_cell_volume 4276.752181
_symmetry_space_group_name_H-M "I B C A "
_symmetry_group_IT_number 73
_symmetry_cell_setting 'orthorhombic'
loop_
_space_group_symop_operation_xyz
x,y,z
-x,1/2-y,z
x,-y,1/2-z
1/2-x,y,-z
-x,-y,-z
x,1/2+y,-z
-x,y,1/2+z
1/2+x,-y,z
1/2+x,1/2+y,1/2+z
1/2-x,-y,1/2+z
1/2+x,1/2-y,-z
-x,1/2+y,1/2-z
1/2-x,1/2-y,1/2-z
1/2+x,y,1/2-z
1/2-x,1/2+y,z
x,1/2-y,1/2+z
loop_
_atom_site_type_symbol
_atom_site_label
_atom_site_fract_x
_atom_site_fract_y
_atom_site_fract_z
Si Si1 0.500000 0.250000 0.426257
Si Si2 0.003366 0.380964 0.693720
Si Si3 0.836223 0.000000 0.750000
Si Si4 0.750000 0.422871 0.500000
Si Si5 0.114361 0.196376 0.433411
Si Si6 0.836041 0.505413 0.864476
Si Si7 0.582535 0.838611 0.847426
O O1 0.476003 0.322292 0.373695
O O2 0.412605 0.227978 0.483619
O O3 0.095083 0.429515 0.724857
O O4 0.923518 0.443241 0.667560
O O5 0.954703 0.334651 0.762350
O O6 0.762879 0.020198 0.817798
O O7 0.806086 0.367594 0.443318
O O8 0.821825 0.473644 0.548936
O O9 0.140868 0.265586 0.377946
O O10 0.014589 0.161730 0.399330
O O11 0.861309 0.417118 0.855754
#
# Coordination Sequence:
#
# PCOD9531739 Si02
#       7
#     8  16   8   8  16  16  16
#     4  10  22  42  66  96 128 182 216 260 346 392
#     4  12  22  44  70  95 135 172 221 281 330 397
#     4  12  24  42  70 100 132 176 224 282 330 388
#     4  12  26  42  64 104 138 174 220 272 332 400
#     4  10  24  43  66  95 137 177 216 273 330 403
#     4  12  25  43  67 103 134 171 227 275 331 399
#     4  10  21  44  68  93 132 176 221 273 333 387
#
# _framework density 20.576363000000001
#
# number of rings (size 3 to 8) (size 9 to 14) (size 15 to 20)
#    0.000    1.091    5.455    2.182    0.000    5.818 
#    0.000    1.818    0.000    0.000    0.000    0.000 
#    0.000    0.000    0.000    0.000    0.000    0.000 
#
# Total GULP energy -245879.656833 kJ/mol
# GULP energy per Si atom -5588.174019 kJ/mol
# Density = 2.052953 g / cm^3
# Si number density = 20.576363 Si / 1000 Ang^3
#
#
#
# Elastic Constant Matrix: (Units=GPa)
#
#
# Indices 1 2 3 4 5 6 
#
# 1 49.9827 34.2093 27.1302 0.0000 0.0000 0.0000
# 2 34.2093 90.5232 55.6611 0.0000 0.0000 0.0000
# 3 27.1302 55.6611 109.3935 0.0000 0.0000 0.0000
# 4 0.0000 0.0000 0.0000 41.8396 0.0000 0.0000
# 5 0.0000 0.0000 0.0000 0.0000 -8.8149 0.0000
# 6 0.0000 0.0000 0.0000 0.0000 0.0000 11.4445
#
#
#
# Elastic Compliance Matrix: (Units=1/GPa)
#
#
# Indices 1 2 3 4 5 6 
#
# 1 0.027352 -0.008973 -0.002218 0.000000 0.000000 0.000000
# 2 -0.008973 0.019020 -0.007452 0.000000 0.000000 0.000000
# 3 -0.002218 -0.007452 0.013483 0.000000 0.000000 0.000000
# 4 0.000000 0.000000 0.000000 0.023901 0.000000 0.000000
# 5 0.000000 0.000000 0.000000 0.000000 -0.113444 0.000000
# 6 0.000000 0.000000 0.000000 0.000000 0.000000 0.087378
#
#
# Mechanical properties :
#
#
# Convention : Reuss Voigt Hill
#
# Bulk Modulus (GPa) = 44.30835 53.76672 49.03754
# Shear Modulus (GPa) = 48.78051 17.75374 33.26713
#
# Velocity S-wave (km/s) = 4.87427 2.94057 4.02526
# Velocity P-wave (km/s) = 7.29784 6.14136 6.74443
#
# Compressibility (1/GPa) = 0.02256911
#
# Stress axis : x y z
#
# Youngs Moduli (GPa) = 36.56053 52.57591 74.16568
#
# Poissons Ratio (x) = 0.47175 0.16450
# Poissons Ratio (y) = 0.32804 0.55272
# Poissons Ratio (z) = 0.08109 0.39182
#
# Static dielectric constant tensor:
#      x y z
#    x 1.730490 0.000000 0.000000 
#    y 0.000000 1.721250 0.000000 
#    z 0.000000 0.000000 1.756030 
# 
# From -- ./inp_files/21975.got.cif
#   From: 2010.05.17/outbox.cif.g08.bks.cpg/sg73_11_cif.got.tgz:21975.got - 2010.06.03 17:35:07.
