data_PCOD9531034
_publ_section_title
;
Structure prediction by ZEFSAII (Michael W. Deem and Ramdas Pophale) SiO2 
 PCOD9531034
Probable space group: I B C A 
;
_chemical_formula_sum "Si O2"
_cell_formula_units_Z 112
_cell_length_a 23.513806
_cell_length_b 11.607814
_cell_length_c 19.386968
_cell_angle_alpha 90.000000
_cell_angle_beta 90.000000
_cell_angle_gamma 90.000000
_cell_volume 5291.554393
_symmetry_space_group_name_H-M "I B C A "
_symmetry_group_IT_number 73
_symmetry_cell_setting 'orthorhombic'
loop_
_space_group_symop_operation_xyz
x,y,z
-x,1/2-y,z
x,-y,1/2-z
1/2-x,y,-z
-x,-y,-z
x,1/2+y,-z
-x,y,1/2+z
1/2+x,-y,z
1/2+x,1/2+y,1/2+z
1/2-x,-y,1/2+z
1/2+x,1/2-y,-z
-x,1/2+y,1/2-z
1/2-x,1/2-y,1/2-z
1/2+x,y,1/2-z
1/2-x,1/2+y,z
x,1/2-y,1/2+z
loop_
_atom_site_type_symbol
_atom_site_label
_atom_site_fract_x
_atom_site_fract_y
_atom_site_fract_z
Si Si1 0.775755 0.129983 0.287268
Si Si2 0.433741 0.727918 0.664302
Si Si3 0.609424 0.702449 0.365376
Si Si4 0.154370 0.586485 0.815234
Si Si5 0.973102 0.489718 0.824037
Si Si6 0.566201 0.765674 0.502521
Si Si7 0.079000 0.449613 0.907082
O O1 0.750000 0.250000 0.250000
O O2 0.831391 0.167709 0.330171
O O3 0.719859 0.105702 0.331723
O O4 0.785702 0.000000 0.250000
O O5 0.500000 0.750000 0.684398
O O6 0.385111 0.802422 0.700280
O O7 0.427351 0.591832 0.673942
O O8 0.428640 0.753071 0.582855
O O9 0.559654 0.628092 0.332154
O O10 0.603934 0.690118 0.449506
O O11 0.590658 0.835444 0.360874
O O12 0.151602 0.500000 0.750000
O O13 0.127414 0.532850 0.883317
O O14 0.003295 0.500000 0.750000
O O15 0.018998 0.501891 0.884251
O O16 0.500000 0.750000 0.482422
O O17 0.579619 0.898550 0.483163
#
# Coordination Sequence:
#
# PCOD9531034 Si02
#       7
#    16  16  16  16  16  16  16
#     4  11  25  43  68  95 133 177 233 290 337 408
#     4  11  25  39  62  99 130 172 219 267 328 416
#     4  10  21  41  64  89 122 173 219 265 331 388
#     4  11  24  42  63  92 133 171 218 278 344 398
#     4  12  24  34  60  99 136 161 209 276 336 402
#     4   9  20  41  65  93 127 174 220 263 328 408
#     4  10  20  41  62  89 129 173 202 271 336 396
#
# _framework density 21.165803
#
# number of rings (size 3 to 8) (size 9 to 14) (size 15 to 20)
#    0.857    0.571    2.857    3.000    6.000    1.714 
#    0.000    0.714    0.000    0.000    0.000    0.000 
#    0.000    0.000    0.000    0.000    0.000    0.000 
#
# Total GULP energy -311868.960546 kJ/mol
# GULP energy per Si atom -5569.088581 kJ/mol
# Density = 2.111763 g / cm^3
# Si number density = 21.165803 Si / 1000 Ang^3
#
#
#
# Elastic Constant Matrix: (Units=GPa)
#
#
# Indices 1 2 3 4 5 6 
#
# 1 88.1770 2.6974 26.1039 0.0000 0.0000 0.0000
# 2 2.6974 92.8933 9.3231 0.0000 0.0000 0.0000
# 3 26.1039 9.3231 60.4520 0.0000 0.0000 0.0000
# 4 0.0000 0.0000 0.0000 29.4099 0.0000 0.0000
# 5 0.0000 0.0000 0.0000 0.0000 16.1094 0.0000
# 6 0.0000 0.0000 0.0000 0.0000 0.0000 21.4669
#
#
#
# Elastic Compliance Matrix: (Units=1/GPa)
#
#
# Indices 1 2 3 4 5 6 
#
# 1 0.013006 0.000189 -0.005645 0.000000 0.000000 0.000000
# 2 0.000189 0.010937 -0.001768 0.000000 0.000000 0.000000
# 3 -0.005645 -0.001768 0.019253 0.000000 0.000000 0.000000
# 4 0.000000 0.000000 0.000000 0.034002 0.000000 0.000000
# 5 0.000000 0.000000 0.000000 0.000000 0.062076 0.000000
# 6 0.000000 0.000000 0.000000 0.000000 0.000000 0.046583
#
#
# Mechanical properties :
#
#
# Convention : Reuss Voigt Hill
#
# Bulk Modulus (GPa) = 34.78718 35.30791 35.04755
# Shear Modulus (GPa) = 23.82214 26.95708 25.38961
#
# Velocity S-wave (km/s) = 3.35849 3.57265 3.46722
# Velocity P-wave (km/s) = 5.61342 5.80829 5.71169
#
# Compressibility (1/GPa) = 0.02874622
#
# Stress axis : x y z
#
# Youngs Moduli (GPa) = 76.88565 91.43248 51.94123
#
# Poissons Ratio (x) = -0.01727 0.29323
# Poissons Ratio (y) = -0.01453 0.09185
# Poissons Ratio (z) = 0.43405 0.16168
#
# Static dielectric constant tensor:
#      x y z
#    x 1.717140 0.000000 0.000000 
#    y 0.000000 1.954790 0.000000 
#    z 0.000000 0.000000 1.825710 
# 
# From -- ./inp_files/27283.got.cif
#   From: 2010.05.17/outbox.cif.g08.bks.cpg/sg73_14_cif.got.tgz:27283.got - 2010.06.03 17:35:07.
