data_PCOD9531456
_publ_section_title
;
Structure prediction by ZEFSAII (Michael W. Deem and Ramdas Pophale) SiO2 
 PCOD9531456
Probable space group: I B C A 
;
_chemical_formula_sum "Si O2"
_cell_formula_units_Z 64
_cell_length_a 25.083285
_cell_length_b 23.732694
_cell_length_c 5.242693
_cell_angle_alpha 90.000000
_cell_angle_beta 90.000000
_cell_angle_gamma 90.000000
_cell_volume 3120.943306
_symmetry_space_group_name_H-M "I B C A "
_symmetry_group_IT_number 73
_symmetry_cell_setting 'orthorhombic'
loop_
_space_group_symop_operation_xyz
x,y,z
-x,1/2-y,z
x,-y,1/2-z
1/2-x,y,-z
-x,-y,-z
x,1/2+y,-z
-x,y,1/2+z
1/2+x,-y,z
1/2+x,1/2+y,1/2+z
1/2-x,-y,1/2+z
1/2+x,1/2-y,-z
-x,1/2+y,1/2-z
1/2-x,1/2-y,1/2-z
1/2+x,y,1/2-z
1/2-x,1/2+y,z
x,1/2-y,1/2+z
loop_
_atom_site_type_symbol
_atom_site_label
_atom_site_fract_x
_atom_site_fract_y
_atom_site_fract_z
Si Si1 0.695826 0.940919 0.885432
Si Si2 0.853256 0.896578 0.633044
Si Si3 0.967227 0.932514 0.753685
Si Si4 0.811220 0.274422 0.251409
O O1 0.665489 0.910785 0.653502
O O2 0.710240 0.000000 0.750000
O O3 0.750000 0.915032 0.000000
O O4 0.661472 0.941029 0.142237
O O5 0.916728 0.896136 0.662426
O O6 0.821190 0.839616 0.698330
O O7 0.012914 0.922017 0.541295
O O8 0.954762 0.000000 0.750000
O O9 0.750000 0.250000 0.250000
O O10 0.836540 0.240964 0.483935
#
# Coordination Sequence:
#
# PCOD9531456 Si02
#       4
#    16  16  16  16
#     4  12  25  39  57  93 135 171 210 248 316 412
#     4  12  24  40  68  89 129 178 213 267 333 381
#     4  10  21  39  64  95 127 163 215 268 320 392
#     4  10  23  40  61  90 120 163 224 274 313 376
#
# _framework density 20.506619000000001
#
# number of rings (size 3 to 8) (size 9 to 14) (size 15 to 20)
#    0.000    1.000    0.000    7.500   10.500    2.000 
#    0.000    0.000    0.000    4.500    0.000    0.000 
#    0.000    0.000    0.000    0.000    0.000    0.000 
#
# Total GULP energy -178274.000355 kJ/mol
# GULP energy per Si atom -5571.062511 kJ/mol
# Density = 2.045995 g / cm^3
# Si number density = 20.506619 Si / 1000 Ang^3
#
#
#
# Elastic Constant Matrix: (Units=GPa)
#
#
# Indices 1 2 3 4 5 6 
#
# 1 80.5602 26.5426 10.7425 0.0000 0.0000 0.0000
# 2 26.5426 62.6885 6.0904 0.0000 0.0000 0.0000
# 3 10.7425 6.0904 119.6261 0.0000 0.0000 0.0000
# 4 0.0000 0.0000 0.0000 12.6729 0.0000 0.0000
# 5 0.0000 0.0000 0.0000 0.0000 34.8524 0.0000
# 6 0.0000 0.0000 0.0000 0.0000 0.0000 21.2781
#
#
#
# Elastic Compliance Matrix: (Units=1/GPa)
#
#
# Indices 1 2 3 4 5 6 
#
# 1 0.014543 -0.006061 -0.000997 0.000000 0.000000 0.000000
# 2 -0.006061 0.018557 -0.000401 0.000000 0.000000 0.000000
# 3 -0.000997 -0.000401 0.008469 0.000000 0.000000 0.000000
# 4 0.000000 0.000000 0.000000 0.078908 0.000000 0.000000
# 5 0.000000 0.000000 0.000000 0.000000 0.028692 0.000000
# 6 0.000000 0.000000 0.000000 0.000000 0.000000 0.046997
#
#
# Mechanical properties :
#
#
# Convention : Reuss Voigt Hill
#
# Bulk Modulus (GPa) = 37.52061 38.84733 38.18397
# Shear Modulus (GPa) = 22.73061 28.39397 25.56229
#
# Velocity S-wave (km/s) = 3.33296 3.72509 3.53447
# Velocity P-wave (km/s) = 5.75743 6.12264 5.94284
#
# Compressibility (1/GPa) = 0.02665202
#
# Stress axis : x y z
#
# Youngs Moduli (GPa) = 68.76205 53.88834 118.07301
#
# Poissons Ratio (x) = 0.32660 0.11777
# Poissons Ratio (y) = 0.41674 0.04729
# Poissons Ratio (z) = 0.06858 0.02158
#
# Static dielectric constant tensor:
#      x y z
#    x 2.004780 0.000000 0.000000 
#    y 0.000000 1.770060 0.000000 
#    z 0.000000 0.000000 1.780130 
# 
# From -- ./inp_files/1634.got.cif
#   From: 2010.05.17/outbox.cif.g08.bks.cpg/sg73_1_cif.got.tgz:1634.got - 2010.06.03 17:35:07.
