data_PCOD9531607
_publ_section_title
;
Structure prediction by ZEFSAII (Michael W. Deem and Ramdas Pophale) SiO2 
 PCOD9531607
Probable space group: I B C A 
;
_chemical_formula_sum "Si O2"
_cell_formula_units_Z 112
_cell_length_a 14.314763
_cell_length_b 23.589393
_cell_length_c 14.865724
_cell_angle_alpha 90.000000
_cell_angle_beta 90.000000
_cell_angle_gamma 90.000000
_cell_volume 5019.806693
_symmetry_space_group_name_H-M "I B C A "
_symmetry_group_IT_number 73
_symmetry_cell_setting 'orthorhombic'
loop_
_space_group_symop_operation_xyz
x,y,z
-x,1/2-y,z
x,-y,1/2-z
1/2-x,y,-z
-x,-y,-z
x,1/2+y,-z
-x,y,1/2+z
1/2+x,-y,z
1/2+x,1/2+y,1/2+z
1/2-x,-y,1/2+z
1/2+x,1/2-y,-z
-x,1/2+y,1/2-z
1/2-x,1/2-y,1/2-z
1/2+x,y,1/2-z
1/2-x,1/2+y,z
x,1/2-y,1/2+z
loop_
_atom_site_type_symbol
_atom_site_label
_atom_site_fract_x
_atom_site_fract_y
_atom_site_fract_z
Si Si1 0.515344 0.912230 0.091880
Si Si2 0.269620 0.096089 0.899703
Si Si3 0.503287 0.125112 0.114534
Si Si4 0.924916 0.296275 0.642199
Si Si5 0.598909 0.519158 0.347380
Si Si6 0.838628 0.303241 0.449907
Si Si7 0.329556 0.197827 0.178904
O O1 0.623947 0.922794 0.115073
O O2 0.469576 0.859204 0.144468
O O3 0.449743 0.967015 0.102136
O O4 0.517047 0.892497 0.988374
O O5 0.190261 0.047680 0.890993
O O6 0.245170 0.148059 0.834472
O O7 0.250000 0.119450 0.000000
O O8 0.480251 0.067513 0.166445
O O9 0.428891 0.171182 0.147226
O O10 0.604569 0.152772 0.111029
O O11 0.898322 0.285079 0.538018
O O12 0.843368 0.290215 0.715732
O O13 0.000000 0.250000 0.669621
O O14 0.630291 0.500000 0.250000
O O15 0.750000 0.330315 0.500000
O O16 0.814169 0.249567 0.388979
#
# Coordination Sequence:
#
# PCOD9531607 Si02
#       7
#    16  16  16  16  16  16  16
#     4  11  22  44  69  96 131 180 231 278 352 418
#     4  11  23  42  73  98 128 188 229 282 353 426
#     4  10  21  41  66  92 130 183 222 276 352 407
#     4  11  25  43  69 101 137 184 229 287 347 414
#     4  11  24  43  66 100 135 173 231 293 343 417
#     4  11  24  41  66 102 140 180 228 289 343 414
#     4  11  22  43  68  96 137 178 232 279 336 423
#
# _framework density 22.311616999999998
#
# number of rings (size 3 to 8) (size 9 to 14) (size 15 to 20)
#    0.000    1.143    2.857    5.571    2.000    1.143 
#   10.286    0.000    0.000    0.000    0.000    0.000 
#    0.000    0.000    0.000    0.000    0.000    0.000 
#
# Total GULP energy -313026.472174 kJ/mol
# GULP energy per Si atom -5589.758432 kJ/mol
# Density = 2.226083 g / cm^3
# Si number density = 22.311617 Si / 1000 Ang^3
#
#
#
# Elastic Constant Matrix: (Units=GPa)
#
#
# Indices 1 2 3 4 5 6 
#
# 1 100.5240 53.1553 9.9617 0.0000 0.0000 0.0000
# 2 53.1553 109.5476 27.0914 0.0000 0.0001 0.0000
# 3 9.9617 27.0914 81.2702 -0.0003 0.0000 0.0000
# 4 0.0000 0.0000 -0.0003 -16.1154 0.0000 0.0000
# 5 0.0000 0.0001 0.0000 0.0000 35.6678 0.0000
# 6 0.0000 0.0000 0.0000 0.0000 0.0000 5.1976
#
#
#
# Elastic Compliance Matrix: (Units=1/GPa)
#
#
# Indices 1 2 3 4 5 6 
#
# 1 0.013406 -0.006646 0.000572 0.000000 0.000000 0.000000
# 2 -0.006646 0.013244 -0.003600 0.000000 0.000000 0.000000
# 3 0.000572 -0.003600 0.013435 0.000000 0.000000 0.000000
# 4 0.000000 0.000000 0.000000 -0.062053 0.000000 0.000000
# 5 0.000000 0.000000 0.000000 0.000000 0.028036 0.000000
# 6 0.000000 0.000000 0.000000 0.000000 0.000000 0.192396
#
#
# Mechanical properties :
#
#
# Convention : Reuss Voigt Hill
#
# Bulk Modulus (GPa) = 48.22581 52.41761 50.32171
# Shear Modulus (GPa) = 22.24950 18.35890 20.30420
#
# Velocity S-wave (km/s) = 3.16130 2.87163 3.01994
# Velocity P-wave (km/s) = 5.91495 5.87703 5.89602
#
# Compressibility (1/GPa) = 0.02073578
#
# Stress axis : x y z
#
# Youngs Moduli (GPa) = 74.59577 75.50757 74.43476
#
# Poissons Ratio (x) = 0.50184 -0.04260
# Poissons Ratio (y) = 0.49578 0.26797
# Poissons Ratio (z) = -0.04269 0.27184
#
# Static dielectric constant tensor:
#      x y z
#    x 1.882440 0.000000 0.000000 
#    y 0.000000 1.811960 0.000000 
#    z 0.000000 0.000000 1.848440 
# 
# From -- ./inp_files/17279.got.cif
#   From: 2010.05.17/outbox.cif.g08.bks.cpg/sg73_9_cif.got.tgz:17279.got - 2010.06.03 17:35:07.
