data_PCOD9531433
_publ_section_title
;
Structure prediction by ZEFSAII (Michael W. Deem and Ramdas Pophale) SiO2 
 PCOD9531433
Probable space group: I B C A 
;
_chemical_formula_sum "Si O2"
_cell_formula_units_Z 112
_cell_length_a 20.409327
_cell_length_b 12.374639
_cell_length_c 21.081826
_cell_angle_alpha 90.000000
_cell_angle_beta 90.000000
_cell_angle_gamma 90.000000
_cell_volume 5324.384946
_symmetry_space_group_name_H-M "I B C A "
_symmetry_group_IT_number 73
_symmetry_cell_setting 'orthorhombic'
loop_
_space_group_symop_operation_xyz
x,y,z
-x,1/2-y,z
x,-y,1/2-z
1/2-x,y,-z
-x,-y,-z
x,1/2+y,-z
-x,y,1/2+z
1/2+x,-y,z
1/2+x,1/2+y,1/2+z
1/2-x,-y,1/2+z
1/2+x,1/2-y,-z
-x,1/2+y,1/2-z
1/2-x,1/2-y,1/2-z
1/2+x,y,1/2-z
1/2-x,1/2+y,z
x,1/2-y,1/2+z
loop_
_atom_site_type_symbol
_atom_site_label
_atom_site_fract_x
_atom_site_fract_y
_atom_site_fract_z
Si Si1 0.204976 0.652793 0.191051
Si Si2 0.923110 0.250335 0.943113
Si Si3 0.352882 0.209402 0.792710
Si Si4 0.862327 0.973326 0.090820
Si Si5 0.679236 0.876188 0.377374
Si Si6 0.075665 0.207547 0.586049
Si Si7 0.750000 0.530889 0.000000
Si Si8 0.143168 0.000000 0.250000
O O1 0.280590 0.653784 0.211638
O O2 0.156588 0.686418 0.248211
O O3 0.181516 0.546862 0.154013
O O4 0.203813 0.759459 0.146642
O O5 0.902682 0.363752 0.913686
O O6 0.892502 0.150945 0.904720
O O7 0.000000 0.250000 0.943734
O O8 0.901184 0.241593 0.016093
O O9 0.378211 0.240070 0.860964
O O10 0.396063 0.110074 0.767124
O O11 0.908142 0.078995 0.090719
O O12 0.812638 0.972180 0.030848
O O13 0.722733 0.908112 0.437816
O O14 0.674502 0.957859 0.318191
O O15 0.000000 0.250000 0.593938
#
# Coordination Sequence:
#
# PCOD9531433 Si02
#       8
#    16  16  16  16  16  16   8   8
#     4   9  21  38  64  93 135 172 222 284 349 404
#     4  10  24  43  65  92 134 178 226 284 345 411
#     4  10  21  40  62  94 133 181 222 282 343 414
#     4  11  24  40  64 103 127 177 223 286 350 403
#     4  10  21  39  62  99 131 175 221 280 343 407
#     4  11  25  43  65  98 134 180 233 285 341 423
#     4  12  22  36  68 104 136 172 230 286 342 424
#     4  10  22  38  62  92 132 176 220 262 348 406
#
# _framework density 21.035292999999999
#
# number of rings (size 3 to 8) (size 9 to 14) (size 15 to 20)
#    0.000    1.714    1.429    1.714    4.000    7.429 
#    0.000    7.857    0.000    0.000    0.000    0.000 
#    0.000    0.000    0.000    0.000    0.000    0.000 
#
# Total GULP energy -311843.962313 kJ/mol
# GULP energy per Si atom -5568.642184 kJ/mol
# Density = 2.098742 g / cm^3
# Si number density = 21.035293 Si / 1000 Ang^3
#
#
#
# Elastic Constant Matrix: (Units=GPa)
#
#
# Indices 1 2 3 4 5 6 
#
# 1 47.4608 20.9756 39.1601 0.0000 0.0000 0.0000
# 2 20.9756 87.3404 34.9415 0.0000 0.0000 0.0000
# 3 39.1601 34.9415 136.4068 0.0000 0.0000 0.0000
# 4 0.0000 0.0000 0.0000 29.5088 0.0000 0.0000
# 5 0.0000 0.0000 0.0000 0.0000 25.1884 0.0000
# 6 0.0000 0.0000 0.0000 0.0000 0.0000 28.1327
#
#
#
# Elastic Compliance Matrix: (Units=1/GPa)
#
#
# Indices 1 2 3 4 5 6 
#
# 1 0.028826 -0.004025 -0.007245 0.000000 0.000000 0.000000
# 2 -0.004025 0.013319 -0.002256 0.000000 0.000000 0.000000
# 3 -0.007245 -0.002256 0.009989 0.000000 0.000000 0.000000
# 4 0.000000 0.000000 0.000000 0.033888 0.000000 0.000000
# 5 0.000000 0.000000 0.000000 0.000000 0.039701 0.000000
# 6 0.000000 0.000000 0.000000 0.000000 0.000000 0.035546
#
#
# Mechanical properties :
#
#
# Convention : Reuss Voigt Hill
#
# Bulk Modulus (GPa) = 39.86806 51.26249 45.56527
# Shear Modulus (GPa) = 25.42196 28.30804 26.86500
#
# Velocity S-wave (km/s) = 3.48018 3.67241 3.57759
# Velocity P-wave (km/s) = 5.92815 6.51190 6.22687
#
# Compressibility (1/GPa) = 0.02508274
#
# Stress axis : x y z
#
# Youngs Moduli (GPa) = 34.69057 75.08270 100.11234
#
# Poissons Ratio (x) = 0.30218 0.72528
# Poissons Ratio (y) = 0.13962 0.22588
# Poissons Ratio (z) = 0.25132 0.16941
#
# Static dielectric constant tensor:
#      x y z
#    x 2.048760 0.000000 0.000000 
#    y 0.000000 1.782250 0.000000 
#    z 0.000000 0.000000 1.796640 
# 
# From -- ./inp_files/27327.got.cif
#   From: 2010.05.17/outbox.cif.g08.bks.cpg/sg73_14_cif.got.tgz:27327.got - 2010.06.03 17:35:07.
