data_PCOD9531229
_publ_section_title
;
Structure prediction by ZEFSAII (Michael W. Deem and Ramdas Pophale) SiO2 
 PCOD9531229
Probable space group: I B C A 
;
_chemical_formula_sum "Si O2"
_cell_formula_units_Z 72
_cell_length_a 17.348817
_cell_length_b 10.436501
_cell_length_c 19.004819
_cell_angle_alpha 90.000000
_cell_angle_beta 90.000000
_cell_angle_gamma 90.000000
_cell_volume 3441.030506
_symmetry_space_group_name_H-M "I B C A "
_symmetry_group_IT_number 73
_symmetry_cell_setting 'orthorhombic'
loop_
_space_group_symop_operation_xyz
x,y,z
-x,1/2-y,z
x,-y,1/2-z
1/2-x,y,-z
-x,-y,-z
x,1/2+y,-z
-x,y,1/2+z
1/2+x,-y,z
1/2+x,1/2+y,1/2+z
1/2-x,-y,1/2+z
1/2+x,1/2-y,-z
-x,1/2+y,1/2-z
1/2-x,1/2-y,1/2-z
1/2+x,y,1/2-z
1/2-x,1/2+y,z
x,1/2-y,1/2+z
loop_
_atom_site_type_symbol
_atom_site_label
_atom_site_fract_x
_atom_site_fract_y
_atom_site_fract_z
Si Si1 0.037336 0.426035 0.351718
Si Si2 0.877500 0.438665 0.140187
Si Si3 0.948350 0.628974 0.497379
Si Si4 0.249444 0.500000 0.250000
Si Si5 0.891046 0.331802 0.712021
O O1 0.069224 0.353564 0.420194
O O2 0.079685 0.563765 0.344630
O O3 0.058411 0.353228 0.281129
O O4 0.946874 0.459342 0.353188
O O5 0.802002 0.486680 0.180458
O O6 0.897152 0.308830 0.182066
O O7 0.880122 0.398214 0.057826
O O8 0.000000 0.750000 0.474083
O O9 0.000000 0.500000 0.500000
O O10 0.193487 0.620915 0.263668
#
# Coordination Sequence:
#
# PCOD9531229 Si02
#       5
#    16  16  16   8  16
#     4   9  20  35  58  86 112 146 195 246 295 348
#     4  11  20  36  59  81 114 158 191 239 302 349
#     4  10  21  36  57  89 119 146 189 246 298 349
#     4  10  22  36  56  84 116 156 198 236 286 352
#     4  10  21  38  56  85 118 149 197 248 285 349
#
# _framework density 20.923964000000002
#
# number of rings (size 3 to 8) (size 9 to 14) (size 15 to 20)
#    0.000    2.222    0.000    5.333    0.000    7.111 
#    0.000    4.444    0.000    5.333    0.000    0.000 
#    0.000    0.000    0.000    0.000    0.000    0.000 
#
# Total GULP energy -200966.585664 kJ/mol
# GULP energy per Si atom -5582.405157 kJ/mol
# Density = 2.087634 g / cm^3
# Si number density = 20.923964 Si / 1000 Ang^3
#
#
#
# Elastic Constant Matrix: (Units=GPa)
#
#
# Indices 1 2 3 4 5 6 
#
# 1 95.4381 18.0685 48.1873 0.0000 0.0000 0.0000
# 2 18.0685 80.1353 24.9340 0.0000 0.0000 0.0000
# 3 48.1873 24.9340 138.8545 0.0000 0.0000 0.0000
# 4 0.0000 0.0000 0.0000 27.4175 0.0000 0.0000
# 5 0.0000 0.0000 0.0000 0.0000 -4.0995 0.0000
# 6 0.0000 0.0000 0.0000 0.0000 0.0000 19.4328
#
#
#
# Elastic Compliance Matrix: (Units=1/GPa)
#
#
# Indices 1 2 3 4 5 6 
#
# 1 0.012896 -0.001605 -0.004187 0.000000 0.000000 0.000000
# 2 -0.001605 0.013417 -0.001852 0.000000 0.000000 0.000000
# 3 -0.004187 -0.001852 0.008987 0.000000 0.000000 0.000000
# 4 0.000000 0.000000 0.000000 0.036473 0.000000 0.000000
# 5 0.000000 0.000000 0.000000 0.000000 -0.243932 0.000000
# 6 0.000000 0.000000 0.000000 0.000000 0.000000 0.051459
#
#
# Mechanical properties :
#
#
# Convention : Reuss Voigt Hill
#
# Bulk Modulus (GPa) = 49.97056 55.20082 52.58569
# Shear Modulus (GPa) = -50.63810 23.43270 -13.60270
#
# Velocity S-wave (km/s) = -4.92479 3.35012 -2.55247
# Velocity P-wave (km/s) = 2.89901 6.43454 4.06196
#
# Compressibility (1/GPa) = 0.02001178
#
# Stress axis : x y z
#
# Youngs Moduli (GPa) = 77.54369 74.53169 111.26573
#
# Poissons Ratio (x) = 0.11962 0.46589
# Poissons Ratio (y) = 0.12445 0.20610
# Poissons Ratio (z) = 0.32469 0.13806
#
# Static dielectric constant tensor:
#      x y z
#    x 1.770000 0.000000 0.000000 
#    y 0.000000 1.786940 0.000000 
#    z 0.000000 0.000000 1.834080 
# 
# From -- ./inp_files/26382.got.cif
#   From: 2010.05.17/outbox.cif.g08.bks.cpg/sg73_14_cif.got.tgz:26382.got - 2010.06.03 17:35:07.
