data_PCOD9531483
_publ_section_title
;
Structure prediction by ZEFSAII (Michael W. Deem and Ramdas Pophale) SiO2 
 PCOD9531483
Probable space group: I B C A 
;
_chemical_formula_sum "Si O2"
_cell_formula_units_Z 56
_cell_length_a 5.371965
_cell_length_b 18.040250
_cell_length_c 29.090259
_cell_angle_alpha 90.000000
_cell_angle_beta 90.000000
_cell_angle_gamma 90.000000
_cell_volume 2819.183299
_symmetry_space_group_name_H-M "I B C A "
_symmetry_group_IT_number 73
_symmetry_cell_setting 'orthorhombic'
loop_
_space_group_symop_operation_xyz
x,y,z
-x,1/2-y,z
x,-y,1/2-z
1/2-x,y,-z
-x,-y,-z
x,1/2+y,-z
-x,y,1/2+z
1/2+x,-y,z
1/2+x,1/2+y,1/2+z
1/2-x,-y,1/2+z
1/2+x,1/2-y,-z
-x,1/2+y,1/2-z
1/2-x,1/2-y,1/2-z
1/2+x,y,1/2-z
1/2-x,1/2+y,z
x,1/2-y,1/2+z
loop_
_atom_site_type_symbol
_atom_site_label
_atom_site_fract_x
_atom_site_fract_y
_atom_site_fract_z
Si Si1 0.750000 0.656902 0.000000
Si Si2 0.990035 0.451792 0.061170
Si Si3 0.000000 0.750000 0.579508
Si Si4 0.500000 0.750000 0.219919
Si Si5 0.110169 0.827984 0.369008
O O1 0.529871 0.604307 0.018594
O O2 0.830499 0.706233 0.042839
O O3 0.232911 0.503766 0.060265
O O4 0.988994 0.400352 0.106514
O O5 0.891464 0.686703 0.613776
O O6 0.750000 0.750000 0.250000
O O7 0.458455 0.681007 0.184457
O O8 0.000000 0.750000 0.387634
#
# Coordination Sequence:
#
# PCOD9531483 Si02
#       5
#     8  16   8   8  16
#     4  12  22  38  60  92 124 182 228 278 300 360
#     4  12  26  42  60  91 135 175 216 262 318 378
#     4  12  21  41  64  92 132 170 236 275 317 364
#     4  10  21  39  72 104 120 148 212 281 321 386
#     4  10  23  42  65  93 122 173 207 268 325 390
#
# _framework density 19.863910000000001
#
# number of rings (size 3 to 8) (size 9 to 14) (size 15 to 20)
#    0.857    0.000    2.857    5.143    0.000    2.286 
#    0.000    0.000    0.000    5.143    0.000    0.000 
#    0.000    0.000    0.000    0.000    0.000    0.000 
#
# Total GULP energy -156002.007877 kJ/mol
# GULP energy per Si atom -5571.500281 kJ/mol
# Density = 1.981870 g / cm^3
# Si number density = 19.863910 Si / 1000 Ang^3
#
#
#
# Elastic Constant Matrix: (Units=GPa)
#
#
# Indices 1 2 3 4 5 6 
#
# 1 126.5914 49.2247 66.1374 0.0000 0.0000 0.0000
# 2 49.2247 78.6021 42.0809 0.0000 0.0000 0.0000
# 3 66.1374 42.0809 147.8356 0.0000 0.0000 0.0000
# 4 0.0000 0.0000 0.0000 22.0194 0.0000 0.0000
# 5 0.0000 0.0000 0.0000 0.0000 36.0026 0.0000
# 6 0.0000 0.0000 0.0000 0.0000 0.0000 31.4857
#
#
#
# Elastic Compliance Matrix: (Units=1/GPa)
#
#
# Indices 1 2 3 4 5 6 
#
# 1 0.012029 -0.005489 -0.003819 0.000000 0.000000 0.000000
# 2 -0.005489 0.017514 -0.002530 0.000000 0.000000 0.000000
# 3 -0.003819 -0.002530 0.009193 0.000000 0.000000 0.000000
# 4 0.000000 0.000000 0.000000 0.045415 0.000000 0.000000
# 5 0.000000 0.000000 0.000000 0.000000 0.027776 0.000000
# 6 0.000000 0.000000 0.000000 0.000000 0.000000 0.031760
#
#
# Mechanical properties :
#
#
# Convention : Reuss Voigt Hill
#
# Bulk Modulus (GPa) = 66.39758 74.21278 70.30518
# Shear Modulus (GPa) = 29.00538 30.94059 29.97299
#
# Velocity S-wave (km/s) = 3.82541 3.95096 3.88869
# Velocity P-wave (km/s) = 7.28083 7.63251 7.45874
#
# Compressibility (1/GPa) = 0.01506079
#
# Stress axis : x y z
#
# Youngs Moduli (GPa) = 83.13312 57.09752 108.77909
#
# Poissons Ratio (x) = 0.31338 0.41544
# Poissons Ratio (y) = 0.45628 0.27520
# Poissons Ratio (z) = 0.31749 0.14445
#
# Static dielectric constant tensor:
#      x y z
#    x 2.338020 0.000000 0.000000 
#    y 0.000000 1.729840 0.000000 
#    z 0.000000 0.000000 1.701740 
# 
# From -- ./inp_files/1067.got.cif
#   From: 2010.05.17/outbox.cif.g08.bks.cpg/sg73_1_cif.got.tgz:1067.got - 2010.06.03 17:35:07.
