data_PCOD9531108
_publ_section_title
;
Structure prediction by ZEFSAII (Michael W. Deem and Ramdas Pophale) SiO2 
 PCOD9531108
Probable space group: I B C A 
;
_chemical_formula_sum "Si O2"
_cell_formula_units_Z 80
_cell_length_a 23.996450
_cell_length_b 11.238721
_cell_length_c 13.810473
_cell_angle_alpha 90.000000
_cell_angle_beta 90.000000
_cell_angle_gamma 90.000000
_cell_volume 3724.538267
_symmetry_space_group_name_H-M "I B C A "
_symmetry_group_IT_number 73
_symmetry_cell_setting 'orthorhombic'
loop_
_space_group_symop_operation_xyz
x,y,z
-x,1/2-y,z
x,-y,1/2-z
1/2-x,y,-z
-x,-y,-z
x,1/2+y,-z
-x,y,1/2+z
1/2+x,-y,z
1/2+x,1/2+y,1/2+z
1/2-x,-y,1/2+z
1/2+x,1/2-y,-z
-x,1/2+y,1/2-z
1/2-x,1/2-y,1/2-z
1/2+x,y,1/2-z
1/2-x,1/2+y,z
x,1/2-y,1/2+z
loop_
_atom_site_type_symbol
_atom_site_label
_atom_site_fract_x
_atom_site_fract_y
_atom_site_fract_z
Si Si1 0.746837 0.375096 0.188424
Si Si2 0.870183 0.542660 0.639195
Si Si3 0.436568 0.030818 0.525470
Si Si4 0.368777 0.390803 0.327603
Si Si5 0.561930 0.758023 0.319448
O O1 0.748151 0.500000 0.250000
O O2 0.750000 0.250000 0.250000
O O3 0.689983 0.393121 0.127691
O O4 0.806199 0.373752 0.135044
O O5 0.871012 0.500000 0.750000
O O6 0.891845 0.447073 0.561284
O O7 0.919456 0.637627 0.631137
O O8 0.409948 0.923581 0.587117
O O9 0.500000 0.000000 0.500000
O O10 0.437458 0.140982 0.599327
O O11 0.368396 0.500000 0.250000
O O12 0.393164 0.284508 0.263796
O O13 0.500000 0.750000 0.277394
#
# Coordination Sequence:
#
# PCOD9531108 Si02
#       5
#    16  16  16  16  16
#     4  10  20  42  70  98 130 176 231 283 340 412
#     4  11  25  42  65  98 136 175 227 286 345 413
#     4  11  24  41  61  98 136 174 234 283 339 417
#     4   9  21  40  68  91 128 178 222 280 343 403
#     4  11  22  40  66  97 131 180 224 282 351 419
#
# _framework density 21.479171000000001
#
# number of rings (size 3 to 8) (size 9 to 14) (size 15 to 20)
#    0.000    1.600    4.000    0.000    2.800    2.400 
#    0.000    0.000    0.000    0.000    0.000    0.000 
#    0.000    0.000    0.000    0.000    0.000    0.000 
#
# Total GULP energy -222920.802786 kJ/mol
# GULP energy per Si atom -5573.020070 kJ/mol
# Density = 2.143028 g / cm^3
# Si number density = 21.479171 Si / 1000 Ang^3
#
#
#
# Elastic Constant Matrix: (Units=GPa)
#
#
# Indices 1 2 3 4 5 6 
#
# 1 193.9129 12.8471 41.8484 0.0000 0.0000 0.0000
# 2 12.8471 64.0828 3.3177 0.0000 0.0000 0.0000
# 3 41.8484 3.3177 84.1566 0.0000 0.0000 0.0000
# 4 0.0000 0.0000 0.0000 17.3574 0.0000 0.0000
# 5 0.0000 0.0000 0.0000 0.0000 24.6569 0.0000
# 6 0.0000 0.0000 0.0000 0.0000 0.0000 28.2210
#
#
#
# Elastic Compliance Matrix: (Units=1/GPa)
#
#
# Indices 1 2 3 4 5 6 
#
# 1 0.005843 -0.001023 -0.002865 0.000000 0.000000 0.000000
# 2 -0.001023 0.015816 -0.000115 0.000000 0.000000 0.000000
# 3 -0.002865 -0.000115 0.013312 0.000000 0.000000 0.000000
# 4 0.000000 0.000000 0.000000 0.057612 0.000000 0.000000
# 5 0.000000 0.000000 0.000000 0.000000 0.040557 0.000000
# 6 0.000000 0.000000 0.000000 0.000000 0.000000 0.035435
#
#
# Mechanical properties :
#
#
# Convention : Reuss Voigt Hill
#
# Bulk Modulus (GPa) = 37.08553 50.90876 43.99714
# Shear Modulus (GPa) = 26.94420 32.98967 29.96694
#
# Velocity S-wave (km/s) = 3.54564 3.92330 3.73924
# Velocity P-wave (km/s) = 5.83656 6.65401 6.25865
#
# Compressibility (1/GPa) = 0.02696469
#
# Stress axis : x y z
#
# Youngs Moduli (GPa) = 171.14245 63.22770 75.12061
#
# Poissons Ratio (x) = 0.06469 0.21524
# Poissons Ratio (y) = 0.17509 0.00862
# Poissons Ratio (z) = 0.49037 0.00726
#
# Static dielectric constant tensor:
#      x y z
#    x 1.794370 0.000000 0.000000 
#    y 0.000000 1.148580 0.000000 
#    z 0.000000 0.000000 1.876530 
# 
# From -- ./inp_files/10830.got.cif
#   From: 2010.05.17/outbox.cif.g08.bks.cpg/sg73_6_cif.got.tgz:10830.got - 2010.06.03 17:35:07.
