data_PCOD9531074
_publ_section_title
;
Structure prediction by ZEFSAII (Michael W. Deem and Ramdas Pophale) SiO2 
 PCOD9531074
Probable space group: I B C A 
;
_chemical_formula_sum "Si O2"
_cell_formula_units_Z 64
_cell_length_a 18.827535
_cell_length_b 24.700274
_cell_length_c 5.379323
_cell_angle_alpha 90.000000
_cell_angle_beta 90.000000
_cell_angle_gamma 90.000000
_cell_volume 2501.628734
_symmetry_space_group_name_H-M "I B C A "
_symmetry_group_IT_number 73
_symmetry_cell_setting 'orthorhombic'
loop_
_space_group_symop_operation_xyz
x,y,z
-x,1/2-y,z
x,-y,1/2-z
1/2-x,y,-z
-x,-y,-z
x,1/2+y,-z
-x,y,1/2+z
1/2+x,-y,z
1/2+x,1/2+y,1/2+z
1/2-x,-y,1/2+z
1/2+x,1/2-y,-z
-x,1/2+y,1/2-z
1/2-x,1/2-y,1/2-z
1/2+x,y,1/2-z
1/2-x,1/2+y,z
x,1/2-y,1/2+z
loop_
_atom_site_type_symbol
_atom_site_label
_atom_site_fract_x
_atom_site_fract_y
_atom_site_fract_z
Si Si1 0.169254 0.728465 0.195565
Si Si2 0.562049 0.500000 0.750000
Si Si3 0.679905 0.881589 0.636897
Si Si4 0.466837 0.880554 0.843089
Si Si5 0.654051 0.500000 0.250000
O O1 0.250000 0.750000 0.250000
O O2 0.135242 0.741740 0.462334
O O3 0.167916 0.664075 0.155875
O O4 0.518789 0.555102 0.793899
O O5 0.610280 0.505741 0.505362
O O6 0.750000 0.862594 0.500000
O O7 0.613097 0.880404 0.449249
O O8 0.692914 0.942491 0.727782
O O9 0.485722 0.857972 0.570779
#
# Coordination Sequence:
#
# PCOD9531074 Si02
#       5
#    16   8  16  16   8
#     4  10  21  42  67  99 120 170 234 281 319 392
#     4  10  20  42  64  88 134 196 238 258 316 436
#     4  11  24  45  70 102 140 179 226 287 338 414
#     4  11  23  41  63  96 135 182 226 275 334 405
#     4  10  24  40  60 106 142 176 216 290 366 392
#
# _framework density 25.583331999999999
#
# number of rings (size 3 to 8) (size 9 to 14) (size 15 to 20)
#    0.000    1.500    2.500    3.750    0.000   11.000 
#    4.500    0.000    0.000    4.500    0.000    0.000 
#    0.000    0.000    0.000    0.000    0.000    0.000 
#
# Total GULP energy -178877.453303 kJ/mol
# GULP energy per Si atom -5589.920416 kJ/mol
# Density = 2.552510 g / cm^3
# Si number density = 25.583332 Si / 1000 Ang^3
#
#
#
# Elastic Constant Matrix: (Units=GPa)
#
#
# Indices 1 2 3 4 5 6 
#
# 1 83.1221 -2.9484 13.3007 0.0000 0.0000 0.0000
# 2 -2.9484 154.2933 9.3179 0.0000 0.0000 0.0000
# 3 13.3007 9.3179 158.7647 0.0000 0.0000 0.0000
# 4 0.0000 0.0000 0.0000 29.2487 0.0000 0.0000
# 5 0.0000 0.0000 0.0000 0.0000 26.6405 0.0000
# 6 0.0000 0.0000 0.0000 0.0000 0.0000 6.3044
#
#
#
# Elastic Compliance Matrix: (Units=1/GPa)
#
#
# Indices 1 2 3 4 5 6 
#
# 1 0.012207 0.000296 -0.001040 0.000000 0.000000 0.000000
# 2 0.000296 0.006511 -0.000407 0.000000 0.000000 0.000000
# 3 -0.001040 -0.000407 0.006410 0.000000 0.000000 0.000000
# 4 0.000000 0.000000 0.000000 0.034190 0.000000 0.000000
# 5 0.000000 0.000000 0.000000 0.000000 0.037537 0.000000
# 6 0.000000 0.000000 0.000000 0.000000 0.000000 0.158620
#
#
# Mechanical properties :
#
#
# Convention : Reuss Voigt Hill
#
# Bulk Modulus (GPa) = 43.80858 48.39116 46.09987
# Shear Modulus (GPa) = 18.84051 37.53937 28.18994
#
# Velocity S-wave (km/s) = 2.71668 3.83474 3.32307
# Velocity P-wave (km/s) = 5.19630 6.20992 5.72559
#
# Compressibility (1/GPa) = 0.02282658
#
# Stress axis : x y z
#
# Youngs Moduli (GPa) = 81.91735 153.57687 156.01483
#
# Poissons Ratio (x) = -0.04547 0.16227
# Poissons Ratio (y) = -0.02425 0.06349
# Poissons Ratio (z) = 0.08520 0.06250
#
# Static dielectric constant tensor:
#      x y z
#    x 1.990800 0.000000 0.000000 
#    y 0.000000 2.017390 0.000000 
#    z 0.000000 0.000000 2.092520 
# 
# From -- ./inp_files/1568.got.cif
#   From: 2010.05.17/outbox.cif.g08.bks.cpg/sg73_1_cif.got.tgz:1568.got - 2010.06.03 17:35:07.
