data_PCOD9531366
_publ_section_title
;
Structure prediction by ZEFSAII (Michael W. Deem and Ramdas Pophale) SiO2 
 PCOD9531366
Probable space group: I B C A 
;
_chemical_formula_sum "Si O2"
_cell_formula_units_Z 112
_cell_length_a 16.090366
_cell_length_b 13.987596
_cell_length_c 22.221974
_cell_angle_alpha 90.000000
_cell_angle_beta 90.000000
_cell_angle_gamma 90.000000
_cell_volume 5001.400558
_symmetry_space_group_name_H-M "I B C A "
_symmetry_group_IT_number 73
_symmetry_cell_setting 'orthorhombic'
loop_
_space_group_symop_operation_xyz
x,y,z
-x,1/2-y,z
x,-y,1/2-z
1/2-x,y,-z
-x,-y,-z
x,1/2+y,-z
-x,y,1/2+z
1/2+x,-y,z
1/2+x,1/2+y,1/2+z
1/2-x,-y,1/2+z
1/2+x,1/2-y,-z
-x,1/2+y,1/2-z
1/2-x,1/2-y,1/2-z
1/2+x,y,1/2-z
1/2-x,1/2+y,z
x,1/2-y,1/2+z
loop_
_atom_site_type_symbol
_atom_site_label
_atom_site_fract_x
_atom_site_fract_y
_atom_site_fract_z
Si Si1 0.877092 0.415214 0.502704
Si Si2 0.250478 0.095983 0.780966
Si Si3 0.444422 0.408918 0.431980
Si Si4 0.160402 0.467860 0.391863
Si Si5 0.585530 0.883736 0.703049
Si Si6 0.917975 0.829973 0.804395
Si Si7 0.843805 0.202904 0.479278
O O1 0.897923 0.496325 0.454526
O O2 0.816473 0.458548 0.554505
O O3 0.852604 0.316469 0.471206
O O4 0.962531 0.409092 0.541831
O O5 0.233312 0.074039 0.850697
O O6 0.162707 0.117909 0.749089
O O7 0.328165 0.164564 0.774371
O O8 0.280637 0.000000 0.750000
O O9 0.431876 0.396535 0.361825
O O10 0.400849 0.320573 0.464243
O O11 0.105033 0.528865 0.342948
O O12 0.128246 0.372527 0.427183
O O13 0.581885 0.779638 0.671906
O O14 0.495280 0.871038 0.735442
O O15 0.750000 0.180875 0.500000
#
# Coordination Sequence:
#
# PCOD9531366 Si02
#       7
#    16  16  16  16  16  16  16
#     4  10  21  39  64  92 131 175 218 269 330 399
#     4  10  23  41  64  96 135 173 226 289 332 399
#     4  10  21  38  63  94 125 170 225 269 327 410
#     4  10  21  41  61  91 133 174 211 275 337 386
#     4  10  22  40  68  93 132 176 223 282 343 390
#     4  11  21  40  69  97 122 179 228 273 342 414
#     4  11  23  36  60  94 135 171 214 270 328 406
#
# _framework density 22.393727999999999
#
# number of rings (size 3 to 8) (size 9 to 14) (size 15 to 20)
#    0.000    1.714    1.429    2.571    2.000    5.143 
#    0.000    2.857   15.714    0.000    0.000    0.000 
#    0.000    0.000    0.000    0.000    0.000    0.000 
#
# Total GULP energy -311806.534885 kJ/mol
# GULP energy per Si atom -5567.973837 kJ/mol
# Density = 2.234276 g / cm^3
# Si number density = 22.393728 Si / 1000 Ang^3
#
#
#
# Elastic Constant Matrix: (Units=GPa)
#
#
# Indices 1 2 3 4 5 6 
#
# 1 102.3732 27.8697 28.2943 0.0000 0.0000 0.0000
# 2 27.8697 143.2375 27.8187 0.0000 0.0000 0.0000
# 3 28.2943 27.8187 53.5423 0.0000 0.0000 0.0000
# 4 0.0000 0.0000 0.0000 18.1724 0.0000 0.0000
# 5 0.0000 0.0000 0.0000 0.0000 1.6677 0.0000
# 6 0.0000 0.0000 0.0000 0.0000 0.0000 43.5969
#
#
#
# Elastic Compliance Matrix: (Units=1/GPa)
#
#
# Indices 1 2 3 4 5 6 
#
# 1 0.011618 -0.001188 -0.005522 0.000000 0.000000 0.000000
# 2 -0.001188 0.007886 -0.003470 0.000000 0.000000 0.000000
# 3 -0.005522 -0.003470 0.023398 0.000000 0.000000 0.000000
# 4 0.000000 0.000000 0.000000 0.055028 0.000000 0.000000
# 5 0.000000 0.000000 0.000000 0.000000 0.599623 0.000000
# 6 0.000000 0.000000 0.000000 0.000000 0.000000 0.022937
#
#
# Mechanical properties :
#
#
# Convention : Reuss Voigt Hill
#
# Bulk Modulus (GPa) = 44.36121 51.90205 48.13163
# Shear Modulus (GPa) = 6.68124 27.03209 16.85666
#
# Velocity S-wave (km/s) = 1.72916 3.47814 2.74659
# Velocity P-wave (km/s) = 4.88255 6.27354 5.62124
#
# Compressibility (1/GPa) = 0.02254222
#
# Stress axis : x y z
#
# Youngs Moduli (GPa) = 86.07457 126.80009 42.73920
#
# Poissons Ratio (x) = 0.15064 0.23601
# Poissons Ratio (y) = 0.10226 0.14829
# Poissons Ratio (z) = 0.47532 0.43996
#
# Static dielectric constant tensor:
#      x y z
#    x 1.977040 0.000000 0.000000 
#    y 0.000000 1.876390 0.000000 
#    z 0.000000 0.000000 1.913000 
# 
# From -- ./inp_files/29547.got.cif
#   From: 2010.05.17/outbox.cif.g08.bks.cpg/sg73_15_cif.got.tgz:29547.got - 2010.06.03 17:35:07.
