data_PCOD9531782
_publ_section_title
;
Structure prediction by ZEFSAII (Michael W. Deem and Ramdas Pophale) SiO2 
 PCOD9531782
Probable space group: I B C A 
;
_chemical_formula_sum "Si O2"
_cell_formula_units_Z 112
_cell_length_a 21.122549
_cell_length_b 11.398098
_cell_length_c 24.087897
_cell_angle_alpha 90.000000
_cell_angle_beta 90.000000
_cell_angle_gamma 90.000000
_cell_volume 5799.327012
_symmetry_space_group_name_H-M "I B C A "
_symmetry_group_IT_number 73
_symmetry_cell_setting 'orthorhombic'
loop_
_space_group_symop_operation_xyz
x,y,z
-x,1/2-y,z
x,-y,1/2-z
1/2-x,y,-z
-x,-y,-z
x,1/2+y,-z
-x,y,1/2+z
1/2+x,-y,z
1/2+x,1/2+y,1/2+z
1/2-x,-y,1/2+z
1/2+x,1/2-y,-z
-x,1/2+y,1/2-z
1/2-x,1/2-y,1/2-z
1/2+x,y,1/2-z
1/2-x,1/2+y,z
x,1/2-y,1/2+z
loop_
_atom_site_type_symbol
_atom_site_label
_atom_site_fract_x
_atom_site_fract_y
_atom_site_fract_z
Si Si1 0.536510 0.376000 0.987974
Si Si2 0.336982 0.564129 0.196276
Si Si3 0.338693 0.080901 0.360026
Si Si4 0.929850 0.281989 0.129687
Si Si5 0.149413 0.148033 0.925033
Si Si6 0.801471 0.395777 0.403795
Si Si7 0.250000 0.534108 0.000000
Si Si8 0.214275 0.500000 0.250000
O O1 0.500000 0.250000 0.994560
O O2 0.561586 0.365077 0.924288
O O3 0.500000 0.500000 0.000000
O O4 0.593343 0.368725 0.031603
O O5 0.365666 0.500000 0.250000
O O6 0.383052 0.664288 0.175403
O O7 0.327880 0.481034 0.143255
O O8 0.264285 0.584955 0.216987
O O9 0.393743 0.161657 0.384443
O O10 0.272396 0.122922 0.387296
O O11 0.325884 0.073240 0.294196
O O12 0.354417 0.948349 0.377351
O O13 0.000000 0.250000 0.149865
O O14 0.157756 0.279059 0.904354
O O15 0.213803 0.114924 0.956963
O O16 0.798071 0.454204 0.464621
#
# Coordination Sequence:
#
# PCOD9531782 Si02
#       8
#    16  16  16  16  16  16   8   8
#     4  11  26  44  68  93 135 186 227 269 337 403
#     4   9  21  41  66  92 128 171 213 266 328 395
#     4  10  23  40  64  96 129 168 215 268 336 403
#     4  11  24  42  68  90 131 176 221 270 326 399
#     4  11  23  37  61  95 128 161 218 268 320 395
#     4  10  22  35  62  97 127 164 208 268 336 388
#     4  10  22  34  56  94 134 158 198 272 338 382
#     4   8  20  42  64  98 126 168 208 272 340 396
#
# _framework density 19.312584000000001
#
# number of rings (size 3 to 8) (size 9 to 14) (size 15 to 20)
#    0.429    1.429    0.000    3.000   16.000    1.714 
#    1.286    0.000    3.143    0.000    0.000    0.000 
#    0.000    0.000    0.000    0.000    0.000    0.000 
#
# Total GULP energy -312126.709869 kJ/mol
# GULP energy per Si atom -5573.691248 kJ/mol
# Density = 1.926863 g / cm^3
# Si number density = 19.312584 Si / 1000 Ang^3
#
#
#
# Elastic Constant Matrix: (Units=GPa)
#
#
# Indices 1 2 3 4 5 6 
#
# 1 64.8004 22.9180 2.8046 0.0000 0.0000 0.0000
# 2 22.9180 57.4567 26.8332 0.0000 0.0000 0.0000
# 3 2.8046 26.8332 82.7264 0.0000 0.0000 0.0000
# 4 0.0000 0.0000 0.0000 10.0699 0.0000 0.0000
# 5 0.0000 0.0000 0.0000 0.0000 29.1857 0.0000
# 6 0.0000 0.0000 0.0000 0.0000 0.0000 46.8727
#
#
#
# Elastic Compliance Matrix: (Units=1/GPa)
#
#
# Indices 1 2 3 4 5 6 
#
# 1 0.018258 -0.008242 0.002054 0.000000 0.000000 0.000000
# 2 -0.008242 0.024232 -0.007581 0.000000 0.000000 0.000000
# 3 0.002054 -0.007581 0.014477 0.000000 0.000000 0.000000
# 4 0.000000 0.000000 0.000000 0.099306 0.000000 0.000000
# 5 0.000000 0.000000 0.000000 0.000000 0.034263 0.000000
# 6 0.000000 0.000000 0.000000 0.000000 0.000000 0.021334
#
#
# Mechanical properties :
#
#
# Convention : Reuss Voigt Hill
#
# Bulk Modulus (GPa) = 33.97773 34.45500 34.21636
# Shear Modulus (GPa) = 20.06274 27.38751 23.72512
#
# Velocity S-wave (km/s) = 3.22660 3.76988 3.50877
# Velocity P-wave (km/s) = 5.61365 6.06867 5.84559
#
# Compressibility (1/GPa) = 0.02943104
#
# Stress axis : x y z
#
# Youngs Moduli (GPa) = 54.77025 41.26735 69.07397
#
# Poissons Ratio (x) = 0.34013 -0.14191
# Poissons Ratio (y) = 0.45142 0.52362
# Poissons Ratio (z) = -0.11252 0.31283
#
# Static dielectric constant tensor:
#      x y z
#    x 1.688200 0.000000 0.000000 
#    y 0.000000 1.742560 0.000000 
#    z 0.000000 0.000000 1.675030 
# 
# From -- ./inp_files/30169.got.cif
#   From: 2010.05.17/outbox.cif.g08.bks.cpg/sg73_16_cif.got.tgz:30169.got - 2010.06.03 17:35:07.
