data_PCOD9531203
_publ_section_title
;
Structure prediction by ZEFSAII (Michael W. Deem and Ramdas Pophale) SiO2 
 PCOD9531203
Probable space group: I B C A 
;
_chemical_formula_sum "Si O2"
_cell_formula_units_Z 120
_cell_length_a 27.365428
_cell_length_b 22.617542
_cell_length_c 8.946004
_cell_angle_alpha 90.000000
_cell_angle_beta 90.000000
_cell_angle_gamma 90.000000
_cell_volume 5537.028239
_symmetry_space_group_name_H-M "I B C A "
_symmetry_group_IT_number 73
_symmetry_cell_setting 'orthorhombic'
loop_
_space_group_symop_operation_xyz
x,y,z
-x,1/2-y,z
x,-y,1/2-z
1/2-x,y,-z
-x,-y,-z
x,1/2+y,-z
-x,y,1/2+z
1/2+x,-y,z
1/2+x,1/2+y,1/2+z
1/2-x,-y,1/2+z
1/2+x,1/2-y,-z
-x,1/2+y,1/2-z
1/2-x,1/2-y,1/2-z
1/2+x,y,1/2-z
1/2-x,1/2+y,z
x,1/2-y,1/2+z
loop_
_atom_site_type_symbol
_atom_site_label
_atom_site_fract_x
_atom_site_fract_y
_atom_site_fract_z
Si Si1 0.750000 0.376134 0.000000
Si Si2 0.912018 0.828150 0.847265
Si Si3 0.175617 0.320296 0.076897
Si Si4 0.173370 0.569732 0.216672
Si Si5 0.806310 0.303340 0.236887
Si Si6 0.503224 0.876082 0.016327
Si Si7 0.058694 0.430721 0.245010
Si Si8 0.429464 0.719284 0.470241
O O1 0.794669 0.413497 0.928986
O O2 0.733383 0.334061 0.865369
O O3 0.856038 0.837999 0.809485
O O4 0.929950 0.790005 0.706619
O O5 0.949149 0.880619 0.877721
O O6 0.917484 0.786495 0.991188
O O7 0.187306 0.383235 0.152143
O O8 0.187032 0.264799 0.185982
O O9 0.199908 0.309664 0.914265
O O10 0.117418 0.314737 0.040649
O O11 0.180928 0.500000 0.250000
O O12 0.114763 0.579679 0.206109
O O13 0.523395 0.895187 0.856743
O O14 0.479325 0.810810 0.024210
O O15 0.458180 0.913696 0.078406
O O16 0.050014 0.500000 0.250000
#
# Coordination Sequence:
#
# PCOD9531203 Si02
#       8
#     8  16  16  16  16  16  16  16
#     4  12  26  46  68 104 132 170 236 280 356 420
#     4  10  22  36  57  94 130 167 209 260 327 389
#     4  10  21  43  67  96 137 171 224 269 350 411
#     4  11  26  47  71  95 137 180 228 290 347 404
#     4  10  23  40  68 100 136 175 214 289 342 414
#     4  12  21  37  63  89 127 170 216 259 318 387
#     4  11  25  43  64  93 127 176 222 273 321 384
#     4  10  21  35  57  90 128 167 207 257 312 391
#
# _framework density 21.672276
#
# number of rings (size 3 to 8) (size 9 to 14) (size 15 to 20)
#    0.000    1.333    2.667    2.400    1.867    6.933 
#    0.000    0.000    0.000    1.600    0.000    0.000 
#    0.000    0.000    0.000    0.000    0.000    0.000 
#
# Total GULP energy -334938.222244 kJ/mol
# GULP energy per Si atom -5582.303704 kJ/mol
# Density = 2.162295 g / cm^3
# Si number density = 21.672276 Si / 1000 Ang^3
#
#
#
# Elastic Constant Matrix: (Units=GPa)
#
#
# Indices 1 2 3 4 5 6 
#
# 1 93.8697 27.5759 29.8837 0.0000 0.0000 0.0000
# 2 27.5759 100.4188 38.6371 0.0000 0.0000 0.0000
# 3 29.8837 38.6371 95.2525 0.0000 0.0000 0.0000
# 4 0.0000 0.0000 0.0000 20.7670 0.0000 0.0000
# 5 0.0000 0.0000 0.0000 0.0000 -88.8404 0.0000
# 6 0.0000 0.0000 0.0000 0.0000 0.0000 16.1829
#
#
#
# Elastic Compliance Matrix: (Units=1/GPa)
#
#
# Indices 1 2 3 4 5 6 
#
# 1 0.012244 -0.002233 -0.002936 0.000000 0.000000 0.000000
# 2 -0.002233 0.012207 -0.004251 0.000000 0.000000 0.000000
# 3 -0.002936 -0.004251 0.013144 0.000000 0.000000 0.000000
# 4 0.000000 0.000000 0.000000 0.048153 0.000000 0.000000
# 5 0.000000 0.000000 0.000000 0.000000 -0.011256 0.000000
# 6 0.000000 0.000000 0.000000 0.000000 0.000000 0.061794
#
#
# Mechanical properties :
#
#
# Convention : Reuss Voigt Hill
#
# Bulk Modulus (GPa) = 53.31712 53.52607 53.42159
# Shear Modulus (GPa) = 30.98362 2.51818 16.75090
#
# Velocity S-wave (km/s) = 3.78516 1.07910 2.78316
# Velocity P-wave (km/s) = 6.61500 5.12876 5.91872
#
# Compressibility (1/GPa) = 0.01875570
#
# Stress axis : x y z
#
# Youngs Moduli (GPa) = 81.67599 81.91990 76.08194
#
# Poissons Ratio (x) = 0.18290 0.22334
# Poissons Ratio (y) = 0.18236 0.32343
# Poissons Ratio (z) = 0.23976 0.34825
#
# Static dielectric constant tensor:
#      x y z
#    x 1.877200 0.000000 0.000000 
#    y 0.000000 1.819580 0.000000 
#    z 0.000000 0.000000 1.798710 
# 
# From -- ./inp_files/8574.got.cif
#   From: 2010.05.17/outbox.cif.g08.bks.cpg/sg73_5_cif.got.tgz:8574.got - 2010.06.03 17:35:07.
