data_PCOD9531300
_publ_section_title
;
Structure prediction by ZEFSAII (Michael W. Deem and Ramdas Pophale) SiO2 
 PCOD9531300
Probable space group: I B C A 
;
_chemical_formula_sum "Si O2"
_cell_formula_units_Z 120
_cell_length_a 25.023238
_cell_length_b 8.068772
_cell_length_c 27.208977
_cell_angle_alpha 90.000000
_cell_angle_beta 90.000000
_cell_angle_gamma 90.000000
_cell_volume 5493.677535
_symmetry_space_group_name_H-M "I B C A "
_symmetry_group_IT_number 73
_symmetry_cell_setting 'orthorhombic'
loop_
_space_group_symop_operation_xyz
x,y,z
-x,1/2-y,z
x,-y,1/2-z
1/2-x,y,-z
-x,-y,-z
x,1/2+y,-z
-x,y,1/2+z
1/2+x,-y,z
1/2+x,1/2+y,1/2+z
1/2-x,-y,1/2+z
1/2+x,1/2-y,-z
-x,1/2+y,1/2-z
1/2-x,1/2-y,1/2-z
1/2+x,y,1/2-z
1/2-x,1/2+y,z
x,1/2-y,1/2+z
loop_
_atom_site_type_symbol
_atom_site_label
_atom_site_fract_x
_atom_site_fract_y
_atom_site_fract_z
Si Si1 0.356096 0.087429 0.009671
Si Si2 0.697903 0.127469 0.867655
Si Si3 0.470542 0.072052 0.196316
Si Si4 0.139389 0.294426 0.339339
Si Si5 0.690339 0.647798 0.925499
Si Si6 0.000000 0.250000 0.138526
Si Si7 0.900225 0.190270 0.068758
Si Si8 0.810190 0.196674 0.241363
O O1 0.312733 0.183798 0.042404
O O2 0.394273 0.993897 0.048014
O O3 0.396473 0.201435 0.979709
O O4 0.325122 0.981214 0.968320
O O5 0.755404 0.127768 0.894123
O O6 0.656381 0.208706 0.904458
O O7 0.685577 0.223734 0.816707
O O8 0.682126 0.937754 0.854192
O O9 0.500000 0.250000 0.200694
O O10 0.416823 0.113520 0.166255
O O11 0.456000 0.000000 0.250000
O O12 0.501809 0.919776 0.170459
O O13 0.144729 0.162895 0.383130
O O14 0.154299 0.225022 0.284984
O O15 0.051739 0.268428 0.104214
O O16 0.750000 0.250000 0.250000
O O17 0.817404 0.000000 0.250000
#
# Coordination Sequence:
#
# PCOD9531300 Si02
#       8
#    16  16  16  16  16   8  16  16
#     4  10  25  44  65 101 134 185 243 299 364 436
#     4  11  22  39  67  97 139 184 225 287 366 431
#     4  12  26  48  80 110 148 198 253 311 382 446
#     4  11  23  45  68 103 146 192 232 306 360 451
#     4  11  23  41  67  96 140 184 239 285 365 441
#     4  12  26  50  74 108 144 190 250 316 384 438
#     4  11  25  44  70  97 140 181 241 311 370 433
#     4  10  21  37  62  94 134 181 221 267 347 431
#
# _framework density 21.843291000000001
#
# number of rings (size 3 to 8) (size 9 to 14) (size 15 to 20)
#    0.000    1.067    4.667    1.200    3.733    3.733 
#    0.000    0.667    0.000    0.000    0.000    0.000 
#    0.000    0.000    0.000    0.000    0.000    0.000 
#
# Total GULP energy -334709.436478 kJ/mol
# GULP energy per Si atom -5578.490608 kJ/mol
# Density = 2.179357 g / cm^3
# Si number density = 21.843291 Si / 1000 Ang^3
#
#
#
# Elastic Constant Matrix: (Units=GPa)
#
#
# Indices 1 2 3 4 5 6 
#
# 1 53.6746 22.3756 -5.8618 0.0000 0.0000 0.0000
# 2 22.3756 61.6401 25.2868 0.0000 0.0000 0.0000
# 3 -5.8618 25.2868 101.4215 0.0000 0.0000 0.0000
# 4 0.0000 0.0000 0.0000 24.4042 0.0000 0.0000
# 5 0.0000 0.0000 0.0000 0.0000 42.6049 0.0000
# 6 0.0000 0.0000 0.0000 0.0000 0.0000 26.8384
#
#
#
# Elastic Compliance Matrix: (Units=1/GPa)
#
#
# Indices 1 2 3 4 5 6 
#
# 1 0.023219 -0.010002 0.003836 0.000000 0.000000 0.000000
# 2 -0.010002 0.022380 -0.006158 0.000000 0.000000 0.000000
# 3 0.003836 -0.006158 0.011617 0.000000 0.000000 0.000000
# 4 0.000000 0.000000 0.000000 0.040977 0.000000 0.000000
# 5 0.000000 0.000000 0.000000 0.000000 0.023471 0.000000
# 6 0.000000 0.000000 0.000000 0.000000 0.000000 0.037260
#
#
# Mechanical properties :
#
#
# Convention : Reuss Voigt Hill
#
# Bulk Modulus (GPa) = 30.70543 33.37081 32.03812
# Shear Modulus (GPa) = 25.71624 30.43188 28.07406
#
# Velocity S-wave (km/s) = 3.43491 3.73660 3.58893
# Velocity P-wave (km/s) = 5.46069 5.82467 5.64561
#
# Compressibility (1/GPa) = 0.03256753
#
# Stress axis : x y z
#
# Youngs Moduli (GPa) = 43.06741 44.68208 86.08154
#
# Poissons Ratio (x) = 0.44692 -0.33019
# Poissons Ratio (y) = 0.43077 0.53009
# Poissons Ratio (z) = -0.16520 0.27515
#
# Static dielectric constant tensor:
#      x y z
#    x 1.758320 0.000000 0.000000 
#    y 0.000000 2.010020 0.000000 
#    z 0.000000 0.000000 1.613360 
# 
# From -- ./inp_files/32900.got.cif
#   From: 2010.05.17/outbox.cif.g08.bks.cpg/sg73_17_cif.got.tgz:32900.got - 2010.06.03 17:35:07.
