data_PCOD9531795
_publ_section_title
;
Structure prediction by ZEFSAII (Michael W. Deem and Ramdas Pophale) SiO2 
 PCOD9531795
Probable space group: I B C A 
;
_chemical_formula_sum "Si O2"
_cell_formula_units_Z 96
_cell_length_a 20.325450
_cell_length_b 19.249000
_cell_length_c 11.771470
_cell_angle_alpha 90.000000
_cell_angle_beta 90.000000
_cell_angle_gamma 90.000000
_cell_volume 4605.523919
_symmetry_space_group_name_H-M "I B C A "
_symmetry_group_IT_number 73
_symmetry_cell_setting 'orthorhombic'
loop_
_space_group_symop_operation_xyz
x,y,z
-x,1/2-y,z
x,-y,1/2-z
1/2-x,y,-z
-x,-y,-z
x,1/2+y,-z
-x,y,1/2+z
1/2+x,-y,z
1/2+x,1/2+y,1/2+z
1/2-x,-y,1/2+z
1/2+x,1/2-y,-z
-x,1/2+y,1/2-z
1/2-x,1/2-y,1/2-z
1/2+x,y,1/2-z
1/2-x,1/2+y,z
x,1/2-y,1/2+z
loop_
_atom_site_type_symbol
_atom_site_label
_atom_site_fract_x
_atom_site_fract_y
_atom_site_fract_z
Si Si1 0.281999 0.660043 0.875132
Si Si2 0.928258 0.284959 0.129302
Si Si3 0.623556 0.646876 0.029969
Si Si4 0.486975 0.333026 0.585358
Si Si5 0.393542 0.420519 0.735508
Si Si6 0.827651 0.813983 0.690078
O O1 0.333490 0.598765 0.848509
O O2 0.225246 0.660360 0.779934
O O3 0.317440 0.733968 0.848509
O O4 0.250000 0.658660 0.000000
O O5 0.880233 0.224143 0.084673
O O6 0.896821 0.316043 0.241969
O O7 0.000000 0.250000 0.146519
O O8 0.937193 0.335681 0.022721
O O9 0.630224 0.600357 0.139078
O O10 0.553730 0.636028 0.966518
O O11 0.674133 0.644202 0.927153
O O12 0.500000 0.250000 0.603019
O O13 0.453769 0.372611 0.690005
O O14 0.413162 0.500000 0.750000
#
# Coordination Sequence:
#
# PCOD9531795 Si02
#       6
#    16  16  16  16  16  16
#     4  11  24  41  63  93 124 176 219 281 337 389
#     4   9  19  34  64 100 132 160 203 282 347 391
#     4  10  22  35  63  96 124 168 204 275 336 392
#     4   9  21  38  69  98 129 164 218 274 335 404
#     4  12  26  45  63  92 140 181 221 271 337 418
#     4  11  21  36  67  98 129 152 227 288 334 390
#
# _framework density 20.844533999999999
#
# number of rings (size 3 to 8) (size 9 to 14) (size 15 to 20)
#    0.000    2.000    1.667    4.000    7.000    2.000 
#    3.000    0.000    0.000    0.000    0.000    0.000 
#    0.000    0.000    0.000    0.000    0.000    0.000 
#
# Total GULP energy -268002.788149 kJ/mol
# GULP energy per Si atom -5583.391420 kJ/mol
# Density = 2.079709 g / cm^3
# Si number density = 20.844534 Si / 1000 Ang^3
#
#
#
# Elastic Constant Matrix: (Units=GPa)
#
#
# Indices 1 2 3 4 5 6 
#
# 1 51.8565 24.2870 33.5514 0.0000 0.0000 0.0000
# 2 24.2870 53.6270 36.1669 0.0000 0.0000 0.0000
# 3 33.5514 36.1669 177.6418 0.0000 0.0000 0.0000
# 4 0.0000 0.0000 0.0000 12.0722 0.0000 0.0000
# 5 0.0000 0.0000 0.0000 0.0000 36.1582 0.0000
# 6 0.0000 0.0000 0.0000 0.0000 0.0000 12.6025
#
#
#
# Elastic Compliance Matrix: (Units=1/GPa)
#
#
# Indices 1 2 3 4 5 6 
#
# 1 0.025685 -0.009691 -0.002878 0.000000 0.000000 0.000000
# 2 -0.009691 0.025272 -0.003315 0.000000 0.000000 0.000000
# 3 -0.002878 -0.003315 0.006848 0.000000 0.000000 0.000000
# 4 0.000000 0.000000 0.000000 0.082835 0.000000 0.000000
# 5 0.000000 0.000000 0.000000 0.000000 0.027656 0.000000
# 6 0.000000 0.000000 0.000000 0.000000 0.000000 0.079349
#
#
# Mechanical properties :
#
#
# Convention : Reuss Voigt Hill
#
# Bulk Modulus (GPa) = 38.40797 52.34843 45.37820
# Shear Modulus (GPa) = 17.35555 24.77459 21.06507
#
# Velocity S-wave (km/s) = 2.88864 3.45126 3.18241
# Velocity P-wave (km/s) = 5.43982 6.40702 5.94313
#
# Compressibility (1/GPa) = 0.02603626
#
# Stress axis : x y z
#
# Youngs Moduli (GPa) = 38.93310 39.56950 146.03309
#
# Poissons Ratio (x) = 0.38348 0.42029
# Poissons Ratio (y) = 0.37732 0.48407
# Poissons Ratio (z) = 0.11205 0.13117
#
# Static dielectric constant tensor:
#      x y z
#    x 1.854440 0.000000 0.000000 
#    y 0.000000 1.721120 0.000000 
#    z 0.000000 0.000000 1.802960 
# 
# From -- ./inp_files/12883.got.cif
#   From: 2010.05.17/outbox.cif.g08.bks.cpg/sg73_7_cif.got.tgz:12883.got - 2010.06.03 17:35:07.
