data_PCOD9531405
_publ_section_title
;
Structure prediction by ZEFSAII (Michael W. Deem and Ramdas Pophale) SiO2 
 PCOD9531405
Probable space group: I B C A 
;
_chemical_formula_sum "Si O2"
_cell_formula_units_Z 96
_cell_length_a 22.183558
_cell_length_b 18.528885
_cell_length_c 12.165845
_cell_angle_alpha 90.000000
_cell_angle_beta 90.000000
_cell_angle_gamma 90.000000
_cell_volume 5000.607505
_symmetry_space_group_name_H-M "I B C A "
_symmetry_group_IT_number 73
_symmetry_cell_setting 'orthorhombic'
loop_
_space_group_symop_operation_xyz
x,y,z
-x,1/2-y,z
x,-y,1/2-z
1/2-x,y,-z
-x,-y,-z
x,1/2+y,-z
-x,y,1/2+z
1/2+x,-y,z
1/2+x,1/2+y,1/2+z
1/2-x,-y,1/2+z
1/2+x,1/2-y,-z
-x,1/2+y,1/2-z
1/2-x,1/2-y,1/2-z
1/2+x,y,1/2-z
1/2-x,1/2+y,z
x,1/2-y,1/2+z
loop_
_atom_site_type_symbol
_atom_site_label
_atom_site_fract_x
_atom_site_fract_y
_atom_site_fract_z
Si Si1 0.374153 0.000000 0.250000
Si Si2 0.142653 0.614402 0.646566
Si Si3 0.318996 0.228283 0.481748
Si Si4 0.750000 0.461866 0.000000
Si Si5 0.215120 0.913457 0.848959
Si Si6 0.140730 0.122020 0.101716
Si Si7 0.071473 0.998250 0.988056
O O1 0.327415 0.932279 0.252520
O O2 0.412587 0.011404 0.359478
O O3 0.149866 0.692512 0.588418
O O4 0.212979 0.590692 0.662061
O O5 0.120885 0.615507 0.771654
O O6 0.103612 0.561541 0.568332
O O7 0.250000 0.253533 0.500000
O O8 0.308919 0.159392 0.402721
O O9 0.354627 0.294724 0.431946
O O10 0.790663 0.518206 0.930878
O O11 0.706345 0.414513 0.923459
O O12 0.096564 0.075313 0.027367
O O13 0.000000 0.000000 0.000000
#
# Coordination Sequence:
#
# PCOD9531405 Si02
#       7
#     8  16  16   8  16  16  16
#     4  12  22  40  72  96 130 170 226 288 332 408
#     4  11  23  42  67  94 143 171 212 285 341 401
#     4  10  21  39  60 103 145 169 209 273 361 414
#     4  12  18  38  60 106 132 172 224 268 348 408
#     4  11  19  37  66 100 135 169 203 284 351 398
#     4  12  24  39  67  99 131 177 228 273 334 415
#     4  12  28  45  67  97 132 183 240 272 328 397
#
# _framework density 19.197666999999999
#
# number of rings (size 3 to 8) (size 9 to 14) (size 15 to 20)
#    0.000    0.667    8.333    1.500    2.333    4.000 
#    0.000    0.833    0.000    2.000    0.000    0.000 
#    0.000    0.000    0.000    0.000    0.000    0.000 
#
# Total GULP energy -267686.547696 kJ/mol
# GULP energy per Si atom -5576.803077 kJ/mol
# Density = 1.915397 g / cm^3
# Si number density = 19.197667 Si / 1000 Ang^3
#
#
#
# Elastic Constant Matrix: (Units=GPa)
#
#
# Indices 1 2 3 4 5 6 
#
# 1 110.8218 39.6977 48.6567 0.0000 0.0000 0.0000
# 2 39.6977 113.3337 56.0991 0.0000 0.0000 0.0000
# 3 48.6567 56.0991 127.0492 0.0000 0.0000 0.0000
# 4 0.0000 0.0000 0.0000 16.4390 0.0000 0.0000
# 5 0.0000 0.0000 0.0000 0.0000 21.4446 0.0000
# 6 0.0000 0.0000 0.0000 0.0000 0.0000 14.4206
#
#
#
# Elastic Compliance Matrix: (Units=1/GPa)
#
#
# Indices 1 2 3 4 5 6 
#
# 1 0.011307 -0.002325 -0.003304 0.000000 0.000000 0.000000
# 2 -0.002325 0.011770 -0.004306 0.000000 0.000000 0.000000
# 3 -0.003304 -0.004306 0.011038 0.000000 0.000000 0.000000
# 4 0.000000 0.000000 0.000000 0.060831 0.000000 0.000000
# 5 0.000000 0.000000 0.000000 0.000000 0.046632 0.000000
# 6 0.000000 0.000000 0.000000 0.000000 0.000000 0.069345
#
#
# Mechanical properties :
#
#
# Convention : Reuss Voigt Hill
#
# Bulk Modulus (GPa) = 70.20632 71.12353 70.66492
# Shear Modulus (GPa) = 21.22775 24.24424 22.73599
#
# Velocity S-wave (km/s) = 3.32888 3.55755 3.44511
# Velocity P-wave (km/s) = 7.17112 7.34869 7.26045
#
# Compressibility (1/GPa) = 0.01424373
#
# Stress axis : x y z
#
# Youngs Moduli (GPa) = 88.44186 84.96462 90.59918
#
# Poissons Ratio (x) = 0.19757 0.29930
# Poissons Ratio (y) = 0.20565 0.39016
# Poissons Ratio (z) = 0.29217 0.36589
#
# Static dielectric constant tensor:
#      x y z
#    x 1.702280 0.000000 0.000000 
#    y 0.000000 1.670120 0.000000 
#    z 0.000000 0.000000 1.755410 
# 
# From -- ./inp_files/13672.got.cif
#   From: 2010.05.17/outbox.cif.g08.bks.cpg/sg73_7_cif.got.tgz:13672.got - 2010.06.03 17:35:07.
