data_PCOD9531663
_publ_section_title
;
Structure prediction by ZEFSAII (Michael W. Deem and Ramdas Pophale) SiO2 
 PCOD9531663
Probable space group: I B C A 
;
_chemical_formula_sum "Si O2"
_cell_formula_units_Z 88
_cell_length_a 27.190344
_cell_length_b 23.132163
_cell_length_c 5.457410
_cell_angle_alpha 90.000000
_cell_angle_beta 90.000000
_cell_angle_gamma 90.000000
_cell_volume 3432.555187
_symmetry_space_group_name_H-M "I B C A "
_symmetry_group_IT_number 73
_symmetry_cell_setting 'orthorhombic'
loop_
_space_group_symop_operation_xyz
x,y,z
-x,1/2-y,z
x,-y,1/2-z
1/2-x,y,-z
-x,-y,-z
x,1/2+y,-z
-x,y,1/2+z
1/2+x,-y,z
1/2+x,1/2+y,1/2+z
1/2-x,-y,1/2+z
1/2+x,1/2-y,-z
-x,1/2+y,1/2-z
1/2-x,1/2-y,1/2-z
1/2+x,y,1/2-z
1/2-x,1/2+y,z
x,1/2-y,1/2+z
loop_
_atom_site_type_symbol
_atom_site_label
_atom_site_fract_x
_atom_site_fract_y
_atom_site_fract_z
Si Si1 0.694029 0.553643 0.085241
Si Si2 0.381480 0.500000 0.250000
Si Si3 0.885552 0.196571 0.266081
Si Si4 0.579047 0.177836 0.239559
Si Si5 0.472348 0.070580 0.886028
Si Si6 0.718886 0.678893 0.249204
O O1 0.679514 0.500000 0.250000
O O2 0.696835 0.614000 0.225817
O O3 0.750000 0.543609 0.000000
O O4 0.654874 0.547284 0.869231
O O5 0.419822 0.538610 0.093424
O O6 0.884020 0.168392 0.533307
O O7 0.921244 0.252511 0.285101
O O8 0.829875 0.217483 0.224875
O O9 0.904283 0.159856 0.033759
O O10 0.534612 0.139893 0.342690
O O11 0.497207 0.055856 0.626357
O O12 0.750000 0.684198 0.500000
O O13 0.750000 0.686626 0.000000
#
# Coordination Sequence:
#
# PCOD9531663 Si02
#       6
#    16   8  16  16  16  16
#     4  11  24  41  68 106 148 188 244 282 346 426
#     4  12  28  44  76 104 146 196 230 306 362 420
#     4  10  21  42  68 101 134 184 245 281 358 432
#     4  10  22  43  70  95 134 178 225 298 345 421
#     4  12  28  50  73 107 143 186 244 299 366 437
#     4  11  24  40  65  99 148 191 232 295 352 416
#
# _framework density 25.636879
#
# number of rings (size 3 to 8) (size 9 to 14) (size 15 to 20)
#    0.000    1.091    0.909    4.364    7.636    0.000 
#    0.000   21.818    0.000    2.182    0.000    0.000 
#    0.000    0.000    0.000    0.000    0.000    0.000 
#
# Total GULP energy -245694.850375 kJ/mol
# GULP energy per Si atom -5583.973872 kJ/mol
# Density = 2.557853 g / cm^3
# Si number density = 25.636879 Si / 1000 Ang^3
#
#
#
# Elastic Constant Matrix: (Units=GPa)
#
#
# Indices 1 2 3 4 5 6 
#
# 1 103.8881 25.1296 42.8926 0.0000 0.0000 0.0000
# 2 25.1296 122.2609 13.0840 0.0000 0.0000 0.0000
# 3 42.8926 13.0840 138.0465 0.0000 0.0000 0.0000
# 4 0.0000 0.0000 0.0000 12.3411 0.0000 0.0000
# 5 0.0000 0.0000 0.0000 0.0000 45.8674 0.0000
# 6 0.0000 0.0000 0.0000 0.0000 0.0000 32.4867
#
#
#
# Elastic Compliance Matrix: (Units=1/GPa)
#
#
# Indices 1 2 3 4 5 6 
#
# 1 0.011508 -0.002003 -0.003386 0.000000 0.000000 0.000000
# 2 -0.002003 0.008612 -0.000194 0.000000 0.000000 0.000000
# 3 -0.003386 -0.000194 0.008314 0.000000 0.000000 0.000000
# 4 0.000000 0.000000 0.000000 0.081030 0.000000 0.000000
# 5 0.000000 0.000000 0.000000 0.000000 0.021802 0.000000
# 6 0.000000 0.000000 0.000000 0.000000 0.000000 0.030782
#
#
# Mechanical properties :
#
#
# Convention : Reuss Voigt Hill
#
# Bulk Modulus (GPa) = 57.90834 58.48978 58.19906
# Shear Modulus (GPa) = 27.93765 37.01164 32.47464
#
# Velocity S-wave (km/s) = 3.30471 3.80371 3.56296
# Velocity P-wave (km/s) = 6.09905 6.49270 6.29895
#
# Compressibility (1/GPa) = 0.01726867
#
# Stress axis : x y z
#
# Youngs Moduli (GPa) = 86.89452 116.12129 120.27411
#
# Poissons Ratio (x) = 0.23260 0.40723
# Poissons Ratio (y) = 0.17405 0.02331
# Poissons Ratio (z) = 0.29421 0.02251
#
# Static dielectric constant tensor:
#      x y z
#    x 1.991750 0.000000 0.000000 
#    y 0.000000 2.202950 0.000000 
#    z 0.000000 0.000000 2.153370 
# 
# From -- ./inp_files/3107.got.cif
#   From: 2010.05.17/outbox.cif.g08.bks.cpg/sg73_2_cif.got.tgz:3107.got - 2010.06.03 17:35:07.
