data_PCOD9531396
_publ_section_title
;
Structure prediction by ZEFSAII (Michael W. Deem and Ramdas Pophale) SiO2 
 PCOD9531396
Probable space group: I B C A 
;
_chemical_formula_sum "Si O2"
_cell_formula_units_Z 80
_cell_length_a 8.284049
_cell_length_b 17.694980
_cell_length_c 22.551079
_cell_angle_alpha 90.000000
_cell_angle_beta 90.000000
_cell_angle_gamma 90.000000
_cell_volume 3305.674301
_symmetry_space_group_name_H-M "I B C A "
_symmetry_group_IT_number 73
_symmetry_cell_setting 'orthorhombic'
loop_
_space_group_symop_operation_xyz
x,y,z
-x,1/2-y,z
x,-y,1/2-z
1/2-x,y,-z
-x,-y,-z
x,1/2+y,-z
-x,y,1/2+z
1/2+x,-y,z
1/2+x,1/2+y,1/2+z
1/2-x,-y,1/2+z
1/2+x,1/2-y,-z
-x,1/2+y,1/2-z
1/2-x,1/2-y,1/2-z
1/2+x,y,1/2-z
1/2-x,1/2+y,z
x,1/2-y,1/2+z
loop_
_atom_site_type_symbol
_atom_site_label
_atom_site_fract_x
_atom_site_fract_y
_atom_site_fract_z
Si Si1 0.634858 0.854202 0.709440
Si Si2 0.069725 0.666807 0.061394
Si Si3 0.963178 0.934346 0.952457
Si Si4 0.223418 0.814689 0.327405
Si Si5 0.792748 0.939376 0.614404
O O1 0.450012 0.850137 0.688532
O O2 0.650916 0.848837 0.780073
O O3 0.711149 0.775349 0.685073
O O4 0.735578 0.922989 0.681232
O O5 0.939576 0.614070 0.095430
O O6 0.000000 0.750000 0.055378
O O7 0.220254 0.673058 0.105963
O O8 0.087985 0.632356 0.996046
O O9 0.132784 0.916197 0.921921
O O10 0.843861 0.976606 0.906201
O O11 0.000000 0.000000 0.000000
#
# Coordination Sequence:
#
# PCOD9531396 Si02
#       5
#    16  16  16  16  16
#     4  10  21  39  69 105 144 181 232 286 377 437
#     4  11  21  41  69 103 145 186 239 300 370 434
#     4  10  24  44  67  93 138 195 241 289 352 433
#     4  10  21  38  68 109 144 180 222 303 364 440
#     4  11  23  45  68  98 140 194 242 295 358 440
#
# _framework density 24.200811999999999
#
# number of rings (size 3 to 8) (size 9 to 14) (size 15 to 20)
#    0.000    1.600    2.000    3.600    2.800    4.800 
#    3.600    8.000    0.000   27.600    0.000    0.000 
#    0.000    0.000    0.000    0.000    0.000    0.000 
#
# Total GULP energy -223863.743975 kJ/mol
# GULP energy per Si atom -5596.593599 kJ/mol
# Density = 2.414573 g / cm^3
# Si number density = 24.200812 Si / 1000 Ang^3
#
#
#
# Elastic Constant Matrix: (Units=GPa)
#
#
# Indices 1 2 3 4 5 6 
#
# 1 118.1997 18.2905 59.9145 0.0000 0.0000 0.0000
# 2 18.2905 105.3278 56.8626 0.0000 0.0000 0.0000
# 3 59.9145 56.8626 157.3990 0.0000 0.0000 0.0000
# 4 0.0000 0.0000 0.0000 37.4492 0.0000 0.0000
# 5 0.0000 0.0000 0.0000 0.0000 47.1689 0.0000
# 6 0.0000 0.0000 0.0000 0.0000 0.0000 33.9283
#
#
#
# Elastic Compliance Matrix: (Units=1/GPa)
#
#
# Indices 1 2 3 4 5 6 
#
# 1 0.010498 0.000415 -0.004146 0.000000 0.000000 0.000000
# 2 0.000415 0.011811 -0.004425 0.000000 0.000000 0.000000
# 3 -0.004146 -0.004425 0.009530 0.000000 0.000000 0.000000
# 4 0.000000 0.000000 0.000000 0.026703 0.000000 0.000000
# 5 0.000000 0.000000 0.000000 0.000000 0.021200 0.000000
# 6 0.000000 0.000000 0.000000 0.000000 0.000000 0.029474
#
#
# Mechanical properties :
#
#
# Convention : Reuss Voigt Hill
#
# Bulk Modulus (GPa) = 64.40270 72.34019 68.37144
# Shear Modulus (GPa) = 38.25475 40.09985 39.17730
#
# Velocity S-wave (km/s) = 3.98014 4.07500 4.02785
# Velocity P-wave (km/s) = 6.91315 7.21785 7.06714
#
# Compressibility (1/GPa) = 0.01552730
#
# Stress axis : x y z
#
# Youngs Moduli (GPa) = 95.26033 84.66736 104.93134
#
# Poissons Ratio (x) = -0.03516 0.43504
# Poissons Ratio (y) = -0.03956 0.46432
# Poissons Ratio (z) = 0.39495 0.37465
#
# Static dielectric constant tensor:
#      x y z
#    x 1.968990 0.000000 0.000000 
#    y 0.000000 1.907780 0.000000 
#    z 0.000000 0.000000 2.065000 
# 
# From -- ./inp_files/31120.got.cif
#   From: 2010.05.17/outbox.cif.g08.bks.cpg/sg73_16_cif.got.tgz:31120.got - 2010.06.03 17:35:07.
