data_PCOD9531635
_publ_section_title
;
Structure prediction by ZEFSAII (Michael W. Deem and Ramdas Pophale) SiO2 
 PCOD9531635
Probable space group: I B C A 
;
_chemical_formula_sum "Si O2"
_cell_formula_units_Z 120
_cell_length_a 16.300981
_cell_length_b 15.513944
_cell_length_c 17.268840
_cell_angle_alpha 90.000000
_cell_angle_beta 90.000000
_cell_angle_gamma 90.000000
_cell_volume 4367.160230
_symmetry_space_group_name_H-M "I B C A "
_symmetry_group_IT_number 73
_symmetry_cell_setting 'orthorhombic'
loop_
_space_group_symop_operation_xyz
x,y,z
-x,1/2-y,z
x,-y,1/2-z
1/2-x,y,-z
-x,-y,-z
x,1/2+y,-z
-x,y,1/2+z
1/2+x,-y,z
1/2+x,1/2+y,1/2+z
1/2-x,-y,1/2+z
1/2+x,1/2-y,-z
-x,1/2+y,1/2-z
1/2-x,1/2-y,1/2-z
1/2+x,y,1/2-z
1/2-x,1/2+y,z
x,1/2-y,1/2+z
loop_
_atom_site_type_symbol
_atom_site_label
_atom_site_fract_x
_atom_site_fract_y
_atom_site_fract_z
Si Si1 0.575166 0.845155 0.570816
Si Si2 0.250000 0.143573 0.000000
Si Si3 0.260247 0.934344 0.690578
Si Si4 0.372481 0.042087 0.067856
Si Si5 0.705854 0.182267 0.807872
Si Si6 0.522342 0.395685 0.665478
Si Si7 0.345469 0.787429 0.912192
Si Si8 0.066509 0.406295 0.658054
O O1 0.624418 0.807897 0.643663
O O2 0.612814 0.803478 0.494694
O O3 0.480394 0.849415 0.594122
O O4 0.592796 0.947301 0.558015
O O5 0.168535 0.084228 0.007871
O O6 0.212945 0.204162 0.931171
O O7 0.208674 0.968740 0.620208
O O8 0.192117 0.892433 0.745885
O O9 0.339482 0.879300 0.668766
O O10 0.300846 0.000000 0.750000
O O11 0.439162 0.100986 0.113382
O O12 0.750000 0.250000 0.750000
O O13 0.774360 0.155961 0.871686
O O14 0.578590 0.313337 0.643245
O O15 0.561116 0.489876 0.642263
O O16 0.519255 0.395858 0.758918
#
# Coordination Sequence:
#
# PCOD9531635 Si02
#       8
#    16   8  16  16  16  16  16  16
#     4  11  25  45  77 107 151 194 260 322 398 460
#     4  12  28  46  68 104 154 192 260 308 384 490
#     4  12  21  40  74 105 144 192 251 316 383 451
#     4  11  27  43  72 109 143 199 258 328 378 468
#     4  12  24  44  73 106 147 203 253 308 391 486
#     4  10  22  44  71 106 155 196 259 322 394 461
#     4  12  25  47  73 106 155 206 244 323 400 469
#     4  10  21  41  71 115 144 191 266 323 373 479
#
# _framework density 27.477810999999999
#
# number of rings (size 3 to 8) (size 9 to 14) (size 15 to 20)
#    0.000    0.800    5.333    1.600    3.733    3.733 
#    0.000    0.667    0.000    0.000    0.000    0.000 
#    0.000    0.000    0.000    0.000    0.000    0.000 
#
# Total GULP energy -334979.141931 kJ/mol
# GULP energy per Si atom -5582.985699 kJ/mol
# Density = 2.741527 g / cm^3
# Si number density = 27.477811 Si / 1000 Ang^3
#
#
#
# Elastic Constant Matrix: (Units=GPa)
#
#
# Indices 1 2 3 4 5 6 
#
# 1 178.8751 31.8912 42.9919 0.0000 0.0000 0.0000
# 2 31.8912 87.8928 25.7137 0.0000 0.0000 0.0000
# 3 42.9919 25.7137 124.5303 0.0000 0.0000 0.0000
# 4 0.0000 0.0000 0.0000 32.1896 0.0000 0.0000
# 5 0.0000 0.0000 0.0000 0.0000 49.6971 0.0000
# 6 0.0000 0.0000 0.0000 0.0000 0.0000 39.7520
#
#
#
# Elastic Compliance Matrix: (Units=1/GPa)
#
#
# Indices 1 2 3 4 5 6 
#
# 1 0.006344 -0.001768 -0.001825 0.000000 0.000000 0.000000
# 2 -0.001768 0.012602 -0.001992 0.000000 0.000000 0.000000
# 3 -0.001825 -0.001992 0.009072 0.000000 0.000000 0.000000
# 4 0.000000 0.000000 0.000000 0.031066 0.000000 0.000000
# 5 0.000000 0.000000 0.000000 0.000000 0.020122 0.000000
# 6 0.000000 0.000000 0.000000 0.000000 0.000000 0.025156
#
#
# Mechanical properties :
#
#
# Convention : Reuss Voigt Hill
#
# Bulk Modulus (GPa) = 59.35505 65.83243 62.59374
# Shear Modulus (GPa) = 41.27210 43.70784 42.48997
#
# Velocity S-wave (km/s) = 3.87979 3.99263 3.93662
# Velocity P-wave (km/s) = 6.45897 6.72794 6.59483
#
# Compressibility (1/GPa) = 0.01684777
#
# Stress axis : x y z
#
# Youngs Moduli (GPa) = 157.61950 79.35442 110.23471
#
# Poissons Ratio (x) = 0.14030 0.20120
# Poissons Ratio (y) = 0.27868 0.21955
# Poissons Ratio (z) = 0.28769 0.15805
#
# Static dielectric constant tensor:
#      x y z
#    x 2.082250 0.000000 0.000000 
#    y 0.000000 2.381420 0.000000 
#    z 0.000000 0.000000 2.157300 
# 
# From -- ./inp_files/22701.got.cif
#   From: 2010.05.17/outbox.cif.g08.bks.cpg/sg73_12_cif.got.tgz:22701.got - 2010.06.03 17:35:07.
