data_PCOD9531821
_publ_section_title
;
Structure prediction by ZEFSAII (Michael W. Deem and Ramdas Pophale) SiO2 
 PCOD9531821
Probable space group: I B C A 
;
_chemical_formula_sum "Si O2"
_cell_formula_units_Z 88
_cell_length_a 14.057948
_cell_length_b 15.425660
_cell_length_c 18.018212
_cell_angle_alpha 90.000000
_cell_angle_beta 90.000000
_cell_angle_gamma 90.000000
_cell_volume 3907.305600
_symmetry_space_group_name_H-M "I B C A "
_symmetry_group_IT_number 73
_symmetry_cell_setting 'orthorhombic'
loop_
_space_group_symop_operation_xyz
x,y,z
-x,1/2-y,z
x,-y,1/2-z
1/2-x,y,-z
-x,-y,-z
x,1/2+y,-z
-x,y,1/2+z
1/2+x,-y,z
1/2+x,1/2+y,1/2+z
1/2-x,-y,1/2+z
1/2+x,1/2-y,-z
-x,1/2+y,1/2-z
1/2-x,1/2-y,1/2-z
1/2+x,y,1/2-z
1/2-x,1/2+y,z
x,1/2-y,1/2+z
loop_
_atom_site_type_symbol
_atom_site_label
_atom_site_fract_x
_atom_site_fract_y
_atom_site_fract_z
Si Si1 0.358901 0.302655 0.129877
Si Si2 0.354400 0.877213 0.708351
Si Si3 0.500000 0.250000 0.021477
Si Si4 0.549047 0.563681 0.156024
Si Si5 0.360958 0.105012 0.183736
Si Si6 0.855292 0.224591 0.094039
O O1 0.360158 0.360670 0.203655
O O2 0.445961 0.318703 0.074477
O O3 0.372495 0.202987 0.156865
O O4 0.255289 0.302256 0.090718
O O5 0.438251 0.934306 0.674929
O O6 0.251333 0.912623 0.687979
O O7 0.363320 0.783561 0.667781
O O8 0.590711 0.277379 0.970824
O O9 0.588453 0.469634 0.136833
O O10 0.597811 0.593553 0.233683
O O11 0.582122 0.638007 0.100391
#
# Coordination Sequence:
#
# PCOD9531821 Si02
#       6
#    16  16   8  16  16  16
#     4  11  22  41  64  94 127 164 222 265 313 386
#     4  11  20  40  69  90 124 165 210 273 321 371
#     4  12  24  36  66  94 124 174 226 244 320 388
#     4  11  20  36  63  96 130 149 208 261 339 373
#     4  10  22  36  60  99 124 158 200 272 325 373
#     4  11  21  41  66  92 125 166 213 269 314 381
#
# _framework density 22.521913000000001
#
# number of rings (size 3 to 8) (size 9 to 14) (size 15 to 20)
#    0.000    1.091    5.455    2.727    0.000    2.909 
#    3.273    0.909    0.000    2.182    0.000    0.000 
#    0.000    0.000    0.000    0.000    0.000    0.000 
#
# Total GULP energy -245811.976324 kJ/mol
# GULP energy per Si atom -5586.635826 kJ/mol
# Density = 2.247065 g / cm^3
# Si number density = 22.521913 Si / 1000 Ang^3
#
#
#
# Elastic Constant Matrix: (Units=GPa)
#
#
# Indices 1 2 3 4 5 6 
#
# 1 166.6836 24.0992 40.4484 0.0000 0.0000 0.0000
# 2 24.0992 85.3394 0.7238 0.0000 0.0000 0.0000
# 3 40.4484 0.7238 72.7724 0.0000 0.0000 0.0000
# 4 0.0000 0.0000 0.0000 3.1995 0.0000 0.0000
# 5 0.0000 0.0000 0.0000 0.0000 36.2624 0.0000
# 6 0.0000 0.0000 0.0000 0.0000 0.0000 26.1949
#
#
#
# Elastic Compliance Matrix: (Units=1/GPa)
#
#
# Indices 1 2 3 4 5 6 
#
# 1 0.007266 -0.002018 -0.004019 0.000000 0.000000 0.000000
# 2 -0.002018 0.012279 0.000999 0.000000 0.000000 0.000000
# 3 -0.004019 0.000999 0.015965 0.000000 0.000000 0.000000
# 4 0.000000 0.000000 0.000000 0.312545 0.000000 0.000000
# 5 0.000000 0.000000 0.000000 0.000000 0.027577 0.000000
# 6 0.000000 0.000000 0.000000 0.000000 0.000000 0.038175
#
#
# Mechanical properties :
#
#
# Convention : Reuss Voigt Hill
#
# Bulk Modulus (GPa) = 39.31351 50.59314 44.95333
# Shear Modulus (GPa) = 11.56442 30.43295 20.99869
#
# Velocity S-wave (km/s) = 2.26845 3.67994 3.05678
# Velocity P-wave (km/s) = 4.93505 6.36935 5.69752
#
# Compressibility (1/GPa) = 0.02543655
#
# Stress axis : x y z
#
# Youngs Moduli (GPa) = 137.62084 81.43806 62.63613
#
# Poissons Ratio (x) = 0.16433 0.25172
# Poissons Ratio (y) = 0.27770 -0.06260
# Poissons Ratio (z) = 0.55306 -0.08139
#
# Static dielectric constant tensor:
#      x y z
#    x 1.855040 0.000000 0.000000 
#    y 0.000000 1.879430 0.000000 
#    z 0.000000 0.000000 1.918390 
# 
# From -- ./inp_files/21919.got.cif
#   From: 2010.05.17/outbox.cif.g08.bks.cpg/sg73_11_cif.got.tgz:21919.got - 2010.06.03 17:35:07.
