data_PCOD9531847
_publ_section_title
;
Structure prediction by ZEFSAII (Michael W. Deem and Ramdas Pophale) SiO2 
 PCOD9531847
Probable space group: I B C A 
;
_chemical_formula_sum "Si O2"
_cell_formula_units_Z 104
_cell_length_a 8.868153
_cell_length_b 22.622966
_cell_length_c 26.287486
_cell_angle_alpha 90.000000
_cell_angle_beta 90.000000
_cell_angle_gamma 90.000000
_cell_volume 5273.898588
_symmetry_space_group_name_H-M "I B C A "
_symmetry_group_IT_number 73
_symmetry_cell_setting 'orthorhombic'
loop_
_space_group_symop_operation_xyz
x,y,z
-x,1/2-y,z
x,-y,1/2-z
1/2-x,y,-z
-x,-y,-z
x,1/2+y,-z
-x,y,1/2+z
1/2+x,-y,z
1/2+x,1/2+y,1/2+z
1/2-x,-y,1/2+z
1/2+x,1/2-y,-z
-x,1/2+y,1/2-z
1/2-x,1/2-y,1/2-z
1/2+x,y,1/2-z
1/2-x,1/2+y,z
x,1/2-y,1/2+z
loop_
_atom_site_type_symbol
_atom_site_label
_atom_site_fract_x
_atom_site_fract_y
_atom_site_fract_z
Si Si1 0.000000 0.750000 0.175247
Si Si2 0.000000 0.250000 0.172570
Si Si3 0.755094 0.336715 0.341196
Si Si4 0.244772 0.327558 0.720520
Si Si5 0.328193 0.947242 0.315702
Si Si6 0.930953 0.000000 0.750000
Si Si7 0.374041 0.028665 0.963979
Si Si8 0.146088 0.954158 0.897719
O O1 0.913889 0.696165 0.146856
O O2 0.869218 0.778241 0.209429
O O3 0.127958 0.288069 0.144596
O O4 0.087108 0.200253 0.204608
O O5 0.754270 0.346551 0.279539
O O6 0.714478 0.398514 0.367504
O O7 0.285168 0.379539 0.681187
O O8 0.458982 0.951151 0.273213
O O9 0.177613 0.976789 0.293484
O O10 0.378882 0.988229 0.361873
O O11 0.482983 0.060632 0.922919
O O12 0.273404 0.978189 0.936635
O O13 0.250000 0.061221 0.000000
O O14 0.500000 0.000000 0.000000
#
# Coordination Sequence:
#
# PCOD9531847 Si02
#       8
#     8   8  16  16  16   8  16  16
#     4  10  23  38  52  76 119 188 217 242 276 318
#     4  10  23  38  52  76 117 186 221 244 278 312
#     4  11  21  37  55  81 121 162 218 248 276 336
#     4  11  22  35  54  72 123 174 215 246 283 327
#     4  11  24  33  55  82 121 155 207 246 301 345
#     4  10  22  38  42  80 124 174 182 240 316 336
#     4   9  21  44  64  88 118 140 176 238 342 415
#     4  11  23  36  63  94 115 147 198 258 303 381
#
# _framework density 19.719757000000001
#
# number of rings (size 3 to 8) (size 9 to 14) (size 15 to 20)
#    0.000    1.538    0.000    6.462   12.923    0.000 
#    0.000    0.000    0.000    0.000    0.000   12.923 
#    0.000    0.000    0.000    0.000    0.000    0.000 
#
# Total GULP energy -289992.586775 kJ/mol
# GULP energy per Si atom -5576.780515 kJ/mol
# Density = 1.967487 g / cm^3
# Si number density = 19.719757 Si / 1000 Ang^3
#
#
#
# Elastic Constant Matrix: (Units=GPa)
#
#
# Indices 1 2 3 4 5 6 
#
# 1 134.8488 23.2616 28.5164 0.0000 0.0000 0.0000
# 2 23.2616 85.6432 28.0461 0.0000 0.0000 0.0000
# 3 28.5164 28.0461 57.4674 0.0000 0.0000 0.0000
# 4 0.0000 0.0000 0.0000 9.0105 0.0000 0.0000
# 5 0.0000 0.0000 0.0000 0.0000 49.5435 0.0000
# 6 0.0000 0.0000 0.0000 0.0000 0.0000 21.4768
#
#
#
# Elastic Compliance Matrix: (Units=1/GPa)
#
#
# Indices 1 2 3 4 5 6 
#
# 1 0.008369 -0.001087 -0.003623 0.000000 0.000000 0.000000
# 2 -0.001087 0.014039 -0.006312 0.000000 0.000000 0.000000
# 3 -0.003623 -0.006312 0.022279 0.000000 0.000000 0.000000
# 4 0.000000 0.000000 0.000000 0.110982 0.000000 0.000000
# 5 0.000000 0.000000 0.000000 0.000000 0.020184 0.000000
# 6 0.000000 0.000000 0.000000 0.000000 0.000000 0.046562
#
#
# Mechanical properties :
#
#
# Convention : Reuss Voigt Hill
#
# Bulk Modulus (GPa) = 44.16137 48.62306 46.39222
# Shear Modulus (GPa) = 19.84082 29.21518 24.52800
#
# Velocity S-wave (km/s) = 3.17541 3.85323 3.53062
# Velocity P-wave (km/s) = 5.99061 6.67136 6.34013
#
# Compressibility (1/GPa) = 0.02264423
#
# Stress axis : x y z
#
# Youngs Moduli (GPa) = 119.48482 71.23224 44.88488
#
# Poissons Ratio (x) = 0.07742 0.16260
# Poissons Ratio (y) = 0.12987 0.28331
# Poissons Ratio (z) = 0.43284 0.44962
#
# Static dielectric constant tensor:
#      x y z
#    x 1.741550 0.000000 0.000000 
#    y 0.000000 1.803200 0.000000 
#    z 0.000000 0.000000 1.758370 
# 
# From -- ./inp_files/7460.got.cif
#   From: 2010.05.17/outbox.cif.g08.bks.cpg/sg73_4_cif.got.tgz:7460.got - 2010.06.03 17:35:07.
