data_PCOD9531210
_publ_section_title
;
Structure prediction by ZEFSAII (Michael W. Deem and Ramdas Pophale) SiO2 
 PCOD9531210
Probable space group: I B C A 
;
_chemical_formula_sum "Si O2"
_cell_formula_units_Z 88
_cell_length_a 24.230678
_cell_length_b 21.384971
_cell_length_c 8.224984
_cell_angle_alpha 90.000000
_cell_angle_beta 90.000000
_cell_angle_gamma 90.000000
_cell_volume 4261.959258
_symmetry_space_group_name_H-M "I B C A "
_symmetry_group_IT_number 73
_symmetry_cell_setting 'orthorhombic'
loop_
_space_group_symop_operation_xyz
x,y,z
-x,1/2-y,z
x,-y,1/2-z
1/2-x,y,-z
-x,-y,-z
x,1/2+y,-z
-x,y,1/2+z
1/2+x,-y,z
1/2+x,1/2+y,1/2+z
1/2-x,-y,1/2+z
1/2+x,1/2-y,-z
-x,1/2+y,1/2-z
1/2-x,1/2-y,1/2-z
1/2+x,y,1/2-z
1/2-x,1/2+y,z
x,1/2-y,1/2+z
loop_
_atom_site_type_symbol
_atom_site_label
_atom_site_fract_x
_atom_site_fract_y
_atom_site_fract_z
Si Si1 0.123028 0.264944 0.746110
Si Si2 0.125233 0.046663 0.898143
Si Si3 0.590488 0.000000 0.250000
Si Si4 0.686272 0.327820 0.045224
Si Si5 0.000427 0.568210 0.084436
Si Si6 0.455510 0.695178 0.521199
O O1 0.172209 0.224341 0.820888
O O2 0.146804 0.308126 0.604851
O O3 0.090632 0.303751 0.881113
O O4 0.077912 0.215793 0.679485
O O5 0.167416 0.103730 0.900616
O O6 0.063558 0.072964 0.860252
O O7 0.137972 0.000000 0.750000
O O8 0.122141 0.015202 0.080237
O O9 0.549131 0.941922 0.287051
O O10 0.750000 0.326606 0.000000
O O11 0.984768 0.628516 0.979665
O O12 0.000000 0.500000 0.000000
O O13 0.500000 0.750000 0.491960
#
# Coordination Sequence:
#
# PCOD9531210 Si02
#       6
#    16  16   8  16  16  16
#     4  10  23  40  67  94 132 172 225 283 346 412
#     4  11  24  41  66  97 132 180 225 275 339 414
#     4  10  22  40  62  94 142 174 218 266 332 430
#     4  11  24  45  68  93 126 172 236 298 346 402
#     4  10  21  35  61  95 136 179 215 254 333 427
#     4  11  22  37  62  99 138 175 211 269 342 418
#
# _framework density 20.647780999999998
#
# number of rings (size 3 to 8) (size 9 to 14) (size 15 to 20)
#    0.000    1.455    0.909    4.364    5.091    4.364 
#    1.636    0.000    0.000    0.000    0.000    0.000 
#    0.000    0.000    0.000    0.000    0.000    0.000 
#
# Total GULP energy -245800.124338 kJ/mol
# GULP energy per Si atom -5586.366462 kJ/mol
# Density = 2.060079 g / cm^3
# Si number density = 20.647781 Si / 1000 Ang^3
#
#
#
# Elastic Constant Matrix: (Units=GPa)
#
#
# Indices 1 2 3 4 5 6 
#
# 1 74.3813 52.8566 5.5184 0.0000 0.0000 0.0000
# 2 52.8566 135.4409 40.0147 0.0000 0.0000 0.0000
# 3 5.5184 40.0147 88.8072 0.0000 0.0000 0.0000
# 4 0.0000 0.0000 0.0000 19.0476 0.0000 0.0000
# 5 0.0000 0.0000 0.0000 0.0000 25.2447 0.0000
# 6 0.0000 0.0000 0.0000 0.0000 0.0000 264.0722
#
#
#
# Elastic Compliance Matrix: (Units=1/GPa)
#
#
# Indices 1 2 3 4 5 6 
#
# 1 0.019073 -0.008183 0.002502 0.000000 0.000000 0.000000
# 2 -0.008183 0.012027 -0.004911 0.000000 0.000000 0.000000
# 3 0.002502 -0.004911 0.013318 0.000000 0.000000 0.000000
# 4 0.000000 0.000000 0.000000 0.052500 0.000000 0.000000
# 5 0.000000 0.000000 0.000000 0.000000 0.039612 0.000000
# 6 0.000000 0.000000 0.000000 0.000000 0.000000 0.003787
#
#
# Mechanical properties :
#
#
# Convention : Reuss Voigt Hill
#
# Bulk Modulus (GPa) = 43.03868 55.04542 49.04205
# Shear Modulus (GPa) = 29.54280 75.02222 52.28251
#
# Velocity S-wave (km/s) = 3.78669 6.03433 5.03747
# Velocity P-wave (km/s) = 6.32520 8.67571 7.59198
#
# Compressibility (1/GPa) = 0.02323491
#
# Stress axis : x y z
#
# Youngs Moduli (GPa) = 52.42925 83.14312 75.08848
#
# Poissons Ratio (x) = 0.68032 -0.18785
# Poissons Ratio (y) = 0.42901 0.36875
# Poissons Ratio (z) = -0.13116 0.40830
#
# Static dielectric constant tensor:
#      x y z
#    x 1.697680 0.000000 0.000000 
#    y 0.000000 1.729700 0.000000 
#    z 0.000000 0.000000 1.857040 
# 
# From -- ./inp_files/7054.got.cif
#   From: 2010.05.17/outbox.cif.g08.bks.cpg/sg73_4_cif.got.tgz:7054.got - 2010.06.03 17:35:07.
