data_PCOD9531919
_publ_section_title
;
Structure prediction by ZEFSAII (Michael W. Deem and Ramdas Pophale) SiO2 
 PCOD9531919
Probable space group: I B C A 
;
_chemical_formula_sum "Si O2"
_cell_formula_units_Z 96
_cell_length_a 13.035697
_cell_length_b 15.579145
_cell_length_c 21.691147
_cell_angle_alpha 90.000000
_cell_angle_beta 90.000000
_cell_angle_gamma 90.000000
_cell_volume 4405.146887
_symmetry_space_group_name_H-M "I B C A "
_symmetry_group_IT_number 73
_symmetry_cell_setting 'orthorhombic'
loop_
_space_group_symop_operation_xyz
x,y,z
-x,1/2-y,z
x,-y,1/2-z
1/2-x,y,-z
-x,-y,-z
x,1/2+y,-z
-x,y,1/2+z
1/2+x,-y,z
1/2+x,1/2+y,1/2+z
1/2-x,-y,1/2+z
1/2+x,1/2-y,-z
-x,1/2+y,1/2-z
1/2-x,1/2-y,1/2-z
1/2+x,y,1/2-z
1/2-x,1/2+y,z
x,1/2-y,1/2+z
loop_
_atom_site_type_symbol
_atom_site_label
_atom_site_fract_x
_atom_site_fract_y
_atom_site_fract_z
Si Si1 0.379012 0.256500 0.115273
Si Si2 0.237495 0.167255 0.707281
Si Si3 0.795410 0.576875 0.670993
Si Si4 0.250000 0.554581 0.500000
Si Si5 0.109174 0.407486 0.111203
Si Si6 0.750000 0.225375 0.500000
Si Si7 0.125993 0.416244 0.575516
O O1 0.500000 0.250000 0.110345
O O2 0.336209 0.329054 0.162298
O O3 0.343133 0.164374 0.142547
O O4 0.326365 0.268603 0.049052
O O5 0.250000 0.250000 0.750000
O O6 0.219747 0.092227 0.756509
O O7 0.141150 0.165302 0.660608
O O8 0.861697 0.497339 0.645324
O O9 0.683888 0.569915 0.640055
O O10 0.185113 0.600010 0.446775
O O11 0.164364 0.494593 0.532978
O O12 0.993796 0.407674 0.087590
O O13 0.824982 0.165986 0.541626
#
# Coordination Sequence:
#
# PCOD9531919 Si02
#       7
#    16  16  16   8  16   8  16
#     4  10  22  39  61  86 122 166 205 261 325 381
#     4  10  23  41  57  86 124 157 208 259 298 368
#     4   9  21  41  59  85 121 158 210 261 306 374
#     4   9  20  35  56  94 126 142 198 270 314 374
#     4  11  21  37  65  91 119 163 203 255 324 382
#     4   9  20  39  58  88 128 162 204 258 320 392
#     4   9  19  37  62  87 120 160 198 255 320 376
#
# _framework density 21.79269
#
# number of rings (size 3 to 8) (size 9 to 14) (size 15 to 20)
#    0.000    2.333    0.000    2.000    0.000    8.667 
#    0.000    9.167    0.000    0.000    0.000    0.000 
#    0.000    0.000    0.000    0.000    0.000    0.000 
#
# Total GULP energy -267980.197027 kJ/mol
# GULP energy per Si atom -5582.920771 kJ/mol
# Density = 2.174309 g / cm^3
# Si number density = 21.792690 Si / 1000 Ang^3
#
#
#
# Elastic Constant Matrix: (Units=GPa)
#
#
# Indices 1 2 3 4 5 6 
#
# 1 209.8361 41.8938 85.9404 0.0000 0.0000 0.0000
# 2 41.8938 58.5792 29.6055 0.0000 0.0000 0.0000
# 3 85.9404 29.6055 175.0816 0.0000 0.0000 0.0000
# 4 0.0000 0.0000 0.0000 20.0901 0.0000 0.0000
# 5 0.0000 0.0000 0.0000 0.0000 22.0307 0.0000
# 6 0.0000 0.0000 0.0000 0.0000 0.0000 9.4007
#
#
#
# Elastic Compliance Matrix: (Units=1/GPa)
#
#
# Indices 1 2 3 4 5 6 
#
# 1 0.006507 -0.003323 -0.002632 0.000000 0.000000 0.000000
# 2 -0.003323 0.020363 -0.001812 0.000000 0.000000 0.000000
# 3 -0.002632 -0.001812 0.007310 0.000000 0.000000 0.000000
# 4 0.000000 0.000000 0.000000 0.049776 0.000000 0.000000
# 5 0.000000 0.000000 0.000000 0.000000 0.045391 0.000000
# 6 0.000000 0.000000 0.000000 0.000000 0.000000 0.106375
#
#
# Mechanical properties :
#
#
# Convention : Reuss Voigt Hill
#
# Bulk Modulus (GPa) = 53.63227 84.26405 68.94816
# Shear Modulus (GPa) = 19.41952 29.37479 24.39715
#
# Velocity S-wave (km/s) = 2.98837 3.67539 3.34954
# Velocity P-wave (km/s) = 6.04738 7.53402 6.83126
#
# Compressibility (1/GPa) = 0.01864549
#
# Stress axis : x y z
#
# Youngs Moduli (GPa) = 153.67686 49.10748 136.79840
#
# Poissons Ratio (x) = 0.16321 0.36007
# Poissons Ratio (y) = 0.51074 0.24788
# Poissons Ratio (z) = 0.40450 0.08898
#
# Static dielectric constant tensor:
#      x y z
#    x 1.718200 0.000000 0.000000 
#    y 0.000000 1.953950 0.000000 
#    z 0.000000 0.000000 1.824950 
# 
# From -- ./inp_files/28958.got.cif
#   From: 2010.05.17/outbox.cif.g08.bks.cpg/sg73_15_cif.got.tgz:28958.got - 2010.06.03 17:35:07.
