data_PCOD9531255
_publ_section_title
;
Structure prediction by ZEFSAII (Michael W. Deem and Ramdas Pophale) SiO2 
 PCOD9531255
Probable space group: I B C A 
;
_chemical_formula_sum "Si O2"
_cell_formula_units_Z 56
_cell_length_a 34.536394
_cell_length_b 5.228507
_cell_length_c 14.567803
_cell_angle_alpha 90.000000
_cell_angle_beta 90.000000
_cell_angle_gamma 90.000000
_cell_volume 2630.563222
_symmetry_space_group_name_H-M "I B C A "
_symmetry_group_IT_number 73
_symmetry_cell_setting 'orthorhombic'
loop_
_space_group_symop_operation_xyz
x,y,z
-x,1/2-y,z
x,-y,1/2-z
1/2-x,y,-z
-x,-y,-z
x,1/2+y,-z
-x,y,1/2+z
1/2+x,-y,z
1/2+x,1/2+y,1/2+z
1/2-x,-y,1/2+z
1/2+x,1/2-y,-z
-x,1/2+y,1/2-z
1/2-x,1/2-y,1/2-z
1/2+x,y,1/2-z
1/2-x,1/2+y,z
x,1/2-y,1/2+z
loop_
_atom_site_type_symbol
_atom_site_label
_atom_site_fract_x
_atom_site_fract_y
_atom_site_fract_z
Si Si1 0.233712 0.781064 0.353511
Si Si2 0.500000 0.250000 0.806453
Si Si3 0.156262 0.410335 0.562139
Si Si4 0.931700 0.083898 0.560332
O O1 0.250000 0.750000 0.250000
O O2 0.240717 0.505203 0.397001
O O3 0.189450 0.863996 0.363045
O O4 0.486966 0.500000 0.750000
O O5 0.535492 0.351741 0.867182
O O6 0.160683 0.684409 0.513142
O O7 0.112171 0.391823 0.597450
O O8 0.935900 0.300029 0.481185
#
# Coordination Sequence:
#
# PCOD9531255 Si02
#       4
#    16   8  16  16
#     4  10  21  37  53  81 115 152 193 232 304 351
#     4  12  24  40  60 100 128 156 200 246 300 362
#     4  10  21  37  60  87 112 150 204 247 283 342
#     4  10  21  41  65  88 121 165 203 244 301 357
#
# _framework density 21.288215999999998
#
# number of rings (size 3 to 8) (size 9 to 14) (size 15 to 20)
#    0.000    1.714    0.000    4.286    0.000    3.429 
#   10.286    0.000    0.000    0.000    0.000    0.000 
#    0.000    0.000    0.000    0.000    0.000    0.000 
#
# Total GULP energy -156382.002039 kJ/mol
# GULP energy per Si atom -5585.071501 kJ/mol
# Density = 2.123976 g / cm^3
# Si number density = 21.288216 Si / 1000 Ang^3
#
#
#
# Elastic Constant Matrix: (Units=GPa)
#
#
# Indices 1 2 3 4 5 6 
#
# 1 98.6761 -27.5978 28.7073 0.0000 0.0000 0.0000
# 2 -27.5978 104.0424 -18.9581 0.0000 0.0000 0.0000
# 3 28.7073 -18.9581 45.2597 0.0000 0.0000 0.0000
# 4 0.0000 0.0000 0.0000 -6.7838 0.0000 0.0000
# 5 0.0000 0.0000 0.0000 0.0000 -3.9557 0.0000
# 6 0.0000 0.0000 0.0000 0.0000 0.0000 33.1041
#
#
#
# Elastic Compliance Matrix: (Units=1/GPa)
#
#
# Indices 1 2 3 4 5 6 
#
# 1 0.012830 0.002079 -0.007267 0.000000 0.000000 0.000000
# 2 0.002079 0.010743 0.003181 0.000000 0.000000 0.000000
# 3 -0.007267 0.003181 0.028036 0.000000 0.000000 0.000000
# 4 0.000000 0.000000 0.000000 -0.147411 0.000000 0.000000
# 5 0.000000 0.000000 0.000000 0.000000 -0.252797 0.000000
# 6 0.000000 0.000000 0.000000 0.000000 0.000000 0.030208
#
#
# Mechanical properties :
#
#
# Convention : Reuss Voigt Hill
#
# Bulk Modulus (GPa) = 21.01046 23.58678 22.29862
# Shear Modulus (GPa) = -16.74966 22.19471 2.72253
#
# Velocity S-wave (km/s) = -2.80805 3.23241 1.13211
# Velocity P-wave (km/s) = 0.78902 5.00351 3.49375
#
# Compressibility (1/GPa) = 0.04759535
#
# Stress axis : x y z
#
# Youngs Moduli (GPa) = 77.94407 93.08745 35.66803
#
# Poissons Ratio (x) = -0.19353 0.25919
# Poissons Ratio (y) = -0.16205 -0.11346
# Poissons Ratio (z) = 0.56640 -0.29612
#
# Static dielectric constant tensor:
#      x y z
#    x 1.758890 0.000000 0.000000 
#    y 0.000000 1.849920 0.000000 
#    z 0.000000 0.000000 1.690760 
# 
# From -- ./inp_files/682.got.cif
#   From: 2010.05.17/outbox.cif.g08.bks.cpg/sg73_1_cif.got.tgz:682.got - 2010.06.03 17:35:07.
