data_PCOD9531139
_publ_section_title
;
Structure prediction by ZEFSAII (Michael W. Deem and Ramdas Pophale) SiO2 
 PCOD9531139
Probable space group: I B C A 
;
_chemical_formula_sum "Si O2"
_cell_formula_units_Z 88
_cell_length_a 12.089437
_cell_length_b 18.078806
_cell_length_c 18.790272
_cell_angle_alpha 90.000000
_cell_angle_beta 90.000000
_cell_angle_gamma 90.000000
_cell_volume 4106.850443
_symmetry_space_group_name_H-M "I B C A "
_symmetry_group_IT_number 73
_symmetry_cell_setting 'orthorhombic'
loop_
_space_group_symop_operation_xyz
x,y,z
-x,1/2-y,z
x,-y,1/2-z
1/2-x,y,-z
-x,-y,-z
x,1/2+y,-z
-x,y,1/2+z
1/2+x,-y,z
1/2+x,1/2+y,1/2+z
1/2-x,-y,1/2+z
1/2+x,1/2-y,-z
-x,1/2+y,1/2-z
1/2-x,1/2-y,1/2-z
1/2+x,y,1/2-z
1/2-x,1/2+y,z
x,1/2-y,1/2+z
loop_
_atom_site_type_symbol
_atom_site_label
_atom_site_fract_x
_atom_site_fract_y
_atom_site_fract_z
Si Si1 0.558991 0.000000 0.750000
Si Si2 0.750000 0.321326 0.000000
Si Si3 0.433388 0.616132 0.342815
Si Si4 0.383096 0.721150 0.598059
Si Si5 0.500000 0.250000 0.759242
Si Si6 0.919705 0.439429 0.963718
Si Si7 0.812691 0.933356 0.377027
O O1 0.479994 0.952606 0.798854
O O2 0.633763 0.949103 0.699807
O O3 0.779221 0.265885 0.065658
O O4 0.649372 0.379554 0.993196
O O5 0.454540 0.686137 0.292354
O O6 0.509257 0.613078 0.412095
O O7 0.309855 0.596781 0.365582
O O8 0.500000 0.750000 0.567290
O O9 0.402526 0.729707 0.683710
O O10 0.373558 0.634168 0.583962
O O11 0.832166 0.490955 0.920032
O O12 0.000000 0.500000 0.000000
#
# Coordination Sequence:
#
# PCOD9531139 Si02
#       7
#     8   8  16  16   8  16  16
#     4  10  20  44  64 100 136 174 222 294 348 418
#     4  12  26  44  72  98 136 194 232 290 388 426
#     4  11  24  40  71 101 134 179 236 285 355 433
#     4  10  24  45  67  99 144 182 230 300 362 438
#     4  10  24  46  64  98 150 172 224 308 354 426
#     4  11  26  46  68 100 141 180 242 302 359 439
#     4  11  23  41  70  98 132 188 229 289 359 436
#
# _framework density 21.427613000000001
#
# number of rings (size 3 to 8) (size 9 to 14) (size 15 to 20)
#    0.545    0.727    1.818    2.727    2.545   10.182 
#    0.000    0.000    0.000    0.000    0.000    0.000 
#    0.000    0.000    0.000    0.000    0.000    0.000 
#
# Total GULP energy -245296.467454 kJ/mol
# GULP energy per Si atom -5574.919715 kJ/mol
# Density = 2.137884 g / cm^3
# Si number density = 21.427613 Si / 1000 Ang^3
#
#
#
# Elastic Constant Matrix: (Units=GPa)
#
#
# Indices 1 2 3 4 5 6 
#
# 1 69.7732 46.3981 10.2760 0.0000 0.0000 0.0000
# 2 46.3981 93.1022 27.3518 0.0000 0.0000 0.0000
# 3 10.2760 27.3518 55.7268 0.0000 0.0000 0.0000
# 4 0.0000 0.0000 0.0000 51.8122 0.0000 0.0000
# 5 0.0000 0.0000 0.0000 0.0000 -25.3825 0.0000
# 6 0.0000 0.0000 0.0000 0.0000 0.0000 -25.2716
#
#
#
# Elastic Compliance Matrix: (Units=1/GPa)
#
#
# Indices 1 2 3 4 5 6 
#
# 1 0.021545 -0.011182 0.001516 0.000000 0.000000 0.000000
# 2 -0.011182 0.018355 -0.006947 0.000000 0.000000 0.000000
# 3 0.001516 -0.006947 0.021075 0.000000 0.000000 0.000000
# 4 0.000000 0.000000 0.000000 0.019300 0.000000 0.000000
# 5 0.000000 0.000000 0.000000 0.000000 -0.039397 0.000000
# 6 0.000000 0.000000 0.000000 0.000000 0.000000 -0.039570
#
#
# Mechanical properties :
#
#
# Convention : Reuss Voigt Hill
#
# Bulk Modulus (GPa) = 36.03938 42.96155 39.50046
# Shear Modulus (GPa) = 114.19798 9.20338 61.70068
#
# Velocity S-wave (km/s) = 7.30825 2.07471 5.37191
# Velocity P-wave (km/s) = 9.38454 5.08256 7.54659
#
# Compressibility (1/GPa) = 0.02774742
#
# Stress axis : x y z
#
# Youngs Moduli (GPa) = 46.41434 54.48245 47.45002
#
# Poissons Ratio (x) = 0.60924 -0.07192
# Poissons Ratio (y) = 0.51902 0.32962
# Poissons Ratio (z) = -0.07035 0.37848
#
# Static dielectric constant tensor:
#      x y z
#    x 1.866230 0.000000 0.000000 
#    y 0.000000 1.787650 0.000000 
#    z 0.000000 0.000000 1.888630 
# 
# From -- ./inp_files/25381.got.cif
#   From: 2010.05.17/outbox.cif.g08.bks.cpg/sg73_13_cif.got.tgz:25381.got - 2010.06.03 17:35:07.
