data_PCOD9531792
_publ_section_title
;
Structure prediction by ZEFSAII (Michael W. Deem and Ramdas Pophale) SiO2 
 PCOD9531792
Probable space group: I B C A 
;
_chemical_formula_sum "Si O2"
_cell_formula_units_Z 120
_cell_length_a 7.684674
_cell_length_b 20.519273
_cell_length_c 30.875794
_cell_angle_alpha 90.000000
_cell_angle_beta 90.000000
_cell_angle_gamma 90.000000
_cell_volume 4868.616346
_symmetry_space_group_name_H-M "I B C A "
_symmetry_group_IT_number 73
_symmetry_cell_setting 'orthorhombic'
loop_
_space_group_symop_operation_xyz
x,y,z
-x,1/2-y,z
x,-y,1/2-z
1/2-x,y,-z
-x,-y,-z
x,1/2+y,-z
-x,y,1/2+z
1/2+x,-y,z
1/2+x,1/2+y,1/2+z
1/2-x,-y,1/2+z
1/2+x,1/2-y,-z
-x,1/2+y,1/2-z
1/2-x,1/2-y,1/2-z
1/2+x,y,1/2-z
1/2-x,1/2+y,z
x,1/2-y,1/2+z
loop_
_atom_site_type_symbol
_atom_site_label
_atom_site_fract_x
_atom_site_fract_y
_atom_site_fract_z
Si Si1 0.370468 0.349121 0.280925
Si Si2 0.990354 0.587704 0.622880
Si Si3 0.645651 0.480206 0.204200
Si Si4 0.602186 0.602367 0.971266
Si Si5 0.813840 0.716467 0.646842
Si Si6 0.241824 0.878679 0.191829
Si Si7 0.250000 0.652855 0.000000
Si Si8 0.301601 0.264917 0.939787
O O1 0.251154 0.413333 0.288570
O O2 0.279082 0.291585 0.307191
O O3 0.560697 0.358055 0.300898
O O4 0.374474 0.344528 0.228922
O O5 0.035914 0.570825 0.573717
O O6 0.156457 0.622795 0.645114
O O7 0.936351 0.530623 0.656302
O O8 0.843420 0.643711 0.627302
O O9 0.551758 0.500000 0.250000
O O10 0.761203 0.544091 0.200179
O O11 0.703745 0.669769 0.955826
O O12 0.750000 0.567448 0.000000
O O13 0.430285 0.613268 0.000924
O O14 0.706626 0.756080 0.611458
O O15 0.000000 0.750000 0.650935
O O16 0.208335 0.702531 0.039175
O O17 0.500000 0.250000 0.953968
#
# Coordination Sequence:
#
# PCOD9531792 Si02
#       8
#    16  16  16  16  16  16   8  16
#     4  10  22  35  59  91 119 162 213 261 334 398
#     4  11  23  39  64  95 131 168 218 272 337 394
#     4   9  19  39  66  94 121 156 210 284 339 388
#     4  12  24  39  62  98 136 176 231 282 329 397
#     4  11  22  38  57  88 136 174 212 265 318 396
#     4  11  21  40  61  90 121 158 215 277 329 394
#     4  12  20  38  62  94 130 184 228 280 330 376
#     4  12  21  36  62  90 132 181 232 276 322 381
#
# _framework density 24.647660999999999
#
# number of rings (size 3 to 8) (size 9 to 14) (size 15 to 20)
#    0.000    1.067    4.667    3.600    1.867    3.200 
#    0.000    2.667    0.000    0.800    0.000    0.000 
#    0.000    0.000    0.000    0.000    0.000    0.000 
#
# Total GULP energy -334928.269614 kJ/mol
# GULP energy per Si atom -5582.137827 kJ/mol
# Density = 2.459156 g / cm^3
# Si number density = 24.647661 Si / 1000 Ang^3
#
#
#
# Elastic Constant Matrix: (Units=GPa)
#
#
# Indices 1 2 3 4 5 6 
#
# 1 86.8065 -1.6987 7.1012 0.0000 0.0000 0.0000
# 2 -1.6987 40.5015 32.8492 0.0000 0.0000 0.0000
# 3 7.1012 32.8492 133.5625 0.0000 0.0000 0.0000
# 4 0.0000 0.0000 0.0000 31.4103 0.0000 0.0000
# 5 0.0000 0.0000 0.0000 0.0000 94.5509 0.0000
# 6 0.0000 0.0000 0.0000 0.0000 0.0000 7.4303
#
#
#
# Elastic Compliance Matrix: (Units=1/GPa)
#
#
# Indices 1 2 3 4 5 6 
#
# 1 0.011619 0.001235 -0.000921 0.000000 0.000000 0.000000
# 2 0.001235 0.030974 -0.007684 0.000000 0.000000 0.000000
# 3 -0.000921 -0.007684 0.009426 0.000000 0.000000 0.000000
# 4 0.000000 0.000000 0.000000 0.031837 0.000000 0.000000
# 5 0.000000 0.000000 0.000000 0.000000 0.010576 0.000000
# 6 0.000000 0.000000 0.000000 0.000000 0.000000 0.134583
#
#
# Mechanical properties :
#
#
# Convention : Reuss Voigt Hill
#
# Bulk Modulus (GPa) = 26.82503 37.48600 32.15551
# Shear Modulus (GPa) = 19.51734 41.51957 30.51845
#
# Velocity S-wave (km/s) = 2.81704 4.10875 3.52261
# Velocity P-wave (km/s) = 4.63551 6.14417 5.44237
#
# Compressibility (1/GPa) = 0.03727862
#
# Stress axis : x y z
#
# Youngs Moduli (GPa) = 86.06288 32.28506 106.09096
#
# Poissons Ratio (x) = -0.03986 0.09776
# Poissons Ratio (y) = -0.10626 0.81516
# Poissons Ratio (z) = 0.07930 0.24807
#
# Static dielectric constant tensor:
#      x y z
#    x 2.024840 0.000000 0.000000 
#    y 0.000000 1.993640 0.000000 
#    z 0.000000 0.000000 1.994050 
# 
# From -- ./inp_files/31422.got.cif
#   From: 2010.05.17/outbox.cif.g08.bks.cpg/sg73_16_cif.got.tgz:31422.got - 2010.06.03 17:35:07.
