data_PCOD9531297
_publ_section_title
;
Structure prediction by ZEFSAII (Michael W. Deem and Ramdas Pophale) SiO2 
 PCOD9531297
Probable space group: I B C A 
;
_chemical_formula_sum "Si O2"
_cell_formula_units_Z 104
_cell_length_a 26.548522
_cell_length_b 19.465477
_cell_length_c 9.700437
_cell_angle_alpha 90.000000
_cell_angle_beta 90.000000
_cell_angle_gamma 90.000000
_cell_volume 5012.988383
_symmetry_space_group_name_H-M "I B C A "
_symmetry_group_IT_number 73
_symmetry_cell_setting 'orthorhombic'
loop_
_space_group_symop_operation_xyz
x,y,z
-x,1/2-y,z
x,-y,1/2-z
1/2-x,y,-z
-x,-y,-z
x,1/2+y,-z
-x,y,1/2+z
1/2+x,-y,z
1/2+x,1/2+y,1/2+z
1/2-x,-y,1/2+z
1/2+x,1/2-y,-z
-x,1/2+y,1/2-z
1/2-x,1/2-y,1/2-z
1/2+x,y,1/2-z
1/2-x,1/2+y,z
x,1/2-y,1/2+z
loop_
_atom_site_type_symbol
_atom_site_label
_atom_site_fract_x
_atom_site_fract_y
_atom_site_fract_z
Si Si1 0.386796 0.262103 0.559141
Si Si2 0.157292 0.953652 0.112323
Si Si3 0.941566 0.372446 0.375571
Si Si4 0.732223 0.639602 0.744471
Si Si5 0.750000 0.466009 0.000000
Si Si6 0.477607 0.827577 0.593877
Si Si7 0.319779 0.719523 0.684899
O O1 0.415973 0.202817 0.639736
O O2 0.426503 0.315023 0.494176
O O3 0.345037 0.289576 0.664757
O O4 0.361479 0.224485 0.430174
O O5 0.100823 0.927885 0.082061
O O6 0.187252 0.886889 0.162680
O O7 0.153121 0.000000 0.250000
O O8 0.197346 0.991233 0.010422
O O9 0.967009 0.376035 0.225119
O O10 0.982301 0.363343 0.494440
O O11 0.747625 0.582671 0.633638
O O12 0.711500 0.709291 0.675835
O O13 0.780295 0.659225 0.833882
O O14 0.500000 0.750000 0.627999
#
# Coordination Sequence:
#
# PCOD9531297 Si02
#       7
#    16  16  16  16   8  16  16
#     4  11  20  35  57  94 132 161 203 251 334 384
#     4  10  22  41  64  85 123 176 217 264 308 374
#     4  11  22  39  62  90 123 166 218 260 319 380
#     4  10  21  38  57  94 130 165 212 255 321 381
#     4  10  22  40  62  86 132 176 218 258 308 376
#     4  10  21  37  62  93 129 163 207 273 333 394
#     4  11  22  34  63  97 134 166 198 268 322 389
#
# _framework density 20.746109000000001
#
# number of rings (size 3 to 8) (size 9 to 14) (size 15 to 20)
#    0.000    1.538    3.077    2.308    4.308    3.077 
#    0.000    0.769    0.000    0.000    0.000    0.000 
#    0.000    0.000    0.000    0.000    0.000    0.000 
#
# Total GULP energy -290224.477024 kJ/mol
# GULP energy per Si atom -5581.239943 kJ/mol
# Density = 2.069889 g / cm^3
# Si number density = 20.746109 Si / 1000 Ang^3
#
#
#
# Elastic Constant Matrix: (Units=GPa)
#
#
# Indices 1 2 3 4 5 6 
#
# 1 138.7584 37.6395 60.3247 0.0000 0.0000 0.0000
# 2 37.6395 50.7841 31.2366 0.0000 0.0000 0.0000
# 3 60.3247 31.2366 73.7408 0.0000 0.0000 0.0000
# 4 0.0000 0.0000 0.0000 17.2479 0.0000 0.0000
# 5 0.0000 0.0000 0.0000 0.0000 40.7517 0.0000
# 6 0.0000 0.0000 0.0000 0.0000 0.0000 29.9203
#
#
#
# Elastic Compliance Matrix: (Units=1/GPa)
#
#
# Indices 1 2 3 4 5 6 
#
# 1 0.011693 -0.003763 -0.007972 0.000000 0.000000 0.000000
# 2 -0.003763 0.027841 -0.008715 0.000000 0.000000 0.000000
# 3 -0.007972 -0.008715 0.023774 0.000000 0.000000 0.000000
# 4 0.000000 0.000000 0.000000 0.057978 0.000000 0.000000
# 5 0.000000 0.000000 0.000000 0.000000 0.024539 0.000000
# 6 0.000000 0.000000 0.000000 0.000000 0.000000 0.033422
#
#
# Mechanical properties :
#
#
# Convention : Reuss Voigt Hill
#
# Bulk Modulus (GPa) = 44.62595 57.96499 51.29547
# Shear Modulus (GPa) = 21.96682 26.52280 24.24481
#
# Velocity S-wave (km/s) = 3.25751 3.57942 3.42225
# Velocity P-wave (km/s) = 5.97543 6.71445 6.35569
#
# Compressibility (1/GPa) = 0.02240848
#
# Stress axis : x y z
#
# Youngs Moduli (GPa) = 85.51911 35.91853 42.06301
#
# Poissons Ratio (x) = 0.13518 0.33531
# Poissons Ratio (y) = 0.32184 0.36656
# Poissons Ratio (z) = 0.68173 0.31302
#
# Static dielectric constant tensor:
#      x y z
#    x 1.803270 0.000000 0.000000 
#    y 0.000000 1.755600 0.000000 
#    z 0.000000 0.000000 1.773730 
# 
# From -- ./inp_files/8489.got.cif
#   From: 2010.05.17/outbox.cif.g08.bks.cpg/sg73_5_cif.got.tgz:8489.got - 2010.06.03 17:35:07.
