data_PCOD9531205
_publ_section_title
;
Structure prediction by ZEFSAII (Michael W. Deem and Ramdas Pophale) SiO2 
 PCOD9531205
Probable space group: I B C A 
;
_chemical_formula_sum "Si O2"
_cell_formula_units_Z 80
_cell_length_a 11.867786
_cell_length_b 13.840923
_cell_length_c 23.949706
_cell_angle_alpha 90.000000
_cell_angle_beta 90.000000
_cell_angle_gamma 90.000000
_cell_volume 3934.005345
_symmetry_space_group_name_H-M "I B C A "
_symmetry_group_IT_number 73
_symmetry_cell_setting 'orthorhombic'
loop_
_space_group_symop_operation_xyz
x,y,z
-x,1/2-y,z
x,-y,1/2-z
1/2-x,y,-z
-x,-y,-z
x,1/2+y,-z
-x,y,1/2+z
1/2+x,-y,z
1/2+x,1/2+y,1/2+z
1/2-x,-y,1/2+z
1/2+x,1/2-y,-z
-x,1/2+y,1/2-z
1/2-x,1/2-y,1/2-z
1/2+x,y,1/2-z
1/2-x,1/2+y,z
x,1/2-y,1/2+z
loop_
_atom_site_type_symbol
_atom_site_label
_atom_site_fract_x
_atom_site_fract_y
_atom_site_fract_z
Si Si1 0.328740 0.711079 0.299298
Si Si2 0.034534 0.393629 0.332569
Si Si3 0.881060 0.968188 0.564064
Si Si4 0.673177 0.065224 0.864626
Si Si5 0.966531 0.359327 0.535711
O O1 0.250000 0.750000 0.250000
O O2 0.438178 0.641439 0.288721
O O3 0.381596 0.801661 0.333280
O O4 0.245449 0.644017 0.333317
O O5 0.109924 0.489095 0.324869
O O6 0.966713 0.421473 0.389550
O O7 0.763143 0.986882 0.594506
O O8 0.883004 0.893066 0.513311
O O9 0.928734 0.066545 0.537333
O O10 0.587980 0.121776 0.904275
O O11 0.000000 0.250000 0.527555
#
# Coordination Sequence:
#
# PCOD9531205 Si02
#       5
#    16  16  16  16  16
#     4  10  22  42  65  90 118 163 217 261 331 380
#     4   9  21  42  64  88 123 164 203 266 310 393
#     4   9  20  39  58  89 133 164 206 253 317 382
#     4  10  21  39  63  90 125 165 211 257 324 374
#     4  10  21  35  58  95 127 166 209 257 309 381
#
# _framework density 20.335508999999998
#
# number of rings (size 3 to 8) (size 9 to 14) (size 15 to 20)
#    0.000    2.400    0.000    0.600    8.400    0.800 
#    3.600    8.000    0.000    0.000    0.000    0.000 
#    0.000    0.000    0.000    0.000    0.000    0.000 
#
# Total GULP energy -222816.479933 kJ/mol
# GULP energy per Si atom -5570.411998 kJ/mol
# Density = 2.028922 g / cm^3
# Si number density = 20.335509 Si / 1000 Ang^3
#
#
#
# Elastic Constant Matrix: (Units=GPa)
#
#
# Indices 1 2 3 4 5 6 
#
# 1 76.5921 57.4188 27.5667 0.0000 0.0000 0.0000
# 2 57.4188 119.2671 33.8684 0.0000 0.0000 0.0000
# 3 27.5667 33.8684 38.2371 0.0000 0.0000 0.0000
# 4 0.0000 0.0000 0.0000 21.5805 0.0000 0.0000
# 5 0.0000 0.0000 0.0000 0.0000 28.5312 0.0000
# 6 0.0000 0.0000 0.0000 0.0000 0.0000 36.0068
#
#
#
# Elastic Compliance Matrix: (Units=1/GPa)
#
#
# Indices 1 2 3 4 5 6 
#
# 1 0.022463 -0.008304 -0.008839 0.000000 0.000000 0.000000
# 2 -0.008304 0.014272 -0.006655 0.000000 0.000000 0.000000
# 3 -0.008839 -0.006655 0.038419 0.000000 0.000000 0.000000
# 4 0.000000 0.000000 0.000000 0.046338 0.000000 0.000000
# 5 0.000000 0.000000 0.000000 0.000000 0.035049 0.000000
# 6 0.000000 0.000000 0.000000 0.000000 0.000000 0.027773
#
#
# Mechanical properties :
#
#
# Convention : Reuss Voigt Hill
#
# Bulk Modulus (GPa) = 36.28625 52.42268 44.35446
# Shear Modulus (GPa) = 20.73859 24.90653 22.82256
#
# Velocity S-wave (km/s) = 3.19693 3.50348 3.35371
# Velocity P-wave (km/s) = 5.61335 6.49621 6.07085
#
# Compressibility (1/GPa) = 0.02755865
#
# Stress axis : x y z
#
# Youngs Moduli (GPa) = 44.51780 70.06612 26.02862
#
# Poissons Ratio (x) = 0.58185 0.23006
# Poissons Ratio (y) = 0.36969 0.17321
# Poissons Ratio (z) = 0.39349 0.46627
#
# Static dielectric constant tensor:
#      x y z
#    x 1.800620 0.000000 0.000000 
#    y 0.000000 1.709150 0.000000 
#    z 0.000000 0.000000 1.741360 
# 
# From -- ./inp_files/28798.got.cif
#   From: 2010.05.17/outbox.cif.g08.bks.cpg/sg73_15_cif.got.tgz:28798.got - 2010.06.03 17:35:07.
