data_PCOD9531915
_publ_section_title
;
Structure prediction by ZEFSAII (Michael W. Deem and Ramdas Pophale) SiO2 
 PCOD9531915
Probable space group: I B C A 
;
_chemical_formula_sum "Si O2"
_cell_formula_units_Z 72
_cell_length_a 18.457169
_cell_length_b 18.547500
_cell_length_c 7.265526
_cell_angle_alpha 90.000000
_cell_angle_beta 90.000000
_cell_angle_gamma 90.000000
_cell_volume 2487.239063
_symmetry_space_group_name_H-M "I B C A "
_symmetry_group_IT_number 73
_symmetry_cell_setting 'orthorhombic'
loop_
_space_group_symop_operation_xyz
x,y,z
-x,1/2-y,z
x,-y,1/2-z
1/2-x,y,-z
-x,-y,-z
x,1/2+y,-z
-x,y,1/2+z
1/2+x,-y,z
1/2+x,1/2+y,1/2+z
1/2-x,-y,1/2+z
1/2+x,1/2-y,-z
-x,1/2+y,1/2-z
1/2-x,1/2-y,1/2-z
1/2+x,y,1/2-z
1/2-x,1/2+y,z
x,1/2-y,1/2+z
loop_
_atom_site_type_symbol
_atom_site_label
_atom_site_fract_x
_atom_site_fract_y
_atom_site_fract_z
Si Si1 0.410197 0.784492 0.989980
Si Si2 0.930332 0.365950 0.101032
Si Si3 0.750000 0.303365 0.500000
Si Si4 0.194579 0.425796 0.765982
Si Si5 0.422468 0.937573 0.098218
O O1 0.447377 0.706728 0.993507
O O2 0.325040 0.762437 0.001495
O O3 0.413054 0.850273 0.139456
O O4 0.425512 0.827173 0.801823
O O5 0.851784 0.401827 0.090112
O O6 0.989915 0.427879 0.069120
O O7 0.757998 0.359433 0.331376
O O8 0.237027 0.500000 0.750000
O O9 0.133456 0.445000 0.926101
O O10 0.411791 0.000000 0.250000
#
# Coordination Sequence:
#
# PCOD9531915 Si02
#       5
#    16  16   8  16  16
#     4  10  23  39  62  89 120 163 210 257 313 373
#     4  10  22  39  59  87 123 163 207 255 310 371
#     4   8  20  42  60  84 124 158 206 262 308 372
#     4  10  23  40  64  94 125 166 212 263 321 381
#     4  10  22  39  60  88 127 164 202 256 318 380
#
# _framework density 28.947759999999999
#
# number of rings (size 3 to 8) (size 9 to 14) (size 15 to 20)
#    0.000    2.667    0.000    1.333    0.000   24.000 
#    0.000    1.111    0.000    0.000    0.000    0.000 
#    0.000    0.000    0.000    0.000    0.000    0.000 
#
# Total GULP energy -200802.829505 kJ/mol
# GULP energy per Si atom -5577.856375 kJ/mol
# Density = 2.888187 g / cm^3
# Si number density = 28.947760 Si / 1000 Ang^3
#
#
#
# Elastic Constant Matrix: (Units=GPa)
#
#
# Indices 1 2 3 4 5 6 
#
# 1 52.1112 -21.7136 -3.3874 0.0000 0.0000 0.0000
# 2 -21.7136 184.9390 46.1804 0.0000 0.0000 0.0000
# 3 -3.3874 46.1804 61.3451 0.0000 0.0000 0.0000
# 4 0.0000 0.0000 0.0000 45.1154 0.0000 0.0000
# 5 0.0000 0.0000 0.0000 0.0000 33.9611 0.0000
# 6 0.0000 0.0000 0.0000 0.0000 0.0000 29.0484
#
#
#
# Elastic Compliance Matrix: (Units=1/GPa)
#
#
# Indices 1 2 3 4 5 6 
#
# 1 0.020211 0.002579 -0.000826 0.000000 0.000000 0.000000
# 2 0.002579 0.006988 -0.005118 0.000000 0.000000 0.000000
# 3 -0.000826 -0.005118 0.020109 0.000000 0.000000 0.000000
# 4 0.000000 0.000000 0.000000 0.022165 0.000000 0.000000
# 5 0.000000 0.000000 0.000000 0.000000 0.029445 0.000000
# 6 0.000000 0.000000 0.000000 0.000000 0.000000 0.034425
#
#
# Mechanical properties :
#
#
# Convention : Reuss Voigt Hill
#
# Bulk Modulus (GPa) = 24.64383 37.83935 31.24159
# Shear Modulus (GPa) = 32.55236 40.11270 36.33253
#
# Velocity S-wave (km/s) = 3.35703 3.72653 3.54659
# Velocity P-wave (km/s) = 4.85364 5.62281 5.25233
#
# Compressibility (1/GPa) = 0.04057811
#
# Stress axis : x y z
#
# Youngs Moduli (GPa) = 49.47873 143.10182 49.73007
#
# Poissons Ratio (x) = -0.36907 0.04105
# Poissons Ratio (y) = -0.12761 0.25453
# Poissons Ratio (z) = 0.04084 0.73242
#
# Static dielectric constant tensor:
#      x y z
#    x 2.423080 0.000000 0.000000 
#    y 0.000000 2.376630 0.000000 
#    z 0.000000 0.000000 2.454040 
# 
# From -- ./inp_files/6032.got.cif
#   From: 2010.05.17/outbox.cif.g08.bks.cpg/sg73_4_cif.got.tgz:6032.got - 2010.06.03 17:35:07.
