data_PCOD9531652
_publ_section_title
;
Structure prediction by ZEFSAII (Michael W. Deem and Ramdas Pophale) SiO2 
 PCOD9531652
Probable space group: I B C A 
;
_chemical_formula_sum "Si O2"
_cell_formula_units_Z 120
_cell_length_a 26.743267
_cell_length_b 9.207047
_cell_length_c 24.665614
_cell_angle_alpha 90.000000
_cell_angle_beta 90.000000
_cell_angle_gamma 90.000000
_cell_volume 6073.328205
_symmetry_space_group_name_H-M "I B C A "
_symmetry_group_IT_number 73
_symmetry_cell_setting 'orthorhombic'
loop_
_space_group_symop_operation_xyz
x,y,z
-x,1/2-y,z
x,-y,1/2-z
1/2-x,y,-z
-x,-y,-z
x,1/2+y,-z
-x,y,1/2+z
1/2+x,-y,z
1/2+x,1/2+y,1/2+z
1/2-x,-y,1/2+z
1/2+x,1/2-y,-z
-x,1/2+y,1/2-z
1/2-x,1/2-y,1/2-z
1/2+x,y,1/2-z
1/2-x,1/2+y,z
x,1/2-y,1/2+z
loop_
_atom_site_type_symbol
_atom_site_label
_atom_site_fract_x
_atom_site_fract_y
_atom_site_fract_z
Si Si1 0.432636 0.329670 0.461975
Si Si2 0.687961 0.170586 0.099367
Si Si3 0.000000 0.750000 0.553970
Si Si4 0.026758 0.488711 0.871256
Si Si5 0.045304 0.636108 0.210600
Si Si6 0.383134 0.901374 0.800934
Si Si7 0.867027 0.916647 0.497459
Si Si8 0.728447 0.450714 0.057606
O O1 0.467866 0.347949 0.514038
O O2 0.463525 0.374225 0.409052
O O3 0.409565 0.169349 0.464691
O O4 0.387896 0.442106 0.471796
O O5 0.658102 0.121607 0.152458
O O6 0.714418 0.326320 0.100050
O O7 0.729184 0.052944 0.082271
O O8 0.651740 0.183051 0.046977
O O9 0.035512 0.650234 0.589876
O O10 0.069039 0.487581 0.825601
O O11 0.973905 0.443822 0.844689
O O12 0.050363 0.500000 0.250000
O O13 0.093494 0.740667 0.210216
O O14 0.000000 0.750000 0.224333
O O15 0.366329 0.000000 0.750000
O O16 0.820689 0.958818 0.459518
O O17 0.750000 0.389178 0.000000
#
# Coordination Sequence:
#
# PCOD9531652 Si02
#       8
#    16  16   8  16  16  16  16  16
#     4  12  23  37  55  93 138 177 211 250 302 376
#     4  11  22  41  64  93 127 161 207 271 328 380
#     4  12  22  38  52  92 136 178 202 244 306 372
#     4  11  21  38  61  84 129 173 211 255 312 360
#     4  10  21  42  66  90 119 164 225 276 312 371
#     4  11  23  44  67  88 117 163 216 274 333 381
#     4  11  22  37  63  91 133 173 217 249 301 382
#     4  10  22  38  65  98 127 166 213 258 314 399
#
# _framework density 19.758524000000001
#
# number of rings (size 3 to 8) (size 9 to 14) (size 15 to 20)
#    0.000    1.067    6.000    3.200    1.867    0.000 
#    3.600    2.000    0.000    0.000    0.000    0.000 
#    0.000    0.000    0.000    0.000    0.000    0.000 
#
# Total GULP energy -334747.764276 kJ/mol
# GULP energy per Si atom -5579.129405 kJ/mol
# Density = 1.971355 g / cm^3
# Si number density = 19.758524 Si / 1000 Ang^3
#
#
#
# Elastic Constant Matrix: (Units=GPa)
#
#
# Indices 1 2 3 4 5 6 
#
# 1 73.9698 37.1097 34.5372 0.0000 0.0000 0.0000
# 2 37.1097 77.1672 51.3913 0.0000 0.0000 0.0000
# 3 34.5372 51.3913 100.2194 0.0000 0.0000 0.0000
# 4 0.0000 0.0000 0.0000 35.4300 0.0000 0.0000
# 5 0.0000 0.0000 0.0000 0.0000 -8.7608 0.0000
# 6 0.0000 0.0000 0.0000 0.0000 0.0000 29.7671
#
#
#
# Elastic Compliance Matrix: (Units=1/GPa)
#
#
# Indices 1 2 3 4 5 6 
#
# 1 0.018294 -0.006984 -0.002723 0.000000 0.000000 0.000000
# 2 -0.006984 0.022346 -0.009052 0.000000 0.000000 0.000000
# 3 -0.002723 -0.009052 0.015558 0.000000 0.000000 0.000000
# 4 0.000000 0.000000 0.000000 0.028225 0.000000 0.000000
# 5 0.000000 0.000000 0.000000 0.000000 -0.114144 0.000000
# 6 0.000000 0.000000 0.000000 0.000000 0.000000 0.033594
#
#
# Mechanical properties :
#
#
# Convention : Reuss Voigt Hill
#
# Bulk Modulus (GPa) = 53.53285 55.27031 54.40158
# Shear Modulus (GPa) = 105.00261 19.84180 62.42221
#
# Velocity S-wave (km/s) = 7.29783 3.17237 5.62682
# Velocity P-wave (km/s) = 9.90775 6.43834 8.35511
#
# Compressibility (1/GPa) = 0.01868012
#
# Stress axis : x y z
#
# Youngs Moduli (GPa) = 54.66155 44.75100 64.27485
#
# Poissons Ratio (x) = 0.31255 0.17503
# Poissons Ratio (y) = 0.38177 0.58180
# Poissons Ratio (z) = 0.14885 0.40508
#
# Static dielectric constant tensor:
#      x y z
#    x 1.736750 0.000000 0.000000 
#    y 0.000000 1.807220 0.000000 
#    z 0.000000 0.000000 1.726110 
# 
# From -- ./inp_files/30535.got.cif
#   From: 2010.05.17/outbox.cif.g08.bks.cpg/sg73_16_cif.got.tgz:30535.got - 2010.06.03 17:35:07.
