data_PCOD9531014
_publ_section_title
;
Structure prediction by ZEFSAII (Michael W. Deem and Ramdas Pophale) SiO2 
 PCOD9531014
Probable space group: I B C A 
;
_chemical_formula_sum "Si O2"
_cell_formula_units_Z 96
_cell_length_a 20.721241
_cell_length_b 14.936125
_cell_length_c 15.090273
_cell_angle_alpha 90.000000
_cell_angle_beta 90.000000
_cell_angle_gamma 90.000000
_cell_volume 4670.364732
_symmetry_space_group_name_H-M "I B C A "
_symmetry_group_IT_number 73
_symmetry_cell_setting 'orthorhombic'
loop_
_space_group_symop_operation_xyz
x,y,z
-x,1/2-y,z
x,-y,1/2-z
1/2-x,y,-z
-x,-y,-z
x,1/2+y,-z
-x,y,1/2+z
1/2+x,-y,z
1/2+x,1/2+y,1/2+z
1/2-x,-y,1/2+z
1/2+x,1/2-y,-z
-x,1/2+y,1/2-z
1/2-x,1/2-y,1/2-z
1/2+x,y,1/2-z
1/2-x,1/2+y,z
x,1/2-y,1/2+z
loop_
_atom_site_type_symbol
_atom_site_label
_atom_site_fract_x
_atom_site_fract_y
_atom_site_fract_z
Si Si1 0.726627 0.340030 0.797121
Si Si2 0.378359 0.428497 0.182407
Si Si3 0.135680 0.571613 0.172188
Si Si4 0.678482 0.745355 0.038163
Si Si5 0.072700 0.242856 0.885332
Si Si6 0.825661 0.037235 0.010734
O O1 0.750000 0.250000 0.750000
O O2 0.688359 0.400379 0.728725
O O3 0.791402 0.390360 0.824234
O O4 0.679007 0.307489 0.875463
O O5 0.409282 0.500000 0.250000
O O6 0.414494 0.334764 0.167498
O O7 0.359428 0.463573 0.085146
O O8 0.125693 0.500000 0.250000
O O9 0.087398 0.655665 0.173867
O O10 0.134230 0.522988 0.077699
O O11 0.674968 0.638060 0.051722
O O12 0.750000 0.761267 0.000000
O O13 0.624178 0.764252 0.965350
O O14 0.000000 0.250000 0.918899
O O15 0.750000 0.011045 0.000000
#
# Coordination Sequence:
#
# PCOD9531014 Si02
#       6
#    16  16  16  16  16  16
#     4  12  20  37  68 106 135 172 228 288 357 419
#     4  11  24  41  66  96 135 179 230 282 347 424
#     4  12  24  39  69 104 136 179 231 294 357 418
#     4  10  20  40  68  95 134 181 224 288 355 409
#     4  11  26  47  66  95 141 187 236 288 348 426
#     4  10  21  37  60 101 137 168 222 287 353 421
#
# _framework density 20.555140000000002
#
# number of rings (size 3 to 8) (size 9 to 14) (size 15 to 20)
#    0.000    1.000    3.333    5.500    4.667    0.667 
#    0.000    4.167    0.000    0.000    0.000    0.000 
#    0.000    0.000    0.000    0.000    0.000    0.000 
#
# Total GULP energy -268297.562827 kJ/mol
# GULP energy per Si atom -5589.532559 kJ/mol
# Density = 2.050836 g / cm^3
# Si number density = 20.555140 Si / 1000 Ang^3
#
#
#
# Elastic Constant Matrix: (Units=GPa)
#
#
# Indices 1 2 3 4 5 6 
#
# 1 92.4836 32.1705 26.1691 0.0000 0.0000 0.0000
# 2 32.1705 123.4931 74.4271 0.0000 0.0000 0.0000
# 3 26.1691 74.4271 119.0316 0.0000 0.0000 0.0000
# 4 0.0000 0.0000 0.0000 28.4776 0.0000 0.0000
# 5 0.0000 0.0000 0.0000 0.0000 17.2190 0.0000
# 6 0.0000 0.0000 0.0000 0.0000 0.0000 -4.8877
#
#
#
# Elastic Compliance Matrix: (Units=1/GPa)
#
#
# Indices 1 2 3 4 5 6 
#
# 1 0.011978 -0.002461 -0.001095 0.000000 0.000000 0.000000
# 2 -0.002461 0.013500 -0.007900 0.000000 0.000000 0.000000
# 3 -0.001095 -0.007900 0.013582 0.000000 0.000000 0.000000
# 4 0.000000 0.000000 0.000000 0.035115 0.000000 0.000000
# 5 0.000000 0.000000 0.000000 0.000000 0.058075 0.000000
# 6 0.000000 0.000000 0.000000 0.000000 0.000000 -0.204596
#
#
# Mechanical properties :
#
#
# Convention : Reuss Voigt Hill
#
# Bulk Modulus (GPa) = 61.92464 66.72684 64.32574
# Shear Modulus (GPa) = -113.50431 21.64456 -45.92987
#
# Velocity S-wave (km/s) = -7.43904 3.24852 -4.73215
# Velocity P-wave (km/s) = 6.60259 6.82666 1.22660
#
# Compressibility (1/GPa) = 0.01614866
#
# Stress axis : x y z
#
# Youngs Moduli (GPa) = 83.48319 74.07480 73.62908
#
# Poissons Ratio (x) = 0.18226 0.08062
# Poissons Ratio (y) = 0.20541 0.58168
# Poissons Ratio (z) = 0.09141 0.58520
#
# Static dielectric constant tensor:
#      x y z
#    x 1.850320 0.000000 0.000000 
#    y 0.000000 1.800610 0.000000 
#    z 0.000000 0.000000 1.760220 
# 
# From -- ./inp_files/18640.got.cif
#   From: 2010.05.17/outbox.cif.g08.bks.cpg/sg73_10_cif.got.tgz:18640.got - 2010.06.03 17:35:07.
