data_PCOD9531515
_publ_section_title
;
Structure prediction by ZEFSAII (Michael W. Deem and Ramdas Pophale) SiO2 
 PCOD9531515
Probable space group: I B C A 
;
_chemical_formula_sum "Si O2"
_cell_formula_units_Z 112
_cell_length_a 30.650572
_cell_length_b 11.944229
_cell_length_c 14.740339
_cell_angle_alpha 90.000000
_cell_angle_beta 90.000000
_cell_angle_gamma 90.000000
_cell_volume 5396.400534
_symmetry_space_group_name_H-M "I B C A "
_symmetry_group_IT_number 73
_symmetry_cell_setting 'orthorhombic'
loop_
_space_group_symop_operation_xyz
x,y,z
-x,1/2-y,z
x,-y,1/2-z
1/2-x,y,-z
-x,-y,-z
x,1/2+y,-z
-x,y,1/2+z
1/2+x,-y,z
1/2+x,1/2+y,1/2+z
1/2-x,-y,1/2+z
1/2+x,1/2-y,-z
-x,1/2+y,1/2-z
1/2-x,1/2-y,1/2-z
1/2+x,y,1/2-z
1/2-x,1/2+y,z
x,1/2-y,1/2+z
loop_
_atom_site_type_symbol
_atom_site_label
_atom_site_fract_x
_atom_site_fract_y
_atom_site_fract_z
Si Si1 0.808349 0.441584 0.383033
Si Si2 0.715043 0.578369 0.167326
Si Si3 0.101273 0.328677 0.573097
Si Si4 0.529478 0.514423 0.642406
Si Si5 0.137091 0.497074 0.049115
Si Si6 0.824341 0.314766 0.201498
Si Si7 0.046131 0.377526 0.029696
O O1 0.757264 0.418680 0.397048
O O2 0.838880 0.427656 0.469495
O O3 0.826023 0.361451 0.303300
O O4 0.811418 0.572535 0.353513
O O5 0.729734 0.500000 0.250000
O O6 0.671244 0.519442 0.129624
O O7 0.705699 0.705851 0.195515
O O8 0.076370 0.429403 0.623685
O O9 0.129953 0.378440 0.490890
O O10 0.131529 0.276103 0.650684
O O11 0.064654 0.246555 0.535645
O O12 0.523444 0.500000 0.750000
O O13 0.491933 0.593117 0.600118
O O14 0.530508 0.409651 0.572075
O O15 0.088212 0.451576 0.059331
#
# Coordination Sequence:
#
# PCOD9531515 Si02
#       7
#    16  16  16  16  16  16  16
#     4  10  22  40  65  87 124 176 226 264 325 390
#     4  12  23  40  59  94 135 169 219 279 332 382
#     4  10  21  41  66  94 132 166 217 267 336 398
#     4  10  23  41  72  97 128 176 221 266 337 414
#     4  10  23  40  62  92 126 172 213 264 331 393
#     4  10  21  40  63  92 125 166 218 274 315 397
#     4  10  21  44  63  95 137 163 212 286 325 397
#
# _framework density 20.754574999999999
#
# number of rings (size 3 to 8) (size 9 to 14) (size 15 to 20)
#    0.000    1.714    2.857    1.286    6.000    1.714 
#    0.000    8.571    0.000    0.000    0.000    0.000 
#    0.000    0.000    0.000    0.000    0.000    0.000 
#
# Total GULP energy -312246.540141 kJ/mol
# GULP energy per Si atom -5575.831074 kJ/mol
# Density = 2.070734 g / cm^3
# Si number density = 20.754575 Si / 1000 Ang^3
#
#
#
# Elastic Constant Matrix: (Units=GPa)
#
#
# Indices 1 2 3 4 5 6 
#
# 1 79.4336 8.7202 10.0865 0.0000 0.0000 0.0000
# 2 8.7202 65.1376 24.2041 0.0000 0.0000 0.0000
# 3 10.0865 24.2041 80.6814 0.0000 0.0000 0.0000
# 4 0.0000 0.0000 0.0000 9.5349 0.0000 0.0000
# 5 0.0000 0.0000 0.0000 0.0000 34.2213 0.0000
# 6 0.0000 0.0000 0.0000 0.0000 0.0000 -160.0958
#
#
#
# Elastic Compliance Matrix: (Units=1/GPa)
#
#
# Indices 1 2 3 4 5 6 
#
# 1 0.012885 -0.001268 -0.001230 0.000000 0.000000 0.000000
# 2 -0.001268 0.017403 -0.005062 0.000000 0.000000 0.000000
# 3 -0.001230 -0.005062 0.014067 0.000000 0.000000 0.000000
# 4 0.000000 0.000000 0.000000 0.104878 0.000000 0.000000
# 5 0.000000 0.000000 0.000000 0.000000 0.029222 0.000000
# 6 0.000000 0.000000 0.000000 0.000000 0.000000 -0.006246
#
#
# Mechanical properties :
#
#
# Convention : Reuss Voigt Hill
#
# Bulk Modulus (GPa) = 34.20740 34.58601 34.39671
# Shear Modulus (GPa) = 25.37133 -11.11847 7.12643
#
# Velocity S-wave (km/s) = 3.50014 -2.31706 1.85503
# Velocity P-wave (km/s) = 5.73169 3.08903 4.60404
#
# Compressibility (1/GPa) = 0.02923344
#
# Stress axis : x y z
#
# Youngs Moduli (GPa) = 77.61234 57.46174 71.08872
#
# Poissons Ratio (x) = 0.07284 0.08747
# Poissons Ratio (y) = 0.09839 0.35987
# Poissons Ratio (z) = 0.09550 0.29089
#
# Static dielectric constant tensor:
#      x y z
#    x 1.740920 0.000000 0.000000 
#    y 0.000000 1.778020 0.000000 
#    z 0.000000 0.000000 1.764550 
# 
# From -- ./inp_files/20059.got.cif
#   From: 2010.05.17/outbox.cif.g08.bks.cpg/sg73_11_cif.got.tgz:20059.got - 2010.06.03 17:35:07.
