data_PCOD9531036
_publ_section_title
;
Structure prediction by ZEFSAII (Michael W. Deem and Ramdas Pophale) SiO2 
 PCOD9531036
Probable space group: I B C A 
;
_chemical_formula_sum "Si O2"
_cell_formula_units_Z 64
_cell_length_a 32.021689
_cell_length_b 5.262595
_cell_length_c 18.762603
_cell_angle_alpha 90.000000
_cell_angle_beta 90.000000
_cell_angle_gamma 90.000000
_cell_volume 3161.820955
_symmetry_space_group_name_H-M "I B C A "
_symmetry_group_IT_number 73
_symmetry_cell_setting 'orthorhombic'
loop_
_space_group_symop_operation_xyz
x,y,z
-x,1/2-y,z
x,-y,1/2-z
1/2-x,y,-z
-x,-y,-z
x,1/2+y,-z
-x,y,1/2+z
1/2+x,-y,z
1/2+x,1/2+y,1/2+z
1/2-x,-y,1/2+z
1/2+x,1/2-y,-z
-x,1/2+y,1/2-z
1/2-x,1/2-y,1/2-z
1/2+x,y,1/2-z
1/2-x,1/2+y,z
x,1/2-y,1/2+z
loop_
_atom_site_type_symbol
_atom_site_label
_atom_site_fract_x
_atom_site_fract_y
_atom_site_fract_z
Si Si1 0.000000 0.750000 0.548365
Si Si2 0.232852 0.871116 0.920200
Si Si3 0.622044 0.500000 0.750000
Si Si4 0.090080 0.757610 0.616479
Si Si5 0.359763 0.273962 0.392873
O O1 0.042425 0.750392 0.593488
O O2 0.000000 0.500000 0.500000
O O3 0.259828 0.645566 0.885266
O O4 0.185103 0.786253 0.924492
O O5 0.250000 0.912730 0.000000
O O6 0.595037 0.314251 0.699950
O O7 0.646928 0.660660 0.691268
O O8 0.116678 0.527751 0.579560
O O9 0.110804 0.028860 0.601578
#
# Coordination Sequence:
#
# PCOD9531036 Si02
#       5
#     8  16   8  16  16
#     4  12  26  48  62 102 140 168 220 262 324 388
#     4  10  21  39  58  91 127 162 217 266 314 391
#     4   8  22  40  68  98 118 176 218 268 322 384
#     4  10  22  43  67  94 128 173 213 267 323 387
#     4  10  20  41  63  95 128 164 216 267 331 379
#
# _framework density 20.241499999999998
#
# number of rings (size 3 to 8) (size 9 to 14) (size 15 to 20)
#    1.500    0.500    0.000    3.750    0.000    0.000 
#   31.500    1.250    0.000    0.000    0.000    0.000 
#    0.000    0.000    0.000    0.000    0.000    0.000 
#
# Total GULP energy -178380.676651 kJ/mol
# GULP energy per Si atom -5574.396145 kJ/mol
# Density = 2.019543 g / cm^3
# Si number density = 20.241500 Si / 1000 Ang^3
#
#
#
# Elastic Constant Matrix: (Units=GPa)
#
#
# Indices 1 2 3 4 5 6 
#
# 1 98.1444 -7.1966 22.6397 0.0000 0.0000 0.0000
# 2 -7.1966 124.1895 -3.4300 0.0000 0.0000 0.0000
# 3 22.6397 -3.4300 64.6469 0.0000 0.0000 0.0000
# 4 0.0000 0.0000 0.0000 4.5429 0.0000 0.0000
# 5 0.0000 0.0000 0.0000 0.0000 124.4870 0.0000
# 6 0.0000 0.0000 0.0000 0.0000 0.0000 34.0726
#
#
#
# Elastic Compliance Matrix: (Units=1/GPa)
#
#
# Indices 1 2 3 4 5 6 
#
# 1 0.011120 0.000538 -0.003866 0.000000 0.000000 0.000000
# 2 0.000538 0.008090 0.000241 0.000000 0.000000 0.000000
# 3 -0.003866 0.000241 0.016835 0.000000 0.000000 0.000000
# 4 0.000000 0.000000 0.000000 0.220125 0.000000 0.000000
# 5 0.000000 0.000000 0.000000 0.000000 0.008033 0.000000
# 6 0.000000 0.000000 0.000000 0.000000 0.000000 0.029349
#
#
# Mechanical properties :
#
#
# Convention : Reuss Voigt Hill
#
# Bulk Modulus (GPa) = 33.47725 34.55632 34.01678
# Shear Modulus (GPa) = 16.14550 50.95169 33.54859
#
# Velocity S-wave (km/s) = 2.82732 5.02260 4.07555
# Velocity P-wave (km/s) = 5.21854 7.12351 6.24410
#
# Compressibility (1/GPa) = 0.02987104
#
# Stress axis : x y z
#
# Youngs Moduli (GPa) = 89.92597 123.60911 59.39907
#
# Poissons Ratio (x) = -0.06646 0.22963
# Poissons Ratio (y) = -0.04835 -0.01431
# Poissons Ratio (z) = 0.34764 -0.02978
#
# Static dielectric constant tensor:
#      x y z
#    x 1.692610 0.000000 0.000000 
#    y 0.000000 1.802470 0.000000 
#    z 0.000000 0.000000 1.766280 
# 
# From -- ./inp_files/27727.got.cif
#   From: 2010.05.17/outbox.cif.g08.bks.cpg/sg73_14_cif.got.tgz:27727.got - 2010.06.03 17:35:07.
