data_PCOD9531997
_publ_section_title
;
Structure prediction by ZEFSAII (Michael W. Deem and Ramdas Pophale) SiO2 
 PCOD9531997
Probable space group: I B C A 
;
_chemical_formula_sum "Si O2"
_cell_formula_units_Z 120
_cell_length_a 20.831519
_cell_length_b 24.039120
_cell_length_c 11.410918
_cell_angle_alpha 90.000000
_cell_angle_beta 90.000000
_cell_angle_gamma 90.000000
_cell_volume 5714.261211
_symmetry_space_group_name_H-M "I B C A "
_symmetry_group_IT_number 73
_symmetry_cell_setting 'orthorhombic'
loop_
_space_group_symop_operation_xyz
x,y,z
-x,1/2-y,z
x,-y,1/2-z
1/2-x,y,-z
-x,-y,-z
x,1/2+y,-z
-x,y,1/2+z
1/2+x,-y,z
1/2+x,1/2+y,1/2+z
1/2-x,-y,1/2+z
1/2+x,1/2-y,-z
-x,1/2+y,1/2-z
1/2-x,1/2-y,1/2-z
1/2+x,y,1/2-z
1/2-x,1/2+y,z
x,1/2-y,1/2+z
loop_
_atom_site_type_symbol
_atom_site_label
_atom_site_fract_x
_atom_site_fract_y
_atom_site_fract_z
Si Si1 0.998726 0.144512 0.565835
Si Si2 0.399300 0.790780 0.421947
Si Si3 0.636072 0.684614 0.036257
Si Si4 0.710000 0.002855 0.113474
Si Si5 0.421530 0.553935 0.181331
Si Si6 0.280744 0.811176 0.266357
Si Si7 0.500000 0.750000 0.739357
Si Si8 0.325520 0.122412 0.677073
O O1 0.949648 0.163315 0.464573
O O2 0.975274 0.084927 0.608545
O O3 0.073080 0.146326 0.532341
O O4 0.995234 0.194011 0.662728
O O5 0.385935 0.748557 0.528458
O O6 0.332230 0.811658 0.370853
O O7 0.437724 0.756690 0.322106
O O8 0.678727 0.675033 0.149219
O O9 0.671229 0.672204 0.914931
O O10 0.697336 0.068701 0.105093
O O11 0.735533 0.000000 0.250000
O O12 0.642216 0.969994 0.116928
O O13 0.750000 0.984899 0.000000
O O14 0.446580 0.500000 0.250000
O O15 0.391309 0.601949 0.264552
O O16 0.250000 0.750000 0.250000
O O17 0.224525 0.856737 0.274774
#
# Coordination Sequence:
#
# PCOD9531997 Si02
#       8
#    16  16  16  16  16  16   8  16
#     4  12  23  38  67  90 123 170 216 268 323 402
#     4  12  23  37  59  92 127 170 216 257 314 394
#     4  12  22  39  59  90 127 170 210 257 325 394
#     4   9  19  40  67  92 124 174 227 277 338 409
#     4   9  23  44  67  92 124 171 220 277 339 394
#     4  12  25  36  57  92 134 170 210 260 314 396
#     4  12  20  42  60  90 132 170 212 246 338 392
#     4  10  22  40  64  87 127 175 209 263 338 396
#
# _framework density 21.00009
#
# number of rings (size 3 to 8) (size 9 to 14) (size 15 to 20)
#    0.000    1.333    5.333    2.000    1.867    2.133 
#    0.000    2.667    0.000    3.200    0.000    0.000 
#    0.000    0.000    0.000    0.000    0.000    0.000 
#
# Total GULP energy -334954.468642 kJ/mol
# GULP energy per Si atom -5582.574477 kJ/mol
# Density = 2.095229 g / cm^3
# Si number density = 21.000090 Si / 1000 Ang^3
#
#
#
# Elastic Constant Matrix: (Units=GPa)
#
#
# Indices 1 2 3 4 5 6 
#
# 1 70.3147 28.6985 31.7110 0.0000 0.0000 0.0000
# 2 28.6985 66.1516 10.5625 0.0000 0.0000 0.0000
# 3 31.7110 10.5625 51.4092 0.0000 0.0000 0.0000
# 4 0.0000 0.0000 0.0000 25.2972 0.0000 0.0000
# 5 0.0000 0.0000 0.0000 0.0000 27.3253 0.0000
# 6 0.0000 0.0000 0.0000 0.0000 0.0000 25.4485
#
#
#
# Elastic Compliance Matrix: (Units=1/GPa)
#
#
# Indices 1 2 3 4 5 6 
#
# 1 0.023222 -0.008051 -0.012670 0.000000 0.000000 0.000000
# 2 -0.008051 0.018421 0.001182 0.000000 0.000000 0.000000
# 3 -0.012670 0.001182 0.027024 0.000000 0.000000 0.000000
# 4 0.000000 0.000000 0.000000 0.039530 0.000000 0.000000
# 5 0.000000 0.000000 0.000000 0.000000 0.036596 0.000000
# 6 0.000000 0.000000 0.000000 0.000000 0.000000 0.039295
#
#
# Mechanical properties :
#
#
# Convention : Reuss Voigt Hill
#
# Bulk Modulus (GPa) = 33.79761 36.64664 35.22212
# Shear Modulus (GPa) = 21.45647 23.40776 22.43212
#
# Velocity S-wave (km/s) = 3.19992 3.34226 3.27187
# Velocity P-wave (km/s) = 5.45726 5.69059 5.57515
#
# Compressibility (1/GPa) = 0.02958789
#
# Stress axis : x y z
#
# Youngs Moduli (GPa) = 43.06302 54.28574 37.00389
#
# Poissons Ratio (x) = 0.43707 0.46883
# Poissons Ratio (y) = 0.34671 -0.04372
# Poissons Ratio (z) = 0.54560 -0.06414
#
# Static dielectric constant tensor:
#      x y z
#    x 1.777470 0.000000 0.000000 
#    y 0.000000 1.752620 0.000000 
#    z 0.000000 0.000000 1.804890 
# 
# From -- ./inp_files/13094.got.cif
#   From: 2010.05.17/outbox.cif.g08.bks.cpg/sg73_7_cif.got.tgz:13094.got - 2010.06.03 17:35:07.
