data_PCOD9531741
_publ_section_title
;
Structure prediction by ZEFSAII (Michael W. Deem and Ramdas Pophale) SiO2 
 PCOD9531741
Probable space group: I B C A 
;
_chemical_formula_sum "Si O2"
_cell_formula_units_Z 72
_cell_length_a 17.951337
_cell_length_b 10.204980
_cell_length_c 16.852906
_cell_angle_alpha 90.000000
_cell_angle_beta 90.000000
_cell_angle_gamma 90.000000
_cell_volume 3087.335000
_symmetry_space_group_name_H-M "I B C A "
_symmetry_group_IT_number 73
_symmetry_cell_setting 'orthorhombic'
loop_
_space_group_symop_operation_xyz
x,y,z
-x,1/2-y,z
x,-y,1/2-z
1/2-x,y,-z
-x,-y,-z
x,1/2+y,-z
-x,y,1/2+z
1/2+x,-y,z
1/2+x,1/2+y,1/2+z
1/2-x,-y,1/2+z
1/2+x,1/2-y,-z
-x,1/2+y,1/2-z
1/2-x,1/2-y,1/2-z
1/2+x,y,1/2-z
1/2-x,1/2+y,z
x,1/2-y,1/2+z
loop_
_atom_site_type_symbol
_atom_site_label
_atom_site_fract_x
_atom_site_fract_y
_atom_site_fract_z
Si Si1 0.227891 0.596994 0.680727
Si Si2 0.000000 0.750000 0.161607
Si Si3 0.384835 0.589496 0.449417
Si Si4 0.130569 0.203788 0.731601
Si Si5 0.416350 0.302368 0.431297
O O1 0.203035 0.500000 0.750000
O O2 0.191534 0.563531 0.597795
O O3 0.187880 0.733723 0.704725
O O4 0.317027 0.600961 0.686008
O O5 0.947674 0.655783 0.108465
O O6 0.943416 0.828987 0.219446
O O7 0.412303 0.444550 0.471153
O O8 0.372297 0.694303 0.518252
O O9 0.108363 0.302616 0.660529
O O10 0.500000 0.250000 0.431807
#
# Coordination Sequence:
#
# PCOD9531741 Si02
#       5
#    16   8  16  16  16
#     4  10  21  44  68  97 134 179 227 288 338 404
#     4  10  22  42  70 106 130 178 232 294 340 406
#     4  11  25  44  69 100 147 179 232 284 341 416
#     4  10  22  41  69  99 132 174 231 283 350 404
#     4  12  24  44  66 103 141 186 225 289 347 412
#
# _framework density 23.321083999999999
#
# number of rings (size 3 to 8) (size 9 to 14) (size 15 to 20)
#    0.000    1.333    4.444    0.667    0.000    2.667 
#    8.000    2.222    0.000    0.000    0.000    0.000 
#    0.000    0.000    0.000    0.000    0.000    0.000 
#
# Total GULP energy -200910.400599 kJ/mol
# GULP energy per Si atom -5580.844461 kJ/mol
# Density = 2.326800 g / cm^3
# Si number density = 23.321084 Si / 1000 Ang^3
#
#
#
# Elastic Constant Matrix: (Units=GPa)
#
#
# Indices 1 2 3 4 5 6 
#
# 1 94.5595 7.6872 18.2663 0.0000 0.0000 0.0000
# 2 7.6872 99.5659 17.8385 0.0000 0.0000 0.0000
# 3 18.2663 17.8385 74.1280 0.0000 0.0000 0.0000
# 4 0.0000 0.0000 0.0000 28.1787 0.0000 0.0000
# 5 0.0000 0.0000 0.0000 0.0000 -10.8303 0.0000
# 6 0.0000 0.0000 0.0000 0.0000 0.0000 22.8402
#
#
#
# Elastic Compliance Matrix: (Units=1/GPa)
#
#
# Indices 1 2 3 4 5 6 
#
# 1 0.011118 -0.000384 -0.002647 0.000000 0.000000 0.000000
# 2 -0.000384 0.010509 -0.002434 0.000000 0.000000 0.000000
# 3 -0.002647 -0.002434 0.014728 0.000000 0.000000 0.000000
# 4 0.000000 0.000000 0.000000 0.035488 0.000000 0.000000
# 5 0.000000 0.000000 0.000000 0.000000 -0.092333 0.000000
# 6 0.000000 0.000000 0.000000 0.000000 0.000000 0.043782
#
#
# Mechanical properties :
#
#
# Convention : Reuss Voigt Hill
#
# Bulk Modulus (GPa) = 39.33249 39.53750 39.43499
# Shear Modulus (GPa) = 117.09996 23.00182 70.05089
#
# Velocity S-wave (km/s) = 7.09373 3.14396 5.48660
# Velocity P-wave (km/s) = 9.16499 5.49269 7.55535
#
# Compressibility (1/GPa) = 0.02542428
#
# Stress axis : x y z
#
# Youngs Moduli (GPa) = 89.94464 95.15289 67.89649
#
# Poissons Ratio (x) = 0.03655 0.17974
# Poissons Ratio (y) = 0.03455 0.16529
# Poissons Ratio (z) = 0.23810 0.23164
#
# Static dielectric constant tensor:
#      x y z
#    x 1.930470 0.000000 0.000000 
#    y 0.000000 1.931670 0.000000 
#    z 0.000000 0.000000 1.918610 
# 
# From -- ./inp_files/11645.got.cif
#   From: 2010.05.17/outbox.cif.g08.bks.cpg/sg73_6_cif.got.tgz:11645.got - 2010.06.03 17:35:07.
