data_PCOD9531056
_publ_section_title
;
Structure prediction by ZEFSAII (Michael W. Deem and Ramdas Pophale) SiO2 
 PCOD9531056
Probable space group: I B C A 
;
_chemical_formula_sum "Si O2"
_cell_formula_units_Z 80
_cell_length_a 10.770016
_cell_length_b 30.413444
_cell_length_c 11.996782
_cell_angle_alpha 90.000000
_cell_angle_beta 90.000000
_cell_angle_gamma 90.000000
_cell_volume 3929.585275
_symmetry_space_group_name_H-M "I B C A "
_symmetry_group_IT_number 73
_symmetry_cell_setting 'orthorhombic'
loop_
_space_group_symop_operation_xyz
x,y,z
-x,1/2-y,z
x,-y,1/2-z
1/2-x,y,-z
-x,-y,-z
x,1/2+y,-z
-x,y,1/2+z
1/2+x,-y,z
1/2+x,1/2+y,1/2+z
1/2-x,-y,1/2+z
1/2+x,1/2-y,-z
-x,1/2+y,1/2-z
1/2-x,1/2-y,1/2-z
1/2+x,y,1/2-z
1/2-x,1/2+y,z
x,1/2-y,1/2+z
loop_
_atom_site_type_symbol
_atom_site_label
_atom_site_fract_x
_atom_site_fract_y
_atom_site_fract_z
Si Si1 0.654915 0.360235 0.398033
Si Si2 0.832532 0.995202 0.620292
Si Si3 0.076074 0.046220 0.567166
Si Si4 0.720944 0.202723 0.693902
Si Si5 0.558394 0.297626 0.981403
O O1 0.750000 0.362969 0.500000
O O2 0.610441 0.409494 0.369993
O O3 0.704711 0.332993 0.291789
O O4 0.541386 0.333911 0.451822
O O5 0.934199 0.031808 0.581395
O O6 0.841835 0.000000 0.750000
O O7 0.892621 0.951392 0.564982
O O8 0.683689 0.990367 0.597054
O O9 0.750000 0.250000 0.750000
O O10 0.831260 0.194551 0.606317
O O11 0.603085 0.202666 0.610032
O O12 0.500000 0.250000 0.958359
#
# Coordination Sequence:
#
# PCOD9531056 Si02
#       5
#    16  16  16  16  16
#     4  12  25  42  70  99 143 179 237 294 348 424
#     4  10  20  41  68  95 136 176 225 279 359 418
#     4  10  23  42  66 104 132 181 232 285 354 424
#     4  11  25  44  66  99 135 188 234 290 355 414
#     4  11  25  43  67 101 135 184 237 288 351 422
#
# _framework density 20.358383
#
# number of rings (size 3 to 8) (size 9 to 14) (size 15 to 20)
#    0.000    1.200    4.000    1.800    5.600    3.200 
#    0.000    8.000    0.000    0.000    0.000    0.000 
#    0.000    0.000    0.000    0.000    0.000    0.000 
#
# Total GULP energy -222685.242142 kJ/mol
# GULP energy per Si atom -5567.131054 kJ/mol
# Density = 2.031205 g / cm^3
# Si number density = 20.358383 Si / 1000 Ang^3
#
#
#
# Elastic Constant Matrix: (Units=GPa)
#
#
# Indices 1 2 3 4 5 6 
#
# 1 110.6539 61.3278 46.7259 -0.0001 0.0000 0.0000
# 2 61.3278 105.0022 57.2458 -0.0002 0.0000 0.0000
# 3 46.7259 57.2458 122.2364 -0.0005 -0.0002 0.0002
# 4 -0.0001 -0.0002 -0.0005 31.3115 0.0000 0.0000
# 5 0.0000 0.0000 -0.0002 0.0000 26.0749 -0.0002
# 6 0.0000 0.0000 0.0002 0.0000 -0.0002 28.8526
#
#
#
# Elastic Compliance Matrix: (Units=1/GPa)
#
#
# Indices 1 2 3 4 5 6 
#
# 1 0.013719 -0.006920 -0.002003 0.000000 0.000000 0.000000
# 2 -0.006920 0.016280 -0.004979 0.000000 0.000000 0.000000
# 3 -0.002003 -0.004979 0.011278 0.000000 0.000000 0.000000
# 4 0.000000 0.000000 0.000000 0.031937 0.000000 0.000000
# 5 0.000000 0.000000 0.000000 0.000000 0.038351 0.000000
# 6 0.000000 0.000000 0.000000 0.000000 0.000000 0.034659
#
#
# Mechanical properties :
#
#
# Convention : Reuss Voigt Hill
#
# Bulk Modulus (GPa) = 74.22752 74.27684 74.25218
# Shear Modulus (GPa) = 28.00818 28.75400 28.38109
#
# Velocity S-wave (km/s) = 3.71314 3.76226 3.73778
# Velocity P-wave (km/s) = 7.41099 7.44558 7.42831
#
# Compressibility (1/GPa) = 0.01347209
#
# Stress axis : x y z
#
# Youngs Moduli (GPa) = 72.89405 61.42507 88.66625
#
# Poissons Ratio (x) = 0.42509 0.17760
# Poissons Ratio (y) = 0.50446 0.44146
# Poissons Ratio (z) = 0.14601 0.30583
#
# Static dielectric constant tensor:
#      x y z
#    x 2.071300 -0.000010 0.000000 
#    y -0.000010 1.727760 0.000000 
#    z 0.000000 0.000000 1.810270 
# 
# From -- ./inp_files/9781.got.cif
#   From: 2010.05.17/outbox.cif.g08.bks.cpg/sg73_5_cif.got.tgz:9781.got - 2010.06.03 17:35:07.
