data_PCOD9531124
_publ_section_title
;
Structure prediction by ZEFSAII (Michael W. Deem and Ramdas Pophale) SiO2 
 PCOD9531124
Probable space group: I B C A 
;
_chemical_formula_sum "Si O2"
_cell_formula_units_Z 72
_cell_length_a 9.964468
_cell_length_b 14.251110
_cell_length_c 20.411311
_cell_angle_alpha 90.000000
_cell_angle_beta 90.000000
_cell_angle_gamma 90.000000
_cell_volume 2898.502699
_symmetry_space_group_name_H-M "I B C A "
_symmetry_group_IT_number 73
_symmetry_cell_setting 'orthorhombic'
loop_
_space_group_symop_operation_xyz
x,y,z
-x,1/2-y,z
x,-y,1/2-z
1/2-x,y,-z
-x,-y,-z
x,1/2+y,-z
-x,y,1/2+z
1/2+x,-y,z
1/2+x,1/2+y,1/2+z
1/2-x,-y,1/2+z
1/2+x,1/2-y,-z
-x,1/2+y,1/2-z
1/2-x,1/2-y,1/2-z
1/2+x,y,1/2-z
1/2-x,1/2+y,z
x,1/2-y,1/2+z
loop_
_atom_site_type_symbol
_atom_site_label
_atom_site_fract_x
_atom_site_fract_y
_atom_site_fract_z
Si Si1 0.650758 0.264539 0.189098
Si Si2 0.082775 0.442698 0.602908
Si Si3 0.250000 0.564513 0.500000
Si Si4 0.309564 0.244134 0.433856
Si Si5 0.835060 0.978883 0.175139
O O1 0.500000 0.250000 0.212108
O O2 0.750000 0.250000 0.250000
O O3 0.707205 0.213436 0.124308
O O4 0.643687 0.369864 0.163356
O O5 0.150543 0.498067 0.541803
O O6 0.103121 0.329286 0.596735
O O7 0.177784 0.487012 0.660374
O O8 0.935404 0.468534 0.627399
O O9 0.347811 0.643822 0.533752
O O10 0.250000 0.291440 0.500000
O O11 0.864484 0.000000 0.250000
#
# Coordination Sequence:
#
# PCOD9531124 Si02
#       5
#    16  16   8  16  16
#     4  11  26  47  72 105 145 189 250 307 367 441
#     4  11  23  47  67 107 139 190 242 303 366 442
#     4  10  20  42  76  94 142 188 242 302 374 426
#     4   9  22  44  68 104 144 187 241 305 370 438
#     4  11  27  43  74  98 145 188 237 295 369 438
#
# _framework density 24.840413000000002
#
# number of rings (size 3 to 8) (size 9 to 14) (size 15 to 20)
#    0.667    0.889    1.111    2.000   12.444    0.889 
#    4.000    2.222    0.000    0.000    0.000    0.000 
#    0.000    0.000    0.000    0.000    0.000    0.000 
#
# Total GULP energy -200592.219265 kJ/mol
# GULP energy per Si atom -5572.006091 kJ/mol
# Density = 2.478387 g / cm^3
# Si number density = 24.840413 Si / 1000 Ang^3
#
#
#
# Elastic Constant Matrix: (Units=GPa)
#
#
# Indices 1 2 3 4 5 6 
#
# 1 88.2243 9.6942 11.3389 0.0000 0.0000 0.0000
# 2 9.6942 132.2727 19.2023 0.0000 0.0000 0.0000
# 3 11.3389 19.2023 116.9512 0.0000 0.0000 0.0000
# 4 0.0000 0.0000 0.0000 37.4059 0.0000 0.0000
# 5 0.0000 0.0000 0.0000 0.0000 56.3355 0.0000
# 6 0.0000 0.0000 0.0000 0.0000 0.0000 68.0409
#
#
#
# Elastic Compliance Matrix: (Units=1/GPa)
#
#
# Indices 1 2 3 4 5 6 
#
# 1 0.011541 -0.000700 -0.001004 0.000000 0.000000 0.000000
# 2 -0.000700 0.007787 -0.001211 0.000000 0.000000 0.000000
# 3 -0.001004 -0.001211 0.008847 0.000000 0.000000 0.000000
# 4 0.000000 0.000000 0.000000 0.026734 0.000000 0.000000
# 5 0.000000 0.000000 0.000000 0.000000 0.017751 0.000000
# 6 0.000000 0.000000 0.000000 0.000000 0.000000 0.014697
#
#
# Mechanical properties :
#
#
# Convention : Reuss Voigt Hill
#
# Bulk Modulus (GPa) = 44.75250 46.43543 45.59397
# Shear Modulus (GPa) = 49.68495 52.17063 50.92779
#
# Velocity S-wave (km/s) = 4.47717 4.58780 4.53282
# Velocity P-wave (km/s) = 6.69193 6.84090 6.76683
#
# Compressibility (1/GPa) = 0.02234512
#
# Stress axis : x y z
#
# Youngs Moduli (GPa) = 86.64983 128.41569 113.03644
#
# Poissons Ratio (x) = 0.08990 0.11349
# Poissons Ratio (y) = 0.06066 0.13686
# Poissons Ratio (z) = 0.08699 0.15547
#
# Static dielectric constant tensor:
#      x y z
#    x 2.195740 0.000000 0.000000 
#    y 0.000000 1.934840 0.000000 
#    z 0.000000 0.000000 2.033200 
# 
# From -- ./inp_files/21164.got.cif
#   From: 2010.05.17/outbox.cif.g08.bks.cpg/sg73_11_cif.got.tgz:21164.got - 2010.06.03 17:35:07.
