data_PCOD9531186
_publ_section_title
;
Structure prediction by ZEFSAII (Michael W. Deem and Ramdas Pophale) SiO2 
 PCOD9531186
Probable space group: I B C A 
;
_chemical_formula_sum "Si O2"
_cell_formula_units_Z 120
_cell_length_a 28.328921
_cell_length_b 18.977592
_cell_length_c 9.198370
_cell_angle_alpha 90.000000
_cell_angle_beta 90.000000
_cell_angle_gamma 90.000000
_cell_volume 4945.178970
_symmetry_space_group_name_H-M "I B C A "
_symmetry_group_IT_number 73
_symmetry_cell_setting 'orthorhombic'
loop_
_space_group_symop_operation_xyz
x,y,z
-x,1/2-y,z
x,-y,1/2-z
1/2-x,y,-z
-x,-y,-z
x,1/2+y,-z
-x,y,1/2+z
1/2+x,-y,z
1/2+x,1/2+y,1/2+z
1/2-x,-y,1/2+z
1/2+x,1/2-y,-z
-x,1/2+y,1/2-z
1/2-x,1/2-y,1/2-z
1/2+x,y,1/2-z
1/2-x,1/2+y,z
x,1/2-y,1/2+z
loop_
_atom_site_type_symbol
_atom_site_label
_atom_site_fract_x
_atom_site_fract_y
_atom_site_fract_z
Si Si1 0.838952 0.945992 0.139492
Si Si2 0.537953 0.137067 0.162393
Si Si3 0.436378 0.802133 0.323754
Si Si4 0.302403 0.342037 0.984047
Si Si5 0.897473 0.612386 0.908686
Si Si6 0.250000 0.862776 0.500000
Si Si7 0.892946 0.878898 0.909860
Si Si8 0.813276 0.219640 0.719057
O O1 0.880051 0.925469 0.260417
O O2 0.813376 0.000000 0.250000
O O3 0.793944 0.904133 0.073120
O O4 0.870349 0.946916 0.990618
O O5 0.481750 0.145686 0.169949
O O6 0.552201 0.220277 0.156572
O O7 0.562009 0.107309 0.308498
O O8 0.560405 0.098375 0.022127
O O9 0.413843 0.813895 0.165390
O O10 0.404199 0.827096 0.455606
O O11 0.306079 0.284515 0.110313
O O12 0.250000 0.373402 0.000000
O O13 0.348413 0.389768 0.998040
O O14 0.312696 0.299389 0.836864
O O15 0.228090 0.817558 0.369962
O O16 0.856930 0.831899 0.815569
#
# Coordination Sequence:
#
# PCOD9531186 Si02
#       8
#    16  16  16  16  16   8  16  16
#     4  10  24  47  65  84 112 161 212 278 329 366
#     4  11  19  36  58  97 131 167 204 245 304 383
#     4  10  21  34  59  91 137 171 200 238 301 383
#     4  12  23  33  54  87 127 165 199 242 299 387
#     4  11  23  37  61  89 124 166 212 257 311 378
#     4  10  22  44  64  84 120 158 214 260 322 380
#     4  10  21  36  59  83 122 162 203 255 310 373
#     4  11  22  35  55  86 124 162 197 242 305 373
#
# _framework density 24.266055999999999
#
# number of rings (size 3 to 8) (size 9 to 14) (size 15 to 20)
#    0.000    1.333    2.000    4.400    5.600    2.133 
#    3.600    0.667    0.000   12.800    0.000    0.000 
#    0.000    0.000    0.000    0.000    0.000    0.000 
#
# Total GULP energy -334173.440483 kJ/mol
# GULP energy per Si atom -5569.557341 kJ/mol
# Density = 2.421083 g / cm^3
# Si number density = 24.266056 Si / 1000 Ang^3
#
#
#
# Elastic Constant Matrix: (Units=GPa)
#
#
# Indices 1 2 3 4 5 6 
#
# 1 139.3388 11.8385 33.1956 0.0000 0.0000 0.0000
# 2 11.8385 36.5748 10.0752 0.0000 0.0000 0.0000
# 3 33.1956 10.0752 114.1848 0.0000 0.0000 0.0000
# 4 0.0000 0.0000 0.0000 17.6219 0.0000 0.0000
# 5 0.0000 0.0000 0.0000 0.0000 39.0778 0.0000
# 6 0.0000 0.0000 0.0000 0.0000 0.0000 -14.2650
#
#
#
# Elastic Compliance Matrix: (Units=1/GPa)
#
#
# Indices 1 2 3 4 5 6 
#
# 1 0.007845 -0.001959 -0.002108 0.000000 0.000000 0.000000
# 2 -0.001959 0.028511 -0.001946 0.000000 0.000000 0.000000
# 3 -0.002108 -0.001946 0.009542 0.000000 0.000000 0.000000
# 4 0.000000 0.000000 0.000000 0.056747 0.000000 0.000000
# 5 0.000000 0.000000 0.000000 0.000000 0.025590 0.000000
# 6 0.000000 0.000000 0.000000 0.000000 0.000000 -0.070102
#
#
# Mechanical properties :
#
#
# Convention : Reuss Voigt Hill
#
# Bulk Modulus (GPa) = 29.52193 44.47965 37.00079
# Shear Modulus (GPa) = 61.38593 24.15288 42.76940
#
# Velocity S-wave (km/s) = 5.03507 3.15832 4.20279
# Velocity P-wave (km/s) = 6.78196 5.62759 6.23156
#
# Compressibility (1/GPa) = 0.03387313
#
# Stress axis : x y z
#
# Youngs Moduli (GPa) = 127.46388 35.07369 104.79663
#
# Poissons Ratio (x) = 0.06870 0.22091
# Poissons Ratio (y) = 0.24966 0.20396
# Poissons Ratio (z) = 0.26869 0.06826
#
# Static dielectric constant tensor:
#      x y z
#    x 2.007430 0.000000 0.000000 
#    y 0.000000 2.174730 0.000000 
#    z 0.000000 0.000000 1.930250 
# 
# From -- ./inp_files/8040.got.cif
#   From: 2010.05.17/outbox.cif.g08.bks.cpg/sg73_5_cif.got.tgz:8040.got - 2010.06.03 17:35:07.
