data_PCOD9531605
_publ_section_title
;
Structure prediction by ZEFSAII (Michael W. Deem and Ramdas Pophale) SiO2 
 PCOD9531605
Probable space group: I B C A 
;
_chemical_formula_sum "Si O2"
_cell_formula_units_Z 88
_cell_length_a 10.999959
_cell_length_b 25.233877
_cell_length_c 16.012005
_cell_angle_alpha 90.000000
_cell_angle_beta 90.000000
_cell_angle_gamma 90.000000
_cell_volume 4444.478046
_symmetry_space_group_name_H-M "I B C A "
_symmetry_group_IT_number 73
_symmetry_cell_setting 'orthorhombic'
loop_
_space_group_symop_operation_xyz
x,y,z
-x,1/2-y,z
x,-y,1/2-z
1/2-x,y,-z
-x,-y,-z
x,1/2+y,-z
-x,y,1/2+z
1/2+x,-y,z
1/2+x,1/2+y,1/2+z
1/2-x,-y,1/2+z
1/2+x,1/2-y,-z
-x,1/2+y,1/2-z
1/2-x,1/2-y,1/2-z
1/2+x,y,1/2-z
1/2-x,1/2+y,z
x,1/2-y,1/2+z
loop_
_atom_site_type_symbol
_atom_site_label
_atom_site_fract_x
_atom_site_fract_y
_atom_site_fract_z
Si Si1 0.947808 0.117244 0.635279
Si Si2 0.348333 0.000000 0.250000
Si Si3 0.632999 0.272326 0.938880
Si Si4 0.537500 0.004872 0.404649
Si Si5 0.657352 0.915078 0.300175
Si Si6 0.701742 0.662446 0.094530
O O1 0.884366 0.171816 0.607583
O O2 0.942123 0.104178 0.733564
O O3 0.083701 0.125603 0.601982
O O4 0.898430 0.062310 0.598334
O O5 0.430825 0.995867 0.166362
O O6 0.261500 0.051652 0.251735
O O7 0.500000 0.250000 0.974505
O O8 0.667559 0.222315 0.881379
O O9 0.750000 0.278261 0.000000
O O10 0.616684 0.955940 0.371839
O O11 0.500000 0.000000 0.500000
O O12 0.702977 0.862602 0.343864
O O13 0.750000 0.662782 0.000000
#
# Coordination Sequence:
#
# PCOD9531605 Si02
#       6
#    16   8  16  16  16  16
#     4  11  21  40  61  93 129 168 224 274 335 405
#     4  12  22  42  58  90 138 170 204 278 340 388
#     4   9  21  41  67  94 133 173 225 287 338 408
#     4  12  24  39  62  93 128 174 225 265 332 409
#     4  12  22  39  64  90 133 170 213 279 333 404
#     4  10  21  41  66  90 126 177 218 270 342 403
#
# _framework density 19.799849999999999
#
# number of rings (size 3 to 8) (size 9 to 14) (size 15 to 20)
#    0.000    1.091    5.455    1.091    0.000    2.182 
#    0.000    5.455    0.000    9.818    0.000    0.000 
#    0.000    0.000    0.000    0.000    0.000    0.000 
#
# Total GULP energy -245019.745262 kJ/mol
# GULP energy per Si atom -5568.630574 kJ/mol
# Density = 1.975478 g / cm^3
# Si number density = 19.799850 Si / 1000 Ang^3
#
#
#
# Elastic Constant Matrix: (Units=GPa)
#
#
# Indices 1 2 3 4 5 6 
#
# 1 65.6324 34.9157 37.2338 0.0000 0.0000 0.0000
# 2 34.9157 126.4944 52.8695 0.0000 0.0000 0.0000
# 3 37.2338 52.8695 108.8796 -0.0002 0.0000 0.0000
# 4 0.0000 0.0000 -0.0002 1.6168 0.0000 0.0000
# 5 0.0000 0.0000 0.0000 0.0000 30.2387 0.0000
# 6 0.0000 0.0000 0.0000 0.0000 0.0000 33.1914
#
#
#
# Elastic Compliance Matrix: (Units=1/GPa)
#
#
# Indices 1 2 3 4 5 6 
#
# 1 0.019965 -0.003334 -0.005209 -0.000001 0.000000 0.000000
# 2 -0.003334 0.010475 -0.003946 0.000000 0.000000 0.000000
# 3 -0.005209 -0.003946 0.012882 0.000002 0.000000 0.000000
# 4 -0.000001 0.000000 0.000002 0.618514 -0.000001 0.000000
# 5 0.000000 0.000000 0.000000 -0.000001 0.033070 0.000000
# 6 0.000000 0.000000 0.000000 0.000000 0.000000 0.030128
#
#
# Mechanical properties :
#
#
# Convention : Reuss Voigt Hill
#
# Bulk Modulus (GPa) = 54.51303 61.22717 57.87010
# Shear Modulus (GPa) = 6.61265 24.74186 15.67726
#
# Velocity S-wave (km/s) = 1.82948 3.53880 2.81692
# Velocity P-wave (km/s) = 5.66167 6.90563 6.31435
#
# Compressibility (1/GPa) = 0.01834424
#
# Stress axis : x y z
#
# Youngs Moduli (GPa) = 50.08818 95.46403 77.62799
#
# Poissons Ratio (x) = 0.31826 0.40433
# Poissons Ratio (y) = 0.16698 0.30635
# Poissons Ratio (z) = 0.26089 0.37674
#
# Static dielectric constant tensor:
#      x y z
#    x 1.791610 0.000000 0.000000 
#    y 0.000000 1.711580 0.000000 
#    z 0.000000 0.000000 1.676700 
# 
# From -- ./inp_files/11118.got.cif
#   From: 2010.05.17/outbox.cif.g08.bks.cpg/sg73_6_cif.got.tgz:11118.got - 2010.06.03 17:35:07.
