data_PCOD9531613
_publ_section_title
;
Structure prediction by ZEFSAII (Michael W. Deem and Ramdas Pophale) SiO2 
 PCOD9531613
Probable space group: I B C A 
;
_chemical_formula_sum "Si O2"
_cell_formula_units_Z 72
_cell_length_a 20.869074
_cell_length_b 12.561851
_cell_length_c 13.043425
_cell_angle_alpha 90.000000
_cell_angle_beta 90.000000
_cell_angle_gamma 90.000000
_cell_volume 3419.388621
_symmetry_space_group_name_H-M "I B C A "
_symmetry_group_IT_number 73
_symmetry_cell_setting 'orthorhombic'
loop_
_space_group_symop_operation_xyz
x,y,z
-x,1/2-y,z
x,-y,1/2-z
1/2-x,y,-z
-x,-y,-z
x,1/2+y,-z
-x,y,1/2+z
1/2+x,-y,z
1/2+x,1/2+y,1/2+z
1/2-x,-y,1/2+z
1/2+x,1/2-y,-z
-x,1/2+y,1/2-z
1/2-x,1/2-y,1/2-z
1/2+x,y,1/2-z
1/2-x,1/2+y,z
x,1/2-y,1/2+z
loop_
_atom_site_type_symbol
_atom_site_label
_atom_site_fract_x
_atom_site_fract_y
_atom_site_fract_z
Si Si1 0.310562 0.493530 0.925110
Si Si2 0.500000 0.750000 0.570664
Si Si3 0.561940 0.562403 0.960979
Si Si4 0.311991 0.176499 0.241194
Si Si5 0.939463 0.818270 0.734470
O O1 0.374707 0.488434 0.992245
O O2 0.307244 0.600915 0.858205
O O3 0.314442 0.398984 0.841230
O O4 0.250000 0.482451 0.000000
O O5 0.449241 0.680935 0.508258
O O6 0.538512 0.670704 0.647559
O O7 0.500000 0.500000 0.000000
O O8 0.566802 0.581673 0.839647
O O9 0.250000 0.250000 0.250000
O O10 0.375439 0.248336 0.233311
O O11 0.000000 0.750000 0.692835
#
# Coordination Sequence:
#
# PCOD9531613 Si02
#       5
#    16   8  16  16  16
#     4  11  25  44  66 100 134 176 225 281 334 397
#     4  10  22  42  66  94 138 172 216 274 336 392
#     4  12  24  41  70 101 135 174 227 274 335 399
#     4  11  24  44  69  93 136 179 222 277 335 397
#     4  10  21  41  66  96 129 171 222 268 337 395
#
# _framework density 21.056395999999999
#
# number of rings (size 3 to 8) (size 9 to 14) (size 15 to 20)
#    0.667    0.444    3.333    2.667    0.000    5.333 
#    0.000    0.000    0.000    0.000    0.000    0.000 
#    0.000    0.000    0.000    0.000    0.000    0.000 
#
# Total GULP energy -201137.466189 kJ/mol
# GULP energy per Si atom -5587.151839 kJ/mol
# Density = 2.100847 g / cm^3
# Si number density = 21.056396 Si / 1000 Ang^3
#
#
#
# Elastic Constant Matrix: (Units=GPa)
#
#
# Indices 1 2 3 4 5 6 
#
# 1 200.8984 51.6383 54.9751 0.0000 0.0000 0.0000
# 2 51.6383 72.7780 40.9828 0.0000 0.0000 0.0000
# 3 54.9751 40.9828 124.4755 0.0000 0.0000 0.0000
# 4 0.0000 0.0000 0.0000 40.8984 0.0000 0.0000
# 5 0.0000 0.0000 0.0000 0.0000 7.4523 0.0000
# 6 0.0000 0.0000 0.0000 0.0000 0.0000 46.3185
#
#
#
# Elastic Compliance Matrix: (Units=1/GPa)
#
#
# Indices 1 2 3 4 5 6 
#
# 1 0.006343 -0.003589 -0.001620 0.000000 0.000000 0.000000
# 2 -0.003589 0.018898 -0.004637 0.000000 0.000000 0.000000
# 3 -0.001620 -0.004637 0.010276 0.000000 0.000000 0.000000
# 4 0.000000 0.000000 0.000000 0.024451 0.000000 0.000000
# 5 0.000000 0.000000 0.000000 0.000000 0.134187 0.000000
# 6 0.000000 0.000000 0.000000 0.000000 0.000000 0.021590
#
#
# Mechanical properties :
#
#
# Convention : Reuss Voigt Hill
#
# Bulk Modulus (GPa) = 63.18817 77.03827 70.11322
# Shear Modulus (GPa) = 20.77178 35.63756 28.20467
#
# Velocity S-wave (km/s) = 3.14424 4.11844 3.66386
# Velocity P-wave (km/s) = 6.57692 7.69945 7.16021
#
# Compressibility (1/GPa) = 0.01582575
#
# Stress axis : x y z
#
# Youngs Moduli (GPa) = 157.64555 52.91619 97.31455
#
# Poissons Ratio (x) = 0.18989 0.15766
# Poissons Ratio (y) = 0.56571 0.45126
# Poissons Ratio (z) = 0.25540 0.24538
#
# Static dielectric constant tensor:
#      x y z
#    x 1.679720 0.000000 0.000000 
#    y 0.000000 1.779380 0.000000 
#    z 0.000000 0.000000 1.773930 
# 
# From -- ./inp_files/18468.got.cif
#   From: 2010.05.17/outbox.cif.g08.bks.cpg/sg73_10_cif.got.tgz:18468.got - 2010.06.03 17:35:07.
