data_PCOD9531214
_publ_section_title
;
Structure prediction by ZEFSAII (Michael W. Deem and Ramdas Pophale) SiO2 
 PCOD9531214
Probable space group: I B C A 
;
_chemical_formula_sum "Si O2"
_cell_formula_units_Z 88
_cell_length_a 25.121261
_cell_length_b 36.857282
_cell_length_c 5.151577
_cell_angle_alpha 90.000000
_cell_angle_beta 90.000000
_cell_angle_gamma 90.000000
_cell_volume 4769.852361
_symmetry_space_group_name_H-M "I B C A "
_symmetry_group_IT_number 73
_symmetry_cell_setting 'orthorhombic'
loop_
_space_group_symop_operation_xyz
x,y,z
-x,1/2-y,z
x,-y,1/2-z
1/2-x,y,-z
-x,-y,-z
x,1/2+y,-z
-x,y,1/2+z
1/2+x,-y,z
1/2+x,1/2+y,1/2+z
1/2-x,-y,1/2+z
1/2+x,1/2-y,-z
-x,1/2+y,1/2-z
1/2-x,1/2-y,1/2-z
1/2+x,y,1/2-z
1/2-x,1/2+y,z
x,1/2-y,1/2+z
loop_
_atom_site_type_symbol
_atom_site_label
_atom_site_fract_x
_atom_site_fract_y
_atom_site_fract_z
Si Si1 0.185275 0.727746 0.495526
Si Si2 0.186461 0.643790 0.538764
Si Si3 0.814414 0.023091 0.498106
Si Si4 0.462426 0.000000 0.750000
Si Si5 0.536883 0.419553 0.808308
Si Si6 0.144344 0.105207 0.966992
O O1 0.250000 0.727673 0.500000
O O2 0.167518 0.751886 0.737264
O O3 0.169795 0.685770 0.511430
O O4 0.250000 0.640796 0.500000
O O5 0.175990 0.629484 0.826936
O O6 0.155185 0.620418 0.321372
O O7 0.750000 0.024687 0.500000
O O8 0.834581 0.064014 0.479555
O O9 0.830205 0.000000 0.750000
O O10 0.832709 0.000000 0.250000
O O11 0.437620 0.960257 0.718677
O O12 0.500000 0.000000 0.500000
O O13 0.509599 0.415361 0.526004
O O14 0.584369 0.395203 0.920213
#
# Coordination Sequence:
#
# PCOD9531214 Si02
#       6
#    16  16  16   8  16  16
#     4   9  17  31  52  78 111 148 177 208 257 318
#     4  11  22  36  55  84 118 149 182 219 264 328
#     4  10  21  36  51  70 100 141 188 227 259 309
#     4   8  16  32  52  70  92 124 166 226 288 324
#     4  10  21  38  55  77 105 135 181 241 291 341
#     4  12  23  36  57  79 109 148 187 228 283 333
#
# _framework density 18.449209
#
# number of rings (size 3 to 8) (size 9 to 14) (size 15 to 20)
#    0.000    1.818    0.000    4.909    1.273    4.364 
#    6.545    0.000    0.000    0.000    0.000    0.000 
#    0.000   50.909    0.000    0.000    0.000    0.000 
#
# Total GULP energy -245389.537221 kJ/mol
# GULP energy per Si atom -5577.034937 kJ/mol
# Density = 1.840722 g / cm^3
# Si number density = 18.449209 Si / 1000 Ang^3
#
#
#
# Elastic Constant Matrix: (Units=GPa)
#
#
# Indices 1 2 3 4 5 6 
#
# 1 31.9675 0.5063 -14.9232 0.0000 0.0000 0.0000
# 2 0.5063 102.6097 23.7745 0.0000 0.0000 0.0000
# 3 -14.9232 23.7745 108.1726 0.0000 0.0000 0.0000
# 4 0.0000 0.0000 0.0000 30.8147 0.0000 0.0000
# 5 0.0000 0.0000 0.0000 0.0000 14.3037 0.0000
# 6 0.0000 0.0000 0.0000 0.0000 0.0000 8.3900
#
#
#
# Elastic Compliance Matrix: (Units=1/GPa)
#
#
# Indices 1 2 3 4 5 6 
#
# 1 0.033600 -0.001306 0.004923 0.000000 0.000000 0.000000
# 2 -0.001306 0.010319 -0.002448 0.000000 0.000000 0.000000
# 3 0.004923 -0.002448 0.010462 0.000000 0.000000 0.000000
# 4 0.000000 0.000000 0.000000 0.032452 0.000000 0.000000
# 5 0.000000 0.000000 0.000000 0.000000 0.069912 0.000000
# 6 0.000000 0.000000 0.000000 0.000000 0.000000 0.119190
#
#
# Mechanical properties :
#
#
# Convention : Reuss Voigt Hill
#
# Bulk Modulus (GPa) = 17.63128 29.05168 23.34148
# Shear Modulus (GPa) = 17.09372 26.26117 21.67745
#
# Velocity S-wave (km/s) = 3.04720 3.77693 3.43152
# Velocity P-wave (km/s) = 4.68593 5.89926 5.32725
#
# Compressibility (1/GPa) = 0.05671739
#
# Stress axis : x y z
#
# Youngs Moduli (GPa) = 29.76150 96.90521 95.58710
#
# Poissons Ratio (x) = 0.12659 -0.47053
# Poissons Ratio (y) = 0.03888 0.23402
# Poissons Ratio (z) = -0.14650 0.23725
#
# Static dielectric constant tensor:
#      x y z
#    x 1.655200 0.000000 0.000000 
#    y 0.000000 1.629760 0.000000 
#    z 0.000000 0.000000 1.628790 
# 
# From -- ./inp_files/2260.got.cif
#   From: 2010.05.17/outbox.cif.g08.bks.cpg/sg73_2_cif.got.tgz:2260.got - 2010.06.03 17:35:07.
