data_PCOD9531611
_publ_section_title
;
Structure prediction by ZEFSAII (Michael W. Deem and Ramdas Pophale) SiO2 
 PCOD9531611
Probable space group: I B C A 
;
_chemical_formula_sum "Si O2"
_cell_formula_units_Z 72
_cell_length_a 14.384732
_cell_length_b 10.293378
_cell_length_c 20.423693
_cell_angle_alpha 90.000000
_cell_angle_beta 90.000000
_cell_angle_gamma 90.000000
_cell_volume 3024.084835
_symmetry_space_group_name_H-M "I B C A "
_symmetry_group_IT_number 73
_symmetry_cell_setting 'orthorhombic'
loop_
_space_group_symop_operation_xyz
x,y,z
-x,1/2-y,z
x,-y,1/2-z
1/2-x,y,-z
-x,-y,-z
x,1/2+y,-z
-x,y,1/2+z
1/2+x,-y,z
1/2+x,1/2+y,1/2+z
1/2-x,-y,1/2+z
1/2+x,1/2-y,-z
-x,1/2+y,1/2-z
1/2-x,1/2-y,1/2-z
1/2+x,y,1/2-z
1/2-x,1/2+y,z
x,1/2-y,1/2+z
loop_
_atom_site_type_symbol
_atom_site_label
_atom_site_fract_x
_atom_site_fract_y
_atom_site_fract_z
Si Si1 0.106278 0.398797 0.944031
Si Si2 0.641191 0.934325 0.679284
Si Si3 0.837450 0.617140 0.199709
Si Si4 0.118095 0.897505 0.552608
Si Si5 0.000000 0.250000 0.220235
O O1 0.127390 0.433200 0.869542
O O2 0.145590 0.252948 0.955225
O O3 0.994496 0.394291 0.948476
O O4 0.143866 0.504926 0.994352
O O5 0.731409 0.840280 0.684302
O O6 0.545544 0.856507 0.673148
O O7 0.631579 0.000000 0.750000
O O8 0.650446 0.038607 0.621269
O O9 0.827646 0.500000 0.250000
O O10 0.916120 0.706959 0.231815
#
# Coordination Sequence:
#
# PCOD9531611 Si02
#       5
#    16  16  16  16   8
#     4  10  21  41  66  95 131 177 224 275 334 400
#     4  11  24  41  64  97 132 174 226 281 340 409
#     4  11  24  41  65  97 133 177 225 280 344 410
#     4  10  22  41  66  95 133 176 224 277 335 402
#     4  12  22  40  66  94 130 174 226 284 342 406
#
# _framework density 23.808855000000001
#
# number of rings (size 3 to 8) (size 9 to 14) (size 15 to 20)
#    0.000    1.333    0.000    6.667    0.000    8.000 
#    0.000    2.222    0.000    0.000    0.000    0.000 
#    0.000    0.000    0.000    0.000    0.000    0.000 
#
# Total GULP energy -201319.344188 kJ/mol
# GULP energy per Si atom -5592.204005 kJ/mol
# Density = 2.375466 g / cm^3
# Si number density = 23.808855 Si / 1000 Ang^3
#
#
#
# Elastic Constant Matrix: (Units=GPa)
#
#
# Indices 1 2 3 4 5 6 
#
# 1 111.5666 46.3189 -5.0196 0.0000 0.0000 0.0000
# 2 46.3189 121.0335 74.9343 0.0000 0.0000 0.0000
# 3 -5.0196 74.9343 119.0300 0.0000 0.0000 0.0000
# 4 0.0000 0.0000 0.0000 35.1379 0.0000 0.0000
# 5 0.0000 0.0000 0.0000 0.0000 83.3007 0.0000
# 6 0.0000 0.0000 0.0000 0.0000 0.0000 34.9870
#
#
#
# Elastic Compliance Matrix: (Units=1/GPa)
#
#
# Indices 1 2 3 4 5 6 
#
# 1 0.012786 -0.008566 0.005932 0.000000 0.000000 0.000000
# 2 -0.008566 0.019277 -0.012497 0.000000 0.000000 0.000000
# 3 0.005932 -0.012497 0.016519 0.000000 0.000000 0.000000
# 4 0.000000 0.000000 0.000000 0.028459 0.000000 0.000000
# 5 0.000000 0.000000 0.000000 0.000000 0.012005 0.000000
# 6 0.000000 0.000000 0.000000 0.000000 0.000000 0.028582
#
#
# Mechanical properties :
#
#
# Convention : Reuss Voigt Hill
#
# Bulk Modulus (GPa) = 54.58434 64.89970 59.74202
# Shear Modulus (GPa) = 32.46797 46.37821 39.42309
#
# Velocity S-wave (km/s) = 3.69683 4.41833 4.07359
# Velocity P-wave (km/s) = 6.41856 7.30388 6.87549
#
# Compressibility (1/GPa) = 0.01832027
#
# Stress axis : x y z
#
# Youngs Moduli (GPa) = 78.20859 51.87400 60.53676
#
# Poissons Ratio (x) = 0.44434 -0.35908
# Poissons Ratio (y) = 0.66991 0.75654
# Poissons Ratio (z) = -0.46391 0.64828
#
# Static dielectric constant tensor:
#      x y z
#    x 1.980640 0.000000 0.000000 
#    y 0.000000 1.956000 0.000000 
#    z 0.000000 0.000000 1.833560 
# 
# From -- ./inp_files/25853.got.cif
#   From: 2010.05.17/outbox.cif.g08.bks.cpg/sg73_13_cif.got.tgz:25853.got - 2010.06.03 17:35:07.
