data_PCOD9531566
_publ_section_title
;
Structure prediction by ZEFSAII (Michael W. Deem and Ramdas Pophale) SiO2 
 PCOD9531566
Probable space group: I B C A 
;
_chemical_formula_sum "Si O2"
_cell_formula_units_Z 72
_cell_length_a 16.782487
_cell_length_b 8.497949
_cell_length_c 19.843009
_cell_angle_alpha 90.000000
_cell_angle_beta 90.000000
_cell_angle_gamma 90.000000
_cell_volume 2829.944831
_symmetry_space_group_name_H-M "I B C A "
_symmetry_group_IT_number 73
_symmetry_cell_setting 'orthorhombic'
loop_
_space_group_symop_operation_xyz
x,y,z
-x,1/2-y,z
x,-y,1/2-z
1/2-x,y,-z
-x,-y,-z
x,1/2+y,-z
-x,y,1/2+z
1/2+x,-y,z
1/2+x,1/2+y,1/2+z
1/2-x,-y,1/2+z
1/2+x,1/2-y,-z
-x,1/2+y,1/2-z
1/2-x,1/2-y,1/2-z
1/2+x,y,1/2-z
1/2-x,1/2+y,z
x,1/2-y,1/2+z
loop_
_atom_site_type_symbol
_atom_site_label
_atom_site_fract_x
_atom_site_fract_y
_atom_site_fract_z
Si Si1 0.486606 0.562266 0.325276
Si Si2 0.643692 0.459095 0.405602
Si Si3 0.061357 0.108118 0.462115
Si Si4 0.715089 0.255356 0.152138
Si Si5 0.297986 0.000000 0.750000
O O1 0.500000 0.750000 0.317805
O O2 0.471073 0.500000 0.250000
O O3 0.566501 0.472475 0.355552
O O4 0.425492 0.534459 0.388516
O O5 0.628771 0.392441 0.481045
O O6 0.669576 0.645220 0.405465
O O7 0.711180 0.343608 0.376360
O O8 0.000000 0.250000 0.450635
O O9 0.000000 0.000000 0.500000
O O10 0.667541 0.139917 0.203106
O O11 0.746056 0.394680 0.199670
#
# Coordination Sequence:
#
# PCOD9531566 Si02
#       5
#    16  16  16  16   8
#     4  10  23  43  71 105 136 185 248 302 364 426
#     4  10  21  40  70 107 150 183 231 293 359 451
#     4   9  20  43  73  95 135 191 238 294 358 412
#     4   9  18  34  63 105 146 189 232 278 376 431
#     4   8  16  30  54  90 146 194 222 276 346 430
#
# _framework density 25.442191999999999
#
# number of rings (size 3 to 8) (size 9 to 14) (size 15 to 20)
#    0.000    2.667    0.000    0.000    9.333    3.556 
#    2.000   17.778    0.000   36.000    0.000    4.667 
#    0.000    0.000    0.000    0.000    0.000    0.000 
#
# Total GULP energy -200431.583796 kJ/mol
# GULP energy per Si atom -5567.543994 kJ/mol
# Density = 2.538428 g / cm^3
# Si number density = 25.442192 Si / 1000 Ang^3
#
#
#
# Elastic Constant Matrix: (Units=GPa)
#
#
# Indices 1 2 3 4 5 6 
#
# 1 70.8845 35.2036 76.0789 0.0000 0.0000 0.0000
# 2 35.2036 116.7771 77.8709 0.0000 0.0000 0.0000
# 3 76.0789 77.8709 255.2252 0.0000 0.0000 0.0000
# 4 0.0000 0.0000 0.0000 30.7406 0.0000 0.0000
# 5 0.0000 0.0000 0.0000 0.0000 22.2998 0.0000
# 6 0.0000 0.0000 0.0000 0.0000 0.0000 37.2480
#
#
#
# Elastic Compliance Matrix: (Units=1/GPa)
#
#
# Indices 1 2 3 4 5 6 
#
# 1 0.021431 -0.002763 -0.005545 0.000000 0.000000 0.000000
# 2 -0.002763 0.011107 -0.002565 0.000000 0.000000 0.000000
# 3 -0.005545 -0.002565 0.006354 0.000000 0.000000 0.000000
# 4 0.000000 0.000000 0.000000 0.032530 0.000000 0.000000
# 5 0.000000 0.000000 0.000000 0.000000 0.044843 0.000000
# 6 0.000000 0.000000 0.000000 0.000000 0.000000 0.026847
#
#
# Mechanical properties :
#
#
# Convention : Reuss Voigt Hill
#
# Bulk Modulus (GPa) = 58.32597 91.24375 74.78486
# Shear Modulus (GPa) = 29.31270 34.97324 32.14297
#
# Velocity S-wave (km/s) = 3.39799 3.71160 3.55825
# Velocity P-wave (km/s) = 6.19433 7.36947 6.80730
#
# Compressibility (1/GPa) = 0.01714502
#
# Stress axis : x y z
#
# Youngs Moduli (GPa) = 46.66066 90.03532 157.38682
#
# Poissons Ratio (x) = 0.24875 0.87278
# Poissons Ratio (y) = 0.12891 0.40373
# Poissons Ratio (z) = 0.25875 0.23096
#
# Static dielectric constant tensor:
#      x y z
#    x 2.138930 0.000000 0.000000 
#    y 0.000000 2.071110 0.000000 
#    z 0.000000 0.000000 2.265010 
# 
# From -- ./inp_files/26337.got.cif
#   From: 2010.05.17/outbox.cif.g08.bks.cpg/sg73_14_cif.got.tgz:26337.got - 2010.06.03 17:35:07.
