data_PCOD9531937
_publ_section_title
;
Structure prediction by ZEFSAII (Michael W. Deem and Ramdas Pophale) SiO2 
 PCOD9531937
Probable space group: I B C A 
;
_chemical_formula_sum "Si O2"
_cell_formula_units_Z 112
_cell_length_a 12.155226
_cell_length_b 26.146803
_cell_length_c 15.533138
_cell_angle_alpha 90.000000
_cell_angle_beta 90.000000
_cell_angle_gamma 90.000000
_cell_volume 4936.746574
_symmetry_space_group_name_H-M "I B C A "
_symmetry_group_IT_number 73
_symmetry_cell_setting 'orthorhombic'
loop_
_space_group_symop_operation_xyz
x,y,z
-x,1/2-y,z
x,-y,1/2-z
1/2-x,y,-z
-x,-y,-z
x,1/2+y,-z
-x,y,1/2+z
1/2+x,-y,z
1/2+x,1/2+y,1/2+z
1/2-x,-y,1/2+z
1/2+x,1/2-y,-z
-x,1/2+y,1/2-z
1/2-x,1/2-y,1/2-z
1/2+x,y,1/2-z
1/2-x,1/2+y,z
x,1/2-y,1/2+z
loop_
_atom_site_type_symbol
_atom_site_label
_atom_site_fract_x
_atom_site_fract_y
_atom_site_fract_z
Si Si1 0.261890 0.675722 0.696224
Si Si2 0.995502 0.949087 0.810754
Si Si3 0.863241 0.762865 0.455061
Si Si4 0.054570 0.194523 0.386296
Si Si5 0.727557 0.539667 0.602320
Si Si6 0.285621 0.931123 0.097859
Si Si7 0.894805 0.620322 0.674730
O O1 0.325506 0.716676 0.637195
O O2 0.134540 0.689907 0.694942
O O3 0.266814 0.620158 0.650424
O O4 0.318108 0.664966 0.786578
O O5 0.884585 0.937827 0.861633
O O6 0.090489 0.950130 0.883546
O O7 0.027025 0.902410 0.748436
O O8 0.994708 0.000000 0.750000
O O9 0.750000 0.734161 0.500000
O O10 0.873061 0.806428 0.527692
O O11 0.000000 0.750000 0.446837
O O12 0.000000 0.250000 0.381236
O O13 0.969629 0.148704 0.393683
O O14 0.750000 0.539640 0.500000
O O15 0.719992 0.480522 0.631710
O O16 0.824266 0.572933 0.642848
O O17 0.250000 0.923782 0.000000
#
# Coordination Sequence:
#
# PCOD9531937 Si02
#       7
#    16  16  16  16  16  16  16
#     4  10  22  39  65  95 127 171 221 272 336 402
#     4  11  24  42  66  93 132 175 216 274 327 392
#     4   9  19  40  66  96 125 172 226 278 340 401
#     4  10  22  41  64  92 127 171 222 274 336 398
#     4  11  26  42  63  97 135 173 222 268 330 399
#     4  10  22  40  65  94 127 168 220 262 325 398
#     4  11  24  42  64  97 129 174 218 273 340 388
#
# _framework density 22.687007000000001
#
# number of rings (size 3 to 8) (size 9 to 14) (size 15 to 20)
#    0.000    1.714    1.429    2.143    6.000    6.857 
#    0.000   17.143    0.000    0.000    0.000    0.000 
#    0.000    0.000    0.000    0.000    0.000    0.000 
#
# Total GULP energy -311942.252369 kJ/mol
# GULP energy per Si atom -5570.397364 kJ/mol
# Density = 2.263537 g / cm^3
# Si number density = 22.687007 Si / 1000 Ang^3
#
#
#
# Elastic Constant Matrix: (Units=GPa)
#
#
# Indices 1 2 3 4 5 6 
#
# 1 112.1336 28.6279 30.0911 0.0000 0.0000 0.0002
# 2 28.6279 56.1084 8.1876 0.0001 0.0000 0.0002
# 3 30.0911 8.1876 43.5765 0.0001 0.0002 0.0008
# 4 0.0000 0.0001 0.0001 55.6703 -0.0001 -0.0002
# 5 0.0000 0.0000 0.0002 -0.0001 -6.2074 -0.0003
# 6 0.0002 0.0002 0.0008 -0.0002 -0.0003 -8.8279
#
#
#
# Elastic Compliance Matrix: (Units=1/GPa)
#
#
# Indices 1 2 3 4 5 6 
#
# 1 0.012243 -0.005154 -0.007486 0.000000 0.000000 -0.000001
# 2 -0.005154 0.020495 -0.000292 0.000000 0.000000 0.000000
# 3 -0.007486 -0.000292 0.028172 0.000000 0.000001 0.000002
# 4 0.000000 0.000000 0.000000 0.017963 0.000000 0.000000
# 5 0.000000 0.000000 0.000001 0.000000 -0.161099 0.000006
# 6 -0.000001 0.000000 0.000002 0.000000 0.000006 -0.113277
#
#
# Mechanical properties :
#
#
# Convention : Reuss Voigt Hill
#
# Bulk Modulus (GPa) = 28.53325 38.40353 33.46839
# Shear Modulus (GPa) = -31.65393 17.78779 -6.93307
#
# Velocity S-wave (km/s) = -3.73935 2.80313 -1.75003
# Velocity P-wave (km/s) = 2.45753 5.23842 3.27121
#
# Compressibility (1/GPa) = 0.03504683
#
# Stress axis : x y z
#
# Youngs Moduli (GPa) = 81.68239 48.79249 35.49624
#
# Poissons Ratio (x) = 0.25148 0.26571
# Poissons Ratio (y) = 0.42100 0.01035
# Poissons Ratio (z) = 0.61143 0.01423
#
# Static dielectric constant tensor:
#      x y z
#    x 1.994030 0.000000 0.000000 
#    y 0.000000 1.863180 0.000000 
#    z 0.000000 0.000000 1.865870 
# 
# From -- ./inp_files/16321.got.cif
#   From: 2010.05.17/outbox.cif.g08.bks.cpg/sg73_9_cif.got.tgz:16321.got - 2010.06.03 17:35:07.
