data_PCOD9531228
_publ_section_title
;
Structure prediction by ZEFSAII (Michael W. Deem and Ramdas Pophale) SiO2 
 PCOD9531228
Probable space group: I B C A 
;
_chemical_formula_sum "Si O2"
_cell_formula_units_Z 96
_cell_length_a 29.623241
_cell_length_b 18.197271
_cell_length_c 8.536960
_cell_angle_alpha 90.000000
_cell_angle_beta 90.000000
_cell_angle_gamma 90.000000
_cell_volume 4601.951964
_symmetry_space_group_name_H-M "I B C A "
_symmetry_group_IT_number 73
_symmetry_cell_setting 'orthorhombic'
loop_
_space_group_symop_operation_xyz
x,y,z
-x,1/2-y,z
x,-y,1/2-z
1/2-x,y,-z
-x,-y,-z
x,1/2+y,-z
-x,y,1/2+z
1/2+x,-y,z
1/2+x,1/2+y,1/2+z
1/2-x,-y,1/2+z
1/2+x,1/2-y,-z
-x,1/2+y,1/2-z
1/2-x,1/2-y,1/2-z
1/2+x,y,1/2-z
1/2-x,1/2+y,z
x,1/2-y,1/2+z
loop_
_atom_site_type_symbol
_atom_site_label
_atom_site_fract_x
_atom_site_fract_y
_atom_site_fract_z
Si Si1 0.953287 0.933259 0.980934
Si Si2 0.373485 0.202499 0.681162
Si Si3 0.213595 0.948959 0.387754
Si Si4 0.230614 0.823925 0.171074
Si Si5 0.545257 0.099454 0.108856
Si Si6 0.132999 0.854342 0.527152
O O1 0.954198 0.917756 0.794517
O O2 0.907932 0.907410 0.062159
O O3 0.950907 0.022263 0.986623
O O4 0.993706 0.885608 0.058024
O O5 0.323485 0.171839 0.647674
O O6 0.414498 0.159622 0.592254
O O7 0.379372 0.187265 0.864894
O O8 0.366569 0.288746 0.650140
O O9 0.250000 0.987928 0.500000
O O10 0.241722 0.888321 0.291519
O O11 0.176241 0.904208 0.485713
O O12 0.193219 0.000000 0.250000
O O13 0.250000 0.750000 0.250000
O O14 0.250000 0.830484 0.000000
#
# Coordination Sequence:
#
# PCOD9531228 Si02
#       6
#    16  16  16  16  16  16
#     4   9  19  36  59  83 113 161 195 261 304 379
#     4  10  21  36  57  89 115 163 202 255 303 380
#     4  11  24  41  62  89 123 161 208 262 318 384
#     4  11  21  37  62  88 123 167 204 253 310 377
#     4   9  19  36  58  82 115 153 212 243 320 367
#     4  10  22  37  62  85 122 159 203 255 314 375
#
# _framework density 20.860713000000001
#
# number of rings (size 3 to 8) (size 9 to 14) (size 15 to 20)
#    0.000    2.000    0.000    4.000    7.000    2.000 
#    0.000    3.333    3.667    0.000    0.000    0.000 
#    0.000    0.000    0.000    0.000    0.000    0.000 
#
# Total GULP energy -267206.024216 kJ/mol
# GULP energy per Si atom -5566.792171 kJ/mol
# Density = 2.081323 g / cm^3
# Si number density = 20.860713 Si / 1000 Ang^3
#
#
#
# Elastic Constant Matrix: (Units=GPa)
#
#
# Indices 1 2 3 4 5 6 
#
# 1 94.5260 29.8440 33.4238 0.0000 0.0000 0.0000
# 2 29.8440 58.9756 -3.5644 0.0000 0.0000 0.0000
# 3 33.4238 -3.5644 -9.1474 0.0000 0.0000 0.0000
# 4 0.0000 0.0000 0.0000 36.2000 0.0000 0.0000
# 5 0.0000 0.0000 0.0000 0.0000 24.0160 0.0000
# 6 0.0000 0.0000 0.0000 0.0000 0.0000 34.2662
#
#
#
# Elastic Compliance Matrix: (Units=1/GPa)
#
#
# Indices 1 2 3 4 5 6 
#
# 1 0.004718 -0.001315 0.017750 0.000000 0.000000 0.000000
# 2 -0.001315 0.016932 -0.011401 0.000000 0.000000 0.000000
# 3 0.017750 -0.011401 -0.040020 0.000000 0.000000 0.000000
# 4 0.000000 0.000000 0.000000 0.027624 0.000000 0.000000
# 5 0.000000 0.000000 0.000000 0.000000 0.041639 0.000000
# 6 0.000000 0.000000 0.000000 0.000000 0.000000 0.029183
#
#
# Mechanical properties :
#
#
# Convention : Reuss Voigt Hill
#
# Bulk Modulus (GPa) = -120.47395 29.30677 -45.58359
# Shear Modulus (GPa) = 74.36030 24.53985 49.45008
#
# Velocity S-wave (km/s) = 5.97691 3.43354 4.87405
# Velocity P-wave (km/s) = 3.20088 5.45878 3.12670
#
# Compressibility (1/GPa) = -0.00830055
#
# Stress axis : x y z
#
# Youngs Moduli (GPa) = 211.96726 59.05871 -24.98752
#
# Poissons Ratio (x) = 0.07764 0.44354
# Poissons Ratio (y) = 0.27864 -0.28489
# Poissons Ratio (z) = -3.76250 0.67334
#
# Static dielectric constant tensor:
#      x y z
#    x 1.825940 0.000000 0.000000 
#    y 0.000000 1.833890 0.000000 
#    z 0.000000 0.000000 1.789170 
# 
# From -- ./inp_files/7803.got.cif
#   From: 2010.05.17/outbox.cif.g08.bks.cpg/sg73_4_cif.got.tgz:7803.got - 2010.06.03 17:35:07.
