data_PCOD9531913
_publ_section_title
;
Structure prediction by ZEFSAII (Michael W. Deem and Ramdas Pophale) SiO2 
 PCOD9531913
Probable space group: I B C A 
;
_chemical_formula_sum "Si O2"
_cell_formula_units_Z 112
_cell_length_a 5.639349
_cell_length_b 30.212280
_cell_length_c 30.745725
_cell_angle_alpha 90.000000
_cell_angle_beta 90.000000
_cell_angle_gamma 90.000000
_cell_volume 5238.382559
_symmetry_space_group_name_H-M "I B C A "
_symmetry_group_IT_number 73
_symmetry_cell_setting 'orthorhombic'
loop_
_space_group_symop_operation_xyz
x,y,z
-x,1/2-y,z
x,-y,1/2-z
1/2-x,y,-z
-x,-y,-z
x,1/2+y,-z
-x,y,1/2+z
1/2+x,-y,z
1/2+x,1/2+y,1/2+z
1/2-x,-y,1/2+z
1/2+x,1/2-y,-z
-x,1/2+y,1/2-z
1/2-x,1/2-y,1/2-z
1/2+x,y,1/2-z
1/2-x,1/2+y,z
x,1/2-y,1/2+z
loop_
_atom_site_type_symbol
_atom_site_label
_atom_site_fract_x
_atom_site_fract_y
_atom_site_fract_z
Si Si1 0.940372 0.307217 0.076184
Si Si2 0.365416 0.293476 0.706295
Si Si3 0.942797 0.617744 0.567631
Si Si4 0.719156 0.151229 0.146359
Si Si5 0.000000 0.250000 0.140231
Si Si6 0.035415 0.983741 0.549835
Si Si7 0.342077 0.120220 0.264744
Si Si8 0.750000 0.326351 0.500000
O O1 0.788192 0.351651 0.071231
O O2 0.120654 0.317065 0.116591
O O3 0.812431 0.266621 0.099500
O O4 0.068497 0.300174 0.030494
O O5 0.500000 0.250000 0.723847
O O6 0.541632 0.317572 0.672493
O O7 0.314405 0.331294 0.741790
O O8 0.144180 0.278032 0.677880
O O9 0.076964 0.619805 0.613760
O O10 0.903705 0.567993 0.552575
O O11 0.107168 0.642503 0.532874
O O12 0.863354 0.125798 0.183474
O O13 0.769908 0.991966 0.568849
O O14 0.000000 0.000000 0.500000
O O15 0.583728 0.099450 0.245879
#
# Coordination Sequence:
#
# PCOD9531913 Si02
#       8
#    16  16  16  16   8  16  16   8
#     4  11  23  39  59  82 121 168 232 274 329 384
#     4  11  22  38  57  84 126 171 222 277 339 380
#     4  11  23  41  68  88 128 172 209 270 342 401
#     4  10  22  39  57  87 123 172 217 265 325 401
#     4  12  22  40  58  86 120 176 224 294 330 378
#     4  10  23  39  64 101 132 159 198 261 327 418
#     4  10  23  38  57  87 125 165 217 270 323 391
#     4  10  24  40  58  86 108 168 222 276 316 400
#
# _framework density 21.380645000000001
#
# number of rings (size 3 to 8) (size 9 to 14) (size 15 to 20)
#    0.000    1.429    2.857    2.143   12.000    2.286 
#    5.143    0.000    0.000    0.000    0.000    0.000 
#    0.000   13.714    0.000    0.000    0.000    0.000 
#
# Total GULP energy -311949.136865 kJ/mol
# GULP energy per Si atom -5570.520301 kJ/mol
# Density = 2.133198 g / cm^3
# Si number density = 21.380645 Si / 1000 Ang^3
#
#
#
# Elastic Constant Matrix: (Units=GPa)
#
#
# Indices 1 2 3 4 5 6 
#
# 1 107.5120 26.4309 25.5344 0.0000 0.0000 0.0000
# 2 26.4309 81.1097 27.9069 0.0000 0.0000 0.0000
# 3 25.5344 27.9069 122.7325 0.0000 0.0000 0.0000
# 4 0.0000 0.0000 0.0000 16.1831 0.0000 0.0000
# 5 0.0000 0.0000 0.0000 0.0000 38.3984 0.0000
# 6 0.0000 0.0000 0.0000 0.0000 0.0000 40.8522
#
#
#
# Elastic Compliance Matrix: (Units=1/GPa)
#
#
# Indices 1 2 3 4 5 6 
#
# 1 0.010362 -0.002858 -0.001506 0.000000 0.000000 0.000000
# 2 -0.002858 0.014164 -0.002626 0.000000 0.000000 0.000000
# 3 -0.001506 -0.002626 0.009058 0.000000 0.000000 0.000000
# 4 0.000000 0.000000 0.000000 0.061793 0.000000 0.000000
# 5 0.000000 0.000000 0.000000 0.000000 0.026043 0.000000
# 6 0.000000 0.000000 0.000000 0.000000 0.000000 0.024479
#
#
# Mechanical properties :
#
#
# Convention : Reuss Voigt Hill
#
# Bulk Modulus (GPa) = 51.01129 52.34429 51.67779
# Shear Modulus (GPa) = 30.04579 34.51886 32.28233
#
# Velocity S-wave (km/s) = 3.75277 4.02243 3.88994
# Velocity P-wave (km/s) = 6.53362 6.79033 6.66321
#
# Compressibility (1/GPa) = 0.01960350
#
# Stress axis : x y z
#
# Youngs Moduli (GPa) = 96.50992 70.60190 110.39775
#
# Poissons Ratio (x) = 0.20181 0.16623
# Poissons Ratio (y) = 0.27587 0.28989
# Poissons Ratio (z) = 0.14532 0.18539
#
# Static dielectric constant tensor:
#      x y z
#    x 1.908680 0.000000 0.000000 
#    y 0.000000 1.584560 0.000000 
#    z 0.000000 0.000000 1.519830 
# 
# From -- ./inp_files/33373.got.cif
#   From: 2010.05.17/outbox.cif.g08.bks.cpg/sg73_17_cif.got.tgz:33373.got - 2010.06.03 17:35:07.
