data_PCOD9531646
_publ_section_title
;
Structure prediction by ZEFSAII (Michael W. Deem and Ramdas Pophale) SiO2 
 PCOD9531646
Probable space group: I B C A 
;
_chemical_formula_sum "Si O2"
_cell_formula_units_Z 120
_cell_length_a 22.781219
_cell_length_b 8.709943
_cell_length_c 28.619475
_cell_angle_alpha 90.000000
_cell_angle_beta 90.000000
_cell_angle_gamma 90.000000
_cell_volume 5678.765493
_symmetry_space_group_name_H-M "I B C A "
_symmetry_group_IT_number 73
_symmetry_cell_setting 'orthorhombic'
loop_
_space_group_symop_operation_xyz
x,y,z
-x,1/2-y,z
x,-y,1/2-z
1/2-x,y,-z
-x,-y,-z
x,1/2+y,-z
-x,y,1/2+z
1/2+x,-y,z
1/2+x,1/2+y,1/2+z
1/2-x,-y,1/2+z
1/2+x,1/2-y,-z
-x,1/2+y,1/2-z
1/2-x,1/2-y,1/2-z
1/2+x,y,1/2-z
1/2-x,1/2+y,z
x,1/2-y,1/2+z
loop_
_atom_site_type_symbol
_atom_site_label
_atom_site_fract_x
_atom_site_fract_y
_atom_site_fract_z
Si Si1 0.895831 0.204526 0.358501
Si Si2 0.830619 0.172760 0.588629
Si Si3 0.434434 0.955580 0.924780
Si Si4 0.356507 0.895532 0.007941
Si Si5 0.802087 0.682552 0.563291
Si Si6 0.609757 0.842156 0.658873
Si Si7 0.065708 0.814647 0.743851
Si Si8 0.000000 0.250000 0.598871
O O1 0.939158 0.304763 0.391891
O O2 0.835140 0.212554 0.387847
O O3 0.906614 0.249829 0.304354
O O4 0.901580 0.021010 0.351314
O O5 0.862376 0.268149 0.547507
O O6 0.764999 0.141483 0.572604
O O7 0.832006 0.283013 0.633373
O O8 0.874117 0.031737 0.595829
O O9 0.485119 0.085499 0.925328
O O10 0.415209 0.913779 0.977441
O O11 0.334860 0.046872 0.034713
O O12 0.309497 0.829032 0.970700
O O13 0.606375 0.783122 0.711517
O O14 0.555480 0.767774 0.632132
O O15 0.000000 0.750000 0.748268
O O16 0.060084 0.000000 0.750000
#
# Coordination Sequence:
#
# PCOD9531646 Si02
#       8
#    16  16  16  16  16  16  16   8
#     4  10  23  38  63  97 131 158 213 266 318 379
#     4  11  23  37  63  90 132 168 215 262 317 374
#     4  10  24  39  59  93 128 171 217 265 316 378
#     4  11  22  38  62  91 125 169 221 259 305 379
#     4  11  24  38  63  95 128 170 213 265 320 370
#     4  10  21  42  64  95 127 165 207 267 317 383
#     4  10  22  39  69  96 121 165 212 260 318 381
#     4  10  22  42  62  88 130 168 210 266 330 372
#
# _framework density 21.131354000000002
#
# number of rings (size 3 to 8) (size 9 to 14) (size 15 to 20)
#    0.000    1.600    3.333    0.400    9.333    0.000 
#    0.000    3.333    1.467    1.600    0.000    0.000 
#    0.000    0.000    0.000    0.000    0.000    0.000 
#
# Total GULP energy -334270.596344 kJ/mol
# GULP energy per Si atom -5571.176606 kJ/mol
# Density = 2.108326 g / cm^3
# Si number density = 21.131354 Si / 1000 Ang^3
#
#
#
# Elastic Constant Matrix: (Units=GPa)
#
#
# Indices 1 2 3 4 5 6 
#
# 1 22.3415 14.0153 34.5973 0.0000 0.0000 0.0000
# 2 14.0153 59.1928 36.8187 0.0000 0.0000 0.0000
# 3 34.5973 36.8187 151.3716 0.0000 0.0000 0.0000
# 4 0.0000 0.0000 0.0000 24.3739 0.0000 0.0000
# 5 0.0000 0.0000 0.0000 0.0000 31.9897 0.0000
# 6 0.0000 0.0000 0.0000 0.0000 0.0000 24.8879
#
#
#
# Elastic Compliance Matrix: (Units=1/GPa)
#
#
# Indices 1 2 3 4 5 6 
#
# 1 0.072413 -0.008072 -0.014587 0.000000 0.000000 0.000000
# 2 -0.008072 0.020805 -0.003216 0.000000 0.000000 0.000000
# 3 -0.014587 -0.003216 0.010722 0.000000 0.000000 0.000000
# 4 0.000000 0.000000 0.000000 0.041028 0.000000 0.000000
# 5 0.000000 0.000000 0.000000 0.000000 0.031260 0.000000
# 6 0.000000 0.000000 0.000000 0.000000 0.000000 0.040180
#
#
# Mechanical properties :
#
#
# Convention : Reuss Voigt Hill
#
# Bulk Modulus (GPa) = 19.16050 44.86318 32.01184
# Shear Modulus (GPa) = 17.50979 26.08194 21.79586
#
# Velocity S-wave (km/s) = 2.88169 3.51704 3.21510
# Velocity P-wave (km/s) = 4.48990 6.14569 5.38185
#
# Compressibility (1/GPa) = 0.05219070
#
# Stress axis : x y z
#
# Youngs Moduli (GPa) = 13.80977 48.06454 93.26253
#
# Poissons Ratio (x) = 0.38798 1.36043
# Poissons Ratio (y) = 0.11147 0.29990
# Poissons Ratio (z) = 0.20144 0.15456
#
# Static dielectric constant tensor:
#      x y z
#    x 1.784720 0.000000 0.000000 
#    y 0.000000 1.899340 0.000000 
#    z 0.000000 0.000000 1.813120 
# 
# From -- ./inp_files/34798.got.cif
#   From: 2010.05.17/outbox.cif.g08.bks.cpg/sg73_18_cif.got.tgz:34798.got - 2010.06.03 17:35:07.
