data_PCOD9531489
_publ_section_title
;
Structure prediction by ZEFSAII (Michael W. Deem and Ramdas Pophale) SiO2 
 PCOD9531489
Probable space group: I B C A 
;
_chemical_formula_sum "Si O2"
_cell_formula_units_Z 48
_cell_length_a 18.886582
_cell_length_b 5.369855
_cell_length_c 19.032033
_cell_angle_alpha 90.000000
_cell_angle_beta 90.000000
_cell_angle_gamma 90.000000
_cell_volume 1930.194658
_symmetry_space_group_name_H-M "I B C A "
_symmetry_group_IT_number 73
_symmetry_cell_setting 'orthorhombic'
loop_
_space_group_symop_operation_xyz
x,y,z
-x,1/2-y,z
x,-y,1/2-z
1/2-x,y,-z
-x,-y,-z
x,1/2+y,-z
-x,y,1/2+z
1/2+x,-y,z
1/2+x,1/2+y,1/2+z
1/2-x,-y,1/2+z
1/2+x,1/2-y,-z
-x,1/2+y,1/2-z
1/2-x,1/2-y,1/2-z
1/2+x,y,1/2-z
1/2-x,1/2+y,z
x,1/2-y,1/2+z
loop_
_atom_site_type_symbol
_atom_site_label
_atom_site_fract_x
_atom_site_fract_y
_atom_site_fract_z
Si Si1 0.063691 0.074527 0.329044
Si Si2 0.724217 0.412828 0.670398
Si Si3 0.920978 0.076301 0.526894
O O1 0.000000 0.250000 0.353102
O O2 0.045353 0.000000 0.250000
O O3 0.143212 0.179676 0.324535
O O4 0.072153 0.870663 0.390217
O O5 0.746508 0.500000 0.750000
O O6 0.768005 0.187596 0.636591
O O7 0.886231 0.305609 0.486356
O O8 0.000000 0.000000 0.500000
#
# Coordination Sequence:
#
# PCOD9531489 Si02
#       3
#    16  16  16
#     4  11  24  37  66 105 129 159 222 284 307 367
#     4   9  20  40  60  86 128 173 203 250 329 388
#     4  10  21  40  59  86 127 178 197 247 328 398
#
# _framework density 24.867956
#
# number of rings (size 3 to 8) (size 9 to 14) (size 15 to 20)
#    0.000    2.000    3.333    0.000    4.667    9.333 
#    0.000    0.000    0.000    6.000    0.000    0.000 
#    0.000    0.000    0.000    0.000    0.000    0.000 
#
# Total GULP energy -133620.703927 kJ/mol
# GULP energy per Si atom -5567.529330 kJ/mol
# Density = 2.481135 g / cm^3
# Si number density = 24.867956 Si / 1000 Ang^3
#
#
#
# Elastic Constant Matrix: (Units=GPa)
#
#
# Indices 1 2 3 4 5 6 
#
# 1 120.0881 34.5537 -24.1049 0.0000 0.0000 0.0000
# 2 34.5537 180.0653 6.8309 0.0000 0.0000 0.0000
# 3 -24.1049 6.8309 132.7240 0.0000 0.0000 0.0000
# 4 0.0000 0.0000 0.0000 24.7574 0.0000 0.0000
# 5 0.0000 0.0000 0.0000 0.0000 5.6388 0.0000
# 6 0.0000 0.0000 0.0000 0.0000 0.0000 29.6824
#
#
#
# Elastic Compliance Matrix: (Units=1/GPa)
#
#
# Indices 1 2 3 4 5 6 
#
# 1 0.009210 -0.001834 0.001767 0.000000 0.000000 0.000000
# 2 -0.001834 0.005930 -0.000638 0.000000 0.000000 0.000000
# 3 0.001767 -0.000638 0.007888 0.000000 0.000000 0.000000
# 4 0.000000 0.000000 0.000000 0.040392 0.000000 0.000000
# 5 0.000000 0.000000 0.000000 0.000000 0.177344 0.000000
# 6 0.000000 0.000000 0.000000 0.000000 0.000000 0.033690
#
#
# Mechanical properties :
#
#
# Convention : Reuss Voigt Hill
#
# Bulk Modulus (GPa) = 46.26107 51.93741 49.09924
# Shear Modulus (GPa) = 17.66345 39.72222 28.69284
#
# Velocity S-wave (km/s) = 2.66802 4.00099 3.40046
# Velocity P-wave (km/s) = 5.30416 6.50189 5.93332
#
# Compressibility (1/GPa) = 0.02161645
#
# Stress axis : x y z
#
# Youngs Moduli (GPa) = 108.58090 168.64091 126.77145
#
# Poissons Ratio (x) = 0.30934 -0.22401
# Poissons Ratio (y) = 0.19917 0.08092
# Poissons Ratio (z) = -0.19187 0.10765
#
# Static dielectric constant tensor:
#      x y z
#    x 2.061790 0.000000 0.000000 
#    y 0.000000 2.302610 0.000000 
#    z 0.000000 0.000000 2.030570 
# 
# From -- ./inp_files/941.got.cif
#   From: 2010.05.17/outbox.cif.g08.bks.cpg/sg73_1_cif.got.tgz:941.got - 2010.06.03 17:35:07.
