data_PCOD9531551
_publ_section_title
;
Structure prediction by ZEFSAII (Michael W. Deem and Ramdas Pophale) SiO2 
 PCOD9531551
Probable space group: I B C A 
;
_chemical_formula_sum "Si O2"
_cell_formula_units_Z 96
_cell_length_a 21.864780
_cell_length_b 25.217722
_cell_length_c 7.691263
_cell_angle_alpha 90.000000
_cell_angle_beta 90.000000
_cell_angle_gamma 90.000000
_cell_volume 4240.808159
_symmetry_space_group_name_H-M "I B C A "
_symmetry_group_IT_number 73
_symmetry_cell_setting 'orthorhombic'
loop_
_space_group_symop_operation_xyz
x,y,z
-x,1/2-y,z
x,-y,1/2-z
1/2-x,y,-z
-x,-y,-z
x,1/2+y,-z
-x,y,1/2+z
1/2+x,-y,z
1/2+x,1/2+y,1/2+z
1/2-x,-y,1/2+z
1/2+x,1/2-y,-z
-x,1/2+y,1/2-z
1/2-x,1/2-y,1/2-z
1/2+x,y,1/2-z
1/2-x,1/2+y,z
x,1/2-y,1/2+z
loop_
_atom_site_type_symbol
_atom_site_label
_atom_site_fract_x
_atom_site_fract_y
_atom_site_fract_z
Si Si1 0.177555 0.449019 0.973571
Si Si2 0.680407 0.430355 0.939504
Si Si3 0.317684 0.719544 0.428351
Si Si4 0.871712 0.680247 0.429635
Si Si5 0.095008 0.358432 0.102376
Si Si6 0.012273 0.688063 0.698280
O O1 0.166555 0.511075 0.011836
O O2 0.170613 0.436819 0.768246
O O3 0.250000 0.437660 0.000000
O O4 0.130069 0.413925 0.083040
O O5 0.641549 0.379229 0.990143
O O6 0.750000 0.419523 0.000000
O O7 0.250000 0.725509 0.500000
O O8 0.351344 0.775697 0.434159
O O9 0.328257 0.692352 0.241063
O O10 0.351613 0.683383 0.568868
O O11 0.940285 0.689361 0.361214
O O12 0.050024 0.342266 0.256594
O O13 0.050336 0.346287 0.938954
O O14 0.000000 0.750000 0.655523
#
# Coordination Sequence:
#
# PCOD9531551 Si02
#       6
#    16  16  16  16  16  16
#     4  10  21  43  67  92 122 161 206 260 318 366
#     4  10  21  40  67  91 126 159 201 256 316 373
#     4  11  22  37  58  89 129 158 194 257 311 369
#     4  11  23  39  59  93 124 163 204 251 306 373
#     4  11  23  39  62  88 121 165 207 254 302 368
#     4  11  22  39  59  86 125 170 211 247 303 366
#
# _framework density 22.637194000000001
#
# number of rings (size 3 to 8) (size 9 to 14) (size 15 to 20)
#    0.000    1.333    5.000    2.000    2.333    0.000 
#    3.000    0.833    0.000    0.000    0.000    0.000 
#    0.000    0.000    0.000    0.000    0.000    0.000 
#
# Total GULP energy -268499.396759 kJ/mol
# GULP energy per Si atom -5593.737432 kJ/mol
# Density = 2.258567 g / cm^3
# Si number density = 22.637194 Si / 1000 Ang^3
#
#
#
# Elastic Constant Matrix: (Units=GPa)
#
#
# Indices 1 2 3 4 5 6 
#
# 1 132.7925 81.3662 6.9808 0.0000 0.0000 0.0000
# 2 81.3662 180.1366 19.9831 0.0000 0.0000 0.0000
# 3 6.9808 19.9831 45.0252 0.0000 0.0000 0.0000
# 4 0.0000 0.0000 0.0000 -56.5519 0.0000 0.0000
# 5 0.0000 0.0000 0.0000 0.0000 28.4034 0.0000
# 6 0.0000 0.0000 0.0000 0.0000 0.0000 62.6072
#
#
#
# Elastic Compliance Matrix: (Units=1/GPa)
#
#
# Indices 1 2 3 4 5 6 
#
# 1 0.010423 -0.004763 0.000498 0.000000 0.000000 0.000000
# 2 -0.004763 0.008016 -0.002819 0.000000 0.000000 0.000000
# 3 0.000498 -0.002819 0.023384 0.000000 0.000000 0.000000
# 4 0.000000 0.000000 0.000000 -0.017683 0.000000 0.000000
# 5 0.000000 0.000000 0.000000 0.000000 0.035207 0.000000
# 6 0.000000 0.000000 0.000000 0.000000 0.000000 0.015973
#
#
# Mechanical properties :
#
#
# Convention : Reuss Voigt Hill
#
# Bulk Modulus (GPa) = 36.16133 63.84608 50.00370
# Shear Modulus (GPa) = 50.65588 23.53336 37.09462
#
# Velocity S-wave (km/s) = 4.73559 3.22776 4.05243
# Velocity P-wave (km/s) = 6.77570 6.49281 6.63576
#
# Compressibility (1/GPa) = 0.02765385
#
# Stress axis : x y z
#
# Youngs Moduli (GPa) = 95.94233 124.75739 42.76484
#
# Poissons Ratio (x) = 0.59424 -0.02130
# Poissons Ratio (y) = 0.45699 0.12055
# Poissons Ratio (z) = -0.04778 0.35169
#
# Static dielectric constant tensor:
#      x y z
#    x 1.877930 0.000000 0.000000 
#    y 0.000000 1.829470 0.000000 
#    z 0.000000 0.000000 1.981120 
# 
# From -- ./inp_files/7262.got.cif
#   From: 2010.05.17/outbox.cif.g08.bks.cpg/sg73_4_cif.got.tgz:7262.got - 2010.06.03 17:35:07.
