data_PCOD9531067
_publ_section_title
;
Structure prediction by ZEFSAII (Michael W. Deem and Ramdas Pophale) SiO2 
 PCOD9531067
Probable space group: I B C A 
;
_chemical_formula_sum "Si O2"
_cell_formula_units_Z 72
_cell_length_a 20.498930
_cell_length_b 17.696312
_cell_length_c 9.094697
_cell_angle_alpha 90.000000
_cell_angle_beta 90.000000
_cell_angle_gamma 90.000000
_cell_volume 3299.151002
_symmetry_space_group_name_H-M "I B C A "
_symmetry_group_IT_number 73
_symmetry_cell_setting 'orthorhombic'
loop_
_space_group_symop_operation_xyz
x,y,z
-x,1/2-y,z
x,-y,1/2-z
1/2-x,y,-z
-x,-y,-z
x,1/2+y,-z
-x,y,1/2+z
1/2+x,-y,z
1/2+x,1/2+y,1/2+z
1/2-x,-y,1/2+z
1/2+x,1/2-y,-z
-x,1/2+y,1/2-z
1/2-x,1/2-y,1/2-z
1/2+x,y,1/2-z
1/2-x,1/2+y,z
x,1/2-y,1/2+z
loop_
_atom_site_type_symbol
_atom_site_label
_atom_site_fract_x
_atom_site_fract_y
_atom_site_fract_z
Si Si1 0.202746 0.842950 0.766781
Si Si2 0.642878 0.500000 0.250000
Si Si3 0.836810 0.304524 0.396156
Si Si4 0.486632 0.834862 0.892039
Si Si5 0.479896 0.064548 0.348842
O O1 0.174960 0.783066 0.648956
O O2 0.280393 0.841317 0.795553
O O3 0.183442 0.926307 0.717332
O O4 0.175736 0.819929 0.930239
O O5 0.591176 0.471875 0.372929
O O6 0.909149 0.333951 0.361587
O O7 0.500000 0.750000 0.943418
O O8 0.525852 0.859332 0.748078
O O9 0.506754 0.901099 0.003674
O O10 0.515017 0.000000 0.250000
#
# Coordination Sequence:
#
# PCOD9531067 Si02
#       5
#    16   8  16  16  16
#     4  10  21  42  67  89 125 163 209 265 320 370
#     4  10  20  42  62  88 124 174 192 260 328 374
#     4  10  22  41  64  92 121 162 216 263 307 382
#     4  12  23  39  63  96 123 173 215 259 309 381
#     4  10  23  39  60  86 130 164 204 262 315 369
#
# _framework density 21.823796000000002
#
# number of rings (size 3 to 8) (size 9 to 14) (size 15 to 20)
#    0.667    0.889    2.222    2.667    3.111    0.000 
#    2.000    8.889    0.000    0.000    0.000    0.000 
#    0.000    0.000    0.000    0.000    0.000    0.000 
#
# Total GULP energy -200509.820527 kJ/mol
# GULP energy per Si atom -5569.717237 kJ/mol
# Density = 2.177412 g / cm^3
# Si number density = 21.823796 Si / 1000 Ang^3
#
#
#
# Elastic Constant Matrix: (Units=GPa)
#
#
# Indices 1 2 3 4 5 6 
#
# 1 88.4992 53.8149 5.5213 0.0000 0.0000 0.0000
# 2 53.8149 155.5053 37.4339 0.0000 0.0000 0.0000
# 3 5.5213 37.4339 56.7360 0.0000 0.0000 0.0000
# 4 0.0000 0.0000 0.0000 25.6179 0.0000 0.0000
# 5 0.0000 0.0000 0.0000 0.0000 4.8859 0.0000
# 6 0.0000 0.0000 0.0000 0.0000 0.0000 33.3839
#
#
#
# Elastic Compliance Matrix: (Units=1/GPa)
#
#
# Indices 1 2 3 4 5 6 
#
# 1 0.014552 -0.005582 0.002267 0.000000 0.000000 0.000000
# 2 -0.005582 0.009786 -0.005913 0.000000 0.000000 0.000000
# 3 0.002267 -0.005913 0.021307 0.000000 0.000000 0.000000
# 4 0.000000 0.000000 0.000000 0.039035 0.000000 0.000000
# 5 0.000000 0.000000 0.000000 0.000000 0.204672 0.000000
# 6 0.000000 0.000000 0.000000 0.000000 0.000000 0.029955
#
#
# Mechanical properties :
#
#
# Convention : Reuss Voigt Hill
#
# Bulk Modulus (GPa) = 36.78150 54.92010 45.85080
# Shear Modulus (GPa) = 14.41646 26.37556 20.39601
#
# Velocity S-wave (km/s) = 2.57297 3.48022 3.06040
# Velocity P-wave (km/s) = 5.07123 6.43188 5.79165
#
# Compressibility (1/GPa) = 0.02718758
#
# Stress axis : x y z
#
# Youngs Moduli (GPa) = 68.71798 102.18939 46.93403
#
# Poissons Ratio (x) = 0.57038 -0.10638
# Poissons Ratio (y) = 0.38356 0.27754
# Poissons Ratio (z) = -0.15575 0.60428
#
# Static dielectric constant tensor:
#      x y z
#    x 1.848930 0.000000 0.000000 
#    y 0.000000 1.839140 0.000000 
#    z 0.000000 0.000000 1.809040 
# 
# From -- ./inp_files/6933.got.cif
#   From: 2010.05.17/outbox.cif.g08.bks.cpg/sg73_4_cif.got.tgz:6933.got - 2010.06.03 17:35:07.
