data_PCOD9531263
_publ_section_title
;
Structure prediction by ZEFSAII (Michael W. Deem and Ramdas Pophale) SiO2 
 PCOD9531263
Probable space group: I B C A 
;
_chemical_formula_sum "Si O2"
_cell_formula_units_Z 112
_cell_length_a 24.071191
_cell_length_b 15.532802
_cell_length_c 13.786889
_cell_angle_alpha 90.000000
_cell_angle_beta 90.000000
_cell_angle_gamma 90.000000
_cell_volume 5154.821891
_symmetry_space_group_name_H-M "I B C A "
_symmetry_group_IT_number 73
_symmetry_cell_setting 'orthorhombic'
loop_
_space_group_symop_operation_xyz
x,y,z
-x,1/2-y,z
x,-y,1/2-z
1/2-x,y,-z
-x,-y,-z
x,1/2+y,-z
-x,y,1/2+z
1/2+x,-y,z
1/2+x,1/2+y,1/2+z
1/2-x,-y,1/2+z
1/2+x,1/2-y,-z
-x,1/2+y,1/2-z
1/2-x,1/2-y,1/2-z
1/2+x,y,1/2-z
1/2-x,1/2+y,z
x,1/2-y,1/2+z
loop_
_atom_site_type_symbol
_atom_site_label
_atom_site_fract_x
_atom_site_fract_y
_atom_site_fract_z
Si Si1 0.217319 0.835089 0.649553
Si Si2 0.549599 0.685457 0.868945
Si Si3 0.071304 0.001153 0.132172
Si Si4 0.226386 0.651902 0.366058
Si Si5 0.198620 0.512078 0.865369
Si Si6 0.854309 0.743763 0.500617
Si Si7 0.950253 0.686305 0.362932
O O1 0.233506 0.733990 0.651774
O O2 0.198732 0.860975 0.758689
O O3 0.269048 0.897234 0.624017
O O4 0.174593 0.833480 0.560605
O O5 0.500000 0.750000 0.894238
O O6 0.540900 0.586253 0.896714
O O7 0.557043 0.690445 0.752970
O O8 0.605744 0.712629 0.921151
O O9 0.073797 0.000000 0.250000
O O10 0.135594 0.005216 0.095875
O O11 0.039362 0.088108 0.106741
O O12 0.260254 0.566282 0.392330
O O13 0.186512 0.687612 0.449851
O O14 0.192130 0.500000 0.750000
O O15 0.893470 0.711869 0.414405
O O16 0.000000 0.750000 0.388519
#
# Coordination Sequence:
#
# PCOD9531263 Si02
#       7
#    16  16  16  16  16  16  16
#     4  10  21  37  57  85 122 159 196 238 285 346
#     4  10  22  41  63  86 114 152 201 253 302 353
#     4   9  18  37  65  89 114 155 201 246 299 355
#     4  10  21  37  57  85 122 159 196 238 285 346
#     4   9  18  35  60  89 121 159 199 238 288 353
#     4  12  22  36  58  88 124 162 194 238 298 350
#     4  10  22  41  63  86 114 152 201 253 302 353
#
# _framework density 21.727229000000001
#
# number of rings (size 3 to 8) (size 9 to 14) (size 15 to 20)
#    0.000    2.000    0.000    3.429    0.000    5.714 
#    0.000    8.571    0.000    5.143    0.000    0.000 
#    0.000    0.000    0.000    0.000    0.000    0.000 
#
# Total GULP energy -312692.466495 kJ/mol
# GULP energy per Si atom -5583.794045 kJ/mol
# Density = 2.167778 g / cm^3
# Si number density = 21.727229 Si / 1000 Ang^3
#
#
#
# Elastic Constant Matrix: (Units=GPa)
#
#
# Indices 1 2 3 4 5 6 
#
# 1 85.8078 47.2302 44.2720 0.0000 0.0000 0.0000
# 2 47.2302 133.1196 23.9779 0.0000 0.0000 0.0000
# 3 44.2720 23.9779 117.2152 0.0000 0.0000 0.0000
# 4 0.0000 0.0000 0.0000 -5.2322 0.0000 0.0000
# 5 0.0000 0.0000 0.0000 0.0000 44.7228 0.0000
# 6 0.0000 0.0000 0.0000 0.0000 0.0000 33.5655
#
#
#
# Elastic Compliance Matrix: (Units=1/GPa)
#
#
# Indices 1 2 3 4 5 6 
#
# 1 0.017325 -0.005158 -0.005488 0.000000 0.000000 0.000000
# 2 -0.005158 0.009335 0.000039 0.000000 0.000000 0.000000
# 3 -0.005488 0.000039 0.010596 0.000000 0.000000 0.000000
# 4 0.000000 0.000000 0.000000 -0.191123 0.000000 0.000000
# 5 0.000000 0.000000 0.000000 0.000000 0.022360 0.000000
# 6 0.000000 0.000000 0.000000 0.000000 0.000000 0.029792
#
#
# Mechanical properties :
#
#
# Convention : Reuss Voigt Hill
#
# Bulk Modulus (GPa) = 62.34237 63.01141 62.67689
# Shear Modulus (GPa) = -66.53258 29.32206 -18.60526
#
# Velocity S-wave (km/s) = -5.53970 3.67761 -2.92945
# Velocity P-wave (km/s) = 3.48743 6.86274 4.17942
#
# Compressibility (1/GPa) = 0.01604046
#
# Stress axis : x y z
#
# Youngs Moduli (GPa) = 57.72072 107.12163 94.37189
#
# Poissons Ratio (x) = 0.55255 0.51795
# Poissons Ratio (y) = 0.29773 -0.00364
# Poissons Ratio (z) = 0.31679 -0.00414
#
# Static dielectric constant tensor:
#      x y z
#    x 1.778650 0.000000 0.000000 
#    y 0.000000 1.821550 0.000000 
#    z 0.000000 0.000000 1.839270 
# 
# From -- ./inp_files/17256.got.cif
#   From: 2010.05.17/outbox.cif.g08.bks.cpg/sg73_9_cif.got.tgz:17256.got - 2010.06.03 17:35:07.
