data_PCOD9531826
_publ_section_title
;
Structure prediction by ZEFSAII (Michael W. Deem and Ramdas Pophale) SiO2 
 PCOD9531826
Probable space group: I B C A 
;
_chemical_formula_sum "Si O2"
_cell_formula_units_Z 72
_cell_length_a 13.614512
_cell_length_b 11.999998
_cell_length_c 19.660261
_cell_angle_alpha 90.000000
_cell_angle_beta 90.000000
_cell_angle_gamma 90.000000
_cell_volume 3211.977776
_symmetry_space_group_name_H-M "I B C A "
_symmetry_group_IT_number 73
_symmetry_cell_setting 'orthorhombic'
loop_
_space_group_symop_operation_xyz
x,y,z
-x,1/2-y,z
x,-y,1/2-z
1/2-x,y,-z
-x,-y,-z
x,1/2+y,-z
-x,y,1/2+z
1/2+x,-y,z
1/2+x,1/2+y,1/2+z
1/2-x,-y,1/2+z
1/2+x,1/2-y,-z
-x,1/2+y,1/2-z
1/2-x,1/2-y,1/2-z
1/2+x,y,1/2-z
1/2-x,1/2+y,z
x,1/2-y,1/2+z
loop_
_atom_site_type_symbol
_atom_site_label
_atom_site_fract_x
_atom_site_fract_y
_atom_site_fract_z
Si Si1 0.657249 0.722168 0.404052
Si Si2 0.530664 0.571843 0.934876
Si Si3 0.390849 0.735771 0.756313
Si Si4 0.330489 0.597464 0.139490
Si Si5 0.810280 0.000000 0.250000
O O1 0.569472 0.630481 0.408169
O O2 0.611795 0.828205 0.443904
O O3 0.670392 0.760371 0.324713
O O4 0.762670 0.662594 0.416254
O O5 0.584406 0.481906 0.887429
O O6 0.500000 0.500000 0.000000
O O7 0.500000 0.750000 0.781094
O O8 0.373912 0.815404 0.693305
O O9 0.372865 0.609122 0.736851
O O10 0.255903 0.524435 0.184484
#
# Coordination Sequence:
#
# PCOD9531826 Si02
#       5
#    16  16  16  16   8
#     4  10  23  47  67 100 140 172 224 295 345 401
#     4  11  24  46  71  94 134 190 235 277 335 402
#     4  11  22  37  69 107 139 175 215 282 358 418
#     4  11  23  41  71 103 138 179 223 278 350 421
#     4  10  22  36  64 106 144 172 218 278 362 414
#
# _framework density 22.416096
#
# number of rings (size 3 to 8) (size 9 to 14) (size 15 to 20)
#    0.000    1.333    2.222    5.333    6.222    0.889 
#    4.000    4.444    0.000    0.000    0.000    0.000 
#    0.000    0.000    0.000    0.000    0.000    0.000 
#
# Total GULP energy -201028.426059 kJ/mol
# GULP energy per Si atom -5584.122946 kJ/mol
# Density = 2.236508 g / cm^3
# Si number density = 22.416096 Si / 1000 Ang^3
#
#
#
# Elastic Constant Matrix: (Units=GPa)
#
#
# Indices 1 2 3 4 5 6 
#
# 1 30.9556 29.6654 8.0886 0.0000 0.0000 0.0000
# 2 29.6654 169.6664 54.5313 0.0000 0.0000 0.0000
# 3 8.0886 54.5313 68.0173 0.0000 0.0000 0.0000
# 4 0.0000 0.0000 0.0000 39.9795 0.0000 0.0000
# 5 0.0000 0.0000 0.0000 0.0000 52.1152 0.0000
# 6 0.0000 0.0000 0.0000 0.0000 0.0000 39.1512
#
#
#
# Elastic Compliance Matrix: (Units=1/GPa)
#
#
# Indices 1 2 3 4 5 6 
#
# 1 0.038869 -0.007154 0.001113 0.000000 0.000000 0.000000
# 2 -0.007154 0.009257 -0.006570 0.000000 0.000000 0.000000
# 3 0.001113 -0.006570 0.019837 0.000000 0.000000 0.000000
# 4 0.000000 0.000000 0.000000 0.025013 0.000000 0.000000
# 5 0.000000 0.000000 0.000000 0.000000 0.019188 0.000000
# 6 0.000000 0.000000 0.000000 0.000000 0.000000 0.025542
#
#
# Mechanical properties :
#
#
# Convention : Reuss Voigt Hill
#
# Bulk Modulus (GPa) = 23.39682 50.35665 36.87674
# Shear Modulus (GPa) = 28.22059 38.00612 33.11336
#
# Velocity S-wave (km/s) = 3.55201 4.12209 3.84762
# Velocity P-wave (km/s) = 5.22327 6.72077 6.01878
#
# Compressibility (1/GPa) = 0.04274085
#
# Stress axis : x y z
#
# Youngs Moduli (GPa) = 25.72729 108.03209 50.40965
#
# Poissons Ratio (x) = 0.77285 -0.05611
# Poissons Ratio (y) = 0.18405 0.33121
# Poissons Ratio (z) = -0.02864 0.70982
#
# Static dielectric constant tensor:
#      x y z
#    x 1.890350 0.000000 0.000000 
#    y 0.000000 1.838850 0.000000 
#    z 0.000000 0.000000 1.895580 
# 
# From -- ./inp_files/25859.got.cif
#   From: 2010.05.17/outbox.cif.g08.bks.cpg/sg73_13_cif.got.tgz:25859.got - 2010.06.03 17:35:07.
