data_PCOD9531308
_publ_section_title
;
Structure prediction by ZEFSAII (Michael W. Deem and Ramdas Pophale) SiO2 
 PCOD9531308
Probable space group: I B C A 
;
_chemical_formula_sum "Si O2"
_cell_formula_units_Z 120
_cell_length_a 17.919947
_cell_length_b 28.143417
_cell_length_c 10.971982
_cell_angle_alpha 90.000000
_cell_angle_beta 90.000000
_cell_angle_gamma 90.000000
_cell_volume 5533.483674
_symmetry_space_group_name_H-M "I B C A "
_symmetry_group_IT_number 73
_symmetry_cell_setting 'orthorhombic'
loop_
_space_group_symop_operation_xyz
x,y,z
-x,1/2-y,z
x,-y,1/2-z
1/2-x,y,-z
-x,-y,-z
x,1/2+y,-z
-x,y,1/2+z
1/2+x,-y,z
1/2+x,1/2+y,1/2+z
1/2-x,-y,1/2+z
1/2+x,1/2-y,-z
-x,1/2+y,1/2-z
1/2-x,1/2-y,1/2-z
1/2+x,y,1/2-z
1/2-x,1/2+y,z
x,1/2-y,1/2+z
loop_
_atom_site_type_symbol
_atom_site_label
_atom_site_fract_x
_atom_site_fract_y
_atom_site_fract_z
Si Si1 0.519184 0.408300 0.813569
Si Si2 0.000000 0.750000 0.325926
Si Si3 0.107935 0.453583 0.309567
Si Si4 0.240928 0.333069 0.133770
Si Si5 0.645365 0.029028 0.409852
Si Si6 0.767040 0.437675 0.304821
Si Si7 0.579917 0.661469 0.062099
Si Si8 0.113155 0.679882 0.717563
O O1 0.459579 0.416242 0.704191
O O2 0.565762 0.454677 0.853516
O O3 0.465392 0.387026 0.917809
O O4 0.577247 0.365687 0.785065
O O5 0.969695 0.793427 0.404361
O O6 0.933739 0.726483 0.248840
O O7 0.072350 0.500000 0.250000
O O8 0.136819 0.461922 0.446721
O O9 0.179736 0.446869 0.220818
O O10 0.270054 0.387575 0.130289
O O11 0.152436 0.336193 0.150261
O O12 0.297942 0.311579 0.231902
O O13 0.250000 0.310197 0.000000
O O14 0.700294 0.062880 0.332378
O O15 0.683375 0.977603 0.376382
O O16 0.602856 0.667579 0.923765
#
# Coordination Sequence:
#
# PCOD9531308 Si02
#       8
#    16   8  16  16  16  16  16  16
#     4  11  23  41  61  91 124 166 209 266 316 375
#     4  10  22  38  64  94 130 156 196 256 328 386
#     4  12  26  39  60  89 123 169 217 266 322 371
#     4  10  21  37  66  90 121 165 214 252 306 375
#     4  11  25  42  60  89 126 167 220 266 319 367
#     4  11  23  41  60  85 123 167 211 266 308 366
#     4  10  21  40  64  92 124 161 205 255 314 390
#     4  10  21  39  64  92 121 164 202 257 316 380
#
# _framework density 21.686157000000001
#
# number of rings (size 3 to 8) (size 9 to 14) (size 15 to 20)
#    0.000    1.333    4.000    1.600    3.733    1.067 
#    0.000    0.000    0.000    0.000    0.000    0.000 
#    0.000    0.000    0.000    0.000    0.000    0.000 
#
# Total GULP energy -334172.106058 kJ/mol
# GULP energy per Si atom -5569.535101 kJ/mol
# Density = 2.163680 g / cm^3
# Si number density = 21.686157 Si / 1000 Ang^3
#
#
#
# Elastic Constant Matrix: (Units=GPa)
#
#
# Indices 1 2 3 4 5 6 
#
# 1 122.3139 28.6205 1.4868 -0.0001 0.0000 0.0000
# 2 28.6205 56.6663 2.8418 0.0000 0.0000 0.0000
# 3 1.4868 2.8418 59.8961 0.0003 0.0001 0.0000
# 4 -0.0001 0.0000 0.0003 13.6596 0.0000 0.0000
# 5 0.0000 0.0000 0.0001 0.0000 27.3055 0.0000
# 6 0.0000 0.0000 0.0000 0.0000 0.0000 31.4951
#
#
#
# Elastic Compliance Matrix: (Units=1/GPa)
#
#
# Indices 1 2 3 4 5 6 
#
# 1 0.009271 -0.004682 -0.000008 0.000000 0.000000 0.000000
# 2 -0.004682 0.020054 -0.000835 0.000000 0.000000 0.000000
# 3 -0.000008 -0.000835 0.016735 0.000000 0.000000 0.000000
# 4 0.000000 0.000000 0.000000 0.073208 0.000000 0.000000
# 5 0.000000 0.000000 0.000000 0.000000 0.036623 0.000000
# 6 0.000000 0.000000 0.000000 0.000000 0.000000 0.031751
#
#
# Mechanical properties :
#
#
# Convention : Reuss Voigt Hill
#
# Bulk Modulus (GPa) = 28.56351 33.86381 31.21366
# Shear Modulus (GPa) = 23.76834 28.22053 25.99444
#
# Velocity S-wave (km/s) = 3.31420 3.61129 3.46593
# Velocity P-wave (km/s) = 5.27685 5.74786 5.51738
#
# Compressibility (1/GPa) = 0.03500970
#
# Stress axis : x y z
#
# Youngs Moduli (GPa) = 107.85848 49.86545 59.75357
#
# Poissons Ratio (x) = 0.23349 0.00048
# Poissons Ratio (y) = 0.50503 0.04991
# Poissons Ratio (z) = 0.00086 0.04165
#
# Static dielectric constant tensor:
#      x y z
#    x 1.906700 0.000000 0.000000 
#    y 0.000000 1.826900 0.000000 
#    z 0.000000 0.000000 1.790900 
# 
# From -- ./inp_files/12316.got.cif
#   From: 2010.05.17/outbox.cif.g08.bks.cpg/sg73_7_cif.got.tgz:12316.got - 2010.06.03 17:35:07.
