data_PCOD9531721
_publ_section_title
;
Structure prediction by ZEFSAII (Michael W. Deem and Ramdas Pophale) SiO2 
 PCOD9531721
Probable space group: I B C A 
;
_chemical_formula_sum "Si O2"
_cell_formula_units_Z 88
_cell_length_a 19.922579
_cell_length_b 9.220754
_cell_length_c 19.734968
_cell_angle_alpha 90.000000
_cell_angle_beta 90.000000
_cell_angle_gamma 90.000000
_cell_volume 3625.337304
_symmetry_space_group_name_H-M "I B C A "
_symmetry_group_IT_number 73
_symmetry_cell_setting 'orthorhombic'
loop_
_space_group_symop_operation_xyz
x,y,z
-x,1/2-y,z
x,-y,1/2-z
1/2-x,y,-z
-x,-y,-z
x,1/2+y,-z
-x,y,1/2+z
1/2+x,-y,z
1/2+x,1/2+y,1/2+z
1/2-x,-y,1/2+z
1/2+x,1/2-y,-z
-x,1/2+y,1/2-z
1/2-x,1/2-y,1/2-z
1/2+x,y,1/2-z
1/2-x,1/2+y,z
x,1/2-y,1/2+z
loop_
_atom_site_type_symbol
_atom_site_label
_atom_site_fract_x
_atom_site_fract_y
_atom_site_fract_z
Si Si1 0.400796 0.438650 0.511698
Si Si2 0.124485 0.500000 0.250000
Si Si3 0.723326 0.700355 0.177742
Si Si4 0.188075 0.310774 0.948719
Si Si5 0.471507 0.008945 0.353248
Si Si6 0.090976 0.826046 0.368711
O O1 0.368996 0.579885 0.475734
O O2 0.340697 0.351181 0.547386
O O3 0.455730 0.460920 0.570077
O O4 0.422376 0.340426 0.448656
O O5 0.176176 0.434591 0.195886
O O6 0.070946 0.583565 0.201064
O O7 0.750000 0.750000 0.250000
O O8 0.781735 0.664686 0.125437
O O9 0.670060 0.815634 0.146178
O O10 0.250000 0.324613 0.000000
O O11 0.549559 0.038316 0.338751
O O12 0.440083 0.171657 0.347156
#
# Coordination Sequence:
#
# PCOD9531721 Si02
#       6
#    16   8  16  16  16  16
#     4  12  22  42  67 104 134 183 234 293 348 418
#     4  10  22  42  64  92 128 184 228 280 354 422
#     4  11  24  42  65 103 141 184 228 293 358 429
#     4  12  24  39  69 102 142 181 234 287 358 422
#     4  10  21  43  69  92 134 182 233 282 357 410
#     4  10  22  41  66  95 133 182 227 291 344 420
#
# _framework density 24.273605
#
# number of rings (size 3 to 8) (size 9 to 14) (size 15 to 20)
#    0.000    1.091    3.636    3.273    2.545    0.000 
#    3.273    0.000    4.000    0.000    0.000    0.000 
#    0.000    0.000    0.000    0.000    0.000    0.000 
#
# Total GULP energy -245603.926159 kJ/mol
# GULP energy per Si atom -5581.907413 kJ/mol
# Density = 2.421836 g / cm^3
# Si number density = 24.273605 Si / 1000 Ang^3
#
#
#
# Elastic Constant Matrix: (Units=GPa)
#
#
# Indices 1 2 3 4 5 6 
#
# 1 59.6616 19.8354 14.5042 0.0000 0.0000 0.0000
# 2 19.8354 48.5652 21.2586 0.0000 0.0000 0.0000
# 3 14.5042 21.2586 141.8799 0.0000 0.0000 0.0000
# 4 0.0000 0.0000 0.0000 21.3341 0.0000 0.0000
# 5 0.0000 0.0000 0.0000 0.0000 19.3268 0.0000
# 6 0.0000 0.0000 0.0000 0.0000 0.0000 29.7899
#
#
#
# Elastic Compliance Matrix: (Units=1/GPa)
#
#
# Indices 1 2 3 4 5 6 
#
# 1 0.019491 -0.007586 -0.000856 0.000000 0.000000 0.000000
# 2 -0.007586 0.024989 -0.002969 0.000000 0.000000 0.000000
# 3 -0.000856 -0.002969 0.007581 0.000000 0.000000 0.000000
# 4 0.000000 0.000000 0.000000 0.046873 0.000000 0.000000
# 5 0.000000 0.000000 0.000000 0.000000 0.051742 0.000000
# 6 0.000000 0.000000 0.000000 0.000000 0.000000 0.033568
#
#
# Mechanical properties :
#
#
# Convention : Reuss Voigt Hill
#
# Bulk Modulus (GPa) = 34.20067 40.14479 37.17273
# Shear Modulus (GPa) = 23.06146 27.05739 25.05942
#
# Velocity S-wave (km/s) = 3.08565 3.34231 3.21654
# Velocity P-wave (km/s) = 5.17834 5.60973 5.39835
#
# Compressibility (1/GPa) = 0.02923919
#
# Stress axis : x y z
#
# Youngs Moduli (GPa) = 51.30464 40.01802 131.91699
#
# Poissons Ratio (x) = 0.30358 0.11291
# Poissons Ratio (y) = 0.38921 0.39162
# Poissons Ratio (z) = 0.04391 0.11880
#
# Static dielectric constant tensor:
#      x y z
#    x 1.990140 0.000000 0.000000 
#    y 0.000000 1.717100 0.000000 
#    z 0.000000 0.000000 1.964820 
# 
# From -- ./inp_files/23067.got.cif
#   From: 2010.05.17/outbox.cif.g08.bks.cpg/sg73_12_cif.got.tgz:23067.got - 2010.06.03 17:35:07.
