data_PCOD9531334
_publ_section_title
;
Structure prediction by ZEFSAII (Michael W. Deem and Ramdas Pophale) SiO2 
 PCOD9531334
Probable space group: I B C A 
;
_chemical_formula_sum "Si O2"
_cell_formula_units_Z 104
_cell_length_a 25.596523
_cell_length_b 21.246780
_cell_length_c 8.007812
_cell_angle_alpha 90.000000
_cell_angle_beta 90.000000
_cell_angle_gamma 90.000000
_cell_volume 4354.998050
_symmetry_space_group_name_H-M "I B C A "
_symmetry_group_IT_number 73
_symmetry_cell_setting 'orthorhombic'
loop_
_space_group_symop_operation_xyz
x,y,z
-x,1/2-y,z
x,-y,1/2-z
1/2-x,y,-z
-x,-y,-z
x,1/2+y,-z
-x,y,1/2+z
1/2+x,-y,z
1/2+x,1/2+y,1/2+z
1/2-x,-y,1/2+z
1/2+x,1/2-y,-z
-x,1/2+y,1/2-z
1/2-x,1/2-y,1/2-z
1/2+x,y,1/2-z
1/2-x,1/2+y,z
x,1/2-y,1/2+z
loop_
_atom_site_type_symbol
_atom_site_label
_atom_site_fract_x
_atom_site_fract_y
_atom_site_fract_z
Si Si1 0.250000 0.104522 0.000000
Si Si2 0.550711 0.080241 0.547475
Si Si3 0.906601 0.723578 0.327496
Si Si4 0.954351 0.159458 0.981847
Si Si5 0.157998 0.811172 0.635215
Si Si6 0.534939 0.500000 0.750000
Si Si7 0.870011 0.584823 0.853454
Si Si8 0.283527 0.500000 0.750000
O O1 0.203388 0.153655 0.965831
O O2 0.248098 0.054996 0.843924
O O3 0.514473 0.140589 0.506362
O O4 0.565495 0.044174 0.378420
O O5 0.597976 0.076983 0.678708
O O6 0.505333 0.041802 0.644181
O O7 0.937054 0.786886 0.385557
O O8 0.887270 0.688449 0.493310
O O9 0.854767 0.742950 0.217044
O O10 0.941592 0.686377 0.198099
O O11 0.915315 0.100431 0.016373
O O12 0.158811 0.850598 0.807966
O O13 0.825325 0.533377 0.876843
#
# Coordination Sequence:
#
# PCOD9531334 Si02
#       8
#     8  16  16  16  16   8  16   8
#     4  10  22  42  64  88 116 150 194 244 324 388
#     4  11  21  39  57  87 119 168 208 249 293 359
#     4   9  20  40  59  88 119 158 203 251 299 344
#     4  10  21  38  59  82 123 162 208 244 293 352
#     4   9  20  38  61  87 115 151 193 251 305 370
#     4  10  23  34  57  82 116 156 212 251 288 349
#     4  10  21  38  59  85 125 160 199 259 307 359
#     4  10  23  42  63  90 122 152 194 263 324 387
#
# _framework density 23.880606
#
# number of rings (size 3 to 8) (size 9 to 14) (size 15 to 20)
#    0.000    2.154    1.538    0.462    4.308    1.846 
#    0.000   16.154    0.000    0.000    0.000    0.000 
#    0.000    0.000    0.000    0.000    0.000    0.000 
#
# Total GULP energy -289618.190131 kJ/mol
# GULP energy per Si atom -5569.580579 kJ/mol
# Density = 2.382625 g / cm^3
# Si number density = 23.880606 Si / 1000 Ang^3
#
#
#
# Elastic Constant Matrix: (Units=GPa)
#
#
# Indices 1 2 3 4 5 6 
#
# 1 71.9134 31.6801 4.0933 0.0000 0.0000 0.0000
# 2 31.6801 53.5954 20.7586 0.0000 0.0000 0.0000
# 3 4.0933 20.7586 90.4182 0.0000 0.0000 0.0000
# 4 0.0000 0.0000 0.0000 43.4602 0.0000 0.0000
# 5 0.0000 0.0000 0.0000 0.0000 120.9123 0.0000
# 6 0.0000 0.0000 0.0000 0.0000 0.0000 14.3596
#
#
#
# Elastic Compliance Matrix: (Units=1/GPa)
#
#
# Indices 1 2 3 4 5 6 
#
# 1 0.019093 -0.012020 0.001895 0.000000 0.000000 0.000000
# 2 -0.012020 0.028046 -0.005895 0.000000 0.000000 0.000000
# 3 0.001895 -0.005895 0.012327 0.000000 0.000000 0.000000
# 4 0.000000 0.000000 0.000000 0.023010 0.000000 0.000000
# 5 0.000000 0.000000 0.000000 0.000000 0.008270 0.000000
# 6 0.000000 0.000000 0.000000 0.000000 0.000000 0.069640
#
#
# Mechanical properties :
#
#
# Convention : Reuss Voigt Hill
#
# Bulk Modulus (GPa) = 36.45958 36.55455 36.50706
# Shear Modulus (GPa) = 24.80560 46.37276 35.58918
#
# Velocity S-wave (km/s) = 3.22644 4.41143 3.86462
# Velocity P-wave (km/s) = 5.40189 6.42558 5.93585
#
# Compressibility (1/GPa) = 0.02742764
#
# Stress axis : x y z
#
# Youngs Moduli (GPa) = 52.37574 35.65528 81.12084
#
# Poissons Ratio (x) = 0.42857 -0.15374
# Poissons Ratio (y) = 0.62954 0.47820
# Poissons Ratio (z) = -0.09926 0.21018
#
# Static dielectric constant tensor:
#      x y z
#    x 1.905760 0.000000 0.000000 
#    y 0.000000 2.138010 0.000000 
#    z 0.000000 0.000000 1.917360 
# 
# From -- ./inp_files/7359.got.cif
#   From: 2010.05.17/outbox.cif.g08.bks.cpg/sg73_4_cif.got.tgz:7359.got - 2010.06.03 17:35:07.
