data_PCOD9531477
_publ_section_title
;
Structure prediction by ZEFSAII (Michael W. Deem and Ramdas Pophale) SiO2 
 PCOD9531477
Probable space group: I B C A 
;
_chemical_formula_sum "Si O2"
_cell_formula_units_Z 72
_cell_length_a 9.359475
_cell_length_b 15.473834
_cell_length_c 20.521084
_cell_angle_alpha 90.000000
_cell_angle_beta 90.000000
_cell_angle_gamma 90.000000
_cell_volume 2972.006262
_symmetry_space_group_name_H-M "I B C A "
_symmetry_group_IT_number 73
_symmetry_cell_setting 'orthorhombic'
loop_
_space_group_symop_operation_xyz
x,y,z
-x,1/2-y,z
x,-y,1/2-z
1/2-x,y,-z
-x,-y,-z
x,1/2+y,-z
-x,y,1/2+z
1/2+x,-y,z
1/2+x,1/2+y,1/2+z
1/2-x,-y,1/2+z
1/2+x,1/2-y,-z
-x,1/2+y,1/2-z
1/2-x,1/2-y,1/2-z
1/2+x,y,1/2-z
1/2-x,1/2+y,z
x,1/2-y,1/2+z
loop_
_atom_site_type_symbol
_atom_site_label
_atom_site_fract_x
_atom_site_fract_y
_atom_site_fract_z
Si Si1 0.750000 0.972050 0.500000
Si Si2 0.866011 0.436881 0.195428
Si Si3 0.892801 0.175541 0.810028
Si Si4 0.649307 0.699967 0.943989
Si Si5 0.582583 0.524045 0.376808
O O1 0.850165 0.902218 0.537329
O O2 0.653119 0.023414 0.551395
O O3 0.932553 0.500000 0.250000
O O4 0.829173 0.357249 0.242148
O O5 0.723285 0.478814 0.168078
O O6 0.982192 0.440446 0.137690
O O7 0.792891 0.206110 0.869788
O O8 0.000000 0.250000 0.791193
O O9 0.992773 0.105914 0.849820
O O10 0.500000 0.750000 0.946106
O O11 0.750000 0.738951 0.000000
#
# Coordination Sequence:
#
# PCOD9531477 Si02
#       5
#     8  16  16  16  16
#     4  10  22  42  70 100 138 168 238 272 330 418
#     4  10  21  39  68  93 131 174 221 275 339 396
#     4  10  22  42  64  99 137 173 226 285 341 407
#     4   9  21  43  67  94 138 177 214 278 338 402
#     4  11  23  42  69  98 133 183 225 284 338 401
#
# _framework density 24.226061000000001
#
# number of rings (size 3 to 8) (size 9 to 14) (size 15 to 20)
#    0.667    1.333    0.000    4.667    0.000    4.444 
#   16.000    3.333    0.000    1.333    0.000    0.000 
#    0.000    0.000    0.000    0.000    0.000    0.000 
#
# Total GULP energy -200456.659636 kJ/mol
# GULP energy per Si atom -5568.240545 kJ/mol
# Density = 2.417092 g / cm^3
# Si number density = 24.226061 Si / 1000 Ang^3
#
#
#
# Elastic Constant Matrix: (Units=GPa)
#
#
# Indices 1 2 3 4 5 6 
#
# 1 104.1921 3.8344 42.8603 0.0000 0.0000 0.0000
# 2 3.8344 26.1939 -1.7486 0.0000 0.0000 0.0000
# 3 42.8603 -1.7486 93.9325 0.0000 0.0000 0.0000
# 4 0.0000 0.0000 0.0000 27.3921 0.0000 0.0000
# 5 0.0000 0.0000 0.0000 0.0000 37.9754 0.0000
# 6 0.0000 0.0000 0.0000 0.0000 0.0000 17.0789
#
#
#
# Elastic Compliance Matrix: (Units=1/GPa)
#
#
# Indices 1 2 3 4 5 6 
#
# 1 0.011931 -0.002113 -0.005483 0.000000 0.000000 0.000000
# 2 -0.002113 0.038598 0.001682 0.000000 0.000000 0.000000
# 3 -0.005483 0.001682 0.013179 0.000000 0.000000 0.000000
# 4 0.000000 0.000000 0.000000 0.036507 0.000000 0.000000
# 5 0.000000 0.000000 0.000000 0.000000 0.026333 0.000000
# 6 0.000000 0.000000 0.000000 0.000000 0.000000 0.058552
#
#
# Mechanical properties :
#
#
# Convention : Reuss Voigt Hill
#
# Bulk Modulus (GPa) = 19.27461 34.91232 27.09347
# Shear Modulus (GPa) = 23.34042 28.44746 25.89394
#
# Velocity S-wave (km/s) = 3.10730 3.43045 3.27287
# Velocity P-wave (km/s) = 4.56587 5.48935 5.04877
#
# Compressibility (1/GPa) = 0.05188172
#
# Stress axis : x y z
#
# Youngs Moduli (GPa) = 83.81530 25.90786 75.87704
#
# Poissons Ratio (x) = 0.05473 0.41606
# Poissons Ratio (y) = 0.17707 -0.12766
# Poissons Ratio (z) = 0.45958 -0.04359
#
# Static dielectric constant tensor:
#      x y z
#    x 1.946290 0.000000 0.000000 
#    y 0.000000 2.121090 0.000000 
#    z 0.000000 0.000000 2.100690 
# 
# From -- ./inp_files/11678.got.cif
#   From: 2010.05.17/outbox.cif.g08.bks.cpg/sg73_6_cif.got.tgz:11678.got - 2010.06.03 17:35:07.
