data_PCOD9531003
_publ_section_title
;
Structure prediction by ZEFSAII (Michael W. Deem and Ramdas Pophale) SiO2 
 PCOD9531003
Probable space group: I B C A 
;
_chemical_formula_sum "Si O2"
_cell_formula_units_Z 96
_cell_length_a 27.750244
_cell_length_b 16.205299
_cell_length_c 9.189590
_cell_angle_alpha 90.000000
_cell_angle_beta 90.000000
_cell_angle_gamma 90.000000
_cell_volume 4132.567825
_symmetry_space_group_name_H-M "I B C A "
_symmetry_group_IT_number 73
_symmetry_cell_setting 'orthorhombic'
loop_
_space_group_symop_operation_xyz
x,y,z
-x,1/2-y,z
x,-y,1/2-z
1/2-x,y,-z
-x,-y,-z
x,1/2+y,-z
-x,y,1/2+z
1/2+x,-y,z
1/2+x,1/2+y,1/2+z
1/2-x,-y,1/2+z
1/2+x,1/2-y,-z
-x,1/2+y,1/2-z
1/2-x,1/2-y,1/2-z
1/2+x,y,1/2-z
1/2-x,1/2+y,z
x,1/2-y,1/2+z
loop_
_atom_site_type_symbol
_atom_site_label
_atom_site_fract_x
_atom_site_fract_y
_atom_site_fract_z
Si Si1 0.151911 0.270762 0.728665
Si Si2 0.285800 0.879590 0.223065
Si Si3 0.837905 0.408569 0.998805
Si Si4 0.702016 0.500000 0.750000
Si Si5 0.875716 0.363049 0.527772
Si Si6 0.484664 0.500000 0.250000
Si Si7 0.564756 0.968407 0.973312
O O1 0.199008 0.214620 0.764668
O O2 0.168010 0.327458 0.594169
O O3 0.114129 0.208402 0.649486
O O4 0.132653 0.320668 0.868981
O O5 0.300177 0.923143 0.373697
O O6 0.234249 0.920990 0.201243
O O7 0.324271 0.893974 0.094747
O O8 0.832509 0.477611 0.119174
O O9 0.890431 0.412321 0.929872
O O10 0.914726 0.436977 0.530042
O O11 0.451396 0.550512 0.138509
O O12 0.520744 0.543758 0.363361
#
# Coordination Sequence:
#
# PCOD9531003 Si02
#       7
#    16  16  16   8  16   8  16
#     4  10  21  40  65  96 128 180 227 264 340 383
#     4  10  22  41  59  98 132 180 221 286 319 382
#     4  12  23  42  67  98 128 188 220 281 325 415
#     4  12  25  37  64  96 140 168 240 275 327 368
#     4  10  20  40  67  94 128 184 216 273 327 411
#     4  10  23  39  66 108 128 164 202 299 325 406
#     4  11  22  41  69  98 134 163 227 264 347 393
#
# _framework density 23.230108999999999
#
# number of rings (size 3 to 8) (size 9 to 14) (size 15 to 20)
#    1.000    0.333    1.667    5.000    0.000    2.000 
#    0.000    0.000    0.000   17.000    0.000    0.000 
#    0.000    0.000    0.000    0.000    0.000    0.000 
#
# Total GULP energy -267593.641213 kJ/mol
# GULP energy per Si atom -5574.867525 kJ/mol
# Density = 2.317724 g / cm^3
# Si number density = 23.230109 Si / 1000 Ang^3
#
#
#
# Elastic Constant Matrix: (Units=GPa)
#
#
# Indices 1 2 3 4 5 6 
#
# 1 55.3697 -0.6243 9.0779 0.0000 0.0000 0.0000
# 2 -0.6243 73.8509 24.7103 0.0000 0.0000 0.0000
# 3 9.0779 24.7103 142.1871 0.0000 0.0000 0.0000
# 4 0.0000 0.0000 0.0000 38.0648 0.0000 0.0000
# 5 0.0000 0.0000 0.0000 0.0000 38.3297 0.0000
# 6 0.0000 0.0000 0.0000 0.0000 0.0000 3.2554
#
#
#
# Elastic Compliance Matrix: (Units=1/GPa)
#
#
# Indices 1 2 3 4 5 6 
#
# 1 0.018275 0.000579 -0.001267 0.000000 0.000000 0.000000
# 2 0.000579 0.014395 -0.002539 0.000000 0.000000 0.000000
# 3 -0.001267 -0.002539 0.007555 0.000000 0.000000 0.000000
# 4 0.000000 0.000000 0.000000 0.026271 0.000000 0.000000
# 5 0.000000 0.000000 0.000000 0.000000 0.026089 0.000000
# 6 0.000000 0.000000 0.000000 0.000000 0.000000 0.307183
#
#
# Mechanical properties :
#
#
# Convention : Reuss Voigt Hill
#
# Bulk Modulus (GPa) = 29.61199 37.52617 33.56908
# Shear Modulus (GPa) = 11.97663 31.81290 21.89477
#
# Velocity S-wave (km/s) = 2.27307 3.70465 3.07337
# Velocity P-wave (km/s) = 4.43442 5.87268 5.20348
#
# Compressibility (1/GPa) = 0.03377010
#
# Stress axis : x y z
#
# Youngs Moduli (GPa) = 54.72045 69.46812 132.36136
#
# Poissons Ratio (x) = -0.04019 0.16774
# Poissons Ratio (y) = -0.03166 0.33601
# Poissons Ratio (z) = 0.06935 0.17635
#
# Static dielectric constant tensor:
#      x y z
#    x 1.819920 0.000000 0.000000 
#    y 0.000000 2.041460 0.000000 
#    z 0.000000 0.000000 1.885260 
# 
# From -- ./inp_files/7832.got.cif
#   From: 2010.05.17/outbox.cif.g08.bks.cpg/sg73_4_cif.got.tgz:7832.got - 2010.06.03 17:35:07.
