data_PCOD9531294
_publ_section_title
;
Structure prediction by ZEFSAII (Michael W. Deem and Ramdas Pophale) SiO2 
 PCOD9531294
Probable space group: I B C A 
;
_chemical_formula_sum "Si O2"
_cell_formula_units_Z 88
_cell_length_a 13.711944
_cell_length_b 18.025490
_cell_length_c 15.174311
_cell_angle_alpha 90.000000
_cell_angle_beta 90.000000
_cell_angle_gamma 90.000000
_cell_volume 3750.551135
_symmetry_space_group_name_H-M "I B C A "
_symmetry_group_IT_number 73
_symmetry_cell_setting 'orthorhombic'
loop_
_space_group_symop_operation_xyz
x,y,z
-x,1/2-y,z
x,-y,1/2-z
1/2-x,y,-z
-x,-y,-z
x,1/2+y,-z
-x,y,1/2+z
1/2+x,-y,z
1/2+x,1/2+y,1/2+z
1/2-x,-y,1/2+z
1/2+x,1/2-y,-z
-x,1/2+y,1/2-z
1/2-x,1/2-y,1/2-z
1/2+x,y,1/2-z
1/2-x,1/2+y,z
x,1/2-y,1/2+z
loop_
_atom_site_type_symbol
_atom_site_label
_atom_site_fract_x
_atom_site_fract_y
_atom_site_fract_z
Si Si1 0.750000 0.492662 0.000000
Si Si2 0.473747 0.873539 0.717136
Si Si3 0.937990 0.403577 0.025243
Si Si4 0.144848 0.235257 0.955194
Si Si5 0.113913 0.593109 0.596610
Si Si6 0.360666 0.221628 0.244352
O O1 0.658333 0.439432 0.016901
O O2 0.711029 0.545514 0.921379
O O3 0.443301 0.916365 0.629592
O O4 0.435666 0.910819 0.807383
O O5 0.588071 0.849124 0.709767
O O6 0.418612 0.794421 0.724797
O O7 0.927051 0.314042 0.014288
O O8 0.033139 0.429512 0.974528
O O9 0.134416 0.321845 0.932023
O O10 0.127022 0.201872 0.858261
O O11 0.250000 0.226043 0.000000
O O12 0.250000 0.250000 0.250000
#
# Coordination Sequence:
#
# PCOD9531294 Si02
#       6
#     8  16  16  16  16  16
#     4  12  28  48  68  96 138 194 248 296 364 458
#     4  10  24  41  68 105 146 184 237 305 367 443
#     4  12  25  44  74 103 139 191 246 306 374 452
#     4  11  21  40  72 106 140 184 239 302 369 442
#     4  11  25  48  68 100 146 190 238 305 381 446
#     4  10  21  37  62 109 149 175 228 294 372 437
#
# _framework density 23.463218999999999
#
# number of rings (size 3 to 8) (size 9 to 14) (size 15 to 20)
#    0.000    1.091    3.636    2.182    7.636    0.727 
#    0.000    1.818    0.000    0.000    0.000    0.000 
#    0.000    0.000    0.000    0.000    0.000    0.000 
#
# Total GULP energy -245556.756144 kJ/mol
# GULP energy per Si atom -5580.835367 kJ/mol
# Density = 2.340982 g / cm^3
# Si number density = 23.463219 Si / 1000 Ang^3
#
#
#
# Elastic Constant Matrix: (Units=GPa)
#
#
# Indices 1 2 3 4 5 6 
#
# 1 121.3650 29.3721 31.6287 0.0000 0.0000 0.0000
# 2 29.3721 89.8559 31.7548 -0.0001 0.0000 0.0000
# 3 31.6287 31.7548 145.3958 -0.0002 0.0000 0.0000
# 4 0.0000 -0.0001 -0.0002 32.0304 0.0000 0.0000
# 5 0.0000 0.0000 0.0000 0.0000 29.2426 0.0000
# 6 0.0000 0.0000 0.0000 0.0000 0.0000 41.7003
#
#
#
# Elastic Compliance Matrix: (Units=1/GPa)
#
#
# Indices 1 2 3 4 5 6 
#
# 1 0.009225 -0.002499 -0.001461 0.000000 0.000000 0.000000
# 2 -0.002499 0.012737 -0.002238 0.000000 0.000000 0.000000
# 3 -0.001461 -0.002238 0.007684 0.000000 0.000000 0.000000
# 4 0.000000 0.000000 0.000000 0.031220 0.000000 0.000000
# 5 0.000000 0.000000 0.000000 0.000000 0.034197 0.000000
# 6 0.000000 0.000000 0.000000 0.000000 0.000000 0.023981
#
#
# Mechanical properties :
#
#
# Convention : Reuss Voigt Hill
#
# Bulk Modulus (GPa) = 57.97156 60.23645 59.10400
# Shear Modulus (GPa) = 36.44567 38.18541 37.31554
#
# Velocity S-wave (km/s) = 3.94548 4.03855 3.99229
# Velocity P-wave (km/s) = 6.74662 6.89021 6.81879
#
# Compressibility (1/GPa) = 0.01724984
#
# Stress axis : x y z
#
# Youngs Moduli (GPa) = 108.39872 78.51254 130.13393
#
# Poissons Ratio (x) = 0.19622 0.19012
# Poissons Ratio (y) = 0.27091 0.29125
# Poissons Ratio (z) = 0.15837 0.17572
#
# Static dielectric constant tensor:
#      x y z
#    x 1.970790 0.000000 0.000000 
#    y 0.000000 1.991810 0.000000 
#    z 0.000000 0.000000 1.903560 
# 
# From -- ./inp_files/16933.got.cif
#   From: 2010.05.17/outbox.cif.g08.bks.cpg/sg73_9_cif.got.tgz:16933.got - 2010.06.03 17:35:07.
