data_PCOD9531733
_publ_section_title
;
Structure prediction by ZEFSAII (Michael W. Deem and Ramdas Pophale) SiO2 
 PCOD9531733
Probable space group: I B C A 
;
_chemical_formula_sum "Si O2"
_cell_formula_units_Z 64
_cell_length_a 18.106850
_cell_length_b 8.823638
_cell_length_c 16.159953
_cell_angle_alpha 90.000000
_cell_angle_beta 90.000000
_cell_angle_gamma 90.000000
_cell_volume 2581.848053
_symmetry_space_group_name_H-M "I B C A "
_symmetry_group_IT_number 73
_symmetry_cell_setting 'orthorhombic'
loop_
_space_group_symop_operation_xyz
x,y,z
-x,1/2-y,z
x,-y,1/2-z
1/2-x,y,-z
-x,-y,-z
x,1/2+y,-z
-x,y,1/2+z
1/2+x,-y,z
1/2+x,1/2+y,1/2+z
1/2-x,-y,1/2+z
1/2+x,1/2-y,-z
-x,1/2+y,1/2-z
1/2-x,1/2-y,1/2-z
1/2+x,y,1/2-z
1/2-x,1/2+y,z
x,1/2-y,1/2+z
loop_
_atom_site_type_symbol
_atom_site_label
_atom_site_fract_x
_atom_site_fract_y
_atom_site_fract_z
Si Si1 0.852245 0.807665 0.157558
Si Si2 0.500000 0.750000 0.628990
Si Si3 0.473704 0.500000 0.750000
Si Si4 0.152095 0.271034 0.540030
Si Si5 0.231239 0.457863 0.871843
O O1 0.821152 0.645472 0.184976
O O2 0.922773 0.877580 0.201623
O O3 0.787496 0.927938 0.170302
O O4 0.859197 0.784124 0.058437
O O5 0.515724 0.601413 0.683909
O O6 0.573853 0.777585 0.577423
O O7 0.180241 0.435601 0.570561
O O8 0.213693 0.155922 0.577210
#
# Coordination Sequence:
#
# PCOD9531733 Si02
#       5
#    16   8   8  16  16
#     4  11  22  43  72 104 139 184 233 291 351 421
#     4  12  30  50  66 104 144 192 238 294 352 422
#     4  12  30  48  62 102 152 186 228 296 368 412
#     4  11  22  45  77 102 136 184 245 284 347 423
#     4  10  21  43  76 108 135 179 240 298 337 423
#
# _framework density 24.788443999999998
#
# number of rings (size 3 to 8) (size 9 to 14) (size 15 to 20)
#    0.000    1.000    2.500    6.000    3.500    3.000 
#    0.000    0.000    0.000    0.000    0.000    0.000 
#    0.000    0.000    0.000    0.000    0.000    0.000 
#
# Total GULP energy -179207.347282 kJ/mol
# GULP energy per Si atom -5600.229603 kJ/mol
# Density = 2.473202 g / cm^3
# Si number density = 24.788444 Si / 1000 Ang^3
#
#
#
# Elastic Constant Matrix: (Units=GPa)
#
#
# Indices 1 2 3 4 5 6 
#
# 1 79.1619 6.2800 24.7551 0.0000 0.0000 0.0000
# 2 6.2800 133.5015 16.4906 0.0000 0.0000 0.0000
# 3 24.7551 16.4906 78.5440 0.0000 0.0000 0.0000
# 4 0.0000 0.0000 0.0000 9.3300 0.0000 0.0000
# 5 0.0000 0.0000 0.0000 0.0000 27.1365 0.0000
# 6 0.0000 0.0000 0.0000 0.0000 0.0000 34.5126
#
#
#
# Elastic Compliance Matrix: (Units=1/GPa)
#
#
# Indices 1 2 3 4 5 6 
#
# 1 0.014015 -0.000117 -0.004393 0.000000 0.000000 0.000000
# 2 -0.000117 0.007691 -0.001578 0.000000 0.000000 0.000000
# 3 -0.004393 -0.001578 0.014448 0.000000 0.000000 0.000000
# 4 0.000000 0.000000 0.000000 0.107181 0.000000 0.000000
# 5 0.000000 0.000000 0.000000 0.000000 0.036851 0.000000
# 6 0.000000 0.000000 0.000000 0.000000 0.000000 0.028975
#
#
# Mechanical properties :
#
#
# Convention : Reuss Voigt Hill
#
# Bulk Modulus (GPa) = 41.70330 42.91764 42.31047
# Shear Modulus (GPa) = 21.80284 30.44128 26.12206
#
# Velocity S-wave (km/s) = 2.96895 3.50815 3.24975
# Velocity P-wave (km/s) = 5.34912 5.81039 5.58452
#
# Compressibility (1/GPa) = 0.02397892
#
# Stress axis : x y z
#
# Youngs Moduli (GPa) = 71.35072 130.02286 69.21610
#
# Poissons Ratio (x) = 0.01517 0.30405
# Poissons Ratio (y) = 0.00832 0.10922
# Poissons Ratio (z) = 0.31343 0.20517
#
# Static dielectric constant tensor:
#      x y z
#    x 1.900960 0.000000 0.000000 
#    y 0.000000 1.995590 0.000000 
#    z 0.000000 0.000000 2.011490 
# 
# From -- ./inp_files/5246.got.cif
#   From: 2010.05.17/outbox.cif.g08.bks.cpg/sg73_3_cif.got.tgz:5246.got - 2010.06.03 17:35:07.
