data_PCOD9531783
_publ_section_title
;
Structure prediction by ZEFSAII (Michael W. Deem and Ramdas Pophale) SiO2 
 PCOD9531783
Probable space group: I B C A 
;
_chemical_formula_sum "Si O2"
_cell_formula_units_Z 112
_cell_length_a 23.759354
_cell_length_b 16.209974
_cell_length_c 14.272290
_cell_angle_alpha 90.000000
_cell_angle_beta 90.000000
_cell_angle_gamma 90.000000
_cell_volume 5496.808513
_symmetry_space_group_name_H-M "I B C A "
_symmetry_group_IT_number 73
_symmetry_cell_setting 'orthorhombic'
loop_
_space_group_symop_operation_xyz
x,y,z
-x,1/2-y,z
x,-y,1/2-z
1/2-x,y,-z
-x,-y,-z
x,1/2+y,-z
-x,y,1/2+z
1/2+x,-y,z
1/2+x,1/2+y,1/2+z
1/2-x,-y,1/2+z
1/2+x,1/2-y,-z
-x,1/2+y,1/2-z
1/2-x,1/2-y,1/2-z
1/2+x,y,1/2-z
1/2-x,1/2+y,z
x,1/2-y,1/2+z
loop_
_atom_site_type_symbol
_atom_site_label
_atom_site_fract_x
_atom_site_fract_y
_atom_site_fract_z
Si Si1 0.935917 0.575587 0.204275
Si Si2 0.186099 0.098806 0.500347
Si Si3 0.638221 0.277921 0.651816
Si Si4 0.363797 0.789225 0.162276
Si Si5 0.947458 0.427213 0.690769
Si Si6 0.438513 0.301218 0.492002
Si Si7 0.575127 0.501664 0.508648
O O1 0.901777 0.500000 0.250000
O O2 0.903691 0.659189 0.202515
O O3 0.991368 0.416015 0.234226
O O4 0.948052 0.547213 0.098781
O O5 0.250000 0.070383 0.500000
O O6 0.175402 0.164688 0.416437
O O7 0.171656 0.150897 0.594117
O O8 0.141520 0.023788 0.490695
O O9 0.667747 0.238229 0.742702
O O10 0.597617 0.223952 0.584422
O O11 0.414117 0.844483 0.202305
O O12 0.397585 0.726600 0.093732
O O13 0.919017 0.500000 0.750000
O O14 0.946826 0.456516 0.584229
O O15 0.500000 0.250000 0.489587
O O16 0.439566 0.401360 0.490009
#
# Coordination Sequence:
#
# PCOD9531783 Si02
#       7
#    16  16  16  16  16  16  16
#     4  10  22  34  57  81 120 172 203 240 293 377
#     4   9  21  45  69  87 115 167 217 272 323 357
#     4  10  22  39  57  94 128 157 209 261 307 378
#     4  10  22  39  57  94 128 157 209 261 307 378
#     4  10  22  34  57  81 120 172 203 240 293 377
#     4  11  25  35  60  87 135 172 197 249 309 386
#     4  10  22  43  55  87 127 157 218 253 304 375
#
# _framework density 20.37546
#
# number of rings (size 3 to 8) (size 9 to 14) (size 15 to 20)
#    0.000    2.000    0.000    2.571   12.000    2.857 
#    0.000    2.857    0.000   29.143    0.000    0.000 
#    0.000    0.000    0.000    0.000    0.000    0.000 
#
# Total GULP energy -312182.149979 kJ/mol
# GULP energy per Si atom -5574.681250 kJ/mol
# Density = 2.032908 g / cm^3
# Si number density = 20.375460 Si / 1000 Ang^3
#
#
#
# Elastic Constant Matrix: (Units=GPa)
#
#
# Indices 1 2 3 4 5 6 
#
# 1 104.8868 14.3165 13.4904 0.0000 0.0000 0.0000
# 2 14.3165 73.2512 12.7010 0.0000 0.0000 0.0000
# 3 13.4904 12.7010 134.2435 0.0000 0.0000 0.0000
# 4 0.0000 0.0000 0.0000 28.4853 0.0000 0.0000
# 5 0.0000 0.0000 0.0000 0.0000 11.0995 0.0000
# 6 0.0000 0.0000 0.0000 0.0000 0.0000 -30.9363
#
#
#
# Elastic Compliance Matrix: (Units=1/GPa)
#
#
# Indices 1 2 3 4 5 6 
#
# 1 0.009884 -0.001789 -0.000824 0.000000 0.000000 0.000000
# 2 -0.001789 0.014203 -0.001164 0.000000 0.000000 0.000000
# 3 -0.000824 -0.001164 0.007642 0.000000 0.000000 0.000000
# 4 0.000000 0.000000 0.000000 0.035106 0.000000 0.000000
# 5 0.000000 0.000000 0.000000 0.000000 0.090095 0.000000
# 6 0.000000 0.000000 0.000000 0.000000 0.000000 -0.032325
#
#
# Mechanical properties :
#
#
# Convention : Reuss Voigt Hill
#
# Bulk Modulus (GPa) = 41.36420 43.71082 42.53751
# Shear Modulus (GPa) = 35.65881 19.85460 27.75670
#
# Velocity S-wave (km/s) = 4.18794 3.12498 3.69489
# Velocity P-wave (km/s) = 6.61288 5.87537 6.25500
#
# Compressibility (1/GPa) = 0.02417550
#
# Stress axis : x y z
#
# Youngs Moduli (GPa) = 101.17099 70.40703 130.85433
#
# Poissons Ratio (x) = 0.12595 0.10783
# Poissons Ratio (y) = 0.18099 0.15232
# Poissons Ratio (z) = 0.08337 0.08195
#
# Static dielectric constant tensor:
#      x y z
#    x 1.737380 0.000000 0.000000 
#    y 0.000000 1.753810 0.000000 
#    z 0.000000 0.000000 1.916340 
# 
# From -- ./inp_files/17393.got.cif
#   From: 2010.05.17/outbox.cif.g08.bks.cpg/sg73_9_cif.got.tgz:17393.got - 2010.06.03 17:35:07.
