data_PCOD9531615
_publ_section_title
;
Structure prediction by ZEFSAII (Michael W. Deem and Ramdas Pophale) SiO2 
 PCOD9531615
Probable space group: I B C A 
;
_chemical_formula_sum "Si O2"
_cell_formula_units_Z 48
_cell_length_a 4.903174
_cell_length_b 12.677079
_cell_length_c 30.051546
_cell_angle_alpha 90.000000
_cell_angle_beta 90.000000
_cell_angle_gamma 90.000000
_cell_volume 1867.941717
_symmetry_space_group_name_H-M "I B C A "
_symmetry_group_IT_number 73
_symmetry_cell_setting 'orthorhombic'
loop_
_space_group_symop_operation_xyz
x,y,z
-x,1/2-y,z
x,-y,1/2-z
1/2-x,y,-z
-x,-y,-z
x,1/2+y,-z
-x,y,1/2+z
1/2+x,-y,z
1/2+x,1/2+y,1/2+z
1/2-x,-y,1/2+z
1/2+x,1/2-y,-z
-x,1/2+y,1/2-z
1/2-x,1/2-y,1/2-z
1/2+x,y,1/2-z
1/2-x,1/2+y,z
x,1/2-y,1/2+z
loop_
_atom_site_type_symbol
_atom_site_label
_atom_site_fract_x
_atom_site_fract_y
_atom_site_fract_z
Si Si1 0.973127 0.875239 0.777272
Si Si2 0.249794 0.569695 0.126087
Si Si3 0.000000 0.750000 0.431674
Si Si4 0.250000 0.916437 0.000000
O O1 0.783476 0.903327 0.734945
O O2 0.828854 0.909171 0.822589
O O3 0.000000 0.750000 0.780693
O O4 0.450284 0.471828 0.115651
O O5 0.316665 0.674229 0.098875
O O6 0.175738 0.667670 0.461101
O O7 0.500000 0.000000 0.000000
#
# Coordination Sequence:
#
# PCOD9531615 Si02
#       4
#    16  16   8   8
#     4  10  21  41  67 100 145 200 253 307 369 432
#     4  12  27  45  73 110 149 200 254 306 381 453
#     4  12  28  54  78 114 156 194 240 336 378 462
#     4  12  28  52  84 116 146 198 254 304 394 482
#
# _framework density 25.696736000000001
#
# number of rings (size 3 to 8) (size 9 to 14) (size 15 to 20)
#    0.000    0.667    1.667    5.000    0.000   10.667 
#    0.000    0.000    0.000    0.000    0.000    0.000 
#    0.000    0.000    0.000    0.000    0.000    0.000 
#
# Total GULP energy -134381.531507 kJ/mol
# GULP energy per Si atom -5599.230479 kJ/mol
# Density = 2.563825 g / cm^3
# Si number density = 25.696736 Si / 1000 Ang^3
#
#
#
# Elastic Constant Matrix: (Units=GPa)
#
#
# Indices 1 2 3 4 5 6 
#
# 1 123.9759 11.4429 39.3583 0.0000 0.0000 0.0000
# 2 11.4429 183.0770 75.1890 0.0000 0.0000 0.0000
# 3 39.3583 75.1890 148.0655 0.0000 0.0000 0.0000
# 4 0.0000 0.0000 0.0000 77.6510 0.0000 0.0000
# 5 0.0000 0.0000 0.0000 0.0000 16.0141 0.0000
# 6 0.0000 0.0000 0.0000 0.0000 0.0000 13.3952
#
#
#
# Elastic Compliance Matrix: (Units=1/GPa)
#
#
# Indices 1 2 3 4 5 6 
#
# 1 0.008849 0.000522 -0.002617 0.000000 0.000000 0.000000
# 2 0.000522 0.006932 -0.003659 0.000000 0.000000 0.000000
# 3 -0.002617 -0.003659 0.009307 0.000000 0.000000 0.000000
# 4 0.000000 0.000000 0.000000 0.012878 0.000000 0.000000
# 5 0.000000 0.000000 0.000000 0.000000 0.062445 0.000000
# 6 0.000000 0.000000 0.000000 0.000000 0.000000 0.074654
#
#
# Mechanical properties :
#
#
# Convention : Reuss Voigt Hill
#
# Bulk Modulus (GPa) = 73.63812 78.56652 76.10232
# Shear Modulus (GPa) = 26.16425 43.35394 34.75909
#
# Velocity S-wave (km/s) = 3.19438 4.11193 3.68185
# Velocity P-wave (km/s) = 6.50571 7.29280 6.91047
#
# Compressibility (1/GPa) = 0.01357992
#
# Stress axis : x y z
#
# Youngs Moduli (GPa) = 113.01007 144.25232 107.44025
#
# Poissons Ratio (x) = -0.07526 0.28118
# Poissons Ratio (y) = -0.05896 0.39312
# Poissons Ratio (z) = 0.29576 0.52782
#
# Static dielectric constant tensor:
#      x y z
#    x 1.991330 0.000000 0.000000 
#    y 0.000000 1.959660 0.000000 
#    z 0.000000 0.000000 2.083990 
# 
# From -- ./inp_files/2832.got.cif
#   From: 2010.05.17/outbox.cif.g08.bks.cpg/sg73_2_cif.got.tgz:2832.got - 2010.06.03 17:35:07.
