data_PCOD9531106
_publ_section_title
;
Structure prediction by ZEFSAII (Michael W. Deem and Ramdas Pophale) SiO2 
 PCOD9531106
Probable space group: I B C A 
;
_chemical_formula_sum "Si O2"
_cell_formula_units_Z 112
_cell_length_a 15.369233
_cell_length_b 12.114399
_cell_length_c 29.499941
_cell_angle_alpha 90.000000
_cell_angle_beta 90.000000
_cell_angle_gamma 90.000000
_cell_volume 5492.565131
_symmetry_space_group_name_H-M "I B C A "
_symmetry_group_IT_number 73
_symmetry_cell_setting 'orthorhombic'
loop_
_space_group_symop_operation_xyz
x,y,z
-x,1/2-y,z
x,-y,1/2-z
1/2-x,y,-z
-x,-y,-z
x,1/2+y,-z
-x,y,1/2+z
1/2+x,-y,z
1/2+x,1/2+y,1/2+z
1/2-x,-y,1/2+z
1/2+x,1/2-y,-z
-x,1/2+y,1/2-z
1/2-x,1/2-y,1/2-z
1/2+x,y,1/2-z
1/2-x,1/2+y,z
x,1/2-y,1/2+z
loop_
_atom_site_type_symbol
_atom_site_label
_atom_site_fract_x
_atom_site_fract_y
_atom_site_fract_z
Si Si1 0.899680 0.956069 0.659706
Si Si2 0.000000 0.250000 0.808840
Si Si3 0.669570 0.352913 0.194337
Si Si4 0.704037 0.500000 0.750000
Si Si5 0.742555 0.186011 0.122107
Si Si6 0.630035 0.512272 0.109597
Si Si7 0.959927 0.626362 0.405044
Si Si8 0.767173 0.371883 0.053091
O O1 0.855894 0.963680 0.708611
O O2 0.826387 0.912766 0.625330
O O3 0.966102 0.853527 0.661696
O O4 0.931939 0.075912 0.644069
O O5 0.084452 0.203102 0.783847
O O6 0.732306 0.406858 0.230483
O O7 0.721182 0.263664 0.164519
O O8 0.637088 0.439811 0.155664
O O9 0.836310 0.132054 0.124902
O O10 0.737672 0.257940 0.077123
O O11 0.537693 0.536998 0.085577
O O12 0.700764 0.460401 0.075422
O O13 0.870430 0.617995 0.434252
O O14 0.000000 0.750000 0.406891
O O15 0.750000 0.370664 0.000000
#
# Coordination Sequence:
#
# PCOD9531106 Si02
#       8
#    16   8  16   8  16  16  16  16
#     4  11  23  44  67  99 134 188 229 287 351 411
#     4  10  22  40  62  90 134 166 242 280 342 408
#     4  10  22  40  65  94 130 181 227 283 352 416
#     4  12  24  40  66  96 142 180 236 282 354 414
#     4  10  20  42  70  93 133 186 223 269 356 424
#     4  11  21  43  71  95 133 184 227 279 354 420
#     4  12  24  44  73 103 137 181 242 281 346 425
#     4  11  25  44  68 106 141 175 222 292 356 413
#
# _framework density 20.391200999999999
#
# number of rings (size 3 to 8) (size 9 to 14) (size 15 to 20)
#    0.000    1.143    5.714    0.857    0.000    4.000 
#    1.286    1.429    0.000    0.000    0.000    0.000 
#    0.000    0.000    0.000    0.000    0.000    0.000 
#
# Total GULP energy -312000.216728 kJ/mol
# GULP energy per Si atom -5571.432442 kJ/mol
# Density = 2.034479 g / cm^3
# Si number density = 20.391201 Si / 1000 Ang^3
#
#
#
# Elastic Constant Matrix: (Units=GPa)
#
#
# Indices 1 2 3 4 5 6 
#
# 1 135.4048 45.2377 69.2197 0.0000 0.0000 0.0000
# 2 45.2377 84.6232 55.9974 0.0000 0.0000 0.0000
# 3 69.2197 55.9974 96.7511 0.0000 0.0000 0.0000
# 4 0.0000 0.0000 0.0000 -0.2735 0.0000 0.0000
# 5 0.0000 0.0000 0.0000 0.0000 22.7150 0.0000
# 6 0.0000 0.0000 0.0000 0.0000 0.0000 48.1077
#
#
#
# Elastic Compliance Matrix: (Units=1/GPa)
#
#
# Indices 1 2 3 4 5 6 
#
# 1 0.011714 -0.001161 -0.007709 0.000000 0.000000 0.000000
# 2 -0.001161 0.019267 -0.010321 0.000000 0.000000 0.000000
# 3 -0.007709 -0.010321 0.021824 0.000000 0.000000 0.000000
# 4 0.000000 0.000000 0.000000 -3.655951 0.000000 0.000000
# 5 0.000000 0.000000 0.000000 0.000000 0.044024 0.000000
# 6 0.000000 0.000000 0.000000 0.000000 0.000000 0.020787
#
#
# Mechanical properties :
#
#
# Convention : Reuss Voigt Hill
#
# Bulk Modulus (GPa) = 69.32618 73.07653 71.20135
# Shear Modulus (GPa) = -1.43056 23.86480 11.21712
#
# Velocity S-wave (km/s) = -0.83850 3.42475 2.34796
# Velocity P-wave (km/s) = 5.75625 7.18008 6.50723
#
# Compressibility (1/GPa) = 0.01442456
#
# Stress axis : x y z
#
# Youngs Moduli (GPa) = 85.36935 51.90130 45.82030
#
# Poissons Ratio (x) = 0.06025 0.35321
# Poissons Ratio (y) = 0.09911 0.47291
# Poissons Ratio (z) = 0.65808 0.53567
#
# Static dielectric constant tensor:
#      x y z
#    x 1.838230 0.000000 0.000000 
#    y 0.000000 1.781780 0.000000 
#    z 0.000000 0.000000 1.672740 
# 
# From -- ./inp_files/34359.got.cif
#   From: 2010.05.17/outbox.cif.g08.bks.cpg/sg73_18_cif.got.tgz:34359.got - 2010.06.03 17:35:07.
