data_PCOD9531416
_publ_section_title
;
Structure prediction by ZEFSAII (Michael W. Deem and Ramdas Pophale) SiO2 
 PCOD9531416
Probable space group: I B C A 
;
_chemical_formula_sum "Si O2"
_cell_formula_units_Z 56
_cell_length_a 5.085493
_cell_length_b 13.416673
_cell_length_c 37.411054
_cell_angle_alpha 90.000000
_cell_angle_beta 90.000000
_cell_angle_gamma 90.000000
_cell_volume 2552.571053
_symmetry_space_group_name_H-M "I B C A "
_symmetry_group_IT_number 73
_symmetry_cell_setting 'orthorhombic'
loop_
_space_group_symop_operation_xyz
x,y,z
-x,1/2-y,z
x,-y,1/2-z
1/2-x,y,-z
-x,-y,-z
x,1/2+y,-z
-x,y,1/2+z
1/2+x,-y,z
1/2+x,1/2+y,1/2+z
1/2-x,-y,1/2+z
1/2+x,1/2-y,-z
-x,1/2+y,1/2-z
1/2-x,1/2-y,1/2-z
1/2+x,y,1/2-z
1/2-x,1/2+y,z
x,1/2-y,1/2+z
loop_
_atom_site_type_symbol
_atom_site_label
_atom_site_fract_x
_atom_site_fract_y
_atom_site_fract_z
Si Si1 0.745743 0.318187 0.388181
Si Si2 0.820122 0.059860 0.819989
Si Si3 0.277938 0.567449 0.459838
Si Si4 0.500000 0.250000 0.724282
O O1 0.500000 0.250000 0.376414
O O2 0.797941 0.410709 0.361712
O O3 0.711225 0.357282 0.428307
O O4 0.000000 0.250000 0.386836
O O5 0.943147 0.155168 0.800602
O O6 0.523030 0.028593 0.810737
O O7 0.250000 0.608980 0.500000
O O8 0.571324 0.523740 0.456441
O O9 0.750000 0.250000 0.750000
#
# Coordination Sequence:
#
# PCOD9531416 Si02
#       4
#    16  16  16   8
#     4  12  24  40  66  97 137 177 232 292 337 404
#     4  12  26  46  74 102 140 185 229 277 348 413
#     4  10  21  39  61  90 130 177 230 285 345 410
#     4  12  28  48  74 106 144 174 226 290 340 420
#
# _framework density 21.938662999999998
#
# number of rings (size 3 to 8) (size 9 to 14) (size 15 to 20)
#    0.000    0.571    1.429    6.857    2.000    4.571 
#    0.000    0.000    0.000    0.000    0.000    0.000 
#    0.000    0.000    0.000    0.000    0.000    0.000 
#
# Total GULP energy -156607.651590 kJ/mol
# GULP energy per Si atom -5593.130414 kJ/mol
# Density = 2.188873 g / cm^3
# Si number density = 21.938663 Si / 1000 Ang^3
#
#
#
# Elastic Constant Matrix: (Units=GPa)
#
#
# Indices 1 2 3 4 5 6 
#
# 1 137.3169 20.6386 24.3459 0.0000 0.0000 0.0000
# 2 20.6386 49.0017 21.4940 0.0000 0.0000 0.0000
# 3 24.3459 21.4940 80.3520 0.0000 0.0000 0.0000
# 4 0.0000 0.0000 0.0000 89.1554 0.0000 0.0000
# 5 0.0000 0.0000 0.0000 0.0000 25.8926 0.0000
# 6 0.0000 0.0000 0.0000 0.0000 0.0000 34.1467
#
#
#
# Elastic Compliance Matrix: (Units=1/GPa)
#
#
# Indices 1 2 3 4 5 6 
#
# 1 0.007979 -0.002606 -0.001721 0.000000 0.000000 0.000000
# 2 -0.002606 0.023971 -0.005623 0.000000 0.000000 0.000000
# 3 -0.001721 -0.005623 0.014471 0.000000 0.000000 0.000000
# 4 0.000000 0.000000 0.000000 0.011216 0.000000 0.000000
# 5 0.000000 0.000000 0.000000 0.000000 0.038621 0.000000
# 6 0.000000 0.000000 0.000000 0.000000 0.000000 0.029285
#
#
# Mechanical properties :
#
#
# Convention : Reuss Voigt Hill
#
# Bulk Modulus (GPa) = 37.70353 44.40307 41.05330
# Shear Modulus (GPa) = 32.40792 43.18509 37.79651
#
# Velocity S-wave (km/s) = 3.84761 4.44153 4.15520
# Velocity P-wave (km/s) = 6.07964 6.82543 6.46330
#
# Compressibility (1/GPa) = 0.02652272
#
# Stress axis : x y z
#
# Youngs Moduli (GPa) = 125.32678 41.71639 69.10557
#
# Poissons Ratio (x) = 0.10871 0.11890
# Poissons Ratio (y) = 0.32660 0.38856
# Poissons Ratio (z) = 0.21563 0.23456
#
# Static dielectric constant tensor:
#      x y z
#    x 1.759990 0.000000 0.000000 
#    y 0.000000 1.787250 0.000000 
#    z 0.000000 0.000000 2.730510 
# 
# From -- ./inp_files/710.got.cif
#   From: 2010.05.17/outbox.cif.g08.bks.cpg/sg73_1_cif.got.tgz:710.got - 2010.06.03 17:35:07.
