data_PCOD9531151
_publ_section_title
;
Structure prediction by ZEFSAII (Michael W. Deem and Ramdas Pophale) SiO2 
 PCOD9531151
Probable space group: I B C A 
;
_chemical_formula_sum "Si O2"
_cell_formula_units_Z 88
_cell_length_a 25.533147
_cell_length_b 16.758749
_cell_length_c 9.486026
_cell_angle_alpha 90.000000
_cell_angle_beta 90.000000
_cell_angle_gamma 90.000000
_cell_volume 4059.104692
_symmetry_space_group_name_H-M "I B C A "
_symmetry_group_IT_number 73
_symmetry_cell_setting 'orthorhombic'
loop_
_space_group_symop_operation_xyz
x,y,z
-x,1/2-y,z
x,-y,1/2-z
1/2-x,y,-z
-x,-y,-z
x,1/2+y,-z
-x,y,1/2+z
1/2+x,-y,z
1/2+x,1/2+y,1/2+z
1/2-x,-y,1/2+z
1/2+x,1/2-y,-z
-x,1/2+y,1/2-z
1/2-x,1/2-y,1/2-z
1/2+x,y,1/2-z
1/2-x,1/2+y,z
x,1/2-y,1/2+z
loop_
_atom_site_type_symbol
_atom_site_label
_atom_site_fract_x
_atom_site_fract_y
_atom_site_fract_z
Si Si1 0.917216 0.149260 0.677116
Si Si2 0.057080 0.710158 0.533962
Si Si3 0.323738 0.586377 0.015018
Si Si4 0.979241 0.944526 0.373406
Si Si5 0.237098 0.840911 0.719034
Si Si6 0.750000 0.440539 0.500000
O O1 0.920849 0.222453 0.568435
O O2 0.877808 0.090290 0.597604
O O3 0.971217 0.101106 0.695034
O O4 0.908355 0.188281 0.829930
O O5 0.000000 0.750000 0.577271
O O6 0.051641 0.628515 0.444721
O O7 0.283700 0.630261 0.119004
O O8 0.315504 0.632753 0.866263
O O9 0.300573 0.498044 0.003701
O O10 0.954795 0.000000 0.250000
O O11 0.000000 0.000000 0.500000
O O12 0.250000 0.750000 0.750000
O O13 0.242683 0.888296 0.862843
#
# Coordination Sequence:
#
# PCOD9531151 Si02
#       6
#    16  16  16  16  16   8
#     4  11  24  40  64  95 128 169 226 270 327 399
#     4  10  22  42  66  88 133 181 215 278 337 397
#     4  10  22  39  62  96 127 168 216 265 328 392
#     4  11  22  41  65  92 128 174 224 271 340 402
#     4  10  21  41  67  92 130 169 209 263 330 405
#     4  10  20  44  70  88 134 172 206 266 340 396
#
# _framework density 21.679658
#
# number of rings (size 3 to 8) (size 9 to 14) (size 15 to 20)
#    0.000    1.818    1.818    4.909    5.091    1.455 
#    0.000    1.818    0.000    0.000    0.000    0.000 
#    0.000    0.000    0.000    0.000    0.000    0.000 
#
# Total GULP energy -245587.848128 kJ/mol
# GULP energy per Si atom -5581.542003 kJ/mol
# Density = 2.163031 g / cm^3
# Si number density = 21.679658 Si / 1000 Ang^3
#
#
#
# Elastic Constant Matrix: (Units=GPa)
#
#
# Indices 1 2 3 4 5 6 
#
# 1 29.4188 14.6075 24.9198 0.0000 0.0000 0.0000
# 2 14.6075 157.2392 69.3340 0.0000 0.0000 0.0000
# 3 24.9198 69.3340 159.5507 0.0000 0.0000 0.0000
# 4 0.0000 0.0000 0.0000 52.0795 0.0000 0.0000
# 5 0.0000 0.0000 0.0000 0.0000 0.4938 0.0000
# 6 0.0000 0.0000 0.0000 0.0000 0.0000 12.8974
#
#
#
# Elastic Compliance Matrix: (Units=1/GPa)
#
#
# Indices 1 2 3 4 5 6 
#
# 1 0.039348 -0.001170 -0.005637 0.000000 0.000000 0.000000
# 2 -0.001170 0.007902 -0.003251 0.000000 0.000000 0.000000
# 3 -0.005637 -0.003251 0.008561 0.000000 0.000000 0.000000
# 4 0.000000 0.000000 0.000000 0.019201 0.000000 0.000000
# 5 0.000000 0.000000 0.000000 0.000000 2.025227 0.000000
# 6 0.000000 0.000000 0.000000 0.000000 0.000000 0.077535
#
#
# Mechanical properties :
#
#
# Convention : Reuss Voigt Hill
#
# Bulk Modulus (GPa) = 28.01561 62.65903 45.33732
# Shear Modulus (GPa) = 2.26266 28.91730 15.58998
#
# Velocity S-wave (km/s) = 1.02271 3.65615 2.68452
# Velocity P-wave (km/s) = 3.78750 6.84019 5.52871
#
# Compressibility (1/GPa) = 0.03569439
#
# Stress axis : x y z
#
# Youngs Moduli (GPa) = 25.41435 126.55027 116.80996
#
# Poissons Ratio (x) = 0.14802 0.65850
# Poissons Ratio (y) = 0.02973 0.37977
# Poissons Ratio (z) = 0.14327 0.41144
#
# Static dielectric constant tensor:
#      x y z
#    x 1.885810 0.000000 0.000000 
#    y 0.000000 1.690060 0.000000 
#    z 0.000000 0.000000 1.807820 
# 
# From -- ./inp_files/8390.got.cif
#   From: 2010.05.17/outbox.cif.g08.bks.cpg/sg73_5_cif.got.tgz:8390.got - 2010.06.03 17:35:07.
