data_PCOD9531794
_publ_section_title
;
Structure prediction by ZEFSAII (Michael W. Deem and Ramdas Pophale) SiO2 
 PCOD9531794
Probable space group: I B C A 
;
_chemical_formula_sum "Si O2"
_cell_formula_units_Z 96
_cell_length_a 11.329946
_cell_length_b 19.772024
_cell_length_c 21.089510
_cell_angle_alpha 90.000000
_cell_angle_beta 90.000000
_cell_angle_gamma 90.000000
_cell_volume 4724.386918
_symmetry_space_group_name_H-M "I B C A "
_symmetry_group_IT_number 73
_symmetry_cell_setting 'orthorhombic'
loop_
_space_group_symop_operation_xyz
x,y,z
-x,1/2-y,z
x,-y,1/2-z
1/2-x,y,-z
-x,-y,-z
x,1/2+y,-z
-x,y,1/2+z
1/2+x,-y,z
1/2+x,1/2+y,1/2+z
1/2-x,-y,1/2+z
1/2+x,1/2-y,-z
-x,1/2+y,1/2-z
1/2-x,1/2-y,1/2-z
1/2+x,y,1/2-z
1/2-x,1/2+y,z
x,1/2-y,1/2+z
loop_
_atom_site_type_symbol
_atom_site_label
_atom_site_fract_x
_atom_site_fract_y
_atom_site_fract_z
Si Si1 0.989100 0.411918 0.304939
Si Si2 0.500000 0.250000 0.021483
Si Si3 0.863100 0.877370 0.575069
Si Si4 0.798843 0.079413 0.389117
Si Si5 0.250000 0.816021 0.500000
Si Si6 0.616102 0.936268 0.553411
Si Si7 0.951304 0.567012 0.332305
O O1 0.882620 0.393069 0.351478
O O2 0.996966 0.492832 0.313752
O O3 0.975685 0.391534 0.232036
O O4 0.105358 0.389203 0.341531
O O5 0.439114 0.311085 0.060175
O O6 0.377213 0.222155 0.989324
O O7 0.723289 0.883044 0.563780
O O8 0.911784 0.931221 0.521782
O O9 0.769501 0.135823 0.440191
O O10 0.685792 0.061783 0.347269
O O11 0.839894 0.010753 0.425560
O O12 0.514777 0.914477 0.601986
#
# Coordination Sequence:
#
# PCOD9531794 Si02
#       7
#    16   8  16  16   8  16  16
#     4  10  22  36  57  91 131 166 198 251 321 396
#     4  12  26  42  64  92 132 176 224 268 322 370
#     4  11  21  42  61  88 124 170 209 265 313 379
#     4  11  22  37  65  96 127 161 207 267 331 396
#     4  12  24  42  66  98 124 168 224 274 322 382
#     4  10  22  38  64  98 129 160 204 270 337 378
#     4  10  22  35  61  94 131 165 198 255 330 402
#
# _framework density 20.320097000000001
#
# number of rings (size 3 to 8) (size 9 to 14) (size 15 to 20)
#    0.000    1.333    3.333    3.000    2.333    2.667 
#    0.000    0.000    0.000    8.000    0.000    0.000 
#    0.000    0.000    0.000    0.000    0.000    0.000 
#
# Total GULP energy -267311.115587 kJ/mol
# GULP energy per Si atom -5568.981575 kJ/mol
# Density = 2.027385 g / cm^3
# Si number density = 20.320097 Si / 1000 Ang^3
#
#
#
# Elastic Constant Matrix: (Units=GPa)
#
#
# Indices 1 2 3 4 5 6 
#
# 1 80.7271 19.0737 6.0151 0.0000 0.0000 0.0000
# 2 19.0737 51.0794 13.2368 0.0000 0.0000 0.0000
# 3 6.0151 13.2368 93.0574 0.0000 0.0000 0.0000
# 4 0.0000 0.0000 0.0000 8.5003 0.0000 0.0000
# 5 0.0000 0.0000 0.0000 0.0000 165.7861 0.0000
# 6 0.0000 0.0000 0.0000 0.0000 0.0000 383.0183
#
#
#
# Elastic Compliance Matrix: (Units=1/GPa)
#
#
# Indices 1 2 3 4 5 6 
#
# 1 0.013588 -0.005032 -0.000163 0.000000 0.000000 0.000000
# 2 -0.005032 0.022190 -0.002831 0.000000 0.000000 0.000000
# 3 -0.000163 -0.002831 0.011159 0.000000 0.000000 0.000000
# 4 0.000000 0.000000 0.000000 0.117642 0.000000 0.000000
# 5 0.000000 0.000000 0.000000 0.000000 0.006032 0.000000
# 6 0.000000 0.000000 0.000000 0.000000 0.000000 0.002611
#
#
# Mechanical properties :
#
#
# Convention : Reuss Voigt Hill
#
# Bulk Modulus (GPa) = 32.37669 33.50167 32.93918
# Shear Modulus (GPa) = 25.05392 123.89683 74.47538
#
# Velocity S-wave (km/s) = 3.51517 7.81696 6.06058
# Velocity P-wave (km/s) = 5.69589 9.89929 8.07586
#
# Compressibility (1/GPa) = 0.03088641
#
# Stress axis : x y z
#
# Youngs Moduli (GPa) = 73.59187 45.06525 89.61159
#
# Poissons Ratio (x) = 0.22677 0.01457
# Poissons Ratio (y) = 0.37031 0.25370
# Poissons Ratio (z) = 0.01196 0.12759
#
# Static dielectric constant tensor:
#      x y z
#    x 1.799880 0.000000 0.000000 
#    y 0.000000 1.745630 0.000000 
#    z 0.000000 0.000000 1.438740 
# 
# From -- ./inp_files/25493.got.cif
#   From: 2010.05.17/outbox.cif.g08.bks.cpg/sg73_13_cif.got.tgz:25493.got - 2010.06.03 17:35:07.
