data_PCOD9531904
_publ_section_title
;
Structure prediction by ZEFSAII (Michael W. Deem and Ramdas Pophale) SiO2 
 PCOD9531904
Probable space group: I B C A 
;
_chemical_formula_sum "Si O2"
_cell_formula_units_Z 88
_cell_length_a 8.927505
_cell_length_b 27.289879
_cell_length_c 19.235866
_cell_angle_alpha 90.000000
_cell_angle_beta 90.000000
_cell_angle_gamma 90.000000
_cell_volume 4686.444252
_symmetry_space_group_name_H-M "I B C A "
_symmetry_group_IT_number 73
_symmetry_cell_setting 'orthorhombic'
loop_
_space_group_symop_operation_xyz
x,y,z
-x,1/2-y,z
x,-y,1/2-z
1/2-x,y,-z
-x,-y,-z
x,1/2+y,-z
-x,y,1/2+z
1/2+x,-y,z
1/2+x,1/2+y,1/2+z
1/2-x,-y,1/2+z
1/2+x,1/2-y,-z
-x,1/2+y,1/2-z
1/2-x,1/2-y,1/2-z
1/2+x,y,1/2-z
1/2-x,1/2+y,z
x,1/2-y,1/2+z
loop_
_atom_site_type_symbol
_atom_site_label
_atom_site_fract_x
_atom_site_fract_y
_atom_site_fract_z
Si Si1 0.720446 0.799222 0.791708
Si Si2 0.750279 0.866633 0.417361
Si Si3 0.315635 0.748010 0.425776
Si Si4 0.444283 0.138693 0.706981
Si Si5 0.359360 0.000000 0.750000
Si Si6 0.595706 0.434843 0.309824
O O1 0.750000 0.750000 0.750000
O O2 0.754501 0.785624 0.870680
O O3 0.547584 0.813565 0.793609
O O4 0.806461 0.843435 0.754451
O O5 0.750000 0.877096 0.500000
O O6 0.748788 0.807020 0.410280
O O7 0.603598 0.877202 0.370072
O O8 0.874367 0.899038 0.375774
O O9 0.500000 0.750000 0.425661
O O10 0.250000 0.761260 0.500000
O O11 0.535129 0.097645 0.746552
O O12 0.249133 0.039116 0.713679
O O13 0.466523 0.023592 0.809425
#
# Coordination Sequence:
#
# PCOD9531904 Si02
#       6
#    16  16  16  16   8  16
#     4  12  21  35  57  88 117 163 220 258 288 355
#     4  11  23  39  62  89 133 168 201 259 316 364
#     4  11  23  39  55  84 128 172 213 262 307 351
#     4  12  21  38  64  87 124 162 209 257 307 366
#     4  10  22  38  74  94 122 140 212 260 314 384
#     4  11  21  42  65  98 116 161 198 258 318 383
#
# _framework density 18.777562
#
# number of rings (size 3 to 8) (size 9 to 14) (size 15 to 20)
#    0.000    0.727    7.273    0.545    0.000    4.364 
#    0.000    0.909    0.000    0.000    0.000    0.000 
#    0.000    0.000    0.000    0.000    0.000    0.000 
#
# Total GULP energy -244980.369971 kJ/mol
# GULP energy per Si atom -5567.735681 kJ/mol
# Density = 1.873482 g / cm^3
# Si number density = 18.777562 Si / 1000 Ang^3
#
#
#
# Elastic Constant Matrix: (Units=GPa)
#
#
# Indices 1 2 3 4 5 6 
#
# 1 97.5429 44.8051 50.2041 0.0000 0.0000 0.0000
# 2 44.8051 67.8247 40.9016 0.0000 0.0000 0.0000
# 3 50.2041 40.9016 139.1202 0.0000 0.0000 0.0000
# 4 0.0000 0.0000 0.0000 24.4225 0.0000 0.0000
# 5 0.0000 0.0000 0.0000 0.0000 27.8092 0.0000
# 6 0.0000 0.0000 0.0000 0.0000 0.0000 48.5901
#
#
#
# Elastic Compliance Matrix: (Units=1/GPa)
#
#
# Indices 1 2 3 4 5 6 
#
# 1 0.015811 -0.008513 -0.003203 0.000000 0.000000 0.000000
# 2 -0.008513 0.022505 -0.003544 0.000000 0.000000 0.000000
# 3 -0.003203 -0.003544 0.009386 0.000000 0.000000 0.000000
# 4 0.000000 0.000000 0.000000 0.040946 0.000000 0.000000
# 5 0.000000 0.000000 0.000000 0.000000 0.035959 0.000000
# 6 0.000000 0.000000 0.000000 0.000000 0.000000 0.020580
#
#
# Mechanical properties :
#
#
# Convention : Reuss Voigt Hill
#
# Bulk Modulus (GPa) = 58.20341 64.03435 61.11888
# Shear Modulus (GPa) = 27.55809 31.40282 29.48046
#
# Velocity S-wave (km/s) = 3.83509 4.09389 3.96660
# Velocity P-wave (km/s) = 7.11858 7.51812 7.32107
#
# Compressibility (1/GPa) = 0.01718112
#
# Stress axis : x y z
#
# Youngs Moduli (GPa) = 63.24824 44.43419 106.54337
#
# Poissons Ratio (x) = 0.37828 0.34123
# Poissons Ratio (y) = 0.53844 0.37764
# Poissons Ratio (z) = 0.20256 0.15749
#
# Static dielectric constant tensor:
#      x y z
#    x 1.883680 0.000000 0.000000 
#    y 0.000000 1.732900 0.000000 
#    z 0.000000 0.000000 1.739060 
# 
# From -- ./inp_files/20837.got.cif
#   From: 2010.05.17/outbox.cif.g08.bks.cpg/sg73_11_cif.got.tgz:20837.got - 2010.06.03 17:35:07.
