data_PCOD9531027
_publ_section_title
;
Structure prediction by ZEFSAII (Michael W. Deem and Ramdas Pophale) SiO2 
 PCOD9531027
Probable space group: I B C A 
;
_chemical_formula_sum "Si O2"
_cell_formula_units_Z 96
_cell_length_a 21.097985
_cell_length_b 16.261020
_cell_length_c 13.324181
_cell_angle_alpha 90.000000
_cell_angle_beta 90.000000
_cell_angle_gamma 90.000000
_cell_volume 4571.190146
_symmetry_space_group_name_H-M "I B C A "
_symmetry_group_IT_number 73
_symmetry_cell_setting 'orthorhombic'
loop_
_space_group_symop_operation_xyz
x,y,z
-x,1/2-y,z
x,-y,1/2-z
1/2-x,y,-z
-x,-y,-z
x,1/2+y,-z
-x,y,1/2+z
1/2+x,-y,z
1/2+x,1/2+y,1/2+z
1/2-x,-y,1/2+z
1/2+x,1/2-y,-z
-x,1/2+y,1/2-z
1/2-x,1/2-y,1/2-z
1/2+x,y,1/2-z
1/2-x,1/2+y,z
x,1/2-y,1/2+z
loop_
_atom_site_type_symbol
_atom_site_label
_atom_site_fract_x
_atom_site_fract_y
_atom_site_fract_z
Si Si1 0.887482 0.637027 0.562454
Si Si2 0.066210 0.500000 0.750000
Si Si3 0.155569 0.209489 0.345207
Si Si4 0.982852 0.340065 0.346906
Si Si5 0.750000 0.862267 0.500000
Si Si6 0.832696 0.391521 0.141187
Si Si7 0.202338 0.507924 0.131562
O O1 0.857791 0.693786 0.650524
O O2 0.859707 0.658221 0.453502
O O3 0.859710 0.548172 0.584496
O O4 0.962648 0.645600 0.571469
O O5 0.023118 0.577703 0.719217
O O6 0.115510 0.537382 0.832129
O O7 0.088990 0.171271 0.383165
O O8 0.207683 0.191047 0.426960
O O9 0.171227 0.166873 0.239294
O O10 0.000000 0.250000 0.298755
O O11 0.713296 0.922941 0.575125
O O12 0.765716 0.435199 0.117738
O O13 0.195503 0.500000 0.250000
#
# Coordination Sequence:
#
# PCOD9531027 Si02
#       7
#    16   8  16  16   8  16  16
#     4  11  25  40  66  98 133 170 222 278 330 395
#     4  10  20  40  72  90 128 194 218 266 348 402
#     4  10  24  44  67  93 131 177 218 271 337 399
#     4   9  21  44  63  97 137 173 227 271 327 407
#     4  12  22  40  66  94 124 170 220 264 324 400
#     4  11  21  42  67  91 131 180 216 267 341 409
#     4  12  23  39  60  97 133 162 218 276 320 393
#
# _framework density 21.001094999999999
#
# number of rings (size 3 to 8) (size 9 to 14) (size 15 to 20)
#    0.000    1.333    4.167    1.000    3.500    2.667 
#    0.000   20.000    0.000    0.000    0.000    0.000 
#    0.000    0.000    0.000    0.000    0.000    0.000 
#
# Total GULP energy -267780.851689 kJ/mol
# GULP energy per Si atom -5578.767744 kJ/mol
# Density = 2.095330 g / cm^3
# Si number density = 21.001095 Si / 1000 Ang^3
#
#
#
# Elastic Constant Matrix: (Units=GPa)
#
#
# Indices 1 2 3 4 5 6 
#
# 1 52.3017 3.9351 10.8096 0.0000 0.0000 0.0000
# 2 3.9351 60.0040 -2.6948 0.0000 0.0000 0.0000
# 3 10.8096 -2.6948 81.3475 0.0000 0.0000 0.0000
# 4 0.0000 0.0000 0.0000 -34.9880 0.0000 0.0000
# 5 0.0000 0.0000 0.0000 0.0000 23.9551 0.0000
# 6 0.0000 0.0000 0.0000 0.0000 0.0000 24.0666
#
#
#
# Elastic Compliance Matrix: (Units=1/GPa)
#
#
# Indices 1 2 3 4 5 6 
#
# 1 0.019779 -0.001417 -0.002675 0.000000 0.000000 0.000000
# 2 -0.001417 0.016792 0.000745 0.000000 0.000000 0.000000
# 3 -0.002675 0.000745 0.012673 0.000000 0.000000 0.000000
# 4 0.000000 0.000000 0.000000 -0.028581 0.000000 0.000000
# 5 0.000000 0.000000 0.000000 0.000000 0.041745 0.000000
# 6 0.000000 0.000000 0.000000 0.000000 0.000000 0.041551
#
#
# Mechanical properties :
#
#
# Convention : Reuss Voigt Hill
#
# Bulk Modulus (GPa) = 23.50259 24.19479 23.84869
# Shear Modulus (GPa) = 40.05188 14.71362 27.38275
#
# Velocity S-wave (km/s) = 4.37181 2.64978 3.61484
# Velocity P-wave (km/s) = 6.05798 4.57247 5.36687
#
# Compressibility (1/GPa) = 0.04254849
#
# Stress axis : x y z
#
# Youngs Moduli (GPa) = 50.55770 59.55234 78.90731
#
# Poissons Ratio (x) = 0.08440 0.21110
# Poissons Ratio (y) = 0.07166 -0.05875
# Poissons Ratio (z) = 0.13526 -0.04434
#
# Static dielectric constant tensor:
#      x y z
#    x 1.761750 0.000000 0.000000 
#    y 0.000000 1.800740 0.000000 
#    z 0.000000 0.000000 1.765340 
# 
# From -- ./inp_files/18676.got.cif
#   From: 2010.05.17/outbox.cif.g08.bks.cpg/sg73_10_cif.got.tgz:18676.got - 2010.06.03 17:35:07.
