data_PCOD9531911
_publ_section_title
;
Structure prediction by ZEFSAII (Michael W. Deem and Ramdas Pophale) SiO2 
 PCOD9531911
Probable space group: I B C A 
;
_chemical_formula_sum "Si O2"
_cell_formula_units_Z 88
_cell_length_a 14.673351
_cell_length_b 29.224644
_cell_length_c 10.097484
_cell_angle_alpha 90.000000
_cell_angle_beta 90.000000
_cell_angle_gamma 90.000000
_cell_volume 4330.038019
_symmetry_space_group_name_H-M "I B C A "
_symmetry_group_IT_number 73
_symmetry_cell_setting 'orthorhombic'
loop_
_space_group_symop_operation_xyz
x,y,z
-x,1/2-y,z
x,-y,1/2-z
1/2-x,y,-z
-x,-y,-z
x,1/2+y,-z
-x,y,1/2+z
1/2+x,-y,z
1/2+x,1/2+y,1/2+z
1/2-x,-y,1/2+z
1/2+x,1/2-y,-z
-x,1/2+y,1/2-z
1/2-x,1/2-y,1/2-z
1/2+x,y,1/2-z
1/2-x,1/2+y,z
x,1/2-y,1/2+z
loop_
_atom_site_type_symbol
_atom_site_label
_atom_site_fract_x
_atom_site_fract_y
_atom_site_fract_z
Si Si1 0.570327 0.359533 0.647859
Si Si2 0.596577 0.862226 0.663224
Si Si3 0.391707 0.450130 0.313998
Si Si4 0.250000 0.479499 0.500000
Si Si5 0.239086 0.292477 0.846759
Si Si6 0.090661 0.536237 0.366954
O O1 0.560360 0.360653 0.488940
O O2 0.479304 0.349410 0.729715
O O3 0.598426 0.409557 0.706982
O O4 0.646073 0.320875 0.673672
O O5 0.680672 0.828746 0.675266
O O6 0.625813 0.914859 0.682335
O O7 0.384959 0.500000 0.250000
O O8 0.298403 0.446749 0.394197
O O9 0.484531 0.452614 0.404118
O O10 0.166869 0.512832 0.457559
O O11 0.250000 0.250000 0.750000
O O12 0.250000 0.277583 0.000000
O O13 0.081089 0.500000 0.250000
#
# Coordination Sequence:
#
# PCOD9531911 Si02
#       6
#    16  16  16   8  16  16
#     4  10  23  44  66  95 128 173 209 263 317 382
#     4  10  23  43  69  91 131 170 213 258 321 378
#     4  10  22  39  56  87 132 171 218 260 315 375
#     4  12  22  32  60  92 124 178 222 268 302 370
#     4  10  24  45  69  96 127 163 207 265 326 386
#     4  10  23  38  58  88 131 176 215 260 314 372
#
# _framework density 20.323146000000001
#
# number of rings (size 3 to 8) (size 9 to 14) (size 15 to 20)
#    0.000    1.818    0.000    2.182    8.909    9.455 
#    1.636    3.636    0.000    0.000    0.000    0.000 
#    0.000    0.000    0.000    0.000    0.000    0.000 
#
# Total GULP energy -245554.450061 kJ/mol
# GULP energy per Si atom -5580.782956 kJ/mol
# Density = 2.027689 g / cm^3
# Si number density = 20.323146 Si / 1000 Ang^3
#
#
#
# Elastic Constant Matrix: (Units=GPa)
#
#
# Indices 1 2 3 4 5 6 
#
# 1 60.9934 10.7356 37.0196 -0.0001 0.0005 0.0000
# 2 10.7356 84.5922 29.7106 -0.0009 0.0014 0.0000
# 3 37.0196 29.7106 44.1050 -0.0032 0.0053 0.0003
# 4 -0.0001 -0.0009 -0.0032 34.9364 0.0008 0.0001
# 5 0.0005 0.0014 0.0053 0.0008 -84.5859 -0.0006
# 6 0.0000 0.0000 0.0003 0.0001 -0.0006 24.0290
#
#
#
# Elastic Compliance Matrix: (Units=1/GPa)
#
#
# Indices 1 2 3 4 5 6 
#
# 1 0.037317 0.008207 -0.036850 -0.000003 -0.000002 0.000000
# 2 0.008207 0.017290 -0.018535 -0.000001 -0.000001 0.000000
# 3 -0.036850 -0.018535 0.066090 0.000005 0.000004 -0.000001
# 4 -0.000003 -0.000001 0.000005 0.028623 0.000000 0.000000
# 5 -0.000002 -0.000001 0.000004 0.000000 -0.011822 0.000000
# 6 0.000000 0.000000 -0.000001 0.000000 0.000000 0.041616
#
#
# Mechanical properties :
#
#
# Convention : Reuss Voigt Hill
#
# Bulk Modulus (GPa) = 37.96735 38.29138 38.12937
# Shear Modulus (GPa) = 17.71471 2.35755 10.03613
#
# Velocity S-wave (km/s) = 2.95558 1.07822 2.22463
# Velocity P-wave (km/s) = 5.51087 4.52020 5.03993
#
# Compressibility (1/GPa) = 0.02633842
#
# Stress axis : x y z
#
# Youngs Moduli (GPa) = 26.79756 57.83713 15.13097
#
# Poissons Ratio (x) = -0.47465 0.55758
# Poissons Ratio (y) = -0.21992 0.28046
# Poissons Ratio (z) = 0.98750 1.07203
#
# Static dielectric constant tensor:
#      x y z
#    x 1.760330 0.000000 0.000000 
#    y 0.000000 1.699700 0.000000 
#    z 0.000000 0.000000 1.789430 
# 
# From -- ./inp_files/11110.got.cif
#   From: 2010.05.17/outbox.cif.g08.bks.cpg/sg73_6_cif.got.tgz:11110.got - 2010.06.03 17:35:07.
