data_PCOD9531343
_publ_section_title
;
Structure prediction by ZEFSAII (Michael W. Deem and Ramdas Pophale) SiO2 
 PCOD9531343
Probable space group: I B C A 
;
_chemical_formula_sum "Si O2"
_cell_formula_units_Z 88
_cell_length_a 28.719312
_cell_length_b 25.631200
_cell_length_c 5.204907
_cell_angle_alpha 90.000000
_cell_angle_beta 90.000000
_cell_angle_gamma 90.000000
_cell_volume 3831.386328
_symmetry_space_group_name_H-M "I B C A "
_symmetry_group_IT_number 73
_symmetry_cell_setting 'orthorhombic'
loop_
_space_group_symop_operation_xyz
x,y,z
-x,1/2-y,z
x,-y,1/2-z
1/2-x,y,-z
-x,-y,-z
x,1/2+y,-z
-x,y,1/2+z
1/2+x,-y,z
1/2+x,1/2+y,1/2+z
1/2-x,-y,1/2+z
1/2+x,1/2-y,-z
-x,1/2+y,1/2-z
1/2-x,1/2-y,1/2-z
1/2+x,y,1/2-z
1/2-x,1/2+y,z
x,1/2-y,1/2+z
loop_
_atom_site_type_symbol
_atom_site_label
_atom_site_fract_x
_atom_site_fract_y
_atom_site_fract_z
Si Si1 0.925876 0.941947 0.373662
Si Si2 0.378388 0.500000 0.250000
Si Si3 0.878136 0.216930 0.985412
Si Si4 0.171570 0.885615 0.894568
Si Si5 0.974040 0.337254 0.653446
Si Si6 0.702304 0.560920 0.575030
O O1 0.878273 0.910913 0.310284
O O2 0.966130 0.900022 0.343806
O O3 0.932041 0.000000 0.250000
O O4 0.913106 0.954526 0.669168
O O5 0.341251 0.478642 0.454799
O O6 0.874874 0.262521 0.196166
O O7 0.839053 0.173470 0.034748
O O8 0.927443 0.189305 0.047198
O O9 0.201463 0.894565 0.641275
O O10 0.193272 0.914925 0.142712
O O11 0.013215 0.322601 0.444301
O O12 0.750000 0.532130 0.500000
#
# Coordination Sequence:
#
# PCOD9531343 Si02
#       6
#    16   8  16  16  16  16
#     4  10  21  38  61  81 123 169 208 244 296 353
#     4  10  22  36  60  88 122 168 224 246 280 362
#     4  11  23  42  71  92 114 159 208 257 314 370
#     4  10  22  40  61  91 124 159 208 253 299 377
#     4  11  26  41  59  92 127 156 201 256 310 368
#     4  11  22  37  61  91 129 164 199 255 311 349
#
# _framework density 22.968188000000001
#
# number of rings (size 3 to 8) (size 9 to 14) (size 15 to 20)
#    0.000    1.455    1.818    2.727    2.545    8.727 
#    0.000    0.000    0.000   10.909    0.000    0.000 
#    0.000    0.000    0.000    0.000    0.000    0.000 
#
# Total GULP energy -245393.577573 kJ/mol
# GULP energy per Si atom -5577.126763 kJ/mol
# Density = 2.291591 g / cm^3
# Si number density = 22.968188 Si / 1000 Ang^3
#
#
#
# Elastic Constant Matrix: (Units=GPa)
#
#
# Indices 1 2 3 4 5 6 
#
# 1 24.6193 3.7773 28.0287 0.0000 0.0000 0.0000
# 2 3.7773 56.4481 -7.2420 0.0000 0.0000 0.0000
# 3 28.0287 -7.2420 80.1528 0.0000 0.0000 0.0000
# 4 0.0000 0.0000 0.0000 31.6923 0.0000 0.0000
# 5 0.0000 0.0000 0.0000 0.0000 21.8757 0.0000
# 6 0.0000 0.0000 0.0000 0.0000 0.0000 16.8471
#
#
#
# Elastic Compliance Matrix: (Units=1/GPa)
#
#
# Indices 1 2 3 4 5 6 
#
# 1 0.070900 -0.008018 -0.025518 0.000000 0.000000 0.000000
# 2 -0.008018 0.018830 0.004505 0.000000 0.000000 0.000000
# 3 -0.025518 0.004505 0.021807 0.000000 0.000000 0.000000
# 4 0.000000 0.000000 0.000000 0.031553 0.000000 0.000000
# 5 0.000000 0.000000 0.000000 0.000000 0.045713 0.000000
# 6 0.000000 0.000000 0.000000 0.000000 0.000000 0.059357
#
#
# Mechanical properties :
#
#
# Convention : Reuss Voigt Hill
#
# Bulk Modulus (GPa) = 18.70015 23.37204 21.03609
# Shear Modulus (GPa) = 15.42985 23.19342 19.31163
#
# Velocity S-wave (km/s) = 2.59471 3.18119 2.90280
# Velocity P-wave (km/s) = 4.13958 4.86736 4.51815
#
# Compressibility (1/GPa) = 0.05347551
#
# Stress axis : x y z
#
# Youngs Moduli (GPa) = 14.10428 53.10694 45.85776
#
# Poissons Ratio (x) = 0.42582 1.17019
# Poissons Ratio (y) = 0.11309 -0.20660
# Poissons Ratio (z) = 0.35991 -0.23926
#
# Static dielectric constant tensor:
#      x y z
#    x 1.901050 0.000000 0.000000 
#    y 0.000000 1.900450 0.000000 
#    z 0.000000 0.000000 1.921040 
# 
# From -- ./inp_files/2263.got.cif
#   From: 2010.05.17/outbox.cif.g08.bks.cpg/sg73_2_cif.got.tgz:2263.got - 2010.06.03 17:35:07.
