data_PCOD9531962
_publ_section_title
;
Structure prediction by ZEFSAII (Michael W. Deem and Ramdas Pophale) SiO2 
 PCOD9531962
Probable space group: I B C A 
;
_chemical_formula_sum "Si O2"
_cell_formula_units_Z 72
_cell_length_a 33.687081
_cell_length_b 23.541457
_cell_length_c 5.123209
_cell_angle_alpha 90.000000
_cell_angle_beta 90.000000
_cell_angle_gamma 90.000000
_cell_volume 4062.924875
_symmetry_space_group_name_H-M "I B C A "
_symmetry_group_IT_number 73
_symmetry_cell_setting 'orthorhombic'
loop_
_space_group_symop_operation_xyz
x,y,z
-x,1/2-y,z
x,-y,1/2-z
1/2-x,y,-z
-x,-y,-z
x,1/2+y,-z
-x,y,1/2+z
1/2+x,-y,z
1/2+x,1/2+y,1/2+z
1/2-x,-y,1/2+z
1/2+x,1/2-y,-z
-x,1/2+y,1/2-z
1/2-x,1/2-y,1/2-z
1/2+x,y,1/2-z
1/2-x,1/2+y,z
x,1/2-y,1/2+z
loop_
_atom_site_type_symbol
_atom_site_label
_atom_site_fract_x
_atom_site_fract_y
_atom_site_fract_z
Si Si1 0.797704 0.715909 0.984984
Si Si2 0.722695 0.000000 0.750000
Si Si3 0.884941 0.931258 0.759088
Si Si4 0.976381 0.068968 0.738743
Si Si5 0.661767 0.897237 0.732248
O O1 0.807967 0.733561 0.280655
O O2 0.750000 0.707529 0.000000
O O3 0.818354 0.661189 0.860299
O O4 0.750000 0.010474 0.500000
O O5 0.694810 0.053955 0.797973
O O6 0.930728 0.916446 0.813535
O O7 0.872876 0.910278 0.473746
O O8 0.880516 0.000000 0.750000
O O9 0.856303 0.904202 0.978127
O O10 0.005995 0.088568 0.513002
O O11 0.977192 0.000000 0.750000
#
# Coordination Sequence:
#
# PCOD9531962 Si02
#       5
#    16   8  16  16  16
#     4  10  22  40  59  78 102 140 188 241 284 314
#     4  12  24  36  52  76 108 146 180 212 262 332
#     4  11  20  34  52  79 117 148 177 216 275 325
#     4   9  17  29  47  72 105 148 183 209 247 318
#     4  12  22  37  55  80 111 145 182 226 275 332
#
# _framework density 17.721223999999999
#
# number of rings (size 3 to 8) (size 9 to 14) (size 15 to 20)
#    0.000    1.333    2.222    4.667    0.000    6.222 
#    0.000    0.000    0.000    0.000    0.000    0.000 
#    0.000   62.222    0.000    0.000    0.000    0.000 
#
# Total GULP energy -200906.698887 kJ/mol
# GULP energy per Si atom -5580.741636 kJ/mol
# Density = 1.768089 g / cm^3
# Si number density = 17.721224 Si / 1000 Ang^3
#
#
#
# Elastic Constant Matrix: (Units=GPa)
#
#
# Indices 1 2 3 4 5 6 
#
# 1 68.6636 26.9707 11.9094 0.0000 0.0000 0.0000
# 2 26.9707 59.6817 3.0995 0.0000 0.0000 0.0000
# 3 11.9094 3.0995 80.7828 0.0000 0.0000 0.0000
# 4 0.0000 0.0000 0.0000 23.5066 0.0000 0.0000
# 5 0.0000 0.0000 0.0000 0.0000 47.3954 0.0000
# 6 0.0000 0.0000 0.0000 0.0000 0.0000 10.7303
#
#
#
# Elastic Compliance Matrix: (Units=1/GPa)
#
#
# Indices 1 2 3 4 5 6 
#
# 1 0.018147 -0.008078 -0.002365 0.000000 0.000000 0.000000
# 2 -0.008078 0.020385 0.000409 0.000000 0.000000 0.000000
# 3 -0.002365 0.000409 0.012712 0.000000 0.000000 0.000000
# 4 0.000000 0.000000 0.000000 0.042541 0.000000 0.000000
# 5 0.000000 0.000000 0.000000 0.000000 0.021099 0.000000
# 6 0.000000 0.000000 0.000000 0.000000 0.000000 0.093194
#
#
# Mechanical properties :
#
#
# Convention : Reuss Voigt Hill
#
# Bulk Modulus (GPa) = 32.07741 32.56525 32.32133
# Shear Modulus (GPa) = 20.96097 27.46970 24.21533
#
# Velocity S-wave (km/s) = 3.44294 3.94140 3.70058
# Velocity P-wave (km/s) = 5.82628 6.25533 6.04462
#
# Compressibility (1/GPa) = 0.03117459
#
# Stress axis : x y z
#
# Youngs Moduli (GPa) = 55.10552 49.05613 78.66646
#
# Poissons Ratio (x) = 0.39627 0.18608
# Poissons Ratio (y) = 0.44514 -0.03216
# Poissons Ratio (z) = 0.13035 -0.02005
#
# Static dielectric constant tensor:
#      x y z
#    x 1.582990 0.000000 0.000000 
#    y 0.000000 1.597250 0.000000 
#    z 0.000000 0.000000 1.563280 
# 
# From -- ./inp_files/1694.got.cif
#   From: 2010.05.17/outbox.cif.g08.bks.cpg/sg73_1_cif.got.tgz:1694.got - 2010.06.03 17:35:07.
