data_PCOD9531750
_publ_section_title
;
Structure prediction by ZEFSAII (Michael W. Deem and Ramdas Pophale) SiO2 
 PCOD9531750
Probable space group: I B C A 
;
_chemical_formula_sum "Si O2"
_cell_formula_units_Z 96
_cell_length_a 11.314292
_cell_length_b 14.774015
_cell_length_c 23.184304
_cell_angle_alpha 90.000000
_cell_angle_beta 90.000000
_cell_angle_gamma 90.000000
_cell_volume 3875.430753
_symmetry_space_group_name_H-M "I B C A "
_symmetry_group_IT_number 73
_symmetry_cell_setting 'orthorhombic'
loop_
_space_group_symop_operation_xyz
x,y,z
-x,1/2-y,z
x,-y,1/2-z
1/2-x,y,-z
-x,-y,-z
x,1/2+y,-z
-x,y,1/2+z
1/2+x,-y,z
1/2+x,1/2+y,1/2+z
1/2-x,-y,1/2+z
1/2+x,1/2-y,-z
-x,1/2+y,1/2-z
1/2-x,1/2-y,1/2-z
1/2+x,y,1/2-z
1/2-x,1/2+y,z
x,1/2-y,1/2+z
loop_
_atom_site_type_symbol
_atom_site_label
_atom_site_fract_x
_atom_site_fract_y
_atom_site_fract_z
Si Si1 0.489025 0.894563 0.020854
Si Si2 0.259878 0.155691 0.407429
Si Si3 0.297203 0.538750 0.065902
Si Si4 0.501395 0.853536 0.281681
Si Si5 0.266163 0.647167 0.726167
Si Si6 0.896866 0.164136 0.405181
O O1 0.368646 0.857288 0.047833
O O2 0.589200 0.897453 0.070440
O O3 0.535035 0.842739 0.965286
O O4 0.500000 0.000000 0.000000
O O5 0.298486 0.149636 0.341189
O O6 0.187847 0.248640 0.410887
O O7 0.183146 0.065520 0.419953
O O8 0.189999 0.578532 0.101961
O O9 0.250000 0.545537 0.000000
O O10 0.500000 0.750000 0.258118
O O11 0.631997 0.892234 0.269204
O O12 0.379215 0.894908 0.258239
O O13 0.481694 0.841929 0.350305
O O14 0.250000 0.750000 0.750000
#
# Coordination Sequence:
#
# PCOD9531750 Si02
#       6
#    16  16  16  16  16  16
#     4  11  25  49  71 106 166 201 259 334 389 476
#     4  12  24  46  81 106 153 216 250 322 423 465
#     4  10  24  46  65 105 157 194 254 329 377 472
#     4  10  21  44  73 108 150 194 258 335 387 463
#     4  10  22  43  75 111 149 197 265 334 384 472
#     4  11  24  46  73 114 151 201 258 319 393 493
#
# _framework density 24.771440999999999
#
# number of rings (size 3 to 8) (size 9 to 14) (size 15 to 20)
#    0.000    1.333    6.667    0.000    2.333    4.000 
#   15.000    0.833    0.000    2.000    0.000    0.000 
#    0.000    0.000    0.000    0.000    0.000    0.000 
#
# Total GULP energy -268266.668820 kJ/mol
# GULP energy per Si atom -5588.888934 kJ/mol
# Density = 2.471506 g / cm^3
# Si number density = 24.771441 Si / 1000 Ang^3
#
#
#
# Elastic Constant Matrix: (Units=GPa)
#
#
# Indices 1 2 3 4 5 6 
#
# 1 213.2913 37.9765 73.7375 0.0000 0.0000 0.0000
# 2 37.9765 104.0670 26.2176 0.0000 0.0000 0.0000
# 3 73.7375 26.2176 120.0647 0.0000 0.0000 0.0000
# 4 0.0000 0.0000 0.0000 5.5927 0.0000 0.0000
# 5 0.0000 0.0000 0.0000 0.0000 53.0650 0.0000
# 6 0.0000 0.0000 0.0000 0.0000 0.0000 32.6953
#
#
#
# Elastic Compliance Matrix: (Units=1/GPa)
#
#
# Indices 1 2 3 4 5 6 
#
# 1 0.006130 -0.001363 -0.003467 0.000000 0.000000 0.000000
# 2 -0.001363 0.010472 -0.001449 0.000000 0.000000 0.000000
# 3 -0.003467 -0.001449 0.010774 0.000000 0.000000 0.000000
# 4 0.000000 0.000000 0.000000 0.178806 0.000000 0.000000
# 5 0.000000 0.000000 0.000000 0.000000 0.018845 0.000000
# 6 0.000000 0.000000 0.000000 0.000000 0.000000 0.030585
#
#
# Mechanical properties :
#
#
# Convention : Reuss Voigt Hill
#
# Bulk Modulus (GPa) = 67.49063 79.25405 73.37234
# Shear Modulus (GPa) = 18.30763 38.23668 28.27215
#
# Velocity S-wave (km/s) = 2.72152 3.93310 3.38201
# Velocity P-wave (km/s) = 6.09754 7.25874 6.70333
#
# Compressibility (1/GPa) = 0.01481687
#
# Stress axis : x y z
#
# Youngs Moduli (GPa) = 163.13970 95.49384 92.81216
#
# Poissons Ratio (x) = 0.13020 0.32176
# Poissons Ratio (y) = 0.22244 0.13451
# Poissons Ratio (z) = 0.56558 0.13840
#
# Static dielectric constant tensor:
#      x y z
#    x 2.163340 0.000000 0.000000 
#    y 0.000000 1.974260 0.000000 
#    z 0.000000 0.000000 1.964820 
# 
# From -- ./inp_files/21370.got.cif
#   From: 2010.05.17/outbox.cif.g08.bks.cpg/sg73_11_cif.got.tgz:21370.got - 2010.06.03 17:35:07.
