data_PCOD9531081
_publ_section_title
;
Structure prediction by ZEFSAII (Michael W. Deem and Ramdas Pophale) SiO2 
 PCOD9531081
Probable space group: I B C A 
;
_chemical_formula_sum "Si O2"
_cell_formula_units_Z 64
_cell_length_a 11.000612
_cell_length_b 20.803777
_cell_length_c 13.208269
_cell_angle_alpha 90.000000
_cell_angle_beta 90.000000
_cell_angle_gamma 90.000000
_cell_volume 3022.768878
_symmetry_space_group_name_H-M "I B C A "
_symmetry_group_IT_number 73
_symmetry_cell_setting 'orthorhombic'
loop_
_space_group_symop_operation_xyz
x,y,z
-x,1/2-y,z
x,-y,1/2-z
1/2-x,y,-z
-x,-y,-z
x,1/2+y,-z
-x,y,1/2+z
1/2+x,-y,z
1/2+x,1/2+y,1/2+z
1/2-x,-y,1/2+z
1/2+x,1/2-y,-z
-x,1/2+y,1/2-z
1/2-x,1/2-y,1/2-z
1/2+x,y,1/2-z
1/2-x,1/2+y,z
x,1/2-y,1/2+z
loop_
_atom_site_type_symbol
_atom_site_label
_atom_site_fract_x
_atom_site_fract_y
_atom_site_fract_z
Si Si1 0.250000 0.794906 0.500000
Si Si2 0.326209 0.910283 0.098799
Si Si3 0.283135 0.500000 0.250000
Si Si4 0.330310 0.708616 0.325969
Si Si5 0.086531 0.373957 0.658704
O O1 0.339400 0.749729 0.430294
O O2 0.177342 0.838780 0.419709
O O3 0.254677 0.850885 0.146361
O O4 0.465334 0.890041 0.096642
O O5 0.306500 0.971891 0.166793
O O6 0.250000 0.924404 0.000000
O O7 0.361354 0.440950 0.295945
O O8 0.250000 0.750000 0.250000
O O9 0.434121 0.675161 0.255188
#
# Coordination Sequence:
#
# PCOD9531081 Si02
#       5
#     8  16   8  16  16
#     4  10  20  42  66 100 128 176 222 262 332 404
#     4  11  23  44  67  97 131 172 226 271 336 401
#     4  10  24  46  64  94 130 176 224 280 336 386
#     4   9  20  42  61  95 133 166 214 261 328 395
#     4  10  23  43  66  96 132 172 217 277 332 394
#
# _framework density 21.172640000000001
#
# number of rings (size 3 to 8) (size 9 to 14) (size 15 to 20)
#    0.000    2.000    1.250    0.750    1.750    5.000 
#   31.500    0.000    0.000    0.000    0.000    0.000 
#    0.000    0.000    0.000    0.000    0.000    0.000 
#
# Total GULP energy -178306.113944 kJ/mol
# GULP energy per Si atom -5572.066061 kJ/mol
# Density = 2.112445 g / cm^3
# Si number density = 21.172640 Si / 1000 Ang^3
#
#
#
# Elastic Constant Matrix: (Units=GPa)
#
#
# Indices 1 2 3 4 5 6 
#
# 1 92.0901 26.5379 37.7502 0.0000 0.0000 -0.0003
# 2 26.5379 115.0891 67.7525 -0.0001 0.0000 0.0004
# 3 37.7502 67.7525 133.2190 -0.0001 0.0000 0.0007
# 4 0.0000 -0.0001 -0.0001 49.8031 0.0000 0.0009
# 5 0.0000 0.0000 0.0000 0.0000 11.8743 0.0000
# 6 -0.0003 0.0004 0.0007 0.0009 0.0000 -210.9223
#
#
#
# Elastic Compliance Matrix: (Units=1/GPa)
#
#
# Indices 1 2 3 4 5 6 
#
# 1 0.012388 -0.001128 -0.002937 0.000000 0.000000 0.000000
# 2 -0.001128 0.012505 -0.006040 0.000000 0.000000 0.000000
# 3 -0.002937 -0.006040 0.011411 0.000000 0.000000 0.000000
# 4 0.000000 0.000000 0.000000 0.020079 0.000000 0.000000
# 5 0.000000 0.000000 0.000000 0.000000 0.084216 0.000000
# 6 0.000000 0.000000 0.000000 0.000000 0.000000 -0.004741
#
#
# Mechanical properties :
#
#
# Convention : Reuss Voigt Hill
#
# Bulk Modulus (GPa) = 62.13513 67.16438 64.64975
# Shear Modulus (GPa) = 30.97307 -15.95848 7.50729
#
# Velocity S-wave (km/s) = 3.82891 -2.74840 1.88506
# Velocity P-wave (km/s) = 6.99700 4.66042 5.94464
#
# Compressibility (1/GPa) = 0.01609396
#
# Stress axis : x y z
#
# Youngs Moduli (GPa) = 80.72485 79.96980 87.63810
#
# Poissons Ratio (x) = 0.09017 0.25738
# Poissons Ratio (y) = 0.09102 0.52935
# Poissons Ratio (z) = 0.23708 0.48303
#
# Static dielectric constant tensor:
#      x y z
#    x 1.612270 0.000000 0.000000 
#    y 0.000000 1.755590 0.000000 
#    z 0.000000 0.000000 1.793160 
# 
# From -- ./inp_files/9477.got.cif
#   From: 2010.05.17/outbox.cif.g08.bks.cpg/sg73_5_cif.got.tgz:9477.got - 2010.06.03 17:35:07.
