data_PCOD9531085
_publ_section_title
;
Structure prediction by ZEFSAII (Michael W. Deem and Ramdas Pophale) SiO2 
 PCOD9531085
Probable space group: I B C A 
;
_chemical_formula_sum "Si O2"
_cell_formula_units_Z 104
_cell_length_a 8.708625
_cell_length_b 21.081630
_cell_length_c 23.339569
_cell_angle_alpha 90.000000
_cell_angle_beta 90.000000
_cell_angle_gamma 90.000000
_cell_volume 4284.958387
_symmetry_space_group_name_H-M "I B C A "
_symmetry_group_IT_number 73
_symmetry_cell_setting 'orthorhombic'
loop_
_space_group_symop_operation_xyz
x,y,z
-x,1/2-y,z
x,-y,1/2-z
1/2-x,y,-z
-x,-y,-z
x,1/2+y,-z
-x,y,1/2+z
1/2+x,-y,z
1/2+x,1/2+y,1/2+z
1/2-x,-y,1/2+z
1/2+x,1/2-y,-z
-x,1/2+y,1/2-z
1/2-x,1/2-y,1/2-z
1/2+x,y,1/2-z
1/2-x,1/2+y,z
x,1/2-y,1/2+z
loop_
_atom_site_type_symbol
_atom_site_label
_atom_site_fract_x
_atom_site_fract_y
_atom_site_fract_z
Si Si1 0.270698 0.304731 0.593814
Si Si2 0.500000 0.750000 0.674145
Si Si3 0.298691 0.637601 0.696371
Si Si4 0.921444 0.042912 0.952172
Si Si5 0.380461 0.672205 0.416696
Si Si6 0.402312 0.433945 0.282457
Si Si7 0.217722 0.942378 0.601486
O O1 0.450417 0.316435 0.612300
O O2 0.305300 0.238102 0.562041
O O3 0.238356 0.375557 0.570093
O O4 0.126654 0.288295 0.635357
O O5 0.394314 0.701562 0.709174
O O6 0.229491 0.646767 0.633385
O O7 0.426338 0.583050 0.698484
O O8 0.166785 0.619677 0.740613
O O9 0.036525 0.047945 0.898214
O O10 0.896039 0.117144 0.964180
O O11 0.778398 0.003314 0.931550
O O12 0.000000 0.000000 0.000000
O O13 0.400918 0.500000 0.250000
O O14 0.291832 0.437190 0.336906
#
# Coordination Sequence:
#
# PCOD9531085 Si02
#       7
#    16   8  16  16  16  16  16
#     4   9  19  40  70 101 135 186 235 283 356 418
#     4  10  20  42  66  98 140 186 238 288 336 420
#     4  11  25  41  63  98 141 186 237 283 346 425
#     4  11  25  44  73 102 133 176 234 294 369 432
#     4   9  21  43  70  98 142 186 230 292 354 424
#     4  12  27  40  63  98 141 188 237 283 353 423
#     4  11  25  44  69 100 141 182 230 298 351 427
#
# _framework density 24.270949000000002
#
# number of rings (size 3 to 8) (size 9 to 14) (size 15 to 20)
#    0.000    1.538    1.538    1.846   10.769    0.615 
#    0.000    0.000    0.000   22.154    0.000    0.000 
#    0.000    0.000    0.000    0.000    0.000    0.000 
#
# Total GULP energy -290202.878985 kJ/mol
# GULP energy per Si atom -5580.824596 kJ/mol
# Density = 2.421571 g / cm^3
# Si number density = 24.270949 Si / 1000 Ang^3
#
#
#
# Elastic Constant Matrix: (Units=GPa)
#
#
# Indices 1 2 3 4 5 6 
#
# 1 121.8319 40.2361 27.2053 0.0000 0.0000 0.0000
# 2 40.2361 177.5118 19.0483 0.0000 0.0000 0.0000
# 3 27.2053 19.0483 57.5460 0.0000 0.0000 0.0000
# 4 0.0000 0.0000 0.0000 16.9763 0.0000 0.0000
# 5 0.0000 0.0000 0.0000 0.0000 26.0104 0.0000
# 6 0.0000 0.0000 0.0000 0.0000 0.0000 47.4758
#
#
#
# Elastic Compliance Matrix: (Units=1/GPa)
#
#
# Indices 1 2 3 4 5 6 
#
# 1 0.009683 -0.001766 -0.003993 0.000000 0.000000 0.000000
# 2 -0.001766 0.006163 -0.001205 0.000000 0.000000 0.000000
# 3 -0.003993 -0.001205 0.019664 0.000000 0.000000 0.000000
# 4 0.000000 0.000000 0.000000 0.058906 0.000000 0.000000
# 5 0.000000 0.000000 0.000000 0.000000 0.038446 0.000000
# 6 0.000000 0.000000 0.000000 0.000000 0.000000 0.021063
#
#
# Mechanical properties :
#
#
# Convention : Reuss Voigt Hill
#
# Bulk Modulus (GPa) = 46.33627 58.87435 52.60531
# Shear Modulus (GPa) = 28.56361 36.11916 32.34139
#
# Velocity S-wave (km/s) = 3.43427 3.86186 3.65432
# Velocity P-wave (km/s) = 5.90409 6.64794 6.28702
#
# Compressibility (1/GPa) = 0.02158137
#
# Stress axis : x y z
#
# Youngs Moduli (GPa) = 103.27335 162.25585 50.85428
#
# Poissons Ratio (x) = 0.28660 0.20306
# Poissons Ratio (y) = 0.18242 0.06128
# Poissons Ratio (z) = 0.41238 0.19552
#
# Static dielectric constant tensor:
#      x y z
#    x 1.918560 0.000000 0.000000 
#    y 0.000000 2.082950 0.000000 
#    z 0.000000 0.000000 1.909750 
# 
# From -- ./inp_files/31261.got.cif
#   From: 2010.05.17/outbox.cif.g08.bks.cpg/sg73_16_cif.got.tgz:31261.got - 2010.06.03 17:35:07.
