data_PCOD9531467
_publ_section_title
;
Structure prediction by ZEFSAII (Michael W. Deem and Ramdas Pophale) SiO2 
 PCOD9531467
Probable space group: I B C A 
;
_chemical_formula_sum "Si O2"
_cell_formula_units_Z 88
_cell_length_a 25.146988
_cell_length_b 26.733828
_cell_length_c 5.679293
_cell_angle_alpha 90.000000
_cell_angle_beta 90.000000
_cell_angle_gamma 90.000000
_cell_volume 3818.048132
_symmetry_space_group_name_H-M "I B C A "
_symmetry_group_IT_number 73
_symmetry_cell_setting 'orthorhombic'
loop_
_space_group_symop_operation_xyz
x,y,z
-x,1/2-y,z
x,-y,1/2-z
1/2-x,y,-z
-x,-y,-z
x,1/2+y,-z
-x,y,1/2+z
1/2+x,-y,z
1/2+x,1/2+y,1/2+z
1/2-x,-y,1/2+z
1/2+x,1/2-y,-z
-x,1/2+y,1/2-z
1/2-x,1/2-y,1/2-z
1/2+x,y,1/2-z
1/2-x,1/2+y,z
x,1/2-y,1/2+z
loop_
_atom_site_type_symbol
_atom_site_label
_atom_site_fract_x
_atom_site_fract_y
_atom_site_fract_z
Si Si1 0.330868 0.000000 0.250000
Si Si2 0.021588 0.806089 0.837641
Si Si3 0.970529 0.500000 0.250000
Si Si4 0.880887 0.065928 0.868817
Si Si5 0.806386 0.599147 0.524223
Si Si6 0.361458 0.166753 0.368119
Si Si7 0.750000 0.280647 0.500000
O O1 0.299003 0.949512 0.308229
O O2 0.368169 0.020081 0.457268
O O3 0.085903 0.800581 0.843997
O O4 0.000000 0.750000 0.834065
O O5 0.001482 0.828928 0.585326
O O6 0.934151 0.549724 0.257054
O O7 0.000000 0.500000 0.500000
O O8 0.830693 0.074158 0.703024
O O9 0.883896 0.118406 0.996588
O O10 0.750000 0.624191 0.500000
O O11 0.844783 0.641581 0.621440
O O12 0.306681 0.188657 0.481578
O O13 0.750000 0.250000 0.750000
#
# Coordination Sequence:
#
# PCOD9531467 Si02
#       7
#     8  16   8  16  16  16   8
#     4  10  21  39  66 106 142 204 243 305 364 450
#     4  10  25  47  78 108 143 191 257 318 387 458
#     4  12  27  45  74 106 154 208 259 311 382 448
#     4  11  24  46  70 104 155 196 254 312 373 458
#     4  11  24  41  74 106 154 195 258 310 384 461
#     4  11  28  48  78 113 157 200 264 324 405 477
#     4  12  32  52  84 114 158 208 256 334 428 494
#
# _framework density 23.048425999999999
#
# number of rings (size 3 to 8) (size 9 to 14) (size 15 to 20)
#    0.000    1.091    1.818    1.636   16.545    2.909 
#    0.000    0.000    0.000    0.000    0.000    0.000 
#    0.000    0.000    0.000    0.000    0.000    0.000 
#
# Total GULP energy -245365.285967 kJ/mol
# GULP energy per Si atom -5576.483772 kJ/mol
# Density = 2.299597 g / cm^3
# Si number density = 23.048426 Si / 1000 Ang^3
#
#
#
# Elastic Constant Matrix: (Units=GPa)
#
#
# Indices 1 2 3 4 5 6 
#
# 1 182.6790 51.3442 55.8615 0.0000 0.0000 0.0000
# 2 51.3442 74.8872 20.0273 0.0000 0.0000 0.0000
# 3 55.8615 20.0273 147.4503 0.0000 0.0000 0.0000
# 4 0.0000 0.0000 0.0000 16.0138 0.0000 0.0000
# 5 0.0000 0.0000 0.0000 0.0000 37.8390 0.0000
# 6 0.0000 0.0000 0.0000 0.0000 0.0000 -121.0239
#
#
#
# Elastic Compliance Matrix: (Units=1/GPa)
#
#
# Indices 1 2 3 4 5 6 
#
# 1 0.007408 -0.004492 -0.002197 0.000000 0.000000 0.000000
# 2 -0.004492 0.016580 -0.000550 0.000000 0.000000 0.000000
# 3 -0.002197 -0.000550 0.007689 0.000000 0.000000 0.000000
# 4 0.000000 0.000000 0.000000 0.062446 0.000000 0.000000
# 5 0.000000 0.000000 0.000000 0.000000 0.026428 0.000000
# 6 0.000000 0.000000 0.000000 0.000000 0.000000 -0.008263
#
#
# Mechanical properties :
#
#
# Convention : Reuss Voigt Hill
#
# Bulk Modulus (GPa) = 58.13912 73.27584 65.70748
# Shear Modulus (GPa) = 37.73617 5.08468 21.41042
#
# Velocity S-wave (km/s) = 4.05069 1.48690 3.05115
# Velocity P-wave (km/s) = 6.86710 5.89991 6.40180
#
# Compressibility (1/GPa) = 0.01720012
#
# Stress axis : x y z
#
# Youngs Moduli (GPa) = 134.98480 60.31267 130.05870
#
# Poissons Ratio (x) = 0.27091 0.28568
# Poissons Ratio (y) = 0.60633 0.07157
# Poissons Ratio (z) = 0.29650 0.03319
#
# Static dielectric constant tensor:
#      x y z
#    x 1.901930 0.000000 0.000000 
#    y 0.000000 1.788090 0.000000 
#    z 0.000000 0.000000 2.075020 
# 
# From -- ./inp_files/2321.got.cif
#   From: 2010.05.17/outbox.cif.g08.bks.cpg/sg73_2_cif.got.tgz:2321.got - 2010.06.03 17:35:07.
