data_PCOD9531950
_publ_section_title
;
Structure prediction by ZEFSAII (Michael W. Deem and Ramdas Pophale) SiO2 
 PCOD9531950
Probable space group: I B C A 
;
_chemical_formula_sum "Si O2"
_cell_formula_units_Z 96
_cell_length_a 18.343374
_cell_length_b 25.464647
_cell_length_c 9.335891
_cell_angle_alpha 90.000000
_cell_angle_beta 90.000000
_cell_angle_gamma 90.000000
_cell_volume 4360.865113
_symmetry_space_group_name_H-M "I B C A "
_symmetry_group_IT_number 73
_symmetry_cell_setting 'orthorhombic'
loop_
_space_group_symop_operation_xyz
x,y,z
-x,1/2-y,z
x,-y,1/2-z
1/2-x,y,-z
-x,-y,-z
x,1/2+y,-z
-x,y,1/2+z
1/2+x,-y,z
1/2+x,1/2+y,1/2+z
1/2-x,-y,1/2+z
1/2+x,1/2-y,-z
-x,1/2+y,1/2-z
1/2-x,1/2-y,1/2-z
1/2+x,y,1/2-z
1/2-x,1/2+y,z
x,1/2-y,1/2+z
loop_
_atom_site_type_symbol
_atom_site_label
_atom_site_fract_x
_atom_site_fract_y
_atom_site_fract_z
Si Si1 0.500000 0.750000 0.529660
Si Si2 0.855139 0.645125 0.053528
Si Si3 0.750000 0.320771 0.000000
Si Si4 0.498968 0.349786 0.165474
Si Si5 0.768298 0.545085 0.158911
Si Si6 0.619670 0.712346 0.695845
Si Si7 0.342928 0.118128 0.236807
O O1 0.519406 0.703307 0.420810
O O2 0.554973 0.667152 0.702319
O O3 0.938961 0.625348 0.059957
O O4 0.811988 0.599640 0.138279
O O5 0.750000 0.526103 0.000000
O O6 0.830641 0.646979 0.890301
O O7 0.689733 0.292027 0.903030
O O8 0.798677 0.354273 0.889721
O O9 0.353002 0.299843 0.142066
O O10 0.571516 0.380036 0.203078
O O11 0.806346 0.500000 0.250000
O O12 0.693916 0.561867 0.238298
O O13 0.569621 0.758861 0.633296
#
# Coordination Sequence:
#
# PCOD9531950 Si02
#       7
#     8  16   8  16  16  16  16
#     4  12  20  40  64 102 130 174 246 280 336 410
#     4   9  22  41  64  96 136 183 222 279 361 417
#     4  12  22  40  70 100 128 180 238 276 342 426
#     4  10  22  39  67  93 136 182 220 287 343 410
#     4  10  22  41  68 101 137 178 230 291 353 431
#     4  10  23  39  66  97 130 184 227 289 341 405
#     4  11  21  40  67 100 136 178 232 276 357 425
#
# _framework density 22.013981000000001
#
# number of rings (size 3 to 8) (size 9 to 14) (size 15 to 20)
#    1.000    0.667    3.333    1.500    1.167    0.000 
#    0.000    1.667    9.167    4.000    0.000    0.000 
#    0.000    0.000    0.000    0.000    0.000    0.000 
#
# Total GULP energy -267240.494033 kJ/mol
# GULP energy per Si atom -5567.510292 kJ/mol
# Density = 2.196388 g / cm^3
# Si number density = 22.013981 Si / 1000 Ang^3
#
#
#
# Elastic Constant Matrix: (Units=GPa)
#
#
# Indices 1 2 3 4 5 6 
#
# 1 135.2509 17.9976 32.9447 0.0000 0.0000 0.0000
# 2 17.9976 33.0221 19.9186 0.0000 0.0000 0.0000
# 3 32.9447 19.9186 111.8881 0.0000 0.0000 0.0000
# 4 0.0000 0.0000 0.0000 23.6317 0.0000 0.0000
# 5 0.0000 0.0000 0.0000 0.0000 43.4712 0.0000
# 6 0.0000 0.0000 0.0000 0.0000 0.0000 7.1947
#
#
#
# Elastic Compliance Matrix: (Units=1/GPa)
#
#
# Indices 1 2 3 4 5 6 
#
# 1 0.008295 -0.003414 -0.001835 0.000000 0.000000 0.000000
# 2 -0.003414 0.035331 -0.005284 0.000000 0.000000 0.000000
# 3 -0.001835 -0.005284 0.010418 0.000000 0.000000 0.000000
# 4 0.000000 0.000000 0.000000 0.042316 0.000000 0.000000
# 5 0.000000 0.000000 0.000000 0.000000 0.023004 0.000000
# 6 0.000000 0.000000 0.000000 0.000000 0.000000 0.138992
#
#
# Mechanical properties :
#
#
# Convention : Reuss Voigt Hill
#
# Bulk Modulus (GPa) = 30.32331 46.87587 38.59959
# Shear Modulus (GPa) = 17.21673 28.81286 23.01480
#
# Velocity S-wave (km/s) = 2.79961 3.62172 3.23687
# Velocity P-wave (km/s) = 4.92492 6.23130 5.61622
#
# Compressibility (1/GPa) = 0.03297793
#
# Stress axis : x y z
#
# Youngs Moduli (GPa) = 120.55658 28.30364 95.98388
#
# Poissons Ratio (x) = 0.09664 0.17609
# Poissons Ratio (y) = 0.41161 0.50722
# Poissons Ratio (z) = 0.22117 0.14957
#
# Static dielectric constant tensor:
#      x y z
#    x 1.875800 0.000000 0.000000 
#    y 0.000000 1.818850 0.000000 
#    z 0.000000 0.000000 1.914370 
# 
# From -- ./inp_files/12058.got.cif
#   From: 2010.05.17/outbox.cif.g08.bks.cpg/sg73_7_cif.got.tgz:12058.got - 2010.06.03 17:35:07.
