data_PCOD9531712
_publ_section_title
;
Structure prediction by ZEFSAII (Michael W. Deem and Ramdas Pophale) SiO2 
 PCOD9531712
Probable space group: I B C A 
;
_chemical_formula_sum "Si O2"
_cell_formula_units_Z 120
_cell_length_a 12.871027
_cell_length_b 18.357936
_cell_length_c 24.136793
_cell_angle_alpha 90.000000
_cell_angle_beta 90.000000
_cell_angle_gamma 90.000000
_cell_volume 5703.173959
_symmetry_space_group_name_H-M "I B C A "
_symmetry_group_IT_number 73
_symmetry_cell_setting 'orthorhombic'
loop_
_space_group_symop_operation_xyz
x,y,z
-x,1/2-y,z
x,-y,1/2-z
1/2-x,y,-z
-x,-y,-z
x,1/2+y,-z
-x,y,1/2+z
1/2+x,-y,z
1/2+x,1/2+y,1/2+z
1/2-x,-y,1/2+z
1/2+x,1/2-y,-z
-x,1/2+y,1/2-z
1/2-x,1/2-y,1/2-z
1/2+x,y,1/2-z
1/2-x,1/2+y,z
x,1/2-y,1/2+z
loop_
_atom_site_type_symbol
_atom_site_label
_atom_site_fract_x
_atom_site_fract_y
_atom_site_fract_z
Si Si1 0.160666 0.921021 0.276065
Si Si2 0.012823 0.833838 0.842524
Si Si3 0.243693 0.364461 0.836415
Si Si4 0.041477 0.441805 0.454596
Si Si5 0.411812 0.187835 0.580862
Si Si6 0.250000 0.256638 0.000000
Si Si7 0.265526 0.475954 0.618765
Si Si8 0.128536 0.362588 0.555156
O O1 0.204985 0.873251 0.226204
O O2 0.249091 0.933529 0.323065
O O3 0.060248 0.885003 0.304609
O O4 0.134826 0.000000 0.250000
O O5 0.134329 0.849024 0.838936
O O6 0.000000 0.750000 0.826486
O O7 0.966714 0.845106 0.904467
O O8 0.169465 0.309075 0.868735
O O9 0.234178 0.442258 0.867370
O O10 0.122937 0.474768 0.411035
O O11 0.095948 0.381261 0.493126
O O12 0.000000 0.500000 0.500000
O O13 0.959963 0.393027 0.421337
O O14 0.500000 0.250000 0.584483
O O15 0.344434 0.198072 0.525110
O O16 0.295164 0.205700 0.951097
O O17 0.187797 0.433216 0.578196
#
# Coordination Sequence:
#
# PCOD9531712 Si02
#       8
#    16  16  16  16  16   8  16  16
#     4   9  23  46  72  99 135 181 236 292 357 412
#     4  11  25  41  68 101 134 180 231 283 346 427
#     4  11  25  44  69  99 134 181 231 294 348 418
#     4  12  24  38  63 100 137 179 225 293 351 417
#     4  12  27  42  64 101 138 186 229 284 349 423
#     4  12  24  42  66  90 140 190 224 276 346 422
#     4  10  21  43  68 100 135 180 234 290 347 416
#     4  11  21  41  64  93 133 180 226 276 343 420
#
# _framework density 21.040915999999999
#
# number of rings (size 3 to 8) (size 9 to 14) (size 15 to 20)
#    0.000    1.067    2.667    2.400    5.600    6.933 
#    0.000    0.000    0.000    0.000    0.000    0.000 
#    0.000    0.000    0.000    0.000    0.000    0.000 
#
# Total GULP energy -335297.140187 kJ/mol
# GULP energy per Si atom -5588.285670 kJ/mol
# Density = 2.099303 g / cm^3
# Si number density = 21.040916 Si / 1000 Ang^3
#
#
#
# Elastic Constant Matrix: (Units=GPa)
#
#
# Indices 1 2 3 4 5 6 
#
# 1 138.3122 42.4706 69.8990 0.0000 0.0000 0.0000
# 2 42.4706 50.3286 26.3810 0.0000 0.0000 0.0000
# 3 69.8990 26.3810 112.6054 0.0000 0.0000 0.0000
# 4 0.0000 0.0000 0.0000 21.0852 0.0000 0.0000
# 5 0.0000 0.0000 0.0000 0.0000 22.6662 0.0000
# 6 0.0000 0.0000 0.0000 0.0000 0.0000 23.1749
#
#
#
# Elastic Compliance Matrix: (Units=1/GPa)
#
#
# Indices 1 2 3 4 5 6 
#
# 1 0.012579 -0.007435 -0.006066 0.000000 0.000000 0.000000
# 2 -0.007435 0.027046 -0.001721 0.000000 0.000000 0.000000
# 3 -0.006066 -0.001721 0.013049 0.000000 0.000000 0.000000
# 4 0.000000 0.000000 0.000000 0.047427 0.000000 0.000000
# 5 0.000000 0.000000 0.000000 0.000000 0.044119 0.000000
# 6 0.000000 0.000000 0.000000 0.000000 0.000000 0.043150
#
#
# Mechanical properties :
#
#
# Convention : Reuss Voigt Hill
#
# Bulk Modulus (GPa) = 44.98586 64.30526 54.64556
# Shear Modulus (GPa) = 22.20018 24.21831 23.20924
#
# Velocity S-wave (km/s) = 3.25175 3.39633 3.32483
# Velocity P-wave (km/s) = 5.96029 6.78295 6.38489
#
# Compressibility (1/GPa) = 0.02222921
#
# Stress axis : x y z
#
# Youngs Moduli (GPa) = 79.49897 36.97451 76.63188
#
# Poissons Ratio (x) = 0.27490 0.46487
# Poissons Ratio (y) = 0.59107 0.13188
# Poissons Ratio (z) = 0.48227 0.06363
#
# Static dielectric constant tensor:
#      x y z
#    x 1.797920 0.000000 0.000000 
#    y 0.000000 1.773310 0.000000 
#    z 0.000000 0.000000 1.750040 
# 
# From -- ./inp_files/29073.got.cif
#   From: 2010.05.17/outbox.cif.g08.bks.cpg/sg73_15_cif.got.tgz:29073.got - 2010.06.03 17:35:07.
