data_PCOD9531936
_publ_section_title
;
Structure prediction by ZEFSAII (Michael W. Deem and Ramdas Pophale) SiO2 
 PCOD9531936
Probable space group: I B C A 
;
_chemical_formula_sum "Si O2"
_cell_formula_units_Z 120
_cell_length_a 26.921376
_cell_length_b 9.144737
_cell_length_c 23.798070
_cell_angle_alpha 90.000000
_cell_angle_beta 90.000000
_cell_angle_gamma 90.000000
_cell_volume 5858.820752
_symmetry_space_group_name_H-M "I B C A "
_symmetry_group_IT_number 73
_symmetry_cell_setting 'orthorhombic'
loop_
_space_group_symop_operation_xyz
x,y,z
-x,1/2-y,z
x,-y,1/2-z
1/2-x,y,-z
-x,-y,-z
x,1/2+y,-z
-x,y,1/2+z
1/2+x,-y,z
1/2+x,1/2+y,1/2+z
1/2-x,-y,1/2+z
1/2+x,1/2-y,-z
-x,1/2+y,1/2-z
1/2-x,1/2-y,1/2-z
1/2+x,y,1/2-z
1/2-x,1/2+y,z
x,1/2-y,1/2+z
loop_
_atom_site_type_symbol
_atom_site_label
_atom_site_fract_x
_atom_site_fract_y
_atom_site_fract_z
Si Si1 0.914632 0.974103 0.078222
Si Si2 0.018057 0.408166 0.616114
Si Si3 0.903883 0.791692 0.974041
Si Si4 0.243687 0.631670 0.635531
Si Si5 0.816510 0.126502 0.601512
Si Si6 0.154002 0.171188 0.837485
Si Si7 0.606431 0.029590 0.184840
Si Si8 0.716927 0.000000 0.750000
O O1 0.904860 0.120654 0.041650
O O2 0.969955 0.997235 0.101529
O O3 0.874089 0.952173 0.127014
O O4 0.911186 0.832795 0.038420
O O5 0.051845 0.369390 0.561455
O O6 0.053682 0.482920 0.660601
O O7 0.000000 0.250000 0.637477
O O8 0.851760 0.856184 0.951989
O O9 0.227319 0.493043 0.598720
O O10 0.292464 0.719003 0.617721
O O11 0.198756 0.746615 0.630782
O O12 0.251135 0.575443 0.700122
O O13 0.852449 0.064241 0.650584
O O14 0.115548 0.299765 0.825271
O O15 0.180846 0.111357 0.782106
O O16 0.611701 0.000000 0.250000
#
# Coordination Sequence:
#
# PCOD9531936 Si02
#       8
#    16  16  16  16  16  16  16   8
#     4  11  24  44  68  98 133 169 227 274 336 394
#     4   9  21  44  67  98 127 170 220 274 329 402
#     4  10  23  42  71  95 128 174 214 281 334 393
#     4  11  22  38  65  96 128 172 220 266 322 397
#     4  10  22  39  65  93 133 167 219 271 320 396
#     4  11  25  38  64 100 132 173 224 276 328 392
#     4  10  22  41  65  96 138 176 215 269 335 392
#     4  12  22  40  66  94 132 176 224 268 326 396
#
# _framework density 20.481936000000001
#
# number of rings (size 3 to 8) (size 9 to 14) (size 15 to 20)
#    0.000    1.600    1.333    2.400    9.333    2.667 
#    3.600    0.667    2.933    0.000    0.000    0.000 
#    0.000    0.000    0.000    0.000    0.000    0.000 
#
# Total GULP energy -335219.048056 kJ/mol
# GULP energy per Si atom -5586.984134 kJ/mol
# Density = 2.043532 g / cm^3
# Si number density = 20.481936 Si / 1000 Ang^3
#
#
#
# Elastic Constant Matrix: (Units=GPa)
#
#
# Indices 1 2 3 4 5 6 
#
# 1 97.7804 63.7855 21.5682 0.0000 0.0000 0.0000
# 2 63.7855 82.4259 15.9665 0.0000 0.0000 0.0000
# 3 21.5682 15.9665 18.3468 0.0000 0.0000 0.0000
# 4 0.0000 0.0000 0.0000 3.6418 0.0000 0.0000
# 5 0.0000 0.0000 0.0000 0.0000 9.4543 0.0000
# 6 0.0000 0.0000 0.0000 0.0000 0.0000 48.5065
#
#
#
# Elastic Compliance Matrix: (Units=1/GPa)
#
#
# Indices 1 2 3 4 5 6 
#
# 1 0.023334 -0.015327 -0.014092 0.000000 0.000000 0.000000
# 2 -0.015327 0.024660 -0.003442 0.000000 0.000000 0.000000
# 3 -0.014092 -0.003442 0.074067 0.000000 0.000000 0.000000
# 4 0.000000 0.000000 0.000000 0.274593 0.000000 0.000000
# 5 0.000000 0.000000 0.000000 0.000000 0.105772 0.000000
# 6 0.000000 0.000000 0.000000 0.000000 0.000000 0.020616
#
#
# Mechanical properties :
#
#
# Convention : Reuss Voigt Hill
#
# Bulk Modulus (GPa) = 17.74997 44.57707 31.16352
# Shear Modulus (GPa) = 8.22985 18.80272 13.51628
#
# Velocity S-wave (km/s) = 2.00670 3.03316 2.57166
# Velocity P-wave (km/s) = 3.74888 5.83765 4.90572
#
# Compressibility (1/GPa) = 0.05633812
#
# Stress axis : x y z
#
# Youngs Moduli (GPa) = 42.85606 40.55173 13.50121
#
# Poissons Ratio (x) = 0.62155 0.19026
# Poissons Ratio (y) = 0.65686 0.04647
# Poissons Ratio (z) = 0.60394 0.13958
#
# Static dielectric constant tensor:
#      x y z
#    x 1.727230 0.000000 0.000000 
#    y 0.000000 1.771770 0.000000 
#    z 0.000000 0.000000 1.684300 
# 
# From -- ./inp_files/30530.got.cif
#   From: 2010.05.17/outbox.cif.g08.bks.cpg/sg73_16_cif.got.tgz:30530.got - 2010.06.03 17:35:07.
