data_PCOD9531726
_publ_section_title
;
Structure prediction by ZEFSAII (Michael W. Deem and Ramdas Pophale) SiO2 
 PCOD9531726
Probable space group: I B C A 
;
_chemical_formula_sum "Si O2"
_cell_formula_units_Z 88
_cell_length_a 12.045000
_cell_length_b 16.337206
_cell_length_c 20.915339
_cell_angle_alpha 90.000000
_cell_angle_beta 90.000000
_cell_angle_gamma 90.000000
_cell_volume 4115.754841
_symmetry_space_group_name_H-M "I B C A "
_symmetry_group_IT_number 73
_symmetry_cell_setting 'orthorhombic'
loop_
_space_group_symop_operation_xyz
x,y,z
-x,1/2-y,z
x,-y,1/2-z
1/2-x,y,-z
-x,-y,-z
x,1/2+y,-z
-x,y,1/2+z
1/2+x,-y,z
1/2+x,1/2+y,1/2+z
1/2-x,-y,1/2+z
1/2+x,1/2-y,-z
-x,1/2+y,1/2-z
1/2-x,1/2-y,1/2-z
1/2+x,y,1/2-z
1/2-x,1/2+y,z
x,1/2-y,1/2+z
loop_
_atom_site_type_symbol
_atom_site_label
_atom_site_fract_x
_atom_site_fract_y
_atom_site_fract_z
Si Si1 0.500000 0.750000 0.525984
Si Si2 0.156361 0.269614 0.140744
Si Si3 0.478430 0.013894 0.604150
Si Si4 0.092241 0.179528 0.342809
Si Si5 0.530714 0.626962 0.700476
Si Si6 0.877399 0.907954 0.011219
O O1 0.597806 0.784968 0.572292
O O2 0.554837 0.676527 0.487776
O O3 0.285741 0.283288 0.147719
O O4 0.119601 0.177647 0.158027
O O5 0.087094 0.327260 0.189383
O O6 0.416493 0.099587 0.613100
O O7 0.597689 0.040070 0.575080
O O8 0.480664 0.962048 0.669284
O O9 0.422133 0.959699 0.549075
O O10 0.069874 0.142034 0.272205
O O11 0.000000 0.250000 0.352234
O O12 0.750000 0.889892 0.000000
#
# Coordination Sequence:
#
# PCOD9531726 Si02
#       6
#     8  16  16  16  16  16
#     4  10  22  46  74  94 140 190 232 284 358 414
#     4  10  21  43  70  94 140 183 220 278 356 408
#     4  11  26  44  66 102 140 176 234 284 348 412
#     4  12  26  40  69 109 137 178 234 282 347 427
#     4  10  21  47  68  97 136 184 225 283 347 418
#     4  11  26  46  71 100 138 186 236 293 348 420
#
# _framework density 21.381253999999998
#
# number of rings (size 3 to 8) (size 9 to 14) (size 15 to 20)
#    0.000    1.455    5.455    1.091    6.364    0.000 
#    0.000    2.727    0.000    0.000    0.000    0.000 
#    0.000    0.000    0.000    0.000    0.000    0.000 
#
# Total GULP energy -245802.872218 kJ/mol
# GULP energy per Si atom -5586.428914 kJ/mol
# Density = 2.133259 g / cm^3
# Si number density = 21.381254 Si / 1000 Ang^3
#
#
#
# Elastic Constant Matrix: (Units=GPa)
#
#
# Indices 1 2 3 4 5 6 
#
# 1 177.5076 76.7048 40.6281 0.0000 0.0000 0.0000
# 2 76.7048 138.8950 35.3290 0.0000 0.0000 0.0000
# 3 40.6281 35.3290 69.6031 0.0000 0.0000 0.0000
# 4 0.0000 0.0000 0.0000 21.7816 0.0000 0.0000
# 5 0.0000 0.0000 0.0000 0.0000 8.2865 0.0000
# 6 0.0000 0.0000 0.0000 0.0000 0.0000 15.0832
#
#
#
# Elastic Compliance Matrix: (Units=1/GPa)
#
#
# Indices 1 2 3 4 5 6 
#
# 1 0.007825 -0.003628 -0.002726 0.000000 0.000000 0.000000
# 2 -0.003628 0.009949 -0.002932 0.000000 0.000000 0.000000
# 3 -0.002726 -0.002932 0.017447 0.000000 0.000000 0.000000
# 4 0.000000 0.000000 0.000000 0.045910 0.000000 0.000000
# 5 0.000000 0.000000 0.000000 0.000000 0.120678 0.000000
# 6 0.000000 0.000000 0.000000 0.000000 0.000000 0.066299
#
#
# Mechanical properties :
#
#
# Convention : Reuss Voigt Hill
#
# Bulk Modulus (GPa) = 60.06623 76.81437 68.44030
# Shear Modulus (GPa) = 17.10975 24.58652 20.84813
#
# Velocity S-wave (km/s) = 2.83189 3.39471 3.12599
# Velocity P-wave (km/s) = 6.23271 7.16725 6.71626
#
# Compressibility (1/GPa) = 0.01664829
#
# Stress axis : x y z
#
# Youngs Moduli (GPa) = 127.79044 100.51133 57.31713
#
# Poissons Ratio (x) = 0.36467 0.15626
# Poissons Ratio (y) = 0.46364 0.16806
# Poissons Ratio (z) = 0.34838 0.29472
#
# Static dielectric constant tensor:
#      x y z
#    x 1.729850 0.000000 0.000000 
#    y 0.000000 1.780390 0.000000 
#    z 0.000000 0.000000 1.844670 
# 
# From -- ./inp_files/25368.got.cif
#   From: 2010.05.17/outbox.cif.g08.bks.cpg/sg73_13_cif.got.tgz:25368.got - 2010.06.03 17:35:07.
