data_PCOD9531009
_publ_section_title
;
Structure prediction by ZEFSAII (Michael W. Deem and Ramdas Pophale) SiO2 
 PCOD9531009
Probable space group: I B C A 
;
_chemical_formula_sum "Si O2"
_cell_formula_units_Z 112
_cell_length_a 21.986716
_cell_length_b 13.718117
_cell_length_c 14.325110
_cell_angle_alpha 90.000000
_cell_angle_beta 90.000000
_cell_angle_gamma 90.000000
_cell_volume 4320.687285
_symmetry_space_group_name_H-M "I B C A "
_symmetry_group_IT_number 73
_symmetry_cell_setting 'orthorhombic'
loop_
_space_group_symop_operation_xyz
x,y,z
-x,1/2-y,z
x,-y,1/2-z
1/2-x,y,-z
-x,-y,-z
x,1/2+y,-z
-x,y,1/2+z
1/2+x,-y,z
1/2+x,1/2+y,1/2+z
1/2-x,-y,1/2+z
1/2+x,1/2-y,-z
-x,1/2+y,1/2-z
1/2-x,1/2-y,1/2-z
1/2+x,y,1/2-z
1/2-x,1/2+y,z
x,1/2-y,1/2+z
loop_
_atom_site_type_symbol
_atom_site_label
_atom_site_fract_x
_atom_site_fract_y
_atom_site_fract_z
Si Si1 0.351333 0.659356 0.619851
Si Si2 0.750000 0.617085 0.000000
Si Si3 0.937619 0.963965 0.657466
Si Si4 0.353367 0.000000 0.250000
Si Si5 0.949542 0.816587 0.513134
Si Si6 0.175167 0.440278 0.577439
Si Si7 0.163636 0.825958 0.250336
Si Si8 0.852952 0.170940 0.391005
O O1 0.297946 0.685029 0.550582
O O2 0.322287 0.571574 0.677370
O O3 0.409390 0.626577 0.561995
O O4 0.370081 0.750051 0.681108
O O5 0.708516 0.542985 0.939507
O O6 0.973420 0.895064 0.587160
O O7 0.883784 0.897622 0.702136
O O8 0.972178 0.000000 0.750000
O O9 0.896952 0.041689 0.600204
O O10 0.378108 0.085519 0.179159
O O11 0.905598 0.740082 0.566658
O O12 0.000000 0.750000 0.467353
O O13 0.200205 0.389424 0.672624
O O14 0.177823 0.383376 0.478970
O O15 0.186625 0.749102 0.171720
#
# Coordination Sequence:
#
# PCOD9531009 Si02
#       8
#    16   8  16   8  16  16  16  16
#     4  11  22  43  66  97 139 178 233 287 347 412
#     4  12  24  38  68  96 134 192 228 278 350 414
#     4   9  19  40  66  93 135 173 226 283 338 408
#     4  10  20  42  64  96 140 174 224 290 330 420
#     4  11  22  42  70  98 133 179 227 282 351 420
#     4  11  20  41  66  93 135 179 223 287 335 404
#     4   9  21  39  66  92 132 172 222 286 331 410
#     4  10  20  40  68  91 131 174 222 278 342 402
#
# _framework density 25.921802
#
# number of rings (size 3 to 8) (size 9 to 14) (size 15 to 20)
#    0.000    1.714    4.286    0.000    0.000    0.571 
#    5.143   10.714    0.000    0.000    0.000    0.000 
#    0.000    0.000    0.000    0.000    0.000    0.000 
#
# Total GULP energy -312315.027852 kJ/mol
# GULP energy per Si atom -5577.054069 kJ/mol
# Density = 2.586280 g / cm^3
# Si number density = 25.921802 Si / 1000 Ang^3
#
#
#
# Elastic Constant Matrix: (Units=GPa)
#
#
# Indices 1 2 3 4 5 6 
#
# 1 29.5087 -0.3810 18.5343 0.0000 0.0000 0.0000
# 2 -0.3810 111.7958 40.8344 0.0000 0.0000 0.0000
# 3 18.5343 40.8344 121.5888 0.0000 0.0000 0.0000
# 4 0.0000 0.0000 0.0000 31.6922 0.0000 0.0000
# 5 0.0000 0.0000 0.0000 0.0000 9.3553 0.0000
# 6 0.0000 0.0000 0.0000 0.0000 0.0000 19.2551
#
#
#
# Elastic Compliance Matrix: (Units=1/GPa)
#
#
# Indices 1 2 3 4 5 6 
#
# 1 0.038112 0.002567 -0.006672 0.000000 0.000000 0.000000
# 2 0.002567 0.010368 -0.003873 0.000000 0.000000 0.000000
# 3 -0.006672 -0.003873 0.010542 0.000000 0.000000 0.000000
# 4 0.000000 0.000000 0.000000 0.031554 0.000000 0.000000
# 5 0.000000 0.000000 0.000000 0.000000 0.106892 0.000000
# 6 0.000000 0.000000 0.000000 0.000000 0.000000 0.051934
#
#
# Mechanical properties :
#
#
# Convention : Reuss Voigt Hill
#
# Bulk Modulus (GPa) = 23.22016 42.31876 32.76946
# Shear Modulus (GPa) = 17.87542 25.65422 21.76482
#
# Velocity S-wave (km/s) = 2.62885 3.14933 2.90079
# Velocity P-wave (km/s) = 4.26517 5.43924 4.88759
#
# Compressibility (1/GPa) = 0.04306602
#
# Stress axis : x y z
#
# Youngs Moduli (GPa) = 26.23860 96.44678 94.85642
#
# Poissons Ratio (x) = -0.24755 0.63284
# Poissons Ratio (y) = -0.06735 0.36742
# Poissons Ratio (z) = 0.17505 0.37358
#
# Static dielectric constant tensor:
#      x y z
#    x 1.988250 0.000000 0.000000 
#    y 0.000000 2.045060 0.000000 
#    z 0.000000 0.000000 2.175500 
# 
# From -- ./inp_files/19459.got.cif
#   From: 2010.05.17/outbox.cif.g08.bks.cpg/sg73_10_cif.got.tgz:19459.got - 2010.06.03 17:35:07.
