data_PCOD9531286
_publ_section_title
;
Structure prediction by ZEFSAII (Michael W. Deem and Ramdas Pophale) SiO2 
 PCOD9531286
Probable space group: I B C A 
;
_chemical_formula_sum "Si O2"
_cell_formula_units_Z 96
_cell_length_a 20.059933
_cell_length_b 7.673794
_cell_length_c 24.327050
_cell_angle_alpha 90.000000
_cell_angle_beta 90.000000
_cell_angle_gamma 90.000000
_cell_volume 3744.803745
_symmetry_space_group_name_H-M "I B C A "
_symmetry_group_IT_number 73
_symmetry_cell_setting 'orthorhombic'
loop_
_space_group_symop_operation_xyz
x,y,z
-x,1/2-y,z
x,-y,1/2-z
1/2-x,y,-z
-x,-y,-z
x,1/2+y,-z
-x,y,1/2+z
1/2+x,-y,z
1/2+x,1/2+y,1/2+z
1/2-x,-y,1/2+z
1/2+x,1/2-y,-z
-x,1/2+y,1/2-z
1/2-x,1/2-y,1/2-z
1/2+x,y,1/2-z
1/2-x,1/2+y,z
x,1/2-y,1/2+z
loop_
_atom_site_type_symbol
_atom_site_label
_atom_site_fract_x
_atom_site_fract_y
_atom_site_fract_z
Si Si1 0.547449 0.586447 0.307531
Si Si2 0.513228 0.459042 0.077276
Si Si3 0.158767 0.922012 0.956127
Si Si4 0.134308 0.533793 0.929682
Si Si5 0.667228 0.922091 0.191924
Si Si6 0.685538 0.014928 0.836738
O O1 0.500000 0.750000 0.308690
O O2 0.538087 0.500000 0.250000
O O3 0.524288 0.521935 0.139722
O O4 0.625940 0.389312 0.182212
O O5 0.500000 0.250000 0.074250
O O6 0.582947 0.507439 0.049995
O O7 0.444800 0.542420 0.058317
O O8 0.162821 0.723375 0.939230
O O9 0.194396 0.008672 0.903072
O O10 0.170977 0.927026 0.021759
O O11 0.140254 0.491269 0.865026
O O12 0.662952 0.711252 0.182300
O O13 0.639979 0.000000 0.250000
O O14 0.745454 0.965975 0.190421
#
# Coordination Sequence:
#
# PCOD9531286 Si02
#       6
#    16  16  16  16  16  16
#     4  10  23  41  64  96 133 175 225 282 340 409
#     4  10  21  37  60  91 128 172 217 272 340 403
#     4  10  22  40  61  91 130 170 220 276 335 400
#     4  11  23  39  63  94 130 175 220 274 333 400
#     4  11  25  44  71 100 135 181 227 282 341 409
#     4  10  24  45  68  98 133 175 228 281 343 408
#
# _framework density 25.635522000000002
#
# number of rings (size 3 to 8) (size 9 to 14) (size 15 to 20)
#    0.000    1.667    0.000    3.000    0.000   13.333 
#    0.000    3.333    0.000    0.000    0.000    0.000 
#    0.000    0.000    0.000    0.000    0.000    0.000 
#
# Total GULP energy -268290.904262 kJ/mol
# GULP energy per Si atom -5589.393839 kJ/mol
# Density = 2.557717 g / cm^3
# Si number density = 25.635522 Si / 1000 Ang^3
#
#
#
# Elastic Constant Matrix: (Units=GPa)
#
#
# Indices 1 2 3 4 5 6 
#
# 1 52.1552 7.8722 19.7534 0.0000 0.0000 0.0000
# 2 7.8722 70.6853 36.4727 0.0000 0.0000 0.0000
# 3 19.7534 36.4727 241.8469 0.0000 0.0000 0.0000
# 4 0.0000 0.0000 0.0000 -17.3118 0.0000 0.0000
# 5 0.0000 0.0000 0.0000 0.0000 38.0532 0.0000
# 6 0.0000 0.0000 0.0000 0.0000 0.0000 5.2925
#
#
#
# Elastic Compliance Matrix: (Units=1/GPa)
#
#
# Indices 1 2 3 4 5 6 
#
# 1 0.019930 -0.001496 -0.001402 0.000000 0.000000 0.000000
# 2 -0.001496 0.015453 -0.002208 0.000000 0.000000 0.000000
# 3 -0.001402 -0.002208 0.004582 0.000000 0.000000 0.000000
# 4 0.000000 0.000000 0.000000 -0.057764 0.000000 0.000000
# 5 0.000000 0.000000 0.000000 0.000000 0.026279 0.000000
# 6 0.000000 0.000000 0.000000 0.000000 0.000000 0.188948
#
#
# Mechanical properties :
#
#
# Convention : Reuss Voigt Hill
#
# Bulk Modulus (GPa) = 33.61021 54.76487 44.18754
# Shear Modulus (GPa) = 22.98222 25.24605 24.11414
#
# Velocity S-wave (km/s) = 2.99741 3.14157 3.07033
# Velocity P-wave (km/s) = 5.01184 5.87950 5.46292
#
# Compressibility (1/GPa) = 0.02975286
#
# Stress axis : x y z
#
# Youngs Moduli (GPa) = 50.17451 64.71119 218.22583
#
# Poissons Ratio (x) = 0.09681 0.30600
# Poissons Ratio (y) = 0.07507 0.48191
# Poissons Ratio (z) = 0.07036 0.14290
#
# Static dielectric constant tensor:
#      x y z
#    x 2.009110 0.000000 0.000000 
#    y 0.000000 2.004340 0.000000 
#    z 0.000000 0.000000 2.170470 
# 
# From -- ./inp_files/30282.got.cif
#   From: 2010.05.17/outbox.cif.g08.bks.cpg/sg73_16_cif.got.tgz:30282.got - 2010.06.03 17:35:07.
