data_PCOD9531775
_publ_section_title
;
Structure prediction by ZEFSAII (Michael W. Deem and Ramdas Pophale) SiO2 
 PCOD9531775
Probable space group: I B C A 
;
_chemical_formula_sum "Si O2"
_cell_formula_units_Z 88
_cell_length_a 25.352863
_cell_length_b 27.055279
_cell_length_c 5.597490
_cell_angle_alpha 90.000000
_cell_angle_beta 90.000000
_cell_angle_gamma 90.000000
_cell_volume 3839.479497
_symmetry_space_group_name_H-M "I B C A "
_symmetry_group_IT_number 73
_symmetry_cell_setting 'orthorhombic'
loop_
_space_group_symop_operation_xyz
x,y,z
-x,1/2-y,z
x,-y,1/2-z
1/2-x,y,-z
-x,-y,-z
x,1/2+y,-z
-x,y,1/2+z
1/2+x,-y,z
1/2+x,1/2+y,1/2+z
1/2-x,-y,1/2+z
1/2+x,1/2-y,-z
-x,1/2+y,1/2-z
1/2-x,1/2-y,1/2-z
1/2+x,y,1/2-z
1/2-x,1/2+y,z
x,1/2-y,1/2+z
loop_
_atom_site_type_symbol
_atom_site_label
_atom_site_fract_x
_atom_site_fract_y
_atom_site_fract_z
Si Si1 0.801235 0.123900 0.401189
Si Si2 0.354173 0.050602 0.711419
Si Si3 0.560514 0.731517 0.927773
Si Si4 0.097855 0.631780 0.364341
Si Si5 0.031445 0.450560 0.329978
Si Si6 0.250000 0.056412 0.500000
O O1 0.750000 0.153635 0.500000
O O2 0.830801 0.084816 0.576774
O O3 0.849016 0.151005 0.265877
O O4 0.770049 0.090600 0.211879
O O5 0.384480 0.089953 0.551051
O O6 0.303332 0.029424 0.565882
O O7 0.385769 0.000000 0.750000
O O8 0.500000 0.750000 0.906130
O O9 0.583467 0.740078 0.661742
O O10 0.566463 0.674846 0.004774
O O11 0.062305 0.600866 0.182872
O O12 0.063922 0.500000 0.250000
O O13 0.007982 0.451405 0.598297
#
# Coordination Sequence:
#
# PCOD9531775 Si02
#       6
#    16  16  16  16  16   8
#     4   9  20  39  60  94 141 185 236 277 341 416
#     4  10  22  33  59  94 140 187 234 271 331 415
#     4  10  25  46  73 103 130 167 231 304 367 427
#     4  11  25  39  71  97 138 185 230 292 369 415
#     4  10  25  42  62  93 136 182 231 277 342 429
#     4   8  18  34  52  90 128 196 224 284 312 390
#
# _framework density 22.919775000000001
#
# number of rings (size 3 to 8) (size 9 to 14) (size 15 to 20)
#    0.000    2.182    0.000    0.000   16.545    2.182 
#    0.000    0.000    0.000    1.091    0.000    0.000 
#    0.000    0.000    0.000    0.000    0.000    0.000 
#
# Total GULP energy -245030.851566 kJ/mol
# GULP energy per Si atom -5568.882990 kJ/mol
# Density = 2.286761 g / cm^3
# Si number density = 22.919775 Si / 1000 Ang^3
#
#
#
# Elastic Constant Matrix: (Units=GPa)
#
#
# Indices 1 2 3 4 5 6 
#
# 1 75.5924 24.2236 22.7756 0.0000 0.0000 0.0000
# 2 24.2236 62.0254 -9.9195 0.0000 0.0000 0.0000
# 3 22.7756 -9.9195 103.5635 0.0000 0.0000 0.0000
# 4 0.0000 0.0000 0.0000 27.0809 0.0000 0.0000
# 5 0.0000 0.0000 0.0000 0.0000 33.6353 0.0000
# 6 0.0000 0.0000 0.0000 0.0000 0.0000 3.3417
#
#
#
# Elastic Compliance Matrix: (Units=1/GPa)
#
#
# Indices 1 2 3 4 5 6 
#
# 1 0.016901 -0.007307 -0.004417 0.000000 0.000000 0.000000
# 2 -0.007307 0.019532 0.003478 0.000000 0.000000 0.000000
# 3 -0.004417 0.003478 0.010960 0.000000 0.000000 0.000000
# 4 0.000000 0.000000 0.000000 0.036926 0.000000 0.000000
# 5 0.000000 0.000000 0.000000 0.000000 0.029731 0.000000
# 6 0.000000 0.000000 0.000000 0.000000 0.000000 0.299247
#
#
# Mechanical properties :
#
#
# Convention : Reuss Voigt Hill
#
# Bulk Modulus (GPa) = 32.36051 35.03787 33.69919
# Shear Modulus (GPa) = 11.36132 26.41836 18.88984
#
# Velocity S-wave (km/s) = 2.22885 3.39875 2.87395
# Velocity P-wave (km/s) = 4.55778 5.54277 5.07423
#
# Compressibility (1/GPa) = 0.03090186
#
# Stress axis : x y z
#
# Youngs Moduli (GPa) = 59.16774 51.19726 91.23799
#
# Poissons Ratio (x) = 0.37410 0.40298
# Poissons Ratio (y) = 0.43234 -0.31731
# Poissons Ratio (z) = 0.26133 -0.17805
#
# Static dielectric constant tensor:
#      x y z
#    x 2.000420 0.000000 0.000000 
#    y 0.000000 1.861340 0.000000 
#    z 0.000000 0.000000 2.016960 
# 
# From -- ./inp_files/3119.got.cif
#   From: 2010.05.17/outbox.cif.g08.bks.cpg/sg73_2_cif.got.tgz:3119.got - 2010.06.03 17:35:07.
