data_PCOD9531466
_publ_section_title
;
Structure prediction by ZEFSAII (Michael W. Deem and Ramdas Pophale) SiO2 
 PCOD9531466
Probable space group: I B C A 
;
_chemical_formula_sum "Si O2"
_cell_formula_units_Z 88
_cell_length_a 9.792310
_cell_length_b 15.480281
_cell_length_c 22.281708
_cell_angle_alpha 90.000000
_cell_angle_beta 90.000000
_cell_angle_gamma 90.000000
_cell_volume 3377.633100
_symmetry_space_group_name_H-M "I B C A "
_symmetry_group_IT_number 73
_symmetry_cell_setting 'orthorhombic'
loop_
_space_group_symop_operation_xyz
x,y,z
-x,1/2-y,z
x,-y,1/2-z
1/2-x,y,-z
-x,-y,-z
x,1/2+y,-z
-x,y,1/2+z
1/2+x,-y,z
1/2+x,1/2+y,1/2+z
1/2-x,-y,1/2+z
1/2+x,1/2-y,-z
-x,1/2+y,1/2-z
1/2-x,1/2-y,1/2-z
1/2+x,y,1/2-z
1/2-x,1/2+y,z
x,1/2-y,1/2+z
loop_
_atom_site_type_symbol
_atom_site_label
_atom_site_fract_x
_atom_site_fract_y
_atom_site_fract_z
Si Si1 0.772062 0.411957 0.099158
Si Si2 0.599991 0.667695 0.168009
Si Si3 0.388887 0.173586 0.199696
Si Si4 0.045572 0.842941 0.963311
Si Si5 0.426090 0.505954 0.313185
Si Si6 0.750000 0.973467 0.500000
O O1 0.717251 0.339191 0.144758
O O2 0.813769 0.496867 0.136969
O O3 0.685642 0.459268 0.048447
O O4 0.905826 0.379539 0.064636
O O5 0.500000 0.750000 0.171426
O O6 0.677410 0.673606 0.232813
O O7 0.640817 0.667491 0.097471
O O8 0.516820 0.579218 0.177833
O O9 0.500000 0.250000 0.194062
O O10 0.478868 0.087770 0.189400
O O11 0.124550 0.906279 0.007936
O O12 0.000000 0.750000 0.988762
O O13 0.351516 0.500000 0.250000
#
# Coordination Sequence:
#
# PCOD9531466 Si02
#       6
#    16  16  16  16  16   8
#     4  11  23  41  64  92 131 180 229 285 348 420
#     4   8  16  36  63  96 138 173 222 289 355 428
#     4  10  21  39  66 102 139 177 227 290 360 435
#     4  10  23  44  66  95 131 175 230 287 348 413
#     4   9  19  36  59  93 132 172 223 282 356 434
#     4  12  26  44  66  92 132 182 232 290 342 414
#
# _framework density 26.053749
#
# number of rings (size 3 to 8) (size 9 to 14) (size 15 to 20)
#    0.000    2.182    0.000    2.727    0.000    5.818 
#    0.000   34.545    0.000    0.000    0.000    1.273 
#    0.000    0.000    0.000    0.000    0.000    0.000 
#
# Total GULP energy -245352.697738 kJ/mol
# GULP energy per Si atom -5576.197676 kJ/mol
# Density = 2.599445 g / cm^3
# Si number density = 26.053749 Si / 1000 Ang^3
#
#
#
# Elastic Constant Matrix: (Units=GPa)
#
#
# Indices 1 2 3 4 5 6 
#
# 1 75.2490 11.8610 17.6052 0.0000 0.0000 0.0000
# 2 11.8610 94.5671 1.9885 0.0000 0.0000 0.0000
# 3 17.6052 1.9885 87.2441 0.0000 0.0000 0.0000
# 4 0.0000 0.0000 0.0000 38.2827 0.0000 0.0000
# 5 0.0000 0.0000 0.0000 0.0000 32.9653 0.0000
# 6 0.0000 0.0000 0.0000 0.0000 0.0000 52.2546
#
#
#
# Elastic Compliance Matrix: (Units=1/GPa)
#
#
# Indices 1 2 3 4 5 6 
#
# 1 0.014223 -0.001724 -0.002831 0.000000 0.000000 0.000000
# 2 -0.001724 0.010789 0.000102 0.000000 0.000000 0.000000
# 3 -0.002831 0.000102 0.012031 0.000000 0.000000 0.000000
# 4 0.000000 0.000000 0.000000 0.026121 0.000000 0.000000
# 5 0.000000 0.000000 0.000000 0.000000 0.030335 0.000000
# 6 0.000000 0.000000 0.000000 0.000000 0.000000 0.019137
#
#
# Mechanical properties :
#
#
# Convention : Reuss Voigt Hill
#
# Bulk Modulus (GPa) = 35.54093 35.55218 35.54655
# Shear Modulus (GPa) = 38.19077 39.74089 38.96583
#
# Velocity S-wave (km/s) = 3.83279 3.90980 3.87149
# Velocity P-wave (km/s) = 5.76698 5.83587 5.80153
#
# Compressibility (1/GPa) = 0.02813658
#
# Stress axis : x y z
#
# Youngs Moduli (GPa) = 70.30699 92.69012 83.11853
#
# Poissons Ratio (x) = 0.15984 0.23530
# Poissons Ratio (y) = 0.12124 -0.00848
# Poissons Ratio (z) = 0.19903 -0.00946
#
# Static dielectric constant tensor:
#      x y z
#    x 2.102440 0.000000 0.000000 
#    y 0.000000 2.030870 0.000000 
#    z 0.000000 0.000000 2.261860 
# 
# From -- ./inp_files/28850.got.cif
#   From: 2010.05.17/outbox.cif.g08.bks.cpg/sg73_15_cif.got.tgz:28850.got - 2010.06.03 17:35:07.
