data_PCOD9531688
_publ_section_title
;
Structure prediction by ZEFSAII (Michael W. Deem and Ramdas Pophale) SiO2 
 PCOD9531688
Probable space group: I B C A 
;
_chemical_formula_sum "Si O2"
_cell_formula_units_Z 96
_cell_length_a 9.467805
_cell_length_b 20.136065
_cell_length_c 19.827844
_cell_angle_alpha 90.000000
_cell_angle_beta 90.000000
_cell_angle_gamma 90.000000
_cell_volume 3780.066171
_symmetry_space_group_name_H-M "I B C A "
_symmetry_group_IT_number 73
_symmetry_cell_setting 'orthorhombic'
loop_
_space_group_symop_operation_xyz
x,y,z
-x,1/2-y,z
x,-y,1/2-z
1/2-x,y,-z
-x,-y,-z
x,1/2+y,-z
-x,y,1/2+z
1/2+x,-y,z
1/2+x,1/2+y,1/2+z
1/2-x,-y,1/2+z
1/2+x,1/2-y,-z
-x,1/2+y,1/2-z
1/2-x,1/2-y,1/2-z
1/2+x,y,1/2-z
1/2-x,1/2+y,z
x,1/2-y,1/2+z
loop_
_atom_site_type_symbol
_atom_site_label
_atom_site_fract_x
_atom_site_fract_y
_atom_site_fract_z
Si Si1 0.636205 0.819678 0.371068
Si Si2 0.250000 0.814502 0.500000
Si Si3 0.364960 0.474737 0.388376
Si Si4 0.770046 0.000000 0.250000
Si Si5 0.500000 0.250000 0.000134
Si Si6 0.500000 0.250000 0.742783
Si Si7 0.580384 0.119631 0.825614
Si Si8 0.934143 0.917203 0.081581
O O1 0.598924 0.788704 0.443934
O O2 0.625471 0.766738 0.310803
O O3 0.781777 0.857928 0.366992
O O4 0.507922 0.872604 0.360844
O O5 0.368262 0.775943 0.544370
O O6 0.135258 0.861488 0.534888
O O7 0.336648 0.494689 0.311894
O O8 0.468425 0.412223 0.377938
O O9 0.205049 0.460237 0.408088
O O10 0.441373 0.530495 0.432956
O O11 0.865576 0.936658 0.271914
O O12 0.523210 0.184540 0.787330
#
# Coordination Sequence:
#
# PCOD9531688 Si02
#       8
#    16   8  16   8   8   8  16  16
#     4  10  21  43  62  90 135 171 221 282 344 393
#     4  10  24  44  72  98 130 172 230 286 366 418
#     4  12  24  40  65  96 135 178 228 276 339 404
#     4  12  22  40  64  94 136 188 228 270 332 410
#     4   9  22  42  69  92 124 170 215 290 351 416
#     4  11  24  36  61  98 132 182 227 276 329 404
#     4  12  24  39  62  97 135 183 230 274 324 410
#     4  11  23  44  66  97 130 176 228 291 348 410
#
# _framework density 25.396381000000002
#
# number of rings (size 3 to 8) (size 9 to 14) (size 15 to 20)
#    0.000    1.000    3.333    3.000    0.000    6.000 
#    0.000    0.000    0.000    0.000    0.000    0.000 
#    0.000    0.000    0.000    0.000    0.000    0.000 
#
# Total GULP energy -267438.488735 kJ/mol
# GULP energy per Si atom -5571.635182 kJ/mol
# Density = 2.533858 g / cm^3
# Si number density = 25.396381 Si / 1000 Ang^3
#
#
#
# Elastic Constant Matrix: (Units=GPa)
#
#
# Indices 1 2 3 4 5 6 
#
# 1 110.4826 30.5160 7.7850 0.0000 0.0000 0.0000
# 2 30.5160 84.9124 -6.6719 0.0000 0.0000 0.0000
# 3 7.7850 -6.6719 17.9513 0.0000 0.0000 0.0000
# 4 0.0000 0.0000 0.0000 27.3306 0.0000 0.0000
# 5 0.0000 0.0000 0.0000 0.0000 25.2766 0.0000
# 6 0.0000 0.0000 0.0000 0.0000 0.0000 49.6397
#
#
#
# Elastic Compliance Matrix: (Units=1/GPa)
#
#
# Indices 1 2 3 4 5 6 
#
# 1 0.010688 -0.004332 -0.006245 0.000000 0.000000 0.000000
# 2 -0.004332 0.013887 0.007040 0.000000 0.000000 0.000000
# 3 -0.006245 0.007040 0.061031 0.000000 0.000000 0.000000
# 4 0.000000 0.000000 0.000000 0.036589 0.000000 0.000000
# 5 0.000000 0.000000 0.000000 0.000000 0.039562 0.000000
# 6 0.000000 0.000000 0.000000 0.000000 0.000000 0.020145
#
#
# Mechanical properties :
#
#
# Convention : Reuss Voigt Hill
#
# Bulk Modulus (GPa) = 12.73374 30.73384 21.73379
# Shear Modulus (GPa) = 23.23935 32.56387 27.90161
#
# Velocity S-wave (km/s) = 3.02829 3.58470 3.31818
# Velocity P-wave (km/s) = 4.15358 5.40938 4.82253
#
# Compressibility (1/GPa) = 0.07853155
#
# Stress axis : x y z
#
# Youngs Moduli (GPa) = 93.56590 72.01140 16.38518
#
# Poissons Ratio (x) = 0.31193 0.10232
# Poissons Ratio (y) = 0.40529 -0.11535
# Poissons Ratio (z) = 0.58431 -0.50694
#
# Static dielectric constant tensor:
#      x y z
#    x 2.235890 0.000000 0.000000 
#    y 0.000000 1.880720 0.000000 
#    z 0.000000 0.000000 1.382040 
# 
# From -- ./inp_files/28443.got.cif
#   From: 2010.05.17/outbox.cif.g08.bks.cpg/sg73_15_cif.got.tgz:28443.got - 2010.06.03 17:35:07.
