data_PCOD9531840
_publ_section_title
;
Structure prediction by ZEFSAII (Michael W. Deem and Ramdas Pophale) SiO2 
 PCOD9531840
Probable space group: I B C A 
;
_chemical_formula_sum "Si O2"
_cell_formula_units_Z 88
_cell_length_a 19.075952
_cell_length_b 24.921215
_cell_length_c 9.565483
_cell_angle_alpha 90.000000
_cell_angle_beta 90.000000
_cell_angle_gamma 90.000000
_cell_volume 4547.391410
_symmetry_space_group_name_H-M "I B C A "
_symmetry_group_IT_number 73
_symmetry_cell_setting 'orthorhombic'
loop_
_space_group_symop_operation_xyz
x,y,z
-x,1/2-y,z
x,-y,1/2-z
1/2-x,y,-z
-x,-y,-z
x,1/2+y,-z
-x,y,1/2+z
1/2+x,-y,z
1/2+x,1/2+y,1/2+z
1/2-x,-y,1/2+z
1/2+x,1/2-y,-z
-x,1/2+y,1/2-z
1/2-x,1/2-y,1/2-z
1/2+x,y,1/2-z
1/2-x,1/2+y,z
x,1/2-y,1/2+z
loop_
_atom_site_type_symbol
_atom_site_label
_atom_site_fract_x
_atom_site_fract_y
_atom_site_fract_z
Si Si1 0.876340 0.686911 0.852302
Si Si2 0.571829 0.721685 0.439554
Si Si3 0.691431 0.028797 0.106624
Si Si4 0.465532 0.953481 0.848509
Si Si5 0.513451 0.882108 0.093585
Si Si6 0.750000 0.133048 0.000000
O O1 0.881689 0.706719 0.693494
O O2 0.935420 0.640433 0.872041
O O3 0.801922 0.665721 0.902730
O O4 0.896094 0.735405 0.955083
O O5 0.500000 0.750000 0.385014
O O6 0.553141 0.668224 0.525894
O O7 0.607728 0.024093 0.089688
O O8 0.705690 0.092404 0.097405
O O9 0.707336 0.000000 0.250000
O O10 0.750000 0.006666 0.000000
O O11 0.454002 0.905412 0.736052
O O12 0.498180 0.000000 0.750000
O O13 0.508284 0.928336 0.975950
#
# Coordination Sequence:
#
# PCOD9531840 Si02
#       6
#    16  16  16  16  16   8
#     4  11  22  39  60  89 120 166 210 259 319 373
#     4  10  22  37  63  89 121 165 207 258 318 389
#     4   9  20  42  63  87 121 175 213 252 307 382
#     4  11  22  38  62  96 128 160 205 262 321 381
#     4  11  20  39  62  92 128 158 203 262 327 374
#     4  10  22  40  62  84 128 164 206 272 308 370
#
# _framework density 19.351754
#
# number of rings (size 3 to 8) (size 9 to 14) (size 15 to 20)
#    0.545    1.091    3.636    2.182    2.545    0.727 
#    6.545    1.818    0.000    0.000    0.000    0.000 
#    0.000    0.000    0.000    0.000    0.000    0.000 
#
# Total GULP energy -245322.115046 kJ/mol
# GULP energy per Si atom -5575.502615 kJ/mol
# Density = 1.930771 g / cm^3
# Si number density = 19.351754 Si / 1000 Ang^3
#
#
#
# Elastic Constant Matrix: (Units=GPa)
#
#
# Indices 1 2 3 4 5 6 
#
# 1 37.3542 14.4188 27.6646 0.0000 0.0000 0.0000
# 2 14.4188 57.1228 26.0618 0.0000 0.0000 0.0000
# 3 27.6646 26.0618 88.6787 0.0000 0.0000 0.0000
# 4 0.0000 0.0000 0.0000 31.9572 0.0000 0.0000
# 5 0.0000 0.0000 0.0000 0.0000 18.8743 0.0000
# 6 0.0000 0.0000 0.0000 0.0000 0.0000 6.1457
#
#
#
# Elastic Compliance Matrix: (Units=1/GPa)
#
#
# Indices 1 2 3 4 5 6 
#
# 1 0.035811 -0.004553 -0.009834 0.000000 0.000000 0.000000
# 2 -0.004553 0.020796 -0.004691 0.000000 0.000000 0.000000
# 3 -0.009834 -0.004691 0.015723 0.000000 0.000000 0.000000
# 4 0.000000 0.000000 0.000000 0.031292 0.000000 0.000000
# 5 0.000000 0.000000 0.000000 0.000000 0.052982 0.000000
# 6 0.000000 0.000000 0.000000 0.000000 0.000000 0.162714
#
#
# Mechanical properties :
#
#
# Convention : Reuss Voigt Hill
#
# Bulk Modulus (GPa) = 29.26183 35.49399 32.37791
# Shear Modulus (GPa) = 13.55507 19.06281 16.30894
#
# Velocity S-wave (km/s) = 2.64949 3.14199 2.90619
# Velocity P-wave (km/s) = 4.95112 5.61641 5.29422
#
# Compressibility (1/GPa) = 0.03417422
#
# Stress axis : x y z
#
# Youngs Moduli (GPa) = 27.92436 48.08675 63.60036
#
# Poissons Ratio (x) = 0.21893 0.62543
# Poissons Ratio (y) = 0.12713 0.29837
# Poissons Ratio (z) = 0.27460 0.22559
#
# Static dielectric constant tensor:
#      x y z
#    x 1.688250 0.000000 0.000000 
#    y 0.000000 1.700590 0.000000 
#    z 0.000000 0.000000 1.650310 
# 
# From -- ./inp_files/6265.got.cif
#   From: 2010.05.17/outbox.cif.g08.bks.cpg/sg73_4_cif.got.tgz:6265.got - 2010.06.03 17:35:07.
