data_PCOD9531791
_publ_section_title
;
Structure prediction by ZEFSAII (Michael W. Deem and Ramdas Pophale) SiO2 
 PCOD9531791
Probable space group: I B C A 
;
_chemical_formula_sum "Si O2"
_cell_formula_units_Z 104
_cell_length_a 26.847117
_cell_length_b 9.101711
_cell_length_c 20.350121
_cell_angle_alpha 90.000000
_cell_angle_beta 90.000000
_cell_angle_gamma 90.000000
_cell_volume 4972.647714
_symmetry_space_group_name_H-M "I B C A "
_symmetry_group_IT_number 73
_symmetry_cell_setting 'orthorhombic'
loop_
_space_group_symop_operation_xyz
x,y,z
-x,1/2-y,z
x,-y,1/2-z
1/2-x,y,-z
-x,-y,-z
x,1/2+y,-z
-x,y,1/2+z
1/2+x,-y,z
1/2+x,1/2+y,1/2+z
1/2-x,-y,1/2+z
1/2+x,1/2-y,-z
-x,1/2+y,1/2-z
1/2-x,1/2-y,1/2-z
1/2+x,y,1/2-z
1/2-x,1/2+y,z
x,1/2-y,1/2+z
loop_
_atom_site_type_symbol
_atom_site_label
_atom_site_fract_x
_atom_site_fract_y
_atom_site_fract_z
Si Si1 0.301116 0.993507 0.035145
Si Si2 0.116983 0.998796 0.426321
Si Si3 0.380166 0.167284 0.376540
Si Si4 0.961371 0.117944 0.023622
Si Si5 0.186067 0.470037 0.821731
Si Si6 0.659095 0.500000 0.250000
Si Si7 0.268772 0.680307 0.847295
O O1 0.330962 0.878994 0.081380
O O2 0.287408 0.131432 0.081207
O O3 0.250000 0.941924 0.000000
O O4 0.340582 0.036153 0.979730
O O5 0.106036 0.839729 0.391912
O O6 0.078162 0.104489 0.463291
O O7 0.143240 0.086777 0.368315
O O8 0.427414 0.089152 0.412484
O O9 0.371128 0.103234 0.302829
O O10 0.000000 0.250000 0.034196
O O11 0.000000 0.000000 0.000000
O O12 0.166973 0.500000 0.750000
O O13 0.213142 0.619495 0.841689
O O14 0.229097 0.350104 0.829506
O O15 0.694617 0.397172 0.205329
#
# Coordination Sequence:
#
# PCOD9531791 Si02
#       7
#    16  16  16  16  16   8  16
#     4  10  22  35  56  93 136 174 223 276 321 384
#     4  11  24  38  65  99 132 171 226 283 333 403
#     4  10  23  40  68  99 131 182 221 276 338 405
#     4  11  23  45  74 101 131 167 223 289 365 406
#     4  12  25  39  60  90 136 181 234 258 321 391
#     4  10  22  42  64  94 142 178 234 256 326 404
#     4  11  24  37  60  88 132 193 222 266 315 383
#
# _framework density 20.914411000000001
#
# number of rings (size 3 to 8) (size 9 to 14) (size 15 to 20)
#    0.000    1.231    3.846    1.385    8.615    1.846 
#    0.000    0.000    1.692    0.923    0.000    0.000 
#    0.000    0.000    0.000    0.000    0.000    0.000 
#
# Total GULP energy -289917.684244 kJ/mol
# GULP energy per Si atom -5575.340082 kJ/mol
# Density = 2.086681 g / cm^3
# Si number density = 20.914411 Si / 1000 Ang^3
#
#
#
# Elastic Constant Matrix: (Units=GPa)
#
#
# Indices 1 2 3 4 5 6 
#
# 1 109.8048 3.6001 63.4316 0.0000 0.0000 0.0000
# 2 3.6001 38.8185 22.4376 0.0000 0.0000 0.0000
# 3 63.4316 22.4376 136.1993 0.0000 0.0000 0.0000
# 4 0.0000 0.0000 0.0000 20.2520 0.0000 0.0000
# 5 0.0000 0.0000 0.0000 0.0000 32.7161 0.0000
# 6 0.0000 0.0000 0.0000 0.0000 0.0000 34.5955
#
#
#
# Elastic Compliance Matrix: (Units=1/GPa)
#
#
# Indices 1 2 3 4 5 6 
#
# 1 0.012670 0.002471 -0.006308 0.000000 0.000000 0.000000
# 2 0.002471 0.028954 -0.005921 0.000000 0.000000 0.000000
# 3 -0.006308 -0.005921 0.011255 0.000000 0.000000 0.000000
# 4 0.000000 0.000000 0.000000 0.049378 0.000000 0.000000
# 5 0.000000 0.000000 0.000000 0.000000 0.030566 0.000000
# 6 0.000000 0.000000 0.000000 0.000000 0.000000 0.028906
#
#
# Mechanical properties :
#
#
# Convention : Reuss Voigt Hill
#
# Bulk Modulus (GPa) = 29.97233 51.52902 40.75068
# Shear Modulus (GPa) = 25.99225 30.53625 28.26425
#
# Velocity S-wave (km/s) = 3.52915 3.82522 3.68016
# Velocity P-wave (km/s) = 5.56494 6.64840 6.13065
#
# Compressibility (1/GPa) = 0.03336410
#
# Stress axis : x y z
#
# Youngs Moduli (GPa) = 78.92717 34.53758 88.84741
#
# Poissons Ratio (x) = -0.08534 0.56043
# Poissons Ratio (y) = -0.19502 0.52604
# Poissons Ratio (z) = 0.49785 0.20449
#
# Static dielectric constant tensor:
#      x y z
#    x 1.859840 0.000000 0.000000 
#    y 0.000000 1.826720 0.000000 
#    z 0.000000 0.000000 1.785090 
# 
# From -- ./inp_files/27587.got.cif
#   From: 2010.05.17/outbox.cif.g08.bks.cpg/sg73_14_cif.got.tgz:27587.got - 2010.06.03 17:35:07.
