data_PCOD9531122
_publ_section_title
;
Structure prediction by ZEFSAII (Michael W. Deem and Ramdas Pophale) SiO2 
 PCOD9531122
Probable space group: I B C A 
;
_chemical_formula_sum "Si O2"
_cell_formula_units_Z 64
_cell_length_a 11.016713
_cell_length_b 13.876500
_cell_length_c 16.799481
_cell_angle_alpha 90.000000
_cell_angle_beta 90.000000
_cell_angle_gamma 90.000000
_cell_volume 2568.194080
_symmetry_space_group_name_H-M "I B C A "
_symmetry_group_IT_number 73
_symmetry_cell_setting 'orthorhombic'
loop_
_space_group_symop_operation_xyz
x,y,z
-x,1/2-y,z
x,-y,1/2-z
1/2-x,y,-z
-x,-y,-z
x,1/2+y,-z
-x,y,1/2+z
1/2+x,-y,z
1/2+x,1/2+y,1/2+z
1/2-x,-y,1/2+z
1/2+x,1/2-y,-z
-x,1/2+y,1/2-z
1/2-x,1/2-y,1/2-z
1/2+x,y,1/2-z
1/2-x,1/2+y,z
x,1/2-y,1/2+z
loop_
_atom_site_type_symbol
_atom_site_label
_atom_site_fract_x
_atom_site_fract_y
_atom_site_fract_z
Si Si1 0.128722 0.636977 0.930834
Si Si2 0.376777 0.103882 0.348762
Si Si3 0.750000 0.453971 0.500000
Si Si4 0.366088 0.374697 0.672018
Si Si5 0.000000 0.250000 0.437913
O O1 0.147643 0.531663 0.972433
O O2 0.245090 0.654840 0.875919
O O3 0.009538 0.632281 0.877734
O O4 0.102196 0.715126 0.999293
O O5 0.353014 0.153470 0.264296
O O6 0.287122 0.109525 0.424333
O O7 0.373063 0.989547 0.332928
O O8 0.485594 0.336016 0.626282
#
# Coordination Sequence:
#
# PCOD9531122 Si02
#       5
#    16  16   8  16   8
#     4  11  22  45  68 103 143 187 247 294 361 440
#     4  10  22  43  74 104 137 187 244 311 356 421
#     4  10  20  42  74 108 138 186 250 298 360 432
#     4  10  24  45  69 107 147 185 245 302 361 436
#     4  12  22  44  68  94 146 196 220 300 360 436
#
# _framework density 24.920233
#
# number of rings (size 3 to 8) (size 9 to 14) (size 15 to 20)
#    0.000    1.500    5.000    0.750    0.000    9.000 
#    4.500    2.500    0.000    0.000    0.000    0.000 
#    0.000    0.000    0.000    0.000    0.000    0.000 
#
# Total GULP energy -178639.742927 kJ/mol
# GULP energy per Si atom -5582.491966 kJ/mol
# Density = 2.486351 g / cm^3
# Si number density = 24.920233 Si / 1000 Ang^3
#
#
#
# Elastic Constant Matrix: (Units=GPa)
#
#
# Indices 1 2 3 4 5 6 
#
# 1 121.3267 31.3552 99.4019 0.0000 0.0000 0.0000
# 2 31.3552 75.4657 56.1772 0.0000 0.0000 0.0000
# 3 99.4019 56.1772 258.8452 0.0000 0.0000 0.0000
# 4 0.0000 0.0000 0.0000 44.3635 0.0000 0.0000
# 5 0.0000 0.0000 0.0000 0.0000 26.3350 0.0000
# 6 0.0000 0.0000 0.0000 0.0000 0.0000 22.5588
#
#
#
# Elastic Compliance Matrix: (Units=1/GPa)
#
#
# Indices 1 2 3 4 5 6 
#
# 1 0.012249 -0.001894 -0.004293 0.000000 0.000000 0.000000
# 2 -0.001894 0.016097 -0.002766 0.000000 0.000000 0.000000
# 3 -0.004293 -0.002766 0.006112 0.000000 0.000000 0.000000
# 4 0.000000 0.000000 0.000000 0.022541 0.000000 0.000000
# 5 0.000000 0.000000 0.000000 0.000000 0.037972 0.000000
# 6 0.000000 0.000000 0.000000 0.000000 0.000000 0.044329
#
#
# Mechanical properties :
#
#
# Convention : Reuss Voigt Hill
#
# Bulk Modulus (GPa) = 60.41395 92.16735 76.29065
# Shear Modulus (GPa) = 30.72710 36.56501 33.64606
#
# Velocity S-wave (km/s) = 3.51525 3.83467 3.67843
# Velocity P-wave (km/s) = 6.38526 7.52805 6.98008
#
# Compressibility (1/GPa) = 0.01655247
#
# Stress axis : x y z
#
# Youngs Moduli (GPa) = 81.64205 62.12285 163.60722
#
# Poissons Ratio (x) = 0.11764 0.70232
# Poissons Ratio (y) = 0.15460 0.45260
# Poissons Ratio (z) = 0.35047 0.17186
#
# Static dielectric constant tensor:
#      x y z
#    x 1.972840 0.000000 0.000000 
#    y 0.000000 2.003630 0.000000 
#    z 0.000000 0.000000 2.017680 
# 
# From -- ./inp_files/21072.got.cif
#   From: 2010.05.17/outbox.cif.g08.bks.cpg/sg73_11_cif.got.tgz:21072.got - 2010.06.03 17:35:07.
