data_PCOD9531924
_publ_section_title
;
Structure prediction by ZEFSAII (Michael W. Deem and Ramdas Pophale) SiO2 
 PCOD9531924
Probable space group: I B C A 
;
_chemical_formula_sum "Si O2"
_cell_formula_units_Z 96
_cell_length_a 23.102193
_cell_length_b 14.241151
_cell_length_c 14.346433
_cell_angle_alpha 90.000000
_cell_angle_beta 90.000000
_cell_angle_gamma 90.000000
_cell_volume 4720.002552
_symmetry_space_group_name_H-M "I B C A "
_symmetry_group_IT_number 73
_symmetry_cell_setting 'orthorhombic'
loop_
_space_group_symop_operation_xyz
x,y,z
-x,1/2-y,z
x,-y,1/2-z
1/2-x,y,-z
-x,-y,-z
x,1/2+y,-z
-x,y,1/2+z
1/2+x,-y,z
1/2+x,1/2+y,1/2+z
1/2-x,-y,1/2+z
1/2+x,1/2-y,-z
-x,1/2+y,1/2-z
1/2-x,1/2-y,1/2-z
1/2+x,y,1/2-z
1/2-x,1/2+y,z
x,1/2-y,1/2+z
loop_
_atom_site_type_symbol
_atom_site_label
_atom_site_fract_x
_atom_site_fract_y
_atom_site_fract_z
Si Si1 0.147693 0.357904 0.441608
Si Si2 0.768064 0.513759 0.893289
Si Si3 0.514418 0.356721 0.016113
Si Si4 0.792860 0.302281 0.318990
Si Si5 0.956893 0.499515 0.356690
Si Si6 0.837939 0.100676 0.653780
O O1 0.171453 0.456300 0.396454
O O2 0.078427 0.359526 0.438976
O O3 0.178233 0.270561 0.390607
O O4 0.161975 0.349618 0.552713
O O5 0.748621 0.617965 0.864050
O O6 0.724150 0.447367 0.838098
O O7 0.750000 0.508347 0.000000
O O8 0.500000 0.250000 0.994155
O O9 0.470557 0.403705 0.089371
O O10 0.515217 0.419829 0.922443
O O11 0.750000 0.250000 0.250000
O O12 0.842811 0.341392 0.248995
O O13 0.977654 0.500000 0.250000
O O14 0.889025 0.525216 0.354796
#
# Coordination Sequence:
#
# PCOD9531924 Si02
#       6
#    16  16  16  16  16  16
#     4  10  24  45  62  97 139 167 228 276 321 406
#     4  10  22  39  63  90 131 173 207 263 334 387
#     4  10  24  45  69 100 134 180 228 280 340 394
#     4  12  24  37  67  98 134 172 220 268 333 402
#     4  10  22  44  70  95 135 173 227 280 334 405
#     4  10  22  42  66  93 129 173 220 268 333 395
#
# _framework density 20.338972999999999
#
# number of rings (size 3 to 8) (size 9 to 14) (size 15 to 20)
#    0.000    1.667    1.667    1.500    7.000    0.667 
#    6.000    0.000    0.000    0.000    0.000    0.000 
#    0.000    0.000    0.000    0.000    0.000    0.000 
#
# Total GULP energy -267529.009938 kJ/mol
# GULP energy per Si atom -5573.521040 kJ/mol
# Density = 2.029268 g / cm^3
# Si number density = 20.338973 Si / 1000 Ang^3
#
#
#
# Elastic Constant Matrix: (Units=GPa)
#
#
# Indices 1 2 3 4 5 6 
#
# 1 74.9155 23.7005 23.2368 0.0000 0.0000 0.0000
# 2 23.7005 108.5312 48.4955 0.0000 0.0000 0.0000
# 3 23.2368 48.4955 130.5077 0.0000 0.0000 0.0000
# 4 0.0000 0.0000 0.0000 38.8639 0.0000 0.0000
# 5 0.0000 0.0000 0.0000 0.0000 19.1161 0.0000
# 6 0.0000 0.0000 0.0000 0.0000 0.0000 31.0595
#
#
#
# Elastic Compliance Matrix: (Units=1/GPa)
#
#
# Indices 1 2 3 4 5 6 
#
# 1 0.014648 -0.002438 -0.001702 0.000000 0.000000 0.000000
# 2 -0.002438 0.011454 -0.003822 0.000000 0.000000 0.000000
# 3 -0.001702 -0.003822 0.009386 0.000000 0.000000 0.000000
# 4 0.000000 0.000000 0.000000 0.025731 0.000000 0.000000
# 5 0.000000 0.000000 0.000000 0.000000 0.052312 0.000000
# 6 0.000000 0.000000 0.000000 0.000000 0.000000 0.032196
#
#
# Mechanical properties :
#
#
# Convention : Reuss Voigt Hill
#
# Bulk Modulus (GPa) = 51.11716 56.09111 53.60413
# Shear Modulus (GPa) = 29.73141 32.37600 31.05371
#
# Velocity S-wave (km/s) = 3.82749 3.99409 3.91168
# Velocity P-wave (km/s) = 6.68731 6.99345 6.84209
#
# Compressibility (1/GPa) = 0.01956290
#
# Stress axis : x y z
#
# Youngs Moduli (GPa) = 68.27037 87.30371 106.54483
#
# Poissons Ratio (x) = 0.21286 0.18134
# Poissons Ratio (y) = 0.16645 0.40723
# Poissons Ratio (z) = 0.11620 0.33369
#
# Static dielectric constant tensor:
#      x y z
#    x 1.737300 0.000000 0.000000 
#    y 0.000000 1.824510 0.000000 
#    z 0.000000 0.000000 1.776640 
# 
# From -- ./inp_files/18627.got.cif
#   From: 2010.05.17/outbox.cif.g08.bks.cpg/sg73_10_cif.got.tgz:18627.got - 2010.06.03 17:35:07.
