data_PCOD9531173
_publ_section_title
;
Structure prediction by ZEFSAII (Michael W. Deem and Ramdas Pophale) SiO2 
 PCOD9531173
Probable space group: I B C A 
;
_chemical_formula_sum "Si O2"
_cell_formula_units_Z 120
_cell_length_a 22.684135
_cell_length_b 28.829018
_cell_length_c 9.676603
_cell_angle_alpha 90.000000
_cell_angle_beta 90.000000
_cell_angle_gamma 90.000000
_cell_volume 6328.124228
_symmetry_space_group_name_H-M "I B C A "
_symmetry_group_IT_number 73
_symmetry_cell_setting 'orthorhombic'
loop_
_space_group_symop_operation_xyz
x,y,z
-x,1/2-y,z
x,-y,1/2-z
1/2-x,y,-z
-x,-y,-z
x,1/2+y,-z
-x,y,1/2+z
1/2+x,-y,z
1/2+x,1/2+y,1/2+z
1/2-x,-y,1/2+z
1/2+x,1/2-y,-z
-x,1/2+y,1/2-z
1/2-x,1/2-y,1/2-z
1/2+x,y,1/2-z
1/2-x,1/2+y,z
x,1/2-y,1/2+z
loop_
_atom_site_type_symbol
_atom_site_label
_atom_site_fract_x
_atom_site_fract_y
_atom_site_fract_z
Si Si1 0.446859 0.188560 0.131950
Si Si2 0.121429 0.000000 0.250000
Si Si3 0.897111 0.356248 0.136538
Si Si4 0.915121 0.865850 0.407859
Si Si5 0.601484 0.054065 0.714534
Si Si6 0.414064 0.208620 0.621809
Si Si7 0.464746 0.423952 0.154764
Si Si8 0.316612 0.070401 0.951582
O O1 0.441701 0.163809 0.280603
O O2 0.515368 0.200099 0.108841
O O3 0.409416 0.236060 0.119129
O O4 0.424283 0.155852 0.010618
O O5 0.077520 0.968873 0.156256
O O6 0.162901 0.968055 0.342557
O O7 0.894733 0.310726 0.230301
O O8 0.938256 0.392160 0.221904
O O9 0.834349 0.380533 0.115930
O O10 0.881040 0.908127 0.332111
O O11 0.886826 0.825756 0.505738
O O12 0.956139 0.894898 0.514327
O O13 0.531975 0.062605 0.683342
O O14 0.640482 0.064393 0.581720
O O15 0.608963 0.000000 0.750000
O O16 0.250000 0.066895 0.000000
#
# Coordination Sequence:
#
# PCOD9531173 Si02
#       8
#    16   8  16  16  16  16  16  16
#     4  11  19  33  54  90 126 164 193 238 314 382
#     4  10  22  44  62  84 126 160 198 256 308 364
#     4  10  21  38  59  85 123 163 194 248 306 360
#     4  11  21  33  54  89 128 160 200 241 297 375
#     4  12  24  36  63  92 123 159 206 253 303 370
#     4  10  21  32  55  88 131 158 191 244 315 383
#     4  10  22  36  59  93 129 155 192 249 318 361
#     4  11  26  43  61  82 115 169 211 249 296 355
#
# _framework density 18.962966000000002
#
# number of rings (size 3 to 8) (size 9 to 14) (size 15 to 20)
#    0.000    1.333    2.000    4.800    6.533    3.200 
#    0.000    0.000    0.000    0.800    0.000    0.000 
#    0.000    0.000    0.000    0.000    0.000    0.000 
#
# Total GULP energy -334839.445524 kJ/mol
# GULP energy per Si atom -5580.657425 kJ/mol
# Density = 1.891981 g / cm^3
# Si number density = 18.962966 Si / 1000 Ang^3
#
#
#
# Elastic Constant Matrix: (Units=GPa)
#
#
# Indices 1 2 3 4 5 6 
#
# 1 81.3649 25.4631 27.0504 0.0000 0.0000 0.0000
# 2 25.4631 122.8115 37.1962 0.0000 0.0000 0.0000
# 3 27.0504 37.1962 110.6601 0.0000 0.0000 0.0000
# 4 0.0000 0.0000 0.0000 26.7264 0.0000 0.0000
# 5 0.0000 0.0000 0.0000 0.0000 14.6614 0.0000
# 6 0.0000 0.0000 0.0000 0.0000 0.0000 7.0463
#
#
#
# Elastic Compliance Matrix: (Units=1/GPa)
#
#
# Indices 1 2 3 4 5 6 
#
# 1 0.013827 -0.002052 -0.002690 0.000000 0.000000 0.000000
# 2 -0.002052 0.009370 -0.002648 0.000000 0.000000 0.000000
# 3 -0.002690 -0.002648 0.010584 0.000000 0.000000 0.000000
# 4 0.000000 0.000000 0.000000 0.037416 0.000000 0.000000
# 5 0.000000 0.000000 0.000000 0.000000 0.068206 0.000000
# 6 0.000000 0.000000 0.000000 0.000000 0.000000 0.141918
#
#
# Mechanical properties :
#
#
# Convention : Reuss Voigt Hill
#
# Bulk Modulus (GPa) = 52.62893 54.91730 53.77311
# Shear Modulus (GPa) = 16.53246 24.69529 20.61387
#
# Velocity S-wave (km/s) = 2.95588 3.61264 3.30064
# Velocity P-wave (km/s) = 6.28199 6.81357 6.55317
#
# Compressibility (1/GPa) = 0.01900096
#
# Stress axis : x y z
#
# Youngs Moduli (GPa) = 72.32300 106.72362 94.47923
#
# Poissons Ratio (x) = 0.21900 0.25417
# Poissons Ratio (y) = 0.14841 0.25017
# Poissons Ratio (z) = 0.19456 0.28260
#
# Static dielectric constant tensor:
#      x y z
#    x 1.613770 0.000000 0.000000 
#    y 0.000000 1.733120 0.000000 
#    z 0.000000 0.000000 1.685010 
# 
# From -- ./inp_files/7485.got.cif
#   From: 2010.05.17/outbox.cif.g08.bks.cpg/sg73_4_cif.got.tgz:7485.got - 2010.06.03 17:35:07.
