data_PCOD9531188
_publ_section_title
;
Structure prediction by ZEFSAII (Michael W. Deem and Ramdas Pophale) SiO2 
 PCOD9531188
Probable space group: I B C A 
;
_chemical_formula_sum "Si O2"
_cell_formula_units_Z 104
_cell_length_a 20.320258
_cell_length_b 8.839045
_cell_length_c 27.364325
_cell_angle_alpha 90.000000
_cell_angle_beta 90.000000
_cell_angle_gamma 90.000000
_cell_volume 4914.952245
_symmetry_space_group_name_H-M "I B C A "
_symmetry_group_IT_number 73
_symmetry_cell_setting 'orthorhombic'
loop_
_space_group_symop_operation_xyz
x,y,z
-x,1/2-y,z
x,-y,1/2-z
1/2-x,y,-z
-x,-y,-z
x,1/2+y,-z
-x,y,1/2+z
1/2+x,-y,z
1/2+x,1/2+y,1/2+z
1/2-x,-y,1/2+z
1/2+x,1/2-y,-z
-x,1/2+y,1/2-z
1/2-x,1/2-y,1/2-z
1/2+x,y,1/2-z
1/2-x,1/2+y,z
x,1/2-y,1/2+z
loop_
_atom_site_type_symbol
_atom_site_label
_atom_site_fract_x
_atom_site_fract_y
_atom_site_fract_z
Si Si1 0.364197 0.376620 0.713317
Si Si2 0.750000 0.819878 0.500000
Si Si3 0.678357 0.802260 0.196194
Si Si4 0.442074 0.367478 0.370789
Si Si5 0.181127 0.939162 0.438110
Si Si6 0.047236 0.615426 0.705519
Si Si7 0.754431 0.042732 0.157778
O O1 0.400420 0.500000 0.750000
O O2 0.321696 0.288713 0.753983
O O3 0.398137 0.234747 0.687593
O O4 0.323789 0.471691 0.674433
O O5 0.786914 0.711456 0.461193
O O6 0.806688 0.928578 0.522339
O O7 0.608211 0.795467 0.169302
O O8 0.701737 0.974285 0.195824
O O9 0.732203 0.718964 0.162581
O O10 0.500000 0.250000 0.383366
O O11 0.391950 0.412971 0.414980
O O12 0.471588 0.511911 0.340811
O O13 0.226572 0.996682 0.393812
O O14 0.062811 0.500000 0.750000
O O15 0.000000 0.750000 0.725501
#
# Coordination Sequence:
#
# PCOD9531188 Si02
#       7
#    16   8  16  16  16  16  16
#     4  10  22  36  55  88 126 173 221 268 309 355
#     4  10  22  44  74 100 124 154 194 252 352 414
#     4  10  21  37  55  88 127 176 209 267 305 361
#     4  11  25  43  63  90 131 170 221 264 310 366
#     4  10  22  43  68  99 126 161 198 265 327 407
#     4  12  25  39  61  83 129 182 233 258 300 347
#     4  10  21  34  61  88 128 157 214 254 326 362
#
# _framework density 21.159921000000001
#
# number of rings (size 3 to 8) (size 9 to 14) (size 15 to 20)
#    0.000    1.538    1.538    3.231   10.769    0.000 
#    0.000    0.769    0.000    0.000    0.000    0.000 
#    0.000    0.000    0.000    0.000    0.000    0.000 
#
# Total GULP energy -289675.931597 kJ/mol
# GULP energy per Si atom -5570.690992 kJ/mol
# Density = 2.111176 g / cm^3
# Si number density = 21.159921 Si / 1000 Ang^3
#
#
#
# Elastic Constant Matrix: (Units=GPa)
#
#
# Indices 1 2 3 4 5 6 
#
# 1 64.5825 34.4587 18.4795 0.0000 0.0000 0.0000
# 2 34.4587 131.7644 32.0585 0.0000 0.0000 0.0000
# 3 18.4795 32.0585 75.1569 0.0000 0.0000 0.0000
# 4 0.0000 0.0000 0.0000 39.0059 0.0000 0.0000
# 5 0.0000 0.0000 0.0000 0.0000 22.6004 0.0000
# 6 0.0000 0.0000 0.0000 0.0000 0.0000 41.7567
#
#
#
# Elastic Compliance Matrix: (Units=1/GPa)
#
#
# Indices 1 2 3 4 5 6 
#
# 1 0.018499 -0.004163 -0.002773 0.000000 0.000000 0.000000
# 2 -0.004163 0.009405 -0.002988 0.000000 0.000000 0.000000
# 3 -0.002773 -0.002988 0.015262 0.000000 0.000000 0.000000
# 4 0.000000 0.000000 0.000000 0.025637 0.000000 0.000000
# 5 0.000000 0.000000 0.000000 0.000000 0.044247 0.000000
# 6 0.000000 0.000000 0.000000 0.000000 0.000000 0.023948
#
#
# Mechanical properties :
#
#
# Convention : Reuss Voigt Hill
#
# Bulk Modulus (GPa) = 42.88579 49.05527 45.97053
# Shear Modulus (GPa) = 30.37326 33.10639 31.73983
#
# Velocity S-wave (km/s) = 3.79280 3.95977 3.87718
# Velocity P-wave (km/s) = 6.28426 6.64378 6.46652
#
# Compressibility (1/GPa) = 0.02331775
#
# Stress axis : x y z
#
# Youngs Moduli (GPa) = 54.05780 106.32573 65.52292
#
# Poissons Ratio (x) = 0.44265 0.18167
# Poissons Ratio (y) = 0.22505 0.19579
# Poissons Ratio (z) = 0.14988 0.31772
#
# Static dielectric constant tensor:
#      x y z
#    x 2.004850 0.000000 0.000000 
#    y 0.000000 1.798060 0.000000 
#    z 0.000000 0.000000 1.779860 
# 
# From -- ./inp_files/34669.got.cif
#   From: 2010.05.17/outbox.cif.g08.bks.cpg/sg73_18_cif.got.tgz:34669.got - 2010.06.03 17:35:07.
