data_PCOD9531966
_publ_section_title
;
Structure prediction by ZEFSAII (Michael W. Deem and Ramdas Pophale) SiO2 
 PCOD9531966
Probable space group: I B C A 
;
_chemical_formula_sum "Si O2"
_cell_formula_units_Z 88
_cell_length_a 11.897159
_cell_length_b 25.991047
_cell_length_c 13.729691
_cell_angle_alpha 90.000000
_cell_angle_beta 90.000000
_cell_angle_gamma 90.000000
_cell_volume 4245.489816
_symmetry_space_group_name_H-M "I B C A "
_symmetry_group_IT_number 73
_symmetry_cell_setting 'orthorhombic'
loop_
_space_group_symop_operation_xyz
x,y,z
-x,1/2-y,z
x,-y,1/2-z
1/2-x,y,-z
-x,-y,-z
x,1/2+y,-z
-x,y,1/2+z
1/2+x,-y,z
1/2+x,1/2+y,1/2+z
1/2-x,-y,1/2+z
1/2+x,1/2-y,-z
-x,1/2+y,1/2-z
1/2-x,1/2-y,1/2-z
1/2+x,y,1/2-z
1/2-x,1/2+y,z
x,1/2-y,1/2+z
loop_
_atom_site_type_symbol
_atom_site_label
_atom_site_fract_x
_atom_site_fract_y
_atom_site_fract_z
Si Si1 0.494034 0.639240 0.653821
Si Si2 0.580541 0.379168 0.564537
Si Si3 0.846451 0.130619 0.322792
Si Si4 0.660219 0.560616 0.758411
Si Si5 0.750000 0.796780 0.500000
Si Si6 0.811441 0.221330 0.658720
O O1 0.454176 0.619697 0.548695
O O2 0.384571 0.649822 0.717122
O O3 0.562986 0.592382 0.702805
O O4 0.572321 0.689678 0.668733
O O5 0.460033 0.375467 0.616879
O O6 0.647812 0.421793 0.628111
O O7 0.664657 0.330584 0.564598
O O8 0.772674 0.080582 0.296577
O O9 0.771843 0.174631 0.370665
O O10 0.648359 0.500000 0.750000
O O11 0.821282 0.761184 0.428579
O O12 0.750000 0.250000 0.750000
#
# Coordination Sequence:
#
# PCOD9531966 Si02
#       6
#    16  16  16  16   8  16
#     4  10  22  40  62  91 127 167 211 261 317 379
#     4  11  23  41  63  90 126 162 208 264 316 384
#     4  10  22  40  60  88 126 163 207 261 315 378
#     4  10  23  43  65  90 122 161 210 268 326 387
#     4  12  24  38  60  92 126 166 208 254 310 372
#     4  11  22  36  58  90 127 167 211 253 303 371
#
# _framework density 20.727879000000001
#
# number of rings (size 3 to 8) (size 9 to 14) (size 15 to 20)
#    0.000    1.455    0.000    6.545    0.000   12.364 
#    0.000    3.636    0.000    0.000    0.000    0.000 
#    0.000    0.000    0.000    0.000    0.000    0.000 
#
# Total GULP energy -245280.118314 kJ/mol
# GULP energy per Si atom -5574.548144 kJ/mol
# Density = 2.068070 g / cm^3
# Si number density = 20.727879 Si / 1000 Ang^3
#
#
#
# Elastic Constant Matrix: (Units=GPa)
#
#
# Indices 1 2 3 4 5 6 
#
# 1 64.5707 27.2364 4.9396 0.0000 0.0000 0.0000
# 2 27.2364 147.2937 34.3158 0.0000 0.0000 0.0000
# 3 4.9396 34.3158 107.8869 -0.0002 0.0000 0.0000
# 4 0.0000 0.0000 -0.0002 34.6645 0.0000 0.0000
# 5 0.0000 0.0000 0.0000 0.0000 22.7567 0.0000
# 6 0.0000 0.0000 0.0000 0.0000 0.0000 8.2965
#
#
#
# Elastic Compliance Matrix: (Units=1/GPa)
#
#
# Indices 1 2 3 4 5 6 
#
# 1 0.016803 -0.003162 0.000236 0.000000 0.000000 0.000000
# 2 -0.003162 0.007928 -0.002377 0.000000 0.000000 0.000000
# 3 0.000236 -0.002377 0.010014 0.000000 0.000000 0.000000
# 4 0.000000 0.000000 0.000000 0.028848 0.000000 0.000000
# 5 0.000000 0.000000 0.000000 0.000000 0.043943 0.000000
# 6 0.000000 0.000000 0.000000 0.000000 0.000000 0.120532
#
#
# Mechanical properties :
#
#
# Convention : Reuss Voigt Hill
#
# Bulk Modulus (GPa) = 41.42583 50.30389 45.86486
# Shear Modulus (GPa) = 20.26597 30.02751 25.14674
#
# Velocity S-wave (km/s) = 3.13024 3.81025 3.48686
# Velocity P-wave (km/s) = 5.75269 6.60899 6.19565
#
# Compressibility (1/GPa) = 0.02413953
#
# Stress axis : x y z
#
# Youngs Moduli (GPa) = 59.51454 126.14169 99.85899
#
# Poissons Ratio (x) = 0.39887 -0.02361
# Poissons Ratio (y) = 0.18819 0.23734
# Poissons Ratio (z) = -0.01407 0.29981
#
# Static dielectric constant tensor:
#      x y z
#    x 1.773650 0.000000 0.000000 
#    y 0.000000 1.737760 0.000000 
#    z 0.000000 0.000000 1.971740 
# 
# From -- ./inp_files/16108.got.cif
#   From: 2010.05.17/outbox.cif.g08.bks.cpg/sg73_9_cif.got.tgz:16108.got - 2010.06.03 17:35:07.
