data_PCOD9531148
_publ_section_title
;
Structure prediction by ZEFSAII (Michael W. Deem and Ramdas Pophale) SiO2 
 PCOD9531148
Probable space group: I B C A 
;
_chemical_formula_sum "Si O2"
_cell_formula_units_Z 88
_cell_length_a 29.094737
_cell_length_b 9.888987
_cell_length_c 16.750872
_cell_angle_alpha 90.000000
_cell_angle_beta 90.000000
_cell_angle_gamma 90.000000
_cell_volume 4819.518612
_symmetry_space_group_name_H-M "I B C A "
_symmetry_group_IT_number 73
_symmetry_cell_setting 'orthorhombic'
loop_
_space_group_symop_operation_xyz
x,y,z
-x,1/2-y,z
x,-y,1/2-z
1/2-x,y,-z
-x,-y,-z
x,1/2+y,-z
-x,y,1/2+z
1/2+x,-y,z
1/2+x,1/2+y,1/2+z
1/2-x,-y,1/2+z
1/2+x,1/2-y,-z
-x,1/2+y,1/2-z
1/2-x,1/2-y,1/2-z
1/2+x,y,1/2-z
1/2-x,1/2+y,z
x,1/2-y,1/2+z
loop_
_atom_site_type_symbol
_atom_site_label
_atom_site_fract_x
_atom_site_fract_y
_atom_site_fract_z
Si Si1 0.243638 0.875747 0.307420
Si Si2 0.664458 0.230146 0.421740
Si Si3 0.498168 0.522942 0.593733
Si Si4 0.434395 0.750980 0.155515
Si Si5 0.500000 0.250000 0.196326
Si Si6 0.200719 0.469061 0.453166
O O1 0.250000 0.750000 0.250000
O O2 0.202369 0.836058 0.364956
O O3 0.286203 0.912832 0.365443
O O4 0.233182 0.000000 0.250000
O O5 0.618066 0.237274 0.370185
O O6 0.680029 0.381005 0.446450
O O7 0.666959 0.132964 0.499601
O O8 0.500000 0.500000 0.500000
O O9 0.539607 0.622223 0.617873
O O10 0.453553 0.610317 0.617450
O O11 0.500355 0.384093 0.642711
O O12 0.454933 0.752604 0.245747
O O13 0.250000 0.477329 0.500000
#
# Coordination Sequence:
#
# PCOD9531148 Si02
#       6
#    16  16  16  16   8  16
#     4  11  22  41  63  90 126 169 213 260 322 380
#     4  11  24  40  63  95 123 166 217 261 312 383
#     4  10  21  41  66  89 125 166 203 254 317 387
#     4  10  22  39  60  93 126 159 212 257 315 369
#     4  10  20  44  68  86 130 166 202 258 324 374
#     4  10  22  42  65  84 130 172 209 263 321 378
#
# _framework density 18.259084999999999
#
# number of rings (size 3 to 8) (size 9 to 14) (size 15 to 20)
#    0.000    1.818    1.818    4.909    5.091    1.455 
#    6.545    0.000    0.000    0.000    0.000    0.000 
#    0.000    0.000    0.000    0.000    0.000    0.000 
#
# Total GULP energy -245382.693687 kJ/mol
# GULP energy per Si atom -5576.879402 kJ/mol
# Density = 1.821753 g / cm^3
# Si number density = 18.259085 Si / 1000 Ang^3
#
#
#
# Elastic Constant Matrix: (Units=GPa)
#
#
# Indices 1 2 3 4 5 6 
#
# 1 81.9992 43.9852 34.7815 0.0000 0.0000 0.0000
# 2 43.9852 182.1654 89.8652 0.0000 0.0000 0.0000
# 3 34.7815 89.8652 144.2872 0.0000 0.0000 0.0000
# 4 0.0000 0.0000 0.0000 43.8914 0.0000 0.0000
# 5 0.0000 0.0000 0.0000 0.0000 6.6258 0.0000
# 6 0.0000 0.0000 0.0000 0.0000 0.0000 6.8692
#
#
#
# Elastic Compliance Matrix: (Units=1/GPa)
#
#
# Indices 1 2 3 4 5 6 
#
# 1 0.014354 -0.002539 -0.001879 0.000000 0.000000 0.000000
# 2 -0.002539 0.008373 -0.004603 0.000000 0.000000 0.000000
# 3 -0.001879 -0.004603 0.010250 0.000000 0.000000 0.000000
# 4 0.000000 0.000000 0.000000 0.022783 0.000000 0.000000
# 5 0.000000 0.000000 0.000000 0.000000 0.150924 0.000000
# 6 0.000000 0.000000 0.000000 0.000000 0.000000 0.145577
#
#
# Mechanical properties :
#
#
# Convention : Reuss Voigt Hill
#
# Bulk Modulus (GPa) = 66.95195 82.85730 74.90463
# Shear Modulus (GPa) = 13.32327 27.46529 20.39428
#
# Velocity S-wave (km/s) = 2.70419 3.88261 3.34569
# Velocity P-wave (km/s) = 6.81891 8.09794 7.48579
#
# Compressibility (1/GPa) = 0.01493609
#
# Stress axis : x y z
#
# Youngs Moduli (GPa) = 69.66628 119.42642 97.55722
#
# Poissons Ratio (x) = 0.30323 0.18329
# Poissons Ratio (y) = 0.17689 0.44906
# Poissons Ratio (z) = 0.13089 0.54973
#
# Static dielectric constant tensor:
#      x y z
#    x 1.639750 0.000000 0.000000 
#    y 0.000000 1.588900 0.000000 
#    z 0.000000 0.000000 1.468600 
# 
# From -- ./inp_files/24111.got.cif
#   From: 2010.05.17/outbox.cif.g08.bks.cpg/sg73_13_cif.got.tgz:24111.got - 2010.06.03 17:35:07.
