data_PCOD9531728
_publ_section_title
;
Structure prediction by ZEFSAII (Michael W. Deem and Ramdas Pophale) SiO2 
 PCOD9531728
Probable space group: I B C A 
;
_chemical_formula_sum "Si O2"
_cell_formula_units_Z 96
_cell_length_a 14.306651
_cell_length_b 16.196374
_cell_length_c 20.691226
_cell_angle_alpha 90.000000
_cell_angle_beta 90.000000
_cell_angle_gamma 90.000000
_cell_volume 4794.485440
_symmetry_space_group_name_H-M "I B C A "
_symmetry_group_IT_number 73
_symmetry_cell_setting 'orthorhombic'
loop_
_space_group_symop_operation_xyz
x,y,z
-x,1/2-y,z
x,-y,1/2-z
1/2-x,y,-z
-x,-y,-z
x,1/2+y,-z
-x,y,1/2+z
1/2+x,-y,z
1/2+x,1/2+y,1/2+z
1/2-x,-y,1/2+z
1/2+x,1/2-y,-z
-x,1/2+y,1/2-z
1/2-x,1/2-y,1/2-z
1/2+x,y,1/2-z
1/2-x,1/2+y,z
x,1/2-y,1/2+z
loop_
_atom_site_type_symbol
_atom_site_label
_atom_site_fract_x
_atom_site_fract_y
_atom_site_fract_z
Si Si1 0.537543 0.961701 0.933104
Si Si2 0.419372 0.307998 0.111835
Si Si3 0.774162 0.702615 0.814766
Si Si4 0.642570 0.324439 0.010241
Si Si5 0.939350 0.567887 0.807359
Si Si6 0.077840 0.680062 0.870502
O O1 0.461764 0.896527 0.905609
O O2 0.626940 0.903767 0.945228
O O3 0.564184 0.025630 0.877741
O O4 0.500000 0.000000 0.000000
O O5 0.500000 0.250000 0.145389
O O6 0.323430 0.319480 0.150817
O O7 0.398047 0.255544 0.046668
O O8 0.750000 0.750000 0.750000
O O9 0.849739 0.629257 0.802415
O O10 0.826994 0.772854 0.855478
O O11 0.750000 0.308495 0.000000
O O12 0.591137 0.349217 0.943797
O O13 0.940756 0.500000 0.750000
O O14 0.037517 0.618409 0.815847
O O15 0.000000 0.750000 0.873258
#
# Coordination Sequence:
#
# PCOD9531728 Si02
#       6
#    16  16  16  16  16  16
#     4  11  24  42  66  99 140 178 223 287 357 411
#     4  10  24  41  70  98 138 175 230 288 348 413
#     4  11  26  45  71  99 135 186 239 281 340 421
#     4  11  21  39  69  99 132 174 233 287 347 415
#     4  11  27  46  68 101 144 182 231 287 352 411
#     4  10  21  43  71  97 129 181 231 282 340 412
#
# _framework density 20.023002999999999
#
# number of rings (size 3 to 8) (size 9 to 14) (size 15 to 20)
#    0.000    1.333    3.333    1.500    9.333    2.000 
#    3.000    0.000    0.000    0.000    0.000    0.000 
#    0.000    0.000    0.000    0.000    0.000    0.000 
#
# Total GULP energy -267614.667422 kJ/mol
# GULP energy per Si atom -5575.305571 kJ/mol
# Density = 1.997743 g / cm^3
# Si number density = 20.023003 Si / 1000 Ang^3
#
#
#
# Elastic Constant Matrix: (Units=GPa)
#
#
# Indices 1 2 3 4 5 6 
#
# 1 73.2515 31.6502 23.8142 0.0000 0.0000 0.0000
# 2 31.6502 92.8349 39.3550 0.0000 0.0000 0.0000
# 3 23.8142 39.3550 90.2571 0.0000 0.0000 0.0000
# 4 0.0000 0.0000 0.0000 39.0285 0.0000 0.0000
# 5 0.0000 0.0000 0.0000 0.0000 22.9478 0.0000
# 6 0.0000 0.0000 0.0000 0.0000 0.0000 15.7156
#
#
#
# Elastic Compliance Matrix: (Units=1/GPa)
#
#
# Indices 1 2 3 4 5 6 
#
# 1 0.016396 -0.004608 -0.002317 0.000000 0.000000 0.000000
# 2 -0.004608 0.014509 -0.005111 0.000000 0.000000 0.000000
# 3 -0.002317 -0.005111 0.013919 0.000000 0.000000 0.000000
# 4 0.000000 0.000000 0.000000 0.025622 0.000000 0.000000
# 5 0.000000 0.000000 0.000000 0.000000 0.043577 0.000000
# 6 0.000000 0.000000 0.000000 0.000000 0.000000 0.063631
#
#
# Mechanical properties :
#
#
# Convention : Reuss Voigt Hill
#
# Bulk Modulus (GPa) = 48.18446 49.55359 48.86903
# Shear Modulus (GPa) = 23.96437 26.30665 25.13551
#
# Velocity S-wave (km/s) = 3.46329 3.62860 3.54691
# Velocity P-wave (km/s) = 6.33319 6.50828 6.42133
#
# Compressibility (1/GPa) = 0.02075358
#
# Stress axis : x y z
#
# Youngs Moduli (GPa) = 60.99180 68.92149 71.84296
#
# Poissons Ratio (x) = 0.31756 0.16645
# Poissons Ratio (y) = 0.28102 0.36718
# Poissons Ratio (z) = 0.14131 0.35224
#
# Static dielectric constant tensor:
#      x y z
#    x 1.460830 0.000000 0.000000 
#    y 0.000000 1.759370 0.000000 
#    z 0.000000 0.000000 1.881350 
# 
# From -- ./inp_files/25982.got.cif
#   From: 2010.05.17/outbox.cif.g08.bks.cpg/sg73_13_cif.got.tgz:25982.got - 2010.06.03 17:35:07.
