data_PCOD9531469
_publ_section_title
;
Structure prediction by ZEFSAII (Michael W. Deem and Ramdas Pophale) SiO2 
 PCOD9531469
Probable space group: I B C A 
;
_chemical_formula_sum "Si O2"
_cell_formula_units_Z 112
_cell_length_a 20.133147
_cell_length_b 22.721016
_cell_length_c 11.144523
_cell_angle_alpha 90.000000
_cell_angle_beta 90.000000
_cell_angle_gamma 90.000000
_cell_volume 5098.012510
_symmetry_space_group_name_H-M "I B C A "
_symmetry_group_IT_number 73
_symmetry_cell_setting 'orthorhombic'
loop_
_space_group_symop_operation_xyz
x,y,z
-x,1/2-y,z
x,-y,1/2-z
1/2-x,y,-z
-x,-y,-z
x,1/2+y,-z
-x,y,1/2+z
1/2+x,-y,z
1/2+x,1/2+y,1/2+z
1/2-x,-y,1/2+z
1/2+x,1/2-y,-z
-x,1/2+y,1/2-z
1/2-x,1/2-y,1/2-z
1/2+x,y,1/2-z
1/2-x,1/2+y,z
x,1/2-y,1/2+z
loop_
_atom_site_type_symbol
_atom_site_label
_atom_site_fract_x
_atom_site_fract_y
_atom_site_fract_z
Si Si1 0.250000 0.903677 0.500000
Si Si2 0.582266 0.168432 0.173463
Si Si3 0.064191 0.278387 0.482402
Si Si4 0.250000 0.298107 0.000000
Si Si5 0.050149 0.117517 0.803795
Si Si6 0.627731 0.617056 0.062352
Si Si7 0.359107 0.983814 0.378937
Si Si8 0.807770 0.699701 0.353090
O O1 0.311029 0.942555 0.454806
O O2 0.228123 0.859063 0.396828
O O3 0.568820 0.234674 0.131125
O O4 0.523629 0.134825 0.243961
O O5 0.652654 0.176021 0.237247
O O6 0.581674 0.133768 0.048311
O O7 0.059042 0.341460 0.420113
O O8 0.129643 0.279638 0.563230
O O9 0.000000 0.250000 0.549160
O O10 0.191235 0.343324 0.031766
O O11 0.244809 0.252265 0.114484
O O12 0.099475 0.132367 0.693708
O O13 0.073438 0.052301 0.845655
O O14 0.633986 0.546781 0.059373
O O15 0.327298 0.000000 0.250000
#
# Coordination Sequence:
#
# PCOD9531469 Si02
#       8
#     8  16  16   8  16  16  16  16
#     4  11  23  42  66  92 137 177 220 280 336 405
#     4  11  25  40  69 102 133 174 223 288 346 422
#     4  10  21  39  66  91 132 170 210 271 341 406
#     4  11  23  42  66  96 145 179 222 286 336 439
#     4  10  23  43  68  94 133 178 225 291 341 405
#     4  11  24  43  66  98 131 180 234 278 347 406
#     4  10  23  44  68  94 132 184 236 284 341 406
#     4  11  24  41  64 103 134 173 219 278 349 409
#
# _framework density 21.969346000000002
#
# number of rings (size 3 to 8) (size 9 to 14) (size 15 to 20)
#    0.000    1.429    2.857    1.286    4.000    5.143 
#    0.000    2.857    0.000    0.000    0.000    0.000 
#    0.000    0.000    0.000    0.000    0.000    0.000 
#
# Total GULP energy -311945.406287 kJ/mol
# GULP energy per Si atom -5570.453684 kJ/mol
# Density = 2.191934 g / cm^3
# Si number density = 21.969346 Si / 1000 Ang^3
#
#
#
# Elastic Constant Matrix: (Units=GPa)
#
#
# Indices 1 2 3 4 5 6 
#
# 1 72.9952 47.1297 12.8725 0.0000 0.0000 0.0000
# 2 47.1297 162.5905 30.6972 0.0000 0.0000 0.0000
# 3 12.8725 30.6972 38.4609 0.0000 0.0000 0.0000
# 4 0.0000 0.0000 0.0000 15.0525 0.0000 0.0000
# 5 0.0000 0.0000 0.0000 0.0000 44.1807 0.0000
# 6 0.0000 0.0000 0.0000 0.0000 0.0000 27.2814
#
#
#
# Elastic Compliance Matrix: (Units=1/GPa)
#
#
# Indices 1 2 3 4 5 6 
#
# 1 0.016992 -0.004535 -0.002067 0.000000 0.000000 0.000000
# 2 -0.004535 0.008452 -0.005228 0.000000 0.000000 0.000000
# 3 -0.002067 -0.005228 0.030865 0.000000 0.000000 0.000000
# 4 0.000000 0.000000 0.000000 0.066434 0.000000 0.000000
# 5 0.000000 0.000000 0.000000 0.000000 0.022634 0.000000
# 6 0.000000 0.000000 0.000000 0.000000 0.000000 0.036655
#
#
# Mechanical properties :
#
#
# Convention : Reuss Voigt Hill
#
# Bulk Modulus (GPa) = 30.62966 50.60504 40.61735
# Shear Modulus (GPa) = 23.08649 29.52607 26.30628
#
# Velocity S-wave (km/s) = 3.24520 3.66999 3.46411
# Velocity P-wave (km/s) = 5.29283 6.40647 5.87609
#
# Compressibility (1/GPa) = 0.03264809
#
# Stress axis : x y z
#
# Youngs Moduli (GPa) = 58.85024 118.31404 32.39907
#
# Poissons Ratio (x) = 0.53658 0.06698
# Poissons Ratio (y) = 0.26690 0.16938
# Poissons Ratio (z) = 0.12167 0.61855
#
# Static dielectric constant tensor:
#      x y z
#    x 1.944110 0.000000 0.000000 
#    y 0.000000 1.844920 0.000000 
#    z 0.000000 0.000000 1.878870 
# 
# From -- ./inp_files/13808.got.cif
#   From: 2010.05.17/outbox.cif.g08.bks.cpg/sg73_7_cif.got.tgz:13808.got - 2010.06.03 17:35:07.
