data_PCOD9531123
_publ_section_title
;
Structure prediction by ZEFSAII (Michael W. Deem and Ramdas Pophale) SiO2 
 PCOD9531123
Probable space group: I B C A 
;
_chemical_formula_sum "Si O2"
_cell_formula_units_Z 64
_cell_length_a 14.279915
_cell_length_b 14.830705
_cell_length_c 11.360991
_cell_angle_alpha 90.000000
_cell_angle_beta 90.000000
_cell_angle_gamma 90.000000
_cell_volume 2406.044384
_symmetry_space_group_name_H-M "I B C A "
_symmetry_group_IT_number 73
_symmetry_cell_setting 'orthorhombic'
loop_
_space_group_symop_operation_xyz
x,y,z
-x,1/2-y,z
x,-y,1/2-z
1/2-x,y,-z
-x,-y,-z
x,1/2+y,-z
-x,y,1/2+z
1/2+x,-y,z
1/2+x,1/2+y,1/2+z
1/2-x,-y,1/2+z
1/2+x,1/2-y,-z
-x,1/2+y,1/2-z
1/2-x,1/2-y,1/2-z
1/2+x,y,1/2-z
1/2-x,1/2+y,z
x,1/2-y,1/2+z
loop_
_atom_site_type_symbol
_atom_site_label
_atom_site_fract_x
_atom_site_fract_y
_atom_site_fract_z
Si Si1 0.993907 0.096451 0.556882
Si Si2 0.000000 0.250000 0.375523
Si Si3 0.344672 0.148101 0.766483
Si Si4 0.675263 0.048447 0.862263
Si Si5 0.250000 0.383429 0.500000
O O1 0.101104 0.120041 0.592462
O O2 0.967299 0.170502 0.461450
O O3 0.926223 0.091703 0.668585
O O4 0.000000 0.000000 0.500000
O O5 0.908856 0.279464 0.300329
O O6 0.273515 0.093770 0.680110
O O7 0.283927 0.171435 0.884838
O O8 0.631694 0.000000 0.750000
O O9 0.683248 0.962011 0.946868
#
# Coordination Sequence:
#
# PCOD9531123 Si02
#       5
#    16   8  16  16   8
#     4  12  27  51  85 125 172 227 293 357 431 527
#     4  12  30  50  80 122 176 232 284 360 436 510
#     4  11  26  49  82 122 169 222 291 353 437 513
#     4  10  23  43  85 124 163 222 286 360 434 505
#     4  10  20  42  76 124 156 210 286 350 434 504
#
# _framework density 26.599675000000001
#
# number of rings (size 3 to 8) (size 9 to 14) (size 15 to 20)
#    0.000    1.000    2.500    2.250   10.500    0.000 
#    0.000   13.750    0.000    0.000    0.000    0.000 
#    0.000    0.000    0.000    0.000    0.000    0.000 
#
# Total GULP energy -178757.301210 kJ/mol
# GULP energy per Si atom -5586.165663 kJ/mol
# Density = 2.653913 g / cm^3
# Si number density = 26.599675 Si / 1000 Ang^3
#
#
#
# Elastic Constant Matrix: (Units=GPa)
#
#
# Indices 1 2 3 4 5 6 
#
# 1 197.6919 69.4822 79.0314 0.0000 0.0000 0.0000
# 2 69.4822 129.8684 69.4364 0.0000 0.0000 0.0000
# 3 79.0314 69.4364 107.5396 0.0000 0.0000 0.0000
# 4 0.0000 0.0000 0.0000 55.1476 0.0000 0.0000
# 5 0.0000 0.0000 0.0000 0.0000 50.4154 0.0000
# 6 0.0000 0.0000 0.0000 0.0000 0.0000 52.8921
#
#
#
# Elastic Compliance Matrix: (Units=1/GPa)
#
#
# Indices 1 2 3 4 5 6 
#
# 1 0.007374 -0.001600 -0.004386 0.000000 0.000000 0.000000
# 2 -0.001600 0.012107 -0.006641 0.000000 0.000000 0.000000
# 3 -0.004386 -0.006641 0.016811 0.000000 0.000000 0.000000
# 4 0.000000 0.000000 0.000000 0.018133 0.000000 0.000000
# 5 0.000000 0.000000 0.000000 0.000000 0.019835 0.000000
# 6 0.000000 0.000000 0.000000 0.000000 0.000000 0.018906
#
#
# Mechanical properties :
#
#
# Convention : Reuss Voigt Hill
#
# Bulk Modulus (GPa) = 90.60878 96.77778 93.69328
# Shear Modulus (GPa) = 40.94969 46.16768 43.55868
#
# Velocity S-wave (km/s) = 3.92788 4.17063 4.05107
# Velocity P-wave (km/s) = 7.39654 7.72362 7.56185
#
# Compressibility (1/GPa) = 0.01103646
#
# Stress axis : x y z
#
# Youngs Moduli (GPa) = 135.60683 82.59552 59.48662
#
# Poissons Ratio (x) = 0.13217 0.26092
# Poissons Ratio (y) = 0.21701 0.39507
# Poissons Ratio (z) = 0.59479 0.54855
#
# Static dielectric constant tensor:
#      x y z
#    x 2.434520 0.000000 0.000000 
#    y 0.000000 2.009250 0.000000 
#    z 0.000000 0.000000 2.101560 
# 
# From -- ./inp_files/10517.got.cif
#   From: 2010.05.17/outbox.cif.g08.bks.cpg/sg73_6_cif.got.tgz:10517.got - 2010.06.03 17:35:07.
