data_PCOD9531078
_publ_section_title
;
Structure prediction by ZEFSAII (Michael W. Deem and Ramdas Pophale) SiO2 
 PCOD9531078
Probable space group: I B C A 
;
_chemical_formula_sum "Si O2"
_cell_formula_units_Z 88
_cell_length_a 13.884944
_cell_length_b 21.550629
_cell_length_c 12.069541
_cell_angle_alpha 90.000000
_cell_angle_beta 90.000000
_cell_angle_gamma 90.000000
_cell_volume 3611.560025
_symmetry_space_group_name_H-M "I B C A "
_symmetry_group_IT_number 73
_symmetry_cell_setting 'orthorhombic'
loop_
_space_group_symop_operation_xyz
x,y,z
-x,1/2-y,z
x,-y,1/2-z
1/2-x,y,-z
-x,-y,-z
x,1/2+y,-z
-x,y,1/2+z
1/2+x,-y,z
1/2+x,1/2+y,1/2+z
1/2-x,-y,1/2+z
1/2+x,1/2-y,-z
-x,1/2+y,1/2-z
1/2-x,1/2-y,1/2-z
1/2+x,y,1/2-z
1/2-x,1/2+y,z
x,1/2-y,1/2+z
loop_
_atom_site_type_symbol
_atom_site_label
_atom_site_fract_x
_atom_site_fract_y
_atom_site_fract_z
Si Si1 0.045765 0.572123 0.064601
Si Si2 0.137562 0.352364 0.633723
Si Si3 0.899336 0.771841 0.673138
Si Si4 0.664238 0.860557 0.751979
Si Si5 0.642381 0.558671 0.037667
Si Si6 0.750000 0.247376 0.000000
O O1 0.089123 0.610911 0.162915
O O2 0.087232 0.502990 0.080168
O O3 0.085799 0.599817 0.947843
O O4 0.930764 0.577529 0.059789
O O5 0.077267 0.321318 0.731881
O O6 0.231859 0.378376 0.696239
O O7 0.177157 0.295350 0.559449
O O8 0.850714 0.712999 0.735797
O O9 0.817643 0.790359 0.584281
O O10 0.000000 0.750000 0.620142
O O11 0.648723 0.889244 0.631932
O O12 0.750000 0.543422 0.000000
#
# Coordination Sequence:
#
# PCOD9531078 Si02
#       6
#    16  16  16  16  16   8
#     4  11  23  46  73  94 142 189 225 290 364 415
#     4  11  21  44  70  97 139 187 231 285 357 422
#     4  11  24  41  67 104 140 188 234 288 355 420
#     4  11  22  46  67 101 140 183 236 289 353 416
#     4  11  26  43  68 109 134 177 243 292 342 421
#     4  10  20  42  64  96 136 180 234 280 344 420
#
# _framework density 24.366202000000001
#
# number of rings (size 3 to 8) (size 9 to 14) (size 15 to 20)
#    0.000    1.091    3.636    4.909    0.000    3.636 
#   13.091    3.636    0.000    0.000    0.000    0.000 
#    0.000    0.000    0.000    0.000    0.000    0.000 
#
# Total GULP energy -246445.049209 kJ/mol
# GULP energy per Si atom -5601.023846 kJ/mol
# Density = 2.431074 g / cm^3
# Si number density = 24.366202 Si / 1000 Ang^3
#
#
#
# Elastic Constant Matrix: (Units=GPa)
#
#
# Indices 1 2 3 4 5 6 
#
# 1 158.2536 14.0217 24.6208 0.0000 0.0000 0.0000
# 2 14.0217 74.4072 26.6362 -0.0001 0.0000 0.0000
# 3 24.6208 26.6362 68.2028 -0.0001 0.0000 0.0000
# 4 0.0000 -0.0001 -0.0001 24.4029 0.0000 0.0000
# 5 0.0000 0.0000 0.0000 0.0000 36.6901 0.0000
# 6 0.0000 0.0000 0.0000 0.0000 0.0000 33.1967
#
#
#
# Elastic Compliance Matrix: (Units=1/GPa)
#
#
# Indices 1 2 3 4 5 6 
#
# 1 0.006709 -0.000462 -0.002241 0.000000 0.000000 0.000000
# 2 -0.000462 0.015656 -0.005948 0.000000 0.000000 0.000000
# 3 -0.002241 -0.005948 0.017794 0.000000 0.000000 0.000000
# 4 0.000000 0.000000 0.000000 0.040979 0.000000 0.000000
# 5 0.000000 0.000000 0.000000 0.000000 0.027255 0.000000
# 6 0.000000 0.000000 0.000000 0.000000 0.000000 0.030123
#
#
# Mechanical properties :
#
#
# Convention : Reuss Voigt Hill
#
# Bulk Modulus (GPa) = 43.75060 47.93568 45.84314
# Shear Modulus (GPa) = 30.59295 34.56359 32.57827
#
# Velocity S-wave (km/s) = 3.54722 3.77039 3.66050
# Velocity P-wave (km/s) = 5.89673 6.21854 6.05977
#
# Compressibility (1/GPa) = 0.02285683
#
# Stress axis : x y z
#
# Youngs Moduli (GPa) = 149.06230 63.87459 56.19849
#
# Poissons Ratio (x) = 0.02950 0.12596
# Poissons Ratio (y) = 0.06884 0.33424
# Poissons Ratio (z) = 0.33411 0.37990
#
# Static dielectric constant tensor:
#      x y z
#    x 1.959220 0.000000 0.000000 
#    y 0.000000 1.973670 0.000000 
#    z 0.000000 0.000000 1.917560 
# 
# From -- ./inp_files/10913.got.cif
#   From: 2010.05.17/outbox.cif.g08.bks.cpg/sg73_6_cif.got.tgz:10913.got - 2010.06.03 17:35:07.
