data_PCOD9531811
_publ_section_title
;
Structure prediction by ZEFSAII (Michael W. Deem and Ramdas Pophale) SiO2 
 PCOD9531811
Probable space group: I B C A 
;
_chemical_formula_sum "Si O2"
_cell_formula_units_Z 120
_cell_length_a 10.744688
_cell_length_b 21.144434
_cell_length_c 28.277204
_cell_angle_alpha 90.000000
_cell_angle_beta 90.000000
_cell_angle_gamma 90.000000
_cell_volume 6424.307768
_symmetry_space_group_name_H-M "I B C A "
_symmetry_group_IT_number 73
_symmetry_cell_setting 'orthorhombic'
loop_
_space_group_symop_operation_xyz
x,y,z
-x,1/2-y,z
x,-y,1/2-z
1/2-x,y,-z
-x,-y,-z
x,1/2+y,-z
-x,y,1/2+z
1/2+x,-y,z
1/2+x,1/2+y,1/2+z
1/2-x,-y,1/2+z
1/2+x,1/2-y,-z
-x,1/2+y,1/2-z
1/2-x,1/2-y,1/2-z
1/2+x,y,1/2-z
1/2-x,1/2+y,z
x,1/2-y,1/2+z
loop_
_atom_site_type_symbol
_atom_site_label
_atom_site_fract_x
_atom_site_fract_y
_atom_site_fract_z
Si Si1 0.124649 0.398283 0.185633
Si Si2 0.872824 0.005399 0.029646
Si Si3 0.466042 0.065940 0.895347
Si Si4 0.871411 0.710750 0.737824
Si Si5 0.429235 0.182622 0.134035
Si Si6 0.994716 0.500000 0.750000
Si Si7 0.894913 0.436184 0.341721
Si Si8 0.263914 0.870501 0.446878
O O1 0.123898 0.342600 0.222803
O O2 0.255746 0.409584 0.160491
O O3 0.014266 0.392527 0.147987
O O4 0.092014 0.459958 0.215785
O O5 0.913762 0.048486 0.073209
O O6 0.841793 0.935136 0.046969
O O7 0.750000 0.026022 0.000000
O O8 0.000000 0.000000 0.000000
O O9 0.365978 0.103999 0.925831
O O10 0.411747 0.999504 0.873968
O O11 0.750000 0.750000 0.750000
O O12 0.860184 0.684927 0.684564
O O13 0.000000 0.750000 0.739074
O O14 0.500000 0.250000 0.128842
O O15 0.518733 0.121045 0.139367
O O16 0.335579 0.172374 0.090635
O O17 0.071272 0.543439 0.712716
O O18 0.250000 0.843551 0.500000
#
# Coordination Sequence:
#
# PCOD9531811 Si02
#       8
#    16  16  16  16  16   8  16  16
#     4  11  23  37  61  93 134 163 212 267 328 390
#     4  11  20  36  62  96 134 173 219 271 339 409
#     4  11  23  37  62 105 132 170 212 276 344 403
#     4  11  25  44  67  93 125 173 224 268 315 390
#     4  11  24  43  70  90 125 183 225 265 321 400
#     4  10  22  36  58  94 130 166 208 256 332 390
#     4  11  22  38  61  96 134 171 214 266 332 400
#     4  11  23  41  69  95 132 173 219 277 342 392
#
# _framework density 18.679054000000001
#
# number of rings (size 3 to 8) (size 9 to 14) (size 15 to 20)
#    0.000    1.067    5.333    2.800    3.733    1.067 
#    0.000    0.000    5.867    0.000    0.000    0.000 
#    0.000    0.000    0.000    0.000    0.000    0.000 
#
# Total GULP energy -334839.852731 kJ/mol
# GULP energy per Si atom -5580.664212 kJ/mol
# Density = 1.863654 g / cm^3
# Si number density = 18.679054 Si / 1000 Ang^3
#
#
#
# Elastic Constant Matrix: (Units=GPa)
#
#
# Indices 1 2 3 4 5 6 
#
# 1 106.7687 29.9737 65.3426 0.0000 0.0000 0.0000
# 2 29.9737 58.9428 47.9586 0.0000 0.0000 0.0000
# 3 65.3426 47.9586 150.5707 0.0000 0.0000 0.0000
# 4 0.0000 0.0000 0.0000 4.4082 0.0000 0.0000
# 5 0.0000 0.0000 0.0000 0.0000 31.0142 0.0000
# 6 0.0000 0.0000 0.0000 0.0000 0.0000 12.2452
#
#
#
# Elastic Compliance Matrix: (Units=1/GPa)
#
#
# Indices 1 2 3 4 5 6 
#
# 1 0.013074 -0.002743 -0.004800 0.000000 0.000000 0.000000
# 2 -0.002743 0.023476 -0.006287 0.000000 0.000000 0.000000
# 3 -0.004800 -0.006287 0.010727 0.000000 0.000000 0.000000
# 4 0.000000 0.000000 0.000000 0.226848 0.000000 0.000000
# 5 0.000000 0.000000 0.000000 0.000000 0.032243 0.000000
# 6 0.000000 0.000000 0.000000 0.000000 0.000000 0.081665
#
#
# Mechanical properties :
#
#
# Convention : Reuss Voigt Hill
#
# Bulk Modulus (GPa) = 50.97666 66.98134 58.97900
# Shear Modulus (GPa) = 11.84186 21.06735 16.45460
#
# Velocity S-wave (km/s) = 2.52060 3.36201 2.97124
# Velocity P-wave (km/s) = 5.98509 7.14197 6.58897
#
# Compressibility (1/GPa) = 0.01961682
#
# Stress axis : x y z
#
# Youngs Moduli (GPa) = 76.49017 42.59702 93.22375
#
# Poissons Ratio (x) = 0.11684 0.44746
# Poissons Ratio (y) = 0.20980 0.58610
# Poissons Ratio (z) = 0.36714 0.26781
#
# Static dielectric constant tensor:
#      x y z
#    x 1.662330 0.000000 0.000000 
#    y 0.000000 1.624790 0.000000 
#    z 0.000000 0.000000 1.708870 
# 
# From -- ./inp_files/31415.got.cif
#   From: 2010.05.17/outbox.cif.g08.bks.cpg/sg73_16_cif.got.tgz:31415.got - 2010.06.03 17:35:07.
