data_PCOD9531162
_publ_section_title
;
Structure prediction by ZEFSAII (Michael W. Deem and Ramdas Pophale) SiO2 
 PCOD9531162
Probable space group: I B C A 
;
_chemical_formula_sum "Si O2"
_cell_formula_units_Z 80
_cell_length_a 18.365242
_cell_length_b 16.033994
_cell_length_c 11.843687
_cell_angle_alpha 90.000000
_cell_angle_beta 90.000000
_cell_angle_gamma 90.000000
_cell_volume 3487.588956
_symmetry_space_group_name_H-M "I B C A "
_symmetry_group_IT_number 73
_symmetry_cell_setting 'orthorhombic'
loop_
_space_group_symop_operation_xyz
x,y,z
-x,1/2-y,z
x,-y,1/2-z
1/2-x,y,-z
-x,-y,-z
x,1/2+y,-z
-x,y,1/2+z
1/2+x,-y,z
1/2+x,1/2+y,1/2+z
1/2-x,-y,1/2+z
1/2+x,1/2-y,-z
-x,1/2+y,1/2-z
1/2-x,1/2-y,1/2-z
1/2+x,y,1/2-z
1/2-x,1/2+y,z
x,1/2-y,1/2+z
loop_
_atom_site_type_symbol
_atom_site_label
_atom_site_fract_x
_atom_site_fract_y
_atom_site_fract_z
Si Si1 0.529697 0.059039 0.642024
Si Si2 0.000000 0.750000 0.195486
Si Si3 0.747048 0.653408 0.129193
Si Si4 0.759042 0.000000 0.750000
Si Si5 0.115312 0.040116 0.071382
Si Si6 0.860394 0.292366 0.195346
O O1 0.504862 0.157599 0.639467
O O2 0.600989 0.049350 0.561769
O O3 0.546092 0.000000 0.750000
O O4 0.453586 0.015923 0.603825
O O5 0.929539 0.759531 0.272573
O O6 0.716823 0.583073 0.214920
O O7 0.823658 0.675365 0.188462
O O8 0.699171 0.736729 0.133660
O O9 0.750000 0.626497 0.000000
O O10 0.812126 0.989093 0.860541
O O11 0.110311 0.132207 0.122071
#
# Coordination Sequence:
#
# PCOD9531162 Si02
#       6
#    16   8  16   8  16  16
#     4  11  22  41  64 105 142 191 239 292 367 439
#     4  12  24  42  70 106 142 182 244 308 360 430
#     4  10  23  45  71  98 141 195 242 293 368 440
#     4  10  20  46  70 100 142 196 234 300 368 422
#     4  10  21  43  69  94 148 191 227 298 369 422
#     4  10  23  45  68 102 142 184 242 302 364 431
#
# _framework density 22.938483000000002
#
# number of rings (size 3 to 8) (size 9 to 14) (size 15 to 20)
#    0.000    1.600    3.000    1.200    2.800    2.400 
#    5.400    2.000    0.000    0.000    0.000    0.000 
#    0.000    0.000    0.000    0.000    0.000    0.000 
#
# Total GULP energy -222716.353640 kJ/mol
# GULP energy per Si atom -5567.908841 kJ/mol
# Density = 2.288627 g / cm^3
# Si number density = 22.938483 Si / 1000 Ang^3
#
#
#
# Elastic Constant Matrix: (Units=GPa)
#
#
# Indices 1 2 3 4 5 6 
#
# 1 32.0012 24.3228 20.8209 0.0000 0.0000 0.0000
# 2 24.3228 142.4104 44.1477 0.0000 0.0000 0.0000
# 3 20.8209 44.1477 119.1716 0.0000 0.0000 0.0000
# 4 0.0000 0.0000 0.0000 -27.0453 0.0000 0.0000
# 5 0.0000 0.0000 0.0000 0.0000 41.1648 0.0000
# 6 0.0000 0.0000 0.0000 0.0000 0.0000 74.3566
#
#
#
# Elastic Compliance Matrix: (Units=1/GPa)
#
#
# Indices 1 2 3 4 5 6 
#
# 1 0.038204 -0.005034 -0.004810 0.000000 0.000000 0.000000
# 2 -0.005034 0.008596 -0.002305 0.000000 0.000000 0.000000
# 3 -0.004810 -0.002305 0.010086 0.000000 0.000000 0.000000
# 4 0.000000 0.000000 0.000000 -0.036975 0.000000 0.000000
# 5 0.000000 0.000000 0.000000 0.000000 0.024293 0.000000
# 6 0.000000 0.000000 0.000000 0.000000 0.000000 0.013449
#
#
# Mechanical properties :
#
#
# Convention : Reuss Voigt Hill
#
# Bulk Modulus (GPa) = 30.68582 52.46289 41.57436
# Shear Modulus (GPa) = 53.87155 31.31468 42.59312
#
# Velocity S-wave (km/s) = 4.85141 3.69881 4.31378
# Velocity P-wave (km/s) = 6.69239 6.41579 6.55555
#
# Compressibility (1/GPa) = 0.03258834
#
# Stress axis : x y z
#
# Youngs Moduli (GPa) = 26.17493 116.32918 99.15186
#
# Poissons Ratio (x) = 0.58560 0.47692
# Poissons Ratio (y) = 0.13176 0.22855
# Poissons Ratio (z) = 0.12590 0.26814
#
# Static dielectric constant tensor:
#      x y z
#    x 1.847280 0.000000 0.000000 
#    y 0.000000 2.049610 0.000000 
#    z 0.000000 0.000000 1.915870 
# 
# From -- ./inp_files/12669.got.cif
#   From: 2010.05.17/outbox.cif.g08.bks.cpg/sg73_7_cif.got.tgz:12669.got - 2010.06.03 17:35:07.
