data_PCOD9531091
_publ_section_title
;
Structure prediction by ZEFSAII (Michael W. Deem and Ramdas Pophale) SiO2 
 PCOD9531091
Probable space group: I B C A 
;
_chemical_formula_sum "Si O2"
_cell_formula_units_Z 104
_cell_length_a 8.979514
_cell_length_b 25.056012
_cell_length_c 17.961751
_cell_angle_alpha 90.000000
_cell_angle_beta 90.000000
_cell_angle_gamma 90.000000
_cell_volume 4041.228916
_symmetry_space_group_name_H-M "I B C A "
_symmetry_group_IT_number 73
_symmetry_cell_setting 'orthorhombic'
loop_
_space_group_symop_operation_xyz
x,y,z
-x,1/2-y,z
x,-y,1/2-z
1/2-x,y,-z
-x,-y,-z
x,1/2+y,-z
-x,y,1/2+z
1/2+x,-y,z
1/2+x,1/2+y,1/2+z
1/2-x,-y,1/2+z
1/2+x,1/2-y,-z
-x,1/2+y,1/2-z
1/2-x,1/2-y,1/2-z
1/2+x,y,1/2-z
1/2-x,1/2+y,z
x,1/2-y,1/2+z
loop_
_atom_site_type_symbol
_atom_site_label
_atom_site_fract_x
_atom_site_fract_y
_atom_site_fract_z
Si Si1 0.781531 0.678558 0.602144
Si Si2 0.730600 0.376865 0.703577
Si Si3 0.366278 0.543185 0.601382
Si Si4 0.494665 0.865828 0.515765
Si Si5 0.954333 0.808212 0.246077
Si Si6 0.814291 0.037987 0.677605
Si Si7 0.250000 0.779395 0.000000
O O1 0.629187 0.649227 0.578432
O O2 0.822421 0.693159 0.685735
O O3 0.783282 0.737313 0.565014
O O4 0.905807 0.642140 0.561385
O O5 0.738488 0.419291 0.637489
O O6 0.879324 0.343001 0.690513
O O7 0.588018 0.339887 0.707703
O O8 0.740273 0.407873 0.782936
O O9 0.429349 0.576397 0.530836
O O10 0.287351 0.485389 0.610417
O O11 0.513926 0.540277 0.653099
O O12 0.614343 0.818618 0.515801
O O13 0.000000 0.750000 0.269966
O O14 0.802979 0.000000 0.750000
#
# Coordination Sequence:
#
# PCOD9531091 Si02
#       7
#    16  16  16  16  16  16   8
#     4  10  22  42  67  96 142 189 230 275 336 426
#     4  11  24  42  64  97 135 181 219 287 345 403
#     4  11  23  40  69  99 124 173 227 292 338 407
#     4  10  22  41  66 101 132 176 234 284 339 398
#     4  12  25  42  63 101 142 183 225 277 346 421
#     4  10  21  42  67  97 127 172 235 275 346 413
#     4  10  20  42  68 100 132 196 238 264 336 422
#
# _framework density 25.734743999999999
#
# number of rings (size 3 to 8) (size 9 to 14) (size 15 to 20)
#    0.000    1.538    1.538    5.538    6.462    0.000 
#    0.000    0.000    0.000   12.923    0.000    0.000 
#    0.000    0.000    0.000    0.000    0.000    0.000 
#
# Total GULP energy -290886.578274 kJ/mol
# GULP energy per Si atom -5593.972659 kJ/mol
# Density = 2.567617 g / cm^3
# Si number density = 25.734744 Si / 1000 Ang^3
#
#
#
# Elastic Constant Matrix: (Units=GPa)
#
#
# Indices 1 2 3 4 5 6 
#
# 1 119.2030 37.5059 17.7555 0.0000 0.0000 0.0000
# 2 37.5059 106.3457 3.1879 0.0000 0.0000 0.0000
# 3 17.7555 3.1879 51.3632 0.0000 0.0000 0.0000
# 4 0.0000 0.0000 0.0000 21.4008 0.0000 0.0000
# 5 0.0000 0.0000 0.0000 0.0000 30.5125 0.0000
# 6 0.0000 0.0000 0.0000 0.0000 0.0000 39.7303
#
#
#
# Elastic Compliance Matrix: (Units=1/GPa)
#
#
# Indices 1 2 3 4 5 6 
#
# 1 0.009942 -0.003410 -0.003225 0.000000 0.000000 0.000000
# 2 -0.003410 0.010590 0.000521 0.000000 0.000000 0.000000
# 3 -0.003225 0.000521 0.020552 0.000000 0.000000 0.000000
# 4 0.000000 0.000000 0.000000 0.046727 0.000000 0.000000
# 5 0.000000 0.000000 0.000000 0.000000 0.032773 0.000000
# 6 0.000000 0.000000 0.000000 0.000000 0.000000 0.025170
#
#
# Mechanical properties :
#
#
# Convention : Reuss Voigt Hill
#
# Bulk Modulus (GPa) = 34.65361 43.75673 39.20517
# Shear Modulus (GPa) = 29.83275 32.89289 31.36282
#
# Velocity S-wave (km/s) = 3.40846 3.57900 3.49477
# Velocity P-wave (km/s) = 5.38377 5.84114 5.61711
#
# Compressibility (1/GPa) = 0.02885703
#
# Stress axis : x y z
#
# Youngs Moduli (GPa) = 100.58039 94.42686 48.65763
#
# Poissons Ratio (x) = 0.32197 0.15693
# Poissons Ratio (y) = 0.34295 -0.02537
# Poissons Ratio (z) = 0.32440 -0.04923
#
# Static dielectric constant tensor:
#      x y z
#    x 1.971100 0.000000 0.000000 
#    y 0.000000 2.051540 0.000000 
#    z 0.000000 0.000000 2.130350 
# 
# From -- ./inp_files/31364.got.cif
#   From: 2010.05.17/outbox.cif.g08.bks.cpg/sg73_16_cif.got.tgz:31364.got - 2010.06.03 17:35:07.
