data_PCOD9531281
_publ_section_title
;
Structure prediction by ZEFSAII (Michael W. Deem and Ramdas Pophale) SiO2 
 PCOD9531281
Probable space group: I B C A 
;
_chemical_formula_sum "Si O2"
_cell_formula_units_Z 80
_cell_length_a 13.164910
_cell_length_b 11.666158
_cell_length_c 21.555391
_cell_angle_alpha 90.000000
_cell_angle_beta 90.000000
_cell_angle_gamma 90.000000
_cell_volume 3310.561449
_symmetry_space_group_name_H-M "I B C A "
_symmetry_group_IT_number 73
_symmetry_cell_setting 'orthorhombic'
loop_
_space_group_symop_operation_xyz
x,y,z
-x,1/2-y,z
x,-y,1/2-z
1/2-x,y,-z
-x,-y,-z
x,1/2+y,-z
-x,y,1/2+z
1/2+x,-y,z
1/2+x,1/2+y,1/2+z
1/2-x,-y,1/2+z
1/2+x,1/2-y,-z
-x,1/2+y,1/2-z
1/2-x,1/2-y,1/2-z
1/2+x,y,1/2-z
1/2-x,1/2+y,z
x,1/2-y,1/2+z
loop_
_atom_site_type_symbol
_atom_site_label
_atom_site_fract_x
_atom_site_fract_y
_atom_site_fract_z
Si Si1 0.698226 0.097777 0.653076
Si Si2 0.488265 0.368082 0.731908
Si Si3 0.369023 0.557729 0.367119
Si Si4 0.723000 0.784449 0.565498
Si Si5 0.546343 0.959481 0.565426
O O1 0.627568 0.127126 0.710110
O O2 0.777710 0.999495 0.669803
O O3 0.760308 0.201154 0.623010
O O4 0.622894 0.049927 0.598757
O O5 0.500000 0.250000 0.770345
O O6 0.511819 0.500000 0.750000
O O7 0.564930 0.355174 0.673315
O O8 0.310877 0.619228 0.423884
O O9 0.447604 0.461915 0.390796
O O10 0.750000 0.726493 0.500000
O O11 0.886526 0.844830 0.437063
O O12 0.500000 0.000000 0.500000
#
# Coordination Sequence:
#
# PCOD9531281 Si02
#       5
#    16  16  16  16  16
#     4  10  24  41  66  97 141 179 236 298 357 437
#     4  11  24  50  77 102 139 188 244 312 375 422
#     4  10  22  44  63  96 139 181 231 302 351 438
#     4  11  21  36  65  97 138 194 228 281 365 435
#     4  10  21  37  59  92 140 182 234 281 350 437
#
# _framework density 24.165085000000001
#
# number of rings (size 3 to 8) (size 9 to 14) (size 15 to 20)
#    0.000    1.600    4.000    0.000    2.800    1.600 
#   10.800    2.000    0.000    0.000    0.000    0.000 
#    0.000    0.000    0.000    0.000    0.000    0.000 
#
# Total GULP energy -223247.615773 kJ/mol
# GULP energy per Si atom -5581.190394 kJ/mol
# Density = 2.411008 g / cm^3
# Si number density = 24.165085 Si / 1000 Ang^3
#
#
#
# Elastic Constant Matrix: (Units=GPa)
#
#
# Indices 1 2 3 4 5 6 
#
# 1 135.3512 36.3826 15.0680 0.0000 0.0000 0.0000
# 2 36.3826 91.3774 12.9146 0.0000 0.0000 0.0000
# 3 15.0680 12.9146 30.2086 0.0000 0.0000 0.0000
# 4 0.0000 0.0000 0.0000 23.7834 0.0000 0.0000
# 5 0.0000 0.0000 0.0000 0.0000 21.3620 0.0000
# 6 0.0000 0.0000 0.0000 0.0000 0.0000 34.7004
#
#
#
# Elastic Compliance Matrix: (Units=1/GPa)
#
#
# Indices 1 2 3 4 5 6 
#
# 1 0.008518 -0.002971 -0.002979 0.000000 0.000000 0.000000
# 2 -0.002971 0.012683 -0.003941 0.000000 0.000000 0.000000
# 3 -0.002979 -0.003941 0.036274 0.000000 0.000000 0.000000
# 4 0.000000 0.000000 0.000000 0.042046 0.000000 0.000000
# 5 0.000000 0.000000 0.000000 0.000000 0.046812 0.000000
# 6 0.000000 0.000000 0.000000 0.000000 0.000000 0.028818
#
#
# Mechanical properties :
#
#
# Convention : Reuss Voigt Hill
#
# Bulk Modulus (GPa) = 26.52865 42.85196 34.69030
# Shear Modulus (GPa) = 24.09674 28.80729 26.45201
#
# Velocity S-wave (km/s) = 3.16123 3.45643 3.31212
# Velocity P-wave (km/s) = 4.93218 5.80523 5.38642
#
# Compressibility (1/GPa) = 0.03769510
#
# Stress axis : x y z
#
# Youngs Moduli (GPa) = 117.39397 78.84367 27.56820
#
# Poissons Ratio (x) = 0.23421 0.08212
# Poissons Ratio (y) = 0.34873 0.10863
# Poissons Ratio (z) = 0.34971 0.31069
#
# Static dielectric constant tensor:
#      x y z
#    x 1.874980 0.000000 0.000000 
#    y 0.000000 2.017790 0.000000 
#    z 0.000000 0.000000 1.983510 
# 
# From -- ./inp_files/28791.got.cif
#   From: 2010.05.17/outbox.cif.g08.bks.cpg/sg73_15_cif.got.tgz:28791.got - 2010.06.03 17:35:07.
