data_PCOD9531527
_publ_section_title
;
Structure prediction by ZEFSAII (Michael W. Deem and Ramdas Pophale) SiO2 
 PCOD9531527
Probable space group: I B C A 
;
_chemical_formula_sum "Si O2"
_cell_formula_units_Z 120
_cell_length_a 19.499037
_cell_length_b 15.362614
_cell_length_c 18.284346
_cell_angle_alpha 90.000000
_cell_angle_beta 90.000000
_cell_angle_gamma 90.000000
_cell_volume 5477.188820
_symmetry_space_group_name_H-M "I B C A "
_symmetry_group_IT_number 73
_symmetry_cell_setting 'orthorhombic'
loop_
_space_group_symop_operation_xyz
x,y,z
-x,1/2-y,z
x,-y,1/2-z
1/2-x,y,-z
-x,-y,-z
x,1/2+y,-z
-x,y,1/2+z
1/2+x,-y,z
1/2+x,1/2+y,1/2+z
1/2-x,-y,1/2+z
1/2+x,1/2-y,-z
-x,1/2+y,1/2-z
1/2-x,1/2-y,1/2-z
1/2+x,y,1/2-z
1/2-x,1/2+y,z
x,1/2-y,1/2+z
loop_
_atom_site_type_symbol
_atom_site_label
_atom_site_fract_x
_atom_site_fract_y
_atom_site_fract_z
Si Si1 0.292366 0.697585 0.188492
Si Si2 0.181854 0.955092 0.062684
Si Si3 0.250000 0.875475 0.500000
Si Si4 0.572082 0.783199 0.275412
Si Si5 0.560539 0.531727 0.828993
Si Si6 0.311531 0.356734 0.907955
Si Si7 0.838673 0.147106 0.372876
Si Si8 0.588411 0.478157 0.334919
O O1 0.250000 0.750000 0.250000
O O2 0.368086 0.683837 0.220514
O O3 0.302479 0.757034 0.115690
O O4 0.232783 0.628193 0.170699
O O5 0.114076 0.969542 0.107107
O O6 0.239489 0.904575 0.109789
O O7 0.174326 0.894010 0.989895
O O8 0.207293 0.051902 0.045045
O O9 0.192730 0.825891 0.548368
O O10 0.500000 0.750000 0.241395
O O11 0.544815 0.866237 0.319858
O O12 0.612735 0.715046 0.329055
O O13 0.586892 0.500000 0.750000
O O14 0.492595 0.477198 0.845506
O O15 0.372145 0.392134 0.857143
O O16 0.879246 0.057456 0.380388
O O17 0.599833 0.500000 0.250000
#
# Coordination Sequence:
#
# PCOD9531527 Si02
#       8
#    16  16   8  16  16  16  16  16
#     4  10  22  36  62  94 123 165 211 265 322 380
#     4  10  21  41  64  93 129 161 224 274 309 394
#     4  10  22  40  62  94 126 170 214 272 318 392
#     4  11  23  41  62  93 136 163 211 271 326 391
#     4  11  26  40  66  96 127 171 217 269 327 387
#     4  10  21  40  64  90 126 171 216 262 326 383
#     4  11  21  41  62  90 128 169 208 263 326 380
#     4  11  21  38  64  93 124 172 211 262 330 389
#
# _framework density 21.909049
#
# number of rings (size 3 to 8) (size 9 to 14) (size 15 to 20)
#    0.000    1.600    4.000    3.200    3.733    3.200 
#    0.000    0.000    0.000    0.000    0.000    0.000 
#    0.000    0.000    0.000    0.000    0.000    0.000 
#
# Total GULP energy -334368.965433 kJ/mol
# GULP energy per Si atom -5572.816091 kJ/mol
# Density = 2.185918 g / cm^3
# Si number density = 21.909049 Si / 1000 Ang^3
#
#
#
# Elastic Constant Matrix: (Units=GPa)
#
#
# Indices 1 2 3 4 5 6 
#
# 1 117.2576 13.3094 47.2174 0.0000 0.0000 0.0000
# 2 13.3094 42.1071 -11.5028 0.0000 0.0000 0.0000
# 3 47.2174 -11.5028 59.1381 0.0000 0.0000 0.0000
# 4 0.0000 0.0000 0.0000 27.1004 0.0000 0.0000
# 5 0.0000 0.0000 0.0000 0.0000 40.5225 0.0000
# 6 0.0000 0.0000 0.0000 0.0000 0.0000 104.4115
#
#
#
# Elastic Compliance Matrix: (Units=1/GPa)
#
#
# Indices 1 2 3 4 5 6 
#
# 1 0.014955 -0.008437 -0.013581 0.000000 0.000000 0.000000
# 2 -0.008437 0.029842 0.012541 0.000000 0.000000 0.000000
# 3 -0.013581 0.012541 0.030193 0.000000 0.000000 0.000000
# 4 0.000000 0.000000 0.000000 0.036900 0.000000 0.000000
# 5 0.000000 0.000000 0.000000 0.000000 0.024678 0.000000
# 6 0.000000 0.000000 0.000000 0.000000 0.000000 0.009577
#
#
# Mechanical properties :
#
#
# Convention : Reuss Voigt Hill
#
# Bulk Modulus (GPa) = 17.84639 35.17232 26.50935
# Shear Modulus (GPa) = 27.20676 45.70544 36.45610
#
# Velocity S-wave (km/s) = 3.52775 4.57239 4.08361
# Velocity P-wave (km/s) = 4.97561 6.63056 5.86178
#
# Compressibility (1/GPa) = 0.05603375
#
# Stress axis : x y z
#
# Youngs Moduli (GPa) = 66.86769 33.51015 33.12059
#
# Poissons Ratio (x) = 0.28273 0.44983
# Poissons Ratio (y) = 0.56417 -0.41536
# Poissons Ratio (z) = 0.90816 -0.42025
#
# Static dielectric constant tensor:
#      x y z
#    x 1.716380 0.000000 0.000000 
#    y 0.000000 1.864250 0.000000 
#    z 0.000000 0.000000 1.944190 
# 
# From -- ./inp_files/26659.got.cif
#   From: 2010.05.17/outbox.cif.g08.bks.cpg/sg73_14_cif.got.tgz:26659.got - 2010.06.03 17:35:07.
