data_PCOD9531829
_publ_section_title
;
Structure prediction by ZEFSAII (Michael W. Deem and Ramdas Pophale) SiO2 
 PCOD9531829
Probable space group: I B C A 
;
_chemical_formula_sum "Si O2"
_cell_formula_units_Z 120
_cell_length_a 17.055652
_cell_length_b 21.159388
_cell_length_c 16.465128
_cell_angle_alpha 90.000000
_cell_angle_beta 90.000000
_cell_angle_gamma 90.000000
_cell_volume 5942.053254
_symmetry_space_group_name_H-M "I B C A "
_symmetry_group_IT_number 73
_symmetry_cell_setting 'orthorhombic'
loop_
_space_group_symop_operation_xyz
x,y,z
-x,1/2-y,z
x,-y,1/2-z
1/2-x,y,-z
-x,-y,-z
x,1/2+y,-z
-x,y,1/2+z
1/2+x,-y,z
1/2+x,1/2+y,1/2+z
1/2-x,-y,1/2+z
1/2+x,1/2-y,-z
-x,1/2+y,1/2-z
1/2-x,1/2-y,1/2-z
1/2+x,y,1/2-z
1/2-x,1/2+y,z
x,1/2-y,1/2+z
loop_
_atom_site_type_symbol
_atom_site_label
_atom_site_fract_x
_atom_site_fract_y
_atom_site_fract_z
Si Si1 0.573556 0.004738 0.561687
Si Si2 0.114188 0.609017 0.803831
Si Si3 0.791074 0.798238 0.686698
Si Si4 0.158398 0.118006 0.015392
Si Si5 0.780503 0.500000 0.250000
Si Si6 0.455308 0.398565 0.710969
Si Si7 0.923867 0.715913 0.601494
Si Si8 0.826532 0.407124 0.654594
O O1 0.636034 0.047858 0.514084
O O2 0.549694 0.045928 0.642670
O O3 0.500000 0.000000 0.500000
O O4 0.614492 0.938457 0.588359
O O5 0.155328 0.656244 0.741323
O O6 0.126128 0.631662 0.895010
O O7 0.165020 0.546413 0.799334
O O8 0.027880 0.593966 0.771813
O O9 0.750000 0.750000 0.750000
O O10 0.852797 0.760757 0.630471
O O11 0.726004 0.843592 0.642319
O O12 0.250000 0.127597 0.000000
O O13 0.113009 0.166134 0.958765
O O14 0.730798 0.462894 0.316841
O O15 0.459186 0.328830 0.672228
O O16 0.377218 0.397198 0.764164
O O17 0.000000 0.750000 0.565870
#
# Coordination Sequence:
#
# PCOD9531829 Si02
#       8
#    16  16  16  16   8  16  16  16
#     4  11  24  42  64  98 146 179 220 285 356 420
#     4  11  24  40  68 101 124 175 230 274 340 417
#     4  11  22  41  72  97 128 171 237 287 334 407
#     4  11  25  44  68  96 136 182 220 276 365 412
#     4  10  22  36  66  98 132 158 226 280 326 406
#     4  11  22  40  68  95 135 178 227 280 343 404
#     4  11  23  47  64  97 141 178 222 292 348 405
#     4  11  21  39  67  99 129 179 228 275 346 412
#
# _framework density 20.195039999999999
#
# number of rings (size 3 to 8) (size 9 to 14) (size 15 to 20)
#    0.000    1.067    4.000    2.400    7.467    0.000 
#    2.400    4.000    0.000    0.000    0.000    0.000 
#    0.000    0.000    0.000    0.000    0.000    0.000 
#
# Total GULP energy -334918.684069 kJ/mol
# GULP energy per Si atom -5581.978068 kJ/mol
# Density = 2.014908 g / cm^3
# Si number density = 20.195040 Si / 1000 Ang^3
#
#
#
# Elastic Constant Matrix: (Units=GPa)
#
#
# Indices 1 2 3 4 5 6 
#
# 1 104.2612 23.8545 18.4897 0.0000 0.0000 0.0000
# 2 23.8545 64.0821 -7.8390 0.0000 0.0000 0.0000
# 3 18.4897 -7.8390 54.2579 0.0000 0.0000 0.0000
# 4 0.0000 0.0000 0.0000 10.6794 0.0000 0.0000
# 5 0.0000 0.0000 0.0000 0.0000 35.7603 0.0000
# 6 0.0000 0.0000 0.0000 0.0000 0.0000 57.3690
#
#
#
# Elastic Compliance Matrix: (Units=1/GPa)
#
#
# Indices 1 2 3 4 5 6 
#
# 1 0.011523 -0.004856 -0.004628 0.000000 0.000000 0.000000
# 2 -0.004856 0.017932 0.004245 0.000000 0.000000 0.000000
# 3 -0.004628 0.004245 0.020621 0.000000 0.000000 0.000000
# 4 0.000000 0.000000 0.000000 0.093639 0.000000 0.000000
# 5 0.000000 0.000000 0.000000 0.000000 0.027964 0.000000
# 6 0.000000 0.000000 0.000000 0.000000 0.000000 0.017431
#
#
# Mechanical properties :
#
#
# Convention : Reuss Voigt Hill
#
# Bulk Modulus (GPa) = 25.25320 32.40129 28.82725
# Shear Modulus (GPa) = 23.49779 33.30147 28.39963
#
# Velocity S-wave (km/s) = 3.41477 4.06518 3.75409
# Velocity P-wave (km/s) = 5.29900 6.17360 5.75294
#
# Compressibility (1/GPa) = 0.03959894
#
# Stress axis : x y z
#
# Youngs Moduli (GPa) = 86.78290 55.76681 48.49412
#
# Poissons Ratio (x) = 0.27078 0.22444
# Poissons Ratio (y) = 0.42138 -0.20588
# Poissons Ratio (z) = 0.40165 -0.23675
#
# Static dielectric constant tensor:
#      x y z
#    x 1.806200 0.000000 0.000000 
#    y 0.000000 1.776000 0.000000 
#    z 0.000000 0.000000 1.673890 
# 
# From -- ./inp_files/18263.got.cif
#   From: 2010.05.17/outbox.cif.g08.bks.cpg/sg73_10_cif.got.tgz:18263.got - 2010.06.03 17:35:07.
