data_PCOD9531526
_publ_section_title
;
Structure prediction by ZEFSAII (Michael W. Deem and Ramdas Pophale) SiO2 
 PCOD9531526
Probable space group: I B C A 
;
_chemical_formula_sum "Si O2"
_cell_formula_units_Z 96
_cell_length_a 17.807228
_cell_length_b 11.320564
_cell_length_c 24.102137
_cell_angle_alpha 90.000000
_cell_angle_beta 90.000000
_cell_angle_gamma 90.000000
_cell_volume 4858.698321
_symmetry_space_group_name_H-M "I B C A "
_symmetry_group_IT_number 73
_symmetry_cell_setting 'orthorhombic'
loop_
_space_group_symop_operation_xyz
x,y,z
-x,1/2-y,z
x,-y,1/2-z
1/2-x,y,-z
-x,-y,-z
x,1/2+y,-z
-x,y,1/2+z
1/2+x,-y,z
1/2+x,1/2+y,1/2+z
1/2-x,-y,1/2+z
1/2+x,1/2-y,-z
-x,1/2+y,1/2-z
1/2-x,1/2-y,1/2-z
1/2+x,y,1/2-z
1/2-x,1/2+y,z
x,1/2-y,1/2+z
loop_
_atom_site_type_symbol
_atom_site_label
_atom_site_fract_x
_atom_site_fract_y
_atom_site_fract_z
Si Si1 0.610140 0.569921 0.464863
Si Si2 0.925605 0.329869 0.084410
Si Si3 0.186722 0.879059 0.902691
Si Si4 0.981502 0.558974 0.126757
Si Si5 0.628770 0.558421 0.309348
Si Si6 0.657721 0.267621 0.617850
O O1 0.593593 0.604323 0.527225
O O2 0.659333 0.451663 0.456906
O O3 0.533427 0.557074 0.428957
O O4 0.651810 0.677292 0.433720
O O5 0.857739 0.243662 0.099122
O O6 0.942795 0.431189 0.128972
O O7 0.000000 0.250000 0.077340
O O8 0.273700 0.853932 0.894198
O O9 0.158021 0.962806 0.853541
O O10 0.919326 0.659669 0.122812
O O11 0.040509 0.575662 0.176428
O O12 0.640938 0.500000 0.250000
O O13 0.665931 0.683136 0.327818
#
# Coordination Sequence:
#
# PCOD9531526 Si02
#       6
#    16  16  16  16  16  16
#     4  10  22  38  61  88 125 171 212 253 304 381
#     4  12  21  38  63  92 126 170 212 267 310 371
#     4  10  24  41  57  95 129 164 208 262 318 385
#     4  10  21  40  64  89 120 166 212 264 312 379
#     4  10  22  45  68  91 119 161 216 275 322 381
#     4  10  22  42  62  90 133 165 206 257 326 385
#
# _framework density 19.758379999999999
#
# number of rings (size 3 to 8) (size 9 to 14) (size 15 to 20)
#    0.000    2.000    3.333    3.500    7.000    1.333 
#    6.000    0.833    0.000    0.000    0.000    0.000 
#    0.000    0.000    0.000    0.000    0.000    0.000 
#
# Total GULP energy -268007.199383 kJ/mol
# GULP energy per Si atom -5583.483320 kJ/mol
# Density = 1.971341 g / cm^3
# Si number density = 19.758380 Si / 1000 Ang^3
#
#
#
# Elastic Constant Matrix: (Units=GPa)
#
#
# Indices 1 2 3 4 5 6 
#
# 1 86.6739 23.0549 5.5049 0.0000 0.0000 0.0000
# 2 23.0549 88.7920 9.0903 0.0000 0.0000 0.0000
# 3 5.5049 9.0903 36.1317 0.0000 0.0000 0.0000
# 4 0.0000 0.0000 0.0000 14.3282 0.0000 0.0000
# 5 0.0000 0.0000 0.0000 0.0000 9.6118 0.0000
# 6 0.0000 0.0000 0.0000 0.0000 0.0000 -10.5436
#
#
#
# Elastic Compliance Matrix: (Units=1/GPa)
#
#
# Indices 1 2 3 4 5 6 
#
# 1 0.012437 -0.003115 -0.001111 0.000000 0.000000 0.000000
# 2 -0.003115 0.012340 -0.002630 0.000000 0.000000 0.000000
# 3 -0.001111 -0.002630 0.028507 0.000000 0.000000 0.000000
# 4 0.000000 0.000000 0.000000 0.069792 0.000000 0.000000
# 5 0.000000 0.000000 0.000000 0.000000 0.104039 0.000000
# 6 0.000000 0.000000 0.000000 0.000000 0.000000 -0.094844
#
#
# Mechanical properties :
#
#
# Convention : Reuss Voigt Hill
#
# Bulk Modulus (GPa) = 25.27061 31.87752 28.57406
# Shear Modulus (GPa) = 31.41198 14.27580 22.84389
#
# Velocity S-wave (km/s) = 3.99156 2.69089 3.40393
# Velocity P-wave (km/s) = 5.83618 5.08165 5.47194
#
# Compressibility (1/GPa) = 0.03957166
#
# Stress axis : x y z
#
# Youngs Moduli (GPa) = 80.40679 81.03423 35.07853
#
# Poissons Ratio (x) = 0.25246 0.03897
# Poissons Ratio (y) = 0.25050 0.09226
# Poissons Ratio (z) = 0.08933 0.21312
#
# Static dielectric constant tensor:
#      x y z
#    x 1.717750 0.000000 0.000000 
#    y 0.000000 1.726720 0.000000 
#    z 0.000000 0.000000 1.693570 
# 
# From -- ./inp_files/32358.got.cif
#   From: 2010.05.17/outbox.cif.g08.bks.cpg/sg73_17_cif.got.tgz:32358.got - 2010.06.03 17:35:07.
