data_PCOD9531513
_publ_section_title
;
Structure prediction by ZEFSAII (Michael W. Deem and Ramdas Pophale) SiO2 
 PCOD9531513
Probable space group: I B C A 
;
_chemical_formula_sum "Si O2"
_cell_formula_units_Z 104
_cell_length_a 27.212365
_cell_length_b 19.694025
_cell_length_c 9.972644
_cell_angle_alpha 90.000000
_cell_angle_beta 90.000000
_cell_angle_gamma 90.000000
_cell_volume 5344.549311
_symmetry_space_group_name_H-M "I B C A "
_symmetry_group_IT_number 73
_symmetry_cell_setting 'orthorhombic'
loop_
_space_group_symop_operation_xyz
x,y,z
-x,1/2-y,z
x,-y,1/2-z
1/2-x,y,-z
-x,-y,-z
x,1/2+y,-z
-x,y,1/2+z
1/2+x,-y,z
1/2+x,1/2+y,1/2+z
1/2-x,-y,1/2+z
1/2+x,1/2-y,-z
-x,1/2+y,1/2-z
1/2-x,1/2-y,1/2-z
1/2+x,y,1/2-z
1/2-x,1/2+y,z
x,1/2-y,1/2+z
loop_
_atom_site_type_symbol
_atom_site_label
_atom_site_fract_x
_atom_site_fract_y
_atom_site_fract_z
Si Si1 0.278039 0.292490 0.638245
Si Si2 0.608953 0.500000 0.750000
Si Si3 0.731383 0.422455 0.295493
Si Si4 0.050881 0.865722 0.318424
Si Si5 0.617082 0.724944 0.838948
Si Si6 0.474231 0.316424 0.591897
Si Si7 0.166668 0.406815 0.945789
O O1 0.250000 0.280260 0.500000
O O2 0.250000 0.250000 0.750000
O O3 0.278212 0.371892 0.673407
O O4 0.332369 0.263993 0.650663
O O5 0.574727 0.437378 0.787457
O O6 0.641489 0.528031 0.874548
O O7 0.736555 0.500000 0.250000
O O8 0.782814 0.397079 0.361094
O O9 0.687486 0.416507 0.404614
O O10 0.094997 0.810727 0.295024
O O11 0.031865 0.866878 0.469418
O O12 0.008168 0.843936 0.212774
O O13 0.577107 0.783238 0.866670
O O14 0.629327 0.657374 0.930232
O O15 0.500000 0.250000 0.529583
#
# Coordination Sequence:
#
# PCOD9531513 Si02
#       7
#    16   8  16  16  16  16  16
#     4  12  26  41  65 100 139 180 231 285 336 402
#     4  10  22  42  70  90 128 178 220 262 358 410
#     4  11  24  39  61  90 138 180 232 274 331 396
#     4  10  23  41  69  97 127 169 215 279 339 418
#     4  10  22  39  66  97 129 173 222 278 331 400
#     4  10  21  41  66  95 125 162 216 276 344 395
#     4  10  21  40  63  91 131 179 226 276 325 403
#
# _framework density 19.459077000000001
#
# number of rings (size 3 to 8) (size 9 to 14) (size 15 to 20)
#    0.000    1.538    2.308    2.308    6.462    1.846 
#    2.769    0.000    1.692    0.000    0.000    0.000 
#    0.000    0.000    0.000    0.000    0.000    0.000 
#
# Total GULP energy -289779.708981 kJ/mol
# GULP energy per Si atom -5572.686711 kJ/mol
# Density = 1.941479 g / cm^3
# Si number density = 19.459077 Si / 1000 Ang^3
#
#
#
# Elastic Constant Matrix: (Units=GPa)
#
#
# Indices 1 2 3 4 5 6 
#
# 1 111.0675 46.4922 21.8355 0.0000 0.0000 0.0000
# 2 46.4922 99.7942 38.1218 0.0000 0.0000 0.0000
# 3 21.8355 38.1218 68.5989 0.0000 0.0000 0.0000
# 4 0.0000 0.0000 0.0000 4.3295 0.0000 0.0000
# 5 0.0000 0.0000 0.0000 0.0000 8.5331 0.0000
# 6 0.0000 0.0000 0.0000 0.0000 0.0000 31.6815
#
#
#
# Elastic Compliance Matrix: (Units=1/GPa)
#
#
# Indices 1 2 3 4 5 6 
#
# 1 0.011223 -0.004905 -0.000846 0.000000 0.000000 0.000000
# 2 -0.004905 0.014865 -0.006699 0.000000 0.000000 0.000000
# 3 -0.000846 -0.006699 0.018570 0.000000 0.000000 0.000000
# 4 0.000000 0.000000 0.000000 0.230975 0.000000 0.000000
# 5 0.000000 0.000000 0.000000 0.000000 0.117190 0.000000
# 6 0.000000 0.000000 0.000000 0.000000 0.000000 0.031564
#
#
# Mechanical properties :
#
#
# Convention : Reuss Voigt Hill
#
# Bulk Modulus (GPa) = 50.61791 54.70665 52.66228
# Shear Modulus (GPa) = 10.96791 20.44290 15.70540
#
# Velocity S-wave (km/s) = 2.37669 3.24475 2.84403
# Velocity P-wave (km/s) = 5.79659 6.49712 6.15683
#
# Compressibility (1/GPa) = 0.01975585
#
# Stress axis : x y z
#
# Youngs Moduli (GPa) = 89.10031 67.27138 53.85048
#
# Poissons Ratio (x) = 0.32999 0.04558
# Poissons Ratio (y) = 0.43707 0.36077
# Poissons Ratio (z) = 0.07542 0.45068
#
# Static dielectric constant tensor:
#      x y z
#    x 1.842060 0.000000 0.000000 
#    y 0.000000 1.677150 0.000000 
#    z 0.000000 0.000000 1.707900 
# 
# From -- ./inp_files/7876.got.cif
#   From: 2010.05.17/outbox.cif.g08.bks.cpg/sg73_4_cif.got.tgz:7876.got - 2010.06.03 17:35:07.
