data_PCOD9531180
_publ_section_title
;
Structure prediction by ZEFSAII (Michael W. Deem and Ramdas Pophale) SiO2 
 PCOD9531180
Probable space group: I B C A 
;
_chemical_formula_sum "Si O2"
_cell_formula_units_Z 96
_cell_length_a 10.772646
_cell_length_b 21.260201
_cell_length_c 21.087223
_cell_angle_alpha 90.000000
_cell_angle_beta 90.000000
_cell_angle_gamma 90.000000
_cell_volume 4829.577568
_symmetry_space_group_name_H-M "I B C A "
_symmetry_group_IT_number 73
_symmetry_cell_setting 'orthorhombic'
loop_
_space_group_symop_operation_xyz
x,y,z
-x,1/2-y,z
x,-y,1/2-z
1/2-x,y,-z
-x,-y,-z
x,1/2+y,-z
-x,y,1/2+z
1/2+x,-y,z
1/2+x,1/2+y,1/2+z
1/2-x,-y,1/2+z
1/2+x,1/2-y,-z
-x,1/2+y,1/2-z
1/2-x,1/2-y,1/2-z
1/2+x,y,1/2-z
1/2-x,1/2+y,z
x,1/2-y,1/2+z
loop_
_atom_site_type_symbol
_atom_site_label
_atom_site_fract_x
_atom_site_fract_y
_atom_site_fract_z
Si Si1 0.160615 0.687418 0.868238
Si Si2 0.750000 0.770597 0.000000
Si Si3 0.000000 0.750000 0.066549
Si Si4 0.045753 0.477603 0.822723
Si Si5 0.190353 0.461524 0.182322
Si Si6 0.609570 0.179212 0.813016
Si Si7 0.585927 0.844680 0.826498
O O1 0.191994 0.689722 0.942286
O O2 0.175964 0.759792 0.842647
O O3 0.266333 0.645078 0.836209
O O4 0.020367 0.670344 0.850370
O O5 0.626189 0.735686 0.973134
O O6 0.037266 0.693667 0.113453
O O7 0.062082 0.500000 0.750000
O O8 0.182271 0.480081 0.851233
O O9 0.936459 0.518928 0.851902
O O10 0.992783 0.407532 0.820737
O O11 0.185712 0.500000 0.250000
O O12 0.185190 0.386045 0.188774
O O13 0.576229 0.191416 0.739880
#
# Coordination Sequence:
#
# PCOD9531180 Si02
#       7
#    16   8   8  16  16  16  16
#     4  10  24  37  60  87 121 168 188 260 289 360
#     4  10  22  46  56  82 120 158 222 230 300 348
#     4  10  22  38  64  86 120 160 194 260 284 360
#     4  10  21  35  52  80 124 169 188 227 281 371
#     4  10  21  34  55  78 126 166 192 225 278 375
#     4  11  21  36  58  94 129 155 193 235 319 370
#     4  11  22  34  58  92 130 151 188 241 316 364
#
# _framework density 19.877516
#
# number of rings (size 3 to 8) (size 9 to 14) (size 15 to 20)
#    0.000    1.667    3.333    2.500    9.333    0.000 
#    0.000    0.000    0.000    0.000    0.000   16.333 
#    0.000    0.000    0.000    0.000    0.000    0.000 
#
# Total GULP energy -267505.410116 kJ/mol
# GULP energy per Si atom -5573.029377 kJ/mol
# Density = 1.983227 g / cm^3
# Si number density = 19.877516 Si / 1000 Ang^3
#
#
#
# Elastic Constant Matrix: (Units=GPa)
#
#
# Indices 1 2 3 4 5 6 
#
# 1 153.9820 16.1784 21.8782 0.0000 0.0000 0.0000
# 2 16.1784 76.4602 5.4009 0.0000 0.0000 0.0000
# 3 21.8782 5.4009 78.6807 0.0000 0.0000 0.0000
# 4 0.0000 0.0000 0.0000 -4.7253 0.0000 0.0000
# 5 0.0000 0.0000 0.0000 0.0000 130.8752 0.0000
# 6 0.0000 0.0000 0.0000 0.0000 0.0000 -48.0524
#
#
#
# Elastic Compliance Matrix: (Units=1/GPa)
#
#
# Indices 1 2 3 4 5 6 
#
# 1 0.006893 -0.001330 -0.001826 0.000000 0.000000 0.000000
# 2 -0.001330 0.013399 -0.000550 0.000000 0.000000 0.000000
# 3 -0.001826 -0.000550 0.013255 0.000000 0.000000 0.000000
# 4 0.000000 0.000000 0.000000 -0.211628 0.000000 0.000000
# 5 0.000000 0.000000 0.000000 0.000000 0.007641 0.000000
# 6 0.000000 0.000000 0.000000 0.000000 0.000000 -0.020811
#
#
# Mechanical properties :
#
#
# Convention : Reuss Voigt Hill
#
# Bulk Modulus (GPa) = 38.26012 44.00420 41.13216
# Shear Modulus (GPa) = -28.55049 33.33054 2.39002
#
# Velocity S-wave (km/s) = -3.79399 4.09931 1.09772
# Velocity P-wave (km/s) = 0.31178 6.67769 4.72698
#
# Compressibility (1/GPa) = 0.02613688
#
# Stress axis : x y z
#
# Youngs Moduli (GPa) = 145.06756 74.63301 75.44343
#
# Poissons Ratio (x) = 0.09923 0.13772
# Poissons Ratio (y) = 0.19289 0.04150
# Poissons Ratio (z) = 0.26482 0.04105
#
# Static dielectric constant tensor:
#      x y z
#    x 1.797170 0.000000 0.000000 
#    y 0.000000 1.765450 0.000000 
#    z 0.000000 0.000000 1.680360 
# 
# From -- ./inp_files/25485.got.cif
#   From: 2010.05.17/outbox.cif.g08.bks.cpg/sg73_13_cif.got.tgz:25485.got - 2010.06.03 17:35:07.
