data_PCOD9531484
_publ_section_title
;
Structure prediction by ZEFSAII (Michael W. Deem and Ramdas Pophale) SiO2 
 PCOD9531484
Probable space group: I B C A 
;
_chemical_formula_sum "Si O2"
_cell_formula_units_Z 64
_cell_length_a 10.464590
_cell_length_b 10.152452
_cell_length_c 24.039112
_cell_angle_alpha 90.000000
_cell_angle_beta 90.000000
_cell_angle_gamma 90.000000
_cell_volume 2553.945252
_symmetry_space_group_name_H-M "I B C A "
_symmetry_group_IT_number 73
_symmetry_cell_setting 'orthorhombic'
loop_
_space_group_symop_operation_xyz
x,y,z
-x,1/2-y,z
x,-y,1/2-z
1/2-x,y,-z
-x,-y,-z
x,1/2+y,-z
-x,y,1/2+z
1/2+x,-y,z
1/2+x,1/2+y,1/2+z
1/2-x,-y,1/2+z
1/2+x,1/2-y,-z
-x,1/2+y,1/2-z
1/2-x,1/2-y,1/2-z
1/2+x,y,1/2-z
1/2-x,1/2+y,z
x,1/2-y,1/2+z
loop_
_atom_site_type_symbol
_atom_site_label
_atom_site_fract_x
_atom_site_fract_y
_atom_site_fract_z
Si Si1 0.887958 0.861759 0.462700
Si Si2 0.351401 0.216307 0.342740
Si Si3 0.808201 0.489488 0.189886
Si Si4 0.950032 0.396791 0.417901
O O1 0.823385 0.797686 0.408217
O O2 0.856227 0.891737 0.527605
O O3 0.000000 0.750000 0.471827
O O4 0.941355 0.000526 0.438615
O O5 0.500000 0.250000 0.336243
O O6 0.272765 0.339025 0.320211
O O7 0.312919 0.084942 0.311490
O O8 0.872575 0.500000 0.250000
O O9 0.890696 0.538999 0.137270
O O10 0.000000 0.250000 0.406364
#
# Coordination Sequence:
#
# PCOD9531484 Si02
#       4
#    16  16  16  16
#     4   9  18  42  69 101 146 183 232 308 357 421
#     4  11  25  48  70 101 144 187 243 309 359 427
#     4  12  27  45  69 104 143 195 247 293 366 446
#     4  10  21  39  72 108 142 185 243 297 363 434
#
# _framework density 25.059270000000001
#
# number of rings (size 3 to 8) (size 9 to 14) (size 15 to 20)
#    0.000    1.500    5.000    0.750    3.500    3.000 
#    0.000    2.500    0.000    0.000    0.000    0.000 
#    0.000    0.000    0.000    0.000    0.000    0.000 
#
# Total GULP energy -178855.863342 kJ/mol
# GULP energy per Si atom -5589.245729 kJ/mol
# Density = 2.500223 g / cm^3
# Si number density = 25.059270 Si / 1000 Ang^3
#
#
#
# Elastic Constant Matrix: (Units=GPa)
#
#
# Indices 1 2 3 4 5 6 
#
# 1 21.0184 32.3521 25.5194 0.0000 0.0000 0.0000
# 2 32.3521 151.7644 22.0407 0.0000 0.0000 0.0000
# 3 25.5194 22.0407 190.8119 0.0000 0.0000 0.0000
# 4 0.0000 0.0000 0.0000 39.6225 0.0000 0.0000
# 5 0.0000 0.0000 0.0000 0.0000 388.1379 0.0000
# 6 0.0000 0.0000 0.0000 0.0000 0.0000 31.8842
#
#
#
# Elastic Compliance Matrix: (Units=1/GPa)
#
#
# Indices 1 2 3 4 5 6 
#
# 1 0.084666 -0.016684 -0.009396 0.000000 0.000000 0.000000
# 2 -0.016684 0.009989 0.001077 0.000000 0.000000 0.000000
# 3 -0.009396 0.001077 0.006373 0.000000 0.000000 0.000000
# 4 0.000000 0.000000 0.000000 0.025238 0.000000 0.000000
# 5 0.000000 0.000000 0.000000 0.000000 0.002576 0.000000
# 6 0.000000 0.000000 0.000000 0.000000 0.000000 0.031363
#
#
# Mechanical properties :
#
#
# Convention : Reuss Voigt Hill
#
# Bulk Modulus (GPa) = 19.59901 58.15768 38.87835
# Shear Modulus (GPa) = 22.00518 110.84109 66.42314
#
# Velocity S-wave (km/s) = 2.96653 6.65790 5.15402
# Velocity P-wave (km/s) = 4.42400 9.07535 7.13911
#
# Compressibility (1/GPa) = 0.05102298
#
# Stress axis : x y z
#
# Youngs Moduli (GPa) = 11.81112 100.10764 156.91307
#
# Poissons Ratio (x) = 1.67019 1.47438
# Poissons Ratio (y) = 0.19706 -0.16907
# Poissons Ratio (z) = 0.11098 -0.10786
#
# Static dielectric constant tensor:
#      x y z
#    x 2.333250 0.000000 0.000000 
#    y 0.000000 1.922920 0.000000 
#    z 0.000000 0.000000 1.972210 
# 
# From -- ./inp_files/28708.got.cif
#   From: 2010.05.17/outbox.cif.g08.bks.cpg/sg73_15_cif.got.tgz:28708.got - 2010.06.03 17:35:07.
