data_PCOD9531727
_publ_section_title
;
Structure prediction by ZEFSAII (Michael W. Deem and Ramdas Pophale) SiO2 
 PCOD9531727
Probable space group: I B C A 
;
_chemical_formula_sum "Si O2"
_cell_formula_units_Z 112
_cell_length_a 29.006968
_cell_length_b 5.678101
_cell_length_c 32.171156
_cell_angle_alpha 90.000000
_cell_angle_beta 90.000000
_cell_angle_gamma 90.000000
_cell_volume 5298.733971
_symmetry_space_group_name_H-M "I B C A "
_symmetry_group_IT_number 73
_symmetry_cell_setting 'orthorhombic'
loop_
_space_group_symop_operation_xyz
x,y,z
-x,1/2-y,z
x,-y,1/2-z
1/2-x,y,-z
-x,-y,-z
x,1/2+y,-z
-x,y,1/2+z
1/2+x,-y,z
1/2+x,1/2+y,1/2+z
1/2-x,-y,1/2+z
1/2+x,1/2-y,-z
-x,1/2+y,1/2-z
1/2-x,1/2-y,1/2-z
1/2+x,y,1/2-z
1/2-x,1/2+y,z
x,1/2-y,1/2+z
loop_
_atom_site_type_symbol
_atom_site_label
_atom_site_fract_x
_atom_site_fract_y
_atom_site_fract_z
Si Si1 0.000000 0.750000 0.637800
Si Si2 0.890764 0.000000 0.250000
Si Si3 0.051101 0.846866 0.888360
Si Si4 0.574224 0.191218 0.480347
Si Si5 0.564469 0.618359 0.794076
Si Si6 0.277448 0.799603 0.614570
Si Si7 0.365496 0.215088 0.826467
Si Si8 0.814813 0.689094 0.479429
O O1 0.960844 0.624885 0.610888
O O2 0.972903 0.910920 0.671023
O O3 0.926459 0.117210 0.281846
O O4 0.861172 0.152276 0.217890
O O5 0.063171 0.733106 0.932200
O O6 0.093234 0.810747 0.856475
O O7 0.000000 0.750000 0.878870
O O8 0.557862 0.433172 0.503567
O O9 0.629733 0.187448 0.483231
O O10 0.553511 0.500000 0.750000
O O11 0.613329 0.532132 0.811653
O O12 0.249856 0.549953 0.619272
O O13 0.319109 0.795790 0.647633
O O14 0.298453 0.801600 0.568091
O O15 0.800075 0.436169 0.498871
#
# Coordination Sequence:
#
# PCOD9531727 Si02
#       8
#     8   8  16  16  16  16  16  16
#     4  12  24  36  62 106 138 180 242 294 350 428
#     4  10  22  44  70  94 132 192 224 284 372 412
#     4  12  25  42  66 101 138 190 235 288 348 418
#     4  10  24  44  68  97 139 193 239 286 342 410
#     4  10  23  38  66  97 138 182 231 290 362 421
#     4  12  28  46  75 111 141 186 236 293 362 427
#     4  11  24  47  68 100 144 181 232 300 344 435
#     4  10  21  43  71 104 140 181 228 291 360 418
#
# _framework density 21.137124
#
# number of rings (size 3 to 8) (size 9 to 14) (size 15 to 20)
#    0.000    1.143    4.286    0.857    5.000    2.286 
#    2.571    0.714    0.000    0.000    0.000    0.000 
#    0.000    0.000    0.000    0.000    0.000    0.000 
#
# Total GULP energy -311945.480996 kJ/mol
# GULP energy per Si atom -5570.455018 kJ/mol
# Density = 2.108901 g / cm^3
# Si number density = 21.137124 Si / 1000 Ang^3
#
#
#
# Elastic Constant Matrix: (Units=GPa)
#
#
# Indices 1 2 3 4 5 6 
#
# 1 40.9645 28.2955 12.7278 0.0000 0.0000 0.0000
# 2 28.2955 105.0900 40.1829 0.0000 0.0000 0.0000
# 3 12.7278 40.1829 93.5071 0.0000 0.0000 0.0000
# 4 0.0000 0.0000 0.0000 17.0192 0.0000 0.0000
# 5 0.0000 0.0000 0.0000 0.0000 27.4355 0.0000
# 6 0.0000 0.0000 0.0000 0.0000 0.0000 15.9999
#
#
#
# Elastic Compliance Matrix: (Units=1/GPa)
#
#
# Indices 1 2 3 4 5 6 
#
# 1 0.030031 -0.007805 -0.000733 0.000000 0.000000 0.000000
# 2 -0.007805 0.013415 -0.004703 0.000000 0.000000 0.000000
# 3 -0.000733 -0.004703 0.012815 0.000000 0.000000 0.000000
# 4 0.000000 0.000000 0.000000 0.058757 0.000000 0.000000
# 5 0.000000 0.000000 0.000000 0.000000 0.036449 0.000000
# 6 0.000000 0.000000 0.000000 0.000000 0.000000 0.062500
#
#
# Mechanical properties :
#
#
# Convention : Reuss Voigt Hill
#
# Bulk Modulus (GPa) = 33.58142 44.66378 39.12260
# Shear Modulus (GPa) = 19.96992 22.64795 21.30894
#
# Velocity S-wave (km/s) = 3.07706 3.27689 3.17855
# Velocity P-wave (km/s) = 5.34288 5.95766 5.65862
#
# Compressibility (1/GPa) = 0.02977837
#
# Stress axis : x y z
#
# Youngs Moduli (GPa) = 33.29929 74.54162 78.03326
#
# Poissons Ratio (x) = 0.58182 0.05724
# Poissons Ratio (y) = 0.25991 0.36696
# Poissons Ratio (z) = 0.02442 0.35054
#
# Static dielectric constant tensor:
#      x y z
#    x 1.757650 0.000000 0.000000 
#    y 0.000000 2.031630 0.000000 
#    z 0.000000 0.000000 1.735030 
# 
# From -- ./inp_files/3284.got.cif
#   From: 2010.05.17/outbox.cif.g08.bks.cpg/sg73_2_cif.got.tgz:3284.got - 2010.06.03 17:35:07.
