data_PCOD9531392
_publ_section_title
;
Structure prediction by ZEFSAII (Michael W. Deem and Ramdas Pophale) SiO2 
 PCOD9531392
Probable space group: I B C A 
;
_chemical_formula_sum "Si O2"
_cell_formula_units_Z 96
_cell_length_a 15.444999
_cell_length_b 19.294950
_cell_length_c 14.726546
_cell_angle_alpha 90.000000
_cell_angle_beta 90.000000
_cell_angle_gamma 90.000000
_cell_volume 4388.665093
_symmetry_space_group_name_H-M "I B C A "
_symmetry_group_IT_number 73
_symmetry_cell_setting 'orthorhombic'
loop_
_space_group_symop_operation_xyz
x,y,z
-x,1/2-y,z
x,-y,1/2-z
1/2-x,y,-z
-x,-y,-z
x,1/2+y,-z
-x,y,1/2+z
1/2+x,-y,z
1/2+x,1/2+y,1/2+z
1/2-x,-y,1/2+z
1/2+x,1/2-y,-z
-x,1/2+y,1/2-z
1/2-x,1/2-y,1/2-z
1/2+x,y,1/2-z
1/2-x,1/2+y,z
x,1/2-y,1/2+z
loop_
_atom_site_type_symbol
_atom_site_label
_atom_site_fract_x
_atom_site_fract_y
_atom_site_fract_z
Si Si1 0.065760 0.461643 0.565826
Si Si2 0.250000 0.456448 0.500000
Si Si3 0.696452 0.819919 0.271314
Si Si4 0.896280 0.247601 0.417055
Si Si5 0.022990 0.000000 0.750000
Si Si6 0.078085 0.303266 0.598489
Si Si7 0.662388 0.890954 0.822323
O O1 0.161930 0.488290 0.540885
O O2 0.056772 0.378101 0.554396
O O3 0.000000 0.500000 0.500000
O O4 0.037088 0.475823 0.668069
O O5 0.212106 0.416001 0.412670
O O6 0.750000 0.750000 0.250000
O O7 0.648406 0.811911 0.366875
O O8 0.627029 0.821463 0.190469
O O9 0.766048 0.880334 0.256320
O O10 0.865401 0.234465 0.520211
O O11 0.876635 0.182373 0.352732
O O12 0.000000 0.250000 0.423633
O O13 0.086792 0.940755 0.711388
O O14 0.000000 0.250000 0.618986
#
# Coordination Sequence:
#
# PCOD9531392 Si02
#       7
#    16   8  16  16   8  16  16
#     4  12  26  50  78 105 147 202 250 312 382 457
#     4  12  22  48  76  96 148 194 254 290 392 438
#     4  10  22  37  66  99 136 180 240 287 365 442
#     4  10  21  38  66  96 137 181 235 294 367 437
#     4  12  28  44  76 102 146 192 260 308 374 446
#     4  11  23  42  70 101 143 189 237 304 376 439
#     4  11  22  43  67 101 140 191 239 301 363 451
#
# _framework density 21.874533
#
# number of rings (size 3 to 8) (size 9 to 14) (size 15 to 20)
#    0.000    1.000    5.000    0.500    7.000    2.667 
#    0.000    0.000    0.000    0.000    0.000    0.000 
#    0.000    0.000    0.000    0.000    0.000    0.000 
#
# Total GULP energy -268019.436239 kJ/mol
# GULP energy per Si atom -5583.738255 kJ/mol
# Density = 2.182475 g / cm^3
# Si number density = 21.874533 Si / 1000 Ang^3
#
#
#
# Elastic Constant Matrix: (Units=GPa)
#
#
# Indices 1 2 3 4 5 6 
#
# 1 126.1996 33.5903 37.1753 0.0000 0.0000 0.0000
# 2 33.5903 40.9459 28.2697 0.0000 0.0000 0.0000
# 3 37.1753 28.2697 105.4504 0.0000 0.0000 0.0000
# 4 0.0000 0.0000 0.0000 28.9828 0.0000 0.0000
# 5 0.0000 0.0000 0.0000 0.0000 22.0118 0.0000
# 6 0.0000 0.0000 0.0000 0.0000 0.0000 28.1686
#
#
#
# Elastic Compliance Matrix: (Units=1/GPa)
#
#
# Indices 1 2 3 4 5 6 
#
# 1 0.010377 -0.007347 -0.001689 0.000000 0.000000 0.000000
# 2 -0.007347 0.035171 -0.006839 0.000000 0.000000 0.000000
# 3 -0.001689 -0.006839 0.011912 0.000000 0.000000 0.000000
# 4 0.000000 0.000000 0.000000 0.034503 0.000000 0.000000
# 5 0.000000 0.000000 0.000000 0.000000 0.045430 0.000000
# 6 0.000000 0.000000 0.000000 0.000000 0.000000 0.035500
#
#
# Mechanical properties :
#
#
# Convention : Reuss Voigt Hill
#
# Bulk Modulus (GPa) = 38.89358 52.29628 45.59493
# Shear Modulus (GPa) = 23.45074 27.40336 25.42705
#
# Velocity S-wave (km/s) = 3.27778 3.54326 3.41310
# Velocity P-wave (km/s) = 5.66957 6.37957 6.03502
#
# Compressibility (1/GPa) = 0.02571118
#
# Stress axis : x y z
#
# Youngs Moduli (GPa) = 96.36792 28.43236 83.95011
#
# Poissons Ratio (x) = 0.20889 0.14176
# Poissons Ratio (y) = 0.70800 0.57412
# Poissons Ratio (z) = 0.16273 0.19444
#
# Static dielectric constant tensor:
#      x y z
#    x 2.194250 0.000000 0.000000 
#    y 0.000000 1.819190 0.000000 
#    z 0.000000 0.000000 1.788060 
# 
# From -- ./inp_files/17119.got.cif
#   From: 2010.05.17/outbox.cif.g08.bks.cpg/sg73_9_cif.got.tgz:17119.got - 2010.06.03 17:35:07.
