data_PCOD9531120
_publ_section_title
;
Structure prediction by ZEFSAII (Michael W. Deem and Ramdas Pophale) SiO2 
 PCOD9531120
Probable space group: I B C A 
;
_chemical_formula_sum "Si O2"
_cell_formula_units_Z 64
_cell_length_a 9.407631
_cell_length_b 25.317975
_cell_length_c 10.981276
_cell_angle_alpha 90.000000
_cell_angle_beta 90.000000
_cell_angle_gamma 90.000000
_cell_volume 2615.544108
_symmetry_space_group_name_H-M "I B C A "
_symmetry_group_IT_number 73
_symmetry_cell_setting 'orthorhombic'
loop_
_space_group_symop_operation_xyz
x,y,z
-x,1/2-y,z
x,-y,1/2-z
1/2-x,y,-z
-x,-y,-z
x,1/2+y,-z
-x,y,1/2+z
1/2+x,-y,z
1/2+x,1/2+y,1/2+z
1/2-x,-y,1/2+z
1/2+x,1/2-y,-z
-x,1/2+y,1/2-z
1/2-x,1/2-y,1/2-z
1/2+x,y,1/2-z
1/2-x,1/2+y,z
x,1/2-y,1/2+z
loop_
_atom_site_type_symbol
_atom_site_label
_atom_site_fract_x
_atom_site_fract_y
_atom_site_fract_z
Si Si1 0.250000 0.690128 0.000000
Si Si2 0.818770 0.500000 0.250000
Si Si3 0.942939 0.543352 0.906929
Si Si4 0.500000 0.750000 0.884658
Si Si5 0.250000 0.127411 0.500000
Si Si6 0.804669 0.311164 0.257345
O O1 0.380797 0.728649 0.974088
O O2 0.219811 0.661719 0.872178
O O3 0.706697 0.474457 0.344895
O O4 0.929156 0.457065 0.192389
O O5 0.895291 0.593755 0.985043
O O6 0.000000 0.500000 0.000000
O O7 0.466233 0.799234 0.796256
O O8 0.251914 0.160186 0.375796
O O9 0.750000 0.250000 0.250000
#
# Coordination Sequence:
#
# PCOD9531120 Si02
#       6
#     8   8  16   8   8  16
#     4  10  21  42  70 103 142 204 258 337 405 464
#     4  10  22  44  82 112 168 206 252 358 418 500
#     4  11  22  47  79 120 159 210 261 343 427 507
#     4  10  20  42  74 102 146 208 266 358 404 458
#     4  12  25  46  82 119 162 224 274 341 427 510
#     4  10  22  43  71 106 156 211 278 338 394 470
#
# _framework density 24.469097000000001
#
# number of rings (size 3 to 8) (size 9 to 14) (size 15 to 20)
#    0.000    1.500    2.500    3.750    0.000    2.000 
#   13.500    0.000    0.000    0.000    0.000    0.000 
#    0.000    0.000    0.000    0.000    0.000    0.000 
#
# Total GULP energy -178494.230907 kJ/mol
# GULP energy per Si atom -5577.944716 kJ/mol
# Density = 2.441340 g / cm^3
# Si number density = 24.469097 Si / 1000 Ang^3
#
#
#
# Elastic Constant Matrix: (Units=GPa)
#
#
# Indices 1 2 3 4 5 6 
#
# 1 144.6250 29.6214 62.6016 0.0000 0.0000 0.0000
# 2 29.6214 76.9371 60.9634 -0.0002 0.0000 0.0001
# 3 62.6016 60.9634 219.2851 -0.0006 -0.0001 0.0004
# 4 0.0000 -0.0002 -0.0006 37.0471 0.0000 0.0001
# 5 0.0000 0.0000 -0.0001 0.0000 65.1203 0.0001
# 6 0.0000 0.0001 0.0004 0.0001 0.0001 30.5568
#
#
#
# Elastic Compliance Matrix: (Units=1/GPa)
#
#
# Indices 1 2 3 4 5 6 
#
# 1 0.008047 -0.001639 -0.001842 0.000000 0.000000 0.000000
# 2 -0.001639 0.017004 -0.004259 0.000000 0.000000 0.000000
# 3 -0.001842 -0.004259 0.006270 0.000000 0.000000 0.000000
# 4 0.000000 0.000000 0.000000 0.026993 0.000000 0.000000
# 5 0.000000 0.000000 0.000000 0.000000 0.015356 0.000000
# 6 0.000000 0.000000 0.000000 0.000000 0.000000 0.032726
#
#
# Mechanical properties :
#
#
# Convention : Reuss Voigt Hill
#
# Bulk Modulus (GPa) = 63.12651 83.02446 73.07548
# Shear Modulus (GPa) = 39.32175 45.72224 42.52199
#
# Velocity S-wave (km/s) = 4.01308 4.32739 4.17320
# Velocity P-wave (km/s) = 6.87951 7.67935 7.29040
#
# Compressibility (1/GPa) = 0.01584121
#
# Stress axis : x y z
#
# Youngs Moduli (GPa) = 124.26526 58.81106 159.48544
#
# Poissons Ratio (x) = 0.09639 0.29372
# Poissons Ratio (y) = 0.20366 0.67929
# Poissons Ratio (z) = 0.22886 0.25049
#
# Static dielectric constant tensor:
#      x y z
#    x 2.188770 0.000000 0.000000 
#    y 0.000000 2.019810 0.000000 
#    z 0.000000 0.000000 2.097580 
# 
# From -- ./inp_files/9661.got.cif
#   From: 2010.05.17/outbox.cif.g08.bks.cpg/sg73_5_cif.got.tgz:9661.got - 2010.06.03 17:35:07.
