data_PCOD9531561
_publ_section_title
;
Structure prediction by ZEFSAII (Michael W. Deem and Ramdas Pophale) SiO2 
 PCOD9531561
Probable space group: I B C A 
;
_chemical_formula_sum "Si O2"
_cell_formula_units_Z 96
_cell_length_a 13.530481
_cell_length_b 19.917103
_cell_length_c 13.503106
_cell_angle_alpha 90.000000
_cell_angle_beta 90.000000
_cell_angle_gamma 90.000000
_cell_volume 3638.924810
_symmetry_space_group_name_H-M "I B C A "
_symmetry_group_IT_number 73
_symmetry_cell_setting 'orthorhombic'
loop_
_space_group_symop_operation_xyz
x,y,z
-x,1/2-y,z
x,-y,1/2-z
1/2-x,y,-z
-x,-y,-z
x,1/2+y,-z
-x,y,1/2+z
1/2+x,-y,z
1/2+x,1/2+y,1/2+z
1/2-x,-y,1/2+z
1/2+x,1/2-y,-z
-x,1/2+y,1/2-z
1/2-x,1/2-y,1/2-z
1/2+x,y,1/2-z
1/2-x,1/2+y,z
x,1/2-y,1/2+z
loop_
_atom_site_type_symbol
_atom_site_label
_atom_site_fract_x
_atom_site_fract_y
_atom_site_fract_z
Si Si1 0.021046 0.978660 0.858770
Si Si2 0.703489 0.527352 0.644408
Si Si3 0.328619 0.807988 0.223405
Si Si4 0.113197 0.115327 0.915150
Si Si5 0.686637 0.620933 0.909947
Si Si6 0.960817 0.658876 0.952537
O O1 0.070355 0.914352 0.907763
O O2 0.909884 0.950971 0.842124
O O3 0.054762 0.000000 0.750000
O O4 0.043295 0.047991 0.915788
O O5 0.738906 0.500000 0.750000
O O6 0.779622 0.579090 0.596924
O O7 0.684054 0.458909 0.583815
O O8 0.250000 0.750000 0.250000
O O9 0.386850 0.837265 0.318116
O O10 0.246677 0.861836 0.187156
O O11 0.407912 0.796183 0.132739
O O12 0.075935 0.156382 0.012391
O O13 0.750000 0.648878 0.000000
O O14 0.586507 0.659783 0.936282
#
# Coordination Sequence:
#
# PCOD9531561 Si02
#       6
#    16  16  16  16  16  16
#     4  11  22  39  70 116 169 199 247 318 420 506
#     4  11  22  36  65 111 163 201 238 316 420 499
#     4  11  25  49  78 102 148 218 274 342 410 462
#     4  12  22  41  74 112 157 204 263 330 398 500
#     4  10  21  40  69 104 150 199 255 316 399 490
#     4  11  24  43  78 114 151 206 267 328 405 507
#
# _framework density 26.381418
#
# number of rings (size 3 to 8) (size 9 to 14) (size 15 to 20)
#    0.000    1.000    5.000    3.000    2.333    0.000 
#    0.000    0.833   14.667    0.000    0.000    0.000 
#    0.000    0.000    0.000    0.000    0.000    0.000 
#
# Total GULP energy -267350.056749 kJ/mol
# GULP energy per Si atom -5569.792849 kJ/mol
# Density = 2.632137 g / cm^3
# Si number density = 26.381418 Si / 1000 Ang^3
#
#
#
# Elastic Constant Matrix: (Units=GPa)
#
#
# Indices 1 2 3 4 5 6 
#
# 1 166.8746 32.5155 57.7490 0.0000 0.0000 0.0000
# 2 32.5155 76.1647 44.0853 -0.0002 0.0000 0.0000
# 3 57.7490 44.0853 147.6907 -0.0005 0.0000 0.0000
# 4 0.0000 -0.0002 -0.0005 20.8157 0.0000 0.0000
# 5 0.0000 0.0000 0.0000 0.0000 55.9548 0.0000
# 6 0.0000 0.0000 0.0000 0.0000 0.0000 29.7074
#
#
#
# Elastic Compliance Matrix: (Units=1/GPa)
#
#
# Indices 1 2 3 4 5 6 
#
# 1 0.007113 -0.001725 -0.002266 0.000000 0.000000 0.000000
# 2 -0.001725 0.016290 -0.004188 0.000000 0.000000 0.000000
# 3 -0.002266 -0.004188 0.008907 0.000000 0.000000 0.000000
# 4 0.000000 0.000000 0.000000 0.048041 0.000000 0.000000
# 5 0.000000 0.000000 0.000000 0.000000 0.017872 0.000000
# 6 0.000000 0.000000 0.000000 0.000000 0.000000 0.033662
#
#
# Mechanical properties :
#
#
# Convention : Reuss Voigt Hill
#
# Bulk Modulus (GPa) = 62.68984 73.26995 67.97989
# Shear Modulus (GPa) = 32.56063 38.38759 35.47411
#
# Velocity S-wave (km/s) = 3.51697 3.81872 3.67094
# Velocity P-wave (km/s) = 6.34874 6.87583 6.61754
#
# Compressibility (1/GPa) = 0.01595155
#
# Stress axis : x y z
#
# Youngs Moduli (GPa) = 140.58951 61.38776 112.26823
#
# Poissons Ratio (x) = 0.10588 0.25445
# Poissons Ratio (y) = 0.24248 0.47019
# Poissons Ratio (z) = 0.31863 0.25710
#
# Static dielectric constant tensor:
#      x y z
#    x 2.349820 0.000000 0.000000 
#    y 0.000000 2.142790 0.000000 
#    z 0.000000 0.000000 2.196820 
# 
# From -- ./inp_files/17083.got.cif
#   From: 2010.05.17/outbox.cif.g08.bks.cpg/sg73_9_cif.got.tgz:17083.got - 2010.06.03 17:35:07.
