data_PCOD9531873
_publ_section_title
;
Structure prediction by ZEFSAII (Michael W. Deem and Ramdas Pophale) SiO2 
 PCOD9531873
Probable space group: I B C A 
;
_chemical_formula_sum "Si O2"
_cell_formula_units_Z 96
_cell_length_a 23.806161
_cell_length_b 10.936030
_cell_length_c 16.469299
_cell_angle_alpha 90.000000
_cell_angle_beta 90.000000
_cell_angle_gamma 90.000000
_cell_volume 4287.697851
_symmetry_space_group_name_H-M "I B C A "
_symmetry_group_IT_number 73
_symmetry_cell_setting 'orthorhombic'
loop_
_space_group_symop_operation_xyz
x,y,z
-x,1/2-y,z
x,-y,1/2-z
1/2-x,y,-z
-x,-y,-z
x,1/2+y,-z
-x,y,1/2+z
1/2+x,-y,z
1/2+x,1/2+y,1/2+z
1/2-x,-y,1/2+z
1/2+x,1/2-y,-z
-x,1/2+y,1/2-z
1/2-x,1/2-y,1/2-z
1/2+x,y,1/2-z
1/2-x,1/2+y,z
x,1/2-y,1/2+z
loop_
_atom_site_type_symbol
_atom_site_label
_atom_site_fract_x
_atom_site_fract_y
_atom_site_fract_z
Si Si1 0.651576 0.282101 0.601327
Si Si2 0.590563 0.070895 0.833717
Si Si3 0.500000 0.250000 0.901826
Si Si4 0.250000 0.172129 0.000000
Si Si5 0.683854 0.274491 0.268923
Si Si6 0.425159 0.617602 0.980947
Si Si7 0.667789 0.442224 0.885032
O O1 0.700704 0.254133 0.537186
O O2 0.658211 0.199373 0.680790
O O3 0.593577 0.247325 0.558913
O O4 0.660198 0.417258 0.633792
O O5 0.549726 0.188558 0.848781
O O6 0.655424 0.120872 0.825955
O O7 0.576667 0.000000 0.750000
O O8 0.578700 0.981613 0.909725
O O9 0.522027 0.355816 0.962635
O O10 0.273166 0.089052 0.927583
O O11 0.750000 0.250000 0.250000
O O12 0.662766 0.150298 0.311140
O O13 0.377164 0.584052 0.045213
#
# Coordination Sequence:
#
# PCOD9531873 Si02
#       7
#    16  16   8   8  16  16  16
#     4  11  23  41  66 100 143 192 243 305 374 445
#     4  12  27  51  76 113 158 195 254 323 390 466
#     4  12  26  52  80 114 142 202 264 314 402 458
#     4  10  22  38  62 102 138 194 252 300 368 438
#     4  12  25  46  70 106 151 203 247 308 388 458
#     4  11  25  47  76 106 145 194 249 323 379 458
#     4  11  23  41  66 101 143 188 252 306 362 458
#
# _framework density 22.389638000000001
#
# number of rings (size 3 to 8) (size 9 to 14) (size 15 to 20)
#    0.000    0.667    5.000    2.500    2.333    4.667 
#    3.000    0.000    0.000    0.000    0.000    0.000 
#    0.000    0.000    0.000    0.000    0.000    0.000 
#
# Total GULP energy -267882.622193 kJ/mol
# GULP energy per Si atom -5580.887962 kJ/mol
# Density = 2.233868 g / cm^3
# Si number density = 22.389638 Si / 1000 Ang^3
#
#
#
# Elastic Constant Matrix: (Units=GPa)
#
#
# Indices 1 2 3 4 5 6 
#
# 1 89.5360 31.3062 40.2057 0.0000 0.0000 0.0000
# 2 31.3062 108.6281 37.6849 0.0000 0.0000 0.0000
# 3 40.2057 37.6849 121.9586 0.0000 0.0000 0.0000
# 4 0.0000 0.0000 0.0000 -135.5585 0.0000 0.0000
# 5 0.0000 0.0000 0.0000 0.0000 28.2224 0.0000
# 6 0.0000 0.0000 0.0000 0.0000 0.0000 9.5182
#
#
#
# Elastic Compliance Matrix: (Units=1/GPa)
#
#
# Indices 1 2 3 4 5 6 
#
# 1 0.013773 -0.002682 -0.003712 0.000000 0.000000 0.000000
# 2 -0.002682 0.010833 -0.002463 0.000000 0.000000 0.000000
# 3 -0.003712 -0.002463 0.010184 0.000000 0.000000 0.000000
# 4 0.000000 0.000000 0.000000 -0.007377 0.000000 0.000000
# 5 0.000000 0.000000 0.000000 0.000000 0.035433 0.000000
# 6 0.000000 0.000000 0.000000 0.000000 0.000000 0.105062
#
#
# Mechanical properties :
#
#
# Convention : Reuss Voigt Hill
#
# Bulk Modulus (GPa) = 58.55899 59.83515 59.19707
# Shear Modulus (GPa) = 26.13500 -5.50185 10.31657
#
# Velocity S-wave (km/s) = 3.42026 -1.56929 2.14889
# Velocity P-wave (km/s) = 6.46597 4.84757 5.71436
#
# Compressibility (1/GPa) = 0.01707680
#
# Stress axis : x y z
#
# Youngs Moduli (GPa) = 72.60500 92.30934 98.18954
#
# Poissons Ratio (x) = 0.24754 0.36447
# Poissons Ratio (y) = 0.19470 0.24188
# Poissons Ratio (z) = 0.26950 0.22739
#
# Static dielectric constant tensor:
#      x y z
#    x 1.869790 0.000000 0.000000 
#    y 0.000000 1.897000 0.000000 
#    z 0.000000 0.000000 1.844730 
# 
# From -- ./inp_files/23592.got.cif
#   From: 2010.05.17/outbox.cif.g08.bks.cpg/sg73_12_cif.got.tgz:23592.got - 2010.06.03 17:35:07.
