data_PCOD9531624
_publ_section_title
;
Structure prediction by ZEFSAII (Michael W. Deem and Ramdas Pophale) SiO2 
 PCOD9531624
Probable space group: I B C A 
;
_chemical_formula_sum "Si O2"
_cell_formula_units_Z 112
_cell_length_a 20.801983
_cell_length_b 11.850837
_cell_length_c 22.919692
_cell_angle_alpha 90.000000
_cell_angle_beta 90.000000
_cell_angle_gamma 90.000000
_cell_volume 5650.183324
_symmetry_space_group_name_H-M "I B C A "
_symmetry_group_IT_number 73
_symmetry_cell_setting 'orthorhombic'
loop_
_space_group_symop_operation_xyz
x,y,z
-x,1/2-y,z
x,-y,1/2-z
1/2-x,y,-z
-x,-y,-z
x,1/2+y,-z
-x,y,1/2+z
1/2+x,-y,z
1/2+x,1/2+y,1/2+z
1/2-x,-y,1/2+z
1/2+x,1/2-y,-z
-x,1/2+y,1/2-z
1/2-x,1/2-y,1/2-z
1/2+x,y,1/2-z
1/2-x,1/2+y,z
x,1/2-y,1/2+z
loop_
_atom_site_type_symbol
_atom_site_label
_atom_site_fract_x
_atom_site_fract_y
_atom_site_fract_z
Si Si1 0.239602 0.302021 0.685406
Si Si2 0.373233 0.858224 0.139497
Si Si3 0.957147 0.355808 0.540785
Si Si4 0.927087 0.338618 0.297117
Si Si5 0.874133 0.124986 0.352097
Si Si6 0.500000 0.250000 0.802692
Si Si7 0.499967 0.407316 0.085273
Si Si8 0.821277 0.500000 0.250000
O O1 0.250000 0.250000 0.750000
O O2 0.186178 0.220735 0.657039
O O3 0.303273 0.320021 0.646190
O O4 0.216671 0.427724 0.702327
O O5 0.387136 0.854739 0.069877
O O6 0.438617 0.803223 0.165150
O O7 0.368214 0.989996 0.159104
O O8 0.992104 0.461646 0.571014
O O9 0.000000 0.250000 0.556366
O O10 0.962187 0.363660 0.471113
O O11 0.907046 0.206923 0.304062
O O12 0.970460 0.345437 0.239772
O O13 0.865225 0.412754 0.285261
O O14 0.963303 0.378345 0.355277
O O15 0.925940 0.133689 0.405114
#
# Coordination Sequence:
#
# PCOD9531624 Si02
#       8
#    16  16  16  16  16   8  16   8
#     4  12  24  43  59  94 136 189 223 260 324 408
#     4  11  25  41  66 101 132 174 225 278 342 385
#     4  10  21  41  68  98 126 162 216 286 333 386
#     4  12  24  38  62  95 130 173 213 274 340 402
#     4  11  23  42  64  91 131 178 220 269 326 410
#     4  12  22  40  60 100 136 162 214 282 340 396
#     4  10  23  42  67  98 126 168 220 274 344 394
#     4  12  26  38  58  92 136 176 214 268 332 406
#
# _framework density 19.822364
#
# number of rings (size 3 to 8) (size 9 to 14) (size 15 to 20)
#    0.000    0.857    5.000    1.714    6.000    1.714 
#    0.000    0.000    0.000    3.429    0.000    0.000 
#    0.000    0.000    0.000    0.000    0.000    0.000 
#
# Total GULP energy -312142.955484 kJ/mol
# GULP energy per Si atom -5573.981348 kJ/mol
# Density = 1.977725 g / cm^3
# Si number density = 19.822364 Si / 1000 Ang^3
#
#
#
# Elastic Constant Matrix: (Units=GPa)
#
#
# Indices 1 2 3 4 5 6 
#
# 1 115.8651 30.5154 58.3400 0.0000 0.0000 0.0000
# 2 30.5154 89.5571 29.7863 0.0000 0.0000 0.0000
# 3 58.3400 29.7863 96.6061 0.0000 0.0000 0.0000
# 4 0.0000 0.0000 0.0000 28.6374 0.0000 0.0000
# 5 0.0000 0.0000 0.0000 0.0000 25.6441 0.0000
# 6 0.0000 0.0000 0.0000 0.0000 0.0000 35.3636
#
#
#
# Elastic Compliance Matrix: (Units=1/GPa)
#
#
# Indices 1 2 3 4 5 6 
#
# 1 0.012710 -0.001981 -0.007064 0.000000 0.000000 0.000000
# 2 -0.001981 0.012751 -0.002735 0.000000 0.000000 0.000000
# 3 -0.007064 -0.002735 0.015461 0.000000 0.000000 0.000000
# 4 0.000000 0.000000 0.000000 0.034919 0.000000 0.000000
# 5 0.000000 0.000000 0.000000 0.000000 0.038995 0.000000
# 6 0.000000 0.000000 0.000000 0.000000 0.000000 0.028278
#
#
# Mechanical properties :
#
#
# Convention : Reuss Voigt Hill
#
# Bulk Modulus (GPa) = 57.60362 59.92354 58.76358
# Shear Modulus (GPa) = 28.99204 30.15479 29.57342
#
# Velocity S-wave (km/s) = 3.82853 3.90455 3.86673
# Velocity P-wave (km/s) = 6.97614 7.11500 7.04592
#
# Compressibility (1/GPa) = 0.01736002
#
# Stress axis : x y z
#
# Youngs Moduli (GPa) = 78.68112 78.42684 64.67972
#
# Poissons Ratio (x) = 0.15536 0.45693
# Poissons Ratio (y) = 0.15587 0.17690
# Poissons Ratio (z) = 0.55584 0.21450
#
# Static dielectric constant tensor:
#      x y z
#    x 1.734800 0.000000 0.000000 
#    y 0.000000 1.788180 0.000000 
#    z 0.000000 0.000000 1.756740 
# 
# From -- ./inp_files/30162.got.cif
#   From: 2010.05.17/outbox.cif.g08.bks.cpg/sg73_16_cif.got.tgz:30162.got - 2010.06.03 17:35:07.
