data_PCOD9531704
_publ_section_title
;
Structure prediction by ZEFSAII (Michael W. Deem and Ramdas Pophale) SiO2 
 PCOD9531704
Probable space group: I B C A 
;
_chemical_formula_sum "Si O2"
_cell_formula_units_Z 48
_cell_length_a 5.494745
_cell_length_b 14.135691
_cell_length_c 26.988630
_cell_angle_alpha 90.000000
_cell_angle_beta 90.000000
_cell_angle_gamma 90.000000
_cell_volume 2096.261340
_symmetry_space_group_name_H-M "I B C A "
_symmetry_group_IT_number 73
_symmetry_cell_setting 'orthorhombic'
loop_
_space_group_symop_operation_xyz
x,y,z
-x,1/2-y,z
x,-y,1/2-z
1/2-x,y,-z
-x,-y,-z
x,1/2+y,-z
-x,y,1/2+z
1/2+x,-y,z
1/2+x,1/2+y,1/2+z
1/2-x,-y,1/2+z
1/2+x,1/2-y,-z
-x,1/2+y,1/2-z
1/2-x,1/2-y,1/2-z
1/2+x,y,1/2-z
1/2-x,1/2+y,z
x,1/2-y,1/2+z
loop_
_atom_site_type_symbol
_atom_site_label
_atom_site_fract_x
_atom_site_fract_y
_atom_site_fract_z
Si Si1 0.000000 0.250000 0.282584
Si Si2 0.250000 0.804258 0.000000
Si Si3 0.862468 0.469073 0.565385
Si Si4 0.072761 0.042093 0.822048
O O1 0.250000 0.250000 0.250000
O O2 0.013782 0.347350 0.314246
O O3 0.500000 0.750000 0.996933
O O4 0.266848 0.866404 0.050387
O O5 0.636243 0.529534 0.545118
O O6 0.902311 0.506384 0.621092
O O7 0.341495 0.016975 0.801727
#
# Coordination Sequence:
#
# PCOD9531704 Si02
#       4
#     8   8  16  16
#     4  12  26  44  74 110 138 182 242 292 358 440
#     4  12  24  40  66 108 140 184 248 298 348 420
#     4  10  21  43  66  93 142 186 229 288 352 418
#     4  10  23  45  68 103 142 185 227 290 358 425
#
# _framework density 22.897908999999999
#
# number of rings (size 3 to 8) (size 9 to 14) (size 15 to 20)
#    0.000    1.333    0.000    5.000    0.000    4.000 
#   36.000    0.000    0.000    0.000    0.000    0.000 
#    0.000    0.000    0.000    0.000    0.000    0.000 
#
# Total GULP energy -133656.348472 kJ/mol
# GULP energy per Si atom -5569.014520 kJ/mol
# Density = 2.284579 g / cm^3
# Si number density = 22.897909 Si / 1000 Ang^3
#
#
#
# Elastic Constant Matrix: (Units=GPa)
#
#
# Indices 1 2 3 4 5 6 
#
# 1 211.7857 57.5676 36.3630 0.0000 0.0000 0.0000
# 2 57.5676 172.2099 56.1560 0.0000 0.0000 0.0000
# 3 36.3630 56.1560 137.2011 0.0000 0.0000 0.0000
# 4 0.0000 0.0000 0.0000 126.7936 0.0000 0.0000
# 5 0.0000 0.0000 0.0000 0.0000 -16.1470 0.0000
# 6 0.0000 0.0000 0.0000 0.0000 0.0000 59.1984
#
#
#
# Elastic Compliance Matrix: (Units=1/GPa)
#
#
# Indices 1 2 3 4 5 6 
#
# 1 0.005265 -0.001506 -0.000779 0.000000 0.000000 0.000000
# 2 -0.001506 0.007132 -0.002520 0.000000 0.000000 0.000000
# 3 -0.000779 -0.002520 0.008526 0.000000 0.000000 0.000000
# 4 0.000000 0.000000 0.000000 0.007887 0.000000 0.000000
# 5 0.000000 0.000000 0.000000 0.000000 -0.061931 0.000000
# 6 0.000000 0.000000 0.000000 0.000000 0.000000 0.016892
#
#
# Mechanical properties :
#
#
# Convention : Reuss Voigt Hill
#
# Bulk Modulus (GPa) = 88.39012 91.26332 89.82672
# Shear Modulus (GPa) = -1756.03593 58.70968 -848.66312
#
# Velocity S-wave (km/s) = -27.72297 5.06906 -19.27261
# Velocity P-wave (km/s) = 31.40167 8.61416 21.35253
#
# Compressibility (1/GPa) = 0.01131348
#
# Stress axis : x y z
#
# Youngs Moduli (GPa) = 189.93889 140.21248 117.28212
#
# Poissons Ratio (x) = 0.21115 0.09136
# Poissons Ratio (y) = 0.28604 0.29555
# Poissons Ratio (z) = 0.14796 0.35333
#
# Static dielectric constant tensor:
#      x y z
#    x 1.434050 0.000000 0.000000 
#    y 0.000000 1.863220 0.000000 
#    z 0.000000 0.000000 1.539180 
# 
# From -- ./inp_files/577.got.cif
#   From: 2010.05.17/outbox.cif.g08.bks.cpg/sg73_1_cif.got.tgz:577.got - 2010.06.03 17:35:07.
