data_PCOD9531857
_publ_section_title
;
Structure prediction by ZEFSAII (Michael W. Deem and Ramdas Pophale) SiO2 
 PCOD9531857
Probable space group: I B C A 
;
_chemical_formula_sum "Si O2"
_cell_formula_units_Z 56
_cell_length_a 17.238165
_cell_length_b 14.216394
_cell_length_c 11.037765
_cell_angle_alpha 90.000000
_cell_angle_beta 90.000000
_cell_angle_gamma 90.000000
_cell_volume 2704.964863
_symmetry_space_group_name_H-M "I B C A "
_symmetry_group_IT_number 73
_symmetry_cell_setting 'orthorhombic'
loop_
_space_group_symop_operation_xyz
x,y,z
-x,1/2-y,z
x,-y,1/2-z
1/2-x,y,-z
-x,-y,-z
x,1/2+y,-z
-x,y,1/2+z
1/2+x,-y,z
1/2+x,1/2+y,1/2+z
1/2-x,-y,1/2+z
1/2+x,1/2-y,-z
-x,1/2+y,1/2-z
1/2-x,1/2-y,1/2-z
1/2+x,y,1/2-z
1/2-x,1/2+y,z
x,1/2-y,1/2+z
loop_
_atom_site_type_symbol
_atom_site_label
_atom_site_fract_x
_atom_site_fract_y
_atom_site_fract_z
Si Si1 0.710237 0.500000 0.250000
Si Si2 0.607095 0.151331 0.843470
Si Si3 0.353090 0.458791 0.085504
Si Si4 0.422211 0.365400 0.326499
O O1 0.655853 0.592059 0.255190
O O2 0.767711 0.516030 0.136391
O O3 0.616069 0.263477 0.843741
O O4 0.515080 0.137855 0.826849
O O5 0.634471 0.105513 0.969583
O O6 0.393330 0.404799 0.197879
O O7 0.395485 0.559147 0.073596
#
# Coordination Sequence:
#
# PCOD9531857 Si02
#       4
#     8  16  16  16
#     4  10  22  38  58  88 120 158 206 252 310 382
#     4  11  21  38  64  89 121 167 211 264 321 371
#     4  10  22  40  57  88 128 162 207 264 320 375
#     4   9  22  38  60  89 120 162 215 260 309 385
#
# _framework density 20.702673000000001
#
# number of rings (size 3 to 8) (size 9 to 14) (size 15 to 20)
#    0.000    2.286    0.000    3.429    0.000   11.429 
#    0.000    5.714    0.000    0.000    0.000    0.000 
#    0.000    0.000    0.000    0.000    0.000    0.000 
#
# Total GULP energy -156245.600243 kJ/mol
# GULP energy per Si atom -5580.200009 kJ/mol
# Density = 2.065555 g / cm^3
# Si number density = 20.702673 Si / 1000 Ang^3
#
#
#
# Elastic Constant Matrix: (Units=GPa)
#
#
# Indices 1 2 3 4 5 6 
#
# 1 95.7786 74.5052 33.3062 0.0000 0.0000 0.0000
# 2 74.5052 207.0305 52.0761 0.0000 0.0000 0.0000
# 3 33.3062 52.0761 97.6899 0.0000 0.0000 0.0000
# 4 0.0000 0.0000 0.0000 27.8999 0.0000 0.0000
# 5 0.0000 0.0000 0.0000 0.0000 15.6325 0.0000
# 6 0.0000 0.0000 0.0000 0.0000 0.0000 -54.5314
#
#
#
# Elastic Compliance Matrix: (Units=1/GPa)
#
#
# Indices 1 2 3 4 5 6 
#
# 1 0.015047 -0.004763 -0.002591 0.000000 0.000000 0.000000
# 2 -0.004763 0.007086 -0.002153 0.000000 0.000000 0.000000
# 3 -0.002591 -0.002153 0.012268 0.000000 0.000000 0.000000
# 4 0.000000 0.000000 0.000000 0.035842 0.000000 0.000000
# 5 0.000000 0.000000 0.000000 0.000000 0.063969 0.000000
# 6 0.000000 0.000000 0.000000 0.000000 0.000000 -0.018338
#
#
# Mechanical properties :
#
#
# Convention : Reuss Voigt Hill
#
# Bulk Modulus (GPa) = 64.99595 80.03045 72.51320
# Shear Modulus (GPa) = 35.70958 13.84097 24.77528
#
# Velocity S-wave (km/s) = 4.15767 2.58846 3.46312
# Velocity P-wave (km/s) = 7.38318 6.90467 7.14793
#
# Compressibility (1/GPa) = 0.01538557
#
# Stress axis : x y z
#
# Youngs Moduli (GPa) = 66.45811 141.12158 81.51462
#
# Poissons Ratio (x) = 0.67221 0.21120
# Poissons Ratio (y) = 0.31656 0.17553
# Poissons Ratio (z) = 0.17219 0.30389
#
# Static dielectric constant tensor:
#      x y z
#    x 1.765380 0.000000 0.000000 
#    y 0.000000 1.728330 0.000000 
#    z 0.000000 0.000000 1.772300 
# 
# From -- ./inp_files/10249.got.cif
#   From: 2010.05.17/outbox.cif.g08.bks.cpg/sg73_6_cif.got.tgz:10249.got - 2010.06.03 17:35:07.
