data_PCOD9531397
_publ_section_title
;
Structure prediction by ZEFSAII (Michael W. Deem and Ramdas Pophale) SiO2 
 PCOD9531397
Probable space group: I B C A 
;
_chemical_formula_sum "Si O2"
_cell_formula_units_Z 112
_cell_length_a 5.452290
_cell_length_b 28.882218
_cell_length_c 30.397609
_cell_angle_alpha 90.000000
_cell_angle_beta 90.000000
_cell_angle_gamma 90.000000
_cell_volume 4786.840022
_symmetry_space_group_name_H-M "I B C A "
_symmetry_group_IT_number 73
_symmetry_cell_setting 'orthorhombic'
loop_
_space_group_symop_operation_xyz
x,y,z
-x,1/2-y,z
x,-y,1/2-z
1/2-x,y,-z
-x,-y,-z
x,1/2+y,-z
-x,y,1/2+z
1/2+x,-y,z
1/2+x,1/2+y,1/2+z
1/2-x,-y,1/2+z
1/2+x,1/2-y,-z
-x,1/2+y,1/2-z
1/2-x,1/2-y,1/2-z
1/2+x,y,1/2-z
1/2-x,1/2+y,z
x,1/2-y,1/2+z
loop_
_atom_site_type_symbol
_atom_site_label
_atom_site_fract_x
_atom_site_fract_y
_atom_site_fract_z
Si Si1 0.150516 0.819220 0.731029
Si Si2 0.183222 0.074974 0.735003
Si Si3 0.317137 0.028422 0.649206
Si Si4 0.999868 0.083265 0.001505
Si Si5 0.251571 0.721714 0.137818
Si Si6 0.561678 0.860511 0.091396
Si Si7 0.938971 0.606985 0.094877
O O1 0.383336 0.799390 0.757514
O O2 0.142480 0.873088 0.746705
O O3 0.205685 0.811263 0.680039
O O4 0.410049 0.053594 0.762454
O O5 0.283755 0.068458 0.685955
O O6 0.332994 0.056048 0.603615
O O7 0.575433 0.002497 0.653472
O O8 0.016617 0.116355 0.043970
O O9 0.750000 0.055779 0.000000
O O10 0.984849 0.113756 0.956974
O O11 0.250000 0.055712 0.000000
O O12 0.500000 0.750000 0.147680
O O13 0.322786 0.690117 0.095930
O O14 0.000000 0.750000 0.131293
O O15 0.284995 0.860651 0.111157
O O16 0.783988 0.890008 0.113879
#
# Coordination Sequence:
#
# PCOD9531397 Si02
#       7
#    16  16  16  16  16  16  16
#     4  10  23  40  63  87 124 171 225 264 316 394
#     4  10  23  40  63  87 123 171 224 265 313 394
#     4  12  26  41  63  98 135 165 209 278 345 381
#     4   8  16  34  60  95 115 154 214 259 291 359
#     4  12  26  41  63  99 136 167 210 276 343 382
#     4  10  21  38  69  92 127 168 221 259 307 395
#     4  10  21  38  69  92 128 168 221 260 310 396
#
# _framework density 23.397480999999999
#
# number of rings (size 3 to 8) (size 9 to 14) (size 15 to 20)
#    0.000    1.714    0.000    3.429    8.000    3.429 
#    0.000    0.000    0.000   38.571    0.000    0.000 
#    0.000    0.000    0.000    0.000    0.000    0.000 
#
# Total GULP energy -311889.001978 kJ/mol
# GULP energy per Si atom -5569.446464 kJ/mol
# Density = 2.334423 g / cm^3
# Si number density = 23.397481 Si / 1000 Ang^3
#
#
#
# Elastic Constant Matrix: (Units=GPa)
#
#
# Indices 1 2 3 4 5 6 
#
# 1 252.5376 31.3485 17.7570 0.0000 0.0000 0.0000
# 2 31.3485 84.0763 35.8990 0.0000 0.0000 0.0000
# 3 17.7570 35.8990 80.6635 0.0000 0.0000 0.0000
# 4 0.0000 0.0000 0.0000 -1.1061 0.0000 0.0000
# 5 0.0000 0.0000 0.0000 0.0000 22.8118 0.0000
# 6 0.0000 0.0000 0.0000 0.0000 0.0000 19.9675
#
#
#
# Elastic Compliance Matrix: (Units=1/GPa)
#
#
# Indices 1 2 3 4 5 6 
#
# 1 0.004157 -0.001431 -0.000278 0.000000 0.000000 0.000000
# 2 -0.001431 0.015177 -0.006439 0.000000 0.000000 0.000000
# 3 -0.000278 -0.006439 0.015324 0.000000 0.000000 0.000000
# 4 0.000000 0.000000 0.000000 -0.904077 0.000000 0.000000
# 5 0.000000 0.000000 0.000000 0.000000 0.043837 0.000000
# 6 0.000000 0.000000 0.000000 0.000000 0.000000 0.050081
#
#
# Mechanical properties :
#
#
# Convention : Reuss Voigt Hill
#
# Bulk Modulus (GPa) = 54.46395 65.25403 59.85899
# Shear Modulus (GPa) = -6.63938 30.48616 11.92339
#
# Velocity S-wave (km/s) = -1.68636 3.61358 2.25988
# Velocity P-wave (km/s) = 4.42001 6.73502 5.69636
#
# Compressibility (1/GPa) = 0.01836077
#
# Stress axis : x y z
#
# Youngs Moduli (GPa) = 240.55652 65.88861 65.25592
#
# Poissons Ratio (x) = 0.09430 0.01815
# Poissons Ratio (y) = 0.34429 0.42021
# Poissons Ratio (z) = 0.06691 0.42429
#
# Static dielectric constant tensor:
#      x y z
#    x 2.039160 0.000000 0.000000 
#    y 0.000000 2.220140 0.000000 
#    z 0.000000 0.000000 1.936050 
# 
# From -- ./inp_files/33359.got.cif
#   From: 2010.05.17/outbox.cif.g08.bks.cpg/sg73_17_cif.got.tgz:33359.got - 2010.06.03 17:35:07.
