data_PCOD9531293
_publ_section_title
;
Structure prediction by ZEFSAII (Michael W. Deem and Ramdas Pophale) SiO2 
 PCOD9531293
Probable space group: I B C A 
;
_chemical_formula_sum "Si O2"
_cell_formula_units_Z 112
_cell_length_a 10.709734
_cell_length_b 29.473319
_cell_length_c 17.203303
_cell_angle_alpha 90.000000
_cell_angle_beta 90.000000
_cell_angle_gamma 90.000000
_cell_volume 5430.246790
_symmetry_space_group_name_H-M "I B C A "
_symmetry_group_IT_number 73
_symmetry_cell_setting 'orthorhombic'
loop_
_space_group_symop_operation_xyz
x,y,z
-x,1/2-y,z
x,-y,1/2-z
1/2-x,y,-z
-x,-y,-z
x,1/2+y,-z
-x,y,1/2+z
1/2+x,-y,z
1/2+x,1/2+y,1/2+z
1/2-x,-y,1/2+z
1/2+x,1/2-y,-z
-x,1/2+y,1/2-z
1/2-x,1/2-y,1/2-z
1/2+x,y,1/2-z
1/2-x,1/2+y,z
x,1/2-y,1/2+z
loop_
_atom_site_type_symbol
_atom_site_label
_atom_site_fract_x
_atom_site_fract_y
_atom_site_fract_z
Si Si1 0.249541 0.683673 0.172987
Si Si2 0.483037 0.522661 0.916023
Si Si3 0.371225 0.119862 0.055410
Si Si4 0.152641 0.451830 0.790032
Si Si5 0.000442 0.148881 0.092525
Si Si6 0.130374 0.224890 0.674422
Si Si7 0.920028 0.564547 0.814960
O O1 0.150802 0.653153 0.127289
O O2 0.379405 0.658466 0.149348
O O3 0.198955 0.694921 0.259244
O O4 0.279510 0.735088 0.145277
O O5 0.403007 0.568443 0.921898
O O6 0.614612 0.538480 0.878788
O O7 0.428847 0.485264 0.855395
O O8 0.500000 0.500000 0.000000
O O9 0.250000 0.117919 0.000000
O O10 0.468972 0.142665 0.997244
O O11 0.174460 0.500000 0.750000
O O12 0.282724 0.426430 0.781592
O O13 0.030496 0.432009 0.748040
O O14 0.910907 0.190800 0.107957
O O15 0.945738 0.101437 0.120117
O O16 0.000000 0.250000 0.702689
#
# Coordination Sequence:
#
# PCOD9531293 Si02
#       7
#    16  16  16  16  16  16  16
#     4   9  20  39  65  91 123 166 217 264 337 403
#     4  11  23  40  60  92 135 179 218 278 327 399
#     4  10  22  39  62  93 126 178 224 258 332 407
#     4  10  24  41  61  90 125 174 232 274 334 388
#     4  10  21  37  61  95 128 164 212 273 329 395
#     4   9  19  39  66  95 123 158 212 281 337 389
#     4  11  24  41  64  94 133 175 223 277 331 393
#
# _framework density 20.625212999999999
#
# number of rings (size 3 to 8) (size 9 to 14) (size 15 to 20)
#    0.000    2.000    1.429    1.286    6.000    2.286 
#    0.000    5.000    0.000    3.429    0.000    0.000 
#    0.000    0.000    0.000    0.000    0.000    0.000 
#
# Total GULP energy -312287.671936 kJ/mol
# GULP energy per Si atom -5576.565570 kJ/mol
# Density = 2.057827 g / cm^3
# Si number density = 20.625213 Si / 1000 Ang^3
#
#
#
# Elastic Constant Matrix: (Units=GPa)
#
#
# Indices 1 2 3 4 5 6 
#
# 1 72.8601 29.3477 27.6007 0.0001 0.0000 0.0000
# 2 29.3477 122.1436 50.7155 0.0000 0.0000 0.0000
# 3 27.6007 50.7155 66.4621 0.0003 0.0000 0.0000
# 4 0.0001 0.0000 0.0003 30.1460 0.0000 0.0000
# 5 0.0000 0.0000 0.0000 0.0000 21.8489 0.0000
# 6 0.0000 0.0000 0.0000 0.0000 0.0000 27.1483
#
#
#
# Elastic Compliance Matrix: (Units=1/GPa)
#
#
# Indices 1 2 3 4 5 6 
#
# 1 0.016508 -0.001639 -0.005605 0.000000 0.000000 0.000000
# 2 -0.001639 0.012147 -0.008588 0.000000 0.000000 0.000000
# 3 -0.005605 -0.008588 0.023927 0.000000 0.000000 0.000000
# 4 0.000000 0.000000 0.000000 0.033172 0.000000 0.000000
# 5 0.000000 0.000000 0.000000 0.000000 0.045769 0.000000
# 6 0.000000 0.000000 0.000000 0.000000 0.000000 0.036835
#
#
# Mechanical properties :
#
#
# Convention : Reuss Voigt Hill
#
# Bulk Modulus (GPa) = 47.80592 52.97708 50.39150
# Shear Modulus (GPa) = 24.15515 26.08210 25.11863
#
# Velocity S-wave (km/s) = 3.42591 3.55994 3.49357
# Velocity P-wave (km/s) = 6.23521 6.52985 6.38423
#
# Compressibility (1/GPa) = 0.02091791
#
# Stress axis : x y z
#
# Youngs Moduli (GPa) = 60.57509 82.32555 41.79348
#
# Poissons Ratio (x) = 0.13496 0.23424
# Poissons Ratio (y) = 0.09930 0.35893
# Poissons Ratio (z) = 0.33951 0.70703
#
# Static dielectric constant tensor:
#      x y z
#    x 1.823000 0.000000 0.000000 
#    y 0.000000 1.721080 0.000000 
#    z 0.000000 0.000000 1.733670 
# 
# From -- ./inp_files/16324.got.cif
#   From: 2010.05.17/outbox.cif.g08.bks.cpg/sg73_9_cif.got.tgz:16324.got - 2010.06.03 17:35:07.
