data_PCOD9531805
_publ_section_title
;
Structure prediction by ZEFSAII (Michael W. Deem and Ramdas Pophale) SiO2 
 PCOD9531805
Probable space group: I B C A 
;
_chemical_formula_sum "Si O2"
_cell_formula_units_Z 96
_cell_length_a 24.369766
_cell_length_b 16.911273
_cell_length_c 10.685891
_cell_angle_alpha 90.000000
_cell_angle_beta 90.000000
_cell_angle_gamma 90.000000
_cell_volume 4403.909640
_symmetry_space_group_name_H-M "I B C A "
_symmetry_group_IT_number 73
_symmetry_cell_setting 'orthorhombic'
loop_
_space_group_symop_operation_xyz
x,y,z
-x,1/2-y,z
x,-y,1/2-z
1/2-x,y,-z
-x,-y,-z
x,1/2+y,-z
-x,y,1/2+z
1/2+x,-y,z
1/2+x,1/2+y,1/2+z
1/2-x,-y,1/2+z
1/2+x,1/2-y,-z
-x,1/2+y,1/2-z
1/2-x,1/2-y,1/2-z
1/2+x,y,1/2-z
1/2-x,1/2+y,z
x,1/2-y,1/2+z
loop_
_atom_site_type_symbol
_atom_site_label
_atom_site_fract_x
_atom_site_fract_y
_atom_site_fract_z
Si Si1 0.500000 0.750000 0.986434
Si Si2 0.101014 0.475829 0.481188
Si Si3 0.942673 0.000000 0.750000
Si Si4 0.884492 0.789631 0.052922
Si Si5 0.032251 0.604320 0.343333
Si Si6 0.352676 0.808152 0.190067
Si Si7 0.786179 0.544050 0.875379
O O1 0.494509 0.828197 0.071017
O O2 0.556471 0.752484 0.912846
O O3 0.093941 0.497731 0.626274
O O4 0.103955 0.381882 0.469276
O O5 0.052010 0.524512 0.414481
O O6 0.156339 0.504393 0.415192
O O7 0.983932 0.075397 0.747441
O O8 0.845661 0.773882 0.171175
O O9 0.863052 0.750961 0.924624
O O10 0.089927 0.641573 0.298597
O O11 0.303215 0.866841 0.159055
O O12 0.764904 0.500000 0.750000
O O13 0.750000 0.539962 0.000000
#
# Coordination Sequence:
#
# PCOD9531805 Si02
#       7
#     8  16   8  16  16  16  16
#     4  10  22  36  56  94 146 202 248 274 346 418
#     4  11  24  41  69 102 141 187 242 300 359 431
#     4  12  22  34  66 102 138 186 246 282 336 430
#     4  11  22  42  64  97 146 191 233 288 352 430
#     4  10  22  38  58  95 143 193 232 291 339 409
#     4  10  24  44  68  97 143 184 233 293 361 424
#     4  11  25  51  79 102 130 181 239 313 384 447
#
# _framework density 21.798812000000002
#
# number of rings (size 3 to 8) (size 9 to 14) (size 15 to 20)
#    0.000    1.333    3.333    1.500    5.833    6.667 
#    0.000    1.667    0.000    0.000    0.000    0.000 
#    0.000    0.000    0.000    0.000    0.000    0.000 
#
# Total GULP energy -268112.627920 kJ/mol
# GULP energy per Si atom -5585.679748 kJ/mol
# Density = 2.174920 g / cm^3
# Si number density = 21.798812 Si / 1000 Ang^3
#
#
#
# Elastic Constant Matrix: (Units=GPa)
#
#
# Indices 1 2 3 4 5 6 
#
# 1 39.8155 20.1472 31.2715 0.0000 0.0000 0.0000
# 2 20.1472 119.6641 63.7781 0.0000 0.0000 0.0000
# 3 31.2715 63.7781 182.4155 0.0000 0.0000 0.0000
# 4 0.0000 0.0000 0.0000 23.4883 0.0000 0.0000
# 5 0.0000 0.0000 0.0000 0.0000 28.2528 0.0000
# 6 0.0000 0.0000 0.0000 0.0000 0.0000 10.7419
#
#
#
# Elastic Compliance Matrix: (Units=1/GPa)
#
#
# Indices 1 2 3 4 5 6 
#
# 1 0.029777 -0.002818 -0.004120 0.000000 0.000000 0.000000
# 2 -0.002818 0.010537 -0.003201 0.000000 0.000000 0.000000
# 3 -0.004120 -0.003201 0.007307 0.000000 0.000000 0.000000
# 4 0.000000 0.000000 0.000000 0.042574 0.000000 0.000000
# 5 0.000000 0.000000 0.000000 0.000000 0.035395 0.000000
# 6 0.000000 0.000000 0.000000 0.000000 0.000000 0.093093
#
#
# Mechanical properties :
#
#
# Convention : Reuss Voigt Hill
#
# Bulk Modulus (GPa) = 36.56975 63.58763 50.07869
# Shear Modulus (GPa) = 20.15509 27.60981 23.88245
#
# Velocity S-wave (km/s) = 3.04402 3.56276 3.31355
# Velocity P-wave (km/s) = 5.40066 6.79396 6.13698
#
# Compressibility (1/GPa) = 0.02734500
#
# Stress axis : x y z
#
# Youngs Moduli (GPa) = 33.58273 94.90142 136.84770
#
# Poissons Ratio (x) = 0.26742 0.56375
# Poissons Ratio (y) = 0.09463 0.43806
# Poissons Ratio (z) = 0.13834 0.30379
#
# Static dielectric constant tensor:
#      x y z
#    x 1.791650 0.000000 0.000000 
#    y 0.000000 1.832330 0.000000 
#    z 0.000000 0.000000 1.879200 
# 
# From -- ./inp_files/13665.got.cif
#   From: 2010.05.17/outbox.cif.g08.bks.cpg/sg73_7_cif.got.tgz:13665.got - 2010.06.03 17:35:07.
