data_PCOD9531909
_publ_section_title
;
Structure prediction by ZEFSAII (Michael W. Deem and Ramdas Pophale) SiO2 
 PCOD9531909
Probable space group: I B C A 
;
_chemical_formula_sum "Si O2"
_cell_formula_units_Z 96
_cell_length_a 21.274175
_cell_length_b 26.044967
_cell_length_c 8.578363
_cell_angle_alpha 90.000000
_cell_angle_beta 90.000000
_cell_angle_gamma 90.000000
_cell_volume 4753.143857
_symmetry_space_group_name_H-M "I B C A "
_symmetry_group_IT_number 73
_symmetry_cell_setting 'orthorhombic'
loop_
_space_group_symop_operation_xyz
x,y,z
-x,1/2-y,z
x,-y,1/2-z
1/2-x,y,-z
-x,-y,-z
x,1/2+y,-z
-x,y,1/2+z
1/2+x,-y,z
1/2+x,1/2+y,1/2+z
1/2-x,-y,1/2+z
1/2+x,1/2-y,-z
-x,1/2+y,1/2-z
1/2-x,1/2-y,1/2-z
1/2+x,y,1/2-z
1/2-x,1/2+y,z
x,1/2-y,1/2+z
loop_
_atom_site_type_symbol
_atom_site_label
_atom_site_fract_x
_atom_site_fract_y
_atom_site_fract_z
Si Si1 0.531574 0.305465 0.089153
Si Si2 0.250000 0.920532 0.500000
Si Si3 0.384282 0.882924 0.561900
Si Si4 0.285548 0.500000 0.250000
Si Si5 0.561807 0.637852 0.114006
Si Si6 0.885407 0.568177 0.100265
Si Si7 0.973584 0.949171 0.160716
O O1 0.500000 0.250000 0.078959
O O2 0.584341 0.327332 0.970277
O O3 0.561246 0.316804 0.259178
O O4 0.473963 0.342270 0.038177
O O5 0.313116 0.887227 0.503228
O O6 0.250811 0.956876 0.346449
O O7 0.382630 0.899261 0.740758
O O8 0.424939 0.924944 0.463030
O O9 0.331868 0.473871 0.122311
O O10 0.523331 0.594804 0.207312
O O11 0.620605 0.606287 0.047067
O O12 0.955494 0.543052 0.096910
O O13 0.951698 0.000000 0.250000
#
# Coordination Sequence:
#
# PCOD9531909 Si02
#       7
#    16   8  16   8  16  16  16
#     4  11  21  37  59  86 117 150 199 266 338 380
#     4  10  24  40  54  84 128 182 226 246 290 358
#     4  10  22  39  56  86 128 163 210 254 302 378
#     4  10  24  36  58  82 124 184 226 242 286 370
#     4  11  21  34  52  89 123 148 191 249 333 375
#     4  11  19  35  53  83 125 155 203 255 307 354
#     4  11  21  31  56  86 126 159 199 250 315 364
#
# _framework density 20.197158999999999
#
# number of rings (size 3 to 8) (size 9 to 14) (size 15 to 20)
#    0.000    1.333    5.833    0.500    5.833    2.667 
#    0.000    0.833    0.000    0.000    0.000   30.333 
#    0.000    0.000    0.000    0.000    0.000    0.000 
#
# Total GULP energy -267614.545061 kJ/mol
# GULP energy per Si atom -5575.303022 kJ/mol
# Density = 2.015119 g / cm^3
# Si number density = 20.197159 Si / 1000 Ang^3
#
#
#
# Elastic Constant Matrix: (Units=GPa)
#
#
# Indices 1 2 3 4 5 6 
#
# 1 66.1858 18.0517 -6.9154 0.0000 0.0000 0.0000
# 2 18.0517 105.8423 16.7324 0.0000 0.0000 0.0000
# 3 -6.9154 16.7324 62.9340 0.0000 0.0000 0.0000
# 4 0.0000 0.0000 0.0000 24.8132 0.0000 0.0000
# 5 0.0000 0.0000 0.0000 0.0000 19.9805 0.0000
# 6 0.0000 0.0000 0.0000 0.0000 0.0000 26.5629
#
#
#
# Elastic Compliance Matrix: (Units=1/GPa)
#
#
# Indices 1 2 3 4 5 6 
#
# 1 0.016254 -0.003188 0.002634 0.000000 0.000000 0.000000
# 2 -0.003188 0.010488 -0.003139 0.000000 0.000000 0.000000
# 3 0.002634 -0.003139 0.017014 0.000000 0.000000 0.000000
# 4 0.000000 0.000000 0.000000 0.040301 0.000000 0.000000
# 5 0.000000 0.000000 0.000000 0.000000 0.050049 0.000000
# 6 0.000000 0.000000 0.000000 0.000000 0.000000 0.037647
#
#
# Mechanical properties :
#
#
# Convention : Reuss Voigt Hill
#
# Bulk Modulus (GPa) = 27.49648 32.29994 29.89821
# Shear Modulus (GPa) = 26.14219 28.07756 27.10988
#
# Velocity S-wave (km/s) = 3.60161 3.73255 3.66766
# Velocity P-wave (km/s) = 5.56229 5.88242 5.72459
#
# Compressibility (1/GPa) = 0.03636829
#
# Stress axis : x y z
#
# Youngs Moduli (GPa) = 61.52400 95.34668 58.77654
#
# Poissons Ratio (x) = 0.30401 -0.15480
# Poissons Ratio (y) = 0.19617 0.18449
# Poissons Ratio (z) = -0.16204 0.29928
#
# Static dielectric constant tensor:
#      x y z
#    x 1.720610 0.000000 0.000000 
#    y 0.000000 1.787620 0.000000 
#    z 0.000000 0.000000 1.795730 
# 
# From -- ./inp_files/7277.got.cif
#   From: 2010.05.17/outbox.cif.g08.bks.cpg/sg73_4_cif.got.tgz:7277.got - 2010.06.03 17:35:07.
