data_PCOD9531232
_publ_section_title
;
Structure prediction by ZEFSAII (Michael W. Deem and Ramdas Pophale) SiO2 
 PCOD9531232
Probable space group: I B C A 
;
_chemical_formula_sum "Si O2"
_cell_formula_units_Z 96
_cell_length_a 22.577646
_cell_length_b 23.506162
_cell_length_c 9.506145
_cell_angle_alpha 90.000000
_cell_angle_beta 90.000000
_cell_angle_gamma 90.000000
_cell_volume 5045.042379
_symmetry_space_group_name_H-M "I B C A "
_symmetry_group_IT_number 73
_symmetry_cell_setting 'orthorhombic'
loop_
_space_group_symop_operation_xyz
x,y,z
-x,1/2-y,z
x,-y,1/2-z
1/2-x,y,-z
-x,-y,-z
x,1/2+y,-z
-x,y,1/2+z
1/2+x,-y,z
1/2+x,1/2+y,1/2+z
1/2-x,-y,1/2+z
1/2+x,1/2-y,-z
-x,1/2+y,1/2-z
1/2-x,1/2-y,1/2-z
1/2+x,y,1/2-z
1/2-x,1/2+y,z
x,1/2-y,1/2+z
loop_
_atom_site_type_symbol
_atom_site_label
_atom_site_fract_x
_atom_site_fract_y
_atom_site_fract_z
Si Si1 0.370056 0.114280 0.907627
Si Si2 0.061423 0.501589 0.586564
Si Si3 0.787085 0.711191 0.358551
Si Si4 0.072613 0.127531 0.385812
Si Si5 0.555665 0.678600 0.386950
Si Si6 0.592360 0.276542 0.412686
O O1 0.389004 0.048009 0.929272
O O2 0.308659 0.143950 0.853845
O O3 0.413700 0.132364 0.779395
O O4 0.388418 0.142778 0.055683
O O5 0.043077 0.500000 0.750000
O O6 0.087612 0.564283 0.564383
O O7 0.000000 0.500000 0.500000
O O8 0.750000 0.715056 0.500000
O O9 0.750000 0.750000 0.250000
O O10 0.849163 0.744022 0.366110
O O11 0.106958 0.172482 0.480707
O O12 0.003331 0.141703 0.406362
O O13 0.561168 0.699736 0.227148
O O14 0.557007 0.731949 0.491651
#
# Coordination Sequence:
#
# PCOD9531232 Si02
#       6
#    16  16  16  16  16  16
#     4  10  21  38  58  86 115 155 202 245 294 364
#     4  10  21  36  58  85 121 160 196 233 289 367
#     4  11  22  40  61  81 112 151 205 260 311 348
#     4  11  21  35  56  83 124 156 188 233 300 372
#     4  11  21  35  54  83 126 155 188 234 307 379
#     4  11  23  35  55  88 115 152 198 248 300 367
#
# _framework density 19.028580999999999
#
# number of rings (size 3 to 8) (size 9 to 14) (size 15 to 20)
#    0.000    1.333    1.667    6.500    2.333    2.667 
#    0.000    0.000    0.000    7.000    0.000    0.000 
#    0.000    0.000    0.000    0.000    0.000    0.000 
#
# Total GULP energy -267237.503661 kJ/mol
# GULP energy per Si atom -5567.447993 kJ/mol
# Density = 1.898527 g / cm^3
# Si number density = 19.028581 Si / 1000 Ang^3
#
#
#
# Elastic Constant Matrix: (Units=GPa)
#
#
# Indices 1 2 3 4 5 6 
#
# 1 53.0135 32.9986 0.9792 0.0000 0.0000 0.0000
# 2 32.9986 155.4388 41.0868 0.0000 0.0000 0.0000
# 3 0.9792 41.0868 72.6743 0.0000 0.0000 0.0000
# 4 0.0000 0.0000 0.0000 23.3173 0.0000 0.0000
# 5 0.0000 0.0000 0.0000 0.0000 27.5877 0.0000
# 6 0.0000 0.0000 0.0000 0.0000 0.0000 25.1730
#
#
#
# Elastic Compliance Matrix: (Units=1/GPa)
#
#
# Indices 1 2 3 4 5 6 
#
# 1 0.022203 -0.005449 0.002781 0.000000 0.000000 0.000000
# 2 -0.005449 0.008901 -0.004959 0.000000 0.000000 0.000000
# 3 0.002781 -0.004959 0.016526 0.000000 0.000000 0.000000
# 4 0.000000 0.000000 0.000000 0.042887 0.000000 0.000000
# 5 0.000000 0.000000 0.000000 0.000000 0.036248 0.000000
# 6 0.000000 0.000000 0.000000 0.000000 0.000000 0.039725
#
#
# Mechanical properties :
#
#
# Convention : Reuss Voigt Hill
#
# Bulk Modulus (GPa) = 30.88532 47.91731 39.40132
# Shear Modulus (GPa) = 25.96928 28.95305 27.46116
#
# Velocity S-wave (km/s) = 3.69826 3.90494 3.80301
# Velocity P-wave (km/s) = 5.87388 6.75040 6.32733
#
# Compressibility (1/GPa) = 0.03237784
#
# Stress axis : x y z
#
# Youngs Moduli (GPa) = 45.03819 112.34846 60.51073
#
# Poissons Ratio (x) = 0.61217 -0.16830
# Poissons Ratio (y) = 0.24540 0.30006
# Poissons Ratio (z) = -0.12527 0.55711
#
# Static dielectric constant tensor:
#      x y z
#    x 1.702830 0.000000 0.000000 
#    y 0.000000 1.759920 0.000000 
#    z 0.000000 0.000000 1.667630 
# 
# From -- ./inp_files/7169.got.cif
#   From: 2010.05.17/outbox.cif.g08.bks.cpg/sg73_4_cif.got.tgz:7169.got - 2010.06.03 17:35:07.
