data_PCOD9531830
_publ_section_title
;
Structure prediction by ZEFSAII (Michael W. Deem and Ramdas Pophale) SiO2 
 PCOD9531830
Probable space group: I B C A 
;
_chemical_formula_sum "Si O2"
_cell_formula_units_Z 80
_cell_length_a 26.635587
_cell_length_b 8.659991
_cell_length_c 17.499693
_cell_angle_alpha 90.000000
_cell_angle_beta 90.000000
_cell_angle_gamma 90.000000
_cell_volume 4036.548201
_symmetry_space_group_name_H-M "I B C A "
_symmetry_group_IT_number 73
_symmetry_cell_setting 'orthorhombic'
loop_
_space_group_symop_operation_xyz
x,y,z
-x,1/2-y,z
x,-y,1/2-z
1/2-x,y,-z
-x,-y,-z
x,1/2+y,-z
-x,y,1/2+z
1/2+x,-y,z
1/2+x,1/2+y,1/2+z
1/2-x,-y,1/2+z
1/2+x,1/2-y,-z
-x,1/2+y,1/2-z
1/2-x,1/2-y,1/2-z
1/2+x,y,1/2-z
1/2-x,1/2+y,z
x,1/2-y,1/2+z
loop_
_atom_site_type_symbol
_atom_site_label
_atom_site_fract_x
_atom_site_fract_y
_atom_site_fract_z
Si Si1 0.598295 0.307268 0.056315
Si Si2 0.542274 0.994725 0.064612
Si Si3 0.750000 0.955754 0.000000
Si Si4 0.322034 0.288406 0.944667
Si Si5 0.395880 0.084109 0.322582
Si Si6 0.000000 0.750000 0.319236
O O1 0.594339 0.442691 0.118085
O O2 0.561874 0.166440 0.079043
O O3 0.583462 0.390997 0.977191
O O4 0.649697 0.229553 0.027239
O O5 0.520831 0.897136 0.133896
O O6 0.500000 0.000000 0.000000
O O7 0.716712 0.851895 0.056497
O O8 0.788497 0.059185 0.047741
O O9 0.359517 0.307372 0.873070
O O10 0.446368 0.173591 0.291952
O O11 0.371716 0.000000 0.250000
#
# Coordination Sequence:
#
# PCOD9531830 Si02
#       6
#    16  16   8  16  16   8
#     4  12  20  36  64  89 125 162 218 267 323 381
#     4  12  18  31  62  94 113 160 228 276 306 367
#     4  10  22  36  76 102 122 154 228 280 322 396
#     4  11  20  41  67 100 124 164 213 275 325 392
#     4  12  27  43  61  94 141 178 215 274 335 393
#     4  12  24  38  60  90 130 180 222 264 322 398
#
# _framework density 19.818912999999998
#
# number of rings (size 3 to 8) (size 9 to 14) (size 15 to 20)
#    0.000    0.400   10.000    0.000    0.000    1.600 
#    0.000    1.000    0.000    0.000    0.000    0.000 
#    0.000    0.000    0.000    0.000    0.000    0.000 
#
# Total GULP energy -222692.193310 kJ/mol
# GULP energy per Si atom -5567.304833 kJ/mol
# Density = 1.977380 g / cm^3
# Si number density = 19.818913 Si / 1000 Ang^3
#
#
#
# Elastic Constant Matrix: (Units=GPa)
#
#
# Indices 1 2 3 4 5 6 
#
# 1 78.4103 40.2218 21.7998 0.0000 0.0000 0.0000
# 2 40.2218 82.7035 -5.8308 0.0000 0.0000 0.0000
# 3 21.7998 -5.8308 38.8539 0.0000 0.0000 0.0000
# 4 0.0000 0.0000 0.0000 10.5819 0.0000 0.0000
# 5 0.0000 0.0000 0.0000 0.0000 11.3731 0.0000
# 6 0.0000 0.0000 0.0000 0.0000 0.0000 44.4864
#
#
#
# Elastic Compliance Matrix: (Units=1/GPa)
#
#
# Indices 1 2 3 4 5 6 
#
# 1 0.023223 -0.012343 -0.014882 0.000000 0.000000 0.000000
# 2 -0.012343 0.018781 0.009744 0.000000 0.000000 0.000000
# 3 -0.014882 0.009744 0.035549 0.000000 0.000000 0.000000
# 4 0.000000 0.000000 0.000000 0.094501 0.000000 0.000000
# 5 0.000000 0.000000 0.000000 0.000000 0.087926 0.000000
# 6 0.000000 0.000000 0.000000 0.000000 0.000000 0.022479
#
#
# Mechanical properties :
#
#
# Convention : Reuss Voigt Hill
#
# Bulk Modulus (GPa) = 23.47909 34.70549 29.09229
# Shear Modulus (GPa) = 15.07757 22.87342 18.97549
#
# Velocity S-wave (km/s) = 2.76119 3.40092 3.09762
# Velocity P-wave (km/s) = 4.69448 5.74204 5.24448
#
# Compressibility (1/GPa) = 0.04259108
#
# Stress axis : x y z
#
# Youngs Moduli (GPa) = 43.06161 53.24437 28.12984
#
# Poissons Ratio (x) = 0.65721 0.41862
# Poissons Ratio (y) = 0.53152 -0.27409
# Poissons Ratio (z) = 0.64084 -0.51881
#
# Static dielectric constant tensor:
#      x y z
#    x 1.930100 0.000000 0.000000 
#    y 0.000000 1.767630 0.000000 
#    z 0.000000 0.000000 1.680980 
# 
# From -- ./inp_files/5622.got.cif
#   From: 2010.05.17/outbox.cif.g08.bks.cpg/sg73_3_cif.got.tgz:5622.got - 2010.06.03 17:35:07.
