data_PCOD9531812
_publ_section_title
;
Structure prediction by ZEFSAII (Michael W. Deem and Ramdas Pophale) SiO2 
 PCOD9531812
Probable space group: I B C A 
;
_chemical_formula_sum "Si O2"
_cell_formula_units_Z 80
_cell_length_a 33.671386
_cell_length_b 18.631424
_cell_length_c 5.079774
_cell_angle_alpha 90.000000
_cell_angle_beta 90.000000
_cell_angle_gamma 90.000000
_cell_volume 3186.775236
_symmetry_space_group_name_H-M "I B C A "
_symmetry_group_IT_number 73
_symmetry_cell_setting 'orthorhombic'
loop_
_space_group_symop_operation_xyz
x,y,z
-x,1/2-y,z
x,-y,1/2-z
1/2-x,y,-z
-x,-y,-z
x,1/2+y,-z
-x,y,1/2+z
1/2+x,-y,z
1/2+x,1/2+y,1/2+z
1/2-x,-y,1/2+z
1/2+x,1/2-y,-z
-x,1/2+y,1/2-z
1/2-x,1/2-y,1/2-z
1/2+x,y,1/2-z
1/2-x,1/2+y,z
x,1/2-y,1/2+z
loop_
_atom_site_type_symbol
_atom_site_label
_atom_site_fract_x
_atom_site_fract_y
_atom_site_fract_z
Si Si1 0.808669 0.295381 0.915101
Si Si2 0.517210 0.671120 0.244489
Si Si3 0.284945 0.915977 0.805364
Si Si4 0.396152 0.851379 0.430511
Si Si5 0.875331 0.071131 0.929674
O O1 0.797107 0.236628 0.135034
O O2 0.791689 0.369095 0.040285
O O3 0.856469 0.304588 0.898984
O O4 0.500000 0.750000 0.186935
O O5 0.509249 0.633368 0.967394
O O6 0.562072 0.679345 0.339146
O O7 0.328235 0.912592 0.941595
O O8 0.277959 0.000000 0.750000
O O9 0.250000 0.892865 0.000000
O O10 0.396243 0.871459 0.737515
O O11 0.390088 0.918351 0.226826
O O12 0.879151 0.000000 0.750000
#
# Coordination Sequence:
#
# PCOD9531812 Si02
#       5
#    16  16  16  16  16
#     4  11  25  42  68 103 144 190 233 294 369 441
#     4  10  22  36  59  95 130 170 215 282 337 418
#     4  10  24  44  70 103 139 190 251 310 362 432
#     4  11  22  40  67  94 140 180 225 286 350 431
#     4  10  22  42  68  98 128 178 239 288 347 414
#
# _framework density 25.103748
#
# number of rings (size 3 to 8) (size 9 to 14) (size 15 to 20)
#    0.000    1.600    0.000    4.200    5.600    7.200 
#    0.000    0.000    0.000   12.000    0.000    0.000 
#    0.000    0.000    0.000    0.000    0.000    0.000 
#
# Total GULP energy -223716.124896 kJ/mol
# GULP energy per Si atom -5592.903122 kJ/mol
# Density = 2.504661 g / cm^3
# Si number density = 25.103748 Si / 1000 Ang^3
#
#
#
# Elastic Constant Matrix: (Units=GPa)
#
#
# Indices 1 2 3 4 5 6 
#
# 1 147.3238 32.4585 25.3275 -0.0001 0.0003 0.0002
# 2 32.4585 111.5030 24.1034 -0.0006 0.0000 -0.0001
# 3 25.3275 24.1034 138.9689 -0.0009 -0.0042 -0.0027
# 4 -0.0001 -0.0006 -0.0009 27.3944 0.0001 0.0002
# 5 0.0003 0.0000 -0.0042 0.0001 40.8623 0.0001
# 6 0.0002 -0.0001 -0.0027 0.0002 0.0001 19.6889
#
#
#
# Elastic Compliance Matrix: (Units=1/GPa)
#
#
# Indices 1 2 3 4 5 6 
#
# 1 0.007387 -0.001932 -0.001011 0.000000 0.000000 0.000000
# 2 -0.001932 0.009823 -0.001352 0.000000 0.000000 0.000000
# 3 -0.001011 -0.001352 0.007615 0.000000 0.000001 0.000001
# 4 0.000000 0.000000 0.000000 0.036504 0.000000 0.000000
# 5 0.000000 0.000000 0.000001 0.000000 0.024472 0.000000
# 6 0.000000 0.000000 0.000001 0.000000 0.000000 0.050790
#
#
# Mechanical properties :
#
#
# Convention : Reuss Voigt Hill
#
# Bulk Modulus (GPa) = 61.59440 62.39718 61.99579
# Shear Modulus (GPa) = 33.20225 38.64955 35.92590
#
# Velocity S-wave (km/s) = 3.64070 3.92802 3.78709
# Velocity P-wave (km/s) = 6.50094 6.74405 6.62361
#
# Compressibility (1/GPa) = 0.01623524
#
# Stress axis : x y z
#
# Youngs Moduli (GPa) = 135.36837 101.80291 131.32666
#
# Poissons Ratio (x) = 0.19666 0.13281
# Poissons Ratio (y) = 0.26151 0.17751
# Poissons Ratio (z) = 0.13690 0.13760
#
# Static dielectric constant tensor:
#      x y z
#    x 1.967080 0.000000 0.000000 
#    y 0.000000 2.284000 0.000000 
#    z 0.000000 0.000000 2.067280 
# 
# From -- ./inp_files/3061.got.cif
#   From: 2010.05.17/outbox.cif.g08.bks.cpg/sg73_2_cif.got.tgz:3061.got - 2010.06.03 17:35:07.
