data_PCOD9531776
_publ_section_title
;
Structure prediction by ZEFSAII (Michael W. Deem and Ramdas Pophale) SiO2 
 PCOD9531776
Probable space group: I B C A 
;
_chemical_formula_sum "Si O2"
_cell_formula_units_Z 96
_cell_length_a 8.215237
_cell_length_b 23.801786
_cell_length_c 19.866222
_cell_angle_alpha 90.000000
_cell_angle_beta 90.000000
_cell_angle_gamma 90.000000
_cell_volume 3884.587670
_symmetry_space_group_name_H-M "I B C A "
_symmetry_group_IT_number 73
_symmetry_cell_setting 'orthorhombic'
loop_
_space_group_symop_operation_xyz
x,y,z
-x,1/2-y,z
x,-y,1/2-z
1/2-x,y,-z
-x,-y,-z
x,1/2+y,-z
-x,y,1/2+z
1/2+x,-y,z
1/2+x,1/2+y,1/2+z
1/2-x,-y,1/2+z
1/2+x,1/2-y,-z
-x,1/2+y,1/2-z
1/2-x,1/2-y,1/2-z
1/2+x,y,1/2-z
1/2-x,1/2+y,z
x,1/2-y,1/2+z
loop_
_atom_site_type_symbol
_atom_site_label
_atom_site_fract_x
_atom_site_fract_y
_atom_site_fract_z
Si Si1 0.310075 0.744596 0.427859
Si Si2 0.764785 0.873042 0.108577
Si Si3 0.452136 0.437799 0.898075
Si Si4 0.405149 0.907422 0.737589
Si Si5 0.417261 0.060946 0.610800
Si Si6 0.352336 0.289473 0.202565
O O1 0.500000 0.750000 0.440934
O O2 0.250000 0.727350 0.500000
O O3 0.251044 0.806367 0.402402
O O4 0.264215 0.700998 0.368372
O O5 0.602437 0.899761 0.074919
O O6 0.746042 0.898328 0.185222
O O7 0.946036 0.893450 0.090479
O O8 0.461896 0.427000 0.816585
O O9 0.508328 0.501383 0.910716
O O10 0.264455 0.429908 0.917295
O O11 0.398065 0.941591 0.806854
O O12 0.423159 0.843857 0.763296
O O13 0.500000 0.250000 0.183366
O O14 0.250000 0.250000 0.250000
#
# Coordination Sequence:
#
# PCOD9531776 Si02
#       6
#    16  16  16  16  16  16
#     4  11  25  50  69  96 137 183 235 297 357 420
#     4  10  23  41  61  95 134 179 229 284 333 420
#     4  10  22  33  59  95 138 182 210 278 349 408
#     4  10  22  35  55  96 136 177 221 278 340 411
#     4  12  19  36  58  93 142 176 220 270 356 407
#     4  11  22  39  64  96 134 174 225 289 351 411
#
# _framework density 24.713048000000001
#
# number of rings (size 3 to 8) (size 9 to 14) (size 15 to 20)
#    1.000    0.333    3.333    3.500    2.333    2.000 
#    6.000    0.000    0.000    1.000    0.000    0.000 
#    0.000    0.000    0.000    0.000    0.000    0.000 
#
# Total GULP energy -267809.328119 kJ/mol
# GULP energy per Si atom -5579.361002 kJ/mol
# Density = 2.465680 g / cm^3
# Si number density = 24.713048 Si / 1000 Ang^3
#
#
#
# Elastic Constant Matrix: (Units=GPa)
#
#
# Indices 1 2 3 4 5 6 
#
# 1 138.7907 -1.7556 17.1855 0.0000 0.0000 0.0000
# 2 -1.7556 54.6283 -17.0322 0.0000 0.0000 0.0000
# 3 17.1855 -17.0322 87.3406 0.0000 0.0000 0.0000
# 4 0.0000 0.0000 0.0000 -2.8809 0.0000 0.0000
# 5 0.0000 0.0000 0.0000 0.0000 20.8515 0.0000
# 6 0.0000 0.0000 0.0000 0.0000 0.0000 33.6809
#
#
#
# Elastic Compliance Matrix: (Units=1/GPa)
#
#
# Indices 1 2 3 4 5 6 
#
# 1 0.007388 -0.000230 -0.001498 0.000000 0.000000 0.000000
# 2 -0.000230 0.019498 0.003847 0.000000 0.000000 0.000000
# 3 -0.001498 0.003847 0.012495 0.000000 0.000000 0.000000
# 4 0.000000 0.000000 0.000000 -0.347109 0.000000 0.000000
# 5 0.000000 0.000000 0.000000 0.000000 0.047958 0.000000
# 6 0.000000 0.000000 0.000000 0.000000 0.000000 0.029690
#
#
# Mechanical properties :
#
#
# Convention : Reuss Voigt Hill
#
# Bulk Modulus (GPa) = 22.92608 30.83945 26.88276
# Shear Modulus (GPa) = -22.75013 29.15441 3.20214
#
# Velocity S-wave (km/s) = -3.03738 3.43843 1.13954
# Velocity P-wave (km/s) = 1.73317 5.31694 3.55429
#
# Compressibility (1/GPa) = 0.04361844
#
# Stress axis : x y z
#
# Youngs Moduli (GPa) = 135.35955 51.28805 80.03483
#
# Poissons Ratio (x) = 0.01178 0.11993
# Poissons Ratio (y) = 0.03110 -0.30793
# Poissons Ratio (z) = 0.20283 -0.19733
#
# Static dielectric constant tensor:
#      x y z
#    x 1.966240 0.000000 0.000000 
#    y 0.000000 1.933390 0.000000 
#    z 0.000000 0.000000 -0.157920 
# 
# From -- ./inp_files/28414.got.cif
#   From: 2010.05.17/outbox.cif.g08.bks.cpg/sg73_15_cif.got.tgz:28414.got - 2010.06.03 17:35:07.
