data_PCOD9531985
_publ_section_title
;
Structure prediction by ZEFSAII (Michael W. Deem and Ramdas Pophale) SiO2 
 PCOD9531985
Probable space group: I B C A 
;
_chemical_formula_sum "Si O2"
_cell_formula_units_Z 80
_cell_length_a 22.086058
_cell_length_b 5.414295
_cell_length_c 28.118241
_cell_angle_alpha 90.000000
_cell_angle_beta 90.000000
_cell_angle_gamma 90.000000
_cell_volume 3362.391445
_symmetry_space_group_name_H-M "I B C A "
_symmetry_group_IT_number 73
_symmetry_cell_setting 'orthorhombic'
loop_
_space_group_symop_operation_xyz
x,y,z
-x,1/2-y,z
x,-y,1/2-z
1/2-x,y,-z
-x,-y,-z
x,1/2+y,-z
-x,y,1/2+z
1/2+x,-y,z
1/2+x,1/2+y,1/2+z
1/2-x,-y,1/2+z
1/2+x,1/2-y,-z
-x,1/2+y,1/2-z
1/2-x,1/2-y,1/2-z
1/2+x,y,1/2-z
1/2-x,1/2+y,z
x,1/2-y,1/2+z
loop_
_atom_site_type_symbol
_atom_site_label
_atom_site_fract_x
_atom_site_fract_y
_atom_site_fract_z
Si Si1 0.429124 0.204502 0.980420
Si Si2 0.763849 0.172388 0.611060
Si Si3 0.938974 0.099401 0.885360
Si Si4 0.933305 0.188987 0.713314
Si Si5 0.649509 0.995436 0.845173
O O1 0.500000 0.250000 0.992803
O O2 0.402567 0.479170 0.987804
O O3 0.428329 0.591058 0.072076
O O4 0.740382 0.415116 0.584453
O O5 0.716090 0.132464 0.655159
O O6 0.828849 0.246608 0.630867
O O7 0.888893 0.310127 0.877167
O O8 0.000000 0.250000 0.895773
O O9 0.946238 0.954589 0.835897
O O10 0.891744 0.421871 0.698774
O O11 0.000000 0.250000 0.732996
O O12 0.902572 0.000000 0.750000
#
# Coordination Sequence:
#
# PCOD9531985 Si02
#       5
#    16  16  16  16  16
#     4  10  22  40  62  96 141 178 220 277 341 420
#     4   8  18  40  65  91 123 168 222 286 338 380
#     4  12  23  39  66  98 135 182 222 276 354 425
#     4  12  26  42  61  95 142 187 233 280 352 424
#     4  10  22  41  66  94 132 171 236 280 339 414
#
# _framework density 23.792587999999999
#
# number of rings (size 3 to 8) (size 9 to 14) (size 15 to 20)
#    1.200    0.400    2.000    4.200    2.800    0.000 
#    0.000    1.000    0.000    0.000    0.000    4.200 
#    0.000    0.000    0.000    0.000    0.000    0.000 
#
# Total GULP energy -223001.442335 kJ/mol
# GULP energy per Si atom -5575.036058 kJ/mol
# Density = 2.373843 g / cm^3
# Si number density = 23.792588 Si / 1000 Ang^3
#
#
#
# Elastic Constant Matrix: (Units=GPa)
#
#
# Indices 1 2 3 4 5 6 
#
# 1 94.8809 31.0385 -2.5090 0.0000 0.0000 0.0000
# 2 31.0385 191.0833 49.6907 0.0000 0.0000 0.0000
# 3 -2.5090 49.6907 100.6464 0.0000 0.0000 0.0000
# 4 0.0000 0.0000 0.0000 47.4233 0.0000 0.0000
# 5 0.0000 0.0000 0.0000 0.0000 -2.5815 0.0000
# 6 0.0000 0.0000 0.0000 0.0000 0.0000 44.6636
#
#
#
# Elastic Compliance Matrix: (Units=1/GPa)
#
#
# Indices 1 2 3 4 5 6 
#
# 1 0.011291 -0.002188 0.001362 0.000000 0.000000 0.000000
# 2 -0.002188 0.006428 -0.003228 0.000000 0.000000 0.000000
# 3 0.001362 -0.003228 0.011564 0.000000 0.000000 0.000000
# 4 0.000000 0.000000 0.000000 0.021087 0.000000 0.000000
# 5 0.000000 0.000000 0.000000 0.000000 -0.387368 0.000000
# 6 0.000000 0.000000 0.000000 0.000000 0.000000 0.022390
#
#
# Mechanical properties :
#
#
# Convention : Reuss Voigt Hill
#
# Bulk Modulus (GPa) = 47.22803 60.33900 53.78352
# Shear Modulus (GPa) = -16.69775 38.46044 10.88135
#
# Velocity S-wave (km/s) = -2.65203 4.02492 2.14088
# Velocity P-wave (km/s) = 3.24273 6.85678 5.36333
#
# Compressibility (1/GPa) = 0.02117387
#
# Stress axis : x y z
#
# Youngs Moduli (GPa) = 88.56304 155.56270 86.47839
#
# Poissons Ratio (x) = 0.34041 -0.11777
# Poissons Ratio (y) = 0.19380 0.27918
# Poissons Ratio (z) = -0.12061 0.50220
#
# Static dielectric constant tensor:
#      x y z
#    x 1.953280 0.000000 0.000000 
#    y 0.000000 2.072410 0.000000 
#    z 0.000000 0.000000 1.893590 
# 
# From -- ./inp_files/34832.got.cif
#   From: 2010.05.17/outbox.cif.g08.bks.cpg/sg73_18_cif.got.tgz:34832.got - 2010.06.03 17:35:07.
