data_PCOD9531077
_publ_section_title
;
Structure prediction by ZEFSAII (Michael W. Deem and Ramdas Pophale) SiO2 
 PCOD9531077
Probable space group: I B C A 
;
_chemical_formula_sum "Si O2"
_cell_formula_units_Z 88
_cell_length_a 13.250532
_cell_length_b 18.935293
_cell_length_c 17.047731
_cell_angle_alpha 90.000000
_cell_angle_beta 90.000000
_cell_angle_gamma 90.000000
_cell_volume 4277.321836
_symmetry_space_group_name_H-M "I B C A "
_symmetry_group_IT_number 73
_symmetry_cell_setting 'orthorhombic'
loop_
_space_group_symop_operation_xyz
x,y,z
-x,1/2-y,z
x,-y,1/2-z
1/2-x,y,-z
-x,-y,-z
x,1/2+y,-z
-x,y,1/2+z
1/2+x,-y,z
1/2+x,1/2+y,1/2+z
1/2-x,-y,1/2+z
1/2+x,1/2-y,-z
-x,1/2+y,1/2-z
1/2-x,1/2-y,1/2-z
1/2+x,y,1/2-z
1/2-x,1/2+y,z
x,1/2-y,1/2+z
loop_
_atom_site_type_symbol
_atom_site_label
_atom_site_fract_x
_atom_site_fract_y
_atom_site_fract_z
Si Si1 0.035583 0.577785 0.021755
Si Si2 0.226417 0.842028 0.671204
Si Si3 0.630271 0.020010 0.664002
Si Si4 0.250000 0.138506 0.000000
Si Si5 0.157549 0.377542 0.061323
Si Si6 0.114852 0.231448 0.697309
O O1 0.054136 0.569848 0.114653
O O2 0.146391 0.594896 0.986794
O O3 0.000000 0.500000 0.000000
O O4 0.947491 0.626581 0.987909
O O5 0.224662 0.821068 0.579650
O O6 0.135665 0.812657 0.723824
O O7 0.324182 0.804225 0.705281
O O8 0.224698 0.926839 0.674342
O O9 0.655306 0.951016 0.612004
O O10 0.593277 0.000000 0.750000
O O11 0.157358 0.315492 0.125503
O O12 0.250000 0.377206 0.000000
O O13 0.000000 0.250000 0.683519
#
# Coordination Sequence:
#
# PCOD9531077 Si02
#       6
#    16  16  16   8  16  16
#     4   9  21  36  65  93 130 181 219 289 340 407
#     4  10  23  42  69  98 127 189 224 289 346 408
#     4  10  20  43  67  97 138 177 232 292 344 415
#     4  10  20  42  64  94 134 168 240 274 340 412
#     4  11  24  44  67 106 141 178 234 291 354 427
#     4  11  24  47  69  95 148 183 233 292 348 427
#
# _framework density 20.573623000000001
#
# number of rings (size 3 to 8) (size 9 to 14) (size 15 to 20)
#    0.000    1.818    1.818    1.091   12.727    0.000 
#   13.091    1.818    0.000    0.000    0.000    0.000 
#    0.000    0.000    0.000    0.000    0.000    0.000 
#
# Total GULP energy -245161.119361 kJ/mol
# GULP energy per Si atom -5571.843622 kJ/mol
# Density = 2.052680 g / cm^3
# Si number density = 20.573623 Si / 1000 Ang^3
#
#
#
# Elastic Constant Matrix: (Units=GPa)
#
#
# Indices 1 2 3 4 5 6 
#
# 1 110.3503 44.6783 41.3210 0.0000 0.0000 0.0000
# 2 44.6783 85.1105 34.2366 0.0000 0.0000 0.0000
# 3 41.3210 34.2366 166.2068 0.0000 0.0000 0.0000
# 4 0.0000 0.0000 0.0000 -0.7477 0.0000 0.0000
# 5 0.0000 0.0000 0.0000 0.0000 25.1430 0.0000
# 6 0.0000 0.0000 0.0000 0.0000 0.0000 13.2008
#
#
#
# Elastic Compliance Matrix: (Units=1/GPa)
#
#
# Indices 1 2 3 4 5 6 
#
# 1 0.012002 -0.005561 -0.001838 0.000000 0.000000 0.000000
# 2 -0.005561 0.015387 -0.001787 0.000000 0.000000 0.000000
# 3 -0.001838 -0.001787 0.006842 0.000000 0.000000 0.000000
# 4 0.000000 0.000000 0.000000 -1.337498 0.000000 -0.000001
# 5 0.000000 0.000000 0.000000 0.000000 0.039772 0.000000
# 6 0.000000 0.000000 0.000000 -0.000001 0.000000 0.075753
#
#
# Mechanical properties :
#
#
# Convention : Reuss Voigt Hill
#
# Bulk Modulus (GPa) = 63.05779 66.90436 64.98107
# Shear Modulus (GPa) = -4.29523 23.61468 9.65972
#
# Velocity S-wave (km/s) = -1.44647 3.39161 2.16919
# Velocity P-wave (km/s) = 5.28457 6.92297 6.15850
#
# Compressibility (1/GPa) = 0.01585847
#
# Stress axis : x y z
#
# Youngs Moduli (GPa) = 83.32034 64.98807 146.16110
#
# Poissons Ratio (x) = 0.36139 0.26869
# Poissons Ratio (y) = 0.46333 0.26121
# Poissons Ratio (z) = 0.15317 0.11614
#
# Static dielectric constant tensor:
#      x y z
#    x 1.769940 0.000000 0.000000 
#    y 0.000000 1.762790 0.000000 
#    z 0.000000 0.000000 1.797290 
# 
# From -- ./inp_files/21283.got.cif
#   From: 2010.05.17/outbox.cif.g08.bks.cpg/sg73_11_cif.got.tgz:21283.got - 2010.06.03 17:35:07.
