data_PCOD9531571
_publ_section_title
;
Structure prediction by ZEFSAII (Michael W. Deem and Ramdas Pophale) SiO2 
 PCOD9531571
Probable space group: I B C A 
;
_chemical_formula_sum "Si O2"
_cell_formula_units_Z 120
_cell_length_a 22.041701
_cell_length_b 17.129933
_cell_length_c 13.786439
_cell_angle_alpha 90.000000
_cell_angle_beta 90.000000
_cell_angle_gamma 90.000000
_cell_volume 5205.385221
_symmetry_space_group_name_H-M "I B C A "
_symmetry_group_IT_number 73
_symmetry_cell_setting 'orthorhombic'
loop_
_space_group_symop_operation_xyz
x,y,z
-x,1/2-y,z
x,-y,1/2-z
1/2-x,y,-z
-x,-y,-z
x,1/2+y,-z
-x,y,1/2+z
1/2+x,-y,z
1/2+x,1/2+y,1/2+z
1/2-x,-y,1/2+z
1/2+x,1/2-y,-z
-x,1/2+y,1/2-z
1/2-x,1/2-y,1/2-z
1/2+x,y,1/2-z
1/2-x,1/2+y,z
x,1/2-y,1/2+z
loop_
_atom_site_type_symbol
_atom_site_label
_atom_site_fract_x
_atom_site_fract_y
_atom_site_fract_z
Si Si1 0.691239 0.350218 0.285660
Si Si2 0.236268 0.809148 0.386388
Si Si3 0.563486 0.368114 0.382046
Si Si4 0.019232 0.000454 0.136853
Si Si5 0.500000 0.250000 0.242259
Si Si6 0.581687 0.834530 0.404104
Si Si7 0.710974 0.905599 0.408510
Si Si8 0.149345 0.451939 0.646930
O O1 0.712275 0.272236 0.343122
O O2 0.703332 0.333526 0.173276
O O3 0.625988 0.374768 0.323102
O O4 0.741733 0.411530 0.321192
O O5 0.250000 0.806907 0.500000
O O6 0.184460 0.871643 0.358649
O O7 0.536493 0.453140 0.410223
O O8 0.518406 0.321210 0.311726
O O9 0.574344 0.320043 0.481267
O O10 0.078853 0.053791 0.122034
O O11 0.003192 0.000000 0.250000
O O12 0.041897 0.913138 0.114688
O O13 0.555317 0.227675 0.170828
O O14 0.652846 0.851739 0.386745
O O15 0.750000 0.879681 0.500000
O O16 0.681773 0.989583 0.427765
O O17 0.149968 0.500000 0.750000
#
# Coordination Sequence:
#
# PCOD9531571 Si02
#       8
#    16  16  16  16   8  16  16  16
#     4  11  26  42  69 102 142 182 226 293 352 415
#     4  11  25  45  67 106 144 181 230 284 357 418
#     4  12  26  45  70 102 138 185 238 294 345 424
#     4  10  22  46  71  98 136 186 230 290 354 409
#     4  12  28  44  68 104 142 188 236 284 358 426
#     4  11  25  47  74 100 140 186 237 293 356 430
#     4  11  21  44  74  99 133 183 232 281 355 419
#     4  10  21  40  71  98 134 180 228 283 339 421
#
# _framework density 23.053048
#
# number of rings (size 3 to 8) (size 9 to 14) (size 15 to 20)
#    0.000    1.067    4.000    1.600    5.600    0.000 
#    4.800    0.000    0.000    0.000    0.000    0.000 
#    0.000    0.000    0.000    0.000    0.000    0.000 
#
# Total GULP energy -335454.357687 kJ/mol
# GULP energy per Si atom -5590.905961 kJ/mol
# Density = 2.300058 g / cm^3
# Si number density = 23.053048 Si / 1000 Ang^3
#
#
#
# Elastic Constant Matrix: (Units=GPa)
#
#
# Indices 1 2 3 4 5 6 
#
# 1 100.4375 27.2636 14.6469 0.0000 0.0000 0.0000
# 2 27.2636 49.4370 -0.6402 0.0000 0.0000 0.0000
# 3 14.6469 -0.6402 119.4053 0.0000 0.0000 0.0000
# 4 0.0000 0.0000 0.0000 20.7413 0.0000 0.0000
# 5 0.0000 0.0000 0.0000 0.0000 30.2888 0.0000
# 6 0.0000 0.0000 0.0000 0.0000 0.0000 29.6483
#
#
#
# Elastic Compliance Matrix: (Units=1/GPa)
#
#
# Indices 1 2 3 4 5 6 
#
# 1 0.011974 -0.006623 -0.001504 0.000000 0.000000 0.000000
# 2 -0.006623 0.023892 0.000940 0.000000 0.000000 0.000000
# 3 -0.001504 0.000940 0.008564 0.000000 0.000000 0.000000
# 4 0.000000 0.000000 0.000000 0.048213 0.000000 0.000000
# 5 0.000000 0.000000 0.000000 0.000000 0.033015 0.000000
# 6 0.000000 0.000000 0.000000 0.000000 0.000000 0.033729
#
#
# Mechanical properties :
#
#
# Convention : Reuss Voigt Hill
#
# Bulk Modulus (GPa) = 33.26981 39.09116 36.18048
# Shear Modulus (GPa) = 27.20654 31.33632 29.27143
#
# Velocity S-wave (km/s) = 3.43909 3.69089 3.56721
# Velocity P-wave (km/s) = 5.49845 5.92937 5.71797
#
# Compressibility (1/GPa) = 0.03005728
#
# Stress axis : x y z
#
# Youngs Moduli (GPa) = 83.51756 41.85459 116.76238
#
# Poissons Ratio (x) = 0.27719 0.17564
# Poissons Ratio (y) = 0.55311 -0.10981
# Poissons Ratio (z) = 0.12563 -0.03936
#
# Static dielectric constant tensor:
#      x y z
#    x 1.856310 0.000000 0.000000 
#    y 0.000000 1.897220 0.000000 
#    z 0.000000 0.000000 1.915280 
# 
# From -- ./inp_files/19522.got.cif
#   From: 2010.05.17/outbox.cif.g08.bks.cpg/sg73_10_cif.got.tgz:19522.got - 2010.06.03 17:35:07.
