data_PCOD9531289
_publ_section_title
;
Structure prediction by ZEFSAII (Michael W. Deem and Ramdas Pophale) SiO2 
 PCOD9531289
Probable space group: I B C A 
;
_chemical_formula_sum "Si O2"
_cell_formula_units_Z 112
_cell_length_a 13.737036
_cell_length_b 13.599412
_cell_length_c 29.332438
_cell_angle_alpha 90.000000
_cell_angle_beta 90.000000
_cell_angle_gamma 90.000000
_cell_volume 5479.757363
_symmetry_space_group_name_H-M "I B C A "
_symmetry_group_IT_number 73
_symmetry_cell_setting 'orthorhombic'
loop_
_space_group_symop_operation_xyz
x,y,z
-x,1/2-y,z
x,-y,1/2-z
1/2-x,y,-z
-x,-y,-z
x,1/2+y,-z
-x,y,1/2+z
1/2+x,-y,z
1/2+x,1/2+y,1/2+z
1/2-x,-y,1/2+z
1/2+x,1/2-y,-z
-x,1/2+y,1/2-z
1/2-x,1/2-y,1/2-z
1/2+x,y,1/2-z
1/2-x,1/2+y,z
x,1/2-y,1/2+z
loop_
_atom_site_type_symbol
_atom_site_label
_atom_site_fract_x
_atom_site_fract_y
_atom_site_fract_z
Si Si1 0.778433 0.126733 0.950520
Si Si2 0.381998 0.749861 0.829272
Si Si3 0.887914 0.043316 0.297500
Si Si4 0.617219 0.956575 0.101764
Si Si5 0.888316 0.466751 0.602172
Si Si6 0.798051 0.831641 0.077808
Si Si7 0.622331 0.035255 0.200157
O O1 0.682290 0.114424 0.919162
O O2 0.808786 0.240471 0.956302
O O3 0.856910 0.057771 0.925027
O O4 0.750000 0.085806 0.000000
O O5 0.500000 0.750000 0.836407
O O6 0.359577 0.657142 0.797861
O O7 0.330094 0.722948 0.875995
O O8 0.347676 0.853220 0.810071
O O9 0.004954 0.038424 0.298572
O O10 0.855450 0.000000 0.250000
O O11 0.860921 0.989915 0.344955
O O12 0.501781 0.940410 0.098842
O O13 0.688674 0.874270 0.081268
O O14 0.644762 0.970738 0.155311
O O15 0.864411 0.569999 0.575927
O O16 0.652850 0.000000 0.250000
#
# Coordination Sequence:
#
# PCOD9531289 Si02
#       7
#    16  16  16  16  16  16  16
#     4  11  24  41  62  88 119 153 199 260 305 361
#     4   9  16  31  58  84 113 156 204 239 287 352
#     4   8  15  30  56  89 119 155 196 238 284 351
#     4  10  21  41  63  87 125 157 197 249 302 362
#     4   9  21  40  64  89 120 162 195 242 308 357
#     4  10  21  37  61  87 116 156 201 249 299 353
#     4   9  16  31  56  86 119 156 200 238 284 349
#
# _framework density 20.438862
#
# number of rings (size 3 to 8) (size 9 to 14) (size 15 to 20)
#    0.000    2.571    1.429    0.857    0.000    3.429 
#    2.571    8.571    0.000    0.000    0.000    0.000 
#    0.000    0.000    0.000    0.000    0.000    0.000 
#
# Total GULP energy -312180.851237 kJ/mol
# GULP energy per Si atom -5574.658058 kJ/mol
# Density = 2.039234 g / cm^3
# Si number density = 20.438862 Si / 1000 Ang^3
#
#
#
# Elastic Constant Matrix: (Units=GPa)
#
#
# Indices 1 2 3 4 5 6 
#
# 1 80.3932 -6.5853 -6.4688 0.0000 0.0000 0.0000
# 2 -6.5853 46.7134 -1.3612 0.0000 0.0000 0.0000
# 3 -6.4688 -1.3612 46.5870 0.0000 0.0000 0.0000
# 4 0.0000 0.0000 0.0000 21.8911 0.0000 0.0000
# 5 0.0000 0.0000 0.0000 0.0000 16.5303 0.0000
# 6 0.0000 0.0000 0.0000 0.0000 0.0000 16.8680
#
#
#
# Elastic Compliance Matrix: (Units=1/GPa)
#
#
# Indices 1 2 3 4 5 6 
#
# 1 0.012737 0.001849 0.001823 0.000000 0.000000 0.000000
# 2 0.001849 0.021694 0.000891 0.000000 0.000000 0.000000
# 3 0.001823 0.000891 0.021744 0.000000 0.000000 0.000000
# 4 0.000000 0.000000 0.000000 0.045681 0.000000 0.000000
# 5 0.000000 0.000000 0.000000 0.000000 0.060495 0.000000
# 6 0.000000 0.000000 0.000000 0.000000 0.000000 0.059284
#
#
# Mechanical properties :
#
#
# Convention : Reuss Voigt Hill
#
# Bulk Modulus (GPa) = 15.31429 16.09590 15.70510
# Shear Modulus (GPa) = 21.34224 23.59846 22.47035
#
# Velocity S-wave (km/s) = 3.23491 3.40161 3.31931
# Velocity P-wave (km/s) = 4.63270 4.82910 4.73191
#
# Compressibility (1/GPa) = 0.06529851
#
# Stress axis : x y z
#
# Youngs Moduli (GPa) = 78.51175 46.09637 45.98904
#
# Poissons Ratio (x) = -0.08522 -0.08382
# Poissons Ratio (y) = -0.14514 -0.04095
# Poissons Ratio (z) = -0.14309 -0.04105
#
# Static dielectric constant tensor:
#      x y z
#    x 1.736390 0.000000 0.000000 
#    y 0.000000 1.763580 0.000000 
#    z 0.000000 0.000000 1.736300 
# 
# From -- ./inp_files/32162.got.cif
#   From: 2010.05.17/outbox.cif.g08.bks.cpg/sg73_17_cif.got.tgz:32162.got - 2010.06.03 17:35:07.
