data_PCOD9531421
_publ_section_title
;
Structure prediction by ZEFSAII (Michael W. Deem and Ramdas Pophale) SiO2 
 PCOD9531421
Probable space group: I B C A 
;
_chemical_formula_sum "Si O2"
_cell_formula_units_Z 112
_cell_length_a 20.024217
_cell_length_b 24.705117
_cell_length_c 11.220721
_cell_angle_alpha 90.000000
_cell_angle_beta 90.000000
_cell_angle_gamma 90.000000
_cell_volume 5550.897678
_symmetry_space_group_name_H-M "I B C A "
_symmetry_group_IT_number 73
_symmetry_cell_setting 'orthorhombic'
loop_
_space_group_symop_operation_xyz
x,y,z
-x,1/2-y,z
x,-y,1/2-z
1/2-x,y,-z
-x,-y,-z
x,1/2+y,-z
-x,y,1/2+z
1/2+x,-y,z
1/2+x,1/2+y,1/2+z
1/2-x,-y,1/2+z
1/2+x,1/2-y,-z
-x,1/2+y,1/2-z
1/2-x,1/2-y,1/2-z
1/2+x,y,1/2-z
1/2-x,1/2+y,z
x,1/2-y,1/2+z
loop_
_atom_site_type_symbol
_atom_site_label
_atom_site_fract_x
_atom_site_fract_y
_atom_site_fract_z
Si Si1 0.132335 0.914559 0.914604
Si Si2 0.604844 0.621657 0.827713
Si Si3 0.806896 0.946722 0.831507
Si Si4 0.683211 0.703305 0.149489
Si Si5 0.339291 0.463899 0.600843
Si Si6 0.337767 0.231480 0.616088
Si Si7 0.473751 0.561403 0.759406
O O1 0.163657 0.859252 0.867212
O O2 0.056892 0.920036 0.866287
O O3 0.165882 0.971223 0.877573
O O4 0.131967 0.908650 0.055403
O O5 0.654873 0.603563 0.724571
O O6 0.609555 0.684986 0.852011
O O7 0.531133 0.600543 0.802039
O O8 0.728245 0.936826 0.851809
O O9 0.815006 0.000000 0.750000
O O10 0.839002 0.957457 0.959679
O O11 0.657689 0.723147 0.279692
O O12 0.763196 0.708411 0.140672
O O13 0.658657 0.736917 0.029660
O O14 0.407926 0.442453 0.656934
O O15 0.500444 0.500000 0.750000
#
# Coordination Sequence:
#
# PCOD9531421 Si02
#       7
#    16  16  16  16  16  16  16
#     4  10  21  39  62  83 118 166 202 245 307 360
#     4  11  23  37  62  87 121 163 207 242 304 372
#     4  11  21  36  58  90 123 160 207 255 288 358
#     4   9  19  39  63  90 118 152 199 264 313 367
#     4  10  23  37  57  88 129 162 205 249 301 353
#     4   9  20  38  63  91 119 151 202 256 318 368
#     4  10  23  39  56  87 128 165 202 246 295 362
#
# _framework density 20.176915999999999
#
# number of rings (size 3 to 8) (size 9 to 14) (size 15 to 20)
#    0.000    2.000    1.429    1.714    6.000    2.286 
#    2.571    2.143    0.000    3.429    0.000    0.000 
#    0.000    0.000    0.000    0.000    0.000    0.000 
#
# Total GULP energy -312468.158958 kJ/mol
# GULP energy per Si atom -5579.788553 kJ/mol
# Density = 2.013099 g / cm^3
# Si number density = 20.176916 Si / 1000 Ang^3
#
#
#
# Elastic Constant Matrix: (Units=GPa)
#
#
# Indices 1 2 3 4 5 6 
#
# 1 63.5563 34.7390 26.9344 0.0000 0.0000 0.0000
# 2 34.7390 44.0620 31.2619 0.0000 0.0000 0.0000
# 3 26.9344 31.2619 105.0651 0.0000 0.0000 0.0000
# 4 0.0000 0.0000 0.0000 32.7109 0.0000 0.0000
# 5 0.0000 0.0000 0.0000 0.0000 11.9017 0.0000
# 6 0.0000 0.0000 0.0000 0.0000 0.0000 64.7618
#
#
#
# Elastic Compliance Matrix: (Units=1/GPa)
#
#
# Indices 1 2 3 4 5 6 
#
# 1 0.027697 -0.021295 -0.000764 0.000000 0.000000 0.000000
# 2 -0.021295 0.045141 -0.007972 0.000000 0.000000 0.000000
# 3 -0.000764 -0.007972 0.012086 0.000000 0.000000 0.000000
# 4 0.000000 0.000000 0.000000 0.030571 0.000000 0.000000
# 5 0.000000 0.000000 0.000000 0.000000 0.084021 0.000000
# 6 0.000000 0.000000 0.000000 0.000000 0.000000 0.015441
#
#
# Mechanical properties :
#
#
# Convention : Reuss Voigt Hill
#
# Bulk Modulus (GPa) = 40.22317 44.28379 42.25348
# Shear Modulus (GPa) = 17.64863 29.85808 23.75336
#
# Velocity S-wave (km/s) = 2.96073 3.85101 3.43484
# Velocity P-wave (km/s) = 5.62729 6.46290 6.05952
#
# Compressibility (1/GPa) = 0.02486129
#
# Stress axis : x y z
#
# Youngs Moduli (GPa) = 36.10441 22.15286 82.74018
#
# Poissons Ratio (x) = 0.47174 0.06324
# Poissons Ratio (y) = 0.76884 0.65964
# Poissons Ratio (z) = 0.02759 0.17661
#
# Static dielectric constant tensor:
#      x y z
#    x 1.699180 0.000000 0.000000 
#    y 0.000000 1.703860 0.000000 
#    z 0.000000 0.000000 1.795700 
# 
# From -- ./inp_files/13051.got.cif
#   From: 2010.05.17/outbox.cif.g08.bks.cpg/sg73_7_cif.got.tgz:13051.got - 2010.06.03 17:35:07.
