data_PCOD9531000
_publ_section_title
;
Structure prediction by ZEFSAII (Michael W. Deem and Ramdas Pophale) SiO2 
 PCOD9531000
Probable space group: I B C A 
;
_chemical_formula_sum "Si O2"
_cell_formula_units_Z 104
_cell_length_a 25.202583
_cell_length_b 9.717917
_cell_length_c 19.712023
_cell_angle_alpha 90.000000
_cell_angle_beta 90.000000
_cell_angle_gamma 90.000000
_cell_volume 4827.801845
_symmetry_space_group_name_H-M "I B C A "
_symmetry_group_IT_number 73
_symmetry_cell_setting 'orthorhombic'
loop_
_space_group_symop_operation_xyz
x,y,z
-x,1/2-y,z
x,-y,1/2-z
1/2-x,y,-z
-x,-y,-z
x,1/2+y,-z
-x,y,1/2+z
1/2+x,-y,z
1/2+x,1/2+y,1/2+z
1/2-x,-y,1/2+z
1/2+x,1/2-y,-z
-x,1/2+y,1/2-z
1/2-x,1/2-y,1/2-z
1/2+x,y,1/2-z
1/2-x,1/2+y,z
x,1/2-y,1/2+z
loop_
_atom_site_type_symbol
_atom_site_label
_atom_site_fract_x
_atom_site_fract_y
_atom_site_fract_z
Si Si1 0.238522 0.839610 0.316277
Si Si2 0.835249 0.991531 0.521040
Si Si3 0.999935 0.396802 0.087417
Si Si4 0.856250 0.000000 0.750000
Si Si5 0.426862 0.114692 0.044801
Si Si6 0.730388 0.429175 0.398711
Si Si7 0.581843 0.123432 0.129808
O O1 0.250000 0.750000 0.250000
O O2 0.182276 0.912150 0.299364
O O3 0.242066 0.723229 0.373626
O O4 0.277794 0.964290 0.336736
O O5 0.781013 0.999090 0.563795
O O6 0.816283 0.918301 0.452482
O O7 0.876367 0.921493 0.571687
O O8 0.868884 0.118025 0.489761
O O9 0.966333 0.515703 0.123903
O O10 0.000000 0.250000 0.123950
O O11 0.057168 0.462713 0.071869
O O12 0.968675 0.367774 0.016594
O O13 0.890643 0.100266 0.797696
O O14 0.433096 0.224612 0.104605
#
# Coordination Sequence:
#
# PCOD9531000 Si02
#       7
#    16  16  16   8  16  16  16
#     4  12  23  44  62  86 131 183 227 268 323 391
#     4  10  23  37  61 101 133 162 217 283 333 385
#     4  10  20  40  66  99 135 165 208 275 349 407
#     4  12  26  44  66  94 128 186 236 282 332 406
#     4  10  21  37  68  98 132 170 217 265 339 410
#     4  11  25  39  64  93 132 175 223 276 329 388
#     4  11  23  42  65  94 131 176 223 279 337 405
#
# _framework density 21.541896000000001
#
# number of rings (size 3 to 8) (size 9 to 14) (size 15 to 20)
#    0.000    1.231    3.077    3.231    6.462    2.462 
#    0.000    1.538    0.000    0.000    0.000    0.000 
#    0.000    0.000    0.000    0.000    0.000    0.000 
#
# Total GULP energy -289939.842125 kJ/mol
# GULP energy per Si atom -5575.766195 kJ/mol
# Density = 2.149287 g / cm^3
# Si number density = 21.541896 Si / 1000 Ang^3
#
#
#
# Elastic Constant Matrix: (Units=GPa)
#
#
# Indices 1 2 3 4 5 6 
#
# 1 77.5166 24.6426 23.2280 0.0000 0.0000 0.0000
# 2 24.6426 131.6320 31.9018 0.0000 0.0000 0.0000
# 3 23.2280 31.9018 77.7986 0.0000 0.0000 0.0000
# 4 0.0000 0.0000 0.0000 18.9723 0.0000 0.0000
# 5 0.0000 0.0000 0.0000 0.0000 21.1682 0.0000
# 6 0.0000 0.0000 0.0000 0.0000 0.0000 20.2053
#
#
#
# Elastic Compliance Matrix: (Units=1/GPa)
#
#
# Indices 1 2 3 4 5 6 
#
# 1 0.014566 -0.001857 -0.003587 0.000000 0.000000 0.000000
# 2 -0.001857 0.008672 -0.003001 0.000000 0.000000 0.000000
# 3 -0.003587 -0.003001 0.015155 0.000000 0.000000 0.000000
# 4 0.000000 0.000000 0.000000 0.052708 0.000000 0.000000
# 5 0.000000 0.000000 0.000000 0.000000 0.047241 0.000000
# 6 0.000000 0.000000 0.000000 0.000000 0.000000 0.049492
#
#
# Mechanical properties :
#
#
# Convention : Reuss Voigt Hill
#
# Bulk Modulus (GPa) = 46.50910 49.61022 48.05966
# Shear Modulus (GPa) = 23.59672 25.88081 24.73877
#
# Velocity S-wave (km/s) = 3.31325 3.46991 3.39249
# Velocity P-wave (km/s) = 6.02277 6.25566 6.14032
#
# Compressibility (1/GPa) = 0.02150117
#
# Stress axis : x y z
#
# Youngs Moduli (GPa) = 68.65363 115.31243 65.98265
#
# Poissons Ratio (x) = 0.21419 0.23669
# Poissons Ratio (y) = 0.12752 0.19804
# Poissons Ratio (z) = 0.24628 0.34611
#
# Static dielectric constant tensor:
#      x y z
#    x 1.826330 0.000000 0.000000 
#    y 0.000000 1.838180 0.000000 
#    z 0.000000 0.000000 1.863120 
# 
# From -- ./inp_files/27795.got.cif
#   From: 2010.05.17/outbox.cif.g08.bks.cpg/sg73_14_cif.got.tgz:27795.got - 2010.06.03 17:35:07.
