data_PCOD9531403
_publ_section_title
;
Structure prediction by ZEFSAII (Michael W. Deem and Ramdas Pophale) SiO2 
 PCOD9531403
Probable space group: I B C A 
;
_chemical_formula_sum "Si O2"
_cell_formula_units_Z 96
_cell_length_a 20.624198
_cell_length_b 8.299958
_cell_length_c 25.556854
_cell_angle_alpha 90.000000
_cell_angle_beta 90.000000
_cell_angle_gamma 90.000000
_cell_volume 4374.821685
_symmetry_space_group_name_H-M "I B C A "
_symmetry_group_IT_number 73
_symmetry_cell_setting 'orthorhombic'
loop_
_space_group_symop_operation_xyz
x,y,z
-x,1/2-y,z
x,-y,1/2-z
1/2-x,y,-z
-x,-y,-z
x,1/2+y,-z
-x,y,1/2+z
1/2+x,-y,z
1/2+x,1/2+y,1/2+z
1/2-x,-y,1/2+z
1/2+x,1/2-y,-z
-x,1/2+y,1/2-z
1/2-x,1/2-y,1/2-z
1/2+x,y,1/2-z
1/2-x,1/2+y,z
x,1/2-y,1/2+z
loop_
_atom_site_type_symbol
_atom_site_label
_atom_site_fract_x
_atom_site_fract_y
_atom_site_fract_z
Si Si1 0.469596 0.574488 0.304503
Si Si2 0.834201 0.572652 0.601772
Si Si3 0.777522 0.109224 0.942361
Si Si4 0.226472 0.117299 0.790849
Si Si5 0.353300 0.060078 0.858936
Si Si6 0.556893 0.358670 0.375247
O O1 0.500000 0.750000 0.299142
O O2 0.446535 0.500000 0.250000
O O3 0.408491 0.567285 0.343256
O O4 0.522366 0.450960 0.327825
O O5 0.809904 0.716061 0.564428
O O6 0.785366 0.421503 0.593770
O O7 0.820566 0.641080 0.659985
O O8 0.905102 0.498729 0.593796
O O9 0.827394 0.981232 0.917055
O O10 0.750000 0.084425 0.000000
O O11 0.250000 0.250000 0.750000
O O12 0.292862 0.055708 0.818970
O O13 0.191957 0.000000 0.750000
O O14 0.389415 0.231108 0.856430
O O15 0.500000 0.250000 0.401297
#
# Coordination Sequence:
#
# PCOD9531403 Si02
#       6
#    16  16  16  16  16  16
#     4  11  22  37  59  90 131 185 237 275 324 397
#     4  11  22  39  60  92 129 166 218 277 336 409
#     4  11  23  41  68  95 123 164 216 283 355 408
#     4  11  21  33  54  86 124 164 201 253 327 398
#     4  10  21  39  59  88 128 165 216 275 329 399
#     4  10  22  39  61  87 127 177 221 273 329 392
#
# _framework density 21.943750999999999
#
# number of rings (size 3 to 8) (size 9 to 14) (size 15 to 20)
#    0.000    1.333    0.000    8.500    0.000    3.333 
#    0.000    0.833    0.000   10.000    0.000    0.000 
#    0.000    0.000    0.000    0.000    0.000    0.000 
#
# Total GULP energy -267822.078612 kJ/mol
# GULP energy per Si atom -5579.626638 kJ/mol
# Density = 2.189381 g / cm^3
# Si number density = 21.943751 Si / 1000 Ang^3
#
#
#
# Elastic Constant Matrix: (Units=GPa)
#
#
# Indices 1 2 3 4 5 6 
#
# 1 93.2677 33.9365 45.7235 0.0000 0.0000 0.0000
# 2 33.9365 101.5301 44.8103 0.0000 0.0000 0.0000
# 3 45.7235 44.8103 122.6051 0.0000 0.0000 0.0000
# 4 0.0000 0.0000 0.0000 21.1269 0.0000 0.0000
# 5 0.0000 0.0000 0.0000 0.0000 21.3161 0.0000
# 6 0.0000 0.0000 0.0000 0.0000 0.0000 48.8609
#
#
#
# Elastic Compliance Matrix: (Units=1/GPa)
#
#
# Indices 1 2 3 4 5 6 
#
# 1 0.013749 -0.002781 -0.004111 0.000000 0.000000 0.000000
# 2 -0.002781 0.012306 -0.003461 0.000000 0.000000 0.000000
# 3 -0.004111 -0.003461 0.010954 0.000000 0.000000 0.000000
# 4 0.000000 0.000000 0.000000 0.047333 0.000000 0.000000
# 5 0.000000 0.000000 0.000000 0.000000 0.046913 0.000000
# 6 0.000000 0.000000 0.000000 0.000000 0.000000 0.020466
#
#
# Mechanical properties :
#
#
# Convention : Reuss Voigt Hill
#
# Bulk Modulus (GPa) = 61.33472 62.92708 62.13090
# Shear Modulus (GPa) = 28.11168 31.12295 29.61732
#
# Velocity S-wave (km/s) = 3.58310 3.77013 3.67780
# Velocity P-wave (km/s) = 6.71786 6.90584 6.81250
#
# Compressibility (1/GPa) = 0.01630398
#
# Stress axis : x y z
#
# Youngs Moduli (GPa) = 72.73144 81.25960 91.28940
#
# Poissons Ratio (x) = 0.22601 0.37529
# Poissons Ratio (y) = 0.20229 0.31591
# Poissons Ratio (z) = 0.29900 0.28120
#
# Static dielectric constant tensor:
#      x y z
#    x 1.823830 0.000000 0.000000 
#    y 0.000000 1.927570 0.000000 
#    z 0.000000 0.000000 1.788140 
# 
# From -- ./inp_files/32612.got.cif
#   From: 2010.05.17/outbox.cif.g08.bks.cpg/sg73_17_cif.got.tgz:32612.got - 2010.06.03 17:35:07.
