data_PCOD9531398
_publ_section_title
;
Structure prediction by ZEFSAII (Michael W. Deem and Ramdas Pophale) SiO2 
 PCOD9531398
Probable space group: I B C A 
;
_chemical_formula_sum "Si O2"
_cell_formula_units_Z 80
_cell_length_a 23.792722
_cell_length_b 27.776730
_cell_length_c 5.259009
_cell_angle_alpha 90.000000
_cell_angle_beta 90.000000
_cell_angle_gamma 90.000000
_cell_volume 3475.594983
_symmetry_space_group_name_H-M "I B C A "
_symmetry_group_IT_number 73
_symmetry_cell_setting 'orthorhombic'
loop_
_space_group_symop_operation_xyz
x,y,z
-x,1/2-y,z
x,-y,1/2-z
1/2-x,y,-z
-x,-y,-z
x,1/2+y,-z
-x,y,1/2+z
1/2+x,-y,z
1/2+x,1/2+y,1/2+z
1/2-x,-y,1/2+z
1/2+x,1/2-y,-z
-x,1/2+y,1/2-z
1/2-x,1/2-y,1/2-z
1/2+x,y,1/2-z
1/2-x,1/2+y,z
x,1/2-y,1/2+z
loop_
_atom_site_type_symbol
_atom_site_label
_atom_site_fract_x
_atom_site_fract_y
_atom_site_fract_z
Si Si1 0.877660 0.623476 0.010991
Si Si2 0.975117 0.194402 0.027337
Si Si3 0.187283 0.233851 0.054625
Si Si4 0.968615 0.557449 0.745435
Si Si5 0.811425 0.623745 0.497912
O O1 0.914387 0.672783 0.049857
O O2 0.917223 0.584687 0.874090
O O3 0.831285 0.629862 0.788829
O O4 0.853370 0.604647 0.280172
O O5 0.000000 0.250000 0.051065
O O6 0.985024 0.174123 0.307606
O O7 0.157198 0.258865 0.287622
O O8 0.194980 0.178280 0.107637
O O9 0.250000 0.255375 0.000000
O O10 0.959938 0.500000 0.750000
O O11 0.982202 0.569062 0.451832
O O12 0.750000 0.600226 0.500000
#
# Coordination Sequence:
#
# PCOD9531398 Si02
#       5
#    16  16  16  16  16
#     4  12  22  39  64  90 124 170 209 262 324 384
#     4  10  21  39  56  83 120 156 202 256 314 386
#     4   9  17  33  51  69 102 147 199 264 306 332
#     4  10  21  39  67 100 130 157 197 259 329 401
#     4  11  24  40  58  88 123 168 223 267 306 366
#
# _framework density 23.017641000000001
#
# number of rings (size 3 to 8) (size 9 to 14) (size 15 to 20)
#    0.000    1.600    0.000    5.400    0.000    3.200 
#   21.600    0.000    0.000    2.400    0.000    0.000 
#    0.000    0.000    0.000    0.000    0.000    0.000 
#
# Total GULP energy -222832.667869 kJ/mol
# GULP energy per Si atom -5570.816697 kJ/mol
# Density = 2.296525 g / cm^3
# Si number density = 23.017641 Si / 1000 Ang^3
#
#
#
# Elastic Constant Matrix: (Units=GPa)
#
#
# Indices 1 2 3 4 5 6 
#
# 1 73.3215 16.3250 5.2188 0.0000 0.0000 0.0000
# 2 16.3250 50.1266 12.2089 0.0000 0.0000 0.0000
# 3 5.2188 12.2089 111.8816 0.0000 0.0000 0.0000
# 4 0.0000 0.0000 0.0000 -20.9519 0.0000 0.0000
# 5 0.0000 0.0000 0.0000 0.0000 49.0573 0.0000
# 6 0.0000 0.0000 0.0000 0.0000 0.0000 15.6999
#
#
#
# Elastic Compliance Matrix: (Units=1/GPa)
#
#
# Indices 1 2 3 4 5 6 
#
# 1 0.014708 -0.004749 -0.000168 0.000000 0.000000 0.000000
# 2 -0.004749 0.022028 -0.002182 0.000000 0.000000 0.000000
# 3 -0.000168 -0.002182 0.009184 0.000000 0.000000 0.000000
# 4 0.000000 0.000000 0.000000 -0.047728 0.000000 0.000000
# 5 0.000000 0.000000 0.000000 0.000000 0.020384 0.000000
# 6 0.000000 0.000000 0.000000 0.000000 0.000000 0.063695
#
#
# Mechanical properties :
#
#
# Convention : Reuss Voigt Hill
#
# Bulk Modulus (GPa) = 31.52463 33.64835 32.58649
# Shear Modulus (GPa) = 46.71043 22.19951 34.45497
#
# Velocity S-wave (km/s) = 4.50970 3.10894 3.87317
# Velocity P-wave (km/s) = 6.39078 5.24763 5.84721
#
# Compressibility (1/GPa) = 0.03172123
#
# Stress axis : x y z
#
# Youngs Moduli (GPa) = 67.99068 45.39746 108.88527
#
# Poissons Ratio (x) = 0.21560 0.01827
# Poissons Ratio (y) = 0.32290 0.23761
# Poissons Ratio (z) = 0.01141 0.09907
#
# Static dielectric constant tensor:
#      x y z
#    x 1.999620 0.000000 0.000000 
#    y 0.000000 2.882850 0.000000 
#    z 0.000000 0.000000 1.983000 
# 
# From -- ./inp_files/2215.got.cif
#   From: 2010.05.17/outbox.cif.g08.bks.cpg/sg73_2_cif.got.tgz:2215.got - 2010.06.03 17:35:07.
