data_PCOD9531720
_publ_section_title
;
Structure prediction by ZEFSAII (Michael W. Deem and Ramdas Pophale) SiO2 
 PCOD9531720
Probable space group: I B C A 
;
_chemical_formula_sum "Si O2"
_cell_formula_units_Z 120
_cell_length_a 9.561512
_cell_length_b 20.670152
_cell_length_c 29.756973
_cell_angle_alpha 90.000000
_cell_angle_beta 90.000000
_cell_angle_gamma 90.000000
_cell_volume 5881.105844
_symmetry_space_group_name_H-M "I B C A "
_symmetry_group_IT_number 73
_symmetry_cell_setting 'orthorhombic'
loop_
_space_group_symop_operation_xyz
x,y,z
-x,1/2-y,z
x,-y,1/2-z
1/2-x,y,-z
-x,-y,-z
x,1/2+y,-z
-x,y,1/2+z
1/2+x,-y,z
1/2+x,1/2+y,1/2+z
1/2-x,-y,1/2+z
1/2+x,1/2-y,-z
-x,1/2+y,1/2-z
1/2-x,1/2-y,1/2-z
1/2+x,y,1/2-z
1/2-x,1/2+y,z
x,1/2-y,1/2+z
loop_
_atom_site_type_symbol
_atom_site_label
_atom_site_fract_x
_atom_site_fract_y
_atom_site_fract_z
Si Si1 0.387886 0.307794 0.031696
Si Si2 0.589870 0.938739 0.513336
Si Si3 0.000000 0.750000 0.696356
Si Si4 0.278171 0.544644 0.159594
Si Si5 0.117773 0.930404 0.210310
Si Si6 0.319312 0.841158 0.864492
Si Si7 0.080529 0.566158 0.380622
Si Si8 0.846996 0.127841 0.271026
O O1 0.500000 0.250000 0.030324
O O2 0.347141 0.324432 0.083384
O O3 0.250000 0.295262 0.000000
O O4 0.454793 0.373339 0.011779
O O5 0.750000 0.950447 0.500000
O O6 0.585288 0.928589 0.566190
O O7 0.500000 0.000000 0.500000
O O8 0.119383 0.717806 0.664787
O O9 0.077089 0.803664 0.726350
O O10 0.323847 0.501221 0.202410
O O11 0.168012 0.497960 0.134397
O O12 0.420711 0.559229 0.133860
O O13 0.216456 0.609895 0.180327
O O14 0.098316 0.901124 0.159503
O O15 0.229071 0.883742 0.234358
O O16 0.971598 0.923802 0.235243
O O17 0.161692 0.870318 0.861708
#
# Coordination Sequence:
#
# PCOD9531720 Si02
#       8
#    16  16   8  16  16  16  16  16
#     4  11  23  45  70  96 136 186 235 286 348 424
#     4  11  23  40  65 101 137 174 226 292 348 404
#     4  10  24  46  70  98 134 198 228 278 350 406
#     4  11  23  40  68 101 136 180 223 284 355 412
#     4  10  24  40  69  98 133 177 226 288 349 408
#     4  10  21  43  69  91 134 182 226 279 347 410
#     4  11  22  41  66 102 137 174 228 283 347 420
#     4  11  24  43  67 102 137 180 236 278 341 414
#
# _framework density 20.404326000000001
#
# number of rings (size 3 to 8) (size 9 to 14) (size 15 to 20)
#    0.000    1.333    4.667    1.200    5.600    3.733 
#    2.400    0.667    1.467    0.000    0.000    0.000 
#    0.000    0.000    0.000    0.000    0.000    0.000 
#
# Total GULP energy -334805.812211 kJ/mol
# GULP energy per Si atom -5580.096870 kJ/mol
# Density = 2.035788 g / cm^3
# Si number density = 20.404326 Si / 1000 Ang^3
#
#
#
# Elastic Constant Matrix: (Units=GPa)
#
#
# Indices 1 2 3 4 5 6 
#
# 1 121.0949 42.4265 33.0230 0.0000 0.0000 0.0000
# 2 42.4265 106.7201 10.2991 0.0000 0.0000 0.0000
# 3 33.0230 10.2991 78.7056 0.0000 0.0000 0.0000
# 4 0.0000 0.0000 0.0000 27.3253 0.0000 0.0000
# 5 0.0000 0.0000 0.0000 0.0000 32.0796 0.0000
# 6 0.0000 0.0000 0.0000 0.0000 0.0000 49.5403
#
#
#
# Elastic Compliance Matrix: (Units=1/GPa)
#
#
# Indices 1 2 3 4 5 6 
#
# 1 0.010700 -0.003869 -0.003983 0.000000 0.000000 0.000000
# 2 -0.003869 0.010889 0.000199 0.000000 0.000000 0.000000
# 3 -0.003983 0.000199 0.014351 0.000000 0.000000 0.000000
# 4 0.000000 0.000000 0.000000 0.036596 0.000000 0.000000
# 5 0.000000 0.000000 0.000000 0.000000 0.031172 0.000000
# 6 0.000000 0.000000 0.000000 0.000000 0.000000 0.020186
#
#
# Mechanical properties :
#
#
# Convention : Reuss Voigt Hill
#
# Bulk Modulus (GPa) = 48.46770 53.11309 50.79039
# Shear Modulus (GPa) = 34.22800 36.50718 35.36759
#
# Velocity S-wave (km/s) = 4.10016 4.23447 4.16785
# Velocity P-wave (km/s) = 6.79855 7.07068 6.93595
#
# Compressibility (1/GPa) = 0.02063230
#
# Stress axis : x y z
#
# Youngs Moduli (GPa) = 93.45952 91.83253 69.68258
#
# Poissons Ratio (x) = 0.35533 0.27755
# Poissons Ratio (y) = 0.36162 -0.01383
# Poissons Ratio (z) = 0.37225 -0.01823
#
# Static dielectric constant tensor:
#      x y z
#    x 1.817090 0.000000 0.000000 
#    y 0.000000 1.753500 0.000000 
#    z 0.000000 0.000000 1.757930 
# 
# From -- ./inp_files/33649.got.cif
#   From: 2010.05.17/outbox.cif.g08.bks.cpg/sg73_17_cif.got.tgz:33649.got - 2010.06.03 17:35:07.
