data_PCOD9531394
_publ_section_title
;
Structure prediction by ZEFSAII (Michael W. Deem and Ramdas Pophale) SiO2 
 PCOD9531394
Probable space group: I B C A 
;
_chemical_formula_sum "Si O2"
_cell_formula_units_Z 72
_cell_length_a 21.860933
_cell_length_b 14.236338
_cell_length_c 8.522812
_cell_angle_alpha 90.000000
_cell_angle_beta 90.000000
_cell_angle_gamma 90.000000
_cell_volume 2652.466407
_symmetry_space_group_name_H-M "I B C A "
_symmetry_group_IT_number 73
_symmetry_cell_setting 'orthorhombic'
loop_
_space_group_symop_operation_xyz
x,y,z
-x,1/2-y,z
x,-y,1/2-z
1/2-x,y,-z
-x,-y,-z
x,1/2+y,-z
-x,y,1/2+z
1/2+x,-y,z
1/2+x,1/2+y,1/2+z
1/2-x,-y,1/2+z
1/2+x,1/2-y,-z
-x,1/2+y,1/2-z
1/2-x,1/2-y,1/2-z
1/2+x,y,1/2-z
1/2-x,1/2+y,z
x,1/2-y,1/2+z
loop_
_atom_site_type_symbol
_atom_site_label
_atom_site_fract_x
_atom_site_fract_y
_atom_site_fract_z
Si Si1 0.750000 0.388247 0.000000
Si Si2 0.136503 0.309863 0.639149
Si Si3 0.408617 0.097780 0.364470
Si Si4 0.306435 0.569048 0.418145
Si Si5 0.021947 0.144179 0.937515
O O1 0.689835 0.324276 0.991874
O O2 0.724981 0.467340 0.879690
O O3 0.123369 0.200098 0.659035
O O4 0.156842 0.363934 0.798273
O O5 0.072221 0.348086 0.574554
O O6 0.353683 0.039889 0.441822
O O7 0.461165 0.098865 0.495417
O O8 0.444624 0.089743 0.201279
O O9 0.250000 0.622430 0.500000
O O10 0.000000 0.250000 0.888942
#
# Coordination Sequence:
#
# PCOD9531394 Si02
#       5
#     8  16  16  16  16
#     4  10  26  42  64  90 140 180 222 264 326 390
#     4  11  22  40  67  93 129 178 219 271 333 390
#     4  11  22  41  70 101 132 169 222 277 338 394
#     4  10  25  42  62  97 141 170 223 270 327 395
#     4  10  21  38  67 100 129 163 216 279 333 387
#
# _framework density 27.144548
#
# number of rings (size 3 to 8) (size 9 to 14) (size 15 to 20)
#    0.667    0.889    0.000    6.667    4.667    0.889 
#    0.000    1.111    0.000    8.000    0.000    0.000 
#    0.000    0.000    0.000    0.000    0.000    0.000 
#
# Total GULP energy -200859.524730 kJ/mol
# GULP energy per Si atom -5579.431242 kJ/mol
# Density = 2.708277 g / cm^3
# Si number density = 27.144548 Si / 1000 Ang^3
#
#
#
# Elastic Constant Matrix: (Units=GPa)
#
#
# Indices 1 2 3 4 5 6 
#
# 1 208.6414 30.6263 51.9176 0.0000 0.0000 0.0000
# 2 30.6263 101.8215 24.5467 0.0000 0.0000 0.0000
# 3 51.9176 24.5467 86.9879 0.0000 0.0000 0.0000
# 4 0.0000 0.0000 0.0000 -52.2753 0.0000 0.0000
# 5 0.0000 0.0000 0.0000 0.0000 27.4526 0.0000
# 6 0.0000 0.0000 0.0000 0.0000 0.0000 26.6939
#
#
#
# Elastic Compliance Matrix: (Units=1/GPa)
#
#
# Indices 1 2 3 4 5 6 
#
# 1 0.005715 -0.000962 -0.003140 0.000000 0.000000 0.000000
# 2 -0.000962 0.010700 -0.002445 0.000000 0.000000 0.000000
# 3 -0.003140 -0.002445 0.014060 0.000000 0.000000 0.000000
# 4 0.000000 0.000000 0.000000 -0.019129 0.000000 0.000000
# 5 0.000000 0.000000 0.000000 0.000000 0.036426 0.000000
# 6 0.000000 0.000000 0.000000 0.000000 0.000000 0.037462
#
#
# Mechanical properties :
#
#
# Convention : Reuss Voigt Hill
#
# Bulk Modulus (GPa) = 57.53354 67.95910 62.74632
# Shear Modulus (GPa) = 48.02091 19.73160 33.87626
#
# Velocity S-wave (km/s) = 4.21061 2.69905 3.53653
# Velocity P-wave (km/s) = 6.69927 5.89945 6.31204
#
# Compressibility (1/GPa) = 0.01738117
#
# Stress axis : x y z
#
# Youngs Moduli (GPa) = 174.96545 93.45818 71.12543
#
# Poissons Ratio (x) = 0.08993 0.22331
# Poissons Ratio (y) = 0.16835 0.17391
# Poissons Ratio (z) = 0.54933 0.22851
#
# Static dielectric constant tensor:
#      x y z
#    x 2.212190 0.000000 0.000000 
#    y 0.000000 2.367850 0.000000 
#    z 0.000000 0.000000 2.465250 
# 
# From -- ./inp_files/5992.got.cif
#   From: 2010.05.17/outbox.cif.g08.bks.cpg/sg73_3_cif.got.tgz:5992.got - 2010.06.03 17:35:07.
