data_PCOD9531325
_publ_section_title
;
Structure prediction by ZEFSAII (Michael W. Deem and Ramdas Pophale) SiO2 
 PCOD9531325
Probable space group: I B C A 
;
_chemical_formula_sum "Si O2"
_cell_formula_units_Z 80
_cell_length_a 10.494272
_cell_length_b 14.435400
_cell_length_c 23.749882
_cell_angle_alpha 90.000000
_cell_angle_beta 90.000000
_cell_angle_gamma 90.000000
_cell_volume 3597.846207
_symmetry_space_group_name_H-M "I B C A "
_symmetry_group_IT_number 73
_symmetry_cell_setting 'orthorhombic'
loop_
_space_group_symop_operation_xyz
x,y,z
-x,1/2-y,z
x,-y,1/2-z
1/2-x,y,-z
-x,-y,-z
x,1/2+y,-z
-x,y,1/2+z
1/2+x,-y,z
1/2+x,1/2+y,1/2+z
1/2-x,-y,1/2+z
1/2+x,1/2-y,-z
-x,1/2+y,1/2-z
1/2-x,1/2-y,1/2-z
1/2+x,y,1/2-z
1/2-x,1/2+y,z
x,1/2-y,1/2+z
loop_
_atom_site_type_symbol
_atom_site_label
_atom_site_fract_x
_atom_site_fract_y
_atom_site_fract_z
Si Si1 0.138188 0.148989 0.792035
Si Si2 0.626424 0.585771 0.419100
Si Si3 0.000000 0.250000 0.991223
Si Si4 0.858436 0.129437 0.792182
Si Si5 0.636025 0.527016 0.912242
Si Si6 0.750000 0.831214 0.500000
O O1 0.133579 0.105836 0.853261
O O2 0.154411 0.259499 0.803615
O O3 0.249272 0.111234 0.752889
O O4 0.000168 0.125078 0.766260
O O5 0.569806 0.673682 0.451521
O O6 0.512929 0.510004 0.425783
O O7 0.769349 0.554194 0.431502
O O8 0.124399 0.282077 0.025324
O O9 0.850705 0.065271 0.847985
O O10 0.686936 0.610210 0.950614
#
# Coordination Sequence:
#
# PCOD9531325 Si02
#       6
#    16  16   8  16  16   8
#     4   9  17  33  56  77 110 148 182 223 275 331
#     4  10  21  38  58  82 113 149 185 232 285 341
#     4  10  22  40  62  82 108 148 190 228 282 342
#     4   9  18  34  54  81 110 145 186 227 273 331
#     4  10  22  37  55  82 115 145 187 235 283 331
#     4  10  22  40  60  84 112 146 186 234 282 336
#
# _framework density 22.235526
#
# number of rings (size 3 to 8) (size 9 to 14) (size 15 to 20)
#    0.000    2.400    0.000    3.600    0.000    8.000 
#    0.000    8.000    0.000    0.000    0.000    0.000 
#    0.000    0.000    0.000    0.000    0.000    0.000 
#
# Total GULP energy -222973.360637 kJ/mol
# GULP energy per Si atom -5574.334016 kJ/mol
# Density = 2.218492 g / cm^3
# Si number density = 22.235526 Si / 1000 Ang^3
#
#
#
# Elastic Constant Matrix: (Units=GPa)
#
#
# Indices 1 2 3 4 5 6 
#
# 1 84.6380 23.7524 5.4721 0.0000 0.0000 0.0000
# 2 23.7524 48.7186 -3.5966 0.0000 0.0000 0.0000
# 3 5.4721 -3.5966 44.1311 0.0000 0.0000 0.0000
# 4 0.0000 0.0000 0.0000 11.5622 0.0000 0.0000
# 5 0.0000 0.0000 0.0000 0.0000 28.5261 0.0000
# 6 0.0000 0.0000 0.0000 0.0000 0.0000 30.4066
#
#
#
# Elastic Compliance Matrix: (Units=1/GPa)
#
#
# Indices 1 2 3 4 5 6 
#
# 1 0.013914 -0.006953 -0.002292 0.000000 0.000000 0.000000
# 2 -0.006953 0.024125 0.002828 0.000000 0.000000 0.000000
# 3 -0.002292 0.002828 0.023174 0.000000 0.000000 0.000000
# 4 0.000000 0.000000 0.000000 0.086488 0.000000 0.000000
# 5 0.000000 0.000000 0.000000 0.000000 0.035056 0.000000
# 6 0.000000 0.000000 0.000000 0.000000 0.000000 0.032888
#
#
# Mechanical properties :
#
#
# Convention : Reuss Voigt Hill
#
# Bulk Modulus (GPa) = 20.66966 25.41593 23.04280
# Shear Modulus (GPa) = 20.44105 24.22297 22.33201
#
# Velocity S-wave (km/s) = 3.03528 3.30416 3.17257
# Velocity P-wave (km/s) = 4.64757 5.10017 4.87912
#
# Compressibility (1/GPa) = 0.04838009
#
# Stress axis : x y z
#
# Youngs Moduli (GPa) = 71.86753 41.45119 43.15093
#
# Poissons Ratio (x) = 0.28821 0.09890
# Poissons Ratio (y) = 0.49970 -0.12204
# Poissons Ratio (z) = 0.16472 -0.11724
#
# Static dielectric constant tensor:
#      x y z
#    x 1.515460 0.000000 0.000000 
#    y 0.000000 1.962440 0.000000 
#    z 0.000000 0.000000 1.767720 
# 
# From -- ./inp_files/31133.got.cif
#   From: 2010.05.17/outbox.cif.g08.bks.cpg/sg73_16_cif.got.tgz:31133.got - 2010.06.03 17:35:07.
