data_PCOD9531509
_publ_section_title
;
Structure prediction by ZEFSAII (Michael W. Deem and Ramdas Pophale) SiO2 
 PCOD9531509
Probable space group: I B C A 
;
_chemical_formula_sum "Si O2"
_cell_formula_units_Z 88
_cell_length_a 13.644393
_cell_length_b 14.500124
_cell_length_c 17.687784
_cell_angle_alpha 90.000000
_cell_angle_beta 90.000000
_cell_angle_gamma 90.000000
_cell_volume 3499.446531
_symmetry_space_group_name_H-M "I B C A "
_symmetry_group_IT_number 73
_symmetry_cell_setting 'orthorhombic'
loop_
_space_group_symop_operation_xyz
x,y,z
-x,1/2-y,z
x,-y,1/2-z
1/2-x,y,-z
-x,-y,-z
x,1/2+y,-z
-x,y,1/2+z
1/2+x,-y,z
1/2+x,1/2+y,1/2+z
1/2-x,-y,1/2+z
1/2+x,1/2-y,-z
-x,1/2+y,1/2-z
1/2-x,1/2-y,1/2-z
1/2+x,y,1/2-z
1/2-x,1/2+y,z
x,1/2-y,1/2+z
loop_
_atom_site_type_symbol
_atom_site_label
_atom_site_fract_x
_atom_site_fract_y
_atom_site_fract_z
Si Si1 0.250000 0.072229 0.000000
Si Si2 0.382946 0.244177 0.019504
Si Si3 0.098574 0.198964 0.316226
Si Si4 0.337783 0.912999 0.088918
Si Si5 0.236388 0.604863 0.246240
Si Si6 0.540917 0.956196 0.831087
O O1 0.339686 0.145011 0.994389
O O2 0.235105 0.996744 0.933953
O O3 0.500000 0.250000 0.016363
O O4 0.346333 0.329384 0.968739
O O5 0.355412 0.257980 0.107851
O O6 0.172426 0.174649 0.248352
O O7 0.000000 0.250000 0.288458
O O8 0.049657 0.106775 0.350513
O O9 0.309940 0.877511 0.171492
O O10 0.438060 0.968990 0.104896
O O11 0.275048 0.500000 0.250000
O O12 0.143928 0.598218 0.189102
O O13 0.518990 0.000000 0.750000
#
# Coordination Sequence:
#
# PCOD9531509 Si02
#       6
#     8  16  16  16  16  16
#     4  12  22  38  64  90 124 168 210 254 314 376
#     4  11  25  40  62  99 130 161 213 263 311 383
#     4  11  21  36  59  86 121 158 200 258 314 365
#     4  10  21  40  63  87 126 167 202 257 318 367
#     4   9  20  39  61  85 116 159 210 251 300 372
#     4   9  21  40  60  85 116 160 211 251 305 377
#
# _framework density 25.146833000000001
#
# number of rings (size 3 to 8) (size 9 to 14) (size 15 to 20)
#    0.000    2.182    0.000    5.455    0.000    5.091 
#    0.000   10.909    0.000    1.091    0.000    0.000 
#    0.000    0.000    0.000    0.000    0.000    0.000 
#
# Total GULP energy -245555.490447 kJ/mol
# GULP energy per Si atom -5580.806601 kJ/mol
# Density = 2.508960 g / cm^3
# Si number density = 25.146833 Si / 1000 Ang^3
#
#
#
# Elastic Constant Matrix: (Units=GPa)
#
#
# Indices 1 2 3 4 5 6 
#
# 1 68.3668 30.6542 -3.2257 0.0000 0.0000 0.0000
# 2 30.6542 140.4060 50.4370 0.0000 0.0000 0.0000
# 3 -3.2257 50.4370 65.0462 0.0000 0.0000 0.0000
# 4 0.0000 0.0000 0.0000 21.5835 0.0000 0.0000
# 5 0.0000 0.0000 0.0000 0.0000 17.6846 0.0000
# 6 0.0000 0.0000 0.0000 0.0000 0.0000 59.1220
#
#
#
# Elastic Compliance Matrix: (Units=1/GPa)
#
#
# Indices 1 2 3 4 5 6 
#
# 1 0.017435 -0.005707 0.005290 0.000000 0.000000 0.000000
# 2 -0.005707 0.011740 -0.009386 0.000000 0.000000 0.000000
# 3 0.005290 -0.009386 0.022914 0.000000 0.000000 0.000000
# 4 0.000000 0.000000 0.000000 0.046332 0.000000 0.000000
# 5 0.000000 0.000000 0.000000 0.000000 0.056546 0.000000
# 6 0.000000 0.000000 0.000000 0.000000 0.000000 0.016914
#
#
# Mechanical properties :
#
#
# Convention : Reuss Voigt Hill
#
# Bulk Modulus (GPa) = 30.78552 47.72779 39.25665
# Shear Modulus (GPa) = 24.71391 32.74159 28.72775
#
# Velocity S-wave (km/s) = 3.13834 3.61226 3.38361
# Velocity P-wave (km/s) = 5.03995 6.03480 5.55967
#
# Compressibility (1/GPa) = 0.03248281
#
# Stress axis : x y z
#
# Youngs Moduli (GPa) = 57.35474 85.18013 43.64146
#
# Poissons Ratio (x) = 0.48610 -0.23085
# Poissons Ratio (y) = 0.32731 0.40962
# Poissons Ratio (z) = -0.30339 0.79951
#
# Static dielectric constant tensor:
#      x y z
#    x 2.062550 0.000000 0.000000 
#    y 0.000000 2.118140 0.000000 
#    z 0.000000 0.000000 1.970070 
# 
# From -- ./inp_files/25917.got.cif
#   From: 2010.05.17/outbox.cif.g08.bks.cpg/sg73_13_cif.got.tgz:25917.got - 2010.06.03 17:35:07.
