data_PCOD9531305
_publ_section_title
;
Structure prediction by ZEFSAII (Michael W. Deem and Ramdas Pophale) SiO2 
 PCOD9531305
Probable space group: I B C A 
;
_chemical_formula_sum "Si O2"
_cell_formula_units_Z 120
_cell_length_a 19.892840
_cell_length_b 20.686054
_cell_length_c 14.494445
_cell_angle_alpha 90.000000
_cell_angle_beta 90.000000
_cell_angle_gamma 90.000000
_cell_volume 5964.527349
_symmetry_space_group_name_H-M "I B C A "
_symmetry_group_IT_number 73
_symmetry_cell_setting 'orthorhombic'
loop_
_space_group_symop_operation_xyz
x,y,z
-x,1/2-y,z
x,-y,1/2-z
1/2-x,y,-z
-x,-y,-z
x,1/2+y,-z
-x,y,1/2+z
1/2+x,-y,z
1/2+x,1/2+y,1/2+z
1/2-x,-y,1/2+z
1/2+x,1/2-y,-z
-x,1/2+y,1/2-z
1/2-x,1/2-y,1/2-z
1/2+x,y,1/2-z
1/2-x,1/2+y,z
x,1/2-y,1/2+z
loop_
_atom_site_type_symbol
_atom_site_label
_atom_site_fract_x
_atom_site_fract_y
_atom_site_fract_z
Si Si1 0.229814 0.507998 0.391653
Si Si2 0.380251 0.348891 0.201319
Si Si3 0.750000 0.760136 0.500000
Si Si4 0.861721 0.070189 0.622521
Si Si5 0.844782 0.791566 0.163428
Si Si6 0.725806 0.149843 0.843022
Si Si7 0.109517 0.915778 0.581950
Si Si8 0.022941 0.466583 0.845509
O O1 0.250000 0.518096 0.500000
O O2 0.295369 0.471128 0.353238
O O3 0.205093 0.575799 0.351444
O O4 0.168652 0.459666 0.378821
O O5 0.370653 0.372230 0.306017
O O6 0.387310 0.272341 0.188380
O O7 0.306914 0.358112 0.155383
O O8 0.436624 0.398709 0.165853
O O9 0.704060 0.721782 0.425472
O O10 0.707202 0.807057 0.567933
O O11 0.864075 0.098065 0.520582
O O12 0.921721 0.018476 0.624359
O O13 0.799614 0.814412 0.250819
O O14 0.893596 0.849926 0.138230
O O15 0.039535 0.953107 0.588806
O O16 0.997694 0.500000 0.750000
#
# Coordination Sequence:
#
# PCOD9531305 Si02
#       8
#    16  16   8  16  16  16  16  16
#     4  10  21  37  63  98 125 155 205 270 330 372
#     4  10  21  40  64  86 123 168 216 249 312 390
#     4  10  22  40  56  90 132 164 210 254 328 376
#     4  10  21  41  68  90 121 168 216 254 318 386
#     4  11  26  36  62  97 128 171 203 271 315 384
#     4  11  21  38  64  94 126 166 209 267 321 374
#     4  11  25  37  63  94 132 158 208 272 315 371
#     4  10  22  41  64  91 123 172 212 257 314 382
#
# _framework density 20.118945
#
# number of rings (size 3 to 8) (size 9 to 14) (size 15 to 20)
#    0.000    1.600    2.000    2.800    8.400    1.600 
#    0.000    0.000    0.000    3.200    0.000    0.000 
#    0.000    0.000    0.000    0.000    0.000    0.000 
#
# Total GULP energy -334676.370741 kJ/mol
# GULP energy per Si atom -5577.939512 kJ/mol
# Density = 2.007315 g / cm^3
# Si number density = 20.118945 Si / 1000 Ang^3
#
#
#
# Elastic Constant Matrix: (Units=GPa)
#
#
# Indices 1 2 3 4 5 6 
#
# 1 58.7076 24.0533 20.9932 0.0000 0.0000 0.0000
# 2 24.0533 136.6523 44.3315 0.0000 0.0000 0.0000
# 3 20.9932 44.3315 98.8077 0.0000 0.0000 0.0000
# 4 0.0000 0.0000 0.0000 23.0013 0.0000 0.0000
# 5 0.0000 0.0000 0.0000 0.0000 19.6214 0.0000
# 6 0.0000 0.0000 0.0000 0.0000 0.0000 -33.3166
#
#
#
# Elastic Compliance Matrix: (Units=1/GPa)
#
#
# Indices 1 2 3 4 5 6 
#
# 1 0.019079 -0.002391 -0.002981 0.000000 0.000000 0.000000
# 2 -0.002391 0.008864 -0.003469 0.000000 0.000000 0.000000
# 3 -0.002981 -0.003469 0.012310 0.000000 0.000000 0.000000
# 4 0.000000 0.000000 0.000000 0.043476 0.000000 0.000000
# 5 0.000000 0.000000 0.000000 0.000000 0.050965 0.000000
# 6 0.000000 0.000000 0.000000 0.000000 0.000000 -0.030015
#
#
# Mechanical properties :
#
#
# Convention : Reuss Voigt Hill
#
# Bulk Modulus (GPa) = 44.30333 52.54707 48.42520
# Shear Modulus (GPa) = 38.49559 15.51387 27.00473
#
# Velocity S-wave (km/s) = 4.37899 2.77989 3.66765
# Velocity P-wave (km/s) = 6.90188 6.03976 6.48516
#
# Compressibility (1/GPa) = 0.02257167
#
# Stress axis : x y z
#
# Youngs Moduli (GPa) = 52.41307 112.81436 81.23229
#
# Poissons Ratio (x) = 0.26977 0.24213
# Poissons Ratio (y) = 0.12534 0.28179
# Poissons Ratio (z) = 0.15623 0.39135
#
# Static dielectric constant tensor:
#      x y z
#    x 1.680720 0.000000 0.000000 
#    y 0.000000 1.743250 0.000000 
#    z 0.000000 0.000000 1.772950 
# 
# From -- ./inp_files/18961.got.cif
#   From: 2010.05.17/outbox.cif.g08.bks.cpg/sg73_10_cif.got.tgz:18961.got - 2010.06.03 17:35:07.
