data_PCOD9531060
_publ_section_title
;
Structure prediction by ZEFSAII (Michael W. Deem and Ramdas Pophale) SiO2 
 PCOD9531060
Probable space group: I B C A 
;
_chemical_formula_sum "Si O2"
_cell_formula_units_Z 112
_cell_length_a 14.746702
_cell_length_b 23.045269
_cell_length_c 16.000675
_cell_angle_alpha 90.000000
_cell_angle_beta 90.000000
_cell_angle_gamma 90.000000
_cell_volume 5437.696824
_symmetry_space_group_name_H-M "I B C A "
_symmetry_group_IT_number 73
_symmetry_cell_setting 'orthorhombic'
loop_
_space_group_symop_operation_xyz
x,y,z
-x,1/2-y,z
x,-y,1/2-z
1/2-x,y,-z
-x,-y,-z
x,1/2+y,-z
-x,y,1/2+z
1/2+x,-y,z
1/2+x,1/2+y,1/2+z
1/2-x,-y,1/2+z
1/2+x,1/2-y,-z
-x,1/2+y,1/2-z
1/2-x,1/2-y,1/2-z
1/2+x,y,1/2-z
1/2-x,1/2+y,z
x,1/2-y,1/2+z
loop_
_atom_site_type_symbol
_atom_site_label
_atom_site_fract_x
_atom_site_fract_y
_atom_site_fract_z
Si Si1 0.385626 0.068189 0.251275
Si Si2 0.345060 0.168565 0.524952
Si Si3 0.500000 0.250000 0.960271
Si Si4 0.236918 0.660533 0.695814
Si Si5 0.333821 0.719627 0.146203
Si Si6 0.423788 0.066069 0.432537
Si Si7 0.750000 0.149172 0.500000
Si Si8 0.089780 0.432786 0.439307
O O1 0.299135 0.108555 0.270500
O O2 0.447777 0.074900 0.334631
O O3 0.424854 0.081992 0.159131
O O4 0.360281 0.000000 0.250000
O O5 0.250000 0.198589 0.500000
O O6 0.432662 0.209342 0.513800
O O7 0.327881 0.146668 0.617996
O O8 0.354978 0.115712 0.460560
O O9 0.569335 0.282578 0.898975
O O10 0.173412 0.684018 0.769186
O O11 0.302651 0.714851 0.669694
O O12 0.267279 0.688446 0.080932
O O13 0.503933 0.072324 0.499648
O O14 0.385119 0.001136 0.440835
O O15 0.834010 0.108180 0.477338
#
# Coordination Sequence:
#
# PCOD9531060 Si02
#       8
#    16  16   8  16  16  16   8  16
#     4  10  20  41  72 100 138 185 234 294 361 432
#     4  12  23  43  70  98 136 189 234 289 357 432
#     4  12  24  44  68 100 138 190 228 294 364 420
#     4  11  23  44  66 101 134 181 239 287 349 426
#     4  11  24  41  67  97 140 179 227 297 349 424
#     4  10  22  42  67  96 142 179 229 291 362 426
#     4  12  22  40  68 102 136 182 234 296 354 430
#     4  10  23  41  65 104 134 183 231 291 356 431
#
# _framework density 20.596957
#
# number of rings (size 3 to 8) (size 9 to 14) (size 15 to 20)
#    0.000    1.143    4.286    1.714    1.000    0.571 
#    7.714    0.000    0.000    0.000    0.000    0.000 
#    0.000    0.000    0.000    0.000    0.000    0.000 
#
# Total GULP energy -312505.720236 kJ/mol
# GULP energy per Si atom -5580.459290 kJ/mol
# Density = 2.055008 g / cm^3
# Si number density = 20.596957 Si / 1000 Ang^3
#
#
#
# Elastic Constant Matrix: (Units=GPa)
#
#
# Indices 1 2 3 4 5 6 
#
# 1 78.4076 43.6815 35.8647 0.0000 0.0000 0.0000
# 2 43.6815 85.3041 56.9363 0.0000 0.0001 0.0000
# 3 35.8647 56.9363 171.9551 0.0001 0.0001 0.0001
# 4 0.0000 0.0000 0.0001 38.6294 0.0001 0.0000
# 5 0.0000 0.0001 0.0001 0.0001 33.7967 0.0000
# 6 0.0000 0.0000 0.0001 0.0000 0.0000 33.3364
#
#
#
# Elastic Compliance Matrix: (Units=1/GPa)
#
#
# Indices 1 2 3 4 5 6 
#
# 1 0.017952 -0.008593 -0.000899 0.000000 0.000000 0.000000
# 2 -0.008593 0.019161 -0.004552 0.000000 0.000000 0.000000
# 3 -0.000899 -0.004552 0.007510 0.000000 0.000000 0.000000
# 4 0.000000 0.000000 0.000000 0.025887 0.000000 0.000000
# 5 0.000000 0.000000 0.000000 0.000000 0.029589 0.000000
# 6 0.000000 0.000000 0.000000 0.000000 0.000000 0.029997
#
#
# Mechanical properties :
#
#
# Convention : Reuss Voigt Hill
#
# Bulk Modulus (GPa) = 60.47585 67.62575 64.05080
# Shear Modulus (GPa) = 30.54431 34.43146 32.48789
#
# Velocity S-wave (km/s) = 3.85509 4.09305 3.97585
# Velocity P-wave (km/s) = 7.01719 7.43247 7.22781
#
# Compressibility (1/GPa) = 0.01653552
#
# Stress axis : x y z
#
# Youngs Moduli (GPa) = 55.70367 52.18883 133.14959
#
# Poissons Ratio (x) = 0.44843 0.11973
# Poissons Ratio (y) = 0.47864 0.60614
# Poissons Ratio (z) = 0.05009 0.23758
#
# Static dielectric constant tensor:
#      x y z
#    x 1.780860 0.000000 0.000000 
#    y 0.000000 1.762020 0.000000 
#    z 0.000000 0.000000 1.775540 
# 
# From -- ./inp_files/17315.got.cif
#   From: 2010.05.17/outbox.cif.g08.bks.cpg/sg73_9_cif.got.tgz:17315.got - 2010.06.03 17:35:07.
