data_PCOD9531327
_publ_section_title
;
Structure prediction by ZEFSAII (Michael W. Deem and Ramdas Pophale) SiO2 
 PCOD9531327
Probable space group: I B C A 
;
_chemical_formula_sum "Si O2"
_cell_formula_units_Z 112
_cell_length_a 16.723306
_cell_length_b 12.707142
_cell_length_c 27.084701
_cell_angle_alpha 90.000000
_cell_angle_beta 90.000000
_cell_angle_gamma 90.000000
_cell_volume 5755.645871
_symmetry_space_group_name_H-M "I B C A "
_symmetry_group_IT_number 73
_symmetry_cell_setting 'orthorhombic'
loop_
_space_group_symop_operation_xyz
x,y,z
-x,1/2-y,z
x,-y,1/2-z
1/2-x,y,-z
-x,-y,-z
x,1/2+y,-z
-x,y,1/2+z
1/2+x,-y,z
1/2+x,1/2+y,1/2+z
1/2-x,-y,1/2+z
1/2+x,1/2-y,-z
-x,1/2+y,1/2-z
1/2-x,1/2-y,1/2-z
1/2+x,y,1/2-z
1/2-x,1/2+y,z
x,1/2-y,1/2+z
loop_
_atom_site_type_symbol
_atom_site_label
_atom_site_fract_x
_atom_site_fract_y
_atom_site_fract_z
Si Si1 0.539445 0.645514 0.125802
Si Si2 0.832301 0.754246 0.446180
Si Si3 0.350843 0.813492 0.944718
Si Si4 0.675705 0.955034 0.304841
Si Si5 0.383280 0.457757 0.407910
Si Si6 0.361948 0.508100 0.806992
Si Si7 0.904892 0.241110 0.339699
O O1 0.500000 0.750000 0.149710
O O2 0.609206 0.688834 0.091410
O O3 0.472197 0.588732 0.093153
O O4 0.576839 0.563010 0.162895
O O5 0.745140 0.804605 0.441012
O O6 0.867141 0.767874 0.501180
O O7 0.827845 0.632052 0.431212
O O8 0.389921 0.754168 0.898407
O O9 0.375833 0.934387 0.937640
O O10 0.641839 0.837132 0.312840
O O11 0.657414 0.000000 0.250000
O O12 0.638348 0.020137 0.350557
O O13 0.771444 0.964477 0.312028
O O14 0.383373 0.500000 0.750000
O O15 0.370194 0.628951 0.823438
O O16 0.000000 0.250000 0.329867
#
# Coordination Sequence:
#
# PCOD9531327 Si02
#       7
#    16  16  16  16  16  16  16
#     4  10  22  39  60  87 119 155 197 245 297 357
#     4  10  22  38  61  87 112 155 201 241 292 356
#     4  10  22  39  60  86 118 155 196 242 297 355
#     4  10  23  42  64  87 119 160 202 249 301 359
#     4  10  21  38  58  85 119 152 192 245 297 350
#     4  11  24  40  63  91 120 162 205 247 304 362
#     4  11  24  40  61  92 127 159 200 255 308 362
#
# _framework density 19.459154000000002
#
# number of rings (size 3 to 8) (size 9 to 14) (size 15 to 20)
#    0.000    1.714    0.000    4.286    0.000   14.286 
#    0.000    0.000    0.000    0.000    0.000    0.000 
#    0.000    0.000    0.000    0.000    0.000    0.000 
#
# Total GULP energy -312786.653847 kJ/mol
# GULP energy per Si atom -5585.475962 kJ/mol
# Density = 1.941486 g / cm^3
# Si number density = 19.459154 Si / 1000 Ang^3
#
#
#
# Elastic Constant Matrix: (Units=GPa)
#
#
# Indices 1 2 3 4 5 6 
#
# 1 64.3516 41.1230 1.1239 0.0000 0.0000 0.0000
# 2 41.1230 163.7705 49.9284 0.0000 0.0000 0.0000
# 3 1.1239 49.9284 56.6984 0.0000 0.0000 0.0000
# 4 0.0000 0.0000 0.0000 13.2540 0.0000 0.0000
# 5 0.0000 0.0000 0.0000 0.0000 -13.7958 0.0000
# 6 0.0000 0.0000 0.0000 0.0000 0.0000 13.2644
#
#
#
# Elastic Compliance Matrix: (Units=1/GPa)
#
#
# Indices 1 2 3 4 5 6 
#
# 1 0.019652 -0.006583 0.005408 0.000000 0.000000 0.000000
# 2 -0.006583 0.010552 -0.009162 0.000000 0.000000 0.000000
# 3 0.005408 -0.009162 0.025598 0.000000 0.000000 0.000000
# 4 0.000000 0.000000 0.000000 0.075449 0.000000 0.000000
# 5 0.000000 0.000000 0.000000 0.000000 -0.072486 0.000000
# 6 0.000000 0.000000 0.000000 0.000000 0.000000 0.075390
#
#
# Mechanical properties :
#
#
# Convention : Reuss Voigt Hill
#
# Bulk Modulus (GPa) = 28.46776 52.13011 40.29893
# Shear Modulus (GPa) = 30.02293 15.38753 22.70523
#
# Velocity S-wave (km/s) = 3.93220 2.81510 3.41957
# Velocity P-wave (km/s) = 5.93949 6.11670 6.02874
#
# Compressibility (1/GPa) = 0.03512746
#
# Stress axis : x y z
#
# Youngs Moduli (GPa) = 50.88495 94.76565 39.06568
#
# Poissons Ratio (x) = 0.62387 -0.21126
# Poissons Ratio (y) = 0.33499 0.35791
# Poissons Ratio (z) = -0.27517 0.86823
#
# Static dielectric constant tensor:
#      x y z
#    x 1.692120 0.000000 0.000000 
#    y 0.000000 0.799090 0.000000 
#    z 0.000000 0.000000 1.669010 
# 
# From -- ./inp_files/14798.got.cif
#   From: 2010.05.17/outbox.cif.g08.bks.cpg/sg73_8_cif.got.tgz:14798.got - 2010.06.03 17:35:07.
