data_PCOD9531964
_publ_section_title
;
Structure prediction by ZEFSAII (Michael W. Deem and Ramdas Pophale) SiO2 
 PCOD9531964
Probable space group: I B C A 
;
_chemical_formula_sum "Si O2"
_cell_formula_units_Z 64
_cell_length_a 9.074975
_cell_length_b 12.906344
_cell_length_c 25.995466
_cell_angle_alpha 90.000000
_cell_angle_beta 90.000000
_cell_angle_gamma 90.000000
_cell_volume 3044.712434
_symmetry_space_group_name_H-M "I B C A "
_symmetry_group_IT_number 73
_symmetry_cell_setting 'orthorhombic'
loop_
_space_group_symop_operation_xyz
x,y,z
-x,1/2-y,z
x,-y,1/2-z
1/2-x,y,-z
-x,-y,-z
x,1/2+y,-z
-x,y,1/2+z
1/2+x,-y,z
1/2+x,1/2+y,1/2+z
1/2-x,-y,1/2+z
1/2+x,1/2-y,-z
-x,1/2+y,1/2-z
1/2-x,1/2-y,1/2-z
1/2+x,y,1/2-z
1/2-x,1/2+y,z
x,1/2-y,1/2+z
loop_
_atom_site_type_symbol
_atom_site_label
_atom_site_fract_x
_atom_site_fract_y
_atom_site_fract_z
Si Si1 0.475596 0.371550 0.156400
Si Si2 0.997179 0.131134 0.554307
Si Si3 0.946947 0.000000 0.250000
Si Si4 0.750000 0.495257 0.000000
Si Si5 0.840076 0.443450 0.644278
O O1 0.500000 0.250000 0.153926
O O2 0.469158 0.416482 0.214767
O O3 0.322711 0.406351 0.130500
O O4 0.612059 0.437306 0.133097
O O5 0.000000 0.250000 0.537855
O O6 0.131113 0.067379 0.528444
O O7 0.036465 0.122014 0.614634
O O8 0.846403 0.076975 0.537542
O O9 0.858655 0.061370 0.205982
#
# Coordination Sequence:
#
# PCOD9531964 Si02
#       5
#    16  16   8   8  16
#     4  10  22  40  60  87 133 176 210 274 323 372
#     4  11  23  43  70  98 129 175 210 273 335 387
#     4   8  22  40  62  92 136 164 234 268 316 396
#     4  10  24  44  66 100 136 156 224 274 324 408
#     4  10  22  40  61  96 127 168 228 260 316 406
#
# _framework density 21.020047999999999
#
# number of rings (size 3 to 8) (size 9 to 14) (size 15 to 20)
#    1.500    0.500    0.000    3.000    0.000    6.000 
#    0.000    6.250    0.000    0.000    0.000    0.000 
#    0.000    0.000    0.000    0.000    0.000    0.000 
#
# Total GULP energy -178231.593352 kJ/mol
# GULP energy per Si atom -5569.737292 kJ/mol
# Density = 2.097221 g / cm^3
# Si number density = 21.020048 Si / 1000 Ang^3
#
#
#
# Elastic Constant Matrix: (Units=GPa)
#
#
# Indices 1 2 3 4 5 6 
#
# 1 157.1265 88.8196 49.1847 0.0000 0.0000 0.0000
# 2 88.8196 190.1334 25.7786 0.0000 0.0000 0.0000
# 3 49.1847 25.7786 70.6752 0.0000 0.0000 0.0000
# 4 0.0000 0.0000 0.0000 17.9228 0.0000 0.0000
# 5 0.0000 0.0000 0.0000 0.0000 24.5598 0.0000
# 6 0.0000 0.0000 0.0000 0.0000 0.0000 19.8509
#
#
#
# Elastic Compliance Matrix: (Units=1/GPa)
#
#
# Indices 1 2 3 4 5 6 
#
# 1 0.010515 -0.004124 -0.005814 0.000000 0.000000 0.000000
# 2 -0.004124 0.007150 0.000262 0.000000 0.000000 0.000000
# 3 -0.005814 0.000262 0.018100 0.000000 0.000000 0.000000
# 4 0.000000 0.000000 0.000000 0.055795 0.000000 0.000000
# 5 0.000000 0.000000 0.000000 0.000000 0.040717 0.000000
# 6 0.000000 0.000000 0.000000 0.000000 0.000000 0.050375
#
#
# Mechanical properties :
#
#
# Convention : Reuss Voigt Hill
#
# Bulk Modulus (GPa) = 60.92426 82.83344 71.87885
# Shear Modulus (GPa) = 24.09926 29.41019 26.75472
#
# Velocity S-wave (km/s) = 3.38966 3.74458 3.57153
# Velocity P-wave (km/s) = 6.66082 7.62812 7.16082
#
# Compressibility (1/GPa) = 0.01641382
#
# Stress axis : x y z
#
# Youngs Moduli (GPa) = 95.09979 139.85181 55.24986
#
# Poissons Ratio (x) = 0.57674 0.32120
# Poissons Ratio (y) = 0.39218 -0.01447
# Poissons Ratio (z) = 0.55288 -0.03662
#
# Static dielectric constant tensor:
#      x y z
#    x 1.755620 0.000000 0.000000 
#    y 0.000000 1.712930 0.000000 
#    z 0.000000 0.000000 1.856540 
# 
# From -- ./inp_files/33473.got.cif
#   From: 2010.05.17/outbox.cif.g08.bks.cpg/sg73_17_cif.got.tgz:33473.got - 2010.06.03 17:35:07.
