data_PCOD9531333
_publ_section_title
;
Structure prediction by ZEFSAII (Michael W. Deem and Ramdas Pophale) SiO2 
 PCOD9531333
Probable space group: I B C A 
;
_chemical_formula_sum "Si O2"
_cell_formula_units_Z 88
_cell_length_a 24.924841
_cell_length_b 12.765254
_cell_length_c 13.240846
_cell_angle_alpha 90.000000
_cell_angle_beta 90.000000
_cell_angle_gamma 90.000000
_cell_volume 4212.865477
_symmetry_space_group_name_H-M "I B C A "
_symmetry_group_IT_number 73
_symmetry_cell_setting 'orthorhombic'
loop_
_space_group_symop_operation_xyz
x,y,z
-x,1/2-y,z
x,-y,1/2-z
1/2-x,y,-z
-x,-y,-z
x,1/2+y,-z
-x,y,1/2+z
1/2+x,-y,z
1/2+x,1/2+y,1/2+z
1/2-x,-y,1/2+z
1/2+x,1/2-y,-z
-x,1/2+y,1/2-z
1/2-x,1/2-y,1/2-z
1/2+x,y,1/2-z
1/2-x,1/2+y,z
x,1/2-y,1/2+z
loop_
_atom_site_type_symbol
_atom_site_label
_atom_site_fract_x
_atom_site_fract_y
_atom_site_fract_z
Si Si1 0.375238 0.036044 0.867003
Si Si2 0.592290 0.228665 0.927627
Si Si3 0.457388 0.859094 0.882018
Si Si4 0.838151 0.500000 0.750000
Si Si5 0.808410 0.918966 0.464765
Si Si6 0.929515 0.660459 0.719123
O O1 0.391554 0.155395 0.892313
O O2 0.428336 0.031437 0.608399
O O3 0.361365 0.000000 0.750000
O O4 0.331018 0.999292 0.949829
O O5 0.565038 0.161459 0.838811
O O6 0.551967 0.209818 0.018713
O O7 0.647677 0.172854 0.959801
O O8 0.516915 0.873802 0.838703
O O9 0.424594 0.783241 0.806215
O O10 0.806540 0.460815 0.651283
O O11 0.877693 0.589278 0.703251
O O12 0.750000 0.884198 0.500000
#
# Coordination Sequence:
#
# PCOD9531333 Si02
#       6
#    16  16  16   8  16  16
#     4  11  22  42  69  99 131 171 224 274 322 396
#     4  10  22  43  61  92 135 170 214 278 321 385
#     4  10  22  37  62  92 131 172 221 255 319 393
#     4  10  22  42  64  92 138 172 216 280 326 400
#     4  10  24  44  69  96 127 174 221 276 346 387
#     4  10  21  38  58  92 130 177 213 257 325 376
#
# _framework density 20.888396
#
# number of rings (size 3 to 8) (size 9 to 14) (size 15 to 20)
#    0.000    1.818    1.818    1.091    2.545    3.636 
#    3.273   10.909    0.000    0.000    0.000    0.000 
#    0.000    0.000    0.000    0.000    0.000    0.000 
#
# Total GULP energy -245100.012974 kJ/mol
# GULP energy per Si atom -5570.454840 kJ/mol
# Density = 2.084085 g / cm^3
# Si number density = 20.888396 Si / 1000 Ang^3
#
#
#
# Elastic Constant Matrix: (Units=GPa)
#
#
# Indices 1 2 3 4 5 6 
#
# 1 108.0879 29.7264 74.5444 0.0000 0.0000 0.0000
# 2 29.7264 54.3980 25.9420 0.0000 0.0000 0.0000
# 3 74.5444 25.9420 129.8781 0.0000 0.0000 0.0000
# 4 0.0000 0.0000 0.0000 20.4395 0.0000 0.0000
# 5 0.0000 0.0000 0.0000 0.0000 38.3910 0.0000
# 6 0.0000 0.0000 0.0000 0.0000 0.0000 2.6955
#
#
#
# Elastic Compliance Matrix: (Units=1/GPa)
#
#
# Indices 1 2 3 4 5 6 
#
# 1 0.016439 -0.004956 -0.008446 0.000000 0.000000 0.000000
# 2 -0.004956 0.021812 -0.001512 0.000000 0.000000 0.000000
# 3 -0.008446 -0.001512 0.012849 0.000000 0.000000 0.000000
# 4 0.000000 0.000000 0.000000 0.048925 0.000000 0.000000
# 5 0.000000 0.000000 0.000000 0.000000 0.026048 0.000000
# 6 0.000000 0.000000 0.000000 0.000000 0.000000 0.370994
#
#
# Mechanical properties :
#
#
# Convention : Reuss Voigt Hill
#
# Bulk Modulus (GPa) = 47.00759 61.42105 54.21432
# Shear Modulus (GPa) = 9.36355 23.11528 16.23941
#
# Velocity S-wave (km/s) = 2.11952 3.33018 2.79128
# Velocity P-wave (km/s) = 5.34255 6.65245 6.03315
#
# Compressibility (1/GPa) = 0.02127316
#
# Stress axis : x y z
#
# Youngs Moduli (GPa) = 60.82999 45.84542 77.82711
#
# Poissons Ratio (x) = 0.22720 0.65729
# Poissons Ratio (y) = 0.30146 0.11771
# Poissons Ratio (z) = 0.51374 0.06934
#
# Static dielectric constant tensor:
#      x y z
#    x 1.703970 0.000000 0.000000 
#    y 0.000000 1.862880 0.000000 
#    z 0.000000 0.000000 1.973680 
# 
# From -- ./inp_files/14231.got.cif
#   From: 2010.05.17/outbox.cif.g08.bks.cpg/sg73_8_cif.got.tgz:14231.got - 2010.06.03 17:35:07.
