data_PCOD9531530
_publ_section_title
;
Structure prediction by ZEFSAII (Michael W. Deem and Ramdas Pophale) SiO2 
 PCOD9531530
Probable space group: I B C A 
;
_chemical_formula_sum "Si O2"
_cell_formula_units_Z 112
_cell_length_a 12.693835
_cell_length_b 15.057866
_cell_length_c 27.967102
_cell_angle_alpha 90.000000
_cell_angle_beta 90.000000
_cell_angle_gamma 90.000000
_cell_volume 5345.689669
_symmetry_space_group_name_H-M "I B C A "
_symmetry_group_IT_number 73
_symmetry_cell_setting 'orthorhombic'
loop_
_space_group_symop_operation_xyz
x,y,z
-x,1/2-y,z
x,-y,1/2-z
1/2-x,y,-z
-x,-y,-z
x,1/2+y,-z
-x,y,1/2+z
1/2+x,-y,z
1/2+x,1/2+y,1/2+z
1/2-x,-y,1/2+z
1/2+x,1/2-y,-z
-x,1/2+y,1/2-z
1/2-x,1/2-y,1/2-z
1/2+x,y,1/2-z
1/2-x,1/2+y,z
x,1/2-y,1/2+z
loop_
_atom_site_type_symbol
_atom_site_label
_atom_site_fract_x
_atom_site_fract_y
_atom_site_fract_z
Si Si1 0.540054 0.915985 0.066369
Si Si2 0.993530 0.116193 0.463371
Si Si3 0.649781 0.306595 0.612314
Si Si4 0.154798 0.073483 0.635561
Si Si5 0.717344 0.111948 0.593685
Si Si6 0.286802 0.395952 0.757416
Si Si7 0.391786 0.262572 0.215087
O O1 0.454672 0.906095 0.108656
O O2 0.660578 0.897479 0.079896
O O3 0.536160 0.018096 0.049004
O O4 0.501643 0.863138 0.019378
O O5 0.870265 0.111498 0.448677
O O6 0.068554 0.176540 0.430394
O O7 0.745184 0.376431 0.611925
O O8 0.702263 0.210330 0.613255
O O9 0.589929 0.306529 0.663041
O O10 0.155696 0.104141 0.690712
O O11 0.181480 0.969284 0.627701
O O12 0.265966 0.500000 0.750000
O O13 0.183456 0.335132 0.761629
O O14 0.347680 0.338031 0.717764
O O15 0.500000 0.250000 0.242251
#
# Coordination Sequence:
#
# PCOD9531530 Si02
#       7
#    16  16  16  16  16  16  16
#     4  10  22  41  64  92 133 172 211 274 328 387
#     4  10  21  40  65  93 129 168 222 264 323 394
#     4  11  22  41  67  94 126 172 218 268 325 402
#     4  10  23  43  63  94 132 171 219 270 335 391
#     4  11  21  40  65  93 127 176 214 270 327 389
#     4  10  22  43  65  98 130 168 222 275 335 410
#     4  10  22  42  66  94 132 169 214 276 338 398
#
# _framework density 20.951459
#
# number of rings (size 3 to 8) (size 9 to 14) (size 15 to 20)
#    0.000    1.714    1.429    2.571    0.000    2.857 
#   18.000    0.000    0.000    0.000    0.000    0.000 
#    0.000    0.000    0.000    0.000    0.000    0.000 
#
# Total GULP energy -312103.220735 kJ/mol
# GULP energy per Si atom -5573.271799 kJ/mol
# Density = 2.090377 g / cm^3
# Si number density = 20.951459 Si / 1000 Ang^3
#
#
#
# Elastic Constant Matrix: (Units=GPa)
#
#
# Indices 1 2 3 4 5 6 
#
# 1 137.0429 45.7021 56.1505 0.0000 0.0000 0.0000
# 2 45.7021 129.5688 22.5490 0.0000 0.0000 0.0000
# 3 56.1505 22.5490 92.6950 0.0000 0.0000 0.0000
# 4 0.0000 0.0000 0.0000 -13.2761 0.0000 0.0000
# 5 0.0000 0.0000 0.0000 0.0000 48.7604 0.0000
# 6 0.0000 0.0000 0.0000 0.0000 0.0000 32.9048
#
#
#
# Elastic Compliance Matrix: (Units=1/GPa)
#
#
# Indices 1 2 3 4 5 6 
#
# 1 0.010554 -0.002725 -0.005730 0.000000 0.000000 0.000000
# 2 -0.002725 0.008763 -0.000481 0.000000 0.000000 0.000000
# 3 -0.005730 -0.000481 0.014376 0.000000 0.000000 0.000000
# 4 0.000000 0.000000 0.000000 -0.075323 0.000000 0.000000
# 5 0.000000 0.000000 0.000000 0.000000 0.020508 0.000000
# 6 0.000000 0.000000 0.000000 0.000000 0.000000 0.030391
#
#
# Mechanical properties :
#
#
# Convention : Reuss Voigt Hill
#
# Bulk Modulus (GPa) = 63.20972 67.56777 65.38875
# Shear Modulus (GPa) = 154.25528 29.33815 91.79672
#
# Velocity S-wave (km/s) = 8.58981 3.74611 6.62640
# Velocity P-wave (km/s) = 11.34085 7.14358 9.47749
#
# Compressibility (1/GPa) = 0.01582035
#
# Stress axis : x y z
#
# Youngs Moduli (GPa) = 94.75472 114.11787 69.56059
#
# Poissons Ratio (x) = 0.31101 0.39858
# Poissons Ratio (y) = 0.25824 0.03344
# Poissons Ratio (z) = 0.54294 0.05487
#
# Static dielectric constant tensor:
#      x y z
#    x 1.739050 0.000000 0.000000 
#    y 0.000000 1.780660 0.000000 
#    z 0.000000 0.000000 1.829950 
# 
# From -- ./inp_files/34038.got.cif
#   From: 2010.05.17/outbox.cif.g08.bks.cpg/sg73_18_cif.got.tgz:34038.got - 2010.06.03 17:35:07.
