data_PCOD9531508
_publ_section_title
;
Structure prediction by ZEFSAII (Michael W. Deem and Ramdas Pophale) SiO2 
 PCOD9531508
Probable space group: I B C A 
;
_chemical_formula_sum "Si O2"
_cell_formula_units_Z 104
_cell_length_a 8.927488
_cell_length_b 20.762955
_cell_length_c 26.359168
_cell_angle_alpha 90.000000
_cell_angle_beta 90.000000
_cell_angle_gamma 90.000000
_cell_volume 4885.962573
_symmetry_space_group_name_H-M "I B C A "
_symmetry_group_IT_number 73
_symmetry_cell_setting 'orthorhombic'
loop_
_space_group_symop_operation_xyz
x,y,z
-x,1/2-y,z
x,-y,1/2-z
1/2-x,y,-z
-x,-y,-z
x,1/2+y,-z
-x,y,1/2+z
1/2+x,-y,z
1/2+x,1/2+y,1/2+z
1/2-x,-y,1/2+z
1/2+x,1/2-y,-z
-x,1/2+y,1/2-z
1/2-x,1/2-y,1/2-z
1/2+x,y,1/2-z
1/2-x,1/2+y,z
x,1/2-y,1/2+z
loop_
_atom_site_type_symbol
_atom_site_label
_atom_site_fract_x
_atom_site_fract_y
_atom_site_fract_z
Si Si1 0.237770 0.326672 0.239158
Si Si2 0.250000 0.702862 0.500000
Si Si3 0.507669 0.972242 0.071015
Si Si4 0.399296 0.379791 0.083018
Si Si5 0.000000 0.250000 0.573098
Si Si6 0.750000 0.016478 0.500000
Si Si7 0.971021 0.326992 0.821742
Si Si8 0.919313 0.366743 0.639913
O O1 0.250000 0.250000 0.250000
O O2 0.390959 0.350833 0.213899
O O3 0.111697 0.344447 0.197126
O O4 0.179061 0.349943 0.293575
O O5 0.366086 0.658183 0.468530
O O6 0.352360 0.742838 0.538635
O O7 0.638740 0.943529 0.035671
O O8 0.490368 0.934795 0.123544
O O9 0.554373 0.046415 0.077012
O O10 0.356970 0.974582 0.037003
O O11 0.520341 0.348766 0.120558
O O12 0.244784 0.371475 0.114082
O O13 0.993395 0.188296 0.609576
O O14 0.000000 0.250000 0.822150
#
# Coordination Sequence:
#
# PCOD9531508 Si02
#       8
#    16   8  16  16   8   8  16  16
#     4   9  19  38  64  88 119 154 209 253 325 379
#     4  10  23  43  56  88 127 178 201 266 320 387
#     4  11  21  41  61  90 124 170 223 262 315 401
#     4  10  21  40  63  83 131 167 206 256 330 381
#     4  10  24  38  60  86 130 162 214 270 328 368
#     4  10  23  35  64  86 119 178 219 252 316 387
#     4   9  19  37  62  90 115 162 203 258 313 387
#     4  10  22  40  62  93 122 164 211 272 321 389
#
# _framework density 21.285467000000001
#
# number of rings (size 3 to 8) (size 9 to 14) (size 15 to 20)
#    0.000    2.154    1.538    0.462   10.769    0.615 
#    2.769    0.769    0.000    3.692    0.000    0.000 
#    0.000    0.000    0.000    0.000    0.000    0.000 
#
# Total GULP energy -289944.955978 kJ/mol
# GULP energy per Si atom -5575.864538 kJ/mol
# Density = 2.123702 g / cm^3
# Si number density = 21.285467 Si / 1000 Ang^3
#
#
#
# Elastic Constant Matrix: (Units=GPa)
#
#
# Indices 1 2 3 4 5 6 
#
# 1 55.0860 23.6706 24.7864 0.0000 0.0000 0.0000
# 2 23.6706 73.0675 41.9725 0.0000 0.0000 0.0000
# 3 24.7864 41.9725 111.3320 0.0000 0.0000 0.0000
# 4 0.0000 0.0000 0.0000 31.6130 0.0000 0.0000
# 5 0.0000 0.0000 0.0000 0.0000 40.3217 0.0000
# 6 0.0000 0.0000 0.0000 0.0000 0.0000 23.9707
#
#
#
# Elastic Compliance Matrix: (Units=1/GPa)
#
#
# Indices 1 2 3 4 5 6 
#
# 1 0.021747 -0.005443 -0.002790 0.000000 0.000000 0.000000
# 2 -0.005443 0.018831 -0.005888 0.000000 0.000000 0.000000
# 3 -0.002790 -0.005888 0.011823 0.000000 0.000000 0.000000
# 4 0.000000 0.000000 0.000000 0.031633 0.000000 0.000000
# 5 0.000000 0.000000 0.000000 0.000000 0.024801 0.000000
# 6 0.000000 0.000000 0.000000 0.000000 0.000000 0.041718
#
#
# Mechanical properties :
#
#
# Convention : Reuss Voigt Hill
#
# Bulk Modulus (GPa) = 41.38855 46.70494 44.04675
# Shear Modulus (GPa) = 26.75994 29.11815 27.93904
#
# Velocity S-wave (km/s) = 3.54954 3.70264 3.62690
# Velocity P-wave (km/s) = 6.02376 6.34580 6.18688
#
# Compressibility (1/GPa) = 0.02416127
#
# Stress axis : x y z
#
# Youngs Moduli (GPa) = 45.98238 53.10326 84.58126
#
# Poissons Ratio (x) = 0.28902 0.23597
# Poissons Ratio (y) = 0.25026 0.49799
# Poissons Ratio (z) = 0.12828 0.31266
#
# Static dielectric constant tensor:
#      x y z
#    x 1.933290 0.000000 0.000000 
#    y 0.000000 1.796960 0.000000 
#    z 0.000000 0.000000 1.815670 
# 
# From -- ./inp_files/31308.got.cif
#   From: 2010.05.17/outbox.cif.g08.bks.cpg/sg73_16_cif.got.tgz:31308.got - 2010.06.03 17:35:07.
