data_PCOD9531609
_publ_section_title
;
Structure prediction by ZEFSAII (Michael W. Deem and Ramdas Pophale) SiO2 
 PCOD9531609
Probable space group: I B C A 
;
_chemical_formula_sum "Si O2"
_cell_formula_units_Z 120
_cell_length_a 20.853876
_cell_length_b 12.610441
_cell_length_c 22.246853
_cell_angle_alpha 90.000000
_cell_angle_beta 90.000000
_cell_angle_gamma 90.000000
_cell_volume 5850.401160
_symmetry_space_group_name_H-M "I B C A "
_symmetry_group_IT_number 73
_symmetry_cell_setting 'orthorhombic'
loop_
_space_group_symop_operation_xyz
x,y,z
-x,1/2-y,z
x,-y,1/2-z
1/2-x,y,-z
-x,-y,-z
x,1/2+y,-z
-x,y,1/2+z
1/2+x,-y,z
1/2+x,1/2+y,1/2+z
1/2-x,-y,1/2+z
1/2+x,1/2-y,-z
-x,1/2+y,1/2-z
1/2-x,1/2-y,1/2-z
1/2+x,y,1/2-z
1/2-x,1/2+y,z
x,1/2-y,1/2+z
loop_
_atom_site_type_symbol
_atom_site_label
_atom_site_fract_x
_atom_site_fract_y
_atom_site_fract_z
Si Si1 0.851706 0.716824 0.731049
Si Si2 0.572349 0.290913 0.347685
Si Si3 0.750000 0.194765 0.500000
Si Si4 0.856916 0.275379 0.909471
Si Si5 0.767821 0.097185 0.713138
Si Si6 0.067855 0.077738 0.442057
Si Si7 0.839488 0.104298 0.596346
Si Si8 0.072798 0.493908 0.421555
O O1 0.910597 0.703810 0.776548
O O2 0.859183 0.749784 0.661722
O O3 0.807815 0.803089 0.764096
O O4 0.806491 0.614205 0.726841
O O5 0.500000 0.250000 0.356393
O O6 0.618443 0.204908 0.380977
O O7 0.581622 0.406970 0.376841
O O8 0.709629 0.249783 0.554553
O O9 0.805420 0.130251 0.533820
O O10 0.909761 0.198594 0.938435
O O11 0.876397 0.398890 0.914861
O O12 0.782672 0.084944 0.643545
O O13 0.794152 0.000000 0.750000
O O14 0.071707 0.041202 0.511238
O O15 0.116389 0.998902 0.407850
O O16 0.997592 0.058368 0.415108
#
# Coordination Sequence:
#
# PCOD9531609 Si02
#       8
#    16  16   8  16  16  16  16  16
#     4  10  24  41  65  99 130 177 228 280 339 403
#     4  11  24  45  71  96 137 183 237 283 349 421
#     4  12  24  42  64  98 140 176 224 282 338 424
#     4  12  25  45  64 105 137 174 226 287 344 409
#     4  10  21  41  66  93 134 180 221 274 337 410
#     4  11  24  43  70  98 138 174 228 288 343 410
#     4  11  22  44  68  99 133 182 231 278 343 415
#     4  11  25  42  70 101 130 185 222 284 348 408
#
# _framework density 20.511413999999998
#
# number of rings (size 3 to 8) (size 9 to 14) (size 15 to 20)
#    0.000    1.067    4.000    2.000    1.867    1.600 
#    2.400    0.000    0.000    0.000    0.000    0.000 
#    0.000    0.000    0.000    0.000    0.000    0.000 
#
# Total GULP energy -334802.350590 kJ/mol
# GULP energy per Si atom -5580.039176 kJ/mol
# Density = 2.046473 g / cm^3
# Si number density = 20.511414 Si / 1000 Ang^3
#
#
#
# Elastic Constant Matrix: (Units=GPa)
#
#
# Indices 1 2 3 4 5 6 
#
# 1 71.2638 28.8217 18.4480 0.0000 0.0000 0.0000
# 2 28.8217 74.6091 12.8153 0.0000 0.0000 0.0000
# 3 18.4480 12.8153 95.8340 0.0000 0.0000 0.0000
# 4 0.0000 0.0000 0.0000 20.2476 0.0000 0.0000
# 5 0.0000 0.0000 0.0000 0.0000 27.7043 0.0000
# 6 0.0000 0.0000 0.0000 0.0000 0.0000 51.2798
#
#
#
# Elastic Compliance Matrix: (Units=1/GPa)
#
#
# Indices 1 2 3 4 5 6 
#
# 1 0.017187 -0.006214 -0.002478 0.000000 0.000000 0.000000
# 2 -0.006214 0.015965 -0.000939 0.000000 0.000000 0.000000
# 3 -0.002478 -0.000939 0.011037 0.000000 0.000000 0.000000
# 4 0.000000 0.000000 0.000000 0.049389 0.000000 0.000000
# 5 0.000000 0.000000 0.000000 0.000000 0.036096 0.000000
# 6 0.000000 0.000000 0.000000 0.000000 0.000000 0.019501
#
#
# Mechanical properties :
#
#
# Convention : Reuss Voigt Hill
#
# Bulk Modulus (GPa) = 40.11429 40.20853 40.16141
# Shear Modulus (GPa) = 28.28963 31.95447 30.12205
#
# Velocity S-wave (km/s) = 3.71781 3.95129 3.83632
# Velocity P-wave (km/s) = 6.16676 6.36101 6.26464
#
# Compressibility (1/GPa) = 0.02492877
#
# Stress axis : x y z
#
# Youngs Moduli (GPa) = 58.18425 62.63774 90.60299
#
# Poissons Ratio (x) = 0.38921 0.22447
# Poissons Ratio (y) = 0.36154 0.08505
# Poissons Ratio (z) = 0.14415 0.05880
#
# Static dielectric constant tensor:
#      x y z
#    x 1.736650 0.000000 0.000000 
#    y 0.000000 1.688650 0.000000 
#    z 0.000000 0.000000 1.774780 
# 
# From -- ./inp_files/30170.got.cif
#   From: 2010.05.17/outbox.cif.g08.bks.cpg/sg73_16_cif.got.tgz:30170.got - 2010.06.03 17:35:07.
