data_PCOD9531718
_publ_section_title
;
Structure prediction by ZEFSAII (Michael W. Deem and Ramdas Pophale) SiO2 
 PCOD9531718
Probable space group: I B C A 
;
_chemical_formula_sum "Si O2"
_cell_formula_units_Z 64
_cell_length_a 16.260766
_cell_length_b 9.693567
_cell_length_c 18.446220
_cell_angle_alpha 90.000000
_cell_angle_beta 90.000000
_cell_angle_gamma 90.000000
_cell_volume 2907.582194
_symmetry_space_group_name_H-M "I B C A "
_symmetry_group_IT_number 73
_symmetry_cell_setting 'orthorhombic'
loop_
_space_group_symop_operation_xyz
x,y,z
-x,1/2-y,z
x,-y,1/2-z
1/2-x,y,-z
-x,-y,-z
x,1/2+y,-z
-x,y,1/2+z
1/2+x,-y,z
1/2+x,1/2+y,1/2+z
1/2-x,-y,1/2+z
1/2+x,1/2-y,-z
-x,1/2+y,1/2-z
1/2-x,1/2-y,1/2-z
1/2+x,y,1/2-z
1/2-x,1/2+y,z
x,1/2-y,1/2+z
loop_
_atom_site_type_symbol
_atom_site_label
_atom_site_fract_x
_atom_site_fract_y
_atom_site_fract_z
Si Si1 0.250000 0.106148 0.000000
Si Si2 0.500000 0.750000 0.094619
Si Si3 0.345265 0.187298 0.810358
Si Si4 0.860216 0.359370 0.508946
Si Si5 0.194614 0.881118 0.156996
O O1 0.185449 0.216728 0.032008
O O2 0.311192 0.994361 0.036707
O O3 0.569328 0.809732 0.147303
O O4 0.450739 0.853236 0.041449
O O5 0.283329 0.311259 0.829627
O O6 0.358018 0.181088 0.723602
O O7 0.300609 0.044506 0.830978
O O8 0.847261 0.358729 0.421665
#
# Coordination Sequence:
#
# PCOD9531718 Si02
#       5
#     8   8  16  16  16
#     4  10  22  40  64  90 122 164 208 242 298 382
#     4  12  26  38  58  96 134 156 198 268 310 346
#     4  10  23  43  66  93 124 160 209 261 305 360
#     4  11  22  39  64  91 122 161 206 253 304 365
#     4  10  21  43  69  88 118 169 212 243 305 384
#
# _framework density 22.011413999999998
#
# number of rings (size 3 to 8) (size 9 to 14) (size 15 to 20)
#    0.000    1.500    0.000    6.000    0.000    5.000 
#    0.000   12.500    0.000    0.000    0.000    0.000 
#    0.000    0.000    0.000    0.000    0.000    0.000 
#
# Total GULP energy -178380.252359 kJ/mol
# GULP energy per Si atom -5574.382886 kJ/mol
# Density = 2.196131 g / cm^3
# Si number density = 22.011414 Si / 1000 Ang^3
#
#
#
# Elastic Constant Matrix: (Units=GPa)
#
#
# Indices 1 2 3 4 5 6 
#
# 1 130.8053 46.4796 51.0984 0.0000 0.0000 0.0000
# 2 46.4796 141.6654 23.8210 0.0000 0.0000 0.0000
# 3 51.0984 23.8210 174.0550 0.0000 0.0000 0.0000
# 4 0.0000 0.0000 0.0000 25.1565 0.0000 0.0000
# 5 0.0000 0.0000 0.0000 0.0000 46.2746 0.0000
# 6 0.0000 0.0000 0.0000 0.0000 0.0000 15.1418
#
#
#
# Elastic Compliance Matrix: (Units=1/GPa)
#
#
# Indices 1 2 3 4 5 6 
#
# 1 0.009566 -0.002729 -0.002435 0.000000 0.000000 0.000000
# 2 -0.002729 0.008004 -0.000294 0.000000 0.000000 0.000000
# 3 -0.002435 -0.000294 0.006500 0.000000 0.000000 0.000000
# 4 0.000000 0.000000 0.000000 0.039751 0.000000 0.000000
# 5 0.000000 0.000000 0.000000 0.000000 0.021610 0.000000
# 6 0.000000 0.000000 0.000000 0.000000 0.000000 0.066042
#
#
# Mechanical properties :
#
#
# Convention : Reuss Voigt Hill
#
# Bulk Modulus (GPa) = 76.02366 76.59155 76.30760
# Shear Modulus (GPa) = 29.98063 38.98969 34.48516
#
# Velocity S-wave (km/s) = 3.69460 4.21329 3.96244
# Velocity P-wave (km/s) = 7.26728 7.65121 7.46171
#
# Compressibility (1/GPa) = 0.01315380
#
# Stress axis : x y z
#
# Youngs Moduli (GPa) = 104.53878 124.94136 153.83727
#
# Poissons Ratio (x) = 0.34098 0.37456
# Poissons Ratio (y) = 0.28530 0.04526
# Poissons Ratio (z) = 0.25453 0.03676
#
# Static dielectric constant tensor:
#      x y z
#    x 1.818800 0.000000 0.000000 
#    y 0.000000 1.798700 0.000000 
#    z 0.000000 0.000000 2.052470 
# 
# From -- ./inp_files/26322.got.cif
#   From: 2010.05.17/outbox.cif.g08.bks.cpg/sg73_14_cif.got.tgz:26322.got - 2010.06.03 17:35:07.
