data_PCOD9531435
_publ_section_title
;
Structure prediction by ZEFSAII (Michael W. Deem and Ramdas Pophale) SiO2 
 PCOD9531435
Probable space group: I B C A 
;
_chemical_formula_sum "Si O2"
_cell_formula_units_Z 112
_cell_length_a 23.846375
_cell_length_b 10.677264
_cell_length_c 21.013313
_cell_angle_alpha 90.000000
_cell_angle_beta 90.000000
_cell_angle_gamma 90.000000
_cell_volume 5350.284544
_symmetry_space_group_name_H-M "I B C A "
_symmetry_group_IT_number 73
_symmetry_cell_setting 'orthorhombic'
loop_
_space_group_symop_operation_xyz
x,y,z
-x,1/2-y,z
x,-y,1/2-z
1/2-x,y,-z
-x,-y,-z
x,1/2+y,-z
-x,y,1/2+z
1/2+x,-y,z
1/2+x,1/2+y,1/2+z
1/2-x,-y,1/2+z
1/2+x,1/2-y,-z
-x,1/2+y,1/2-z
1/2-x,1/2-y,1/2-z
1/2+x,y,1/2-z
1/2-x,1/2+y,z
x,1/2-y,1/2+z
loop_
_atom_site_type_symbol
_atom_site_label
_atom_site_fract_x
_atom_site_fract_y
_atom_site_fract_z
Si Si1 0.815601 0.356845 0.982887
Si Si2 0.645089 0.411721 0.563315
Si Si3 0.650096 0.928301 0.840438
Si Si4 0.265033 0.500000 0.750000
Si Si5 0.667419 0.655455 0.791652
Si Si6 0.477397 0.886232 0.329148
Si Si7 0.932333 0.500000 0.250000
Si Si8 0.484202 0.125684 0.533931
O O1 0.827804 0.206856 0.975388
O O2 0.836963 0.412691 0.915013
O O3 0.750000 0.369112 0.000000
O O4 0.844331 0.450795 0.033889
O O5 0.664097 0.407620 0.637427
O O6 0.579326 0.380958 0.557568
O O7 0.693722 0.023388 0.809323
O O8 0.668545 0.799337 0.807620
O O9 0.585350 0.936805 0.818857
O O10 0.220014 0.388062 0.750745
O O11 0.610722 0.615157 0.755157
O O12 0.500000 0.750000 0.303084
O O13 0.477056 0.867227 0.404296
O O14 0.524393 0.985490 0.308137
O O15 0.500000 0.250000 0.494878
O O16 0.500000 0.000000 0.500000
#
# Coordination Sequence:
#
# PCOD9531435 Si02
#       8
#    16  16  16   8  16  16   8  16
#     4  11  23  39  65  91 128 169 215 264 320 388
#     4  11  21  41  62  93 123 167 209 260 323 378
#     4  11  22  41  58  92 123 167 207 261 330 373
#     4  11  23  36  62  88 121 159 212 268 300 381
#     4  10  21  39  63  85 122 163 211 255 324 378
#     4  11  20  38  64  87 118 165 210 256 317 383
#     4  11  19  38  62  88 111 163 214 250 308 389
#     4  11  21  38  63  91 124 164 204 256 317 382
#
# _framework density 20.933465000000002
#
# number of rings (size 3 to 8) (size 9 to 14) (size 15 to 20)
#    0.000    1.143    2.857    6.429    0.000    1.143 
#    0.000    3.571    0.000    0.000    0.000    0.000 
#    0.000    0.000    0.000    0.000    0.000    0.000 
#
# Total GULP energy -311860.865535 kJ/mol
# GULP energy per Si atom -5568.944027 kJ/mol
# Density = 2.088582 g / cm^3
# Si number density = 20.933465 Si / 1000 Ang^3
#
#
#
# Elastic Constant Matrix: (Units=GPa)
#
#
# Indices 1 2 3 4 5 6 
#
# 1 164.8452 9.2717 22.3131 0.0000 0.0000 0.0000
# 2 9.2717 60.3350 23.6889 0.0000 0.0000 0.0000
# 3 22.3131 23.6889 43.9894 0.0000 0.0000 0.0000
# 4 0.0000 0.0000 0.0000 33.3845 0.0000 0.0000
# 5 0.0000 0.0000 0.0000 0.0000 27.1251 0.0000
# 6 0.0000 0.0000 0.0000 0.0000 0.0000 18.8574
#
#
#
# Elastic Compliance Matrix: (Units=1/GPa)
#
#
# Indices 1 2 3 4 5 6 
#
# 1 0.006520 0.000376 -0.003510 0.000000 0.000000 0.000000
# 2 0.000376 0.021040 -0.011521 0.000000 0.000000 0.000000
# 3 -0.003510 -0.011521 0.030717 0.000000 0.000000 0.000000
# 4 0.000000 0.000000 0.000000 0.029954 0.000000 0.000000
# 5 0.000000 0.000000 0.000000 0.000000 0.036866 0.000000
# 6 0.000000 0.000000 0.000000 0.000000 0.000000 0.053030
#
#
# Mechanical properties :
#
#
# Convention : Reuss Voigt Hill
#
# Bulk Modulus (GPa) = 34.52104 42.19076 38.35590
# Shear Modulus (GPa) = 23.03165 30.13311 26.58238
#
# Velocity S-wave (km/s) = 3.32057 3.79815 3.56736
# Velocity P-wave (km/s) = 5.58822 6.27957 5.94396
#
# Compressibility (1/GPa) = 0.02896784
#
# Stress axis : x y z
#
# Youngs Moduli (GPa) = 153.36888 47.52911 32.55497
#
# Poissons Ratio (x) = -0.01787 0.11426
# Poissons Ratio (y) = -0.05768 0.37506
# Poissons Ratio (z) = 0.53830 0.54758
#
# Static dielectric constant tensor:
#      x y z
#    x 1.784810 0.000000 0.000000 
#    y 0.000000 1.871640 0.000000 
#    z 0.000000 0.000000 1.776040 
# 
# From -- ./inp_files/30168.got.cif
#   From: 2010.05.17/outbox.cif.g08.bks.cpg/sg73_16_cif.got.tgz:30168.got - 2010.06.03 17:35:07.
