data_PCOD9531340
_publ_section_title
;
Structure prediction by ZEFSAII (Michael W. Deem and Ramdas Pophale) SiO2 
 PCOD9531340
Probable space group: I B C A 
;
_chemical_formula_sum "Si O2"
_cell_formula_units_Z 88
_cell_length_a 14.085723
_cell_length_b 12.293039
_cell_length_c 20.473585
_cell_angle_alpha 90.000000
_cell_angle_beta 90.000000
_cell_angle_gamma 90.000000
_cell_volume 3545.131090
_symmetry_space_group_name_H-M "I B C A "
_symmetry_group_IT_number 73
_symmetry_cell_setting 'orthorhombic'
loop_
_space_group_symop_operation_xyz
x,y,z
-x,1/2-y,z
x,-y,1/2-z
1/2-x,y,-z
-x,-y,-z
x,1/2+y,-z
-x,y,1/2+z
1/2+x,-y,z
1/2+x,1/2+y,1/2+z
1/2-x,-y,1/2+z
1/2+x,1/2-y,-z
-x,1/2+y,1/2-z
1/2-x,1/2-y,1/2-z
1/2+x,y,1/2-z
1/2-x,1/2+y,z
x,1/2-y,1/2+z
loop_
_atom_site_type_symbol
_atom_site_label
_atom_site_fract_x
_atom_site_fract_y
_atom_site_fract_z
Si Si1 0.419041 0.173529 0.323847
Si Si2 0.117427 0.301888 0.316135
Si Si3 0.579991 0.669483 0.947091
Si Si4 0.750000 0.945273 0.500000
Si Si5 0.456784 0.034088 0.660756
Si Si6 0.259327 0.506308 0.644298
O O1 0.500000 0.250000 0.356866
O O2 0.379269 0.235335 0.259202
O O3 0.324359 0.114850 0.351160
O O4 0.484514 0.066769 0.314162
O O5 0.125473 0.230783 0.382674
O O6 0.189749 0.403350 0.323490
O O7 0.013905 0.359910 0.316794
O O8 0.500000 0.750000 0.972092
O O9 0.659272 0.633439 0.996608
O O10 0.536761 0.557403 0.917463
O O11 0.750463 0.013329 0.566521
O O12 0.345436 0.022664 0.673633
#
# Coordination Sequence:
#
# PCOD9531340 Si02
#       6
#    16  16  16   8  16  16
#     4  11  23  39  62  94 130 163 205 260 316 378
#     4  10  21  38  60  88 121 161 207 256 314 373
#     4   9  19  39  62  85 119 163 206 255 310 363
#     4  10  22  40  60  88 126 162 214 260 300 374
#     4   9  19  37  58  83 119 159 202 250 303 363
#     4  10  22  40  61  90 124 166 210 257 312 367
#
# _framework density 24.822776000000001
#
# number of rings (size 3 to 8) (size 9 to 14) (size 15 to 20)
#    0.000    2.182    0.000    3.818    0.000    7.273 
#    0.000   31.818    0.000    0.000    0.000    0.000 
#    0.000    0.000    0.000    0.000    0.000    0.000 
#
# Total GULP energy -245202.181251 kJ/mol
# GULP energy per Si atom -5572.776847 kJ/mol
# Density = 2.476628 g / cm^3
# Si number density = 24.822776 Si / 1000 Ang^3
#
#
#
# Elastic Constant Matrix: (Units=GPa)
#
#
# Indices 1 2 3 4 5 6 
#
# 1 131.6702 12.6035 20.5820 0.0000 0.0000 0.0000
# 2 12.6035 65.9192 1.0131 0.0000 0.0000 0.0000
# 3 20.5820 1.0131 76.6236 0.0000 0.0000 0.0000
# 4 0.0000 0.0000 0.0000 8.4522 0.0000 0.0000
# 5 0.0000 0.0000 0.0000 0.0000 31.1044 0.0000
# 6 0.0000 0.0000 0.0000 0.0000 0.0000 20.3882
#
#
#
# Elastic Compliance Matrix: (Units=1/GPa)
#
#
# Indices 1 2 3 4 5 6 
#
# 1 0.008075 -0.001511 -0.002149 0.000000 0.000000 0.000000
# 2 -0.001511 0.015456 0.000202 0.000000 0.000000 0.000000
# 3 -0.002149 0.000202 0.013625 0.000000 0.000000 0.000000
# 4 0.000000 0.000000 0.000000 0.118312 0.000000 0.000000
# 5 0.000000 0.000000 0.000000 0.000000 0.032150 0.000000
# 6 0.000000 0.000000 0.000000 0.000000 0.000000 0.049048
#
#
# Mechanical properties :
#
#
# Convention : Reuss Voigt Hill
#
# Bulk Modulus (GPa) = 33.06937 38.06780 35.56859
# Shear Modulus (GPa) = 19.71113 27.98992 23.85052
#
# Velocity S-wave (km/s) = 2.82099 3.36160 3.10309
# Velocity P-wave (km/s) = 4.89507 5.51691 5.21527
#
# Compressibility (1/GPa) = 0.03023946
#
# Stress axis : x y z
#
# Youngs Moduli (GPa) = 123.83434 64.70028 73.39217
#
# Poissons Ratio (x) = 0.09776 0.15773
# Poissons Ratio (y) = 0.18711 -0.01479
# Poissons Ratio (z) = 0.26614 -0.01304
#
# Static dielectric constant tensor:
#      x y z
#    x 2.015850 0.000000 0.000000 
#    y 0.000000 2.066290 0.000000 
#    z 0.000000 0.000000 2.030760 
# 
# From -- ./inp_files/29473.got.cif
#   From: 2010.05.17/outbox.cif.g08.bks.cpg/sg73_15_cif.got.tgz:29473.got - 2010.06.03 17:35:07.
