data_PCOD9531224
_publ_section_title
;
Structure prediction by ZEFSAII (Michael W. Deem and Ramdas Pophale) SiO2 
 PCOD9531224
Probable space group: I B C A 
;
_chemical_formula_sum "Si O2"
_cell_formula_units_Z 120
_cell_length_a 10.549156
_cell_length_b 28.732460
_cell_length_c 19.847944
_cell_angle_alpha 90.000000
_cell_angle_beta 90.000000
_cell_angle_gamma 90.000000
_cell_volume 6015.975395
_symmetry_space_group_name_H-M "I B C A "
_symmetry_group_IT_number 73
_symmetry_cell_setting 'orthorhombic'
loop_
_space_group_symop_operation_xyz
x,y,z
-x,1/2-y,z
x,-y,1/2-z
1/2-x,y,-z
-x,-y,-z
x,1/2+y,-z
-x,y,1/2+z
1/2+x,-y,z
1/2+x,1/2+y,1/2+z
1/2-x,-y,1/2+z
1/2+x,1/2-y,-z
-x,1/2+y,1/2-z
1/2-x,1/2-y,1/2-z
1/2+x,y,1/2-z
1/2-x,1/2+y,z
x,1/2-y,1/2+z
loop_
_atom_site_type_symbol
_atom_site_label
_atom_site_fract_x
_atom_site_fract_y
_atom_site_fract_z
Si Si1 0.000000 0.750000 0.520175
Si Si2 0.953397 0.841321 0.862969
Si Si3 0.040672 0.835546 0.617423
Si Si4 0.808812 0.702097 0.934979
Si Si5 0.249851 0.090537 0.076109
Si Si6 0.932713 0.604758 0.225981
Si Si7 0.805124 0.949715 0.216212
Si Si8 0.740846 0.268996 0.175305
O O1 0.991802 0.702580 0.561808
O O2 0.878958 0.755287 0.473092
O O3 0.871912 0.876869 0.908700
O O4 0.867180 0.796540 0.845930
O O5 0.083348 0.827163 0.898031
O O6 0.971283 0.865543 0.791203
O O7 0.131102 0.874616 0.585221
O O8 0.934293 0.862416 0.660019
O O9 0.127297 0.805847 0.669189
O O10 0.724694 0.726990 0.877936
O O11 0.750000 0.676167 0.000000
O O12 0.261366 0.054079 0.137827
O O13 0.250000 0.072041 0.000000
O O14 0.050124 0.568881 0.217995
O O15 0.796540 0.582409 0.243351
O O16 0.799330 0.000000 0.250000
O O17 0.750000 0.250000 0.250000
#
# Coordination Sequence:
#
# PCOD9531224 Si02
#       8
#     8  16  16  16  16  16  16  16
#     4  12  22  34  52  78 110 170 212 262 290 350
#     4  10  21  36  57  79 123 163 206 272 317 361
#     4  10  22  33  53  80 118 161 212 255 291 358
#     4  12  23  35  51  78 112 163 218 262 308 348
#     4   9  19  37  61  86 117 158 204 248 310 381
#     4  10  22  40  63  95 125 160 202 260 321 370
#     4  10  21  41  71  98 121 156 194 253 324 406
#     4  11  22  35  51  76 111 162 220 267 304 346
#
# _framework density 19.94689
#
# number of rings (size 3 to 8) (size 9 to 14) (size 15 to 20)
#    0.000    1.600    2.667    2.800    3.733    1.067 
#    0.000    0.000    0.000   15.200    0.000    0.000 
#    0.000    0.000    0.000    0.000    0.000    0.000 
#
# Total GULP energy -334993.392786 kJ/mol
# GULP energy per Si atom -5583.223213 kJ/mol
# Density = 1.990149 g / cm^3
# Si number density = 19.946890 Si / 1000 Ang^3
#
#
#
# Elastic Constant Matrix: (Units=GPa)
#
#
# Indices 1 2 3 4 5 6 
#
# 1 29.8507 5.7769 -14.2005 0.0000 0.0000 0.0000
# 2 5.7769 79.0136 42.9960 0.0001 0.0000 0.0000
# 3 -14.2005 42.9960 100.2336 0.0003 0.0000 0.0000
# 4 0.0000 0.0001 0.0003 16.1019 0.0000 0.0000
# 5 0.0000 0.0000 0.0000 0.0000 17.2047 0.0000
# 6 0.0000 0.0000 0.0000 0.0000 0.0000 21.8474
#
#
#
# Elastic Compliance Matrix: (Units=1/GPa)
#
#
# Indices 1 2 3 4 5 6 
#
# 1 0.039195 -0.007680 0.008847 0.000000 0.000000 0.000000
# 2 -0.007680 0.018015 -0.008816 0.000000 0.000000 0.000000
# 3 0.008847 -0.008816 0.015012 0.000000 0.000000 0.000000
# 4 0.000000 0.000000 0.000000 0.062105 0.000000 0.000000
# 5 0.000000 0.000000 0.000000 0.000000 0.058124 0.000000
# 6 0.000000 0.000000 0.000000 0.000000 0.000000 0.045772
#
#
# Mechanical properties :
#
#
# Convention : Reuss Voigt Hill
#
# Bulk Modulus (GPa) = 17.56699 30.91585 24.24142
# Shear Modulus (GPa) = 18.34908 22.66584 20.50746
#
# Velocity S-wave (km/s) = 3.03627 3.37458 3.20988
# Velocity P-wave (km/s) = 4.59542 5.54224 5.09089
#
# Compressibility (1/GPa) = 0.05692496
#
# Stress axis : x y z
#
# Youngs Moduli (GPa) = 25.51333 55.51033 66.61482
#
# Poissons Ratio (x) = 0.42632 -0.58937
# Poissons Ratio (y) = 0.19594 0.58725
# Poissons Ratio (z) = -0.22573 0.48936
#
# Static dielectric constant tensor:
#      x y z
#    x 1.798830 0.000000 0.000000 
#    y 0.000000 1.708530 0.000000 
#    z 0.000000 0.000000 1.727260 
# 
# From -- ./inp_files/21555.got.cif
#   From: 2010.05.17/outbox.cif.g08.bks.cpg/sg73_11_cif.got.tgz:21555.got - 2010.06.03 17:35:07.
