data_PCOD9531385
_publ_section_title
;
Structure prediction by ZEFSAII (Michael W. Deem and Ramdas Pophale) SiO2 
 PCOD9531385
Probable space group: I B C A 
;
_chemical_formula_sum "Si O2"
_cell_formula_units_Z 88
_cell_length_a 8.477564
_cell_length_b 22.995090
_cell_length_c 19.122302
_cell_angle_alpha 90.000000
_cell_angle_beta 90.000000
_cell_angle_gamma 90.000000
_cell_volume 3727.746435
_symmetry_space_group_name_H-M "I B C A "
_symmetry_group_IT_number 73
_symmetry_cell_setting 'orthorhombic'
loop_
_space_group_symop_operation_xyz
x,y,z
-x,1/2-y,z
x,-y,1/2-z
1/2-x,y,-z
-x,-y,-z
x,1/2+y,-z
-x,y,1/2+z
1/2+x,-y,z
1/2+x,1/2+y,1/2+z
1/2-x,-y,1/2+z
1/2+x,1/2-y,-z
-x,1/2+y,1/2-z
1/2-x,1/2-y,1/2-z
1/2+x,y,1/2-z
1/2-x,1/2+y,z
x,1/2-y,1/2+z
loop_
_atom_site_type_symbol
_atom_site_label
_atom_site_fract_x
_atom_site_fract_y
_atom_site_fract_z
Si Si1 0.947606 0.073852 0.298726
Si Si2 0.709916 0.340843 0.109183
Si Si3 0.941879 0.388478 0.642336
Si Si4 0.730628 0.986768 0.378730
Si Si5 0.684279 0.767513 0.673736
Si Si6 0.250000 0.573222 0.000000
O O1 0.893180 0.136676 0.326253
O O2 0.973391 0.080710 0.216983
O O3 0.095540 0.048643 0.339985
O O4 0.809199 0.030553 0.322816
O O5 0.724418 0.271681 0.115926
O O6 0.647071 0.379840 0.044503
O O7 0.892158 0.362721 0.116464
O O8 0.857115 0.438284 0.597725
O O9 0.820567 0.335518 0.656208
O O10 0.683283 0.028117 0.442777
O O11 0.500000 0.750000 0.673828
O O12 0.750000 0.750000 0.750000
#
# Coordination Sequence:
#
# PCOD9531385 Si02
#       6
#    16  16  16  16  16   8
#     4  11  22  38  60  92 129 158 210 266 329 377
#     4  10  22  40  64  90 120 172 203 259 315 382
#     4  11  22  38  62  95 127 154 210 265 332 376
#     4  11  24  37  60  88 123 172 207 260 314 384
#     4  10  21  38  65  94 126 156 200 260 327 376
#     4  10  24  44  60  82 130 170 222 244 306 376
#
# _framework density 23.606757000000002
#
# number of rings (size 3 to 8) (size 9 to 14) (size 15 to 20)
#    0.000    1.455    1.818    3.818    2.545    9.455 
#    0.000    0.909    0.000    7.636    0.000    0.000 
#    0.000    0.000    0.000    0.000    0.000    0.000 
#
# Total GULP energy -245699.648804 kJ/mol
# GULP energy per Si atom -5584.082927 kJ/mol
# Density = 2.355303 g / cm^3
# Si number density = 23.606757 Si / 1000 Ang^3
#
#
#
# Elastic Constant Matrix: (Units=GPa)
#
#
# Indices 1 2 3 4 5 6 
#
# 1 77.1444 32.3759 11.5115 0.0000 0.0000 0.0000
# 2 32.3759 145.9372 38.3507 0.0000 0.0000 0.0000
# 3 11.5115 38.3507 73.9260 0.0000 0.0000 0.0000
# 4 0.0000 0.0000 0.0000 26.6581 0.0000 0.0000
# 5 0.0000 0.0000 0.0000 0.0000 14.4438 0.0000
# 6 0.0000 0.0000 0.0000 0.0000 0.0000 31.3949
#
#
#
# Elastic Compliance Matrix: (Units=1/GPa)
#
#
# Indices 1 2 3 4 5 6 
#
# 1 0.014322 -0.003000 -0.000674 0.000000 0.000000 0.000000
# 2 -0.003000 0.008562 -0.003975 0.000000 0.000000 0.000000
# 3 -0.000674 -0.003975 0.015694 0.000000 0.000000 0.000000
# 4 0.000000 0.000000 0.000000 0.037512 0.000000 0.000000
# 5 0.000000 0.000000 0.000000 0.000000 0.069234 0.000000
# 6 0.000000 0.000000 0.000000 0.000000 0.000000 0.031852
#
#
# Mechanical properties :
#
#
# Convention : Reuss Voigt Hill
#
# Bulk Modulus (GPa) = 42.95327 51.27597 47.11462
# Shear Modulus (GPa) = 24.97063 28.81731 26.89397
#
# Velocity S-wave (km/s) = 3.25587 3.49768 3.37894
# Velocity P-wave (km/s) = 5.68939 6.17087 5.93501
#
# Compressibility (1/GPa) = 0.02328111
#
# Stress axis : x y z
#
# Youngs Moduli (GPa) = 69.82056 116.78980 63.71897
#
# Poissons Ratio (x) = 0.35041 0.04293
# Poissons Ratio (y) = 0.20949 0.25326
# Poissons Ratio (z) = 0.04704 0.46421
#
# Static dielectric constant tensor:
#      x y z
#    x 1.949060 0.000000 0.000000 
#    y 0.000000 1.928610 0.000000 
#    z 0.000000 0.000000 1.969990 
# 
# From -- ./inp_files/24803.got.cif
#   From: 2010.05.17/outbox.cif.g08.bks.cpg/sg73_13_cif.got.tgz:24803.got - 2010.06.03 17:35:07.
