data_PCOD9531231
_publ_section_title
;
Structure prediction by ZEFSAII (Michael W. Deem and Ramdas Pophale) SiO2 
 PCOD9531231
Probable space group: I B C A 
;
_chemical_formula_sum "Si O2"
_cell_formula_units_Z 120
_cell_length_a 24.106495
_cell_length_b 26.583104
_cell_length_c 9.764939
_cell_angle_alpha 90.000000
_cell_angle_beta 90.000000
_cell_angle_gamma 90.000000
_cell_volume 6257.621562
_symmetry_space_group_name_H-M "I B C A "
_symmetry_group_IT_number 73
_symmetry_cell_setting 'orthorhombic'
loop_
_space_group_symop_operation_xyz
x,y,z
-x,1/2-y,z
x,-y,1/2-z
1/2-x,y,-z
-x,-y,-z
x,1/2+y,-z
-x,y,1/2+z
1/2+x,-y,z
1/2+x,1/2+y,1/2+z
1/2-x,-y,1/2+z
1/2+x,1/2-y,-z
-x,1/2+y,1/2-z
1/2-x,1/2-y,1/2-z
1/2+x,y,1/2-z
1/2-x,1/2+y,z
x,1/2-y,1/2+z
loop_
_atom_site_type_symbol
_atom_site_label
_atom_site_fract_x
_atom_site_fract_y
_atom_site_fract_z
Si Si1 0.417202 0.392453 0.072896
Si Si2 0.536382 0.647870 0.400272
Si Si3 0.910499 0.679960 0.844069
Si Si4 0.822891 0.272471 0.862969
Si Si5 0.500000 0.250000 0.982069
Si Si6 0.696658 0.308433 0.846690
Si Si7 0.442590 0.001669 0.911932
Si Si8 0.618582 0.106200 0.382730
O O1 0.482910 0.383353 0.058353
O O2 0.408604 0.451388 0.048295
O O3 0.404173 0.382842 0.231228
O O4 0.388983 0.352432 0.972022
O O5 0.551690 0.640982 0.243060
O O6 0.521878 0.705859 0.422628
O O7 0.585522 0.636071 0.502300
O O8 0.865941 0.698284 0.733570
O O9 0.950505 0.724785 0.895224
O O10 0.762350 0.298225 0.847010
O O11 0.822350 0.216880 0.796220
O O12 0.830310 0.276157 0.026861
O O13 0.678560 0.366112 0.873985
O O14 0.400014 0.049104 0.919241
O O15 0.458275 0.000000 0.750000
O O16 0.500000 0.000000 0.000000
#
# Coordination Sequence:
#
# PCOD9531231 Si02
#       8
#    16  16  16  16   8  16  16  16
#     4  10  22  35  54  84 117 149 196 236 298 361
#     4  11  20  34  52  77 114 159 192 234 283 361
#     4  11  22  35  54  82 117 160 198 242 292 363
#     4  10  22  39  61  87 113 153 200 248 294 359
#     4  10  22  32  48  78 124 158 196 230 290 360
#     4  10  22  40  61  86 114 150 201 250 301 346
#     4  10  21  36  58  84 115 154 196 243 293 360
#     4  11  21  37  57  81 113 153 192 243 300 348
#
# _framework density 19.176615000000002
#
# number of rings (size 3 to 8) (size 9 to 14) (size 15 to 20)
#    0.000    1.600    2.667    2.800    3.733    2.133 
#    0.000    0.000    0.000    0.000   20.800    0.000 
#    0.000    0.000    0.000    0.000    0.000    0.000 
#
# Total GULP energy -334233.327053 kJ/mol
# GULP energy per Si atom -5570.555451 kJ/mol
# Density = 1.913297 g / cm^3
# Si number density = 19.176615 Si / 1000 Ang^3
#
#
#
# Elastic Constant Matrix: (Units=GPa)
#
#
# Indices 1 2 3 4 5 6 
#
# 1 56.9750 34.9428 23.1753 0.0000 0.0000 0.0000
# 2 34.9428 115.1103 36.7688 0.0000 0.0000 0.0000
# 3 23.1753 36.7688 98.8285 0.0000 0.0000 0.0000
# 4 0.0000 0.0000 0.0000 25.9841 0.0000 0.0000
# 5 0.0000 0.0000 0.0000 0.0000 15.4750 0.0000
# 6 0.0000 0.0000 0.0000 0.0000 0.0000 15.9415
#
#
#
# Elastic Compliance Matrix: (Units=1/GPa)
#
#
# Indices 1 2 3 4 5 6 
#
# 1 0.022366 -0.005804 -0.003086 0.000000 0.000000 0.000000
# 2 -0.005804 0.011365 -0.002867 0.000000 0.000000 0.000000
# 3 -0.003086 -0.002867 0.011909 0.000000 0.000000 0.000000
# 4 0.000000 0.000000 0.000000 0.038485 0.000000 0.000000
# 5 0.000000 0.000000 0.000000 0.000000 0.064620 0.000000
# 6 0.000000 0.000000 0.000000 0.000000 0.000000 0.062729
#
#
# Mechanical properties :
#
#
# Convention : Reuss Voigt Hill
#
# Bulk Modulus (GPa) = 45.19448 51.18751 48.19099
# Shear Modulus (GPa) = 20.63015 23.21525 21.92270
#
# Velocity S-wave (km/s) = 3.28349 3.48315 3.38479
# Velocity P-wave (km/s) = 6.16391 6.55187 6.36085
#
# Compressibility (1/GPa) = 0.02212660
#
# Stress axis : x y z
#
# Youngs Moduli (GPa) = 44.71040 87.98929 83.97099
#
# Poissons Ratio (x) = 0.51068 0.25910
# Poissons Ratio (y) = 0.25949 0.24077
# Poissons Ratio (z) = 0.13796 0.25229
#
# Static dielectric constant tensor:
#      x y z
#    x 1.691650 0.000000 0.000000 
#    y 0.000000 1.759530 0.000000 
#    z 0.000000 0.000000 1.699480 
# 
# From -- ./inp_files/8116.got.cif
#   From: 2010.05.17/outbox.cif.g08.bks.cpg/sg73_5_cif.got.tgz:8116.got - 2010.06.03 17:35:07.
