data_PCOD9531757
_publ_section_title
;
Structure prediction by ZEFSAII (Michael W. Deem and Ramdas Pophale) SiO2 
 PCOD9531757
Probable space group: I B C A 
;
_chemical_formula_sum "Si O2"
_cell_formula_units_Z 104
_cell_length_a 19.193308
_cell_length_b 19.668259
_cell_length_c 10.792230
_cell_angle_alpha 90.000000
_cell_angle_beta 90.000000
_cell_angle_gamma 90.000000
_cell_volume 4074.055523
_symmetry_space_group_name_H-M "I B C A "
_symmetry_group_IT_number 73
_symmetry_cell_setting 'orthorhombic'
loop_
_space_group_symop_operation_xyz
x,y,z
-x,1/2-y,z
x,-y,1/2-z
1/2-x,y,-z
-x,-y,-z
x,1/2+y,-z
-x,y,1/2+z
1/2+x,-y,z
1/2+x,1/2+y,1/2+z
1/2-x,-y,1/2+z
1/2+x,1/2-y,-z
-x,1/2+y,1/2-z
1/2-x,1/2-y,1/2-z
1/2+x,y,1/2-z
1/2-x,1/2+y,z
x,1/2-y,1/2+z
loop_
_atom_site_type_symbol
_atom_site_label
_atom_site_fract_x
_atom_site_fract_y
_atom_site_fract_z
Si Si1 0.250000 0.799341 0.500000
Si Si2 0.457803 0.687251 0.753930
Si Si3 0.127287 0.713061 0.570559
Si Si4 0.208126 0.882459 0.263983
Si Si5 0.105056 0.046080 0.054218
Si Si6 0.849528 0.071099 0.282499
Si Si7 0.536247 0.900225 0.445391
O O1 0.181488 0.753962 0.490150
O O2 0.247316 0.840102 0.372188
O O3 0.500000 0.750000 0.684911
O O4 0.421652 0.733769 0.860454
O O5 0.393495 0.634622 0.736161
O O6 0.512515 0.633179 0.814925
O O7 0.172855 0.667598 0.665982
O O8 0.078880 0.661521 0.496969
O O9 0.148750 0.926352 0.330963
O O10 0.273679 0.926550 0.217572
O O11 0.150195 0.064306 0.932118
O O12 0.031509 0.083025 0.026226
O O13 0.083526 0.967134 0.065074
O O14 0.887058 0.000000 0.250000
#
# Coordination Sequence:
#
# PCOD9531757 Si02
#       7
#     8  16  16  16  16  16  16
#     4  12  22  44  66  96 148 176 234 298 344 426
#     4   9  19  44  65  92 137 179 227 295 346 420
#     4  11  24  41  70 101 136 187 243 285 357 436
#     4  12  24  44  71 101 139 194 229 293 373 430
#     4  10  21  45  66  97 137 183 226 298 364 421
#     4  11  23  40  69 101 141 180 239 296 353 430
#     4   9  21  43  66  94 135 176 237 289 349 430
#
# _framework density 25.527388999999999
#
# number of rings (size 3 to 8) (size 9 to 14) (size 15 to 20)
#    0.000    1.538    3.077    1.385    2.154    1.231 
#   24.923    1.538    0.000    0.000    0.000    0.000 
#    0.000    0.000    0.000    0.000    0.000    0.000 
#
# Total GULP energy -290659.779463 kJ/mol
# GULP energy per Si atom -5589.611144 kJ/mol
# Density = 2.546929 g / cm^3
# Si number density = 25.527389 Si / 1000 Ang^3
#
#
#
# Elastic Constant Matrix: (Units=GPa)
#
#
# Indices 1 2 3 4 5 6 
#
# 1 119.2009 57.4522 -9.7220 0.0000 0.0000 0.0000
# 2 57.4522 164.9846 8.4500 0.0000 0.0000 0.0000
# 3 -9.7220 8.4500 38.4584 0.0000 0.0000 0.0000
# 4 0.0000 0.0000 0.0000 21.1280 0.0000 0.0000
# 5 0.0000 0.0000 0.0000 0.0000 56.4218 0.0000
# 6 0.0000 0.0000 0.0000 0.0000 0.0000 63.2427
#
#
#
# Elastic Compliance Matrix: (Units=1/GPa)
#
#
# Indices 1 2 3 4 5 6 
#
# 1 0.010529 -0.003846 0.003507 0.000000 0.000000 0.000000
# 2 -0.003846 0.007535 -0.002628 0.000000 0.000000 0.000000
# 3 0.003507 -0.002628 0.027466 0.000000 0.000000 0.000000
# 4 0.000000 0.000000 0.000000 0.047331 0.000000 0.000000
# 5 0.000000 0.000000 0.000000 0.000000 0.017724 0.000000
# 6 0.000000 0.000000 0.000000 0.000000 0.000000 0.015812
#
#
# Mechanical properties :
#
#
# Convention : Reuss Voigt Hill
#
# Bulk Modulus (GPa) = 25.25540 48.33381 36.79461
# Shear Modulus (GPa) = 34.35735 45.92275 40.14005
#
# Velocity S-wave (km/s) = 3.67263 4.24602 3.96969
# Velocity P-wave (km/s) = 5.28197 6.55846 5.95452
#
# Compressibility (1/GPa) = 0.03959549
#
# Stress axis : x y z
#
# Youngs Moduli (GPa) = 94.97655 132.71282 36.40869
#
# Poissons Ratio (x) = 0.51042 -0.12767
# Poissons Ratio (y) = 0.36529 0.09568
# Poissons Ratio (z) = -0.33305 0.34875
#
# Static dielectric constant tensor:
#      x y z
#    x 2.089530 0.000000 0.000000 
#    y 0.000000 2.111170 0.000000 
#    z 0.000000 0.000000 1.866620 
# 
# From -- ./inp_files/18822.got.cif
#   From: 2010.05.17/outbox.cif.g08.bks.cpg/sg73_10_cif.got.tgz:18822.got - 2010.06.03 17:35:07.
