data_PCOD9531237
_publ_section_title
;
Structure prediction by ZEFSAII (Michael W. Deem and Ramdas Pophale) SiO2 
 PCOD9531237
Probable space group: I B C A 
;
_chemical_formula_sum "Si O2"
_cell_formula_units_Z 56
_cell_length_a 5.548806
_cell_length_b 31.341581
_cell_length_c 13.305936
_cell_angle_alpha 90.000000
_cell_angle_beta 90.000000
_cell_angle_gamma 90.000000
_cell_volume 2314.013411
_symmetry_space_group_name_H-M "I B C A "
_symmetry_group_IT_number 73
_symmetry_cell_setting 'orthorhombic'
loop_
_space_group_symop_operation_xyz
x,y,z
-x,1/2-y,z
x,-y,1/2-z
1/2-x,y,-z
-x,-y,-z
x,1/2+y,-z
-x,y,1/2+z
1/2+x,-y,z
1/2+x,1/2+y,1/2+z
1/2-x,-y,1/2+z
1/2+x,1/2-y,-z
-x,1/2+y,1/2-z
1/2-x,1/2-y,1/2-z
1/2+x,y,1/2-z
1/2-x,1/2+y,z
x,1/2-y,1/2+z
loop_
_atom_site_type_symbol
_atom_site_label
_atom_site_fract_x
_atom_site_fract_y
_atom_site_fract_z
Si Si1 0.750000 0.224877 0.500000
Si Si2 0.541153 0.514853 0.115097
Si Si3 0.135678 0.612564 0.361541
Si Si4 0.362747 0.353278 0.631687
O O1 0.500000 0.250000 0.478999
O O2 0.685060 0.194946 0.596044
O O3 0.262836 0.514835 0.153424
O O4 0.648899 0.561685 0.132377
O O5 0.500000 0.500000 0.000000
O O6 0.378338 0.631701 0.406657
O O7 0.126967 0.633603 0.249671
O O8 0.876368 0.623345 0.406074
#
# Coordination Sequence:
#
# PCOD9531237 Si02
#       4
#     8  16  16  16
#     4  12  26  46  70 102 130 158 210 280 346 412
#     4  10  21  36  59  95 132 174 220 275 318 353
#     4  10  21  43  65  94 131 178 228 264 320 406
#     4  10  23  43  68  93 127 175 216 268 335 406
#
# _framework density 24.200378000000001
#
# number of rings (size 3 to 8) (size 9 to 14) (size 15 to 20)
#    0.000    1.714    0.000    3.429    0.000    6.857 
#    0.000   34.286    0.000    0.000    0.000    0.000 
#    0.000    0.000    0.000    0.000    0.000    0.000 
#
# Total GULP energy -156152.921489 kJ/mol
# GULP energy per Si atom -5576.890053 kJ/mol
# Density = 2.414530 g / cm^3
# Si number density = 24.200378 Si / 1000 Ang^3
#
#
#
# Elastic Constant Matrix: (Units=GPa)
#
#
# Indices 1 2 3 4 5 6 
#
# 1 271.9066 56.8488 37.0587 0.0000 0.0000 0.0000
# 2 56.8488 147.9412 32.9665 0.0000 0.0000 0.0000
# 3 37.0587 32.9665 155.8419 0.0000 0.0000 0.0000
# 4 0.0000 0.0000 0.0000 38.0310 0.0000 0.0000
# 5 0.0000 0.0000 0.0000 0.0000 4.3865 0.0000
# 6 0.0000 0.0000 0.0000 0.0000 0.0000 76.1566
#
#
#
# Elastic Compliance Matrix: (Units=1/GPa)
#
#
# Indices 1 2 3 4 5 6 
#
# 1 0.004064 -0.001413 -0.000668 0.000000 0.000000 0.000000
# 2 -0.001413 0.007585 -0.001269 0.000000 0.000000 0.000000
# 3 -0.000668 -0.001269 0.006844 0.000000 0.000000 0.000000
# 4 0.000000 0.000000 0.000000 0.026294 0.000000 0.000000
# 5 0.000000 0.000000 0.000000 0.000000 0.227971 0.000000
# 6 0.000000 0.000000 0.000000 0.000000 0.000000 0.013131
#
#
# Mechanical properties :
#
#
# Convention : Reuss Voigt Hill
#
# Bulk Modulus (GPa) = 84.78188 92.15975 88.47081
# Shear Modulus (GPa) = 16.86231 53.63588 35.24909
#
# Velocity S-wave (km/s) = 2.64252 4.71289 3.82062
# Velocity P-wave (km/s) = 6.66483 8.23285 7.48998
#
# Compressibility (1/GPa) = 0.01179497
#
# Stress axis : x y z
#
# Youngs Moduli (GPa) = 246.05531 131.83799 146.11676
#
# Poissons Ratio (x) = 0.18628 0.09754
# Poissons Ratio (y) = 0.34766 0.18535
# Poissons Ratio (z) = 0.16425 0.16724
#
# Static dielectric constant tensor:
#      x y z
#    x 2.006680 0.000000 0.000000 
#    y 0.000000 1.919400 0.000000 
#    z 0.000000 0.000000 2.285630 
# 
# From -- ./inp_files/2458.got.cif
#   From: 2010.05.17/outbox.cif.g08.bks.cpg/sg73_2_cif.got.tgz:2458.got - 2010.06.03 17:35:07.
