data_PCOD9531455
_publ_section_title
;
Structure prediction by ZEFSAII (Michael W. Deem and Ramdas Pophale) SiO2 
 PCOD9531455
Probable space group: I B C A 
;
_chemical_formula_sum "Si O2"
_cell_formula_units_Z 120
_cell_length_a 9.090572
_cell_length_b 25.708214
_cell_length_c 25.035320
_cell_angle_alpha 90.000000
_cell_angle_beta 90.000000
_cell_angle_gamma 90.000000
_cell_volume 5850.813627
_symmetry_space_group_name_H-M "I B C A "
_symmetry_group_IT_number 73
_symmetry_cell_setting 'orthorhombic'
loop_
_space_group_symop_operation_xyz
x,y,z
-x,1/2-y,z
x,-y,1/2-z
1/2-x,y,-z
-x,-y,-z
x,1/2+y,-z
-x,y,1/2+z
1/2+x,-y,z
1/2+x,1/2+y,1/2+z
1/2-x,-y,1/2+z
1/2+x,1/2-y,-z
-x,1/2+y,1/2-z
1/2-x,1/2-y,1/2-z
1/2+x,y,1/2-z
1/2-x,1/2+y,z
x,1/2-y,1/2+z
loop_
_atom_site_type_symbol
_atom_site_label
_atom_site_fract_x
_atom_site_fract_y
_atom_site_fract_z
Si Si1 0.963525 0.448165 0.216108
Si Si2 0.500000 0.750000 0.892216
Si Si3 0.577184 0.164957 0.177682
Si Si4 0.909088 0.401115 0.516789
Si Si5 0.298546 0.125856 0.230419
Si Si6 0.157464 0.021609 0.615115
Si Si7 0.922450 0.300900 0.998304
Si Si8 0.463501 0.433400 0.101543
O O1 0.920178 0.500000 0.250000
O O2 0.076291 0.415004 0.251963
O O3 0.064002 0.459884 0.165329
O O4 0.825994 0.410526 0.203103
O O5 0.391505 0.781413 0.853374
O O6 0.454691 0.705253 0.934720
O O7 0.407630 0.166230 0.200259
O O8 0.702867 0.151925 0.221522
O O9 0.569739 0.118106 0.134781
O O10 0.750000 0.378116 0.500000
O O11 0.889948 0.442459 0.564324
O O12 0.956717 0.427947 0.461987
O O13 0.016456 0.352808 0.525160
O O14 0.330924 0.029033 0.619823
O O15 0.116864 0.961407 0.610829
O O16 0.000000 0.250000 0.022733
O O17 0.750000 0.297555 0.000000
#
# Coordination Sequence:
#
# PCOD9531455 Si02
#       8
#    16   8  16  16  16  16  16  16
#     4  11  22  37  58  91 123 166 212 254 310 376
#     4  10  24  42  72  90 122 172 212 264 344 388
#     4  11  22  44  65  89 129 163 219 270 328 389
#     4  10  22  41  62  87 131 167 210 266 322 390
#     4  10  23  38  61  88 123 160 206 267 315 377
#     4  11  24  35  61  91 125 174 210 258 319 382
#     4  10  21  39  64  95 119 163 216 267 323 385
#     4  11  22  40  58  91 129 172 209 262 322 392
#
# _framework density 20.509968000000001
#
# number of rings (size 3 to 8) (size 9 to 14) (size 15 to 20)
#    0.400    1.067    2.667    2.800    3.733    2.667 
#    0.000    0.000    0.000    0.000    0.000    0.000 
#    0.000    0.000    0.000    0.000    0.000    0.000 
#
# Total GULP energy -334182.566909 kJ/mol
# GULP energy per Si atom -5569.709448 kJ/mol
# Density = 2.046329 g / cm^3
# Si number density = 20.509968 Si / 1000 Ang^3
#
#
#
# Elastic Constant Matrix: (Units=GPa)
#
#
# Indices 1 2 3 4 5 6 
#
# 1 51.8744 -0.0142 -15.5891 0.0000 0.0000 0.0000
# 2 -0.0142 36.7567 -5.9966 0.0000 0.0000 0.0000
# 3 -15.5891 -5.9966 55.4871 0.0000 0.0000 0.0000
# 4 0.0000 0.0000 0.0000 18.2696 0.0000 0.0000
# 5 0.0000 0.0000 0.0000 0.0000 34.8421 0.0000
# 6 0.0000 0.0000 0.0000 0.0000 0.0000 20.7984
#
#
#
# Elastic Compliance Matrix: (Units=1/GPa)
#
#
# Indices 1 2 3 4 5 6 
#
# 1 0.021090 0.000992 0.006033 0.000000 0.000000 0.000000
# 2 0.000992 0.027741 0.003277 0.000000 0.000000 0.000000
# 3 0.006033 0.003277 0.020071 0.000000 0.000000 0.000000
# 4 0.000000 0.000000 0.000000 0.054736 0.000000 0.000000
# 5 0.000000 0.000000 0.000000 0.000000 0.028701 0.000000
# 6 0.000000 0.000000 0.000000 0.000000 0.000000 0.048081
#
#
# Mechanical properties :
#
#
# Convention : Reuss Voigt Hill
#
# Bulk Modulus (GPa) = 11.17242 11.21316 11.19279
# Shear Modulus (GPa) = 23.84906 25.82989 24.83948
#
# Velocity S-wave (km/s) = 3.41369 3.55263 3.48385
# Velocity P-wave (km/s) = 4.58223 4.72306 4.65318
#
# Compressibility (1/GPa) = 0.08950609
#
# Stress axis : x y z
#
# Youngs Moduli (GPa) = 47.41472 36.04785 49.82266
#
# Poissons Ratio (x) = -0.03577 -0.30056
# Poissons Ratio (y) = -0.04705 -0.16326
# Poissons Ratio (z) = -0.28604 -0.11812
#
# Static dielectric constant tensor:
#      x y z
#    x 1.740300 0.000000 0.000000 
#    y 0.000000 1.783200 0.000000 
#    z 0.000000 0.000000 1.801190 
# 
# From -- ./inp_files/33697.got.cif
#   From: 2010.05.17/outbox.cif.g08.bks.cpg/sg73_17_cif.got.tgz:33697.got - 2010.06.03 17:35:07.
