data_PCOD9531933
_publ_section_title
;
Structure prediction by ZEFSAII (Michael W. Deem and Ramdas Pophale) SiO2 
 PCOD9531933
Probable space group: I B C A 
;
_chemical_formula_sum "Si O2"
_cell_formula_units_Z 88
_cell_length_a 21.071642
_cell_length_b 17.956265
_cell_length_c 8.755767
_cell_angle_alpha 90.000000
_cell_angle_beta 90.000000
_cell_angle_gamma 90.000000
_cell_volume 3312.901941
_symmetry_space_group_name_H-M "I B C A "
_symmetry_group_IT_number 73
_symmetry_cell_setting 'orthorhombic'
loop_
_space_group_symop_operation_xyz
x,y,z
-x,1/2-y,z
x,-y,1/2-z
1/2-x,y,-z
-x,-y,-z
x,1/2+y,-z
-x,y,1/2+z
1/2+x,-y,z
1/2+x,1/2+y,1/2+z
1/2-x,-y,1/2+z
1/2+x,1/2-y,-z
-x,1/2+y,1/2-z
1/2-x,1/2-y,1/2-z
1/2+x,y,1/2-z
1/2-x,1/2+y,z
x,1/2-y,1/2+z
loop_
_atom_site_type_symbol
_atom_site_label
_atom_site_fract_x
_atom_site_fract_y
_atom_site_fract_z
Si Si1 0.050736 0.402753 0.305453
Si Si2 0.446971 0.500000 0.250000
Si Si3 0.163122 0.863998 0.852994
Si Si4 0.000000 0.750000 0.105316
Si Si5 0.146928 0.760837 0.553667
Si Si6 0.351251 0.091570 0.919593
Si Si7 0.249085 0.500000 0.750000
O O1 0.092691 0.401255 0.151622
O O2 0.107705 0.414735 0.426227
O O3 0.999137 0.461835 0.355645
O O4 0.011557 0.325732 0.302577
O O5 0.403222 0.568106 0.203047
O O6 0.160133 0.799194 0.718707
O O7 0.175055 0.818971 0.009163
O O8 0.210723 0.930206 0.812219
O O9 0.929768 0.749614 0.027698
O O10 0.170676 0.823610 0.433455
O O11 0.295675 0.035084 0.881025
#
# Coordination Sequence:
#
# PCOD9531933 Si02
#       7
#    16   8  16   8  16  16   8
#     4  10  22  39  65 105 140 182 236 294 368 449
#     4  11  21  36  68 100 145 169 238 294 374 439
#     4  10  24  44  73 105 142 196 247 308 359 447
#     4   8  20  38  66  96 148 178 216 302 356 460
#     4  10  23  44  69 110 145 187 252 292 386 439
#     4   9  23  42  66  97 137 188 231 301 365 432
#     4  11  23  50  72  94 145 199 250 310 364 427
#
# _framework density 26.562813999999999
#
# number of rings (size 3 to 8) (size 9 to 14) (size 15 to 20)
#    0.000    2.545    0.000    1.091   10.182    4.364 
#    6.545    3.636    0.000    0.000    0.000    0.000 
#    0.000    0.000    0.000    0.000    0.000    0.000 
#
# Total GULP energy -245166.702780 kJ/mol
# GULP energy per Si atom -5571.970518 kJ/mol
# Density = 2.650236 g / cm^3
# Si number density = 26.562814 Si / 1000 Ang^3
#
#
#
# Elastic Constant Matrix: (Units=GPa)
#
#
# Indices 1 2 3 4 5 6 
#
# 1 134.5109 73.1972 32.3941 0.0000 0.0000 0.0000
# 2 73.1972 133.5921 34.9967 0.0000 0.0000 0.0000
# 3 32.3941 34.9967 29.2601 0.0000 0.0000 0.0000
# 4 0.0000 0.0000 0.0000 32.1774 0.0000 0.0000
# 5 0.0000 0.0000 0.0000 0.0000 32.5705 0.0000
# 6 0.0000 0.0000 0.0000 0.0000 0.0000 59.5461
#
#
#
# Elastic Compliance Matrix: (Units=1/GPa)
#
#
# Indices 1 2 3 4 5 6 
#
# 1 0.011667 -0.004382 -0.007676 0.000000 0.000000 0.000000
# 2 -0.004382 0.012547 -0.010155 0.000000 0.000000 0.000000
# 3 -0.007676 -0.010155 0.054821 0.000000 0.000000 0.000000
# 4 0.000000 0.000000 0.000000 0.031078 0.000000 0.000000
# 5 0.000000 0.000000 0.000000 0.000000 0.030703 0.000000
# 6 0.000000 0.000000 0.000000 0.000000 0.000000 0.016794
#
#
# Mechanical properties :
#
#
# Convention : Reuss Voigt Hill
#
# Bulk Modulus (GPa) = 28.89483 64.28212 46.58848
# Shear Modulus (GPa) = 23.41128 35.31046 29.36087
#
# Velocity S-wave (km/s) = 2.97198 3.64994 3.32827
# Velocity P-wave (km/s) = 4.76219 6.48192 5.68743
#
# Compressibility (1/GPa) = 0.03460826
#
# Stress axis : x y z
#
# Youngs Moduli (GPa) = 85.70820 79.70184 18.24122
#
# Poissons Ratio (x) = 0.34925 0.14002
# Poissons Ratio (y) = 0.37556 0.18525
# Poissons Ratio (z) = 0.65791 0.80940
#
# Static dielectric constant tensor:
#      x y z
#    x 2.076140 0.000000 0.000000 
#    y 0.000000 2.378690 0.000000 
#    z 0.000000 0.000000 2.301350 
# 
# From -- ./inp_files/12772.got.cif
#   From: 2010.05.17/outbox.cif.g08.bks.cpg/sg73_7_cif.got.tgz:12772.got - 2010.06.03 17:35:07.
