data_PCOD9531095
_publ_section_title
;
Structure prediction by ZEFSAII (Michael W. Deem and Ramdas Pophale) SiO2 
 PCOD9531095
Probable space group: I B C A 
;
_chemical_formula_sum "Si O2"
_cell_formula_units_Z 104
_cell_length_a 23.135730
_cell_length_b 9.543047
_cell_length_c 22.985290
_cell_angle_alpha 90.000000
_cell_angle_beta 90.000000
_cell_angle_gamma 90.000000
_cell_volume 5074.815499
_symmetry_space_group_name_H-M "I B C A "
_symmetry_group_IT_number 73
_symmetry_cell_setting 'orthorhombic'
loop_
_space_group_symop_operation_xyz
x,y,z
-x,1/2-y,z
x,-y,1/2-z
1/2-x,y,-z
-x,-y,-z
x,1/2+y,-z
-x,y,1/2+z
1/2+x,-y,z
1/2+x,1/2+y,1/2+z
1/2-x,-y,1/2+z
1/2+x,1/2-y,-z
-x,1/2+y,1/2-z
1/2-x,1/2-y,1/2-z
1/2+x,y,1/2-z
1/2-x,1/2+y,z
x,1/2-y,1/2+z
loop_
_atom_site_type_symbol
_atom_site_label
_atom_site_fract_x
_atom_site_fract_y
_atom_site_fract_z
Si Si1 0.510855 0.534437 0.836904
Si Si2 0.379574 0.996848 0.589540
Si Si3 0.190908 0.262986 0.369276
Si Si4 0.500000 0.250000 0.762098
Si Si5 0.387607 0.035813 0.185042
Si Si6 0.186159 0.489253 0.472613
Si Si7 0.323290 0.713343 0.622739
O O1 0.555815 0.530609 0.889629
O O2 0.501459 0.379090 0.809170
O O3 0.531002 0.649345 0.788426
O O4 0.444379 0.572423 0.852056
O O5 0.362949 0.982219 0.521698
O O6 0.360901 0.851501 0.618699
O O7 0.337152 0.116579 0.613895
O O8 0.156654 0.336193 0.317017
O O9 0.181972 0.369190 0.423676
O O10 0.258533 0.247502 0.357415
O O11 0.407503 0.000000 0.250000
O O12 0.354786 0.900250 0.162163
O O13 0.250000 0.476060 0.500000
O O14 0.182743 0.638191 0.439981
#
# Coordination Sequence:
#
# PCOD9531095 Si02
#       7
#    16  16  16   8  16  16  16
#     4  11  23  40  66  98 126 177 232 275 346 401
#     4  12  23  35  67 107 128 166 241 284 323 416
#     4  11  23  41  66 100 135 180 227 278 344 412
#     4  10  20  42  68  86 132 178 228 282 326 416
#     4  11  24  45  68  89 140 183 223 288 347 406
#     4  11  21  41  68  97 136 178 218 273 340 416
#     4  11  23  41  66 100 135 180 227 278 344 412
#
# _framework density 20.493355999999999
#
# number of rings (size 3 to 8) (size 9 to 14) (size 15 to 20)
#    0.000    0.923    4.615    3.692    0.000    0.615 
#    0.000    3.077    0.000    7.385    0.000    0.000 
#    0.000    0.000    0.000    0.000    0.000    0.000 
#
# Total GULP energy -289698.597507 kJ/mol
# GULP energy per Si atom -5571.126875 kJ/mol
# Density = 2.044671 g / cm^3
# Si number density = 20.493356 Si / 1000 Ang^3
#
#
#
# Elastic Constant Matrix: (Units=GPa)
#
#
# Indices 1 2 3 4 5 6 
#
# 1 129.0325 -7.3008 30.8012 0.0000 0.0000 0.0000
# 2 -7.3008 83.3002 -8.4076 0.0000 0.0000 0.0000
# 3 30.8012 -8.4076 41.8743 0.0000 0.0000 0.0000
# 4 0.0000 0.0000 0.0000 18.9216 0.0000 0.0000
# 5 0.0000 0.0000 0.0000 0.0000 31.9956 0.0000
# 6 0.0000 0.0000 0.0000 0.0000 0.0000 -0.4362
#
#
#
# Elastic Compliance Matrix: (Units=1/GPa)
#
#
# Indices 1 2 3 4 5 6 
#
# 1 0.009402 0.000129 -0.006890 0.000000 0.000000 0.000000
# 2 0.000129 0.012255 0.002366 0.000000 0.000000 0.000000
# 3 -0.006890 0.002366 0.029424 0.000000 0.000000 0.000000
# 4 0.000000 0.000000 0.000000 0.052850 0.000000 0.000000
# 5 0.000000 0.000000 0.000000 0.000000 0.031254 0.000000
# 6 0.000000 0.000000 0.000000 0.000000 0.000000 -2.292351
#
#
# Mechanical properties :
#
#
# Convention : Reuss Voigt Hill
#
# Bulk Modulus (GPa) = 23.64619 31.59916 27.62268
# Shear Modulus (GPa) = -2.34271 26.03714 11.84721
#
# Velocity S-wave (km/s) = -1.07035 3.56830 2.40698
# Velocity P-wave (km/s) = 3.16796 5.69471 4.60791
#
# Compressibility (1/GPa) = 0.04229010
#
# Stress axis : x y z
#
# Youngs Moduli (GPa) = 106.36104 81.60038 33.98587
#
# Poissons Ratio (x) = -0.01050 0.23416
# Poissons Ratio (y) = -0.01368 -0.08041
# Poissons Ratio (z) = 0.73282 -0.19306
#
# Static dielectric constant tensor:
#      x y z
#    x 1.748970 0.000000 0.000000 
#    y 0.000000 1.832950 0.000000 
#    z 0.000000 0.000000 1.776110 
# 
# From -- ./inp_files/32682.got.cif
#   From: 2010.05.17/outbox.cif.g08.bks.cpg/sg73_17_cif.got.tgz:32682.got - 2010.06.03 17:35:07.
