data_PCOD9531480
_publ_section_title
;
Structure prediction by ZEFSAII (Michael W. Deem and Ramdas Pophale) SiO2 
 PCOD9531480
Probable space group: I B C A 
;
_chemical_formula_sum "Si O2"
_cell_formula_units_Z 112
_cell_length_a 13.800765
_cell_length_b 12.247683
_cell_length_c 28.624412
_cell_angle_alpha 90.000000
_cell_angle_beta 90.000000
_cell_angle_gamma 90.000000
_cell_volume 4838.309790
_symmetry_space_group_name_H-M "I B C A "
_symmetry_group_IT_number 73
_symmetry_cell_setting 'orthorhombic'
loop_
_space_group_symop_operation_xyz
x,y,z
-x,1/2-y,z
x,-y,1/2-z
1/2-x,y,-z
-x,-y,-z
x,1/2+y,-z
-x,y,1/2+z
1/2+x,-y,z
1/2+x,1/2+y,1/2+z
1/2-x,-y,1/2+z
1/2+x,1/2-y,-z
-x,1/2+y,1/2-z
1/2-x,1/2-y,1/2-z
1/2+x,y,1/2-z
1/2-x,1/2+y,z
x,1/2-y,1/2+z
loop_
_atom_site_type_symbol
_atom_site_label
_atom_site_fract_x
_atom_site_fract_y
_atom_site_fract_z
Si Si1 0.190567 0.210430 0.585940
Si Si2 0.920655 0.651238 0.480333
Si Si3 0.291959 0.588823 0.345600
Si Si4 0.938203 0.643001 0.231383
Si Si5 0.934125 0.494109 0.931853
Si Si6 0.894592 0.367164 0.163251
Si Si7 0.076459 0.508428 0.330469
O O1 0.172309 0.295098 0.544488
O O2 0.287988 0.164291 0.608501
O O3 0.144282 0.271310 0.631144
O O4 0.138842 0.097259 0.571073
O O5 0.905973 0.595454 0.530143
O O6 0.000000 0.750000 0.482722
O O7 0.967299 0.554409 0.448607
O O8 0.354544 0.649492 0.306833
O O9 0.344285 0.475682 0.356072
O O10 0.186302 0.550199 0.325530
O O11 0.881891 0.626890 0.280568
O O12 0.000000 0.750000 0.238602
O O13 0.018935 0.558860 0.209303
O O14 0.932258 0.445433 0.879774
O O15 0.009257 0.385858 0.160467
#
# Coordination Sequence:
#
# PCOD9531480 Si02
#       7
#    16  16  16  16  16  16  16
#     4  10  21  39  71  97 138 184 240 291 362 436
#     4   9  17  33  63 107 139 171 232 296 369 433
#     4  10  24  42  67 100 139 186 240 292 362 434
#     4  11  27  42  63 104 142 192 249 297 361 436
#     4   9  18  33  64 104 130 176 234 296 356 437
#     4  11  24  43  65 100 145 188 244 303 357 431
#     4  10  21  42  66  94 141 190 235 301 362 426
#
# _framework density 23.148581
#
# number of rings (size 3 to 8) (size 9 to 14) (size 15 to 20)
#    0.000    2.000    1.429    1.714    8.000    3.429 
#    0.000    0.000    0.000    6.857    0.000    0.000 
#    0.000    0.000    0.000    0.000    0.000    0.000 
#
# Total GULP energy -312186.614886 kJ/mol
# GULP energy per Si atom -5574.760980 kJ/mol
# Density = 2.309589 g / cm^3
# Si number density = 23.148581 Si / 1000 Ang^3
#
#
#
# Elastic Constant Matrix: (Units=GPa)
#
#
# Indices 1 2 3 4 5 6 
#
# 1 67.8042 8.4477 20.6589 0.0000 0.0000 0.0000
# 2 8.4477 97.5660 52.1554 0.0000 0.0000 0.0000
# 3 20.6589 52.1554 162.0311 0.0000 0.0000 0.0000
# 4 0.0000 0.0000 0.0000 39.8908 0.0000 0.0000
# 5 0.0000 0.0000 0.0000 0.0000 26.8272 0.0000
# 6 0.0000 0.0000 0.0000 0.0000 0.0000 29.3067
#
#
#
# Elastic Compliance Matrix: (Units=1/GPa)
#
#
# Indices 1 2 3 4 5 6 
#
# 1 0.015354 -0.000342 -0.001848 0.000000 0.000000 0.000000
# 2 -0.000342 0.012387 -0.003944 0.000000 0.000000 0.000000
# 3 -0.001848 -0.003944 0.007677 0.000000 0.000000 0.000000
# 4 0.000000 0.000000 0.000000 0.025068 0.000000 0.000000
# 5 0.000000 0.000000 0.000000 0.000000 0.037276 0.000000
# 6 0.000000 0.000000 0.000000 0.000000 0.000000 0.034122
#
#
# Mechanical properties :
#
#
# Convention : Reuss Voigt Hill
#
# Bulk Modulus (GPa) = 43.19347 54.43615 48.81481
# Shear Modulus (GPa) = 32.92355 35.61423 34.26889
#
# Velocity S-wave (km/s) = 3.77539 3.92663 3.85176
# Velocity P-wave (km/s) = 6.14040 6.64266 6.39646
#
# Compressibility (1/GPa) = 0.02315165
#
# Stress axis : x y z
#
# Youngs Moduli (GPa) = 65.13022 80.72835 130.26532
#
# Poissons Ratio (x) = 0.02759 0.24068
# Poissons Ratio (y) = 0.02226 0.51373
# Poissons Ratio (z) = 0.12034 0.31837
#
# Static dielectric constant tensor:
#      x y z
#    x 1.914080 0.000000 0.000000 
#    y 0.000000 1.917140 0.000000 
#    z 0.000000 0.000000 1.940230 
# 
# From -- ./inp_files/34298.got.cif
#   From: 2010.05.17/outbox.cif.g08.bks.cpg/sg73_18_cif.got.tgz:34298.got - 2010.06.03 17:35:07.
