data_PCOD9531318
_publ_section_title
;
Structure prediction by ZEFSAII (Michael W. Deem and Ramdas Pophale) SiO2 
 PCOD9531318
Probable space group: I B C A 
;
_chemical_formula_sum "Si O2"
_cell_formula_units_Z 72
_cell_length_a 13.750742
_cell_length_b 11.068896
_cell_length_c 18.422685
_cell_angle_alpha 90.000000
_cell_angle_beta 90.000000
_cell_angle_gamma 90.000000
_cell_volume 2804.034592
_symmetry_space_group_name_H-M "I B C A "
_symmetry_group_IT_number 73
_symmetry_cell_setting 'orthorhombic'
loop_
_space_group_symop_operation_xyz
x,y,z
-x,1/2-y,z
x,-y,1/2-z
1/2-x,y,-z
-x,-y,-z
x,1/2+y,-z
-x,y,1/2+z
1/2+x,-y,z
1/2+x,1/2+y,1/2+z
1/2-x,-y,1/2+z
1/2+x,1/2-y,-z
-x,1/2+y,1/2-z
1/2-x,1/2-y,1/2-z
1/2+x,y,1/2-z
1/2-x,1/2+y,z
x,1/2-y,1/2+z
loop_
_atom_site_type_symbol
_atom_site_label
_atom_site_fract_x
_atom_site_fract_y
_atom_site_fract_z
Si Si1 0.882371 0.258609 0.797887
Si Si2 0.851231 0.281646 0.957512
Si Si3 0.634869 0.965726 0.510115
Si Si4 0.397688 0.000000 0.750000
Si Si5 0.445485 0.374780 0.841695
O O1 0.836201 0.305377 0.872020
O O2 0.847679 0.124717 0.773932
O O3 0.878952 0.344872 0.728095
O O4 0.000000 0.250000 0.810882
O O5 0.902928 0.396636 0.995566
O O6 0.750000 0.267611 0.000000
O O7 0.896671 0.147489 0.960981
O O8 0.750000 0.981241 0.500000
O O9 0.612946 0.923451 0.591238
O O10 0.469387 0.036276 0.815902
O O11 0.500000 0.250000 0.860368
#
# Coordination Sequence:
#
# PCOD9531318 Si02
#       5
#    16  16  16   8  16
#     4   9  18  34  60  90 116 149 194 248 302 354
#     4  10  22  39  58  83 120 162 201 241 292 355
#     4  10  21  38  57  82 120 162 200 240 292 355
#     4   8  16  32  58  88 116 144 194 252 302 348
#     4   9  18  34  59  89 116 149 195 248 299 352
#
# _framework density 25.677287
#
# number of rings (size 3 to 8) (size 9 to 14) (size 15 to 20)
#    0.000    3.111    0.000    2.667    0.000    4.444 
#    0.000    7.778    0.000    8.000    0.000    0.000 
#    0.000    0.000    0.000    0.000    0.000    0.000 
#
# Total GULP energy -201247.332596 kJ/mol
# GULP energy per Si atom -5590.203683 kJ/mol
# Density = 2.561884 g / cm^3
# Si number density = 25.677287 Si / 1000 Ang^3
#
#
#
# Elastic Constant Matrix: (Units=GPa)
#
#
# Indices 1 2 3 4 5 6 
#
# 1 95.7430 0.9917 26.8999 0.0000 0.0000 0.0000
# 2 0.9917 152.2664 -21.7124 0.0000 0.0000 0.0000
# 3 26.8999 -21.7124 108.8769 0.0000 0.0000 0.0000
# 4 0.0000 0.0000 0.0000 23.7469 0.0000 0.0000
# 5 0.0000 0.0000 0.0000 0.0000 38.5187 0.0000
# 6 0.0000 0.0000 0.0000 0.0000 0.0000 -496.1922
#
#
#
# Elastic Compliance Matrix: (Units=1/GPa)
#
#
# Indices 1 2 3 4 5 6 
#
# 1 0.011258 -0.000484 -0.002878 0.000000 0.000000 0.000000
# 2 -0.000484 0.006780 0.001472 0.000000 0.000000 0.000000
# 3 -0.002878 0.001472 0.010189 0.000000 0.000000 0.000000
# 4 0.000000 0.000000 0.000000 0.042111 0.000000 0.000000
# 5 0.000000 0.000000 0.000000 0.000000 0.025961 0.000000
# 6 0.000000 0.000000 0.000000 0.000000 0.000000 -0.002015
#
#
# Mechanical properties :
#
#
# Convention : Reuss Voigt Hill
#
# Bulk Modulus (GPa) = 40.90342 41.02718 40.96530
# Shear Modulus (GPa) = 47.07468 -63.40487 -8.16509
#
# Velocity S-wave (km/s) = 4.28637 -4.97459 -1.78516
# Velocity P-wave (km/s) = 6.36095 4.12101 3.42629
#
# Compressibility (1/GPa) = 0.02444783
#
# Stress axis : x y z
#
# Youngs Moduli (GPa) = 88.82378 147.48303 98.14286
#
# Poissons Ratio (x) = 0.07134 0.28246
# Poissons Ratio (y) = 0.04297 -0.14443
# Poissons Ratio (z) = 0.25564 -0.21705
#
# Static dielectric constant tensor:
#      x y z
#    x 2.032010 0.000000 0.000000 
#    y 0.000000 2.136510 0.000000 
#    z 0.000000 0.000000 1.976710 
# 
# From -- ./inp_files/11640.got.cif
#   From: 2010.05.17/outbox.cif.g08.bks.cpg/sg73_6_cif.got.tgz:11640.got - 2010.06.03 17:35:07.
