data_PCOD9531019
_publ_section_title
;
Structure prediction by ZEFSAII (Michael W. Deem and Ramdas Pophale) SiO2 
 PCOD9531019
Probable space group: I B C A 
;
_chemical_formula_sum "Si O2"
_cell_formula_units_Z 104
_cell_length_a 18.469283
_cell_length_b 9.110623
_cell_length_c 27.929766
_cell_angle_alpha 90.000000
_cell_angle_beta 90.000000
_cell_angle_gamma 90.000000
_cell_volume 4699.648844
_symmetry_space_group_name_H-M "I B C A "
_symmetry_group_IT_number 73
_symmetry_cell_setting 'orthorhombic'
loop_
_space_group_symop_operation_xyz
x,y,z
-x,1/2-y,z
x,-y,1/2-z
1/2-x,y,-z
-x,-y,-z
x,1/2+y,-z
-x,y,1/2+z
1/2+x,-y,z
1/2+x,1/2+y,1/2+z
1/2-x,-y,1/2+z
1/2+x,1/2-y,-z
-x,1/2+y,1/2-z
1/2-x,1/2-y,1/2-z
1/2+x,y,1/2-z
1/2-x,1/2+y,z
x,1/2-y,1/2+z
loop_
_atom_site_type_symbol
_atom_site_label
_atom_site_fract_x
_atom_site_fract_y
_atom_site_fract_z
Si Si1 0.242148 0.409805 0.894855
Si Si2 0.388186 0.141839 0.273534
Si Si3 0.194503 0.169253 0.958870
Si Si4 0.000000 0.250000 0.304339
Si Si5 0.842772 0.837367 0.848721
Si Si6 0.962815 0.907551 0.041219
Si Si7 0.499462 0.538558 0.641561
O O1 0.186337 0.303437 0.921946
O O2 0.274287 0.527729 0.931672
O O3 0.202456 0.513602 0.856444
O O4 0.303556 0.296061 0.877184
O O5 0.436888 0.200611 0.230794
O O6 0.342783 0.274354 0.295106
O O7 0.442285 0.094672 0.317792
O O8 0.350332 0.000000 0.250000
O O9 0.117096 0.125749 0.977707
O O10 0.250000 0.213971 0.000000
O O11 0.975114 0.383815 0.336660
O O12 0.926665 0.867475 0.863751
O O13 0.000000 0.750000 0.049687
O O14 0.963450 0.000793 0.090657
O O15 0.000000 0.000000 0.000000
#
# Coordination Sequence:
#
# PCOD9531019 Si02
#       7
#    16  16  16   8  16  16  16
#     4  10  25  42  72  94 134 199 245 277 374 435
#     4  10  21  39  72 111 134 178 231 294 370 443
#     4  11  25  45  71  97 140 191 248 299 364 449
#     4  10  20  40  70 112 134 186 222 288 388 442
#     4  11  22  44  69 100 142 186 239 297 352 438
#     4  12  29  44  68 109 144 185 243 311 369 426
#     4  11  22  42  75 102 149 178 234 309 373 420
#
# _framework density 22.129313
#
# number of rings (size 3 to 8) (size 9 to 14) (size 15 to 20)
#    0.000    1.231    2.308    2.308    8.615    1.231 
#    2.769    0.769    0.000    0.000    0.000    0.000 
#    0.000    0.000    0.000    0.000    0.000    0.000 
#
# Total GULP energy -290472.525586 kJ/mol
# GULP energy per Si atom -5586.010107 kJ/mol
# Density = 2.207895 g / cm^3
# Si number density = 22.129313 Si / 1000 Ang^3
#
#
#
# Elastic Constant Matrix: (Units=GPa)
#
#
# Indices 1 2 3 4 5 6 
#
# 1 80.1296 32.9686 27.7432 0.0000 0.0000 0.0000
# 2 32.9686 143.1313 44.8901 0.0000 0.0000 0.0000
# 3 27.7432 44.8901 100.8633 0.0000 0.0000 0.0000
# 4 0.0000 0.0000 0.0000 62.6995 0.0000 0.0000
# 5 0.0000 0.0000 0.0000 0.0000 27.1073 0.0000
# 6 0.0000 0.0000 0.0000 0.0000 0.0000 26.9311
#
#
#
# Elastic Compliance Matrix: (Units=1/GPa)
#
#
# Indices 1 2 3 4 5 6 
#
# 1 0.014483 -0.002425 -0.002904 0.000000 0.000000 0.000000
# 2 -0.002425 0.008526 -0.003128 0.000000 0.000000 0.000000
# 3 -0.002904 -0.003128 0.012105 0.000000 0.000000 0.000000
# 4 0.000000 0.000000 0.000000 0.015949 0.000000 0.000000
# 5 0.000000 0.000000 0.000000 0.000000 0.036890 0.000000
# 6 0.000000 0.000000 0.000000 0.000000 0.000000 0.037132
#
#
# Mechanical properties :
#
#
# Convention : Reuss Voigt Hill
#
# Bulk Modulus (GPa) = 54.94402 59.48089 57.21245
# Shear Modulus (GPa) = 33.76858 37.91575 35.84216
#
# Velocity S-wave (km/s) = 3.91060 4.14378 4.02888
# Velocity P-wave (km/s) = 6.72851 7.05916 6.89582
#
# Compressibility (1/GPa) = 0.01820034
#
# Stress axis : x y z
#
# Youngs Moduli (GPa) = 69.04568 117.28718 82.60895
#
# Poissons Ratio (x) = 0.28444 0.23993
# Poissons Ratio (y) = 0.16744 0.25836
# Poissons Ratio (z) = 0.20054 0.36682
#
# Static dielectric constant tensor:
#      x y z
#    x 1.903560 0.000000 0.000000 
#    y 0.000000 1.779150 0.000000 
#    z 0.000000 0.000000 1.802410 
# 
# From -- ./inp_files/32665.got.cif
#   From: 2010.05.17/outbox.cif.g08.bks.cpg/sg73_17_cif.got.tgz:32665.got - 2010.06.03 17:35:07.
