data_PCOD9531076
_publ_section_title
;
Structure prediction by ZEFSAII (Michael W. Deem and Ramdas Pophale) SiO2 
 PCOD9531076
Probable space group: I B C A 
;
_chemical_formula_sum "Si O2"
_cell_formula_units_Z 120
_cell_length_a 9.283794
_cell_length_b 24.324030
_cell_length_c 25.128950
_cell_angle_alpha 90.000000
_cell_angle_beta 90.000000
_cell_angle_gamma 90.000000
_cell_volume 5674.601491
_symmetry_space_group_name_H-M "I B C A "
_symmetry_group_IT_number 73
_symmetry_cell_setting 'orthorhombic'
loop_
_space_group_symop_operation_xyz
x,y,z
-x,1/2-y,z
x,-y,1/2-z
1/2-x,y,-z
-x,-y,-z
x,1/2+y,-z
-x,y,1/2+z
1/2+x,-y,z
1/2+x,1/2+y,1/2+z
1/2-x,-y,1/2+z
1/2+x,1/2-y,-z
-x,1/2+y,1/2-z
1/2-x,1/2-y,1/2-z
1/2+x,y,1/2-z
1/2-x,1/2+y,z
x,1/2-y,1/2+z
loop_
_atom_site_type_symbol
_atom_site_label
_atom_site_fract_x
_atom_site_fract_y
_atom_site_fract_z
Si Si1 0.375665 0.426888 0.652080
Si Si2 0.411159 0.948174 0.020137
Si Si3 0.959220 0.133758 0.932797
Si Si4 0.322852 0.185429 0.206315
Si Si5 0.508865 0.808456 0.685634
Si Si6 0.156226 0.989368 0.187778
Si Si7 0.500000 0.250000 0.620126
Si Si8 0.831834 0.404849 0.627319
O O1 0.412401 0.400611 0.595240
O O2 0.385798 0.374184 0.690690
O O3 0.503019 0.468777 0.667004
O O4 0.224641 0.457723 0.658734
O O5 0.412588 0.941149 0.083295
O O6 0.250000 0.959009 0.000000
O O7 0.453436 0.890121 0.992250
O O8 0.500000 0.000000 0.000000
O O9 0.810353 0.116534 0.903682
O O10 0.973441 0.197574 0.917798
O O11 0.386589 0.200139 0.263628
O O12 0.375766 0.229181 0.161466
O O13 0.151577 0.178768 0.205711
O O14 0.500000 0.750000 0.656279
O O15 0.572268 0.856097 0.649514
O O16 0.269135 0.940677 0.175409
O O17 0.147692 0.000000 0.250000
#
# Coordination Sequence:
#
# PCOD9531076 Si02
#       8
#    16  16  16  16  16  16   8  16
#     4  10  23  36  58  88 123 164 213 258 321 375
#     4  10  21  44  70  95 127 170 210 268 330 388
#     4   9  20  40  66  93 123 168 211 267 325 382
#     4  11  25  39  64  92 131 175 218 263 320 397
#     4  12  25  41  65  94 129 174 218 264 320 385
#     4  11  22  37  56  86 126 168 205 266 314 379
#     4  10  20  42  64  92 130 168 222 258 326 394
#     4  10  23  40  65  92 130 165 217 266 321 387
#
# _framework density 21.146858999999999
#
# number of rings (size 3 to 8) (size 9 to 14) (size 15 to 20)
#    0.000    1.600    0.667    3.200    9.333    0.000 
#    6.000    0.000    0.000    0.000    0.000    0.000 
#    0.000    0.000    0.000    0.000    0.000    0.000 
#
# Total GULP energy -335367.270287 kJ/mol
# GULP energy per Si atom -5589.454505 kJ/mol
# Density = 2.109873 g / cm^3
# Si number density = 21.146859 Si / 1000 Ang^3
#
#
#
# Elastic Constant Matrix: (Units=GPa)
#
#
# Indices 1 2 3 4 5 6 
#
# 1 56.1580 32.8259 18.1761 0.0000 0.0000 0.0000
# 2 32.8259 116.5097 40.0721 0.0000 0.0000 0.0000
# 3 18.1761 40.0721 71.0740 0.0000 0.0000 0.0000
# 4 0.0000 0.0000 0.0000 32.4019 0.0000 0.0000
# 5 0.0000 0.0000 0.0000 0.0000 16.1916 0.0000
# 6 0.0000 0.0000 0.0000 0.0000 0.0000 34.4218
#
#
#
# Elastic Compliance Matrix: (Units=1/GPa)
#
#
# Indices 1 2 3 4 5 6 
#
# 1 0.021701 -0.005217 -0.002608 0.000000 0.000000 0.000000
# 2 -0.005217 0.011902 -0.005376 0.000000 0.000000 0.000000
# 3 -0.002608 -0.005376 0.017768 0.000000 0.000000 0.000000
# 4 0.000000 0.000000 0.000000 0.030862 0.000000 0.000000
# 5 0.000000 0.000000 0.000000 0.000000 0.061760 0.000000
# 6 0.000000 0.000000 0.000000 0.000000 0.000000 0.029051
#
#
# Mechanical properties :
#
#
# Convention : Reuss Voigt Hill
#
# Bulk Modulus (GPa) = 40.05181 47.32108 43.68644
# Shear Modulus (GPa) = 24.06509 26.78091 25.42300
#
# Velocity S-wave (km/s) = 3.37708 3.56255 3.47105
# Velocity P-wave (km/s) = 5.84698 6.27282 6.06364
#
# Compressibility (1/GPa) = 0.02496766
#
# Stress axis : x y z
#
# Youngs Moduli (GPa) = 46.08185 84.02018 56.28090
#
# Poissons Ratio (x) = 0.43833 0.14679
# Poissons Ratio (y) = 0.24041 0.30258
# Poissons Ratio (z) = 0.12019 0.45171
#
# Static dielectric constant tensor:
#      x y z
#    x 1.772610 0.000000 0.000000 
#    y 0.000000 1.801310 0.000000 
#    z 0.000000 0.000000 1.744020 
# 
# From -- ./inp_files/28533.got.cif
#   From: 2010.05.17/outbox.cif.g08.bks.cpg/sg73_15_cif.got.tgz:28533.got - 2010.06.03 17:35:07.
