data_PCOD9531165
_publ_section_title
;
Structure prediction by ZEFSAII (Michael W. Deem and Ramdas Pophale) SiO2 
 PCOD9531165
Probable space group: I B C A 
;
_chemical_formula_sum "Si O2"
_cell_formula_units_Z 96
_cell_length_a 13.426685
_cell_length_b 20.760700
_cell_length_c 14.796012
_cell_angle_alpha 90.000000
_cell_angle_beta 90.000000
_cell_angle_gamma 90.000000
_cell_volume 4124.349569
_symmetry_space_group_name_H-M "I B C A "
_symmetry_group_IT_number 73
_symmetry_cell_setting 'orthorhombic'
loop_
_space_group_symop_operation_xyz
x,y,z
-x,1/2-y,z
x,-y,1/2-z
1/2-x,y,-z
-x,-y,-z
x,1/2+y,-z
-x,y,1/2+z
1/2+x,-y,z
1/2+x,1/2+y,1/2+z
1/2-x,-y,1/2+z
1/2+x,1/2-y,-z
-x,1/2+y,1/2-z
1/2-x,1/2-y,1/2-z
1/2+x,y,1/2-z
1/2-x,1/2+y,z
x,1/2-y,1/2+z
loop_
_atom_site_type_symbol
_atom_site_label
_atom_site_fract_x
_atom_site_fract_y
_atom_site_fract_z
Si Si1 0.081335 0.386160 0.767211
Si Si2 0.750000 0.276521 0.000000
Si Si3 0.891505 0.625435 0.440315
Si Si4 0.551222 0.000000 0.750000
Si Si5 0.750000 0.472919 0.000000
Si Si6 0.402462 0.814997 0.049313
Si Si7 0.500000 0.250000 0.281028
Si Si8 0.717541 0.576268 0.141005
O O1 0.082268 0.398566 0.658926
O O2 0.193100 0.390785 0.804610
O O3 0.017592 0.447429 0.802736
O O4 0.037431 0.313125 0.773132
O O5 0.701152 0.325061 0.928651
O O6 0.657218 0.230071 0.019908
O O7 0.848137 0.570923 0.504484
O O8 0.988693 0.660913 0.478734
O O9 0.626958 0.952928 0.697793
O O10 0.761756 0.516404 0.086995
O O11 0.419657 0.778477 0.146027
O O12 0.333516 0.875007 0.071492
#
# Coordination Sequence:
#
# PCOD9531165 Si02
#       8
#    16   8  16   8   8  16   8  16
#     4  11  23  46  72 103 139 191 248 296 360 435
#     4  11  19  38  72  98 137 183 228 278 368 428
#     4  10  21  43  71  95 141 189 227 292 363 424
#     4  12  22  44  72 100 138 192 236 298 354 432
#     4  11  25  44  64 106 139 183 234 294 360 438
#     4  11  21  42  67 100 138 184 225 292 359 423
#     4  10  20  46  72  96 144 184 230 308 362 406
#     4  12  26  42  73 100 141 186 243 296 361 431
#
# _framework density 23.276396999999999
#
# number of rings (size 3 to 8) (size 9 to 14) (size 15 to 20)
#    0.000    1.000    6.667    3.000    0.000    1.333 
#    3.000    0.000    3.667    0.000    0.000    0.000 
#    0.000    0.000    0.000    0.000    0.000    0.000 
#
# Total GULP energy -267728.839661 kJ/mol
# GULP energy per Si atom -5577.684160 kJ/mol
# Density = 2.322342 g / cm^3
# Si number density = 23.276397 Si / 1000 Ang^3
#
#
#
# Elastic Constant Matrix: (Units=GPa)
#
#
# Indices 1 2 3 4 5 6 
#
# 1 155.9631 75.3718 25.4395 0.0000 0.0000 0.0002
# 2 75.3718 148.0043 13.7919 -0.0002 0.0001 0.0020
# 3 25.4395 13.7919 15.3189 -0.0004 0.0001 0.0028
# 4 0.0000 -0.0002 -0.0004 23.3356 0.0001 0.0033
# 5 0.0000 0.0001 0.0001 0.0001 20.2949 -0.0005
# 6 0.0002 0.0020 0.0028 0.0033 -0.0005 134.4422
#
#
#
# Elastic Compliance Matrix: (Units=1/GPa)
#
#
# Indices 1 2 3 4 5 6 
#
# 1 0.010705 -0.004143 -0.014048 0.000000 0.000000 0.000000
# 2 -0.004143 0.008978 -0.001204 0.000000 0.000000 0.000000
# 3 -0.014048 -0.001204 0.089692 0.000002 0.000000 -0.000002
# 4 0.000000 0.000000 0.000002 0.042853 0.000000 -0.000001
# 5 0.000000 0.000000 0.000000 0.000000 0.049274 0.000000
# 6 0.000000 0.000000 -0.000002 -0.000001 0.000000 0.007438
#
#
# Mechanical properties :
#
#
# Convention : Reuss Voigt Hill
#
# Bulk Modulus (GPa) = 14.16708 60.94363 37.55535
# Shear Modulus (GPa) = 18.43266 49.26008 33.84637
#
# Velocity S-wave (km/s) = 2.81713 4.60533 3.81741
# Velocity P-wave (km/s) = 4.08428 7.38364 5.96655
#
# Compressibility (1/GPa) = 0.07058617
#
# Stress axis : x y z
#
# Youngs Moduli (GPa) = 93.41309 111.37879 11.14930
#
# Poissons Ratio (x) = 0.46139 0.15663
# Poissons Ratio (y) = 0.38697 0.01342
# Poissons Ratio (z) = 1.31227 0.13410
#
# Static dielectric constant tensor:
#      x y z
#    x 1.867340 0.000000 0.000000 
#    y 0.000000 1.969270 0.000000 
#    z 0.000000 0.000000 1.869420 
# 
# From -- ./inp_files/25497.got.cif
#   From: 2010.05.17/outbox.cif.g08.bks.cpg/sg73_13_cif.got.tgz:25497.got - 2010.06.03 17:35:07.
