data_PCOD9531633
_publ_section_title
;
Structure prediction by ZEFSAII (Michael W. Deem and Ramdas Pophale) SiO2 
 PCOD9531633
Probable space group: I B C A 
;
_chemical_formula_sum "Si O2"
_cell_formula_units_Z 96
_cell_length_a 14.226190
_cell_length_b 11.953525
_cell_length_c 21.644467
_cell_angle_alpha 90.000000
_cell_angle_beta 90.000000
_cell_angle_gamma 90.000000
_cell_volume 3680.709097
_symmetry_space_group_name_H-M "I B C A "
_symmetry_group_IT_number 73
_symmetry_cell_setting 'orthorhombic'
loop_
_space_group_symop_operation_xyz
x,y,z
-x,1/2-y,z
x,-y,1/2-z
1/2-x,y,-z
-x,-y,-z
x,1/2+y,-z
-x,y,1/2+z
1/2+x,-y,z
1/2+x,1/2+y,1/2+z
1/2-x,-y,1/2+z
1/2+x,1/2-y,-z
-x,1/2+y,1/2-z
1/2-x,1/2-y,1/2-z
1/2+x,y,1/2-z
1/2-x,1/2+y,z
x,1/2-y,1/2+z
loop_
_atom_site_type_symbol
_atom_site_label
_atom_site_fract_x
_atom_site_fract_y
_atom_site_fract_z
Si Si1 0.182968 0.057409 0.097804
Si Si2 0.633983 0.785181 0.821635
Si Si3 0.250000 0.722823 0.000000
Si Si4 0.909087 0.090928 0.007212
Si Si5 0.361104 0.221488 0.808010
Si Si6 0.368869 0.033517 0.356011
Si Si7 0.500000 0.750000 0.430949
O O1 0.249038 0.144160 0.059879
O O2 0.113468 0.125265 0.142998
O O3 0.132298 0.990938 0.043977
O O4 0.255106 0.978078 0.134641
O O5 0.747107 0.785193 0.814814
O O6 0.605792 0.710907 0.762337
O O7 0.586946 0.738232 0.883652
O O8 0.604728 0.917279 0.822449
O O9 0.337580 0.804198 0.009716
O O10 0.001289 0.145453 0.977376
O O11 0.911158 0.043220 0.075522
O O12 0.388632 0.347769 0.825111
#
# Coordination Sequence:
#
# PCOD9531633 Si02
#       7
#    16  16   8  16  16  16   8
#     4  11  19  34  66 102 132 167 231 284 335 401
#     4  10  24  42  63  94 133 180 225 283 345 411
#     4  12  18  38  66 102 136 174 224 290 332 420
#     4  12  23  38  65 101 137 182 220 281 362 415
#     4  10  21  41  70  95 123 176 244 285 327 404
#     4  11  19  37  66  98 129 171 224 283 332 412
#     4  12  28  46  62  96 150 180 216 290 370 420
#
# _framework density 26.08193
#
# number of rings (size 3 to 8) (size 9 to 14) (size 15 to 20)
#    0.000    1.000    5.000    3.500    0.000    0.667 
#    0.000    6.667    0.000    0.000    0.000    0.000 
#    0.000    0.000    0.000    0.000    0.000    0.000 
#
# Total GULP energy -268657.433121 kJ/mol
# GULP energy per Si atom -5597.029857 kJ/mol
# Density = 2.602257 g / cm^3
# Si number density = 26.081930 Si / 1000 Ang^3
#
#
#
# Elastic Constant Matrix: (Units=GPa)
#
#
# Indices 1 2 3 4 5 6 
#
# 1 72.1080 5.3465 6.2494 0.0000 0.0000 0.0000
# 2 5.3465 73.8743 33.8194 0.0000 0.0000 0.0000
# 3 6.2494 33.8194 138.1115 0.0000 0.0000 0.0000
# 4 0.0000 0.0000 0.0000 21.8445 0.0000 0.0000
# 5 0.0000 0.0000 0.0000 0.0000 22.9432 0.0000
# 6 0.0000 0.0000 0.0000 0.0000 0.0000 36.8188
#
#
#
# Elastic Compliance Matrix: (Units=1/GPa)
#
#
# Indices 1 2 3 4 5 6 
#
# 1 0.013966 -0.000813 -0.000433 0.000000 0.000000 0.000000
# 2 -0.000813 0.015293 -0.003708 0.000000 0.000000 0.000000
# 3 -0.000433 -0.003708 0.008168 0.000000 0.000000 0.000000
# 4 0.000000 0.000000 0.000000 0.045778 0.000000 0.000000
# 5 0.000000 0.000000 0.000000 0.000000 0.043586 0.000000
# 6 0.000000 0.000000 0.000000 0.000000 0.000000 0.027160
#
#
# Mechanical properties :
#
#
# Convention : Reuss Voigt Hill
#
# Bulk Modulus (GPa) = 36.33754 41.65830 38.99792
# Shear Modulus (GPa) = 28.89655 32.23320 30.56487
#
# Velocity S-wave (km/s) = 3.33215 3.51927 3.42699
# Velocity P-wave (km/s) = 5.36345 5.70267 5.53566
#
# Compressibility (1/GPa) = 0.02751975
#
# Stress axis : x y z
#
# Youngs Moduli (GPa) = 71.60323 65.39017 122.42758
#
# Poissons Ratio (x) = 0.05313 0.05301
# Poissons Ratio (y) = 0.05818 0.45396
# Poissons Ratio (z) = 0.03100 0.24247
#
# Static dielectric constant tensor:
#      x y z
#    x 2.171210 0.000000 0.000000 
#    y 0.000000 2.048390 0.000000 
#    z 0.000000 0.000000 2.030470 
# 
# From -- ./inp_files/29808.got.cif
#   From: 2010.05.17/outbox.cif.g08.bks.cpg/sg73_15_cif.got.tgz:29808.got - 2010.06.03 17:35:07.
