data_PCOD9531818
_publ_section_title
;
Structure prediction by ZEFSAII (Michael W. Deem and Ramdas Pophale) SiO2 
 PCOD9531818
Probable space group: I B C A 
;
_chemical_formula_sum "Si O2"
_cell_formula_units_Z 120
_cell_length_a 13.959730
_cell_length_b 14.809560
_cell_length_c 27.089414
_cell_angle_alpha 90.000000
_cell_angle_beta 90.000000
_cell_angle_gamma 90.000000
_cell_volume 5600.396617
_symmetry_space_group_name_H-M "I B C A "
_symmetry_group_IT_number 73
_symmetry_cell_setting 'orthorhombic'
loop_
_space_group_symop_operation_xyz
x,y,z
-x,1/2-y,z
x,-y,1/2-z
1/2-x,y,-z
-x,-y,-z
x,1/2+y,-z
-x,y,1/2+z
1/2+x,-y,z
1/2+x,1/2+y,1/2+z
1/2-x,-y,1/2+z
1/2+x,1/2-y,-z
-x,1/2+y,1/2-z
1/2-x,1/2-y,1/2-z
1/2+x,y,1/2-z
1/2-x,1/2+y,z
x,1/2-y,1/2+z
loop_
_atom_site_type_symbol
_atom_site_label
_atom_site_fract_x
_atom_site_fract_y
_atom_site_fract_z
Si Si1 0.247736 0.140664 0.750979
Si Si2 0.811618 0.616332 0.045884
Si Si3 0.765117 0.591388 0.553675
Si Si4 0.509964 0.564355 0.452042
Si Si5 0.653829 0.662458 0.649445
Si Si6 0.281811 0.637602 0.646459
Si Si7 0.423045 0.000000 0.250000
Si Si8 0.478346 0.044251 0.355521
O O1 0.250000 0.250000 0.750000
O O2 0.305290 0.116683 0.800393
O O3 0.278662 0.113533 0.695352
O O4 0.145660 0.088677 0.753773
O O5 0.783532 0.508826 0.049364
O O6 0.780236 0.652881 0.098405
O O7 0.923898 0.633568 0.038568
O O8 0.750000 0.650541 0.000000
O O9 0.750000 0.635850 0.500000
O O10 0.880227 0.590048 0.556074
O O11 0.716311 0.634656 0.601642
O O12 0.500000 0.500000 0.500000
O O13 0.484731 0.516659 0.400165
O O14 0.663615 0.769020 0.656522
O O15 0.545440 0.631526 0.642527
O O16 0.365824 0.565766 0.636271
O O17 0.482128 0.005181 0.300382
#
# Coordination Sequence:
#
# PCOD9531818 Si02
#       8
#    16  16  16  16  16  16   8  16
#     4   9  21  39  59  85 123 164 206 261 315 371
#     4  11  21  37  61  87 117 158 197 249 309 374
#     4  11  21  37  59  88 119 155 197 253 307 368
#     4  12  20  35  59  88 118 148 199 249 300 361
#     4  11  22  38  59  86 120 160 202 254 313 367
#     4  10  22  40  58  83 122 161 199 250 314 374
#     4  10  22  36  60  90 122 164 212 258 316 378
#     4  11  21  35  59  90 118 155 207 255 297 374
#
# _framework density 21.427053999999998
#
# number of rings (size 3 to 8) (size 9 to 14) (size 15 to 20)
#    0.000    1.333    5.333    1.200    1.867    2.133 
#    0.000    0.667    0.000    6.400    0.000    0.000 
#    0.000    0.000    0.000    0.000    0.000    0.000 
#
# Total GULP energy -334542.911505 kJ/mol
# GULP energy per Si atom -5575.715192 kJ/mol
# Density = 2.137828 g / cm^3
# Si number density = 21.427054 Si / 1000 Ang^3
#
#
#
# Elastic Constant Matrix: (Units=GPa)
#
#
# Indices 1 2 3 4 5 6 
#
# 1 106.3183 5.8435 40.5690 0.0000 0.0000 0.0000
# 2 5.8435 54.6314 6.0014 0.0000 0.0000 0.0000
# 3 40.5690 6.0014 169.2999 0.0000 0.0000 0.0000
# 4 0.0000 0.0000 0.0000 24.5895 0.0000 0.0000
# 5 0.0000 0.0000 0.0000 0.0000 34.7210 0.0000
# 6 0.0000 0.0000 0.0000 0.0000 0.0000 15.3772
#
#
#
# Elastic Compliance Matrix: (Units=1/GPa)
#
#
# Indices 1 2 3 4 5 6 
#
# 1 0.010391 -0.000841 -0.002460 0.000000 0.000000 0.000000
# 2 -0.000841 0.018444 -0.000452 0.000000 0.000000 0.000000
# 3 -0.002460 -0.000452 0.006512 0.000000 0.000000 0.000000
# 4 0.000000 0.000000 0.000000 0.040668 0.000000 0.000000
# 5 0.000000 0.000000 0.000000 0.000000 0.028801 0.000000
# 6 0.000000 0.000000 0.000000 0.000000 0.000000 0.065031
#
#
# Mechanical properties :
#
#
# Convention : Reuss Voigt Hill
#
# Bulk Modulus (GPa) = 35.91948 48.34193 42.13071
# Shear Modulus (GPa) = 26.79039 33.45993 30.12516
#
# Velocity S-wave (km/s) = 3.53980 3.95596 3.75365
# Velocity P-wave (km/s) = 5.78852 6.59366 6.20416
#
# Compressibility (1/GPa) = 0.02784004
#
# Stress axis : x y z
#
# Youngs Moduli (GPa) = 96.24020 54.21777 153.55767
#
# Poissons Ratio (x) = 0.04561 0.37776
# Poissons Ratio (y) = 0.08095 0.06945
# Poissons Ratio (z) = 0.23676 0.02452
#
# Static dielectric constant tensor:
#      x y z
#    x 1.770870 0.000000 0.000000 
#    y 0.000000 1.808990 0.000000 
#    z 0.000000 0.000000 1.802310 
# 
# From -- ./inp_files/12216.got.cif
#   From: 2010.05.17/outbox.cif.g08.bks.cpg/sg73_7_cif.got.tgz:12216.got - 2010.06.03 17:35:07.
