data_PCOD9531556
_publ_section_title
;
Structure prediction by ZEFSAII (Michael W. Deem and Ramdas Pophale) SiO2 
 PCOD9531556
Probable space group: I B C A 
;
_chemical_formula_sum "Si O2"
_cell_formula_units_Z 88
_cell_length_a 15.467332
_cell_length_b 13.969422
_cell_length_c 18.205572
_cell_angle_alpha 90.000000
_cell_angle_beta 90.000000
_cell_angle_gamma 90.000000
_cell_volume 3933.672260
_symmetry_space_group_name_H-M "I B C A "
_symmetry_group_IT_number 73
_symmetry_cell_setting 'orthorhombic'
loop_
_space_group_symop_operation_xyz
x,y,z
-x,1/2-y,z
x,-y,1/2-z
1/2-x,y,-z
-x,-y,-z
x,1/2+y,-z
-x,y,1/2+z
1/2+x,-y,z
1/2+x,1/2+y,1/2+z
1/2-x,-y,1/2+z
1/2+x,1/2-y,-z
-x,1/2+y,1/2-z
1/2-x,1/2-y,1/2-z
1/2+x,y,1/2-z
1/2-x,1/2+y,z
x,1/2-y,1/2+z
loop_
_atom_site_type_symbol
_atom_site_label
_atom_site_fract_x
_atom_site_fract_y
_atom_site_fract_z
Si Si1 0.413557 0.460127 0.168164
Si Si2 0.552173 0.044072 0.932429
Si Si3 0.383273 0.792127 0.742428
Si Si4 0.500000 0.250000 0.891001
Si Si5 0.203676 0.386556 0.238800
Si Si6 0.758467 0.571207 0.918867
O O1 0.395178 0.500000 0.250000
O O2 0.500521 0.504959 0.137740
O O3 0.420736 0.348337 0.187989
O O4 0.332201 0.472941 0.111700
O O5 0.542419 0.160379 0.933924
O O6 0.652379 0.011434 0.929304
O O7 0.500000 0.000000 0.000000
O O8 0.433629 0.798089 0.666379
O O9 0.289738 0.840529 0.727686
O O10 0.374231 0.680391 0.761983
O O11 0.195211 0.500000 0.250000
O O12 0.215328 0.366683 0.151605
O O13 0.750000 0.615510 0.000000
#
# Coordination Sequence:
#
# PCOD9531556 Si02
#       6
#    16  16  16   8  16  16
#     4  11  23  44  78 107 144 191 248 310 370 448
#     4  12  26  46  76 104 152 197 246 308 383 451
#     4  10  21  40  68 103 138 182 245 304 371 439
#     4  12  24  44  70 102 142 196 240 310 390 438
#     4  10  22  40  69 105 143 189 245 309 371 439
#     4  11  22  41  73 101 142 199 246 296 376 449
#
# _framework density 22.370953
#
# number of rings (size 3 to 8) (size 9 to 14) (size 15 to 20)
#    0.000    1.091    5.455    2.182    0.000    2.909 
#    0.000    2.727    8.000    0.000    0.000    0.000 
#    0.000    0.000    0.000    0.000    0.000    0.000 
#
# Total GULP energy -245082.897067 kJ/mol
# GULP energy per Si atom -5570.065842 kJ/mol
# Density = 2.232004 g / cm^3
# Si number density = 22.370953 Si / 1000 Ang^3
#
#
#
# Elastic Constant Matrix: (Units=GPa)
#
#
# Indices 1 2 3 4 5 6 
#
# 1 86.9451 16.3178 22.5570 0.0000 0.0000 0.0000
# 2 16.3178 125.5065 27.8481 0.0000 0.0000 0.0000
# 3 22.5570 27.8481 118.5109 0.0000 0.0000 0.0000
# 4 0.0000 0.0000 0.0000 29.5616 0.0000 0.0000
# 5 0.0000 0.0000 0.0000 0.0000 38.9558 0.0000
# 6 0.0000 0.0000 0.0000 0.0000 0.0000 16.1744
#
#
#
# Elastic Compliance Matrix: (Units=1/GPa)
#
#
# Indices 1 2 3 4 5 6 
#
# 1 0.012250 -0.001135 -0.002065 0.000000 0.000000 0.000000
# 2 -0.001135 0.008511 -0.001784 0.000000 0.000000 0.000000
# 3 -0.002065 -0.001784 0.009250 0.000000 0.000000 0.000000
# 4 0.000000 0.000000 0.000000 0.033828 0.000000 0.000000
# 5 0.000000 0.000000 0.000000 0.000000 0.025670 0.000000
# 6 0.000000 0.000000 0.000000 0.000000 0.000000 0.061826
#
#
# Mechanical properties :
#
#
# Convention : Reuss Voigt Hill
#
# Bulk Modulus (GPa) = 49.88929 51.60092 50.74511
# Shear Modulus (GPa) = 29.76475 34.55435 32.15955
#
# Velocity S-wave (km/s) = 3.65157 3.93441 3.79563
# Velocity P-wave (km/s) = 6.33466 6.61480 6.47625
#
# Compressibility (1/GPa) = 0.02004438
#
# Stress axis : x y z
#
# Youngs Moduli (GPa) = 81.63131 117.49412 108.10438
#
# Poissons Ratio (x) = 0.13330 0.22324
# Poissons Ratio (y) = 0.09261 0.19286
# Poissons Ratio (z) = 0.16857 0.20961
#
# Static dielectric constant tensor:
#      x y z
#    x 1.951140 0.000000 0.000000 
#    y 0.000000 1.989510 0.000000 
#    z 0.000000 0.000000 1.856040 
# 
# From -- ./inp_files/22450.got.cif
#   From: 2010.05.17/outbox.cif.g08.bks.cpg/sg73_12_cif.got.tgz:22450.got - 2010.06.03 17:35:07.
