data_PCOD9531684
_publ_section_title
;
Structure prediction by ZEFSAII (Michael W. Deem and Ramdas Pophale) SiO2 
 PCOD9531684
Probable space group: I B C A 
;
_chemical_formula_sum "Si O2"
_cell_formula_units_Z 64
_cell_length_a 16.906166
_cell_length_b 16.192533
_cell_length_c 8.278106
_cell_angle_alpha 90.000000
_cell_angle_beta 90.000000
_cell_angle_gamma 90.000000
_cell_volume 2266.161740
_symmetry_space_group_name_H-M "I B C A "
_symmetry_group_IT_number 73
_symmetry_cell_setting 'orthorhombic'
loop_
_space_group_symop_operation_xyz
x,y,z
-x,1/2-y,z
x,-y,1/2-z
1/2-x,y,-z
-x,-y,-z
x,1/2+y,-z
-x,y,1/2+z
1/2+x,-y,z
1/2+x,1/2+y,1/2+z
1/2-x,-y,1/2+z
1/2+x,1/2-y,-z
-x,1/2+y,1/2-z
1/2-x,1/2-y,1/2-z
1/2+x,y,1/2-z
1/2-x,1/2+y,z
x,1/2-y,1/2+z
loop_
_atom_site_type_symbol
_atom_site_label
_atom_site_fract_x
_atom_site_fract_y
_atom_site_fract_z
Si Si1 0.566634 0.192922 0.602431
Si Si2 0.804116 0.812789 0.638850
Si Si3 0.318706 0.940068 0.385358
Si Si4 0.423838 0.428433 0.345234
O O1 0.500000 0.250000 0.677901
O O2 0.633519 0.255532 0.543601
O O3 0.531458 0.138202 0.456086
O O4 0.639948 0.374987 0.741631
O O5 0.750000 0.852885 0.500000
O O6 0.750000 0.750000 0.750000
O O7 0.878541 0.626420 0.693708
O O8 0.250000 0.903389 0.500000
O O9 0.374499 0.979756 0.520819
O O10 0.287615 0.000000 0.250000
O O11 0.468619 0.500000 0.250000
#
# Coordination Sequence:
#
# PCOD9531684 Si02
#       4
#    16  16  16  16
#     4  10  24  48  76 109 161 217 262 325 419 496
#     4  12  23  47  75 114 157 207 278 334 399 493
#     4  10  21  42  77 127 160 203 270 346 422 478
#     4  10  24  44  74 118 149 198 266 336 408 475
#
# _framework density 28.241586000000002
#
# number of rings (size 3 to 8) (size 9 to 14) (size 15 to 20)
#    1.500    0.000    2.500    3.000    0.000    6.000 
#    0.000    2.500    0.000    3.000    0.000    0.000 
#    0.000    0.000    0.000    0.000    0.000    0.000 
#
# Total GULP energy -178392.483973 kJ/mol
# GULP energy per Si atom -5574.765124 kJ/mol
# Density = 2.817731 g / cm^3
# Si number density = 28.241586 Si / 1000 Ang^3
#
#
#
# Elastic Constant Matrix: (Units=GPa)
#
#
# Indices 1 2 3 4 5 6 
#
# 1 102.7505 53.6194 32.6200 0.0000 0.0000 0.0000
# 2 53.6194 123.3377 64.8474 0.0000 0.0000 0.0000
# 3 32.6200 64.8474 78.0023 0.0000 0.0000 0.0000
# 4 0.0000 0.0000 0.0000 45.2504 0.0000 0.0000
# 5 0.0000 0.0000 0.0000 0.0000 17.3662 0.0000
# 6 0.0000 0.0000 0.0000 0.0000 0.0000 42.1253
#
#
#
# Elastic Compliance Matrix: (Units=1/GPa)
#
#
# Indices 1 2 3 4 5 6 
#
# 1 0.012659 -0.004832 -0.001277 0.000000 0.000000 0.000000
# 2 -0.004832 0.016248 -0.011487 0.000000 0.000000 0.000000
# 3 -0.001277 -0.011487 0.022904 0.000000 0.000000 0.000000
# 4 0.000000 0.000000 0.000000 0.022099 0.000000 0.000000
# 5 0.000000 0.000000 0.000000 0.000000 0.057583 0.000000
# 6 0.000000 0.000000 0.000000 0.000000 0.000000 0.023739
#
#
# Mechanical properties :
#
#
# Convention : Reuss Voigt Hill
#
# Bulk Modulus (GPa) = 60.17152 67.36267 63.76710
# Shear Modulus (GPa) = 25.51485 31.14863 28.33174
#
# Velocity S-wave (km/s) = 3.00900 3.32465 3.17076
# Velocity P-wave (km/s) = 5.78138 6.21625 6.00276
#
# Compressibility (1/GPa) = 0.01661916
#
# Stress axis : x y z
#
# Youngs Moduli (GPa) = 78.99352 61.54545 43.66050
#
# Poissons Ratio (x) = 0.29740 0.05575
# Poissons Ratio (y) = 0.38171 0.50154
# Poissons Ratio (z) = 0.10086 0.70698
#
# Static dielectric constant tensor:
#      x y z
#    x 2.220660 0.000000 0.000000 
#    y 0.000000 2.187350 0.000000 
#    z 0.000000 0.000000 2.160640 
# 
# From -- ./inp_files/6847.got.cif
#   From: 2010.05.17/outbox.cif.g08.bks.cpg/sg73_4_cif.got.tgz:6847.got - 2010.06.03 17:35:07.
