data_PCOD9531217
_publ_section_title
;
Structure prediction by ZEFSAII (Michael W. Deem and Ramdas Pophale) SiO2 
 PCOD9531217
Probable space group: I B C A 
;
_chemical_formula_sum "Si O2"
_cell_formula_units_Z 120
_cell_length_a 10.424409
_cell_length_b 24.454895
_cell_length_c 26.038628
_cell_angle_alpha 90.000000
_cell_angle_beta 90.000000
_cell_angle_gamma 90.000000
_cell_volume 6637.970868
_symmetry_space_group_name_H-M "I B C A "
_symmetry_group_IT_number 73
_symmetry_cell_setting 'orthorhombic'
loop_
_space_group_symop_operation_xyz
x,y,z
-x,1/2-y,z
x,-y,1/2-z
1/2-x,y,-z
-x,-y,-z
x,1/2+y,-z
-x,y,1/2+z
1/2+x,-y,z
1/2+x,1/2+y,1/2+z
1/2-x,-y,1/2+z
1/2+x,1/2-y,-z
-x,1/2+y,1/2-z
1/2-x,1/2-y,1/2-z
1/2+x,y,1/2-z
1/2-x,1/2+y,z
x,1/2-y,1/2+z
loop_
_atom_site_type_symbol
_atom_site_label
_atom_site_fract_x
_atom_site_fract_y
_atom_site_fract_z
Si Si1 0.882965 0.089034 0.321074
Si Si2 0.392425 0.055573 0.846903
Si Si3 0.605788 0.944434 0.394396
Si Si4 0.642859 0.275756 0.327910
Si Si5 0.619529 0.290962 0.208734
Si Si6 0.012616 0.500000 0.250000
Si Si7 0.394321 0.451883 0.994848
Si Si8 0.637453 0.886154 0.612177
O O1 0.737324 0.087909 0.339041
O O2 0.923584 0.150168 0.309935
O O3 0.976095 0.065994 0.364381
O O4 0.902565 0.048996 0.272752
O O5 0.424396 0.022281 0.795457
O O6 0.513284 0.093545 0.857349
O O7 0.375383 0.009896 0.891213
O O8 0.590993 0.920547 0.451317
O O9 0.732755 0.917287 0.370878
O O10 0.500000 0.250000 0.333193
O O11 0.652706 0.298634 0.269266
O O12 0.759560 0.231875 0.324212
O O13 0.656798 0.322714 0.371557
O O14 0.500000 0.250000 0.205468
O O15 0.390996 0.411145 0.945591
O O16 0.250000 0.476039 0.000000
O O17 0.500000 0.500000 0.000000
#
# Coordination Sequence:
#
# PCOD9531217 Si02
#       8
#    16  16  16  16  16   8  16  16
#     4  11  22  36  57  83 116 154 197 239 294 355
#     4  11  21  33  53  81 114 152 189 231 288 358
#     4  10  21  36  54  82 115 148 187 232 300 362
#     4  10  21  37  57  81 110 148 199 242 292 343
#     4  10  21  37  57  82 112 153 198 246 286 348
#     4  10  22  34  50  80 122 152 184 230 296 358
#     4  10  21  36  58  83 114 150 188 237 295 363
#     4  11  21  36  58  80 113 150 187 245 297 350
#
# _framework density 18.077814
#
# number of rings (size 3 to 8) (size 9 to 14) (size 15 to 20)
#    0.000    1.600    1.333    4.400    1.867    5.333 
#    0.000    0.000    0.000    5.600    0.000    0.000 
#    0.000    0.000    0.000    0.000    0.000    0.000 
#
# Total GULP energy -334202.156556 kJ/mol
# GULP energy per Si atom -5570.035943 kJ/mol
# Density = 1.803667 g / cm^3
# Si number density = 18.077814 Si / 1000 Ang^3
#
#
#
# Elastic Constant Matrix: (Units=GPa)
#
#
# Indices 1 2 3 4 5 6 
#
# 1 95.6981 12.9991 20.5122 0.0000 0.0000 0.0000
# 2 12.9991 74.5325 19.1452 0.0000 0.0000 0.0000
# 3 20.5122 19.1452 74.4910 0.0000 0.0000 0.0000
# 4 0.0000 0.0000 0.0000 16.8259 0.0000 0.0000
# 5 0.0000 0.0000 0.0000 0.0000 2.2894 0.0000
# 6 0.0000 0.0000 0.0000 0.0000 0.0000 23.8999
#
#
#
# Elastic Compliance Matrix: (Units=1/GPa)
#
#
# Indices 1 2 3 4 5 6 
#
# 1 0.011212 -0.001245 -0.002767 0.000000 0.000000 0.000000
# 2 -0.001245 0.014504 -0.003385 0.000000 0.000000 0.000000
# 3 -0.002767 -0.003385 0.015056 0.000000 0.000000 0.000000
# 4 0.000000 0.000000 0.000000 0.059432 0.000000 0.000000
# 5 0.000000 0.000000 0.000000 0.000000 0.436792 0.000000
# 6 0.000000 0.000000 0.000000 0.000000 0.000000 0.041841
#
#
# Mechanical properties :
#
#
# Convention : Reuss Voigt Hill
#
# Bulk Modulus (GPa) = 38.49422 38.89274 38.69348
# Shear Modulus (GPa) = 8.30165 21.40737 14.85451
#
# Velocity S-wave (km/s) = 2.14526 3.44492 2.86964
# Velocity P-wave (km/s) = 5.24176 6.11425 5.69474
#
# Compressibility (1/GPa) = 0.02597793
#
# Stress axis : x y z
#
# Youngs Moduli (GPa) = 89.19198 68.94885 66.41665
#
# Poissons Ratio (x) = 0.08581 0.18381
# Poissons Ratio (y) = 0.11100 0.22481
# Poissons Ratio (z) = 0.24684 0.23339
#
# Static dielectric constant tensor:
#      x y z
#    x 2.329990 0.000000 0.000000 
#    y 0.000000 1.651400 0.000000 
#    z 0.000000 0.000000 1.654280 
# 
# From -- ./inp_files/31410.got.cif
#   From: 2010.05.17/outbox.cif.g08.bks.cpg/sg73_16_cif.got.tgz:31410.got - 2010.06.03 17:35:07.
