data_PCOD9531242
_publ_section_title
;
Structure prediction by ZEFSAII (Michael W. Deem and Ramdas Pophale) SiO2 
 PCOD9531242
Probable space group: I B C A 
;
_chemical_formula_sum "Si O2"
_cell_formula_units_Z 112
_cell_length_a 18.057977
_cell_length_b 13.399088
_cell_length_c 20.019272
_cell_angle_alpha 90.000000
_cell_angle_beta 90.000000
_cell_angle_gamma 90.000000
_cell_volume 4843.871520
_symmetry_space_group_name_H-M "I B C A "
_symmetry_group_IT_number 73
_symmetry_cell_setting 'orthorhombic'
loop_
_space_group_symop_operation_xyz
x,y,z
-x,1/2-y,z
x,-y,1/2-z
1/2-x,y,-z
-x,-y,-z
x,1/2+y,-z
-x,y,1/2+z
1/2+x,-y,z
1/2+x,1/2+y,1/2+z
1/2-x,-y,1/2+z
1/2+x,1/2-y,-z
-x,1/2+y,1/2-z
1/2-x,1/2-y,1/2-z
1/2+x,y,1/2-z
1/2-x,1/2+y,z
x,1/2-y,1/2+z
loop_
_atom_site_type_symbol
_atom_site_label
_atom_site_fract_x
_atom_site_fract_y
_atom_site_fract_z
Si Si1 0.088692 0.870084 0.377888
Si Si2 0.375991 0.112584 0.265837
Si Si3 0.221038 0.811558 0.065050
Si Si4 0.650505 0.959947 0.594020
Si Si5 0.073409 0.431636 0.959505
Si Si6 0.260816 0.638563 0.837861
Si Si7 0.000000 0.250000 0.017622
Si Si8 0.000000 0.250000 0.230123
O O1 0.174114 0.879494 0.353649
O O2 0.068262 0.785640 0.434264
O O3 0.040430 0.833393 0.315351
O O4 0.065140 0.976827 0.408832
O O5 0.293303 0.130841 0.237212
O O6 0.433062 0.191483 0.234941
O O7 0.398622 0.000000 0.250000
O O8 0.378649 0.110542 0.346017
O O9 0.142443 0.863047 0.061055
O O10 0.224465 0.745041 0.130155
O O11 0.280149 0.899460 0.066828
O O12 0.250000 0.749611 0.000000
O O13 0.685343 0.060127 0.624285
O O14 0.594334 0.974137 0.533300
O O15 0.012854 0.347222 0.972875
#
# Coordination Sequence:
#
# PCOD9531242 Si02
#       8
#    16  16  16  16  16  16   8   8
#     4  11  23  42  70 104 140 192 234 293 361 427
#     4  10  24  48  71  99 137 189 238 295 350 412
#     4  10  21  36  61 102 134 166 221 291 358 404
#     4  10  21  40  68  97 137 175 229 295 357 405
#     4  11  23  41  64 104 143 183 233 284 356 437
#     4  11  23  41  71 100 133 177 242 300 344 408
#     4  11  24  40  61  96 150 193 222 273 364 447
#     4  11  24  48  71  96 144 199 234 277 366 437
#
# _framework density 23.122001000000001
#
# number of rings (size 3 to 8) (size 9 to 14) (size 15 to 20)
#    0.000    1.429    1.429    4.714    4.000    2.286 
#    5.143    2.143    0.000    0.000    0.000    0.000 
#    0.000    0.000    0.000    0.000    0.000    0.000 
#
# Total GULP energy -312690.171591 kJ/mol
# GULP energy per Si atom -5583.753064 kJ/mol
# Density = 2.306937 g / cm^3
# Si number density = 23.122001 Si / 1000 Ang^3
#
#
#
# Elastic Constant Matrix: (Units=GPa)
#
#
# Indices 1 2 3 4 5 6 
#
# 1 103.8991 51.7000 9.4360 0.0000 0.0000 0.0000
# 2 51.7000 108.6534 35.2211 0.0000 0.0000 0.0000
# 3 9.4360 35.2211 43.5895 0.0000 0.0000 0.0000
# 4 0.0000 0.0000 0.0000 -284.4115 0.0000 0.0000
# 5 0.0000 0.0000 0.0000 0.0000 31.1494 0.0000
# 6 0.0000 0.0000 0.0000 0.0000 0.0000 40.7394
#
#
#
# Elastic Compliance Matrix: (Units=1/GPa)
#
#
# Indices 1 2 3 4 5 6 
#
# 1 0.012881 -0.007080 0.002932 0.000000 0.000000 0.000000
# 2 -0.007080 0.016361 -0.011687 0.000000 0.000000 0.000000
# 3 0.002932 -0.011687 0.031750 0.000000 0.000000 0.000000
# 4 0.000000 0.000000 0.000000 -0.003516 0.000000 0.000000
# 5 0.000000 0.000000 0.000000 0.000000 0.032103 0.000000
# 6 0.000000 0.000000 0.000000 0.000000 0.000000 0.024546
#
#
# Mechanical properties :
#
#
# Convention : Reuss Voigt Hill
#
# Bulk Modulus (GPa) = 34.10358 49.87292 41.98825
# Shear Modulus (GPa) = 32.13990 -31.85220 0.14385
#
# Velocity S-wave (km/s) = 3.73233 -3.71559 0.24970
# Velocity P-wave (km/s) = 5.77539 1.79131 4.27574
#
# Compressibility (1/GPa) = 0.02932243
#
# Stress axis : x y z
#
# Youngs Moduli (GPa) = 77.63198 61.12154 31.49589
#
# Poissons Ratio (x) = 0.43272 -0.09235
# Poissons Ratio (y) = 0.54961 0.36810
# Poissons Ratio (z) = -0.22762 0.71435
#
# Static dielectric constant tensor:
#      x y z
#    x 1.906880 0.000000 0.000000 
#    y 0.000000 1.847820 0.000000 
#    z 0.000000 0.000000 2.149880 
# 
# From -- ./inp_files/30158.got.cif
#   From: 2010.05.17/outbox.cif.g08.bks.cpg/sg73_16_cif.got.tgz:30158.got - 2010.06.03 17:35:07.
