data_PCOD9531192
_publ_section_title
;
Structure prediction by ZEFSAII (Michael W. Deem and Ramdas Pophale) SiO2 
 PCOD9531192
Probable space group: I B C A 
;
_chemical_formula_sum "Si O2"
_cell_formula_units_Z 96
_cell_length_a 22.791625
_cell_length_b 8.787335
_cell_length_c 24.714725
_cell_angle_alpha 90.000000
_cell_angle_beta 90.000000
_cell_angle_gamma 90.000000
_cell_volume 4949.806897
_symmetry_space_group_name_H-M "I B C A "
_symmetry_group_IT_number 73
_symmetry_cell_setting 'orthorhombic'
loop_
_space_group_symop_operation_xyz
x,y,z
-x,1/2-y,z
x,-y,1/2-z
1/2-x,y,-z
-x,-y,-z
x,1/2+y,-z
-x,y,1/2+z
1/2+x,-y,z
1/2+x,1/2+y,1/2+z
1/2-x,-y,1/2+z
1/2+x,1/2-y,-z
-x,1/2+y,1/2-z
1/2-x,1/2-y,1/2-z
1/2+x,y,1/2-z
1/2-x,1/2+y,z
x,1/2-y,1/2+z
loop_
_atom_site_type_symbol
_atom_site_label
_atom_site_fract_x
_atom_site_fract_y
_atom_site_fract_z
Si Si1 0.727670 0.869187 0.792941
Si Si2 0.146533 0.364874 0.656174
Si Si3 0.934962 0.206040 0.071049
Si Si4 0.057587 0.178851 0.247073
Si Si5 0.059748 0.653897 0.045424
Si Si6 0.381217 0.719085 0.352192
O O1 0.750000 0.750000 0.750000
O O2 0.784316 0.888755 0.832353
O O3 0.675538 0.802540 0.828416
O O4 0.709975 0.000000 0.750000
O O5 0.118208 0.252708 0.611179
O O6 0.116069 0.306765 0.711505
O O7 0.124707 0.536624 0.645193
O O8 0.000000 0.250000 0.092919
O O9 0.941160 0.027864 0.054963
O O10 0.925727 0.303849 0.016301
O O11 0.069288 0.247050 0.306376
O O12 0.000000 0.250000 0.221668
O O13 0.046762 0.000000 0.250000
O O14 0.104461 0.718003 0.089332
O O15 0.000000 0.750000 0.056193
#
# Coordination Sequence:
#
# PCOD9531192 Si02
#       6
#    16  16  16  16  16  16
#     4  12  23  42  64  89 126 170 211 255 310 371
#     4  11  22  40  60  88 123 164 207 258 309 374
#     4  11  23  41  66  92 125 163 206 257 319 379
#     4  10  21  35  53  83 120 155 193 246 302 362
#     4  11  23  41  65  93 124 163 206 257 318 380
#     4  11  23  39  61  87 125 162 210 256 310 372
#
# _framework density 19.394696
#
# number of rings (size 3 to 8) (size 9 to 14) (size 15 to 20)
#    0.000    1.000    3.333    5.500    2.333    4.667 
#    0.000    0.833    0.000    4.000    0.000    0.000 
#    0.000    0.000    0.000    0.000    0.000    0.000 
#
# Total GULP energy -267625.916342 kJ/mol
# GULP energy per Si atom -5575.539924 kJ/mol
# Density = 1.935055 g / cm^3
# Si number density = 19.394696 Si / 1000 Ang^3
#
#
#
# Elastic Constant Matrix: (Units=GPa)
#
#
# Indices 1 2 3 4 5 6 
#
# 1 90.4338 15.9084 33.3271 0.0000 0.0000 0.0000
# 2 15.9084 91.9973 22.6891 0.0000 0.0000 0.0000
# 3 33.3271 22.6891 82.2557 0.0000 0.0000 0.0000
# 4 0.0000 0.0000 0.0000 31.3136 0.0000 0.0000
# 5 0.0000 0.0000 0.0000 0.0000 27.4292 0.0000
# 6 0.0000 0.0000 0.0000 0.0000 0.0000 26.5608
#
#
#
# Elastic Compliance Matrix: (Units=1/GPa)
#
#
# Indices 1 2 3 4 5 6 
#
# 1 0.013088 -0.001025 -0.005020 0.000000 0.000000 0.000000
# 2 -0.001025 0.011744 -0.002824 0.000000 0.000000 0.000000
# 3 -0.005020 -0.002824 0.014970 0.000000 0.000000 0.000000
# 4 0.000000 0.000000 0.000000 0.031935 0.000000 0.000000
# 5 0.000000 0.000000 0.000000 0.000000 0.036458 0.000000
# 6 0.000000 0.000000 0.000000 0.000000 0.000000 0.037649
#
#
# Mechanical properties :
#
#
# Convention : Reuss Voigt Hill
#
# Bulk Modulus (GPa) = 45.32368 45.39289 45.35829
# Shear Modulus (GPa) = 29.25056 29.91152 29.58104
#
# Velocity S-wave (km/s) = 3.88773 3.93141 3.90963
# Velocity P-wave (km/s) = 6.60094 6.63804 6.61952
#
# Compressibility (1/GPa) = 0.02206352
#
# Stress axis : x y z
#
# Youngs Moduli (GPa) = 76.40479 85.15256 66.79974
#
# Poissons Ratio (x) = 0.08729 0.33534
# Poissons Ratio (y) = 0.07833 0.18864
# Poissons Ratio (z) = 0.38356 0.24047
#
# Static dielectric constant tensor:
#      x y z
#    x 1.699050 0.000000 0.000000 
#    y 0.000000 1.656750 0.000000 
#    z 0.000000 0.000000 1.676500 
# 
# From -- ./inp_files/27530.got.cif
#   From: 2010.05.17/outbox.cif.g08.bks.cpg/sg73_14_cif.got.tgz:27530.got - 2010.06.03 17:35:07.
