data_PCOD9531761
_publ_section_title
;
Structure prediction by ZEFSAII (Michael W. Deem and Ramdas Pophale) SiO2 
 PCOD9531761
Probable space group: I B C A 
;
_chemical_formula_sum "Si O2"
_cell_formula_units_Z 112
_cell_length_a 14.383171
_cell_length_b 10.251752
_cell_length_c 30.952422
_cell_angle_alpha 90.000000
_cell_angle_beta 90.000000
_cell_angle_gamma 90.000000
_cell_volume 4564.018259
_symmetry_space_group_name_H-M "I B C A "
_symmetry_group_IT_number 73
_symmetry_cell_setting 'orthorhombic'
loop_
_space_group_symop_operation_xyz
x,y,z
-x,1/2-y,z
x,-y,1/2-z
1/2-x,y,-z
-x,-y,-z
x,1/2+y,-z
-x,y,1/2+z
1/2+x,-y,z
1/2+x,1/2+y,1/2+z
1/2-x,-y,1/2+z
1/2+x,1/2-y,-z
-x,1/2+y,1/2-z
1/2-x,1/2-y,1/2-z
1/2+x,y,1/2-z
1/2-x,1/2+y,z
x,1/2-y,1/2+z
loop_
_atom_site_type_symbol
_atom_site_label
_atom_site_fract_x
_atom_site_fract_y
_atom_site_fract_z
Si Si1 0.911987 0.347638 0.012755
Si Si2 0.390155 0.772515 0.847528
Si Si3 0.589204 0.496314 0.896599
Si Si4 0.162224 0.088439 0.524494
Si Si5 0.801047 0.819882 0.829513
Si Si6 0.085007 0.359293 0.116764
Si Si7 0.081101 0.856835 0.246064
O O1 0.911574 0.468564 0.979962
O O2 0.850804 0.129946 0.074223
O O3 0.000000 0.250000 0.017333
O O4 0.845569 0.228054 0.000383
O O5 0.500000 0.750000 0.846493
O O6 0.307278 0.670502 0.841545
O O7 0.377478 0.847826 0.801845
O O8 0.377061 0.856140 0.891232
O O9 0.602195 0.424200 0.942046
O O10 0.648029 0.419642 0.861241
O O11 0.480739 0.485728 0.882285
O O12 0.250000 0.025874 0.500000
O O13 0.847283 0.681737 0.844756
O O14 0.836940 0.842075 0.781175
O O15 0.000000 0.250000 0.114569
O O16 0.000000 0.750000 0.252945
O O17 0.037715 0.000000 0.250000
#
# Coordination Sequence:
#
# PCOD9531761 Si02
#       7
#    16  16  16  16  16  16  16
#     4  12  24  46  73  99 141 193 245 306 381 449
#     4  11  27  46  66 113 152 187 256 310 369 448
#     4  11  22  45  72  98 145 192 247 304 378 450
#     4  12  25  44  68 107 142 185 250 315 379 451
#     4  11  22  45  77 102 147 201 248 301 379 454
#     4  10  21  45  74 100 141 197 251 300 382 457
#     4  11  23  46  78 117 154 200 245 307 378 450
#
# _framework density 24.539778999999999
#
# number of rings (size 3 to 8) (size 9 to 14) (size 15 to 20)
#    0.000    0.857    5.714    2.571    2.000    1.143 
#    5.143    0.714    0.000    0.000    0.000    0.000 
#    0.000    0.000    0.000    0.000    0.000    0.000 
#
# Total GULP energy -311949.523378 kJ/mol
# GULP energy per Si atom -5570.527203 kJ/mol
# Density = 2.448393 g / cm^3
# Si number density = 24.539779 Si / 1000 Ang^3
#
#
#
# Elastic Constant Matrix: (Units=GPa)
#
#
# Indices 1 2 3 4 5 6 
#
# 1 136.5267 18.4898 26.2739 0.0000 0.0000 0.0000
# 2 18.4898 93.4920 49.6802 0.0000 0.0000 0.0000
# 3 26.2739 49.6802 90.4509 0.0000 0.0000 0.0000
# 4 0.0000 0.0000 0.0000 -1.6205 0.0000 0.0000
# 5 0.0000 0.0000 0.0000 0.0000 21.3812 0.0000
# 6 0.0000 0.0000 0.0000 0.0000 0.0000 17.0973
#
#
#
# Elastic Compliance Matrix: (Units=1/GPa)
#
#
# Indices 1 2 3 4 5 6 
#
# 1 0.007773 -0.000477 -0.001996 0.000000 0.000000 0.000000
# 2 -0.000477 0.015134 -0.008174 0.000000 0.000000 0.000000
# 3 -0.001996 -0.008174 0.016125 0.000000 0.000000 0.000000
# 4 0.000000 0.000000 0.000000 -0.617103 0.000000 0.000000
# 5 0.000000 0.000000 0.000000 0.000000 0.046770 0.000000
# 6 0.000000 0.000000 0.000000 0.000000 0.000000 0.058489
#
#
# Mechanical properties :
#
#
# Convention : Reuss Voigt Hill
#
# Bulk Modulus (GPa) = 56.37312 56.59528 56.48420
# Shear Modulus (GPa) = -11.22067 22.44000 5.60966
#
# Velocity S-wave (km/s) = -2.14065 3.02724 1.51358
# Velocity P-wave (km/s) = 4.11244 5.94404 5.11096
#
# Compressibility (1/GPa) = 0.01773895
#
# Stress axis : x y z
#
# Youngs Moduli (GPa) = 128.64591 66.07735 62.01534
#
# Poissons Ratio (x) = 0.03149 0.12380
# Poissons Ratio (y) = 0.06131 0.50690
# Poissons Ratio (z) = 0.25680 0.54010
#
# Static dielectric constant tensor:
#      x y z
#    x 2.350160 0.000000 0.000000 
#    y 0.000000 2.083350 0.000000 
#    z 0.000000 0.000000 1.920080 
# 
# From -- ./inp_files/34306.got.cif
#   From: 2010.05.17/outbox.cif.g08.bks.cpg/sg73_18_cif.got.tgz:34306.got - 2010.06.03 17:35:07.
