data_PCOD9531649
_publ_section_title
;
Structure prediction by ZEFSAII (Michael W. Deem and Ramdas Pophale) SiO2 
 PCOD9531649
Probable space group: I B C A 
;
_chemical_formula_sum "Si O2"
_cell_formula_units_Z 112
_cell_length_a 20.915265
_cell_length_b 11.985854
_cell_length_c 22.752997
_cell_angle_alpha 90.000000
_cell_angle_beta 90.000000
_cell_angle_gamma 90.000000
_cell_volume 5703.887673
_symmetry_space_group_name_H-M "I B C A "
_symmetry_group_IT_number 73
_symmetry_cell_setting 'orthorhombic'
loop_
_space_group_symop_operation_xyz
x,y,z
-x,1/2-y,z
x,-y,1/2-z
1/2-x,y,-z
-x,-y,-z
x,1/2+y,-z
-x,y,1/2+z
1/2+x,-y,z
1/2+x,1/2+y,1/2+z
1/2-x,-y,1/2+z
1/2+x,1/2-y,-z
-x,1/2+y,1/2-z
1/2-x,1/2-y,1/2-z
1/2+x,y,1/2-z
1/2-x,1/2+y,z
x,1/2-y,1/2+z
loop_
_atom_site_type_symbol
_atom_site_label
_atom_site_fract_x
_atom_site_fract_y
_atom_site_fract_z
Si Si1 0.451460 0.660962 0.459850
Si Si2 0.668236 0.000000 0.750000
Si Si3 0.845543 0.738113 0.404265
Si Si4 0.470298 0.588112 0.077537
Si Si5 0.742454 0.687489 0.311784
Si Si6 0.092200 0.450764 0.140683
Si Si7 0.250000 0.660004 0.000000
Si Si8 0.351733 0.329126 0.587277
O O1 0.500000 0.750000 0.430908
O O2 0.446877 0.538503 0.432443
O O3 0.485814 0.630553 0.522468
O O4 0.387039 0.733107 0.450667
O O5 0.714591 0.931531 0.792626
O O6 0.620408 0.937637 0.705807
O O7 0.808923 0.693167 0.346388
O O8 0.866062 0.864910 0.396835
O O9 0.794081 0.727233 0.455412
O O10 0.909041 0.666101 0.415972
O O11 0.518949 0.584753 0.132089
O O12 0.750000 0.750000 0.250000
O O13 0.688632 0.726181 0.359218
O O14 0.102752 0.575622 0.115148
O O15 0.198203 0.606003 0.044175
#
# Coordination Sequence:
#
# PCOD9531649 Si02
#       8
#    16   8  16  16  16  16   8  16
#     4  11  21  41  61  89 131 163 204 249 320 385
#     4  10  22  40  68  88 122 172 220 258 322 368
#     4  11  23  41  63  98 128 165 211 264 318 380
#     4  11  24  38  66  93 125 170 204 260 318 380
#     4  10  21  42  65  89 126 168 216 268 312 369
#     4  11  21  40  65  89 127 169 207 258 317 379
#     4  10  22  40  56  94 128 156 216 252 314 376
#     4  10  22  38  63  92 123 170 208 255 318 383
#
# _framework density 19.635729999999999
#
# number of rings (size 3 to 8) (size 9 to 14) (size 15 to 20)
#    0.000    1.429    2.857    3.000    2.000    1.714 
#    7.714    2.143    3.143    0.000    0.000    0.000 
#    0.000    0.000    0.000    0.000    0.000    0.000 
#
# Total GULP energy -311754.266334 kJ/mol
# GULP energy per Si atom -5567.040470 kJ/mol
# Density = 1.959104 g / cm^3
# Si number density = 19.635730 Si / 1000 Ang^3
#
#
#
# Elastic Constant Matrix: (Units=GPa)
#
#
# Indices 1 2 3 4 5 6 
#
# 1 117.0719 35.3246 55.5535 0.0000 0.0000 0.0000
# 2 35.3246 84.5970 23.1280 0.0000 0.0000 0.0000
# 3 55.5535 23.1280 90.3749 0.0000 0.0000 0.0000
# 4 0.0000 0.0000 0.0000 24.1930 0.0000 0.0000
# 5 0.0000 0.0000 0.0000 0.0000 33.2501 0.0000
# 6 0.0000 0.0000 0.0000 0.0000 0.0000 6.9546
#
#
#
# Elastic Compliance Matrix: (Units=1/GPa)
#
#
# Indices 1 2 3 4 5 6 
#
# 1 0.012943 -0.003472 -0.007068 0.000000 0.000000 0.000000
# 2 -0.003472 0.013642 -0.001357 0.000000 0.000000 0.000000
# 3 -0.007068 -0.001357 0.015757 0.000000 0.000000 0.000000
# 4 0.000000 0.000000 0.000000 0.041334 0.000000 0.000000
# 5 0.000000 0.000000 0.000000 0.000000 0.030075 0.000000
# 6 0.000000 0.000000 0.000000 0.000000 0.000000 0.143789
#
#
# Mechanical properties :
#
#
# Convention : Reuss Voigt Hill
#
# Bulk Modulus (GPa) = 53.91316 57.78400 55.84858
# Shear Modulus (GPa) = 17.39036 24.74872 21.06954
#
# Velocity S-wave (km/s) = 2.97921 3.55405 3.27925
# Velocity P-wave (km/s) = 6.27300 6.80688 6.54539
#
# Compressibility (1/GPa) = 0.01854835
#
# Stress axis : x y z
#
# Youngs Moduli (GPa) = 77.26027 73.30528 63.46530
#
# Poissons Ratio (x) = 0.25455 0.44855
# Poissons Ratio (y) = 0.26828 0.08609
# Poissons Ratio (z) = 0.54604 0.09944
#
# Static dielectric constant tensor:
#      x y z
#    x 1.758670 0.000000 0.000000 
#    y 0.000000 1.695690 0.000000 
#    z 0.000000 0.000000 1.779700 
# 
# From -- ./inp_files/29058.got.cif
#   From: 2010.05.17/outbox.cif.g08.bks.cpg/sg73_15_cif.got.tgz:29058.got - 2010.06.03 17:35:07.
