data_PCOD9531167
_publ_section_title
;
Structure prediction by ZEFSAII (Michael W. Deem and Ramdas Pophale) SiO2 
 PCOD9531167
Probable space group: I B C A 
;
_chemical_formula_sum "Si O2"
_cell_formula_units_Z 88
_cell_length_a 25.558881
_cell_length_b 17.600382
_cell_length_c 9.885330
_cell_angle_alpha 90.000000
_cell_angle_beta 90.000000
_cell_angle_gamma 90.000000
_cell_volume 4446.876842
_symmetry_space_group_name_H-M "I B C A "
_symmetry_group_IT_number 73
_symmetry_cell_setting 'orthorhombic'
loop_
_space_group_symop_operation_xyz
x,y,z
-x,1/2-y,z
x,-y,1/2-z
1/2-x,y,-z
-x,-y,-z
x,1/2+y,-z
-x,y,1/2+z
1/2+x,-y,z
1/2+x,1/2+y,1/2+z
1/2-x,-y,1/2+z
1/2+x,1/2-y,-z
-x,1/2+y,1/2-z
1/2-x,1/2-y,1/2-z
1/2+x,y,1/2-z
1/2-x,1/2+y,z
x,1/2-y,1/2+z
loop_
_atom_site_type_symbol
_atom_site_label
_atom_site_fract_x
_atom_site_fract_y
_atom_site_fract_z
Si Si1 0.109223 0.590374 0.987725
Si Si2 0.660158 0.000000 0.250000
Si Si3 0.003931 0.162380 0.070712
Si Si4 0.519364 0.925641 0.821271
Si Si5 0.297229 0.308946 0.608502
Si Si6 0.772471 0.359141 0.352960
O O1 0.128690 0.529083 0.880671
O O2 0.065423 0.642320 0.914143
O O3 0.074987 0.555369 0.110213
O O4 0.155022 0.642672 0.048863
O O5 0.694826 0.071609 0.205335
O O6 0.000000 0.250000 0.037118
O O7 0.975402 0.138406 0.207281
O O8 0.986634 0.109036 0.945560
O O9 0.496886 0.000000 0.750000
O O10 0.250000 0.313453 0.500000
O O11 0.274649 0.341192 0.749023
O O12 0.305989 0.218922 0.632597
O O13 0.750000 0.377900 0.500000
#
# Coordination Sequence:
#
# PCOD9531167 Si02
#       6
#    16   8  16  16  16  16
#     4  10  26  40  70 101 135 181 231 285 349 429
#     4  12  24  44  64 112 136 184 222 292 350 414
#     4  10  23  45  69  98 131 182 238 288 348 417
#     4  10  23  44  66  97 137 174 222 293 350 409
#     4  10  20  48  65  97 140 181 230 277 341 414
#     4  10  24  39  70  94 139 184 222 286 338 403
#
# _framework density 19.789169000000001
#
# number of rings (size 3 to 8) (size 9 to 14) (size 15 to 20)
#    1.091    0.727    1.818    1.091    3.818    2.909 
#    3.273    0.000    0.000    0.000    0.000    0.000 
#    0.000    0.000    0.000    0.000    0.000    0.000 
#
# Total GULP energy -245382.797271 kJ/mol
# GULP energy per Si atom -5576.881756 kJ/mol
# Density = 1.974413 g / cm^3
# Si number density = 19.789169 Si / 1000 Ang^3
#
#
#
# Elastic Constant Matrix: (Units=GPa)
#
#
# Indices 1 2 3 4 5 6 
#
# 1 46.1742 42.8412 36.9814 0.0000 0.0000 0.0000
# 2 42.8412 88.4814 44.5377 0.0000 0.0000 0.0000
# 3 36.9814 44.5377 143.6706 0.0000 0.0000 0.0000
# 4 0.0000 0.0000 0.0000 34.5263 0.0000 0.0000
# 5 0.0000 0.0000 0.0000 0.0000 17.9964 0.0000
# 6 0.0000 0.0000 0.0000 0.0000 0.0000 14.4169
#
#
#
# Elastic Compliance Matrix: (Units=1/GPa)
#
#
# Indices 1 2 3 4 5 6 
#
# 1 0.042606 -0.017902 -0.005417 0.000000 0.000000 0.000000
# 2 -0.017902 0.020914 -0.001875 0.000000 0.000000 0.000000
# 3 -0.005417 -0.001875 0.008936 0.000000 0.000000 0.000000
# 4 0.000000 0.000000 0.000000 0.028963 0.000000 0.000000
# 5 0.000000 0.000000 0.000000 0.000000 0.055567 0.000000
# 6 0.000000 0.000000 0.000000 0.000000 0.000000 0.069363
#
#
# Mechanical properties :
#
#
# Convention : Reuss Voigt Hill
#
# Bulk Modulus (GPa) = 45.31779 58.56075 51.93927
# Shear Modulus (GPa) = 17.59988 23.65232 20.62610
#
# Velocity S-wave (km/s) = 2.98546 3.46094 3.23196
# Velocity P-wave (km/s) = 5.90203 6.75480 6.34277
#
# Compressibility (1/GPa) = 0.02206639
#
# Stress axis : x y z
#
# Youngs Moduli (GPa) = 23.47100 47.81586 111.90609
#
# Poissons Ratio (x) = 0.85601 0.60622
# Poissons Ratio (y) = 0.42018 0.20983
# Poissons Ratio (z) = 0.12715 0.08966
#
# Static dielectric constant tensor:
#      x y z
#    x 1.683100 0.000000 0.000000 
#    y 0.000000 1.703470 0.000000 
#    z 0.000000 0.000000 1.732320 
# 
# From -- ./inp_files/8376.got.cif
#   From: 2010.05.17/outbox.cif.g08.bks.cpg/sg73_5_cif.got.tgz:8376.got - 2010.06.03 17:35:07.
