data_PCOD9531738
_publ_section_title
;
Structure prediction by ZEFSAII (Michael W. Deem and Ramdas Pophale) SiO2 
 PCOD9531738
Probable space group: I B C A 
;
_chemical_formula_sum "Si O2"
_cell_formula_units_Z 96
_cell_length_a 27.947372
_cell_length_b 18.802557
_cell_length_c 8.999556
_cell_angle_alpha 90.000000
_cell_angle_beta 90.000000
_cell_angle_gamma 90.000000
_cell_volume 4729.105181
_symmetry_space_group_name_H-M "I B C A "
_symmetry_group_IT_number 73
_symmetry_cell_setting 'orthorhombic'
loop_
_space_group_symop_operation_xyz
x,y,z
-x,1/2-y,z
x,-y,1/2-z
1/2-x,y,-z
-x,-y,-z
x,1/2+y,-z
-x,y,1/2+z
1/2+x,-y,z
1/2+x,1/2+y,1/2+z
1/2-x,-y,1/2+z
1/2+x,1/2-y,-z
-x,1/2+y,1/2-z
1/2-x,1/2-y,1/2-z
1/2+x,y,1/2-z
1/2-x,1/2+y,z
x,1/2-y,1/2+z
loop_
_atom_site_type_symbol
_atom_site_label
_atom_site_fract_x
_atom_site_fract_y
_atom_site_fract_z
Si Si1 0.361917 0.770415 0.830764
Si Si2 0.299203 0.503048 0.929870
Si Si3 0.927568 0.146647 0.339067
Si Si4 0.115460 0.602857 0.466871
Si Si5 0.020172 0.554666 0.619711
Si Si6 0.341639 0.649449 0.026725
O O1 0.413615 0.729837 0.808960
O O2 0.343246 0.812123 0.686519
O O3 0.365549 0.823050 0.969869
O O4 0.330152 0.705365 0.893646
O O5 0.296831 0.500000 0.750000
O O6 0.343592 0.454990 0.978859
O O7 0.250000 0.475936 0.000000
O O8 0.309576 0.580855 0.999556
O O9 0.902040 0.106861 0.202533
O O10 0.897116 0.129356 0.487278
O O11 0.980922 0.116432 0.348857
O O12 0.069220 0.587052 0.564227
O O13 0.029620 0.500000 0.750000
O O14 0.000000 0.500000 0.500000
#
# Coordination Sequence:
#
# PCOD9531738 Si02
#       6
#    16  16  16  16  16  16
#     4  10  22  41  72 101 140 192 232 289 367 424
#     4  12  28  48  75 107 142 190 246 313 377 436
#     4  10  21  44  65  95 139 189 231 283 355 421
#     4  12  25  45  70  98 147 187 237 304 356 435
#     4  12  26  38  63 103 140 188 241 288 351 431
#     4  10  22  43  73 102 141 189 233 293 360 437
#
# _framework density 20.299823
#
# number of rings (size 3 to 8) (size 9 to 14) (size 15 to 20)
#    1.000    0.000    5.000    1.000    7.000    0.667 
#    0.000    3.333    0.000    0.000    0.000    0.000 
#    0.000    0.000    0.000    0.000    0.000    0.000 
#
# Total GULP energy -267538.380102 kJ/mol
# GULP energy per Si atom -5573.716252 kJ/mol
# Density = 2.025362 g / cm^3
# Si number density = 20.299823 Si / 1000 Ang^3
#
#
#
# Elastic Constant Matrix: (Units=GPa)
#
#
# Indices 1 2 3 4 5 6 
#
# 1 75.3641 34.7576 26.8145 0.0000 0.0000 0.0000
# 2 34.7576 91.2688 20.9687 0.0000 0.0000 0.0000
# 3 26.8145 20.9687 48.4794 0.0000 0.0000 0.0000
# 4 0.0000 0.0000 0.0000 38.5839 0.0000 0.0000
# 5 0.0000 0.0000 0.0000 0.0000 24.2039 0.0000
# 6 0.0000 0.0000 0.0000 0.0000 0.0000 -0.0449
#
#
#
# Elastic Compliance Matrix: (Units=1/GPa)
#
#
# Indices 1 2 3 4 5 6 
#
# 1 0.018516 -0.005217 -0.007985 0.000000 0.000000 0.000000
# 2 -0.005217 0.013635 -0.003012 0.000000 0.000000 0.000000
# 3 -0.007985 -0.003012 0.026347 0.000000 0.000000 0.000000
# 4 0.000000 0.000000 0.000000 0.025918 0.000000 0.000000
# 5 0.000000 0.000000 0.000000 0.000000 0.041316 0.000000
# 6 0.000000 0.000000 0.000000 0.000000 0.000000-22.275046
#
#
# Mechanical properties :
#
#
# Convention : Reuss Voigt Hill
#
# Bulk Modulus (GPa) = 38.35811 42.24376 40.30093
# Shear Modulus (GPa) = -0.22616 21.38668 10.58026
#
# Velocity S-wave (km/s) = -0.33414 3.24935 2.28546
# Velocity P-wave (km/s) = 4.33451 5.91040 5.18270
#
# Compressibility (1/GPa) = 0.02607011
#
# Stress axis : x y z
#
# Youngs Moduli (GPa) = 54.00755 73.33853 37.95535
#
# Poissons Ratio (x) = 0.38260 0.30307
# Poissons Ratio (y) = 0.28175 0.11433
# Poissons Ratio (z) = 0.43125 0.22091
#
# Static dielectric constant tensor:
#      x y z
#    x 1.721380 0.000000 0.000000 
#    y 0.000000 1.673280 0.000000 
#    z 0.000000 0.000000 1.687020 
# 
# From -- ./inp_files/7814.got.cif
#   From: 2010.05.17/outbox.cif.g08.bks.cpg/sg73_4_cif.got.tgz:7814.got - 2010.06.03 17:35:07.
