data_PCOD9531425
_publ_section_title
;
Structure prediction by ZEFSAII (Michael W. Deem and Ramdas Pophale) SiO2 
 PCOD9531425
Probable space group: I B C A 
;
_chemical_formula_sum "Si O2"
_cell_formula_units_Z 64
_cell_length_a 10.270321
_cell_length_b 21.483180
_cell_length_c 13.169956
_cell_angle_alpha 90.000000
_cell_angle_beta 90.000000
_cell_angle_gamma 90.000000
_cell_volume 2905.807959
_symmetry_space_group_name_H-M "I B C A "
_symmetry_group_IT_number 73
_symmetry_cell_setting 'orthorhombic'
loop_
_space_group_symop_operation_xyz
x,y,z
-x,1/2-y,z
x,-y,1/2-z
1/2-x,y,-z
-x,-y,-z
x,1/2+y,-z
-x,y,1/2+z
1/2+x,-y,z
1/2+x,1/2+y,1/2+z
1/2-x,-y,1/2+z
1/2+x,1/2-y,-z
-x,1/2+y,1/2-z
1/2-x,1/2-y,1/2-z
1/2+x,y,1/2-z
1/2-x,1/2+y,z
x,1/2-y,1/2+z
loop_
_atom_site_type_symbol
_atom_site_label
_atom_site_fract_x
_atom_site_fract_y
_atom_site_fract_z
Si Si1 0.687429 0.054634 0.403874
Si Si2 0.650253 0.748988 0.905728
Si Si3 0.911113 0.960276 0.349895
Si Si4 0.768276 0.149348 0.238918
O O1 0.750000 0.089314 0.500000
O O2 0.537684 0.039637 0.419207
O O3 0.694986 0.096693 0.303827
O O4 0.781934 0.995181 0.389605
O O5 0.500000 0.750000 0.939683
O O6 0.682020 0.686371 0.841988
O O7 0.674566 0.803040 0.822072
O O8 0.750000 0.753601 0.000000
O O9 0.876816 0.889815 0.320731
O O10 0.948166 0.000000 0.250000
#
# Coordination Sequence:
#
# PCOD9531425 Si02
#       4
#    16  16  16  16
#     4  11  22  38  63  94 128 164 206 253 307 368
#     4  11  25  43  66  94 124 165 214 265 321 378
#     4  10  21  39  62  90 126 166 205 252 308 369
#     4  10  23  42  65  90 126 167 211 259 311 373
#
# _framework density 22.024854999999999
#
# number of rings (size 3 to 8) (size 9 to 14) (size 15 to 20)
#    0.000    1.500    0.000    5.250    0.000   11.000 
#    0.000    0.000    0.000    0.000    0.000    0.000 
#    0.000    0.000    0.000    0.000    0.000    0.000 
#
# Total GULP energy -178835.548484 kJ/mol
# GULP energy per Si atom -5588.610890 kJ/mol
# Density = 2.197473 g / cm^3
# Si number density = 22.024855 Si / 1000 Ang^3
#
#
#
# Elastic Constant Matrix: (Units=GPa)
#
#
# Indices 1 2 3 4 5 6 
#
# 1 193.0871 77.2784 81.4633 0.0000 0.0000 0.0000
# 2 77.2784 92.9397 49.2727 -0.0001 0.0000 0.0000
# 3 81.4633 49.2727 102.7767 -0.0002 0.0000 0.0000
# 4 0.0000 -0.0001 -0.0002 30.2074 0.0000 0.0000
# 5 0.0000 0.0000 0.0000 0.0000 33.2763 0.0000
# 6 0.0000 0.0000 0.0000 0.0000 0.0000 9.4363
#
#
#
# Elastic Compliance Matrix: (Units=1/GPa)
#
#
# Indices 1 2 3 4 5 6 
#
# 1 0.009308 -0.005132 -0.004917 0.000000 0.000000 0.000000
# 2 -0.005132 0.017257 -0.004205 0.000000 0.000000 0.000000
# 3 -0.004917 -0.004205 0.015643 0.000000 0.000000 0.000000
# 4 0.000000 0.000000 0.000000 0.033104 0.000000 0.000000
# 5 0.000000 0.000000 0.000000 0.000000 0.030051 0.000000
# 6 0.000000 0.000000 0.000000 0.000000 0.000000 0.105974
#
#
# Mechanical properties :
#
#
# Convention : Reuss Voigt Hill
#
# Bulk Modulus (GPa) = 73.00015 89.42582 81.21299
# Shear Modulus (GPa) = 20.45730 26.63661 23.54695
#
# Velocity S-wave (km/s) = 3.05097 3.48140 3.27327
# Velocity P-wave (km/s) = 6.75482 7.53993 7.15815
#
# Compressibility (1/GPa) = 0.01369860
#
# Stress axis : x y z
#
# Youngs Moduli (GPa) = 107.43974 57.94913 63.92672
#
# Poissons Ratio (x) = 0.29742 0.31432
# Poissons Ratio (y) = 0.55143 0.26881
# Poissons Ratio (z) = 0.52826 0.24367
#
# Static dielectric constant tensor:
#      x y z
#    x 1.785680 0.000000 0.000000 
#    y 0.000000 1.811630 0.000000 
#    z 0.000000 0.000000 1.845560 
# 
# From -- ./inp_files/6836.got.cif
#   From: 2010.05.17/outbox.cif.g08.bks.cpg/sg73_4_cif.got.tgz:6836.got - 2010.06.03 17:35:07.
