data_PCOD9531179
_publ_section_title
;
Structure prediction by ZEFSAII (Michael W. Deem and Ramdas Pophale) SiO2 
 PCOD9531179
Probable space group: I B C A 
;
_chemical_formula_sum "Si O2"
_cell_formula_units_Z 120
_cell_length_a 24.379312
_cell_length_b 27.823972
_cell_length_c 9.115118
_cell_angle_alpha 90.000000
_cell_angle_beta 90.000000
_cell_angle_gamma 90.000000
_cell_volume 6183.051562
_symmetry_space_group_name_H-M "I B C A "
_symmetry_group_IT_number 73
_symmetry_cell_setting 'orthorhombic'
loop_
_space_group_symop_operation_xyz
x,y,z
-x,1/2-y,z
x,-y,1/2-z
1/2-x,y,-z
-x,-y,-z
x,1/2+y,-z
-x,y,1/2+z
1/2+x,-y,z
1/2+x,1/2+y,1/2+z
1/2-x,-y,1/2+z
1/2+x,1/2-y,-z
-x,1/2+y,1/2-z
1/2-x,1/2-y,1/2-z
1/2+x,y,1/2-z
1/2-x,1/2+y,z
x,1/2-y,1/2+z
loop_
_atom_site_type_symbol
_atom_site_label
_atom_site_fract_x
_atom_site_fract_y
_atom_site_fract_z
Si Si1 0.612703 0.914950 0.514115
Si Si2 0.255012 0.000000 0.250000
Si Si3 0.417689 0.749131 0.869451
Si Si4 0.407394 0.413399 0.321411
Si Si5 0.515883 0.966332 0.632505
Si Si6 0.896804 0.816376 0.377200
Si Si7 0.670333 0.015086 0.504273
Si Si8 0.030030 0.815384 0.382552
O O1 0.617186 0.905115 0.340336
O O2 0.550302 0.923168 0.566157
O O3 0.630840 0.868028 0.602550
O O4 0.637284 0.967162 0.545757
O O5 0.297159 0.968041 0.349482
O O6 0.211564 0.007571 0.381651
O O7 0.382830 0.713288 0.767790
O O8 0.449871 0.783735 0.756197
O O9 0.385676 0.783648 0.980739
O O10 0.454306 0.715084 0.973714
O O11 0.460385 0.446925 0.296085
O O12 0.366320 0.443408 0.427476
O O13 0.433853 0.364157 0.382471
O O14 0.545801 0.000000 0.750000
O O15 0.500000 0.000000 0.500000
O O16 0.964157 0.821471 0.374440
#
# Coordination Sequence:
#
# PCOD9531179 Si02
#       8
#    16   8  16  16  16  16  16  16
#     4  12  23  36  56  85 118 154 198 238 283 331
#     4  10  24  44  64  82 110 150 186 242 306 354
#     4  10  21  34  47  73 110 162 203 236 266 318
#     4  12  22  37  56  84 116 157 195 241 281 333
#     4  12  23  35  52  76 122 159 188 228 271 339
#     4  11  20  33  52  75 113 156 200 233 273 323
#     4  11  23  43  64  85 116 145 189 243 297 355
#     4  11  20  32  53  74 113 157 200 232 276 321
#
# _framework density 19.407892
#
# number of rings (size 3 to 8) (size 9 to 14) (size 15 to 20)
#    0.000    0.800    6.667    3.200    0.933    2.133 
#    0.000    0.000    0.000    0.000    0.000    0.000 
#    0.000   74.667    0.000    0.000    0.000    0.000 
#
# Total GULP energy -334075.491190 kJ/mol
# GULP energy per Si atom -5567.924853 kJ/mol
# Density = 1.936372 g / cm^3
# Si number density = 19.407892 Si / 1000 Ang^3
#
#
#
# Elastic Constant Matrix: (Units=GPa)
#
#
# Indices 1 2 3 4 5 6 
#
# 1 40.2742 15.2356 14.4873 0.0000 0.0000 0.0000
# 2 15.2356 122.9022 32.6350 0.0000 0.0000 0.0000
# 3 14.4873 32.6350 107.8713 0.0000 0.0000 0.0000
# 4 0.0000 0.0000 0.0000 22.3644 0.0000 0.0000
# 5 0.0000 0.0000 0.0000 0.0000 23.6310 0.0000
# 6 0.0000 0.0000 0.0000 0.0000 0.0000 -9.6566
#
#
#
# Elastic Compliance Matrix: (Units=1/GPa)
#
#
# Indices 1 2 3 4 5 6 
#
# 1 0.026819 -0.002575 -0.002823 0.000000 0.000000 0.000000
# 2 -0.002575 0.009095 -0.002406 0.000000 0.000000 0.000000
# 3 -0.002823 -0.002406 0.010377 0.000000 0.000000 0.000000
# 4 0.000000 0.000000 0.000000 0.044714 0.000000 0.000000
# 5 0.000000 0.000000 0.000000 0.000000 0.042317 0.000000
# 6 0.000000 0.000000 0.000000 0.000000 0.000000 -0.103557
#
#
# Mechanical properties :
#
#
# Convention : Reuss Voigt Hill
#
# Bulk Modulus (GPa) = 32.59022 43.97372 38.28197
# Shear Modulus (GPa) = 89.92714 21.18044 55.55379
#
# Velocity S-wave (km/s) = 6.81439 3.30711 5.35598
# Velocity P-wave (km/s) = 8.87374 6.10651 7.61685
#
# Compressibility (1/GPa) = 0.03068405
#
# Stress axis : x y z
#
# Youngs Moduli (GPa) = 37.28655 109.95597 96.36514
#
# Poissons Ratio (x) = 0.28315 0.27202
# Poissons Ratio (y) = 0.09602 0.23182
# Poissons Ratio (z) = 0.10525 0.26451
#
# Static dielectric constant tensor:
#      x y z
#    x 1.734950 0.000000 0.000000 
#    y 0.000000 1.711100 0.000000 
#    z 0.000000 0.000000 1.726690 
# 
# From -- ./inp_files/7461.got.cif
#   From: 2010.05.17/outbox.cif.g08.bks.cpg/sg73_4_cif.got.tgz:7461.got - 2010.06.03 17:35:07.
