data_PCOD9531989
_publ_section_title
;
Structure prediction by ZEFSAII (Michael W. Deem and Ramdas Pophale) SiO2 
 PCOD9531989
Probable space group: I B C A 
;
_chemical_formula_sum "Si O2"
_cell_formula_units_Z 40
_cell_length_a 4.852147
_cell_length_b 22.324815
_cell_length_c 15.016881
_cell_angle_alpha 90.000000
_cell_angle_beta 90.000000
_cell_angle_gamma 90.000000
_cell_volume 1626.677867
_symmetry_space_group_name_H-M "I B C A "
_symmetry_group_IT_number 73
_symmetry_cell_setting 'orthorhombic'
loop_
_space_group_symop_operation_xyz
x,y,z
-x,1/2-y,z
x,-y,1/2-z
1/2-x,y,-z
-x,-y,-z
x,1/2+y,-z
-x,y,1/2+z
1/2+x,-y,z
1/2+x,1/2+y,1/2+z
1/2-x,-y,1/2+z
1/2+x,1/2-y,-z
-x,1/2+y,1/2-z
1/2-x,1/2-y,1/2-z
1/2+x,y,1/2-z
1/2-x,1/2+y,z
x,1/2-y,1/2+z
loop_
_atom_site_type_symbol
_atom_site_label
_atom_site_fract_x
_atom_site_fract_y
_atom_site_fract_z
Si Si1 0.303669 0.959458 0.603003
Si Si2 0.700504 0.335951 0.193557
Si Si3 0.000000 0.750000 0.443398
O O1 0.250000 0.941229 0.500000
O O2 0.230976 0.904978 0.666395
O O3 0.612400 0.982385 0.616668
O O4 0.387736 0.322803 0.219608
O O5 0.833547 0.297703 0.115201
O O6 0.250000 0.720744 0.500000
#
# Coordination Sequence:
#
# PCOD9531989 Si02
#       3
#    16  16   8
#     4  10  22  40  63  92 128 170 213 254 305 376
#     4  12  25  42  66  97 132 165 210 269 325 377
#     4  12  26  46  70  92 124 170 218 262 318 388
#
# _framework density 24.589995999999999
#
# number of rings (size 3 to 8) (size 9 to 14) (size 15 to 20)
#    0.000    0.800    0.000    7.200    0.000    9.600 
#    0.000    0.000    0.000    0.000    0.000    0.000 
#    0.000    0.000    0.000    0.000    0.000    0.000 
#
# Total GULP energy -112164.855206 kJ/mol
# GULP energy per Si atom -5608.242760 kJ/mol
# Density = 2.453403 g / cm^3
# Si number density = 24.589996 Si / 1000 Ang^3
#
#
#
# Elastic Constant Matrix: (Units=GPa)
#
#
# Indices 1 2 3 4 5 6 
#
# 1 96.5058 -1.5663 20.3055 0.0000 0.0000 0.0000
# 2 -1.5663 54.2598 28.8076 0.0000 0.0000 0.0000
# 3 20.3055 28.8076 63.5642 0.0000 0.0000 0.0000
# 4 0.0000 0.0000 0.0000 37.2890 0.0000 0.0000
# 5 0.0000 0.0000 0.0000 0.0000 27.8806 0.0000
# 6 0.0000 0.0000 0.0000 0.0000 0.0000 16.0769
#
#
#
# Elastic Compliance Matrix: (Units=1/GPa)
#
#
# Indices 1 2 3 4 5 6 
#
# 1 0.011467 0.002997 -0.005021 0.000000 0.000000 0.000000
# 2 0.002997 0.025053 -0.012311 0.000000 0.000000 0.000000
# 3 -0.005021 -0.012311 0.022916 0.000000 0.000000 0.000000
# 4 0.000000 0.000000 0.000000 0.026818 0.000000 0.000000
# 5 0.000000 0.000000 0.000000 0.000000 0.035867 0.000000
# 6 0.000000 0.000000 0.000000 0.000000 0.000000 0.062201
#
#
# Mechanical properties :
#
#
# Convention : Reuss Voigt Hill
#
# Bulk Modulus (GPa) = 32.50543 34.38038 33.44290
# Shear Modulus (GPa) = 22.39659 27.36815 24.88237
#
# Velocity S-wave (km/s) = 3.02122 3.33975 3.18447
# Velocity P-wave (km/s) = 5.04163 5.37436 5.21065
#
# Compressibility (1/GPa) = 0.03076409
#
# Stress axis : x y z
#
# Youngs Moduli (GPa) = 87.20471 39.91580 43.63794
#
# Poissons Ratio (x) = -0.11963 0.21913
# Poissons Ratio (y) = -0.26136 0.53725
# Poissons Ratio (z) = 0.43790 0.49142
#
# Static dielectric constant tensor:
#      x y z
#    x 1.851790 0.000000 0.000000 
#    y 0.000000 1.868570 0.000000 
#    z 0.000000 0.000000 2.021690 
# 
# From -- ./inp_files/491.got.cif
#   From: 2010.05.17/outbox.cif.g08.bks.cpg/sg73_1_cif.got.tgz:491.got - 2010.06.03 17:35:07.
