data_PCOD9531025
_publ_section_title
;
Structure prediction by ZEFSAII (Michael W. Deem and Ramdas Pophale) SiO2 
 PCOD9531025
Probable space group: I B C A 
;
_chemical_formula_sum "Si O2"
_cell_formula_units_Z 120
_cell_length_a 9.699391
_cell_length_b 20.994106
_cell_length_c 22.556168
_cell_angle_alpha 90.000000
_cell_angle_beta 90.000000
_cell_angle_gamma 90.000000
_cell_volume 4593.113455
_symmetry_space_group_name_H-M "I B C A "
_symmetry_group_IT_number 73
_symmetry_cell_setting 'orthorhombic'
loop_
_space_group_symop_operation_xyz
x,y,z
-x,1/2-y,z
x,-y,1/2-z
1/2-x,y,-z
-x,-y,-z
x,1/2+y,-z
-x,y,1/2+z
1/2+x,-y,z
1/2+x,1/2+y,1/2+z
1/2-x,-y,1/2+z
1/2+x,1/2-y,-z
-x,1/2+y,1/2-z
1/2-x,1/2-y,1/2-z
1/2+x,y,1/2-z
1/2-x,1/2+y,z
x,1/2-y,1/2+z
loop_
_atom_site_type_symbol
_atom_site_label
_atom_site_fract_x
_atom_site_fract_y
_atom_site_fract_z
Si Si1 0.542428 0.504746 0.085161
Si Si2 0.812064 0.421960 0.441991
Si Si3 0.388768 0.057384 0.204370
Si Si4 0.650943 0.609756 0.633961
Si Si5 0.241190 0.800486 0.875863
Si Si6 0.500000 0.750000 0.535781
Si Si7 0.152868 0.192310 0.944237
Si Si8 0.961361 0.317692 0.724804
O O1 0.700235 0.522325 0.072684
O O2 0.455747 0.456607 0.044479
O O3 0.531554 0.466728 0.146977
O O4 0.461488 0.570310 0.097439
O O5 0.750000 0.390346 0.500000
O O6 0.805142 0.368382 0.392496
O O7 0.233092 0.068672 0.182062
O O8 0.444596 0.122946 0.231608
O O9 0.393868 0.000000 0.250000
O O10 0.767420 0.635133 0.588047
O O11 0.571970 0.662644 0.673366
O O12 0.346418 0.744705 0.892630
O O13 0.181675 0.806662 0.810333
O O14 0.112534 0.779246 0.918567
O O15 0.519047 0.692758 0.486054
O O16 0.250000 0.212284 0.000000
O O17 0.000000 0.250000 0.752210
#
# Coordination Sequence:
#
# PCOD9531025 Si02
#       8
#    16  16  16  16  16   8  16  16
#     4  12  27  50  72 108 148 194 251 308 370 451
#     4  12  26  47  76 108 146 196 243 306 370 452
#     4  12  28  48  75 106 143 202 252 312 385 445
#     4  12  25  46  72 106 144 189 253 305 368 451
#     4  11  21  43  70 104 144 185 241 297 374 444
#     4  10  20  40  72 104 144 194 232 288 382 460
#     4  10  22  41  70 105 144 188 231 293 375 451
#     4  12  24  47  78 104 143 194 251 317 377 438
#
# _framework density 26.126069000000001
#
# number of rings (size 3 to 8) (size 9 to 14) (size 15 to 20)
#    0.000    0.533    6.000    2.400    1.867    3.200 
#    3.600    0.000    0.000    0.000    0.000    0.000 
#    0.000    0.000    0.000    0.000    0.000    0.000 
#
# Total GULP energy -335462.006284 kJ/mol
# GULP energy per Si atom -5591.033438 kJ/mol
# Density = 2.606660 g / cm^3
# Si number density = 26.126069 Si / 1000 Ang^3
#
#
#
# Elastic Constant Matrix: (Units=GPa)
#
#
# Indices 1 2 3 4 5 6 
#
# 1 63.0536 25.2660 5.0954 0.0000 0.0000 0.0000
# 2 25.2660 124.1465 16.4538 0.0000 0.0000 0.0000
# 3 5.0954 16.4538 58.9816 0.0000 0.0000 0.0000
# 4 0.0000 0.0000 0.0000 48.6420 0.0000 0.0000
# 5 0.0000 0.0000 0.0000 0.0000 26.6906 0.0000
# 6 0.0000 0.0000 0.0000 0.0000 0.0000 38.9781
#
#
#
# Elastic Compliance Matrix: (Units=1/GPa)
#
#
# Indices 1 2 3 4 5 6 
#
# 1 0.017284 -0.003447 -0.000532 0.000000 0.000000 0.000000
# 2 -0.003447 0.009052 -0.002227 0.000000 0.000000 0.000000
# 3 -0.000532 -0.002227 0.017622 0.000000 0.000000 0.000000
# 4 0.000000 0.000000 0.000000 0.020558 0.000000 0.000000
# 5 0.000000 0.000000 0.000000 0.000000 0.037466 0.000000
# 6 0.000000 0.000000 0.000000 0.000000 0.000000 0.025655
#
#
# Mechanical properties :
#
#
# Convention : Reuss Voigt Hill
#
# Bulk Modulus (GPa) = 31.70044 37.75690 34.72867
# Shear Modulus (GPa) = 33.20838 36.15323 34.68081
#
# Velocity S-wave (km/s) = 3.56909 3.72398 3.64736
# Velocity P-wave (km/s) = 5.39857 5.74229 5.57308
#
# Compressibility (1/GPa) = 0.03154530
#
# Stress axis : x y z
#
# Youngs Moduli (GPa) = 57.85783 110.47593 56.74817
#
# Poissons Ratio (x) = 0.38082 0.03016
# Poissons Ratio (y) = 0.19944 0.12640
# Poissons Ratio (z) = 0.03075 0.24607
#
# Static dielectric constant tensor:
#      x y z
#    x 2.642350 0.000000 0.000000 
#    y 0.000000 2.096280 0.000000 
#    z 0.000000 0.000000 2.058220 
# 
# From -- ./inp_files/29081.got.cif
#   From: 2010.05.17/outbox.cif.g08.bks.cpg/sg73_15_cif.got.tgz:29081.got - 2010.06.03 17:35:07.
