data_PCOD9531345
_publ_section_title
;
Structure prediction by ZEFSAII (Michael W. Deem and Ramdas Pophale) SiO2 
 PCOD9531345
Probable space group: I B C A 
;
_chemical_formula_sum "Si O2"
_cell_formula_units_Z 56
_cell_length_a 24.620432
_cell_length_b 5.347893
_cell_length_c 18.632254
_cell_angle_alpha 90.000000
_cell_angle_beta 90.000000
_cell_angle_gamma 90.000000
_cell_volume 2453.261110
_symmetry_space_group_name_H-M "I B C A "
_symmetry_group_IT_number 73
_symmetry_cell_setting 'orthorhombic'
loop_
_space_group_symop_operation_xyz
x,y,z
-x,1/2-y,z
x,-y,1/2-z
1/2-x,y,-z
-x,-y,-z
x,1/2+y,-z
-x,y,1/2+z
1/2+x,-y,z
1/2+x,1/2+y,1/2+z
1/2-x,-y,1/2+z
1/2+x,1/2-y,-z
-x,1/2+y,1/2-z
1/2-x,1/2-y,1/2-z
1/2+x,y,1/2-z
1/2-x,1/2+y,z
x,1/2-y,1/2+z
loop_
_atom_site_type_symbol
_atom_site_label
_atom_site_fract_x
_atom_site_fract_y
_atom_site_fract_z
Si Si1 0.129652 0.943052 0.977756
Si Si2 0.968491 0.500000 0.750000
Si Si3 0.714539 0.949818 0.394591
Si Si4 0.138013 0.374033 0.321599
O O1 0.183579 0.445174 0.971328
O O2 0.144142 0.969154 0.894880
O O3 0.099547 0.191300 0.002683
O O4 0.926320 0.620894 0.692782
O O5 0.000000 0.250000 0.723908
O O6 0.752570 0.704805 0.386531
O O7 0.666135 0.890443 0.338110
O O8 0.162215 0.500000 0.250000
#
# Coordination Sequence:
#
# PCOD9531345 Si02
#       4
#    16   8  16  16
#     4  10  21  38  61  88 130 174 219 257 320 389
#     4  10  24  46  72  96 128 174 224 288 368 404
#     4  11  23  39  61  92 135 181 213 250 321 399
#     4   9  23  44  66 103 129 180 225 292 322 404
#
# _framework density 22.826761000000001
#
# number of rings (size 3 to 8) (size 9 to 14) (size 15 to 20)
#    0.857    1.143    0.000    3.429    0.000   21.714 
#    0.000    0.000    0.000   20.571    0.000    0.000 
#    0.000    0.000    0.000    0.000    0.000    0.000 
#
# Total GULP energy -156079.273163 kJ/mol
# GULP energy per Si atom -5574.259756 kJ/mol
# Density = 2.277481 g / cm^3
# Si number density = 22.826761 Si / 1000 Ang^3
#
#
#
# Elastic Constant Matrix: (Units=GPa)
#
#
# Indices 1 2 3 4 5 6 
#
# 1 73.4897 16.4829 -2.2500 0.0000 0.0000 0.0000
# 2 16.4829 148.3509 9.8828 0.0000 0.0000 0.0000
# 3 -2.2500 9.8828 119.9775 0.0000 0.0000 0.0000
# 4 0.0000 0.0000 0.0000 36.8671 0.0000 0.0000
# 5 0.0000 0.0000 0.0000 0.0000 21.6315 0.0000
# 6 0.0000 0.0000 0.0000 0.0000 0.0000 -194.4852
#
#
#
# Elastic Compliance Matrix: (Units=1/GPa)
#
#
# Indices 1 2 3 4 5 6 
#
# 1 0.013973 -0.001579 0.000392 0.000000 0.000000 0.000000
# 2 -0.001579 0.006956 -0.000603 0.000000 0.000000 0.000000
# 3 0.000392 -0.000603 0.008392 0.000000 0.000000 0.000000
# 4 0.000000 0.000000 0.000000 0.027124 0.000000 0.000000
# 5 0.000000 0.000000 0.000000 0.000000 0.046229 0.000000
# 6 0.000000 0.000000 0.000000 0.000000 0.000000 -0.005142
#
#
# Mechanical properties :
#
#
# Convention : Reuss Voigt Hill
#
# Bulk Modulus (GPa) = 38.84515 43.33885 41.09200
# Shear Modulus (GPa) = 45.58194 -6.01715 19.78240
#
# Velocity S-wave (km/s) = 4.47348 -1.62534 2.94705
# Velocity P-wave (km/s) = 6.61339 3.93763 5.44251
#
# Compressibility (1/GPa) = 0.02574324
#
# Stress axis : x y z
#
# Youngs Moduli (GPa) = 71.56440 143.75417 119.16268
#
# Poissons Ratio (x) = 0.22694 -0.04672
# Poissons Ratio (y) = 0.11298 0.07181
# Poissons Ratio (z) = -0.02806 0.08663
#
# Static dielectric constant tensor:
#      x y z
#    x 1.895660 0.000000 0.000000 
#    y 0.000000 1.975100 0.000000 
#    z 0.000000 0.000000 1.872150 
# 
# From -- ./inp_files/24039.got.cif
#   From: 2010.05.17/outbox.cif.g08.bks.cpg/sg73_13_cif.got.tgz:24039.got - 2010.06.03 17:35:07.
