data_PCOD9531079
_publ_section_title
;
Structure prediction by ZEFSAII (Michael W. Deem and Ramdas Pophale) SiO2 
 PCOD9531079
Probable space group: I B C A 
;
_chemical_formula_sum "Si O2"
_cell_formula_units_Z 80
_cell_length_a 25.561407
_cell_length_b 17.955187
_cell_length_c 8.870550
_cell_angle_alpha 90.000000
_cell_angle_beta 90.000000
_cell_angle_gamma 90.000000
_cell_volume 4071.226232
_symmetry_space_group_name_H-M "I B C A "
_symmetry_group_IT_number 73
_symmetry_cell_setting 'orthorhombic'
loop_
_space_group_symop_operation_xyz
x,y,z
-x,1/2-y,z
x,-y,1/2-z
1/2-x,y,-z
-x,-y,-z
x,1/2+y,-z
-x,y,1/2+z
1/2+x,-y,z
1/2+x,1/2+y,1/2+z
1/2-x,-y,1/2+z
1/2+x,1/2-y,-z
-x,1/2+y,1/2-z
1/2-x,1/2-y,1/2-z
1/2+x,y,1/2-z
1/2-x,1/2+y,z
x,1/2-y,1/2+z
loop_
_atom_site_type_symbol
_atom_site_label
_atom_site_fract_x
_atom_site_fract_y
_atom_site_fract_z
Si Si1 0.750000 0.269414 0.000000
Si Si2 0.500000 0.750000 0.762207
Si Si3 0.153104 0.161165 0.560247
Si Si4 0.831169 0.383819 0.891755
Si Si5 0.197663 0.029191 0.420075
Si Si6 0.424954 0.293900 0.482605
O O1 0.703483 0.216710 0.939612
O O2 0.781434 0.327548 0.894617
O O3 0.460727 0.705965 0.869770
O O4 0.535969 0.698258 0.656966
O O5 0.151223 0.117405 0.718483
O O6 0.103100 0.213485 0.536176
O O7 0.159108 0.099504 0.429982
O O8 0.877456 0.349814 0.993557
O O9 0.817347 0.461331 0.969506
O O10 0.250000 0.059168 0.500000
O O11 0.205085 0.000000 0.250000
#
# Coordination Sequence:
#
# PCOD9531079 Si02
#       6
#     8   8  16  16  16  16
#     4  10  22  32  64  88 130 152 210 246 298 368
#     4  10  20  42  64  98 120 154 204 272 316 368
#     4  11  22  39  60  93 126 166 204 250 306 368
#     4  11  22  39  60  93 126 166 204 250 306 368
#     4  12  26  40  60  85 130 175 207 245 298 370
#     4  10  22  38  70  94 124 154 208 260 320 360
#
# _framework density 19.650099999999998
#
# number of rings (size 3 to 8) (size 9 to 14) (size 15 to 20)
#    0.000    1.200    4.000    2.400    2.800    1.600 
#    0.000    0.000    0.000    7.200    0.000    0.000 
#    0.000    0.000    0.000    0.000    0.000    0.000 
#
# Total GULP energy -223180.586345 kJ/mol
# GULP energy per Si atom -5579.514659 kJ/mol
# Density = 1.960538 g / cm^3
# Si number density = 19.650100 Si / 1000 Ang^3
#
#
#
# Elastic Constant Matrix: (Units=GPa)
#
#
# Indices 1 2 3 4 5 6 
#
# 1 76.9377 26.2302 30.0575 0.0000 0.0000 0.0000
# 2 26.2302 79.0239 13.7992 0.0000 0.0000 0.0000
# 3 30.0575 13.7992 82.3070 0.0000 0.0000 0.0000
# 4 0.0000 0.0000 0.0000 1.6079 0.0000 0.0000
# 5 0.0000 0.0000 0.0000 0.0000 28.8550 0.0000
# 6 0.0000 0.0000 0.0000 0.0000 0.0000 10.5936
#
#
#
# Elastic Compliance Matrix: (Units=1/GPa)
#
#
# Indices 1 2 3 4 5 6 
#
# 1 0.016637 -0.004596 -0.005305 0.000000 0.000000 0.000000
# 2 -0.004596 0.014306 -0.000720 0.000000 0.000000 0.000000
# 3 -0.005305 -0.000720 0.014208 0.000000 0.000000 0.000000
# 4 0.000000 0.000000 0.000000 0.621913 0.000000 0.000000
# 5 0.000000 0.000000 0.000000 0.000000 0.034656 0.000000
# 6 0.000000 0.000000 0.000000 0.000000 0.000000 0.094396
#
#
# Mechanical properties :
#
#
# Convention : Reuss Voigt Hill
#
# Bulk Modulus (GPa) = 41.82657 42.04916 41.93786
# Shear Modulus (GPa) = 6.05820 19.42342 12.74081
#
# Velocity S-wave (km/s) = 1.75776 3.14740 2.54910
# Velocity P-wave (km/s) = 5.04495 5.88673 5.48202
#
# Compressibility (1/GPa) = 0.02390825
#
# Stress axis : x y z
#
# Youngs Moduli (GPa) = 60.10720 69.90253 70.38430
#
# Poissons Ratio (x) = 0.32126 0.37339
# Poissons Ratio (y) = 0.27625 0.05068
# Poissons Ratio (z) = 0.31887 0.05033
#
# Static dielectric constant tensor:
#      x y z
#    x 1.698190 0.000000 0.000000 
#    y 0.000000 1.667530 0.000000 
#    z 0.000000 0.000000 1.722700 
# 
# From -- ./inp_files/5609.got.cif
#   From: 2010.05.17/outbox.cif.g08.bks.cpg/sg73_3_cif.got.tgz:5609.got - 2010.06.03 17:35:07.
