data_PCOD9531668
_publ_section_title
;
Structure prediction by ZEFSAII (Michael W. Deem and Ramdas Pophale) SiO2 
 PCOD9531668
Probable space group: I B C A 
;
_chemical_formula_sum "Si O2"
_cell_formula_units_Z 104
_cell_length_a 16.977266
_cell_length_b 26.327019
_cell_length_c 10.105369
_cell_angle_alpha 90.000000
_cell_angle_beta 90.000000
_cell_angle_gamma 90.000000
_cell_volume 4516.703859
_symmetry_space_group_name_H-M "I B C A "
_symmetry_group_IT_number 73
_symmetry_cell_setting 'orthorhombic'
loop_
_space_group_symop_operation_xyz
x,y,z
-x,1/2-y,z
x,-y,1/2-z
1/2-x,y,-z
-x,-y,-z
x,1/2+y,-z
-x,y,1/2+z
1/2+x,-y,z
1/2+x,1/2+y,1/2+z
1/2-x,-y,1/2+z
1/2+x,1/2-y,-z
-x,1/2+y,1/2-z
1/2-x,1/2-y,1/2-z
1/2+x,y,1/2-z
1/2-x,1/2+y,z
x,1/2-y,1/2+z
loop_
_atom_site_type_symbol
_atom_site_label
_atom_site_fract_x
_atom_site_fract_y
_atom_site_fract_z
Si Si1 0.889613 0.195909 0.957000
Si Si2 0.750000 0.380877 0.500000
Si Si3 0.990168 0.444857 0.792885
Si Si4 0.978616 0.618262 0.458482
Si Si5 0.302236 0.556667 0.749183
Si Si6 0.841718 0.763743 0.270628
Si Si7 0.683960 0.647050 0.415771
O O1 0.818329 0.155551 0.944718
O O2 0.893409 0.226391 0.820144
O O3 0.965786 0.165397 0.004997
O O4 0.866318 0.233435 0.077286
O O5 0.713578 0.416653 0.389119
O O6 0.022054 0.500000 0.750000
O O7 0.006253 0.427351 0.942544
O O8 0.895626 0.446732 0.776299
O O9 0.017374 0.401699 0.690516
O O10 0.890337 0.632636 0.496744
O O11 0.268601 0.500000 0.750000
O O12 0.273909 0.596768 0.858172
O O13 0.750000 0.750000 0.250000
O O14 0.847187 0.820054 0.207330
O O15 0.750000 0.675661 0.500000
#
# Coordination Sequence:
#
# PCOD9531668 Si02
#       7
#    16   8  16  16  16  16  16
#     4  12  24  43  71  99 132 178 227 278 340 401
#     4  12  20  42  72  94 138 178 230 272 336 404
#     4  10  21  42  68  96 137 184 226 276 347 402
#     4  11  24  44  66  98 137 175 228 288 337 411
#     4  10  22  40  66  99 141 178 218 284 338 401
#     4  12  23  44  70  98 131 179 223 273 346 407
#     4  11  24  44  65  96 137 174 220 288 346 399
#
# _framework density 23.025639999999999
#
# number of rings (size 3 to 8) (size 9 to 14) (size 15 to 20)
#    0.000    0.923    4.615    2.308    1.077    4.308 
#    0.000    4.615    0.000    0.000    0.000    0.000 
#    0.000    0.000    0.000    0.000    0.000    0.000 
#
# Total GULP energy -291117.361235 kJ/mol
# GULP energy per Si atom -5598.410793 kJ/mol
# Density = 2.297323 g / cm^3
# Si number density = 23.025640 Si / 1000 Ang^3
#
#
#
# Elastic Constant Matrix: (Units=GPa)
#
#
# Indices 1 2 3 4 5 6 
#
# 1 41.3981 5.4646 -15.8348 0.0000 0.0000 0.0000
# 2 5.4646 103.6434 9.4154 -0.0001 -0.0001 0.0000
# 3 -15.8348 9.4154 37.2369 -0.0005 -0.0004 -0.0001
# 4 0.0000 -0.0001 -0.0005 20.2080 -0.0001 0.0000
# 5 0.0000 -0.0001 -0.0004 -0.0001 22.8417 0.0000
# 6 0.0000 0.0000 -0.0001 0.0000 0.0000 23.6420
#
#
#
# Elastic Compliance Matrix: (Units=1/GPa)
#
#
# Indices 1 2 3 4 5 6 
#
# 1 0.029604 -0.002768 0.013289 0.000000 0.000000 0.000000
# 2 -0.002768 0.010134 -0.003740 0.000000 0.000000 0.000000
# 3 0.013289 -0.003740 0.033452 0.000001 0.000001 0.000000
# 4 0.000000 0.000000 0.000001 0.049485 0.000000 0.000000
# 5 0.000000 0.000000 0.000001 0.000000 0.043780 0.000000
# 6 0.000000 0.000000 0.000000 0.000000 0.000000 0.042298
#
#
# Mechanical properties :
#
#
# Convention : Reuss Voigt Hill
#
# Bulk Modulus (GPa) = 11.52705 20.04098 15.78401
# Shear Modulus (GPa) = 22.31075 25.55391 23.93233
#
# Velocity S-wave (km/s) = 3.11618 3.33498 3.22744
# Velocity P-wave (km/s) = 4.23845 4.85306 4.55613
#
# Compressibility (1/GPa) = 0.08675250
#
# Stress axis : x y z
#
# Youngs Moduli (GPa) = 33.77908 98.67647 29.89384
#
# Poissons Ratio (x) = 0.27315 -0.39726
# Poissons Ratio (y) = 0.09350 0.11179
# Poissons Ratio (z) = -0.44889 0.36901
#
# Static dielectric constant tensor:
#      x y z
#    x 1.824980 0.000000 0.000000 
#    y 0.000000 1.909950 0.000000 
#    z 0.000000 0.000000 1.982650 
# 
# From -- ./inp_files/6551.got.cif
#   From: 2010.05.17/outbox.cif.g08.bks.cpg/sg73_4_cif.got.tgz:6551.got - 2010.06.03 17:35:07.
