data_PCOD9531597
_publ_section_title
;
Structure prediction by ZEFSAII (Michael W. Deem and Ramdas Pophale) SiO2 
 PCOD9531597
Probable space group: I B C A 
;
_chemical_formula_sum "Si O2"
_cell_formula_units_Z 112
_cell_length_a 14.236083
_cell_length_b 14.287736
_cell_length_c 24.456052
_cell_angle_alpha 90.000000
_cell_angle_beta 90.000000
_cell_angle_gamma 90.000000
_cell_volume 4974.395107
_symmetry_space_group_name_H-M "I B C A "
_symmetry_group_IT_number 73
_symmetry_cell_setting 'orthorhombic'
loop_
_space_group_symop_operation_xyz
x,y,z
-x,1/2-y,z
x,-y,1/2-z
1/2-x,y,-z
-x,-y,-z
x,1/2+y,-z
-x,y,1/2+z
1/2+x,-y,z
1/2+x,1/2+y,1/2+z
1/2-x,-y,1/2+z
1/2+x,1/2-y,-z
-x,1/2+y,1/2-z
1/2-x,1/2-y,1/2-z
1/2+x,y,1/2-z
1/2-x,1/2+y,z
x,1/2-y,1/2+z
loop_
_atom_site_type_symbol
_atom_site_label
_atom_site_fract_x
_atom_site_fract_y
_atom_site_fract_z
Si Si1 0.972102 0.038445 0.905654
Si Si2 0.782759 0.318032 0.799252
Si Si3 0.353068 0.345687 0.008868
Si Si4 0.372501 0.535388 0.193894
Si Si5 0.054862 0.348411 0.224379
Si Si6 0.062568 0.660077 0.393072
Si Si7 0.898468 0.204746 0.399562
O O1 0.918775 0.081698 0.957894
O O2 0.070008 0.096205 0.900750
O O3 0.901822 0.038661 0.852805
O O4 0.999842 0.930175 0.907534
O O5 0.750000 0.250000 0.750000
O O6 0.699332 0.382685 0.822329
O O7 0.872705 0.370538 0.772230
O O8 0.827527 0.269432 0.851805
O O9 0.360573 0.250967 0.044901
O O10 0.250000 0.385768 0.000000
O O11 0.381624 0.321818 0.947591
O O12 0.326895 0.500000 0.250000
O O13 0.469971 0.581174 0.213855
O O14 0.110293 0.351382 0.166201
O O15 0.000000 0.250000 0.235779
O O16 0.000000 0.750000 0.382856
O O17 0.000000 0.250000 0.388341
#
# Coordination Sequence:
#
# PCOD9531597 Si02
#       7
#    16  16  16  16  16  16  16
#     4  10  23  45  68  93 138 185 228 278 361 422
#     4  12  25  38  68 100 135 177 232 288 355 414
#     4  11  25  41  69 102 134 172 231 297 347 423
#     4  11  25  40  64 100 134 174 231 281 347 428
#     4  10  21  41  65  92 132 178 216 281 351 419
#     4  10  22  42  69  94 130 177 234 274 340 421
#     4  10  24  45  70  95 140 191 229 282 366 431
#
# _framework density 22.515298999999999
#
# number of rings (size 3 to 8) (size 9 to 14) (size 15 to 20)
#    0.000    1.429    1.429    3.000    6.000    4.000 
#    0.000    1.429    0.000    0.000    0.000    0.000 
#    0.000    0.000    0.000    0.000    0.000    0.000 
#
# Total GULP energy -312461.701701 kJ/mol
# GULP energy per Si atom -5579.673245 kJ/mol
# Density = 2.246405 g / cm^3
# Si number density = 22.515299 Si / 1000 Ang^3
#
#
#
# Elastic Constant Matrix: (Units=GPa)
#
#
# Indices 1 2 3 4 5 6 
#
# 1 62.5186 -0.4134 18.3350 0.0000 0.0000 0.0000
# 2 -0.4134 72.0433 -0.3474 0.0000 0.0000 0.0000
# 3 18.3350 -0.3474 107.3708 0.0000 0.0000 0.0000
# 4 0.0000 0.0000 0.0000 25.0236 0.0000 0.0000
# 5 0.0000 0.0000 0.0000 0.0000 45.5208 0.0000
# 6 0.0000 0.0000 0.0000 0.0000 0.0000 7.9596
#
#
#
# Elastic Compliance Matrix: (Units=1/GPa)
#
#
# Indices 1 2 3 4 5 6 
#
# 1 0.016839 0.000083 -0.002875 0.000000 0.000000 0.000000
# 2 0.000083 0.013881 0.000031 0.000000 0.000000 0.000000
# 3 -0.002875 0.000031 0.009805 0.000000 0.000000 0.000000
# 4 0.000000 0.000000 0.000000 0.039962 0.000000 0.000000
# 5 0.000000 0.000000 0.000000 0.000000 0.021968 0.000000
# 6 0.000000 0.000000 0.000000 0.000000 0.000000 0.125635
#
#
# Mechanical properties :
#
#
# Convention : Reuss Voigt Hill
#
# Bulk Modulus (GPa) = 28.57028 30.78679 29.67854
# Shear Modulus (GPa) = 20.38486 30.65804 25.52145
#
# Velocity S-wave (km/s) = 3.01221 3.69406 3.37043
# Velocity P-wave (km/s) = 4.98144 5.64785 5.32508
#
# Compressibility (1/GPa) = 0.03500141
#
# Stress axis : x y z
#
# Youngs Moduli (GPa) = 59.38593 72.04011 101.99296
#
# Poissons Ratio (x) = -0.00596 0.29325
# Poissons Ratio (y) = -0.00491 -0.00314
# Poissons Ratio (z) = 0.17075 -0.00222
#
# Static dielectric constant tensor:
#      x y z
#    x 1.868080 0.000000 0.000000 
#    y 0.000000 1.973010 0.000000 
#    z 0.000000 0.000000 2.008760 
# 
# From -- ./inp_files/29564.got.cif
#   From: 2010.05.17/outbox.cif.g08.bks.cpg/sg73_15_cif.got.tgz:29564.got - 2010.06.03 17:35:07.
