data_PCOD9531536
_publ_section_title
;
Structure prediction by ZEFSAII (Michael W. Deem and Ramdas Pophale) SiO2 
 PCOD9531536
Probable space group: I B C A 
;
_chemical_formula_sum "Si O2"
_cell_formula_units_Z 80
_cell_length_a 15.085302
_cell_length_b 19.301321
_cell_length_c 14.197822
_cell_angle_alpha 90.000000
_cell_angle_beta 90.000000
_cell_angle_gamma 90.000000
_cell_volume 4133.926679
_symmetry_space_group_name_H-M "I B C A "
_symmetry_group_IT_number 73
_symmetry_cell_setting 'orthorhombic'
loop_
_space_group_symop_operation_xyz
x,y,z
-x,1/2-y,z
x,-y,1/2-z
1/2-x,y,-z
-x,-y,-z
x,1/2+y,-z
-x,y,1/2+z
1/2+x,-y,z
1/2+x,1/2+y,1/2+z
1/2-x,-y,1/2+z
1/2+x,1/2-y,-z
-x,1/2+y,1/2-z
1/2-x,1/2-y,1/2-z
1/2+x,y,1/2-z
1/2-x,1/2+y,z
x,1/2-y,1/2+z
loop_
_atom_site_type_symbol
_atom_site_label
_atom_site_fract_x
_atom_site_fract_y
_atom_site_fract_z
Si Si1 0.179008 0.161442 0.416129
Si Si2 0.283509 0.422170 0.764463
Si Si3 0.013689 0.605595 0.023433
Si Si4 0.817115 0.178038 0.412774
Si Si5 0.527467 0.970928 0.653759
O O1 0.250000 0.155131 0.500000
O O2 0.215787 0.115838 0.331937
O O3 0.084167 0.133140 0.451285
O O4 0.181481 0.241528 0.384253
O O5 0.250012 0.500000 0.750000
O O6 0.295832 0.375543 0.671273
O O7 0.379864 0.435829 0.813534
O O8 0.085334 0.662167 0.049131
O O9 0.038048 0.537996 0.086456
O O10 0.020373 0.583506 0.914074
O O11 0.750000 0.168460 0.500000
O O12 0.485165 0.000000 0.750000
#
# Coordination Sequence:
#
# PCOD9531536 Si02
#       5
#    16  16  16  16  16
#     4  11  24  42  68  98 135 181 220 270 338 396
#     4  11  22  44  67  97 137 171 225 282 330 395
#     4  11  22  41  70  95 132 174 220 274 330 390
#     4  11  25  44  65  98 137 177 227 274 326 407
#     4  10  21  40  65  99 132 160 222 279 322 386
#
# _framework density 19.352060000000002
#
# number of rings (size 3 to 8) (size 9 to 14) (size 15 to 20)
#    0.000    1.200    6.000    1.200    0.000    6.400 
#    0.000    0.000    0.000    0.000    0.000    0.000 
#    0.000    0.000    0.000    0.000    0.000    0.000 
#
# Total GULP energy -223251.221825 kJ/mol
# GULP energy per Si atom -5581.280546 kJ/mol
# Density = 1.930801 g / cm^3
# Si number density = 19.352060 Si / 1000 Ang^3
#
#
#
# Elastic Constant Matrix: (Units=GPa)
#
#
# Indices 1 2 3 4 5 6 
#
# 1 94.3395 48.6931 44.3865 0.0000 0.0000 0.0000
# 2 48.6931 148.1385 82.0274 0.0000 0.0000 0.0000
# 3 44.3865 82.0274 134.4583 0.0000 0.0000 0.0000
# 4 0.0000 0.0000 0.0000 31.0333 0.0000 0.0000
# 5 0.0000 0.0000 0.0000 0.0000 28.0314 0.0000
# 6 0.0000 0.0000 0.0000 0.0000 0.0000 27.5727
#
#
#
# Elastic Compliance Matrix: (Units=1/GPa)
#
#
# Indices 1 2 3 4 5 6 
#
# 1 0.013347 -0.002941 -0.002612 0.000000 0.000000 0.000000
# 2 -0.002941 0.010842 -0.005643 0.000000 0.000000 0.000000
# 3 -0.002612 -0.005643 0.011742 0.000000 0.000000 0.000000
# 4 0.000000 0.000000 0.000000 0.032223 0.000000 0.000000
# 5 0.000000 0.000000 0.000000 0.000000 0.035674 0.000000
# 6 0.000000 0.000000 0.000000 0.000000 0.000000 0.036268
#
#
# Mechanical properties :
#
#
# Convention : Reuss Voigt Hill
#
# Bulk Modulus (GPa) = 73.86189 80.79447 77.32818
# Shear Modulus (GPa) = 29.93980 30.78276 30.36128
#
# Velocity S-wave (km/s) = 3.93760 3.99265 3.96522
# Velocity P-wave (km/s) = 7.67615 7.94326 7.81085
#
# Compressibility (1/GPa) = 0.01353878
#
# Stress axis : x y z
#
# Youngs Moduli (GPa) = 74.92429 92.23408 85.16232
#
# Poissons Ratio (x) = 0.27125 0.22243
# Poissons Ratio (y) = 0.22034 0.48061
# Poissons Ratio (z) = 0.19569 0.52052
#
# Static dielectric constant tensor:
#      x y z
#    x 1.672400 0.000000 0.000000 
#    y 0.000000 1.670550 0.000000 
#    z 0.000000 0.000000 1.678070 
# 
# From -- ./inp_files/16861.got.cif
#   From: 2010.05.17/outbox.cif.g08.bks.cpg/sg73_9_cif.got.tgz:16861.got - 2010.06.03 17:35:07.
