data_PCOD9531460
_publ_section_title
;
Structure prediction by ZEFSAII (Michael W. Deem and Ramdas Pophale) SiO2 
 PCOD9531460
Probable space group: I B C A 
;
_chemical_formula_sum "Si O2"
_cell_formula_units_Z 96
_cell_length_a 15.934530
_cell_length_b 20.608880
_cell_length_c 13.334090
_cell_angle_alpha 90.000000
_cell_angle_beta 90.000000
_cell_angle_gamma 90.000000
_cell_volume 4378.819372
_symmetry_space_group_name_H-M "I B C A "
_symmetry_group_IT_number 73
_symmetry_cell_setting 'orthorhombic'
loop_
_space_group_symop_operation_xyz
x,y,z
-x,1/2-y,z
x,-y,1/2-z
1/2-x,y,-z
-x,-y,-z
x,1/2+y,-z
-x,y,1/2+z
1/2+x,-y,z
1/2+x,1/2+y,1/2+z
1/2-x,-y,1/2+z
1/2+x,1/2-y,-z
-x,1/2+y,1/2-z
1/2-x,1/2-y,1/2-z
1/2+x,y,1/2-z
1/2-x,1/2+y,z
x,1/2-y,1/2+z
loop_
_atom_site_type_symbol
_atom_site_label
_atom_site_fract_x
_atom_site_fract_y
_atom_site_fract_z
Si Si1 0.599760 0.348918 0.371855
Si Si2 0.408213 0.256777 0.526484
Si Si3 0.642370 0.433089 0.775204
Si Si4 0.777441 0.309640 0.322079
Si Si5 0.544541 0.565249 0.301217
Si Si6 0.562929 0.901554 0.021194
O O1 0.584266 0.277794 0.417941
O O2 0.700335 0.347574 0.375374
O O3 0.577880 0.371704 0.259001
O O4 0.532952 0.390068 0.438743
O O5 0.500000 0.250000 0.576615
O O6 0.340299 0.220676 0.595173
O O7 0.395885 0.332005 0.505048
O O8 0.689579 0.500000 0.750000
O O9 0.683319 0.365308 0.747175
O O10 0.555574 0.433928 0.712600
O O11 0.614729 0.433493 0.890416
O O12 0.750000 0.250000 0.250000
O O13 0.577784 0.500000 0.250000
O O14 0.563491 0.561781 0.417384
#
# Coordination Sequence:
#
# PCOD9531460 Si02
#       6
#    16  16  16  16  16  16
#     4  10  22  38  62  93 122 160 211 265 323 381
#     4  10  21  39  65  92 126 169 214 264 323 389
#     4  10  23  40  63  93 129 171 215 267 329 395
#     4  12  24  39  63  97 135 172 217 274 331 390
#     4  10  22  41  67  93 125 169 218 267 322 397
#     4  10  21  41  65  92 125 168 218 268 326 395
#
# _framework density 21.923718000000001
#
# number of rings (size 3 to 8) (size 9 to 14) (size 15 to 20)
#    0.000    1.667    0.000    4.500    0.000   10.667 
#    0.000    6.667    0.000    8.000    0.000    0.000 
#    0.000    0.000    0.000    0.000    0.000    0.000 
#
# Total GULP energy -267777.120563 kJ/mol
# GULP energy per Si atom -5578.690012 kJ/mol
# Density = 2.187382 g / cm^3
# Si number density = 21.923718 Si / 1000 Ang^3
#
#
#
# Elastic Constant Matrix: (Units=GPa)
#
#
# Indices 1 2 3 4 5 6 
#
# 1 82.9685 27.2180 41.1708 0.0000 0.0000 0.0000
# 2 27.2180 120.0763 68.8488 0.0000 0.0000 0.0000
# 3 41.1708 68.8488 166.2000 0.0000 0.0000 0.0000
# 4 0.0000 0.0000 0.0000 17.9114 0.0000 0.0000
# 5 0.0000 0.0000 0.0000 0.0000 9.6728 0.0000
# 6 0.0000 0.0000 0.0000 0.0000 0.0000 1.8440
#
#
#
# Elastic Compliance Matrix: (Units=1/GPa)
#
#
# Indices 1 2 3 4 5 6 
#
# 1 0.013958 -0.001549 -0.002816 0.000000 0.000000 0.000000
# 2 -0.001549 0.011094 -0.004212 0.000000 0.000000 0.000000
# 3 -0.002816 -0.004212 0.008459 0.000000 0.000000 0.000000
# 4 0.000000 0.000000 0.000000 0.055831 0.000000 0.000000
# 5 0.000000 0.000000 0.000000 0.000000 0.103383 0.000000
# 6 0.000000 0.000000 0.000000 0.000000 0.000000 0.542303
#
#
# Mechanical properties :
#
#
# Convention : Reuss Voigt Hill
#
# Bulk Modulus (GPa) = 61.13500 71.52445 66.32973
# Shear Modulus (GPa) = 6.59948 21.35277 13.97612
#
# Velocity S-wave (km/s) = 1.73687 3.12422 2.52759
# Velocity P-wave (km/s) = 5.65404 6.76087 6.23208
#
# Compressibility (1/GPa) = 0.01635724
#
# Stress axis : x y z
#
# Youngs Moduli (GPa) = 71.64166 90.13619 118.21391
#
# Poissons Ratio (x) = 0.13966 0.33288
# Poissons Ratio (y) = 0.11100 0.49792
# Poissons Ratio (z) = 0.20174 0.37966
#
# Static dielectric constant tensor:
#      x y z
#    x 1.864360 0.000000 0.000000 
#    y 0.000000 1.865790 0.000000 
#    z 0.000000 0.000000 1.799300 
# 
# From -- ./inp_files/17007.got.cif
#   From: 2010.05.17/outbox.cif.g08.bks.cpg/sg73_9_cif.got.tgz:17007.got - 2010.06.03 17:35:07.
