data_PCOD9531700
_publ_section_title
;
Structure prediction by ZEFSAII (Michael W. Deem and Ramdas Pophale) SiO2 
 PCOD9531700
Probable space group: I B C A 
;
_chemical_formula_sum "Si O2"
_cell_formula_units_Z 112
_cell_length_a 12.190911
_cell_length_b 14.684068
_cell_length_c 30.589091
_cell_angle_alpha 90.000000
_cell_angle_beta 90.000000
_cell_angle_gamma 90.000000
_cell_volume 5475.819439
_symmetry_space_group_name_H-M "I B C A "
_symmetry_group_IT_number 73
_symmetry_cell_setting 'orthorhombic'
loop_
_space_group_symop_operation_xyz
x,y,z
-x,1/2-y,z
x,-y,1/2-z
1/2-x,y,-z
-x,-y,-z
x,1/2+y,-z
-x,y,1/2+z
1/2+x,-y,z
1/2+x,1/2+y,1/2+z
1/2-x,-y,1/2+z
1/2+x,1/2-y,-z
-x,1/2+y,1/2-z
1/2-x,1/2-y,1/2-z
1/2+x,y,1/2-z
1/2-x,1/2+y,z
x,1/2-y,1/2+z
loop_
_atom_site_type_symbol
_atom_site_label
_atom_site_fract_x
_atom_site_fract_y
_atom_site_fract_z
Si Si1 0.395637 0.314794 0.403402
Si Si2 0.135761 0.947478 0.324786
Si Si3 0.233790 0.672438 0.450720
Si Si4 0.000000 0.250000 0.335943
Si Si5 0.480622 0.454419 0.953522
Si Si6 0.816301 0.166438 0.273296
Si Si7 0.965860 0.000000 0.250000
Si Si8 0.587145 0.086342 0.106690
O O1 0.500000 0.250000 0.403781
O O2 0.397156 0.365325 0.357215
O O3 0.293143 0.253042 0.416599
O O4 0.418640 0.387444 0.441589
O O5 0.230748 0.902221 0.296293
O O6 0.160796 0.026935 0.359752
O O7 0.044403 0.990177 0.292510
O O8 0.250000 0.707112 0.500000
O O9 0.131027 0.602997 0.452017
O O10 0.339426 0.620268 0.433270
O O11 0.100473 0.284303 0.306341
O O12 0.039198 0.168588 0.366270
O O13 0.489304 0.526720 0.914067
O O14 0.500000 0.500000 0.000000
O O15 0.750000 0.250000 0.250000
O O16 0.893358 0.092659 0.248163
#
# Coordination Sequence:
#
# PCOD9531700 Si02
#       8
#    16  16  16   8  16  16   8  16
#     4   9  22  40  66  94 130 174 222 277 338 406
#     4  11  25  47  67 102 133 186 231 283 359 423
#     4  11  22  42  68 100 135 183 232 284 347 421
#     4  12  26  48  66 108 144 180 236 302 364 428
#     4  10  21  43  65  96 133 180 227 280 339 410
#     4  12  28  45  74 104 138 182 235 300 363 436
#     4  12  26  48  76 100 142 184 236 292 354 446
#     4  11  25  43  69  98 142 182 231 291 350 421
#
# _framework density 20.45356
#
# number of rings (size 3 to 8) (size 9 to 14) (size 15 to 20)
#    0.000    1.143    2.857    2.143    6.000    2.286 
#    5.143    0.000    0.000    0.000    0.000    0.000 
#    0.000    0.000    0.000    0.000    0.000    0.000 
#
# Total GULP energy -312470.251712 kJ/mol
# GULP energy per Si atom -5579.825923 kJ/mol
# Density = 2.040701 g / cm^3
# Si number density = 20.453560 Si / 1000 Ang^3
#
#
#
# Elastic Constant Matrix: (Units=GPa)
#
#
# Indices 1 2 3 4 5 6 
#
# 1 57.3487 18.4470 23.3330 0.0000 0.0000 0.0000
# 2 18.4470 89.5250 25.5990 0.0000 0.0000 0.0000
# 3 23.3330 25.5990 83.8807 0.0000 0.0000 0.0000
# 4 0.0000 0.0000 0.0000 42.9593 0.0000 0.0000
# 5 0.0000 0.0000 0.0000 0.0000 14.7897 0.0000
# 6 0.0000 0.0000 0.0000 0.0000 0.0000 27.3000
#
#
#
# Elastic Compliance Matrix: (Units=1/GPa)
#
#
# Indices 1 2 3 4 5 6 
#
# 1 0.020289 -0.002812 -0.004785 0.000000 0.000000 0.000000
# 2 -0.002812 0.012628 -0.003072 0.000000 0.000000 0.000000
# 3 -0.004785 -0.003072 0.014190 0.000000 0.000000 0.000000
# 4 0.000000 0.000000 0.000000 0.023278 0.000000 0.000000
# 5 0.000000 0.000000 0.000000 0.000000 0.067614 0.000000
# 6 0.000000 0.000000 0.000000 0.000000 0.000000 0.036630
#
#
# Mechanical properties :
#
#
# Convention : Reuss Voigt Hill
#
# Bulk Modulus (GPa) = 38.80719 40.61249 39.70984
# Shear Modulus (GPa) = 24.44305 27.90150 26.17228
#
# Velocity S-wave (km/s) = 3.46070 3.69743 3.58102
# Velocity P-wave (km/s) = 5.91465 6.17471 6.04608
#
# Compressibility (1/GPa) = 0.02576842
#
# Stress axis : x y z
#
# Youngs Moduli (GPa) = 49.28821 79.19031 70.47100
#
# Poissons Ratio (x) = 0.22270 0.33724
# Poissons Ratio (y) = 0.13861 0.21645
# Poissons Ratio (z) = 0.23587 0.24323
#
# Static dielectric constant tensor:
#      x y z
#    x 1.724840 0.000000 0.000000 
#    y 0.000000 1.767150 0.000000 
#    z 0.000000 0.000000 1.727760 
# 
# From -- ./inp_files/34047.got.cif
#   From: 2010.05.17/outbox.cif.g08.bks.cpg/sg73_18_cif.got.tgz:34047.got - 2010.06.03 17:35:07.
