data_PCOD9531346
_publ_section_title
;
Structure prediction by ZEFSAII (Michael W. Deem and Ramdas Pophale) SiO2 
 PCOD9531346
Probable space group: I B C A 
;
_chemical_formula_sum "Si O2"
_cell_formula_units_Z 88
_cell_length_a 34.143706
_cell_length_b 5.152427
_cell_length_c 24.341200
_cell_angle_alpha 90.000000
_cell_angle_beta 90.000000
_cell_angle_gamma 90.000000
_cell_volume 4282.175776
_symmetry_space_group_name_H-M "I B C A "
_symmetry_group_IT_number 73
_symmetry_cell_setting 'orthorhombic'
loop_
_space_group_symop_operation_xyz
x,y,z
-x,1/2-y,z
x,-y,1/2-z
1/2-x,y,-z
-x,-y,-z
x,1/2+y,-z
-x,y,1/2+z
1/2+x,-y,z
1/2+x,1/2+y,1/2+z
1/2-x,-y,1/2+z
1/2+x,1/2-y,-z
-x,1/2+y,1/2-z
1/2-x,1/2-y,1/2-z
1/2+x,y,1/2-z
1/2-x,1/2+y,z
x,1/2-y,1/2+z
loop_
_atom_site_type_symbol
_atom_site_label
_atom_site_fract_x
_atom_site_fract_y
_atom_site_fract_z
Si Si1 0.521854 0.502116 0.316281
Si Si2 0.612953 0.452125 0.313415
Si Si3 0.358367 0.537670 0.366500
Si Si4 0.777290 0.499654 0.186570
Si Si5 0.500000 0.250000 0.960614
Si Si6 0.088133 0.189273 0.037286
O O1 0.500000 0.250000 0.336804
O O2 0.517146 0.500000 0.250000
O O3 0.567644 0.507015 0.325325
O O4 0.500000 0.750000 0.339977
O O5 0.622437 0.500000 0.250000
O O6 0.634866 0.659426 0.352419
O O7 0.621088 0.149571 0.322086
O O8 0.312437 0.488950 0.356851
O O9 0.379323 0.419648 0.420434
O O10 0.792786 0.500000 0.250000
O O11 0.748558 0.256658 0.180543
O O12 0.455814 0.209940 0.936369
O O13 0.500000 0.500000 0.000000
O O14 0.091837 0.477523 0.011842
#
# Coordination Sequence:
#
# PCOD9531346 Si02
#       6
#    16  16  16  16   8  16
#     4   9  17  31  48  66 102 154 194 227 276 339
#     4  11  22  36  55  84 121 158 198 249 302 360
#     4  12  23  38  62  93 119 156 210 258 310 373
#     4  10  21  38  61  89 124 162 198 245 306 373
#     4   8  16  34  60  82 110 150 196 258 316 350
#     4  10  21  40  63  88 120 158 205 265 320 368
#
# _framework density 20.550298999999999
#
# number of rings (size 3 to 8) (size 9 to 14) (size 15 to 20)
#    0.000    1.818    0.000    4.909    0.000    4.364 
#    4.909    0.000    0.000    3.273    0.000    0.000 
#    0.000    0.000    0.000    0.000    0.000    0.000 
#
# Total GULP energy -245368.462232 kJ/mol
# GULP energy per Si atom -5576.555960 kJ/mol
# Density = 2.050353 g / cm^3
# Si number density = 20.550299 Si / 1000 Ang^3
#
#
#
# Elastic Constant Matrix: (Units=GPa)
#
#
# Indices 1 2 3 4 5 6 
#
# 1 109.4526 27.4731 30.6515 0.0000 0.0000 0.0000
# 2 27.4731 111.0762 -4.4917 0.0000 0.0000 0.0000
# 3 30.6515 -4.4917 63.2235 0.0000 0.0000 0.0000
# 4 0.0000 0.0000 0.0000 13.7857 0.0000 0.0000
# 5 0.0000 0.0000 0.0000 0.0000 30.4007 0.0000
# 6 0.0000 0.0000 0.0000 0.0000 0.0000 24.9490
#
#
#
# Elastic Compliance Matrix: (Units=1/GPa)
#
#
# Indices 1 2 3 4 5 6 
#
# 1 0.011540 -0.003089 -0.005814 0.000000 0.000000 0.000000
# 2 -0.003089 0.009856 0.002198 0.000000 0.000000 0.000000
# 3 -0.005814 0.002198 0.018792 0.000000 0.000000 0.000000
# 4 0.000000 0.000000 0.000000 0.072539 0.000000 0.000000
# 5 0.000000 0.000000 0.000000 0.000000 0.032894 0.000000
# 6 0.000000 0.000000 0.000000 0.000000 0.000000 0.040082
#
#
# Mechanical properties :
#
#
# Convention : Reuss Voigt Hill
#
# Bulk Modulus (GPa) = 37.34625 43.44645 40.39635
# Shear Modulus (GPa) = 24.03396 29.16839 26.60118
#
# Velocity S-wave (km/s) = 3.42353 3.77153 3.60174
# Velocity P-wave (km/s) = 5.81721 6.33667 6.08249
#
# Compressibility (1/GPa) = 0.02677645
#
# Stress axis : x y z
#
# Youngs Moduli (GPa) = 86.65473 101.46285 53.21454
#
# Poissons Ratio (x) = 0.31346 0.30940
# Poissons Ratio (y) = 0.26771 -0.11696
# Poissons Ratio (z) = 0.50383 -0.22301
#
# Static dielectric constant tensor:
#      x y z
#    x 1.731990 0.000000 0.000000 
#    y 0.000000 1.706840 0.000000 
#    z 0.000000 0.000000 1.840810 
# 
# From -- ./inp_files/30616.got.cif
#   From: 2010.05.17/outbox.cif.g08.bks.cpg/sg73_16_cif.got.tgz:30616.got - 2010.06.03 17:35:07.
