data_PCOD9531093
_publ_section_title
;
Structure prediction by ZEFSAII (Michael W. Deem and Ramdas Pophale) SiO2 
 PCOD9531093
Probable space group: I B C A 
;
_chemical_formula_sum "Si O2"
_cell_formula_units_Z 88
_cell_length_a 11.483584
_cell_length_b 23.510274
_cell_length_c 13.733882
_cell_angle_alpha 90.000000
_cell_angle_beta 90.000000
_cell_angle_gamma 90.000000
_cell_volume 3707.903764
_symmetry_space_group_name_H-M "I B C A "
_symmetry_group_IT_number 73
_symmetry_cell_setting 'orthorhombic'
loop_
_space_group_symop_operation_xyz
x,y,z
-x,1/2-y,z
x,-y,1/2-z
1/2-x,y,-z
-x,-y,-z
x,1/2+y,-z
-x,y,1/2+z
1/2+x,-y,z
1/2+x,1/2+y,1/2+z
1/2-x,-y,1/2+z
1/2+x,1/2-y,-z
-x,1/2+y,1/2-z
1/2-x,1/2-y,1/2-z
1/2+x,y,1/2-z
1/2-x,1/2+y,z
x,1/2-y,1/2+z
loop_
_atom_site_type_symbol
_atom_site_label
_atom_site_fract_x
_atom_site_fract_y
_atom_site_fract_z
Si Si1 0.250000 0.881522 0.000000
Si Si2 0.262822 0.208015 0.116175
Si Si3 0.782949 0.500000 0.250000
Si Si4 0.056295 0.538222 0.582542
Si Si5 0.500000 0.250000 0.051686
Si Si6 0.375466 0.394215 0.717687
Si Si7 0.603900 0.309237 0.374504
O O1 0.357689 0.919872 0.972941
O O2 0.219345 0.841386 0.910508
O O3 0.282876 0.148226 0.167301
O O4 0.156448 0.247324 0.154190
O O5 0.250000 0.200702 0.000000
O O6 0.389017 0.238359 0.117838
O O7 0.867699 0.499967 0.343098
O O8 0.699178 0.554342 0.237544
O O9 0.000000 0.500000 0.500000
O O10 0.963788 0.575593 0.643375
O O11 0.470197 0.299993 0.973257
O O12 0.442379 0.352263 0.793312
#
# Coordination Sequence:
#
# PCOD9531093 Si02
#       7
#     8  16   8  16   8  16  16
#     4  12  22  50  72  98 154 192 232 322 372 432
#     4  10  23  41  69 102 140 187 234 294 376 449
#     4  12  28  50  70 106 152 180 256 318 364 448
#     4  12  29  47  77 105 143 202 251 305 381 446
#     4  10  20  42  68 106 146 192 238 292 374 474
#     4  12  27  46  70 107 139 196 248 309 376 447
#     4  11  23  44  70 104 147 189 239 302 377 442
#
# _framework density 23.733087000000001
#
# number of rings (size 3 to 8) (size 9 to 14) (size 15 to 20)
#    0.000    0.727    4.545    3.273    5.091    3.636 
#    0.000    0.000    0.000    0.000    0.000    0.000 
#    0.000    0.000    0.000    0.000    0.000    0.000 
#
# Total GULP energy -246038.145355 kJ/mol
# GULP energy per Si atom -5591.776031 kJ/mol
# Density = 2.367907 g / cm^3
# Si number density = 23.733087 Si / 1000 Ang^3
#
#
#
# Elastic Constant Matrix: (Units=GPa)
#
#
# Indices 1 2 3 4 5 6 
#
# 1 70.4635 22.5549 17.4283 0.0000 0.0000 0.0000
# 2 22.5549 110.3651 43.2788 0.0001 0.0000 0.0000
# 3 17.4283 43.2788 95.7525 0.0001 0.0000 0.0000
# 4 0.0000 0.0001 0.0001 49.0623 0.0000 0.0000
# 5 0.0000 0.0000 0.0000 0.0000 28.8952 0.0000
# 6 0.0000 0.0000 0.0000 0.0000 0.0000 37.0830
#
#
#
# Elastic Compliance Matrix: (Units=1/GPa)
#
#
# Indices 1 2 3 4 5 6 
#
# 1 0.015404 -0.002490 -0.001678 0.000000 0.000000 0.000000
# 2 -0.002490 0.011415 -0.004706 0.000000 0.000000 0.000000
# 3 -0.001678 -0.004706 0.012876 0.000000 0.000000 0.000000
# 4 0.000000 0.000000 0.000000 0.020382 0.000000 0.000000
# 5 0.000000 0.000000 0.000000 0.000000 0.034608 0.000000
# 6 0.000000 0.000000 0.000000 0.000000 0.000000 0.026967
#
#
# Mechanical properties :
#
#
# Convention : Reuss Voigt Hill
#
# Bulk Modulus (GPa) = 45.56584 49.23391 47.39987
# Shear Modulus (GPa) = 34.07932 35.89603 34.98768
#
# Velocity S-wave (km/s) = 3.79349 3.89329 3.84372
# Velocity P-wave (km/s) = 6.19907 6.40314 6.30193
#
# Compressibility (1/GPa) = 0.02194627
#
# Stress axis : x y z
#
# Youngs Moduli (GPa) = 64.91880 87.60226 77.66225
#
# Poissons Ratio (x) = 0.21812 0.13034
# Poissons Ratio (y) = 0.16164 0.36550
# Poissons Ratio (z) = 0.10896 0.41229
#
# Static dielectric constant tensor:
#      x y z
#    x 1.937390 0.000000 0.000000 
#    y 0.000000 1.935020 0.000000 
#    z 0.000000 0.000000 1.954490 
# 
# From -- ./inp_files/16152.got.cif
#   From: 2010.05.17/outbox.cif.g08.bks.cpg/sg73_9_cif.got.tgz:16152.got - 2010.06.03 17:35:07.
