data_PCOD9531260
_publ_section_title
;
Structure prediction by ZEFSAII (Michael W. Deem and Ramdas Pophale) SiO2 
 PCOD9531260
Probable space group: I B C A 
;
_chemical_formula_sum "Si O2"
_cell_formula_units_Z 120
_cell_length_a 27.686784
_cell_length_b 24.132960
_cell_length_c 8.990632
_cell_angle_alpha 90.000000
_cell_angle_beta 90.000000
_cell_angle_gamma 90.000000
_cell_volume 6007.217096
_symmetry_space_group_name_H-M "I B C A "
_symmetry_group_IT_number 73
_symmetry_cell_setting 'orthorhombic'
loop_
_space_group_symop_operation_xyz
x,y,z
-x,1/2-y,z
x,-y,1/2-z
1/2-x,y,-z
-x,-y,-z
x,1/2+y,-z
-x,y,1/2+z
1/2+x,-y,z
1/2+x,1/2+y,1/2+z
1/2-x,-y,1/2+z
1/2+x,1/2-y,-z
-x,1/2+y,1/2-z
1/2-x,1/2-y,1/2-z
1/2+x,y,1/2-z
1/2-x,1/2+y,z
x,1/2-y,1/2+z
loop_
_atom_site_type_symbol
_atom_site_label
_atom_site_fract_x
_atom_site_fract_y
_atom_site_fract_z
Si Si1 0.840383 0.778883 0.184214
Si Si2 0.900877 0.139768 0.508248
Si Si3 0.460836 0.701371 0.502578
Si Si4 0.361681 0.649184 0.544453
Si Si5 0.075824 0.564734 0.269920
Si Si6 0.323406 0.344063 0.269042
Si Si7 0.509098 0.361828 0.775284
Si Si8 0.750000 0.308107 0.000000
O O1 0.833585 0.822762 0.318617
O O2 0.844415 0.718986 0.258887
O O3 0.793708 0.775106 0.076702
O O4 0.882735 0.806902 0.085629
O O5 0.912078 0.094229 0.385880
O O6 0.858469 0.123157 0.620496
O O7 0.946297 0.148101 0.615333
O O8 0.500000 0.750000 0.470084
O O9 0.402718 0.695165 0.497923
O O10 0.471133 0.684837 0.672704
O O11 0.475701 0.651860 0.390634
O O12 0.390886 0.595822 0.607228
O O13 0.328903 0.636512 0.400865
O O14 0.083098 0.500000 0.250000
O O15 0.019672 0.581338 0.297277
O O16 0.273676 0.340748 0.360769
#
# Coordination Sequence:
#
# PCOD9531260 Si02
#       8
#    16  16  16  16  16  16  16   8
#     4  10  22  36  59  86 128 164 192 236 287 353
#     4  10  21  37  55  82 115 152 201 244 291 355
#     4  11  23  33  53  81 122 164 200 238 278 342
#     4  10  22  37  58  89 114 163 208 240 294 360
#     4  10  23  43  60  78 115 160 204 266 310 343
#     4  11  21  36  61  87 127 153 193 241 290 360
#     4  11  21  36  52  80 114 153 209 243 287 349
#     4  10  22  38  56  94 126 164 192 230 294 358
#
# _framework density 19.975971999999999
#
# number of rings (size 3 to 8) (size 9 to 14) (size 15 to 20)
#    0.000    1.600    2.667    2.400    3.733    1.067 
#    0.000    0.667    0.000    0.000    0.000   50.400 
#    0.000    1.067    0.000    0.000    0.000    0.000 
#
# Total GULP energy -334201.829900 kJ/mol
# GULP energy per Si atom -5570.030498 kJ/mol
# Density = 1.993051 g / cm^3
# Si number density = 19.975972 Si / 1000 Ang^3
#
#
#
# Elastic Constant Matrix: (Units=GPa)
#
#
# Indices 1 2 3 4 5 6 
#
# 1 60.8402 25.4148 32.2416 0.0000 0.0000 0.0000
# 2 25.4148 78.1030 19.9530 0.0000 0.0000 0.0000
# 3 32.2416 19.9530 119.4214 0.0000 0.0000 0.0000
# 4 0.0000 0.0000 0.0000 16.2984 0.0000 0.0000
# 5 0.0000 0.0000 0.0000 0.0000 46.1120 0.0000
# 6 0.0000 0.0000 0.0000 0.0000 0.0000 5.1044
#
#
#
# Elastic Compliance Matrix: (Units=1/GPa)
#
#
# Indices 1 2 3 4 5 6 
#
# 1 0.021381 -0.005727 -0.004816 0.000000 0.000000 0.000000
# 2 -0.005727 0.014909 -0.000945 0.000000 0.000000 0.000000
# 3 -0.004816 -0.000945 0.009832 0.000000 0.000000 0.000000
# 4 0.000000 0.000000 0.000000 0.061356 0.000000 0.000000
# 5 0.000000 0.000000 0.000000 0.000000 0.021686 0.000000
# 6 0.000000 0.000000 0.000000 0.000000 0.000000 0.195910
#
#
# Mechanical properties :
#
#
# Convention : Reuss Voigt Hill
#
# Bulk Modulus (GPa) = 43.20344 45.95371 44.57857
# Shear Modulus (GPa) = 14.05427 25.55328 19.80378
#
# Velocity S-wave (km/s) = 2.65535 3.58047 3.15203
# Velocity P-wave (km/s) = 5.57457 6.33620 5.96755
#
# Compressibility (1/GPa) = 0.02314631
#
# Stress axis : x y z
#
# Youngs Moduli (GPa) = 46.77078 67.07555 101.71212
#
# Poissons Ratio (x) = 0.38415 0.48980
# Poissons Ratio (y) = 0.26786 0.09609
# Poissons Ratio (z) = 0.22523 0.06337
#
# Static dielectric constant tensor:
#      x y z
#    x 1.811140 0.000000 0.000000 
#    y 0.000000 1.690390 0.000000 
#    z 0.000000 0.000000 1.728970 
# 
# From -- ./inp_files/8102.got.cif
#   From: 2010.05.17/outbox.cif.g08.bks.cpg/sg73_5_cif.got.tgz:8102.got - 2010.06.03 17:35:07.
