data_PCOD9531371
_publ_section_title
;
Structure prediction by ZEFSAII (Michael W. Deem and Ramdas Pophale) SiO2 
 PCOD9531371
Probable space group: I B C A 
;
_chemical_formula_sum "Si O2"
_cell_formula_units_Z 80
_cell_length_a 13.243108
_cell_length_b 21.093412
_cell_length_c 14.026538
_cell_angle_alpha 90.000000
_cell_angle_beta 90.000000
_cell_angle_gamma 90.000000
_cell_volume 3918.205852
_symmetry_space_group_name_H-M "I B C A "
_symmetry_group_IT_number 73
_symmetry_cell_setting 'orthorhombic'
loop_
_space_group_symop_operation_xyz
x,y,z
-x,1/2-y,z
x,-y,1/2-z
1/2-x,y,-z
-x,-y,-z
x,1/2+y,-z
-x,y,1/2+z
1/2+x,-y,z
1/2+x,1/2+y,1/2+z
1/2-x,-y,1/2+z
1/2+x,1/2-y,-z
-x,1/2+y,1/2-z
1/2-x,1/2-y,1/2-z
1/2+x,y,1/2-z
1/2-x,1/2+y,z
x,1/2-y,1/2+z
loop_
_atom_site_type_symbol
_atom_site_label
_atom_site_fract_x
_atom_site_fract_y
_atom_site_fract_z
Si Si1 0.371547 0.500000 0.250000
Si Si2 0.500837 0.378521 0.687399
Si Si3 0.770990 0.904585 0.203228
Si Si4 0.500000 0.250000 0.315540
Si Si5 0.299913 0.850368 0.896164
Si Si6 0.711418 0.278011 0.894111
O O1 0.443910 0.559534 0.269594
O O2 0.291378 0.532560 0.176825
O O3 0.386240 0.399747 0.670506
O O4 0.496737 0.314544 0.751993
O O5 0.580153 0.362871 0.602983
O O6 0.756382 0.894217 0.317804
O O7 0.717876 0.843233 0.160571
O O8 0.400996 0.252122 0.381205
O O9 0.283692 0.778483 0.858632
O O10 0.250000 0.855214 0.000000
O O11 0.750000 0.290195 0.000000
#
# Coordination Sequence:
#
# PCOD9531371 Si02
#       6
#     8  16  16   8  16  16
#     4  10  22  40  64  96 128 186 230 274 338 416
#     4  11  22  38  70  92 129 181 227 275 351 400
#     4  11  21  42  64  90 136 175 226 279 334 409
#     4  12  20  40  70  98 130 180 222 292 350 398
#     4  10  21  38  63  99 134 169 218 282 345 400
#     4  11  23  38  65 103 134 167 220 286 343 408
#
# _framework density 20.417508000000002
#
# number of rings (size 3 to 8) (size 9 to 14) (size 15 to 20)
#    0.000    1.200    6.000    2.400    0.000    3.200 
#    0.000    4.000    0.000   10.800    0.000    0.000 
#    0.000    0.000    0.000    0.000    0.000    0.000 
#
# Total GULP energy -222771.776706 kJ/mol
# GULP energy per Si atom -5569.294418 kJ/mol
# Density = 2.037104 g / cm^3
# Si number density = 20.417508 Si / 1000 Ang^3
#
#
#
# Elastic Constant Matrix: (Units=GPa)
#
#
# Indices 1 2 3 4 5 6 
#
# 1 166.6048 39.1948 20.6201 0.0000 0.0000 0.0000
# 2 39.1948 155.1942 25.7060 0.0002 -0.0001 -0.0001
# 3 20.6201 25.7060 69.8334 0.0003 -0.0002 -0.0001
# 4 0.0000 0.0002 0.0003 9.4122 -0.0001 -0.0001
# 5 0.0000 -0.0001 -0.0002 -0.0001 24.6285 0.0000
# 6 0.0000 -0.0001 -0.0001 -0.0001 0.0000 36.5972
#
#
#
# Elastic Compliance Matrix: (Units=1/GPa)
#
#
# Indices 1 2 3 4 5 6 
#
# 1 0.006508 -0.001411 -0.001402 0.000000 0.000000 0.000000
# 2 -0.001411 0.007168 -0.002222 0.000000 0.000000 0.000000
# 3 -0.001402 -0.002222 0.015552 0.000000 0.000000 0.000000
# 4 0.000000 0.000000 0.000000 0.106245 0.000000 0.000000
# 5 0.000000 0.000000 0.000000 0.000000 0.040603 0.000000
# 6 0.000000 0.000000 0.000000 0.000000 0.000000 0.027324
#
#
# Mechanical properties :
#
#
# Convention : Reuss Voigt Hill
#
# Bulk Modulus (GPa) = 52.20038 62.51937 57.35987
# Shear Modulus (GPa) = 22.74209 34.53501 28.63855
#
# Velocity S-wave (km/s) = 3.34106 4.11717 3.74926
# Velocity P-wave (km/s) = 6.36440 7.29989 6.84814
#
# Compressibility (1/GPa) = 0.01915695
#
# Stress axis : x y z
#
# Youngs Moduli (GPa) = 153.66215 139.50899 64.30183
#
# Poissons Ratio (x) = 0.19689 0.09016
# Poissons Ratio (y) = 0.21687 0.14287
# Poissons Ratio (z) = 0.21545 0.30997
#
# Static dielectric constant tensor:
#      x y z
#    x 1.756820 0.000000 0.000000 
#    y 0.000000 1.781350 0.000000 
#    z 0.000000 0.000000 1.783540 
# 
# From -- ./inp_files/16877.got.cif
#   From: 2010.05.17/outbox.cif.g08.bks.cpg/sg73_9_cif.got.tgz:16877.got - 2010.06.03 17:35:07.
