data_PCOD9531862
_publ_section_title
;
Structure prediction by ZEFSAII (Michael W. Deem and Ramdas Pophale) SiO2 
 PCOD9531862
Probable space group: I B C A 
;
_chemical_formula_sum "Si O2"
_cell_formula_units_Z 104
_cell_length_a 25.148142
_cell_length_b 8.784745
_cell_length_c 19.316680
_cell_angle_alpha 90.000000
_cell_angle_beta 90.000000
_cell_angle_gamma 90.000000
_cell_volume 4267.441229
_symmetry_space_group_name_H-M "I B C A "
_symmetry_group_IT_number 73
_symmetry_cell_setting 'orthorhombic'
loop_
_space_group_symop_operation_xyz
x,y,z
-x,1/2-y,z
x,-y,1/2-z
1/2-x,y,-z
-x,-y,-z
x,1/2+y,-z
-x,y,1/2+z
1/2+x,-y,z
1/2+x,1/2+y,1/2+z
1/2-x,-y,1/2+z
1/2+x,1/2-y,-z
-x,1/2+y,1/2-z
1/2-x,1/2-y,1/2-z
1/2+x,y,1/2-z
1/2-x,1/2+y,z
x,1/2-y,1/2+z
loop_
_atom_site_type_symbol
_atom_site_label
_atom_site_fract_x
_atom_site_fract_y
_atom_site_fract_z
Si Si1 0.290649 0.924602 0.631858
Si Si2 0.250000 0.735686 0.500000
Si Si3 0.796742 0.115794 0.187123
Si Si4 0.406015 0.090532 0.907849
Si Si5 0.625925 0.193102 0.030471
Si Si6 0.444789 0.702968 0.712780
Si Si7 0.896101 0.427155 0.844847
O O1 0.265906 0.840393 0.565389
O O2 0.254786 0.067052 0.645756
O O3 0.293772 0.796031 0.692176
O O4 0.350604 0.971538 0.622471
O O5 0.190575 0.662099 0.517516
O O6 0.849066 0.052907 0.149351
O O7 0.795523 0.000000 0.250000
O O8 0.435408 0.162854 0.842699
O O9 0.416312 0.943909 0.955490
O O10 0.392625 0.225037 0.960463
O O11 0.615063 0.314085 0.092385
O O12 0.500000 0.750000 0.747872
O O13 0.400925 0.673209 0.773435
O O14 0.445135 0.543888 0.669112
#
# Coordination Sequence:
#
# PCOD9531862 Si02
#       7
#    16   8  16  16  16  16  16
#     4  11  23  36  63  94 140 186 231 272 337 427
#     4  10  22  38  60 100 136 194 232 260 330 432
#     4  12  22  40  60  95 140 182 226 278 348 422
#     4  11  24  44  65 105 140 192 235 300 355 427
#     4  11  24  40  71  99 151 183 240 286 355 433
#     4  11  25  49  77  99 136 189 247 310 382 427
#     4  11  23  46  71 104 140 187 229 315 362 429
#
# _framework density 24.370576
#
# number of rings (size 3 to 8) (size 9 to 14) (size 15 to 20)
#    0.000    0.923    4.615    2.308    2.154    6.154 
#    0.000    3.846    0.000    0.000    0.000    0.000 
#    0.000    0.000    0.000    0.000    0.000    0.000 
#
# Total GULP energy -289721.450985 kJ/mol
# GULP energy per Si atom -5571.566365 kJ/mol
# Density = 2.431511 g / cm^3
# Si number density = 24.370576 Si / 1000 Ang^3
#
#
#
# Elastic Constant Matrix: (Units=GPa)
#
#
# Indices 1 2 3 4 5 6 
#
# 1 38.8162 12.8876 18.4573 0.0000 0.0000 0.0000
# 2 12.8876 65.4837 2.5204 0.0000 0.0000 0.0000
# 3 18.4573 2.5204 76.4587 0.0000 0.0000 0.0000
# 4 0.0000 0.0000 0.0000 38.2133 0.0000 0.0000
# 5 0.0000 0.0000 0.0000 0.0000 12.7609 0.0000
# 6 0.0000 0.0000 0.0000 0.0000 0.0000 21.0202
#
#
#
# Elastic Compliance Matrix: (Units=1/GPa)
#
#
# Indices 1 2 3 4 5 6 
#
# 1 0.031196 -0.005857 -0.007338 0.000000 0.000000 0.000000
# 2 -0.005857 0.016390 0.000874 0.000000 0.000000 0.000000
# 3 -0.007338 0.000874 0.014822 0.000000 0.000000 0.000000
# 4 0.000000 0.000000 0.000000 0.026169 0.000000 0.000000
# 5 0.000000 0.000000 0.000000 0.000000 0.078364 0.000000
# 6 0.000000 0.000000 0.000000 0.000000 0.000000 0.047573
#
#
# Mechanical properties :
#
#
# Convention : Reuss Voigt Hill
#
# Bulk Modulus (GPa) = 26.47937 27.60990 27.04463
# Shear Modulus (GPa) = 19.86134 24.19177 22.02656
#
# Velocity S-wave (km/s) = 2.85787 3.15407 3.00962
# Velocity P-wave (km/s) = 4.66677 4.96166 4.81647
#
# Compressibility (1/GPa) = 0.03776525
#
# Stress axis : x y z
#
# Youngs Moduli (GPa) = 32.05508 61.01250 67.46949
#
# Poissons Ratio (x) = 0.35736 0.49508
# Poissons Ratio (y) = 0.18775 -0.05895
# Poissons Ratio (z) = 0.23521 -0.05330
#
# Static dielectric constant tensor:
#      x y z
#    x 1.997060 0.000000 0.000000 
#    y 0.000000 1.995390 0.000000 
#    z 0.000000 0.000000 2.212590 
# 
# From -- ./inp_files/27578.got.cif
#   From: 2010.05.17/outbox.cif.g08.bks.cpg/sg73_14_cif.got.tgz:27578.got - 2010.06.03 17:35:07.
