data_PCOD9531070
_publ_section_title
;
Structure prediction by ZEFSAII (Michael W. Deem and Ramdas Pophale) SiO2 
 PCOD9531070
Probable space group: I B C A 
;
_chemical_formula_sum "Si O2"
_cell_formula_units_Z 72
_cell_length_a 29.789826
_cell_length_b 22.141158
_cell_length_c 5.229237
_cell_angle_alpha 90.000000
_cell_angle_beta 90.000000
_cell_angle_gamma 90.000000
_cell_volume 3449.106647
_symmetry_space_group_name_H-M "I B C A "
_symmetry_group_IT_number 73
_symmetry_cell_setting 'orthorhombic'
loop_
_space_group_symop_operation_xyz
x,y,z
-x,1/2-y,z
x,-y,1/2-z
1/2-x,y,-z
-x,-y,-z
x,1/2+y,-z
-x,y,1/2+z
1/2+x,-y,z
1/2+x,1/2+y,1/2+z
1/2-x,-y,1/2+z
1/2+x,1/2-y,-z
-x,1/2+y,1/2-z
1/2-x,1/2-y,1/2-z
1/2+x,y,1/2-z
1/2-x,1/2+y,z
x,1/2-y,1/2+z
loop_
_atom_site_type_symbol
_atom_site_label
_atom_site_fract_x
_atom_site_fract_y
_atom_site_fract_z
Si Si1 0.518934 0.567145 0.515425
Si Si2 0.552230 0.226522 0.179135
Si Si3 0.844249 0.928122 0.309022
Si Si4 0.750000 0.959568 0.500000
Si Si5 0.106316 0.608569 0.825840
O O1 0.500000 0.500000 0.500000
O O2 0.508485 0.597922 0.245913
O O3 0.570632 0.559944 0.573972
O O4 0.500000 0.250000 0.146514
O O5 0.570389 0.272819 0.391526
O O6 0.571950 0.165104 0.300256
O O7 0.792702 0.922495 0.400752
O O8 0.873961 0.908223 0.551384
O O9 0.849460 0.000000 0.250000
O O10 0.857036 0.891296 0.052165
O O11 0.763704 0.000000 0.750000
#
# Coordination Sequence:
#
# PCOD9531070 Si02
#       5
#    16  16  16   8  16
#     4  10  23  35  49  75 119 163 198 240 293 356
#     4  10  23  41  60  83 114 162 219 272 313 351
#     4  11  24  39  64  96 131 163 202 250 308 390
#     4  10  20  42  62  94 134 170 196 246 312 378
#     4  12  24  38  62  90 120 167 218 255 308 370
#
# _framework density 20.874970999999999
#
# number of rings (size 3 to 8) (size 9 to 14) (size 15 to 20)
#    0.000    1.333    0.000    6.000   15.556    0.000 
#    0.000    0.000    0.000    0.000    0.000   15.556 
#    0.000    0.000    0.000    0.000    0.000    0.000 
#
# Total GULP energy -200453.343559 kJ/mol
# GULP energy per Si atom -5568.148432 kJ/mol
# Density = 2.082746 g / cm^3
# Si number density = 20.874971 Si / 1000 Ang^3
#
#
#
# Elastic Constant Matrix: (Units=GPa)
#
#
# Indices 1 2 3 4 5 6 
#
# 1 102.8274 38.9319 27.3331 0.0000 0.0000 0.0000
# 2 38.9319 51.1342 3.4357 0.0000 0.0000 0.0000
# 3 27.3331 3.4357 165.1779 0.0000 0.0000 0.0000
# 4 0.0000 0.0000 0.0000 24.5342 0.0000 0.0000
# 5 0.0000 0.0000 0.0000 0.0000 18.0593 0.0000
# 6 0.0000 0.0000 0.0000 0.0000 0.0000 22.7474
#
#
#
# Elastic Compliance Matrix: (Units=1/GPa)
#
#
# Indices 1 2 3 4 5 6 
#
# 1 0.014392 -0.010813 -0.002157 0.000000 0.000000 0.000000
# 2 -0.010813 0.027707 0.001213 0.000000 0.000000 0.000000
# 3 -0.002157 0.001213 0.006386 0.000000 0.000000 0.000000
# 4 0.000000 0.000000 0.000000 0.040759 0.000000 0.000000
# 5 0.000000 0.000000 0.000000 0.000000 0.055373 0.000000
# 6 0.000000 0.000000 0.000000 0.000000 0.000000 0.043961
#
#
# Mechanical properties :
#
#
# Convention : Reuss Voigt Hill
#
# Bulk Modulus (GPa) = 40.04443 50.94897 45.49670
# Shear Modulus (GPa) = 22.68438 29.69745 26.19092
#
# Velocity S-wave (km/s) = 3.30006 3.77587 3.54596
# Velocity P-wave (km/s) = 5.80906 6.59313 6.21347
#
# Compressibility (1/GPa) = 0.02497226
#
# Stress axis : x y z
#
# Youngs Moduli (GPa) = 69.48208 36.09141 156.59928
#
# Poissons Ratio (x) = 0.39025 0.33773
# Poissons Ratio (y) = 0.75130 -0.18995
# Poissons Ratio (z) = 0.14985 -0.04378
#
# Static dielectric constant tensor:
#      x y z
#    x 1.804970 0.000000 0.000000 
#    y 0.000000 1.524950 0.000000 
#    z 0.000000 0.000000 1.766010 
# 
# From -- ./inp_files/2609.got.cif
#   From: 2010.05.17/outbox.cif.g08.bks.cpg/sg73_2_cif.got.tgz:2609.got - 2010.06.03 17:35:07.
