data_PCOD9531321
_publ_section_title
;
Structure prediction by ZEFSAII (Michael W. Deem and Ramdas Pophale) SiO2 
 PCOD9531321
Probable space group: I B C A 
;
_chemical_formula_sum "Si O2"
_cell_formula_units_Z 56
_cell_length_a 15.101867
_cell_length_b 5.363354
_cell_length_c 28.080201
_cell_angle_alpha 90.000000
_cell_angle_beta 90.000000
_cell_angle_gamma 90.000000
_cell_volume 2274.402459
_symmetry_space_group_name_H-M "I B C A "
_symmetry_group_IT_number 73
_symmetry_cell_setting 'orthorhombic'
loop_
_space_group_symop_operation_xyz
x,y,z
-x,1/2-y,z
x,-y,1/2-z
1/2-x,y,-z
-x,-y,-z
x,1/2+y,-z
-x,y,1/2+z
1/2+x,-y,z
1/2+x,1/2+y,1/2+z
1/2-x,-y,1/2+z
1/2+x,1/2-y,-z
-x,1/2+y,1/2-z
1/2-x,1/2-y,1/2-z
1/2+x,y,1/2-z
1/2-x,1/2+y,z
x,1/2-y,1/2+z
loop_
_atom_site_type_symbol
_atom_site_label
_atom_site_fract_x
_atom_site_fract_y
_atom_site_fract_z
Si Si1 0.032900 0.999194 0.054515
Si Si2 0.799394 0.793144 0.819032
Si Si3 0.779953 0.189466 0.567083
Si Si4 0.500000 0.250000 0.281735
O O1 0.000000 0.750000 0.078941
O O2 0.136663 0.020687 0.053633
O O3 0.000000 0.250000 0.078865
O O4 0.000000 0.000000 0.000000
O O5 0.743945 0.552669 0.801501
O O6 0.782488 0.793719 0.876015
O O7 0.904713 0.771766 0.808916
O O8 0.791952 0.478321 0.551025
O O9 0.506302 0.500000 0.250000
#
# Coordination Sequence:
#
# PCOD9531321 Si02
#       4
#    16  16  16   8
#     4  10  21  38  57  88 122 158 204 251 318 370
#     4  10  23  43  65  96 132 168 217 270 318 378
#     4  10  21  40  63  89 120 162 211 260 315 371
#     4  12  26  42  66 102 132 174 218 254 334 404
#
# _framework density 24.621852000000001
#
# number of rings (size 3 to 8) (size 9 to 14) (size 15 to 20)
#    0.000    1.714    0.000    3.429    2.000    3.429 
#    2.571   17.143    0.000    0.000    0.000    0.000 
#    0.000    0.000    0.000    0.000    0.000    0.000 
#
# Total GULP energy -156235.403345 kJ/mol
# GULP energy per Si atom -5579.835834 kJ/mol
# Density = 2.456581 g / cm^3
# Si number density = 24.621852 Si / 1000 Ang^3
#
#
#
# Elastic Constant Matrix: (Units=GPa)
#
#
# Indices 1 2 3 4 5 6 
#
# 1 80.7437 52.9011 1.1306 0.0000 0.0000 0.0000
# 2 52.9011 270.4929 31.8204 0.0000 0.0000 0.0000
# 3 1.1306 31.8204 74.2145 0.0000 0.0000 0.0000
# 4 0.0000 0.0000 0.0000 4.9317 0.0000 0.0000
# 5 0.0000 0.0000 0.0000 0.0000 16.8797 0.0000
# 6 0.0000 0.0000 0.0000 0.0000 0.0000 43.6061
#
#
#
# Elastic Compliance Matrix: (Units=1/GPa)
#
#
# Indices 1 2 3 4 5 6 
#
# 1 0.014280 -0.002914 0.001032 0.000000 0.000000 0.000000
# 2 -0.002914 0.004488 -0.001880 0.000000 0.000000 0.000000
# 3 0.001032 -0.001880 0.014265 0.000000 0.000000 0.000000
# 4 0.000000 0.000000 0.000000 0.202771 0.000000 0.000000
# 5 0.000000 0.000000 0.000000 0.000000 0.059243 0.000000
# 6 0.000000 0.000000 0.000000 0.000000 0.000000 0.022933
#
#
# Mechanical properties :
#
#
# Convention : Reuss Voigt Hill
#
# Bulk Modulus (GPa) = 39.20297 66.35060 52.77678
# Shear Modulus (GPa) = 14.96979 35.72342 25.34660
#
# Velocity S-wave (km/s) = 2.46842 3.81318 3.21196
# Velocity P-wave (km/s) = 4.90721 6.81127 5.93608
#
# Compressibility (1/GPa) = 0.02550827
#
# Stress axis : x y z
#
# Youngs Moduli (GPa) = 70.02961 222.81509 70.10282
#
# Poissons Ratio (x) = 0.64931 -0.07234
# Poissons Ratio (y) = 0.20407 0.13179
# Poissons Ratio (z) = -0.07227 0.41887
#
# Static dielectric constant tensor:
#      x y z
#    x 2.583320 0.000000 0.000000 
#    y 0.000000 2.072320 0.000000 
#    z 0.000000 0.000000 1.919270 
# 
# From -- ./inp_files/721.got.cif
#   From: 2010.05.17/outbox.cif.g08.bks.cpg/sg73_1_cif.got.tgz:721.got - 2010.06.03 17:35:07.
