data_PCOD9531647
_publ_section_title
;
Structure prediction by ZEFSAII (Michael W. Deem and Ramdas Pophale) SiO2 
 PCOD9531647
Probable space group: I B C A 
;
_chemical_formula_sum "Si O2"
_cell_formula_units_Z 96
_cell_length_a 16.064800
_cell_length_b 25.346385
_cell_length_c 9.745733
_cell_angle_alpha 90.000000
_cell_angle_beta 90.000000
_cell_angle_gamma 90.000000
_cell_volume 3968.312449
_symmetry_space_group_name_H-M "I B C A "
_symmetry_group_IT_number 73
_symmetry_cell_setting 'orthorhombic'
loop_
_space_group_symop_operation_xyz
x,y,z
-x,1/2-y,z
x,-y,1/2-z
1/2-x,y,-z
-x,-y,-z
x,1/2+y,-z
-x,y,1/2+z
1/2+x,-y,z
1/2+x,1/2+y,1/2+z
1/2-x,-y,1/2+z
1/2+x,1/2-y,-z
-x,1/2+y,1/2-z
1/2-x,1/2-y,1/2-z
1/2+x,y,1/2-z
1/2-x,1/2+y,z
x,1/2-y,1/2+z
loop_
_atom_site_type_symbol
_atom_site_label
_atom_site_fract_x
_atom_site_fract_y
_atom_site_fract_z
Si Si1 0.721278 0.465409 0.137140
Si Si2 0.902026 0.073540 0.701725
Si Si3 0.874841 0.138929 0.470068
Si Si4 0.464406 0.909588 0.986310
Si Si5 0.350722 0.816888 0.021065
Si Si6 0.843186 0.761898 0.203344
O O1 0.674721 0.500000 0.250000
O O2 0.809565 0.448909 0.198373
O O3 0.671923 0.413414 0.087577
O O4 0.750000 0.495936 0.000000
O O5 0.881141 0.131864 0.635117
O O6 0.933468 0.061375 0.852362
O O7 0.977721 0.060113 0.595776
O O8 0.837562 0.190622 0.406965
O O9 0.970119 0.133252 0.425260
O O10 0.388236 0.875184 0.041933
O O11 0.379911 0.786425 0.883644
O O12 0.250000 0.819871 0.000000
O O13 0.380264 0.783966 0.154698
O O14 0.750000 0.750000 0.250000
#
# Coordination Sequence:
#
# PCOD9531647 Si02
#       6
#    16  16  16  16  16  16
#     4  10  22  47  71 104 128 178 225 282 350 415
#     4   9  22  40  68  92 133 169 222 270 351 399
#     4   9  22  41  69  90 140 174 223 278 349 397
#     4  10  21  42  64  97 135 176 227 270 347 404
#     4  10  23  37  61  94 138 177 238 270 335 394
#     4  10  22  38  60  96 131 180 229 281 336 403
#
# _framework density 24.191644
#
# number of rings (size 3 to 8) (size 9 to 14) (size 15 to 20)
#    1.000    1.333    0.000    1.000    7.000    5.333 
#    6.000    3.333    0.000    0.000    0.000    0.000 
#    0.000    0.000    0.000    0.000    0.000    0.000 
#
# Total GULP energy -267213.971361 kJ/mol
# GULP energy per Si atom -5566.957737 kJ/mol
# Density = 2.413658 g / cm^3
# Si number density = 24.191644 Si / 1000 Ang^3
#
#
#
# Elastic Constant Matrix: (Units=GPa)
#
#
# Indices 1 2 3 4 5 6 
#
# 1 61.2406 13.7238 3.5580 0.0000 -0.0001 0.0000
# 2 13.7238 63.6086 26.1912 0.0000 0.0000 0.0000
# 3 3.5580 26.1912 92.7588 -0.0001 0.0002 0.0000
# 4 0.0000 0.0000 -0.0001 28.0993 0.0000 0.0000
# 5 -0.0001 0.0000 0.0002 0.0000 25.5426 0.0001
# 6 0.0000 0.0000 0.0000 0.0000 0.0001 7.9060
#
#
#
# Elastic Compliance Matrix: (Units=1/GPa)
#
#
# Indices 1 2 3 4 5 6 
#
# 1 0.017174 -0.003886 0.000438 0.000000 0.000000 0.000000
# 2 -0.003886 0.018669 -0.005122 0.000000 0.000000 0.000000
# 3 0.000438 -0.005122 0.012210 0.000000 0.000000 0.000000
# 4 0.000000 0.000000 0.000000 0.035588 0.000000 0.000000
# 5 0.000000 0.000000 0.000000 0.000000 0.039150 0.000000
# 6 0.000000 0.000000 0.000000 0.000000 0.000000 0.126486
#
#
# Mechanical properties :
#
#
# Convention : Reuss Voigt Hill
#
# Bulk Modulus (GPa) = 32.34804 33.83933 33.09368
# Shear Modulus (GPa) = 18.06873 23.91858 20.99366
#
# Velocity S-wave (km/s) = 2.73591 3.14779 2.94905
# Velocity P-wave (km/s) = 4.83538 5.21822 5.03044
#
# Compressibility (1/GPa) = 0.03091378
#
# Stress axis : x y z
#
# Youngs Moduli (GPa) = 58.22619 53.56574 81.89923
#
# Poissons Ratio (x) = 0.20816 -0.03591
# Poissons Ratio (y) = 0.22627 0.41950
# Poissons Ratio (z) = -0.02553 0.27437
#
# Static dielectric constant tensor:
#      x y z
#    x 2.920460 0.000000 0.000000 
#    y 0.000000 2.033400 0.000000 
#    z 0.000000 0.000000 2.062570 
# 
# From -- ./inp_files/12129.got.cif
#   From: 2010.05.17/outbox.cif.g08.bks.cpg/sg73_7_cif.got.tgz:12129.got - 2010.06.03 17:35:07.
