data_PCOD9531393
_publ_section_title
;
Structure prediction by ZEFSAII (Michael W. Deem and Ramdas Pophale) SiO2 
 PCOD9531393
Probable space group: I B C A 
;
_chemical_formula_sum "Si O2"
_cell_formula_units_Z 88
_cell_length_a 25.432431
_cell_length_b 9.741103
_cell_length_c 15.077662
_cell_angle_alpha 90.000000
_cell_angle_beta 90.000000
_cell_angle_gamma 90.000000
_cell_volume 3735.338927
_symmetry_space_group_name_H-M "I B C A "
_symmetry_group_IT_number 73
_symmetry_cell_setting 'orthorhombic'
loop_
_space_group_symop_operation_xyz
x,y,z
-x,1/2-y,z
x,-y,1/2-z
1/2-x,y,-z
-x,-y,-z
x,1/2+y,-z
-x,y,1/2+z
1/2+x,-y,z
1/2+x,1/2+y,1/2+z
1/2-x,-y,1/2+z
1/2+x,1/2-y,-z
-x,1/2+y,1/2-z
1/2-x,1/2-y,1/2-z
1/2+x,y,1/2-z
1/2-x,1/2+y,z
x,1/2-y,1/2+z
loop_
_atom_site_type_symbol
_atom_site_label
_atom_site_fract_x
_atom_site_fract_y
_atom_site_fract_z
Si Si1 0.574082 0.368891 0.605174
Si Si2 0.407884 0.575190 0.657736
Si Si3 0.050831 0.898108 0.503856
Si Si4 0.704212 0.377308 0.321659
Si Si5 0.816541 0.131073 0.810831
Si Si6 0.000000 0.750000 0.255815
O O1 0.555451 0.264950 0.524110
O O2 0.578860 0.530795 0.579866
O O3 0.632350 0.328014 0.634327
O O4 0.533169 0.345396 0.686552
O O5 0.398151 0.500000 0.750000
O O6 0.424385 0.456247 0.592690
O O7 0.350404 0.622074 0.624305
O O8 0.456365 0.677149 0.681595
O O9 0.000000 0.000000 0.500000
O O10 0.707890 0.500000 0.250000
O O11 0.696062 0.245200 0.261439
O O12 0.761912 0.381885 0.365746
O O13 0.828974 0.000000 0.750000
#
# Coordination Sequence:
#
# PCOD9531393 Si02
#       6
#    16  16  16  16  16   8
#     4  12  24  44  60  97 135 170 216 268 331 396
#     4  11  21  39  65  93 124 169 217 265 325 387
#     4  12  25  42  63  91 133 178 208 264 337 398
#     4   9  18  38  66  94 125 166 216 270 329 382
#     4  10  21  38  66  98 128 162 219 280 326 386
#     4  12  22  38  66  96 128 160 220 280 310 410
#
# _framework density 23.558772000000001
#
# number of rings (size 3 to 8) (size 9 to 14) (size 15 to 20)
#    0.000    1.091    5.455    1.091    2.545    3.636 
#    0.000    0.909    0.000    2.182    0.000    0.000 
#    0.000    0.000    0.000    0.000    0.000    0.000 
#
# Total GULP energy -245026.939870 kJ/mol
# GULP energy per Si atom -5568.794088 kJ/mol
# Density = 2.350515 g / cm^3
# Si number density = 23.558772 Si / 1000 Ang^3
#
#
#
# Elastic Constant Matrix: (Units=GPa)
#
#
# Indices 1 2 3 4 5 6 
#
# 1 189.9892 19.0375 13.1966 0.0000 0.0000 0.0000
# 2 19.0375 145.8407 22.2695 0.0000 0.0000 0.0000
# 3 13.1966 22.2695 46.1159 0.0000 0.0000 0.0000
# 4 0.0000 0.0000 0.0000 25.7564 0.0000 0.0000
# 5 0.0000 0.0000 0.0000 0.0000 79.4780 0.0000
# 6 0.0000 0.0000 0.0000 0.0000 0.0000 26.0313
#
#
#
# Elastic Compliance Matrix: (Units=1/GPa)
#
#
# Indices 1 2 3 4 5 6 
#
# 1 0.005405 -0.000507 -0.001302 0.000000 0.000000 0.000000
# 2 -0.000507 0.007450 -0.003453 0.000000 0.000000 0.000000
# 3 -0.001302 -0.003453 0.023724 0.000000 0.000000 0.000000
# 4 0.000000 0.000000 0.000000 0.038825 0.000000 0.000000
# 5 0.000000 0.000000 0.000000 0.000000 0.012582 0.000000
# 6 0.000000 0.000000 0.000000 0.000000 0.000000 0.038415
#
#
# Mechanical properties :
#
#
# Convention : Reuss Voigt Hill
#
# Bulk Modulus (GPa) = 38.37809 54.55034 46.46421
# Shear Modulus (GPa) = 34.33832 48.08262 41.21047
#
# Velocity S-wave (km/s) = 3.82194 4.52261 4.18696
# Velocity P-wave (km/s) = 5.98348 7.10473 6.56808
#
# Compressibility (1/GPa) = 0.02605654
#
# Stress axis : x y z
#
# Youngs Moduli (GPa) = 185.02543 134.22536 42.15077
#
# Poissons Ratio (x) = 0.06801 0.05488
# Poissons Ratio (y) = 0.09375 0.14553
# Poissons Ratio (z) = 0.24089 0.46344
#
# Static dielectric constant tensor:
#      x y z
#    x 2.135860 0.000000 0.000000 
#    y 0.000000 2.031140 0.000000 
#    z 0.000000 0.000000 1.886520 
# 
# From -- ./inp_files/19268.got.cif
#   From: 2010.05.17/outbox.cif.g08.bks.cpg/sg73_10_cif.got.tgz:19268.got - 2010.06.03 17:35:07.
