data_PCOD9531737
_publ_section_title
;
Structure prediction by ZEFSAII (Michael W. Deem and Ramdas Pophale) SiO2 
 PCOD9531737
Probable space group: I B C A 
;
_chemical_formula_sum "Si O2"
_cell_formula_units_Z 96
_cell_length_a 10.125805
_cell_length_b 16.235440
_cell_length_c 28.719032
_cell_angle_alpha 90.000000
_cell_angle_beta 90.000000
_cell_angle_gamma 90.000000
_cell_volume 4721.319818
_symmetry_space_group_name_H-M "I B C A "
_symmetry_group_IT_number 73
_symmetry_cell_setting 'orthorhombic'
loop_
_space_group_symop_operation_xyz
x,y,z
-x,1/2-y,z
x,-y,1/2-z
1/2-x,y,-z
-x,-y,-z
x,1/2+y,-z
-x,y,1/2+z
1/2+x,-y,z
1/2+x,1/2+y,1/2+z
1/2-x,-y,1/2+z
1/2+x,1/2-y,-z
-x,1/2+y,1/2-z
1/2-x,1/2-y,1/2-z
1/2+x,y,1/2-z
1/2-x,1/2+y,z
x,1/2-y,1/2+z
loop_
_atom_site_type_symbol
_atom_site_label
_atom_site_fract_x
_atom_site_fract_y
_atom_site_fract_z
Si Si1 0.000000 0.750000 0.542901
Si Si2 0.594832 0.119972 0.849853
Si Si3 0.380978 0.304057 0.750915
Si Si4 0.162497 0.579493 0.905405
Si Si5 0.750000 0.665584 0.500000
Si Si6 0.124877 0.112847 0.390689
Si Si7 0.613042 0.927508 0.829007
O O1 0.877139 0.719208 0.512898
O O2 0.945819 0.824911 0.574378
O O3 0.580952 0.172848 0.803510
O O4 0.471193 0.119668 0.884931
O O5 0.729996 0.142557 0.876170
O O6 0.609502 0.026118 0.831104
O O7 0.500000 0.250000 0.730424
O O8 0.250000 0.250000 0.750000
O O9 0.358423 0.385406 0.720012
O O10 0.139259 0.480892 0.909246
O O11 0.276082 0.595938 0.867054
O O12 0.210359 0.612862 0.954756
O O13 0.029153 0.103795 0.346391
#
# Coordination Sequence:
#
# PCOD9531737 Si02
#       7
#     8  16  16  16   8  16  16
#     4  12  28  44  66 102 134 172 210 280 354 388
#     4  10  23  42  67  96 126 178 227 271 326 401
#     4  12  25  37  62  99 134 174 216 273 341 390
#     4  10  23  46  70  94 128 178 234 273 322 402
#     4  12  28  46  68 100 136 176 224 280 336 414
#     4  10  23  43  70  94 131 178 218 280 336 390
#     4  10  21  44  65  90 132 177 225 273 325 393
#
# _framework density 20.333296000000001
#
# number of rings (size 3 to 8) (size 9 to 14) (size 15 to 20)
#    0.000    1.333    1.667    2.500    5.833    2.667 
#    0.000    6.667    0.000    0.000    0.000    0.000 
#    0.000    0.000    0.000    0.000    0.000    0.000 
#
# Total GULP energy -268400.155871 kJ/mol
# GULP energy per Si atom -5591.669914 kJ/mol
# Density = 2.028702 g / cm^3
# Si number density = 20.333296 Si / 1000 Ang^3
#
#
#
# Elastic Constant Matrix: (Units=GPa)
#
#
# Indices 1 2 3 4 5 6 
#
# 1 134.6497 50.9616 55.7313 0.0000 0.0000 0.0000
# 2 50.9616 45.4212 50.6937 0.0000 0.0000 0.0000
# 3 55.7313 50.6937 112.9074 0.0000 0.0000 0.0000
# 4 0.0000 0.0000 0.0000 14.4796 0.0000 0.0000
# 5 0.0000 0.0000 0.0000 0.0000 23.7814 0.0000
# 6 0.0000 0.0000 0.0000 0.0000 0.0000 23.1106
#
#
#
# Elastic Compliance Matrix: (Units=1/GPa)
#
#
# Indices 1 2 3 4 5 6 
#
# 1 0.012912 -0.014780 0.000263 0.000000 0.000000 0.000000
# 2 -0.014780 0.061048 -0.020114 0.000000 0.000000 0.000000
# 3 0.000263 -0.020114 0.017758 0.000000 0.000000 0.000000
# 4 0.000000 0.000000 0.000000 0.069063 0.000000 0.000000
# 5 0.000000 0.000000 0.000000 0.000000 0.042050 0.000000
# 6 0.000000 0.000000 0.000000 0.000000 0.000000 0.043270
#
#
# Mechanical properties :
#
#
# Convention : Reuss Voigt Hill
#
# Bulk Modulus (GPa) = 44.53362 67.52794 56.03078
# Shear Modulus (GPa) = 15.48719 21.31378 18.40049
#
# Velocity S-wave (km/s) = 2.76282 3.24114 3.01149
# Velocity P-wave (km/s) = 5.66807 6.87672 6.30144
#
# Compressibility (1/GPa) = 0.02245495
#
# Stress axis : x y z
#
# Youngs Moduli (GPa) = 77.44869 16.38065 56.31238
#
# Poissons Ratio (x) = 0.24210 -0.01479
# Poissons Ratio (y) = 1.14468 1.13267
# Poissons Ratio (z) = -0.02034 0.32948
#
# Static dielectric constant tensor:
#      x y z
#    x 1.703770 0.000000 0.000000 
#    y 0.000000 1.731450 0.000000 
#    z 0.000000 0.000000 1.683530 
# 
# From -- ./inp_files/33986.got.cif
#   From: 2010.05.17/outbox.cif.g08.bks.cpg/sg73_17_cif.got.tgz:33986.got - 2010.06.03 17:35:07.
