data_PCOD9531697
_publ_section_title
;
Structure prediction by ZEFSAII (Michael W. Deem and Ramdas Pophale) SiO2 
 PCOD9531697
Probable space group: I B C A 
;
_chemical_formula_sum "Si O2"
_cell_formula_units_Z 88
_cell_length_a 17.519063
_cell_length_b 16.825511
_cell_length_c 14.019495
_cell_angle_alpha 90.000000
_cell_angle_beta 90.000000
_cell_angle_gamma 90.000000
_cell_volume 4132.487107
_symmetry_space_group_name_H-M "I B C A "
_symmetry_group_IT_number 73
_symmetry_cell_setting 'orthorhombic'
loop_
_space_group_symop_operation_xyz
x,y,z
-x,1/2-y,z
x,-y,1/2-z
1/2-x,y,-z
-x,-y,-z
x,1/2+y,-z
-x,y,1/2+z
1/2+x,-y,z
1/2+x,1/2+y,1/2+z
1/2-x,-y,1/2+z
1/2+x,1/2-y,-z
-x,1/2+y,1/2-z
1/2-x,1/2-y,1/2-z
1/2+x,y,1/2-z
1/2-x,1/2+y,z
x,1/2-y,1/2+z
loop_
_atom_site_type_symbol
_atom_site_label
_atom_site_fract_x
_atom_site_fract_y
_atom_site_fract_z
Si Si1 0.846841 0.149629 0.155576
Si Si2 0.799219 0.342226 0.853774
Si Si3 0.485555 0.655945 0.201346
Si Si4 0.362544 0.799623 0.548918
Si Si5 0.245372 0.496842 0.887743
Si Si6 0.895033 0.500000 0.250000
O O1 0.819794 0.194849 0.252281
O O2 0.859648 0.205906 0.065430
O O3 0.782154 0.087942 0.129832
O O4 0.931065 0.120480 0.181316
O O5 0.714963 0.326431 0.896231
O O6 0.797985 0.436699 0.838191
O O7 0.856478 0.320737 0.938591
O O8 0.500000 0.750000 0.735856
O O9 0.435365 0.668531 0.105599
O O10 0.440977 0.584004 0.255075
O O11 0.162039 0.502343 0.841149
O O12 0.250000 0.514179 0.000000
#
# Coordination Sequence:
#
# PCOD9531697 Si02
#       6
#    16  16  16  16  16   8
#     4  11  24  40  67  98 138 168 239 285 340 418
#     4  11  20  41  69  94 130 180 224 283 347 398
#     4  10  23  44  64 100 144 180 227 286 346 426
#     4  10  21  43  64  94 132 180 223 284 343 411
#     4  12  23  42  68 100 131 177 237 282 342 410
#     4  12  22  44  72  96 146 186 230 290 356 406
#
# _framework density 21.294682000000002
#
# number of rings (size 3 to 8) (size 9 to 14) (size 15 to 20)
#    0.000    1.091    5.455    0.545    5.091    1.455 
#    3.273    6.364    0.000    0.000    0.000    0.000 
#    0.000    0.000    0.000    0.000    0.000    0.000 
#
# Total GULP energy -245226.167515 kJ/mol
# GULP energy per Si atom -5573.321989 kJ/mol
# Density = 2.124621 g / cm^3
# Si number density = 21.294682 Si / 1000 Ang^3
#
#
#
# Elastic Constant Matrix: (Units=GPa)
#
#
# Indices 1 2 3 4 5 6 
#
# 1 97.7016 30.3480 18.1694 0.0000 0.0000 0.0000
# 2 30.3480 90.4068 36.4140 0.0000 0.0000 0.0000
# 3 18.1694 36.4140 62.0597 0.0000 0.0000 0.0000
# 4 0.0000 0.0000 0.0000 28.5187 0.0000 0.0000
# 5 0.0000 0.0000 0.0000 0.0000 25.3670 0.0000
# 6 0.0000 0.0000 0.0000 0.0000 0.0000 39.7300
#
#
#
# Elastic Compliance Matrix: (Units=1/GPa)
#
#
# Indices 1 2 3 4 5 6 
#
# 1 0.011525 -0.003286 -0.001446 0.000000 0.000000 0.000000
# 2 -0.003286 0.015421 -0.008086 0.000000 0.000000 0.000000
# 3 -0.001446 -0.008086 0.021282 0.000000 0.000000 0.000000
# 4 0.000000 0.000000 0.000000 0.035065 0.000000 0.000000
# 5 0.000000 0.000000 0.000000 0.000000 0.039421 0.000000
# 6 0.000000 0.000000 0.000000 0.000000 0.000000 0.025170
#
#
# Mechanical properties :
#
#
# Convention : Reuss Voigt Hill
#
# Bulk Modulus (GPa) = 44.26631 46.67008 45.46820
# Shear Modulus (GPa) = 27.61648 29.73892 28.67770
#
# Velocity S-wave (km/s) = 3.60512 3.74109 3.67373
# Velocity P-wave (km/s) = 6.17752 6.37376 6.27641
#
# Compressibility (1/GPa) = 0.02259054
#
# Stress axis : x y z
#
# Youngs Moduli (GPa) = 86.76836 64.84531 46.98893
#
# Poissons Ratio (x) = 0.21310 0.06794
# Poissons Ratio (y) = 0.28515 0.37997
# Poissons Ratio (z) = 0.12546 0.52437
#
# Static dielectric constant tensor:
#      x y z
#    x 1.760520 0.000000 0.000000 
#    y 0.000000 1.892630 0.000000 
#    z 0.000000 0.000000 1.764580 
# 
# From -- ./inp_files/17938.got.cif
#   From: 2010.05.17/outbox.cif.g08.bks.cpg/sg73_9_cif.got.tgz:17938.got - 2010.06.03 17:35:07.
