data_PCOD9531824
_publ_section_title
;
Structure prediction by ZEFSAII (Michael W. Deem and Ramdas Pophale) SiO2 
 PCOD9531824
Probable space group: I B C A 
;
_chemical_formula_sum "Si O2"
_cell_formula_units_Z 112
_cell_length_a 21.199194
_cell_length_b 16.553504
_cell_length_c 16.249657
_cell_angle_alpha 90.000000
_cell_angle_beta 90.000000
_cell_angle_gamma 90.000000
_cell_volume 5702.344953
_symmetry_space_group_name_H-M "I B C A "
_symmetry_group_IT_number 73
_symmetry_cell_setting 'orthorhombic'
loop_
_space_group_symop_operation_xyz
x,y,z
-x,1/2-y,z
x,-y,1/2-z
1/2-x,y,-z
-x,-y,-z
x,1/2+y,-z
-x,y,1/2+z
1/2+x,-y,z
1/2+x,1/2+y,1/2+z
1/2-x,-y,1/2+z
1/2+x,1/2-y,-z
-x,1/2+y,1/2-z
1/2-x,1/2-y,1/2-z
1/2+x,y,1/2-z
1/2-x,1/2+y,z
x,1/2-y,1/2+z
loop_
_atom_site_type_symbol
_atom_site_label
_atom_site_fract_x
_atom_site_fract_y
_atom_site_fract_z
Si Si1 0.107689 0.471146 0.419353
Si Si2 0.500000 0.250000 0.673800
Si Si3 0.725023 0.500000 0.750000
Si Si4 0.516482 0.929803 0.318220
Si Si5 0.868288 0.692400 0.649818
Si Si6 0.352439 0.539958 0.404941
Si Si7 0.735286 0.804760 0.413318
Si Si8 0.667492 0.886927 0.690040
O O1 0.142920 0.386743 0.404372
O O2 0.122888 0.497896 0.511954
O O3 0.132972 0.540830 0.357864
O O4 0.036731 0.450335 0.387578
O O5 0.491398 0.161989 0.715805
O O6 0.434020 0.264494 0.625920
O O7 0.684132 0.509510 0.666931
O O8 0.771786 0.574891 0.764020
O O9 0.584810 0.930112 0.359592
O O10 0.512146 0.000000 0.250000
O O11 0.809864 0.751731 0.642970
O O12 0.873666 0.657940 0.742302
O O13 0.304002 0.612026 0.428146
O O14 0.750000 0.764354 0.500000
O O15 0.801830 0.825142 0.373024
#
# Coordination Sequence:
#
# PCOD9531824 Si02
#       8
#    16   8   8  16  16  16  16  16
#     4  11  22  39  68  93 125 164 219 268 321 394
#     4  10  22  40  64  94 132 164 214 274 318 384
#     4  10  22  36  62  94 124 162 216 260 314 396
#     4  11  22  42  70  95 128 174 218 266 334 394
#     4  11  22  40  63  93 125 172 209 272 331 378
#     4  11  22  41  64  91 127 168 214 267 322 382
#     4  11  23  40  61  88 131 169 211 266 326 383
#     4  11  21  41  62  93 127 168 216 261 320 395
#
# _framework density 19.641043
#
# number of rings (size 3 to 8) (size 9 to 14) (size 15 to 20)
#    0.000    1.143    5.000    2.571    0.000    1.143 
#    0.000    1.429    0.000    3.429    0.000    0.000 
#    0.000    0.000    0.000    0.000    0.000    0.000 
#
# Total GULP energy -312104.140251 kJ/mol
# GULP energy per Si atom -5573.288219 kJ/mol
# Density = 1.959634 g / cm^3
# Si number density = 19.641043 Si / 1000 Ang^3
#
#
#
# Elastic Constant Matrix: (Units=GPa)
#
#
# Indices 1 2 3 4 5 6 
#
# 1 86.1505 11.7515 22.1711 0.0000 0.0000 0.0000
# 2 11.7515 82.6400 29.4335 0.0000 0.0000 0.0000
# 3 22.1711 29.4335 92.5196 0.0000 0.0000 0.0000
# 4 0.0000 0.0000 0.0000 5.6952 0.0000 0.0000
# 5 0.0000 0.0000 0.0000 0.0000 27.4768 0.0000
# 6 0.0000 0.0000 0.0000 0.0000 0.0000 27.6562
#
#
#
# Elastic Compliance Matrix: (Units=1/GPa)
#
#
# Indices 1 2 3 4 5 6 
#
# 1 0.012417 -0.000796 -0.002722 0.000000 0.000000 0.000000
# 2 -0.000796 0.013698 -0.004167 0.000000 0.000000 0.000000
# 3 -0.002722 -0.004167 0.012787 0.000000 0.000000 0.000000
# 4 0.000000 0.000000 0.000000 0.175586 0.000000 0.000000
# 5 0.000000 0.000000 0.000000 0.000000 0.036394 0.000000
# 6 0.000000 0.000000 0.000000 0.000000 0.000000 0.036158
#
#
# Mechanical properties :
#
#
# Convention : Reuss Voigt Hill
#
# Bulk Modulus (GPa) = 42.49786 43.11358 42.80572
# Shear Modulus (GPa) = 16.11584 25.36258 20.73921
#
# Velocity S-wave (km/s) = 2.86758 3.59737 3.25301
# Velocity P-wave (km/s) = 5.71386 6.26524 5.99589
#
# Compressibility (1/GPa) = 0.02353060
#
# Stress axis : x y z
#
# Youngs Moduli (GPa) = 80.53623 73.00325 78.20729
#
# Poissons Ratio (x) = 0.05812 0.21290
# Poissons Ratio (y) = 0.06412 0.32589
# Poissons Ratio (z) = 0.21924 0.30420
#
# Static dielectric constant tensor:
#      x y z
#    x 1.709730 0.000000 0.000000 
#    y 0.000000 1.706840 0.000000 
#    z 0.000000 0.000000 1.708430 
# 
# From -- ./inp_files/23310.got.cif
#   From: 2010.05.17/outbox.cif.g08.bks.cpg/sg73_12_cif.got.tgz:23310.got - 2010.06.03 17:35:07.
