data_PCOD9531114
_publ_section_title
;
Structure prediction by ZEFSAII (Michael W. Deem and Ramdas Pophale) SiO2 
 PCOD9531114
Probable space group: I B C A 
;
_chemical_formula_sum "Si O2"
_cell_formula_units_Z 112
_cell_length_a 10.975383
_cell_length_b 16.056091
_cell_length_c 27.910935
_cell_angle_alpha 90.000000
_cell_angle_beta 90.000000
_cell_angle_gamma 90.000000
_cell_volume 4918.513760
_symmetry_space_group_name_H-M "I B C A "
_symmetry_group_IT_number 73
_symmetry_cell_setting 'orthorhombic'
loop_
_space_group_symop_operation_xyz
x,y,z
-x,1/2-y,z
x,-y,1/2-z
1/2-x,y,-z
-x,-y,-z
x,1/2+y,-z
-x,y,1/2+z
1/2+x,-y,z
1/2+x,1/2+y,1/2+z
1/2-x,-y,1/2+z
1/2+x,1/2-y,-z
-x,1/2+y,1/2-z
1/2-x,1/2-y,1/2-z
1/2+x,y,1/2-z
1/2-x,1/2+y,z
x,1/2-y,1/2+z
loop_
_atom_site_type_symbol
_atom_site_label
_atom_site_fract_x
_atom_site_fract_y
_atom_site_fract_z
Si Si1 0.969931 0.444210 0.797218
Si Si2 0.250000 0.216788 0.500000
Si Si3 0.000000 0.750000 0.617780
Si Si4 0.633041 0.137759 0.548420
Si Si5 0.299902 0.139188 0.659163
Si Si6 0.640552 0.476206 0.393563
Si Si7 0.985440 0.846653 0.454537
Si Si8 0.872355 0.299107 0.736319
O O1 0.972920 0.500000 0.750000
O O2 0.107021 0.417016 0.810305
O O3 0.905304 0.484420 0.843331
O O4 0.897772 0.636378 0.721150
O O5 0.282785 0.279972 0.543512
O O6 0.137397 0.161390 0.514441
O O7 0.969878 0.671457 0.584446
O O8 0.881589 0.780094 0.646923
O O9 0.584690 0.128528 0.494323
O O10 0.674957 0.051680 0.570961
O O11 0.254952 0.084558 0.614700
O O12 0.175288 0.158978 0.687389
O O13 0.534999 0.417386 0.415563
O O14 0.000000 0.750000 0.437116
O O15 0.750000 0.250000 0.750000
O O16 0.000000 0.250000 0.729620
#
# Coordination Sequence:
#
# PCOD9531114 Si02
#       8
#    16   8   8  16  16  16  16  16
#     4  12  27  50  70 106 157 197 251 324 406 460
#     4  10  20  42  72 104 142 196 252 312 378 478
#     4  12  22  50  78 110 148 214 258 314 412 480
#     4  11  23  44  74 104 149 197 249 318 397 471
#     4  12  27  46  77 108 152 204 262 325 395 481
#     4  12  27  43  71 112 149 194 256 323 392 476
#     4  10  23  44  71 101 147 196 250 309 381 464
#     4  12  26  49  80 110 144 210 267 321 390 478
#
# _framework density 22.771104999999999
#
# number of rings (size 3 to 8) (size 9 to 14) (size 15 to 20)
#    0.000    0.571    6.429    2.143    2.000    3.429 
#    0.000    0.000    0.000    0.000    0.000    0.000 
#    0.000    0.000    0.000    0.000    0.000    0.000 
#
# Total GULP energy -312833.271686 kJ/mol
# GULP energy per Si atom -5586.308423 kJ/mol
# Density = 2.271928 g / cm^3
# Si number density = 22.771105 Si / 1000 Ang^3
#
#
#
# Elastic Constant Matrix: (Units=GPa)
#
#
# Indices 1 2 3 4 5 6 
#
# 1 108.3626 33.6733 35.8711 0.0000 0.0000 0.0000
# 2 33.6733 107.9375 62.1123 0.0000 0.0000 0.0000
# 3 35.8711 62.1123 105.3245 0.0000 0.0000 0.0000
# 4 0.0000 0.0000 0.0000 40.0967 0.0000 0.0000
# 5 0.0000 0.0000 0.0000 0.0000 38.2780 0.0000
# 6 0.0000 0.0000 0.0000 0.0000 0.0000 23.0402
#
#
#
# Elastic Compliance Matrix: (Units=1/GPa)
#
#
# Indices 1 2 3 4 5 6 
#
# 1 0.010644 -0.001869 -0.002523 0.000000 0.000000 0.000000
# 2 -0.001869 0.014352 -0.007827 0.000000 0.000000 0.000000
# 3 -0.002523 -0.007827 0.014970 0.000000 0.000000 0.000000
# 4 0.000000 0.000000 0.000000 0.024940 0.000000 0.000000
# 5 0.000000 0.000000 0.000000 0.000000 0.026125 0.000000
# 6 0.000000 0.000000 0.000000 0.000000 0.000000 0.043402
#
#
# Mechanical properties :
#
#
# Convention : Reuss Voigt Hill
#
# Bulk Modulus (GPa) = 64.40148 64.99309 64.69729
# Shear Modulus (GPa) = 30.47927 32.94752 31.71340
#
# Velocity S-wave (km/s) = 3.66253 3.80794 3.73594
# Velocity P-wave (km/s) = 6.79919 6.92371 6.86173
#
# Compressibility (1/GPa) = 0.01552759
#
# Stress axis : x y z
#
# Youngs Moduli (GPa) = 93.94779 69.67826 66.80211
#
# Poissons Ratio (x) = 0.13021 0.16855
# Poissons Ratio (y) = 0.17557 0.52286
# Poissons Ratio (z) = 0.23704 0.54538
#
# Static dielectric constant tensor:
#      x y z
#    x 1.932500 0.000000 0.000000 
#    y 0.000000 1.915200 0.000000 
#    z 0.000000 0.000000 1.911080 
# 
# From -- ./inp_files/34053.got.cif
#   From: 2010.05.17/outbox.cif.g08.bks.cpg/sg73_18_cif.got.tgz:34053.got - 2010.06.03 17:35:07.
