data_PCOD9531365
_publ_section_title
;
Structure prediction by ZEFSAII (Michael W. Deem and Ramdas Pophale) SiO2 
 PCOD9531365
Probable space group: I B C A 
;
_chemical_formula_sum "Si O2"
_cell_formula_units_Z 64
_cell_length_a 10.360148
_cell_length_b 14.623839
_cell_length_c 16.732672
_cell_angle_alpha 90.000000
_cell_angle_beta 90.000000
_cell_angle_gamma 90.000000
_cell_volume 2535.085753
_symmetry_space_group_name_H-M "I B C A "
_symmetry_group_IT_number 73
_symmetry_cell_setting 'orthorhombic'
loop_
_space_group_symop_operation_xyz
x,y,z
-x,1/2-y,z
x,-y,1/2-z
1/2-x,y,-z
-x,-y,-z
x,1/2+y,-z
-x,y,1/2+z
1/2+x,-y,z
1/2+x,1/2+y,1/2+z
1/2-x,-y,1/2+z
1/2+x,1/2-y,-z
-x,1/2+y,1/2-z
1/2-x,1/2-y,1/2-z
1/2+x,y,1/2-z
1/2-x,1/2+y,z
x,1/2-y,1/2+z
loop_
_atom_site_type_symbol
_atom_site_label
_atom_site_fract_x
_atom_site_fract_y
_atom_site_fract_z
Si Si1 0.268575 0.842361 0.642111
Si Si2 0.006523 0.151377 0.404359
Si Si3 0.974053 0.584906 0.939675
Si Si4 0.253474 0.375904 0.825275
O O1 0.399352 0.880480 0.605244
O O2 0.275591 0.731851 0.652096
O O3 0.240979 0.881828 0.730420
O O4 0.144126 0.870099 0.590247
O O5 0.065849 0.158976 0.492730
O O6 0.109813 0.095440 0.353493
O O7 0.000000 0.250000 0.362082
O O8 0.861771 0.572168 0.875515
O O9 0.000000 0.500000 0.000000
#
# Coordination Sequence:
#
# PCOD9531365 Si02
#       4
#    16  16  16  16
#     4  10  21  41  69  97 127 170 229 291 341 394
#     4  10  21  38  63  94 125 167 226 287 342 398
#     4  12  25  40  60  96 139 177 215 267 349 428
#     4  10  21  41  69  97 127 170 229 291 341 394
#
# _framework density 25.245694
#
# number of rings (size 3 to 8) (size 9 to 14) (size 15 to 20)
#    0.000    1.500    0.000    5.250    0.000   12.000 
#    0.000    7.500    0.000    0.000    0.000    0.000 
#    0.000    0.000    0.000    0.000    0.000    0.000 
#
# Total GULP energy -178963.313048 kJ/mol
# GULP energy per Si atom -5592.603533 kJ/mol
# Density = 2.518823 g / cm^3
# Si number density = 25.245694 Si / 1000 Ang^3
#
#
#
# Elastic Constant Matrix: (Units=GPa)
#
#
# Indices 1 2 3 4 5 6 
#
# 1 136.9662 -4.9800 26.2656 0.0000 0.0000 0.0000
# 2 -4.9800 82.2461 0.3058 0.0000 0.0000 0.0000
# 3 26.2656 0.3058 130.6856 0.0000 0.0000 0.0000
# 4 0.0000 0.0000 0.0000 33.5348 0.0000 0.0000
# 5 0.0000 0.0000 0.0000 0.0000 49.5444 0.0000
# 6 0.0000 0.0000 0.0000 0.0000 0.0000 14.3716
#
#
#
# Elastic Compliance Matrix: (Units=1/GPa)
#
#
# Indices 1 2 3 4 5 6 
#
# 1 0.007612 0.000467 -0.001531 0.000000 0.000000 0.000000
# 2 0.000467 0.012187 -0.000122 0.000000 0.000000 0.000000
# 3 -0.001531 -0.000122 0.007960 0.000000 0.000000 0.000000
# 4 0.000000 0.000000 0.000000 0.029820 0.000000 0.000000
# 5 0.000000 0.000000 0.000000 0.000000 0.020184 0.000000
# 6 0.000000 0.000000 0.000000 0.000000 0.000000 0.069582
#
#
# Mechanical properties :
#
#
# Convention : Reuss Voigt Hill
#
# Bulk Modulus (GPa) = 39.39233 43.67562 41.53398
# Shear Modulus (GPa) = 31.60967 41.37725 36.49346
#
# Velocity S-wave (km/s) = 3.54232 4.05283 3.80614
# Velocity P-wave (km/s) = 5.68930 6.26405 5.98358
#
# Compressibility (1/GPa) = 0.02538565
#
# Stress axis : x y z
#
# Youngs Moduli (GPa) = 131.37829 82.05233 125.62934
#
# Poissons Ratio (x) = -0.03828 0.19233
# Poissons Ratio (y) = -0.06130 0.01536
# Poissons Ratio (z) = 0.20113 0.01003
#
# Static dielectric constant tensor:
#      x y z
#    x 1.964930 0.000000 0.000000 
#    y 0.000000 2.612380 0.000000 
#    z 0.000000 0.000000 1.930880 
# 
# From -- ./inp_files/5946.got.cif
#   From: 2010.05.17/outbox.cif.g08.bks.cpg/sg73_3_cif.got.tgz:5946.got - 2010.06.03 17:35:07.
