data_PCOD9531073
_publ_section_title
;
Structure prediction by ZEFSAII (Michael W. Deem and Ramdas Pophale) SiO2 
 PCOD9531073
Probable space group: I B C A 
;
_chemical_formula_sum "Si O2"
_cell_formula_units_Z 104
_cell_length_a 19.834708
_cell_length_b 8.412183
_cell_length_c 29.664609
_cell_angle_alpha 90.000000
_cell_angle_beta 90.000000
_cell_angle_gamma 90.000000
_cell_volume 4949.634744
_symmetry_space_group_name_H-M "I B C A "
_symmetry_group_IT_number 73
_symmetry_cell_setting 'orthorhombic'
loop_
_space_group_symop_operation_xyz
x,y,z
-x,1/2-y,z
x,-y,1/2-z
1/2-x,y,-z
-x,-y,-z
x,1/2+y,-z
-x,y,1/2+z
1/2+x,-y,z
1/2+x,1/2+y,1/2+z
1/2-x,-y,1/2+z
1/2+x,1/2-y,-z
-x,1/2+y,1/2-z
1/2-x,1/2-y,1/2-z
1/2+x,y,1/2-z
1/2-x,1/2+y,z
x,1/2-y,1/2+z
loop_
_atom_site_type_symbol
_atom_site_label
_atom_site_fract_x
_atom_site_fract_y
_atom_site_fract_z
Si Si1 0.711061 0.475741 0.873371
Si Si2 0.848683 0.124973 0.132132
Si Si3 0.582381 0.359684 0.656994
Si Si4 0.000000 0.250000 0.428291
Si Si5 0.185864 0.850301 0.032722
Si Si6 0.048295 0.017222 0.803247
Si Si7 0.391039 0.470895 0.540360
O O1 0.686443 0.295288 0.871901
O O2 0.787743 0.501773 0.858614
O O3 0.657224 0.574728 0.844207
O O4 0.704224 0.548320 0.923547
O O5 0.905365 0.107554 0.170213
O O6 0.881928 0.079448 0.084357
O O7 0.555026 0.325749 0.606162
O O8 0.528692 0.479982 0.679145
O O9 0.575455 0.191488 0.682050
O O10 0.037449 0.383764 0.456727
O O11 0.163480 0.671901 0.043886
O O12 0.250000 0.844853 0.000000
O O13 0.126062 0.932696 0.004417
O O14 0.050772 0.000000 0.750000
#
# Coordination Sequence:
#
# PCOD9531073 Si02
#       7
#    16  16  16   8  16  16  16
#     4  12  25  42  66  97 133 177 223 268 329 399
#     4  12  24  42  67  94 131 176 218 273 337 394
#     4  10  21  44  69  94 134 177 207 269 332 391
#     4  10  20  42  64  84 130 176 216 262 334 378
#     4  12  24  37  63  95 125 172 229 273 315 384
#     4  10  22  44  73 102 130 169 219 270 328 401
#     4  12  23  41  61  92 132 176 222 275 325 382
#
# _framework density 21.011652000000002
#
# number of rings (size 3 to 8) (size 9 to 14) (size 15 to 20)
#    0.000    0.923    6.154    3.231    0.000    3.692 
#    0.000    3.846    0.000    0.000    0.000    0.000 
#    0.000    0.000    0.000    0.000    0.000    0.000 
#
# Total GULP energy -291044.673370 kJ/mol
# GULP energy per Si atom -5597.012949 kJ/mol
# Density = 2.096383 g / cm^3
# Si number density = 21.011652 Si / 1000 Ang^3
#
#
#
# Elastic Constant Matrix: (Units=GPa)
#
#
# Indices 1 2 3 4 5 6 
#
# 1 60.8867 -11.0155 12.0621 0.0000 0.0000 0.0000
# 2 -11.0155 59.2424 2.2069 0.0000 0.0000 0.0000
# 3 12.0621 2.2069 91.2057 0.0000 0.0000 0.0000
# 4 0.0000 0.0000 0.0000 5.1475 0.0000 0.0000
# 5 0.0000 0.0000 0.0000 0.0000 17.2818 0.0000
# 6 0.0000 0.0000 0.0000 0.0000 0.0000 37.8402
#
#
#
# Elastic Compliance Matrix: (Units=1/GPa)
#
#
# Indices 1 2 3 4 5 6 
#
# 1 0.017504 0.003344 -0.002396 0.000000 0.000000 0.000000
# 2 0.003344 0.017534 -0.000866 0.000000 0.000000 0.000000
# 3 -0.002396 -0.000866 0.011302 0.000000 0.000000 0.000000
# 4 0.000000 0.000000 0.000000 0.194269 0.000000 0.000000
# 5 0.000000 0.000000 0.000000 0.000000 0.057864 0.000000
# 6 0.000000 0.000000 0.000000 0.000000 0.000000 0.026427
#
#
# Mechanical properties :
#
#
# Convention : Reuss Voigt Hill
#
# Bulk Modulus (GPa) = 21.50419 24.20464 22.85441
# Shear Modulus (GPa) = 14.69562 25.92599 20.31080
#
# Velocity S-wave (km/s) = 2.64749 3.51648 3.11246
# Velocity P-wave (km/s) = 4.42744 5.29454 4.88029
#
# Compressibility (1/GPa) = 0.04650257
#
# Stress axis : x y z
#
# Youngs Moduli (GPa) = 57.13129 57.03255 88.47954
#
# Poissons Ratio (x) = -0.19071 0.21198
# Poissons Ratio (y) = -0.19104 0.07667
# Poissons Ratio (z) = 0.13687 0.04942
#
# Static dielectric constant tensor:
#      x y z
#    x 1.793190 0.000000 0.000000 
#    y 0.000000 1.765530 0.000000 
#    z 0.000000 0.000000 1.717000 
# 
# From -- ./inp_files/32675.got.cif
#   From: 2010.05.17/outbox.cif.g08.bks.cpg/sg73_17_cif.got.tgz:32675.got - 2010.06.03 17:35:07.
