data_PCOD9531908
_publ_section_title
;
Structure prediction by ZEFSAII (Michael W. Deem and Ramdas Pophale) SiO2 
 PCOD9531908
Probable space group: I B C A 
;
_chemical_formula_sum "Si O2"
_cell_formula_units_Z 48
_cell_length_a 13.661897
_cell_length_b 5.131850
_cell_length_c 27.424715
_cell_angle_alpha 90.000000
_cell_angle_beta 90.000000
_cell_angle_gamma 90.000000
_cell_volume 1922.768876
_symmetry_space_group_name_H-M "I B C A "
_symmetry_group_IT_number 73
_symmetry_cell_setting 'orthorhombic'
loop_
_space_group_symop_operation_xyz
x,y,z
-x,1/2-y,z
x,-y,1/2-z
1/2-x,y,-z
-x,-y,-z
x,1/2+y,-z
-x,y,1/2+z
1/2+x,-y,z
1/2+x,1/2+y,1/2+z
1/2-x,-y,1/2+z
1/2+x,1/2-y,-z
-x,1/2+y,1/2-z
1/2-x,1/2-y,1/2-z
1/2+x,y,1/2-z
1/2-x,1/2+y,z
x,1/2-y,1/2+z
loop_
_atom_site_type_symbol
_atom_site_label
_atom_site_fract_x
_atom_site_fract_y
_atom_site_fract_z
Si Si1 0.431188 0.506956 0.877811
Si Si2 0.359412 0.326469 0.979265
Si Si3 0.881434 0.256874 0.781207
O O1 0.500000 0.250000 0.862414
O O2 0.368747 0.415404 0.923945
O O3 0.362255 0.641991 0.836380
O O4 0.500000 0.750000 0.891912
O O5 0.250000 0.283849 0.000000
O O6 0.404386 0.543690 0.014334
O O7 0.849321 0.500000 0.750000
O O8 0.000000 0.250000 0.782628
O O9 0.854914 0.000000 0.750000
#
# Coordination Sequence:
#
# PCOD9531908 Si02
#       3
#    16  16  16
#     4  11  21  33  55  87 118 152 198 247 289 341
#     4  10  22  39  56  78 111 159 204 243 296 350
#     4   9  16  28  46  73 111 147 175 218 280 341
#
# _framework density 24.963999999999999
#
# number of rings (size 3 to 8) (size 9 to 14) (size 15 to 20)
#    0.000    2.000    0.000    7.000    0.000    4.000 
#    0.000    0.000    0.000    0.000    0.000   28.000 
#    0.000    0.000    0.000   46.000    0.000    1.333 
#
# Total GULP energy -133713.366854 kJ/mol
# GULP energy per Si atom -5571.390286 kJ/mol
# Density = 2.490718 g / cm^3
# Si number density = 24.964000 Si / 1000 Ang^3
#
#
#
# Elastic Constant Matrix: (Units=GPa)
#
#
# Indices 1 2 3 4 5 6 
#
# 1 80.1028 2.9353 29.4697 0.0000 0.0000 0.0000
# 2 2.9353 175.0073 14.2538 0.0000 0.0000 0.0000
# 3 29.4697 14.2538 158.5999 0.0000 0.0000 0.0000
# 4 0.0000 0.0000 0.0000 52.9102 0.0000 0.0000
# 5 0.0000 0.0000 0.0000 0.0000 -26.0247 0.0000
# 6 0.0000 0.0000 0.0000 0.0000 0.0000 61.7768
#
#
#
# Elastic Compliance Matrix: (Units=1/GPa)
#
#
# Indices 1 2 3 4 5 6 
#
# 1 0.013400 -0.000022 -0.002488 0.000000 0.000000 0.000000
# 2 -0.000022 0.005756 -0.000513 0.000000 0.000000 0.000000
# 3 -0.002488 -0.000513 0.006814 0.000000 0.000000 0.000000
# 4 0.000000 0.000000 0.000000 0.018900 0.000000 0.000000
# 5 0.000000 0.000000 0.000000 0.000000 -0.038425 0.000000
# 6 0.000000 0.000000 0.000000 0.000000 0.000000 0.016187
#
#
# Mechanical properties :
#
#
# Convention : Reuss Voigt Hill
#
# Bulk Modulus (GPa) = 50.19227 56.33641 53.26434
# Shear Modulus (GPa) = 141.56399 42.20253 91.88326
#
# Velocity S-wave (km/s) = 7.53859 4.11607 6.07340
# Velocity P-wave (km/s) = 9.79405 6.72350 8.40026
#
# Compressibility (1/GPa) = 0.01992339
#
# Stress axis : x y z
#
# Youngs Moduli (GPa) = 74.62649 173.72514 146.76569
#
# Poissons Ratio (x) = 0.00384 0.36514
# Poissons Ratio (y) = 0.00165 0.07532
# Poissons Ratio (z) = 0.18566 0.08916
#
# Static dielectric constant tensor:
#      x y z
#    x 1.852840 0.000000 0.000000 
#    y 0.000000 2.038010 0.000000 
#    z 0.000000 0.000000 2.600610 
# 
# From -- ./inp_files/612.got.cif
#   From: 2010.05.17/outbox.cif.g08.bks.cpg/sg73_1_cif.got.tgz:612.got - 2010.06.03 17:35:07.
