data_PCOD9531402
_publ_section_title
;
Structure prediction by ZEFSAII (Michael W. Deem and Ramdas Pophale) SiO2 
 PCOD9531402
Probable space group: I B C A 
;
_chemical_formula_sum "Si O2"
_cell_formula_units_Z 56
_cell_length_a 27.121045
_cell_length_b 5.112215
_cell_length_c 16.453457
_cell_angle_alpha 90.000000
_cell_angle_beta 90.000000
_cell_angle_gamma 90.000000
_cell_volume 2281.248993
_symmetry_space_group_name_H-M "I B C A "
_symmetry_group_IT_number 73
_symmetry_cell_setting 'orthorhombic'
loop_
_space_group_symop_operation_xyz
x,y,z
-x,1/2-y,z
x,-y,1/2-z
1/2-x,y,-z
-x,-y,-z
x,1/2+y,-z
-x,y,1/2+z
1/2+x,-y,z
1/2+x,1/2+y,1/2+z
1/2-x,-y,1/2+z
1/2+x,1/2-y,-z
-x,1/2+y,1/2-z
1/2-x,1/2-y,1/2-z
1/2+x,y,1/2-z
1/2-x,1/2+y,z
x,1/2-y,1/2+z
loop_
_atom_site_type_symbol
_atom_site_label
_atom_site_fract_x
_atom_site_fract_y
_atom_site_fract_z
Si Si1 0.062777 0.008657 0.550170
Si Si2 0.681089 0.967029 0.542880
Si Si3 0.500000 0.250000 0.193615
Si Si4 0.694692 0.753843 0.714329
O O1 0.049961 0.804875 0.477114
O O2 0.039649 0.885457 0.631715
O O3 0.122123 0.018175 0.553828
O O4 0.695258 0.768384 0.470066
O O5 0.699776 0.811788 0.620629
O O6 0.483534 0.500000 0.250000
O O7 0.669563 0.500000 0.750000
O O8 0.750000 0.750000 0.750000
O O9 0.666557 0.000000 0.750000
#
# Coordination Sequence:
#
# PCOD9531402 Si02
#       4
#    16  16   8  16
#     4  10  21  40  63  86 121 168 210 258 320 381
#     4  10  21  39  63  89 117 159 214 259 300 369
#     4  12  24  38  60  96 130 162 212 270 328 394
#     4  10  21  39  59  87 125 163 199 250 323 380
#
# _framework density 24.547954000000001
#
# number of rings (size 3 to 8) (size 9 to 14) (size 15 to 20)
#    0.000    1.714    0.000    4.286    0.000    1.143 
#    0.000   20.000    0.000    0.000    0.000    0.000 
#    0.000    0.000    0.000    0.000    0.000    0.000 
#
# Total GULP energy -156256.654562 kJ/mol
# GULP energy per Si atom -5580.594806 kJ/mol
# Density = 2.449208 g / cm^3
# Si number density = 24.547954 Si / 1000 Ang^3
#
#
#
# Elastic Constant Matrix: (Units=GPa)
#
#
# Indices 1 2 3 4 5 6 
#
# 1 81.5047 -2.3877 23.7332 0.0000 0.0000 0.0000
# 2 -2.3877 219.2091 60.9005 0.0000 0.0000 0.0000
# 3 23.7332 60.9005 127.0934 0.0000 0.0000 0.0000
# 4 0.0000 0.0000 0.0000 56.7099 0.0000 0.0000
# 5 0.0000 0.0000 0.0000 0.0000 16.6380 0.0000
# 6 0.0000 0.0000 0.0000 0.0000 0.0000 19.9159
#
#
#
# Elastic Compliance Matrix: (Units=1/GPa)
#
#
# Indices 1 2 3 4 5 6 
#
# 1 0.013145 0.000952 -0.002911 0.000000 0.000000 0.000000
# 2 0.000952 0.005331 -0.002732 0.000000 0.000000 0.000000
# 3 -0.002911 -0.002732 0.009721 0.000000 0.000000 0.000000
# 4 0.000000 0.000000 0.000000 0.017634 0.000000 0.000000
# 5 0.000000 0.000000 0.000000 0.000000 0.060103 0.000000
# 6 0.000000 0.000000 0.000000 0.000000 0.000000 0.050211
#
#
# Mechanical properties :
#
#
# Convention : Reuss Voigt Hill
#
# Bulk Modulus (GPa) = 53.15044 65.81102 59.48073
# Shear Modulus (GPa) = 29.10373 41.69017 35.39695
#
# Velocity S-wave (km/s) = 3.44697 4.12553 3.80142
# Velocity P-wave (km/s) = 6.12706 7.03994 6.59930
#
# Compressibility (1/GPa) = 0.01881452
#
# Stress axis : x y z
#
# Youngs Moduli (GPa) = 76.07641 187.57026 102.86923
#
# Poissons Ratio (x) = -0.17853 0.29942
# Poissons Ratio (y) = -0.07241 0.28108
# Poissons Ratio (z) = 0.22144 0.51252
#
# Static dielectric constant tensor:
#      x y z
#    x 1.927140 0.000000 0.000000 
#    y 0.000000 2.031810 0.000000 
#    z 0.000000 0.000000 2.021780 
# 
# From -- ./inp_files/19926.got.cif
#   From: 2010.05.17/outbox.cif.g08.bks.cpg/sg73_10_cif.got.tgz:19926.got - 2010.06.03 17:35:07.
