data_PCOD9531716
_publ_section_title
;
Structure prediction by ZEFSAII (Michael W. Deem and Ramdas Pophale) SiO2 
 PCOD9531716
Probable space group: I B C A 
;
_chemical_formula_sum "Si O2"
_cell_formula_units_Z 96
_cell_length_a 22.865823
_cell_length_b 20.710577
_cell_length_c 8.503142
_cell_angle_alpha 90.000000
_cell_angle_beta 90.000000
_cell_angle_gamma 90.000000
_cell_volume 4026.785237
_symmetry_space_group_name_H-M "I B C A "
_symmetry_group_IT_number 73
_symmetry_cell_setting 'orthorhombic'
loop_
_space_group_symop_operation_xyz
x,y,z
-x,1/2-y,z
x,-y,1/2-z
1/2-x,y,-z
-x,-y,-z
x,1/2+y,-z
-x,y,1/2+z
1/2+x,-y,z
1/2+x,1/2+y,1/2+z
1/2-x,-y,1/2+z
1/2+x,1/2-y,-z
-x,1/2+y,1/2-z
1/2-x,1/2-y,1/2-z
1/2+x,y,1/2-z
1/2-x,1/2+y,z
x,1/2-y,1/2+z
loop_
_atom_site_type_symbol
_atom_site_label
_atom_site_fract_x
_atom_site_fract_y
_atom_site_fract_z
Si Si1 0.657073 0.971871 0.070340
Si Si2 0.250000 0.363666 0.500000
Si Si3 0.429771 0.625220 0.942475
Si Si4 0.670922 0.798189 0.758012
Si Si5 0.468297 0.822393 0.775242
Si Si6 0.159742 0.664800 0.603148
Si Si7 0.250000 0.431978 0.000000
O O1 0.597324 0.942939 0.999993
O O2 0.651374 0.000000 0.250000
O O3 0.698647 0.909543 0.063449
O O4 0.695069 0.020845 0.958629
O O5 0.224397 0.320775 0.362644
O O6 0.449397 0.666577 0.095156
O O7 0.382317 0.665935 0.844805
O O8 0.484393 0.624689 0.826657
O O9 0.669757 0.814785 0.576702
O O10 0.667188 0.722516 0.776872
O O11 0.500000 0.750000 0.793940
O O12 0.410369 0.843294 0.875469
O O13 0.212106 0.612719 0.615626
#
# Coordination Sequence:
#
# PCOD9531716 Si02
#       7
#    16   8  16  16  16  16   8
#     4  10  21  43  68  95 134 187 239 290 340 399
#     4   9  21  38  64  92 137 181 234 286 346 411
#     4  11  24  43  70 103 142 183 233 293 352 423
#     4  11  23  40  63 104 142 185 223 290 357 423
#     4  12  24  42  70 108 146 185 229 294 368 436
#     4  12  25  41  69 106 148 183 235 284 361 430
#     4  11  25  44  70 102 137 193 238 288 342 421
#
# _framework density 23.840356
#
# number of rings (size 3 to 8) (size 9 to 14) (size 15 to 20)
#    0.000    1.000    1.667    5.000    0.000    5.333 
#    0.000    3.333    0.000    0.000    0.000    0.000 
#    0.000    0.000    0.000    0.000    0.000    0.000 
#
# Total GULP energy -267685.095965 kJ/mol
# GULP energy per Si atom -5576.772833 kJ/mol
# Density = 2.378609 g / cm^3
# Si number density = 23.840356 Si / 1000 Ang^3
#
#
#
# Elastic Constant Matrix: (Units=GPa)
#
#
# Indices 1 2 3 4 5 6 
#
# 1 132.4236 29.4818 25.7816 0.0000 0.0000 0.0000
# 2 29.4818 61.7255 -9.2677 0.0000 0.0000 0.0000
# 3 25.7816 -9.2677 96.6492 0.0000 0.0000 0.0000
# 4 0.0000 0.0000 0.0000 -42.2231 0.0000 0.0000
# 5 0.0000 0.0000 0.0000 0.0000 27.5668 0.0000
# 6 0.0000 0.0000 0.0000 0.0000 0.0000 -0.3944
#
#
#
# Elastic Compliance Matrix: (Units=1/GPa)
#
#
# Indices 1 2 3 4 5 6 
#
# 1 0.009194 -0.004829 -0.002916 0.000000 0.000000 0.000000
# 2 -0.004829 0.018974 0.003108 0.000000 0.000000 0.000000
# 3 -0.002916 0.003108 0.011422 0.000000 0.000000 0.000000
# 4 0.000000 0.000000 0.000000 -0.023684 0.000000 0.000000
# 5 0.000000 0.000000 0.000000 0.000000 0.036276 0.000000
# 6 0.000000 0.000000 0.000000 0.000000 0.000000 -2.535716
#
#
# Mechanical properties :
#
#
# Convention : Reuss Voigt Hill
#
# Bulk Modulus (GPa) = 32.98577 42.53219 37.75898
# Shear Modulus (GPa) = -2.02909 13.31004 5.64047
#
# Velocity S-wave (km/s) = -0.92356 2.36540 1.53983
# Velocity P-wave (km/s) = 3.56775 5.03381 4.36281
#
# Compressibility (1/GPa) = 0.03031610
#
# Stress axis : x y z
#
# Youngs Moduli (GPa) = 108.76274 52.70393 87.54674
#
# Poissons Ratio (x) = 0.25452 0.25526
# Poissons Ratio (y) = 0.52524 -0.27206
# Poissons Ratio (z) = 0.31712 -0.16378
#
# Static dielectric constant tensor:
#      x y z
#    x 2.090140 0.000000 0.000000 
#    y 0.000000 2.017580 0.000000 
#    z 0.000000 0.000000 1.856830 
# 
# From -- ./inp_files/7221.got.cif
#   From: 2010.05.17/outbox.cif.g08.bks.cpg/sg73_4_cif.got.tgz:7221.got - 2010.06.03 17:35:07.
