data_PCOD9531987
_publ_section_title
;
Structure prediction by ZEFSAII (Michael W. Deem and Ramdas Pophale) SiO2 
 PCOD9531987
Probable space group: I B C A 
;
_chemical_formula_sum "Si O2"
_cell_formula_units_Z 80
_cell_length_a 11.759187
_cell_length_b 25.724011
_cell_length_c 14.981143
_cell_angle_alpha 90.000000
_cell_angle_beta 90.000000
_cell_angle_gamma 90.000000
_cell_volume 4531.697717
_symmetry_space_group_name_H-M "I B C A "
_symmetry_group_IT_number 73
_symmetry_cell_setting 'orthorhombic'
loop_
_space_group_symop_operation_xyz
x,y,z
-x,1/2-y,z
x,-y,1/2-z
1/2-x,y,-z
-x,-y,-z
x,1/2+y,-z
-x,y,1/2+z
1/2+x,-y,z
1/2+x,1/2+y,1/2+z
1/2-x,-y,1/2+z
1/2+x,1/2-y,-z
-x,1/2+y,1/2-z
1/2-x,1/2-y,1/2-z
1/2+x,y,1/2-z
1/2-x,1/2+y,z
x,1/2-y,1/2+z
loop_
_atom_site_type_symbol
_atom_site_label
_atom_site_fract_x
_atom_site_fract_y
_atom_site_fract_z
Si Si1 0.500000 0.250000 0.450444
Si Si2 0.998012 0.099331 0.818235
Si Si3 0.243072 0.569566 0.105009
Si Si4 0.951257 0.353880 0.133125
Si Si5 0.359602 0.000000 0.750000
Si Si6 0.881521 0.153615 0.980622
O O1 0.561910 0.207149 0.389014
O O2 0.583496 0.285557 0.509494
O O3 0.004864 0.133709 0.728723
O O4 0.918583 0.129655 0.887563
O O5 0.118414 0.087903 0.864687
O O6 0.938338 0.045764 0.788678
O O7 0.333734 0.615790 0.121734
O O8 0.283550 0.523412 0.170258
O O9 0.250000 0.556032 0.000000
O O10 0.040484 0.372530 0.057492
O O11 0.750000 0.146560 0.000000
#
# Coordination Sequence:
#
# PCOD9531987 Si02
#       6
#     8  16  16  16   8  16
#     4   8  20  40  58  94 120 154 208 234 302 368
#     4  11  23  42  63  90 123 168 200 258 313 361
#     4  11  21  43  64  87 125 164 204 259 304 373
#     4   9  22  40  60  92 124 157 207 245 306 366
#     4  10  26  38  60  96 122 160 216 250 316 366
#     4  10  22  40  63  91 127 160 203 254 301 365
#
# _framework density 17.653428000000002
#
# number of rings (size 3 to 8) (size 9 to 14) (size 15 to 20)
#    1.200    0.800    2.000    0.600    5.600    4.800 
#    0.000    2.000    0.000    0.000    0.000    0.000 
#    0.000    0.000    0.000    0.000    0.000    0.000 
#
# Total GULP energy -222823.243637 kJ/mol
# GULP energy per Si atom -5570.581091 kJ/mol
# Density = 1.761325 g / cm^3
# Si number density = 17.653428 Si / 1000 Ang^3
#
#
#
# Elastic Constant Matrix: (Units=GPa)
#
#
# Indices 1 2 3 4 5 6 
#
# 1 84.6631 26.1615 25.8093 -0.0002 0.0000 0.0000
# 2 26.1615 101.2748 48.1385 0.0000 0.0000 0.0000
# 3 25.8093 48.1385 134.2973 -0.0002 0.0000 0.0001
# 4 -0.0002 0.0000 -0.0002 54.5745 0.0000 0.0001
# 5 0.0000 0.0000 0.0000 0.0000 29.7475 0.0000
# 6 0.0000 0.0000 0.0001 0.0001 0.0000 29.8295
#
#
#
# Elastic Compliance Matrix: (Units=1/GPa)
#
#
# Indices 1 2 3 4 5 6 
#
# 1 0.013106 -0.002638 -0.001573 0.000000 0.000000 0.000000
# 2 -0.002638 0.012433 -0.003950 0.000000 0.000000 0.000000
# 3 -0.001573 -0.003950 0.009164 0.000000 0.000000 0.000000
# 4 0.000000 0.000000 0.000000 0.018324 0.000000 0.000000
# 5 0.000000 0.000000 0.000000 0.000000 0.033616 0.000000
# 6 0.000000 0.000000 0.000000 0.000000 0.000000 0.033524
#
#
# Mechanical properties :
#
#
# Convention : Reuss Voigt Hill
#
# Bulk Modulus (GPa) = 54.40097 57.82818 56.11458
# Shear Modulus (GPa) = 35.05926 37.50536 36.28231
#
# Velocity S-wave (km/s) = 4.46126 4.61427 4.53841
# Velocity P-wave (km/s) = 7.57761 7.82415 7.70186
#
# Compressibility (1/GPa) = 0.01838203
#
# Stress axis : x y z
#
# Youngs Moduli (GPa) = 76.29964 80.43189 109.11989
#
# Poissons Ratio (x) = 0.21217 0.17167
# Poissons Ratio (y) = 0.20127 0.43098
# Poissons Ratio (z) = 0.12004 0.31767
#
# Static dielectric constant tensor:
#      x y z
#    x 1.574610 0.000000 0.000000 
#    y 0.000000 1.599570 0.000000 
#    z 0.000000 0.000000 1.614160 
# 
# From -- ./inp_files/14190.got.cif
#   From: 2010.05.17/outbox.cif.g08.bks.cpg/sg73_8_cif.got.tgz:14190.got - 2010.06.03 17:35:07.
