data_PCOD9531694
_publ_section_title
;
Structure prediction by ZEFSAII (Michael W. Deem and Ramdas Pophale) SiO2 
 PCOD9531694
Probable space group: I B C A 
;
_chemical_formula_sum "Si O2"
_cell_formula_units_Z 64
_cell_length_a 13.858416
_cell_length_b 11.104206
_cell_length_c 16.830007
_cell_angle_alpha 90.000000
_cell_angle_beta 90.000000
_cell_angle_gamma 90.000000
_cell_volume 2589.914341
_symmetry_space_group_name_H-M "I B C A "
_symmetry_group_IT_number 73
_symmetry_cell_setting 'orthorhombic'
loop_
_space_group_symop_operation_xyz
x,y,z
-x,1/2-y,z
x,-y,1/2-z
1/2-x,y,-z
-x,-y,-z
x,1/2+y,-z
-x,y,1/2+z
1/2+x,-y,z
1/2+x,1/2+y,1/2+z
1/2-x,-y,1/2+z
1/2+x,1/2-y,-z
-x,1/2+y,1/2-z
1/2-x,1/2-y,1/2-z
1/2+x,y,1/2-z
1/2-x,1/2+y,z
x,1/2-y,1/2+z
loop_
_atom_site_type_symbol
_atom_site_label
_atom_site_fract_x
_atom_site_fract_y
_atom_site_fract_z
Si Si1 0.210344 0.080710 0.670604
Si Si2 0.924340 0.946824 0.668462
Si Si3 0.608306 0.702594 0.593752
Si Si4 0.418186 0.924419 0.446834
O O1 0.322965 0.118104 0.675228
O O2 0.161375 0.208300 0.652742
O O3 0.192989 0.000000 0.750000
O O4 0.165002 0.004501 0.595311
O O5 0.010804 0.884158 0.623183
O O6 0.963812 0.000000 0.750000
O O7 0.887223 0.068348 0.625746
O O8 0.500000 0.750000 0.594670
O O9 0.628161 0.681091 0.499913
O O10 0.500000 0.000000 0.500000
#
# Coordination Sequence:
#
# PCOD9531694 Si02
#       4
#    16  16  16  16
#     4  11  24  46  71 103 146 181 242 302 355 436
#     4  10  23  44  72 105 142 183 240 295 359 433
#     4  11  23  45  66  99 140 186 238 283 368 425
#     4  10  21  43  64 101 139 179 231 291 346 432
#
# _framework density 24.711241000000001
#
# number of rings (size 3 to 8) (size 9 to 14) (size 15 to 20)
#    0.000    1.500    5.000    0.750    0.000    8.000 
#   13.500    0.000    0.000    0.000    0.000    0.000 
#    0.000    0.000    0.000    0.000    0.000    0.000 
#
# Total GULP energy -178337.906317 kJ/mol
# GULP energy per Si atom -5573.059572 kJ/mol
# Density = 2.465500 g / cm^3
# Si number density = 24.711241 Si / 1000 Ang^3
#
#
#
# Elastic Constant Matrix: (Units=GPa)
#
#
# Indices 1 2 3 4 5 6 
#
# 1 63.6229 -4.2396 17.0636 0.0000 0.0000 0.0000
# 2 -4.2396 62.6706 10.1184 0.0000 0.0000 0.0000
# 3 17.0636 10.1184 110.6601 0.0000 0.0000 0.0000
# 4 0.0000 0.0000 0.0000 116.9940 0.0000 0.0000
# 5 0.0000 0.0000 0.0000 0.0000 28.8979 0.0000
# 6 0.0000 0.0000 0.0000 0.0000 0.0000 69.1862
#
#
#
# Elastic Compliance Matrix: (Units=1/GPa)
#
#
# Indices 1 2 3 4 5 6 
#
# 1 0.016543 0.001554 -0.002693 0.000000 0.000000 0.000000
# 2 0.001554 0.016342 -0.001734 0.000000 0.000000 0.000000
# 3 -0.002693 -0.001734 0.009610 0.000000 0.000000 0.000000
# 4 0.000000 0.000000 0.000000 0.008547 0.000000 0.000000
# 5 0.000000 0.000000 0.000000 0.000000 0.034605 0.000000
# 6 0.000000 0.000000 0.000000 0.000000 0.000000 0.014454
#
#
# Mechanical properties :
#
#
# Convention : Reuss Voigt Hill
#
# Bulk Modulus (GPa) = 27.21124 31.42652 29.31888
# Shear Modulus (GPa) = 42.33811 57.28305 49.81058
#
# Velocity S-wave (km/s) = 4.14371 4.81989 4.49453
# Velocity P-wave (km/s) = 5.82489 6.61212 6.23095
#
# Compressibility (1/GPa) = 0.03674951
#
# Stress axis : x y z
#
# Youngs Moduli (GPa) = 60.44697 61.19385 104.05307
#
# Poissons Ratio (x) = -0.09509 0.28022
# Poissons Ratio (y) = -0.09393 0.18041
# Poissons Ratio (z) = 0.16279 0.10610
#
# Static dielectric constant tensor:
#      x y z
#    x 2.076380 0.000000 0.000000 
#    y 0.000000 2.041140 0.000000 
#    z 0.000000 0.000000 2.221900 
# 
# From -- ./inp_files/10435.got.cif
#   From: 2010.05.17/outbox.cif.g08.bks.cpg/sg73_6_cif.got.tgz:10435.got - 2010.06.03 17:35:07.
