data_PCOD9531825
_publ_section_title
;
Structure prediction by ZEFSAII (Michael W. Deem and Ramdas Pophale) SiO2 
 PCOD9531825
Probable space group: I B C A 
;
_chemical_formula_sum "Si O2"
_cell_formula_units_Z 88
_cell_length_a 17.905142
_cell_length_b 26.573429
_cell_length_c 7.383649
_cell_angle_alpha 90.000000
_cell_angle_beta 90.000000
_cell_angle_gamma 90.000000
_cell_volume 3513.147723
_symmetry_space_group_name_H-M "I B C A "
_symmetry_group_IT_number 73
_symmetry_cell_setting 'orthorhombic'
loop_
_space_group_symop_operation_xyz
x,y,z
-x,1/2-y,z
x,-y,1/2-z
1/2-x,y,-z
-x,-y,-z
x,1/2+y,-z
-x,y,1/2+z
1/2+x,-y,z
1/2+x,1/2+y,1/2+z
1/2-x,-y,1/2+z
1/2+x,1/2-y,-z
-x,1/2+y,1/2-z
1/2-x,1/2-y,1/2-z
1/2+x,y,1/2-z
1/2-x,1/2+y,z
x,1/2-y,1/2+z
loop_
_atom_site_type_symbol
_atom_site_label
_atom_site_fract_x
_atom_site_fract_y
_atom_site_fract_z
Si Si1 0.338504 0.695637 0.051760
Si Si2 0.750000 0.864352 0.500000
Si Si3 0.618928 0.803732 0.467737
Si Si4 0.899887 0.411615 0.055161
Si Si5 0.197205 0.944164 0.749651
Si Si6 0.065197 0.090086 0.474409
O O1 0.347886 0.692230 0.266904
O O2 0.379749 0.645199 0.989341
O O3 0.250000 0.699611 0.000000
O O4 0.387096 0.745038 0.001313
O O5 0.687948 0.826580 0.577861
O O6 0.745727 0.903115 0.330537
O O7 0.559679 0.848206 0.499274
O O8 0.906844 0.416499 0.270140
O O9 0.834595 0.439780 0.952155
O O10 0.981336 0.428963 0.989056
O O11 0.228174 0.000000 0.750000
O O12 0.124378 0.933469 0.883149
#
# Coordination Sequence:
#
# PCOD9531825 Si02
#       6
#    16   8  16  16  16  16
#     4  11  22  35  61  99 124 181 220 264 336 405
#     4  10  22  46  64  96 140 166 224 284 336 404
#     4  10  22  36  63  92 132 171 220 273 327 407
#     4  11  23  43  68  96 140 175 225 285 338 407
#     4  11  25  46  71  96 130 182 221 286 345 400
#     4  10  23  43  64 100 134 176 228 284 343 398
#
# _framework density 25.048762
#
# number of rings (size 3 to 8) (size 9 to 14) (size 15 to 20)
#    0.000    1.455    2.727    1.636    5.091    2.182 
#   11.455    3.636    0.000    0.000    0.000    0.000 
#    0.000    0.000    0.000    0.000    0.000    0.000 
#
# Total GULP energy -245415.885555 kJ/mol
# GULP energy per Si atom -5577.633763 kJ/mol
# Density = 2.499175 g / cm^3
# Si number density = 25.048762 Si / 1000 Ang^3
#
#
#
# Elastic Constant Matrix: (Units=GPa)
#
#
# Indices 1 2 3 4 5 6 
#
# 1 89.0536 -27.4921 13.3839 0.0000 0.0000 0.0000
# 2 -27.4921 61.9234 6.6398 0.0000 0.0000 0.0000
# 3 13.3839 6.6398 73.3296 0.0000 0.0000 0.0000
# 4 0.0000 0.0000 0.0000 29.4877 0.0000 0.0000
# 5 0.0000 0.0000 0.0000 0.0000 26.7254 0.0000
# 6 0.0000 0.0000 0.0000 0.0000 0.0000 -50.4191
#
#
#
# Elastic Compliance Matrix: (Units=1/GPa)
#
#
# Indices 1 2 3 4 5 6 
#
# 1 0.013666 0.006397 -0.003073 0.000000 0.000000 0.000000
# 2 0.006397 0.019302 -0.002915 0.000000 0.000000 0.000000
# 3 -0.003073 -0.002915 0.014462 0.000000 0.000000 0.000000
# 4 0.000000 0.000000 0.000000 0.033912 0.000000 0.000000
# 5 0.000000 0.000000 0.000000 0.000000 0.037418 0.000000
# 6 0.000000 0.000000 0.000000 0.000000 0.000000 -0.019834
#
#
# Mechanical properties :
#
#
# Convention : Reuss Voigt Hill
#
# Bulk Modulus (GPa) = 20.72726 23.26330 21.99528
# Shear Modulus (GPa) = 43.78614 16.61047 30.19830
#
# Velocity S-wave (km/s) = 4.18549 2.57792 3.47591
# Velocity P-wave (km/s) = 5.62588 4.26242 4.99093
#
# Compressibility (1/GPa) = 0.04824564
#
# Stress axis : x y z
#
# Youngs Moduli (GPa) = 73.17492 51.80926 69.14678
#
# Poissons Ratio (x) = -0.33141 0.21252
# Poissons Ratio (y) = -0.46809 0.20158
# Poissons Ratio (z) = 0.22490 0.15104
#
# Static dielectric constant tensor:
#      x y z
#    x 2.042520 0.000000 0.000000 
#    y 0.000000 2.023000 0.000000 
#    z 0.000000 0.000000 2.068000 
# 
# From -- ./inp_files/6292.got.cif
#   From: 2010.05.17/outbox.cif.g08.bks.cpg/sg73_4_cif.got.tgz:6292.got - 2010.06.03 17:35:07.
