data_PCOD9531428
_publ_section_title
;
Structure prediction by ZEFSAII (Michael W. Deem and Ramdas Pophale) SiO2 
 PCOD9531428
Probable space group: I B C A 
;
_chemical_formula_sum "Si O2"
_cell_formula_units_Z 96
_cell_length_a 18.933225
_cell_length_b 15.201639
_cell_length_c 17.312877
_cell_angle_alpha 90.000000
_cell_angle_beta 90.000000
_cell_angle_gamma 90.000000
_cell_volume 4982.923899
_symmetry_space_group_name_H-M "I B C A "
_symmetry_group_IT_number 73
_symmetry_cell_setting 'orthorhombic'
loop_
_space_group_symop_operation_xyz
x,y,z
-x,1/2-y,z
x,-y,1/2-z
1/2-x,y,-z
-x,-y,-z
x,1/2+y,-z
-x,y,1/2+z
1/2+x,-y,z
1/2+x,1/2+y,1/2+z
1/2-x,-y,1/2+z
1/2+x,1/2-y,-z
-x,1/2+y,1/2-z
1/2-x,1/2-y,1/2-z
1/2+x,y,1/2-z
1/2-x,1/2+y,z
x,1/2-y,1/2+z
loop_
_atom_site_type_symbol
_atom_site_label
_atom_site_fract_x
_atom_site_fract_y
_atom_site_fract_z
Si Si1 0.011327 0.479346 0.159717
Si Si2 0.463963 0.657362 0.906608
Si Si3 0.059181 0.821733 0.412181
Si Si4 0.172296 0.070615 0.646648
Si Si5 0.814635 0.124996 0.325090
Si Si6 0.216419 0.747914 0.416412
O O1 0.018785 0.500000 0.250000
O O2 0.993543 0.570914 0.118309
O O3 0.088298 0.443752 0.131282
O O4 0.954149 0.405932 0.140779
O O5 0.500000 0.750000 0.887828
O O6 0.390467 0.649502 0.860960
O O7 0.452889 0.653804 0.998285
O O8 0.136851 0.782511 0.407890
O O9 0.000000 0.750000 0.390717
O O10 0.178621 0.109156 0.733655
O O11 0.210025 0.143032 0.594551
O O12 0.204448 0.972537 0.642756
O O13 0.762029 0.200721 0.352442
O O14 0.250000 0.768266 0.500000
#
# Coordination Sequence:
#
# PCOD9531428 Si02
#       6
#    16  16  16  16  16  16
#     4  11  21  40  66  91 125 168 211 263 321 381
#     4  10  21  39  62  91 124 163 208 260 320 380
#     4  11  23  41  64  92 125 162 214 269 318 378
#     4  10  21  42  67  87 126 170 208 256 328 383
#     4  10  21  43  64  89 127 166 204 263 321 379
#     4  12  24  41  63  94 128 167 216 263 320 386
#
# _framework density 19.265796000000002
#
# number of rings (size 3 to 8) (size 9 to 14) (size 15 to 20)
#    0.000    1.333    6.667    1.000    0.000    2.667 
#    6.000    0.000    0.000    0.000    0.000    0.000 
#    0.000    0.000    0.000    0.000    0.000    0.000 
#
# Total GULP energy -268015.664739 kJ/mol
# GULP energy per Si atom -5583.659682 kJ/mol
# Density = 1.922195 g / cm^3
# Si number density = 19.265796 Si / 1000 Ang^3
#
#
#
# Elastic Constant Matrix: (Units=GPa)
#
#
# Indices 1 2 3 4 5 6 
#
# 1 66.1754 32.8058 10.1534 0.0000 0.0000 0.0000
# 2 32.8058 106.8092 25.8994 0.0000 0.0000 0.0000
# 3 10.1534 25.8994 28.7661 0.0000 0.0000 0.0000
# 4 0.0000 0.0000 0.0000 32.9912 0.0000 0.0000
# 5 0.0000 0.0000 0.0000 0.0000 12.3358 0.0000
# 6 0.0000 0.0000 0.0000 0.0000 0.0000 -7.8145
#
#
#
# Elastic Compliance Matrix: (Units=1/GPa)
#
#
# Indices 1 2 3 4 5 6 
#
# 1 0.017894 -0.005072 -0.001750 0.000000 0.000000 0.000000
# 2 -0.005072 0.013415 -0.010288 0.000000 0.000000 0.000000
# 3 -0.001750 -0.010288 0.044643 0.000000 0.000000 0.000000
# 4 0.000000 0.000000 0.000000 0.030311 0.000000 0.000000
# 5 0.000000 0.000000 0.000000 0.000000 0.081065 0.000000
# 6 0.000000 0.000000 0.000000 0.000000 0.000000 -0.127968
#
#
# Mechanical properties :
#
#
# Convention : Reuss Voigt Hill
#
# Bulk Modulus (GPa) = 23.96139 37.71864 30.84001
# Shear Modulus (GPa) = 46.51606 16.36199 31.43902
#
# Velocity S-wave (km/s) = 4.91902 2.91740 4.04401
# Velocity P-wave (km/s) = 6.68780 5.56496 6.15205
#
# Compressibility (1/GPa) = 0.04173381
#
# Stress axis : x y z
#
# Youngs Moduli (GPa) = 55.88435 74.54400 22.39978
#
# Poissons Ratio (x) = 0.37807 0.03919
# Poissons Ratio (y) = 0.28344 0.23045
# Poissons Ratio (z) = 0.09777 0.76690
#
# Static dielectric constant tensor:
#      x y z
#    x 1.658910 0.000000 0.000000 
#    y 0.000000 1.687340 0.000000 
#    z 0.000000 0.000000 1.663380 
# 
# From -- ./inp_files/18649.got.cif
#   From: 2010.05.17/outbox.cif.g08.bks.cpg/sg73_10_cif.got.tgz:18649.got - 2010.06.03 17:35:07.
