data_PCOD9531348
_publ_section_title
;
Structure prediction by ZEFSAII (Michael W. Deem and Ramdas Pophale) SiO2 
 PCOD9531348
Probable space group: I B C A 
;
_chemical_formula_sum "Si O2"
_cell_formula_units_Z 112
_cell_length_a 17.835802
_cell_length_b 13.299642
_cell_length_c 21.724793
_cell_angle_alpha 90.000000
_cell_angle_beta 90.000000
_cell_angle_gamma 90.000000
_cell_volume 5153.333398
_symmetry_space_group_name_H-M "I B C A "
_symmetry_group_IT_number 73
_symmetry_cell_setting 'orthorhombic'
loop_
_space_group_symop_operation_xyz
x,y,z
-x,1/2-y,z
x,-y,1/2-z
1/2-x,y,-z
-x,-y,-z
x,1/2+y,-z
-x,y,1/2+z
1/2+x,-y,z
1/2+x,1/2+y,1/2+z
1/2-x,-y,1/2+z
1/2+x,1/2-y,-z
-x,1/2+y,1/2-z
1/2-x,1/2-y,1/2-z
1/2+x,y,1/2-z
1/2-x,1/2+y,z
x,1/2-y,1/2+z
loop_
_atom_site_type_symbol
_atom_site_label
_atom_site_fract_x
_atom_site_fract_y
_atom_site_fract_z
Si Si1 0.081335 0.782137 0.574719
Si Si2 0.839916 0.162591 0.842056
Si Si3 0.410869 0.746584 0.729935
Si Si4 0.640010 0.939383 0.151689
Si Si5 0.712088 0.555879 0.430622
Si Si6 0.170252 0.347532 0.125530
Si Si7 0.929986 0.688867 0.433964
O O1 0.129010 0.682049 0.589324
O O2 0.145259 0.867174 0.586425
O O3 0.061195 0.814030 0.505895
O O4 0.000000 0.750000 0.603424
O O5 0.874995 0.246526 0.797491
O O6 0.751366 0.170874 0.845206
O O7 0.864311 0.051083 0.822283
O O8 0.500000 0.750000 0.734672
O O9 0.377931 0.847766 0.697326
O O10 0.384614 0.656295 0.685063
O O11 0.720786 0.932036 0.118815
O O12 0.580222 0.918285 0.097283
O O13 0.750000 0.565327 0.500000
O O14 0.677501 0.445933 0.416448
O O15 0.142007 0.256773 0.082501
O O16 0.000000 0.750000 0.407181
#
# Coordination Sequence:
#
# PCOD9531348 Si02
#       7
#    16  16  16  16  16  16  16
#     4  11  24  38  59  94 136 173 216 272 330 391
#     4  11  24  40  66  96 127 174 225 276 324 384
#     4  11  23  45  68  93 134 174 219 274 336 393
#     4  10  21  40  66  94 124 174 217 268 327 391
#     4  11  23  41  63  97 136 172 220 274 328 394
#     4  10  23  38  68  94 124 172 227 266 327 395
#     4  10  21  38  61  92 131 174 212 266 334 398
#
# _framework density 21.733505999999998
#
# number of rings (size 3 to 8) (size 9 to 14) (size 15 to 20)
#    0.000    1.429    1.429    4.714    4.000    2.286 
#    0.000    6.429    0.000    0.000    0.000    0.000 
#    0.000    0.000    0.000    0.000    0.000    0.000 
#
# Total GULP energy -311798.307087 kJ/mol
# GULP energy per Si atom -5567.826912 kJ/mol
# Density = 2.168404 g / cm^3
# Si number density = 21.733506 Si / 1000 Ang^3
#
#
#
# Elastic Constant Matrix: (Units=GPa)
#
#
# Indices 1 2 3 4 5 6 
#
# 1 114.7512 28.0930 19.7585 0.0000 0.0000 0.0000
# 2 28.0930 75.8780 8.9273 0.0000 0.0000 0.0000
# 3 19.7585 8.9273 57.7333 0.0000 0.0000 0.0000
# 4 0.0000 0.0000 0.0000 31.2511 0.0000 0.0000
# 5 0.0000 0.0000 0.0000 0.0000 35.6133 0.0000
# 6 0.0000 0.0000 0.0000 0.0000 0.0000 4.9208
#
#
#
# Elastic Compliance Matrix: (Units=1/GPa)
#
#
# Indices 1 2 3 4 5 6 
#
# 1 0.010043 -0.003375 -0.002915 0.000000 0.000000 0.000000
# 2 -0.003375 0.014558 -0.001096 0.000000 0.000000 0.000000
# 3 -0.002915 -0.001096 0.018488 0.000000 0.000000 0.000000
# 4 0.000000 0.000000 0.000000 0.031999 0.000000 0.000000
# 5 0.000000 0.000000 0.000000 0.000000 0.028079 0.000000
# 6 0.000000 0.000000 0.000000 0.000000 0.000000 0.203219
#
#
# Mechanical properties :
#
#
# Convention : Reuss Voigt Hill
#
# Bulk Modulus (GPa) = 35.31569 40.21336 37.76453
# Shear Modulus (GPa) = 15.12417 27.12930 21.12674
#
# Velocity S-wave (km/s) = 2.64084 3.53692 3.12120
# Velocity P-wave (km/s) = 5.05800 5.93488 5.51390
#
# Compressibility (1/GPa) = 0.02831602
#
# Stress axis : x y z
#
# Youngs Moduli (GPa) = 99.57420 68.69247 54.08874
#
# Poissons Ratio (x) = 0.23185 0.15767
# Poissons Ratio (y) = 0.33609 0.05928
# Poissons Ratio (z) = 0.29027 0.07528
#
# Static dielectric constant tensor:
#      x y z
#    x 1.827080 0.000000 0.000000 
#    y 0.000000 1.824820 0.000000 
#    z 0.000000 0.000000 1.907280 
# 
# From -- ./inp_files/29535.got.cif
#   From: 2010.05.17/outbox.cif.g08.bks.cpg/sg73_15_cif.got.tgz:29535.got - 2010.06.03 17:35:07.
