data_PCOD9531511
_publ_section_title
;
Structure prediction by ZEFSAII (Michael W. Deem and Ramdas Pophale) SiO2 
 PCOD9531511
Probable space group: I B C A 
;
_chemical_formula_sum "Si O2"
_cell_formula_units_Z 112
_cell_length_a 30.851015
_cell_length_b 10.210217
_cell_length_c 16.439641
_cell_angle_alpha 90.000000
_cell_angle_beta 90.000000
_cell_angle_gamma 90.000000
_cell_volume 5178.413887
_symmetry_space_group_name_H-M "I B C A "
_symmetry_group_IT_number 73
_symmetry_cell_setting 'orthorhombic'
loop_
_space_group_symop_operation_xyz
x,y,z
-x,1/2-y,z
x,-y,1/2-z
1/2-x,y,-z
-x,-y,-z
x,1/2+y,-z
-x,y,1/2+z
1/2+x,-y,z
1/2+x,1/2+y,1/2+z
1/2-x,-y,1/2+z
1/2+x,1/2-y,-z
-x,1/2+y,1/2-z
1/2-x,1/2-y,1/2-z
1/2+x,y,1/2-z
1/2-x,1/2+y,z
x,1/2-y,1/2+z
loop_
_atom_site_type_symbol
_atom_site_label
_atom_site_fract_x
_atom_site_fract_y
_atom_site_fract_z
Si Si1 0.754998 0.619814 0.303474
Si Si2 0.661834 0.439547 0.123773
Si Si3 0.605593 0.317499 0.388940
Si Si4 0.014541 0.106444 0.679409
Si Si5 0.422426 0.458079 0.342831
Si Si6 0.367803 0.317985 0.075662
Si Si7 0.794864 0.507591 0.455635
O O1 0.772896 0.500000 0.250000
O O2 0.750000 0.750000 0.250000
O O3 0.706595 0.580457 0.330396
O O4 0.783428 0.614515 0.386434
O O5 0.639028 0.575357 0.145207
O O6 0.631398 0.312990 0.129328
O O7 0.674358 0.441785 0.027596
O O8 0.557507 0.374688 0.373673
O O9 0.604613 0.175559 0.348498
O O10 0.617742 0.296408 0.482934
O O11 0.000000 0.250000 0.713684
O O12 0.971896 0.064470 0.629029
O O13 0.022571 0.000000 0.750000
O O14 0.425771 0.500000 0.250000
O O15 0.398859 0.570856 0.390838
O O16 0.319258 0.379765 0.078528
O O17 0.750000 0.470191 0.500000
#
# Coordination Sequence:
#
# PCOD9531511 Si02
#       7
#    16  16  16  16  16  16  16
#     4  11  24  40  60  89 119 154 207 259 306 362
#     4  10  23  39  61  89 121 160 202 253 313 371
#     4  10  21  40  63  89 121 158 209 257 299 371
#     4   9  20  39  62  88 123 164 202 250 315 379
#     4  10  23  42  63  90 127 167 202 249 320 384
#     4  11  22  39  63  92 122 161 207 253 309 370
#     4   9  21  41  61  82 119 164 202 250 312 372
#
# _framework density 21.628243999999999
#
# number of rings (size 3 to 8) (size 9 to 14) (size 15 to 20)
#    0.000    2.000    0.000    2.571    0.000   13.714 
#    0.000    1.429    0.000    0.000    0.000    0.000 
#    0.000    0.000    0.000    0.000    0.000    0.000 
#
# Total GULP energy -312911.620595 kJ/mol
# GULP energy per Si atom -5587.707511 kJ/mol
# Density = 2.157902 g / cm^3
# Si number density = 21.628244 Si / 1000 Ang^3
#
#
#
# Elastic Constant Matrix: (Units=GPa)
#
#
# Indices 1 2 3 4 5 6 
#
# 1 73.1627 16.4474 13.0833 0.0000 0.0000 0.0000
# 2 16.4474 78.3622 13.2865 0.0000 0.0000 0.0000
# 3 13.0833 13.2865 50.2222 0.0000 0.0000 0.0000
# 4 0.0000 0.0000 0.0000 32.4693 0.0000 0.0000
# 5 0.0000 0.0000 0.0000 0.0000 25.3874 0.0000
# 6 0.0000 0.0000 0.0000 0.0000 0.0000 9.4865
#
#
#
# Elastic Compliance Matrix: (Units=1/GPa)
#
#
# Indices 1 2 3 4 5 6 
#
# 1 0.014815 -0.002570 -0.003179 0.000000 0.000000 0.000000
# 2 -0.002570 0.013807 -0.002983 0.000000 0.000000 0.000000
# 3 -0.003179 -0.002983 0.021529 0.000000 0.000000 0.000000
# 4 0.000000 0.000000 0.000000 0.030798 0.000000 0.000000
# 5 0.000000 0.000000 0.000000 0.000000 0.039390 0.000000
# 6 0.000000 0.000000 0.000000 0.000000 0.000000 0.105413
#
#
# Mechanical properties :
#
#
# Convention : Reuss Voigt Hill
#
# Bulk Modulus (GPa) = 30.59540 31.93130 31.26335
# Shear Modulus (GPa) = 19.67641 24.06396 21.87019
#
# Velocity S-wave (km/s) = 3.01949 3.33921 3.18337
# Velocity P-wave (km/s) = 5.13158 5.44636 5.29131
#
# Compressibility (1/GPa) = 0.03268465
#
# Stress axis : x y z
#
# Youngs Moduli (GPa) = 67.50129 72.42957 46.44919
#
# Poissons Ratio (x) = 0.18617 0.14768
# Poissons Ratio (y) = 0.17350 0.13856
# Poissons Ratio (z) = 0.21461 0.21606
#
# Static dielectric constant tensor:
#      x y z
#    x 1.793570 0.000000 0.000000 
#    y 0.000000 1.821980 0.000000 
#    z 0.000000 0.000000 1.969830 
# 
# From -- ./inp_files/20042.got.cif
#   From: 2010.05.17/outbox.cif.g08.bks.cpg/sg73_11_cif.got.tgz:20042.got - 2010.06.03 17:35:07.
