data_PCOD9531050
_publ_section_title
;
Structure prediction by ZEFSAII (Michael W. Deem and Ramdas Pophale) SiO2 
 PCOD9531050
Probable space group: I B C A 
;
_chemical_formula_sum "Si O2"
_cell_formula_units_Z 120
_cell_length_a 25.706631
_cell_length_b 25.875810
_cell_length_c 8.958979
_cell_angle_alpha 90.000000
_cell_angle_beta 90.000000
_cell_angle_gamma 90.000000
_cell_volume 5959.332751
_symmetry_space_group_name_H-M "I B C A "
_symmetry_group_IT_number 73
_symmetry_cell_setting 'orthorhombic'
loop_
_space_group_symop_operation_xyz
x,y,z
-x,1/2-y,z
x,-y,1/2-z
1/2-x,y,-z
-x,-y,-z
x,1/2+y,-z
-x,y,1/2+z
1/2+x,-y,z
1/2+x,1/2+y,1/2+z
1/2-x,-y,1/2+z
1/2+x,1/2-y,-z
-x,1/2+y,1/2-z
1/2-x,1/2-y,1/2-z
1/2+x,y,1/2-z
1/2-x,1/2+y,z
x,1/2-y,1/2+z
loop_
_atom_site_type_symbol
_atom_site_label
_atom_site_fract_x
_atom_site_fract_y
_atom_site_fract_z
Si Si1 0.468930 0.052452 0.024081
Si Si2 0.043378 0.708984 0.789309
Si Si3 0.857598 0.324005 0.672275
Si Si4 0.468902 0.380732 0.803669
Si Si5 0.316311 0.931422 0.179845
Si Si6 0.884864 0.234930 0.453125
Si Si7 0.278579 0.000000 0.750000
Si Si8 0.645452 0.973970 0.990830
O O1 0.460465 0.071345 0.192824
O O2 0.411338 0.043774 0.959246
O O3 0.503323 0.096291 0.947589
O O4 0.500000 0.000000 0.000000
O O5 0.075182 0.734462 0.654604
O O6 0.000000 0.750000 0.841659
O O7 0.011236 0.659419 0.740400
O O8 0.082430 0.701040 0.928032
O O9 0.915449 0.349996 0.669497
O O10 0.819532 0.371596 0.641872
O O11 0.855776 0.277976 0.552221
O O12 0.852211 0.299638 0.837836
O O13 0.335732 0.939822 0.350332
O O14 0.259834 0.957882 0.176636
O O15 0.352855 0.967370 0.075322
O O16 0.314116 0.973695 0.625486
#
# Coordination Sequence:
#
# PCOD9531050 Si02
#       8
#    16  16  16  16  16  16   8  16
#     4  12  26  38  53  84 135 171 200 239 293 366
#     4  11  20  32  54  75 117 160 218 259 283 345
#     4  11  21  37  58  87 126 164 206 252 310 367
#     4  12  23  35  55  81 121 177 209 237 302 359
#     4  10  20  41  67  87 123 155 201 261 330 363
#     4  10  21  34  53  83 120 161 211 259 298 354
#     4  10  22  42  72 100 110 148 210 276 304 362
#     4  10  22  41  64  94 123 159 206 253 301 374
#
# _framework density 20.136483999999999
#
# number of rings (size 3 to 8) (size 9 to 14) (size 15 to 20)
#    0.000    1.333    4.000    4.800    3.733    0.000 
#    0.000    0.000    0.000    0.000    0.000   11.200 
#    0.000    0.000    0.000    0.000    0.000    0.000 
#
# Total GULP energy -335134.559104 kJ/mol
# GULP energy per Si atom -5585.575985 kJ/mol
# Density = 2.009065 g / cm^3
# Si number density = 20.136484 Si / 1000 Ang^3
#
#
#
# Elastic Constant Matrix: (Units=GPa)
#
#
# Indices 1 2 3 4 5 6 
#
# 1 49.7379 8.6549 18.4774 0.0000 0.0000 0.0000
# 2 8.6549 81.7802 14.0404 0.0000 0.0000 0.0000
# 3 18.4774 14.0404 69.2866 0.0000 0.0000 0.0000
# 4 0.0000 0.0000 0.0000 28.2730 0.0000 0.0000
# 5 0.0000 0.0000 0.0000 0.0000 18.1540 0.0000
# 6 0.0000 0.0000 0.0000 0.0000 0.0000 21.2799
#
#
#
# Elastic Compliance Matrix: (Units=1/GPa)
#
#
# Indices 1 2 3 4 5 6 
#
# 1 0.022469 -0.001398 -0.005709 0.000000 0.000000 0.000000
# 2 -0.001398 0.012756 -0.002212 0.000000 0.000000 0.000000
# 3 -0.005709 -0.002212 0.016404 0.000000 0.000000 0.000000
# 4 0.000000 0.000000 0.000000 0.035369 0.000000 0.000000
# 5 0.000000 0.000000 0.000000 0.000000 0.055084 0.000000
# 6 0.000000 0.000000 0.000000 0.000000 0.000000 0.046993
#
#
# Mechanical properties :
#
#
# Convention : Reuss Voigt Hill
#
# Bulk Modulus (GPa) = 30.31132 31.46113 30.88622
# Shear Modulus (GPa) = 22.86135 24.18351 23.52243
#
# Velocity S-wave (km/s) = 3.37311 3.46927 3.42153
# Velocity P-wave (km/s) = 5.50055 5.63078 5.56605
#
# Compressibility (1/GPa) = 0.03299098
#
# Stress axis : x y z
#
# Youngs Moduli (GPa) = 44.50480 78.39690 60.96248
#
# Poissons Ratio (x) = 0.10959 0.34803
# Poissons Ratio (y) = 0.06221 0.13485
# Poissons Ratio (z) = 0.25407 0.17342
#
# Static dielectric constant tensor:
#      x y z
#    x 1.695050 0.000000 0.000000 
#    y 0.000000 1.744370 0.000000 
#    z 0.000000 0.000000 1.731590 
# 
# From -- ./inp_files/8106.got.cif
#   From: 2010.05.17/outbox.cif.g08.bks.cpg/sg73_5_cif.got.tgz:8106.got - 2010.06.03 17:35:07.
