data_PCOD9531490
_publ_section_title
;
Structure prediction by ZEFSAII (Michael W. Deem and Ramdas Pophale) SiO2 
 PCOD9531490
Probable space group: I B C A 
;
_chemical_formula_sum "Si O2"
_cell_formula_units_Z 72
_cell_length_a 12.727376
_cell_length_b 28.512442
_cell_length_c 9.402016
_cell_angle_alpha 90.000000
_cell_angle_beta 90.000000
_cell_angle_gamma 90.000000
_cell_volume 3411.884141
_symmetry_space_group_name_H-M "I B C A "
_symmetry_group_IT_number 73
_symmetry_cell_setting 'orthorhombic'
loop_
_space_group_symop_operation_xyz
x,y,z
-x,1/2-y,z
x,-y,1/2-z
1/2-x,y,-z
-x,-y,-z
x,1/2+y,-z
-x,y,1/2+z
1/2+x,-y,z
1/2+x,1/2+y,1/2+z
1/2-x,-y,1/2+z
1/2+x,1/2-y,-z
-x,1/2+y,1/2-z
1/2-x,1/2-y,1/2-z
1/2+x,y,1/2-z
1/2-x,1/2+y,z
x,1/2-y,1/2+z
loop_
_atom_site_type_symbol
_atom_site_label
_atom_site_fract_x
_atom_site_fract_y
_atom_site_fract_z
Si Si1 0.426402 0.835760 0.603281
Si Si2 0.750000 0.736387 0.500000
Si Si3 0.575218 0.706240 0.888538
Si Si4 0.132569 0.040390 0.457431
Si Si5 0.571544 0.439357 0.869218
O O1 0.338920 0.797652 0.561337
O O2 0.437896 0.832763 0.771063
O O3 0.533344 0.816766 0.532947
O O4 0.397079 0.888814 0.568178
O O5 0.810107 0.771636 0.604591
O O6 0.500000 0.750000 0.852308
O O7 0.250000 0.055673 0.500000
O O8 0.093287 0.058081 0.301065
O O9 0.049866 0.054145 0.580936
O O10 0.129158 0.983885 0.438851
#
# Coordination Sequence:
#
# PCOD9531490 Si02
#       5
#    16   8  16  16  16
#     4  11  22  40  63  93 124 165 218 269 306 397
#     4  10  22  38  64  92 124 172 208 264 328 382
#     4  10  21  40  60  86 127 166 204 264 325 371
#     4  10  23  45  69  95 140 178 209 275 343 390
#     4  10  23  43  66  99 131 171 225 273 321 395
#
# _framework density 21.102709000000001
#
# number of rings (size 3 to 8) (size 9 to 14) (size 15 to 20)
#    0.000    1.778    0.000    4.000    1.556    8.889 
#   16.000    0.000    0.000    0.000    0.000    0.000 
#    0.000    0.000    0.000    0.000    0.000    0.000 
#
# Total GULP energy -200812.154708 kJ/mol
# GULP energy per Si atom -5578.115409 kJ/mol
# Density = 2.105468 g / cm^3
# Si number density = 21.102709 Si / 1000 Ang^3
#
#
#
# Elastic Constant Matrix: (Units=GPa)
#
#
# Indices 1 2 3 4 5 6 
#
# 1 102.8138 -2.8274 57.4315 0.0000 -0.0001 -0.0001
# 2 -2.8274 102.1299 23.4861 0.0002 -0.0001 0.0000
# 3 57.4315 23.4861 88.3679 0.0005 0.0003 0.0004
# 4 0.0000 0.0002 0.0005 0.3371 -0.0002 -0.0001
# 5 -0.0001 -0.0001 0.0003 -0.0002 13.6411 -0.0001
# 6 -0.0001 0.0000 0.0004 -0.0001 -0.0001 4.0344
#
#
#
# Elastic Compliance Matrix: (Units=1/GPa)
#
#
# Indices 1 2 3 4 5 6 
#
# 1 0.016110 0.003039 -0.011278 0.000011 0.000000 0.000001
# 2 0.003039 0.011002 -0.004900 -0.000001 0.000000 0.000001
# 3 -0.011278 -0.004900 0.019948 -0.000023 -0.000001 -0.000002
# 4 0.000011 -0.000001 -0.000023 2.966660 0.000045 0.000050
# 5 0.000000 0.000000 -0.000001 0.000045 0.073308 0.000001
# 6 0.000001 0.000001 -0.000002 0.000050 0.000001 0.247867
#
#
# Mechanical properties :
#
#
# Convention : Reuss Voigt Hill
#
# Bulk Modulus (GPa) = 48.11299 49.94355 49.02827
# Shear Modulus (GPa) = 1.48452 17.95061 9.71756
#
# Velocity S-wave (km/s) = 0.83964 2.91972 2.14823
# Velocity P-wave (km/s) = 4.87739 5.92323 5.42557
#
# Compressibility (1/GPa) = 0.02078441
#
# Stress axis : x y z
#
# Youngs Moduli (GPa) = 62.07497 90.89010 50.13040
#
# Poissons Ratio (x) = -0.27625 0.56535
# Poissons Ratio (y) = -0.18867 0.24561
# Poissons Ratio (z) = 0.70006 0.44532
#
# Static dielectric constant tensor:
#      x y z
#    x 1.755660 0.000000 0.000000 
#    y 0.000000 1.737190 0.000000 
#    z 0.000000 0.000000 1.776550 
# 
# From -- ./inp_files/4903.got.cif
#   From: 2010.05.17/outbox.cif.g08.bks.cpg/sg73_3_cif.got.tgz:4903.got - 2010.06.03 17:35:07.
