data_PCOD9531420
_publ_section_title
;
Structure prediction by ZEFSAII (Michael W. Deem and Ramdas Pophale) SiO2 
 PCOD9531420
Probable space group: I B C A 
;
_chemical_formula_sum "Si O2"
_cell_formula_units_Z 72
_cell_length_a 16.654238
_cell_length_b 19.037317
_cell_length_c 8.658272
_cell_angle_alpha 90.000000
_cell_angle_beta 90.000000
_cell_angle_gamma 90.000000
_cell_volume 2745.122525
_symmetry_space_group_name_H-M "I B C A "
_symmetry_group_IT_number 73
_symmetry_cell_setting 'orthorhombic'
loop_
_space_group_symop_operation_xyz
x,y,z
-x,1/2-y,z
x,-y,1/2-z
1/2-x,y,-z
-x,-y,-z
x,1/2+y,-z
-x,y,1/2+z
1/2+x,-y,z
1/2+x,1/2+y,1/2+z
1/2-x,-y,1/2+z
1/2+x,1/2-y,-z
-x,1/2+y,1/2-z
1/2-x,1/2-y,1/2-z
1/2+x,y,1/2-z
1/2-x,1/2+y,z
x,1/2-y,1/2+z
loop_
_atom_site_type_symbol
_atom_site_label
_atom_site_fract_x
_atom_site_fract_y
_atom_site_fract_z
Si Si1 0.617050 0.186128 0.223410
Si Si2 0.731747 0.419357 0.267881
Si Si3 0.022020 0.000000 0.250000
Si Si4 0.417522 0.913047 0.024142
Si Si5 0.339239 0.818703 0.450287
O O1 0.696304 0.136122 0.221026
O O2 0.600344 0.181316 0.405660
O O3 0.632748 0.266775 0.183528
O O4 0.565653 0.155522 0.080965
O O5 0.755542 0.500000 0.250000
O O6 0.671559 0.410707 0.409542
O O7 0.679326 0.395018 0.118587
O O8 0.969834 0.062120 0.171209
O O9 0.072109 0.027697 0.393757
O O10 0.250000 0.790729 0.500000
#
# Coordination Sequence:
#
# PCOD9531420 Si02
#       5
#    16  16   8  16  16
#     4  11  23  39  68  98 138 172 216 265 340 403
#     4  11  23  38  65 105 138 167 217 273 334 404
#     4  10  26  44  64  90 128 174 222 276 332 368
#     4  11  23  43  66  91 127 174 218 269 330 390
#     4  10  21  39  61  99 141 181 202 260 337 413
#
# _framework density 26.228335999999999
#
# number of rings (size 3 to 8) (size 9 to 14) (size 15 to 20)
#    0.000    1.333    1.111    6.000    4.667    3.556 
#    0.000    0.000    0.000   16.000    0.000    0.000 
#    0.000    0.000    0.000    0.000    0.000    0.000 
#
# Total GULP energy -201339.675754 kJ/mol
# GULP energy per Si atom -5592.768771 kJ/mol
# Density = 2.616864 g / cm^3
# Si number density = 26.228336 Si / 1000 Ang^3
#
#
#
# Elastic Constant Matrix: (Units=GPa)
#
#
# Indices 1 2 3 4 5 6 
#
# 1 49.5957 28.1919 50.9238 0.0000 0.0000 0.0000
# 2 28.1919 121.3263 29.1953 0.0000 0.0000 0.0000
# 3 50.9238 29.1953 171.2901 0.0000 0.0000 0.0000
# 4 0.0000 0.0000 0.0000 40.9489 0.0000 0.0000
# 5 0.0000 0.0000 0.0000 0.0000 33.8295 0.0000
# 6 0.0000 0.0000 0.0000 0.0000 0.0000 15.8665
#
#
#
# Elastic Compliance Matrix: (Units=1/GPa)
#
#
# Indices 1 2 3 4 5 6 
#
# 1 0.032068 -0.005378 -0.008617 0.000000 0.000000 0.000000
# 2 -0.005378 0.009497 -0.000020 0.000000 0.000000 0.000000
# 3 -0.008617 -0.000020 0.008403 0.000000 0.000000 0.000000
# 4 0.000000 0.000000 0.000000 0.024421 0.000000 0.000000
# 5 0.000000 0.000000 0.000000 0.000000 0.029560 0.000000
# 6 0.000000 0.000000 0.000000 0.000000 0.000000 0.063026
#
#
# Mechanical properties :
#
#
# Convention : Reuss Voigt Hill
#
# Bulk Modulus (GPa) = 45.58247 62.09268 53.83758
# Shear Modulus (GPa) = 24.71381 33.72239 29.21810
#
# Velocity S-wave (km/s) = 3.07295 3.58959 3.34127
# Velocity P-wave (km/s) = 5.47791 6.39574 5.95454
#
# Compressibility (1/GPa) = 0.02193826
#
# Stress axis : x y z
#
# Youngs Moduli (GPa) = 31.18406 105.30060 119.00212
#
# Poissons Ratio (x) = 0.56629 1.02544
# Poissons Ratio (y) = 0.16770 0.00236
# Poissons Ratio (z) = 0.26871 0.00209
#
# Static dielectric constant tensor:
#      x y z
#    x 2.135750 0.000000 0.000000 
#    y 0.000000 2.033980 0.000000 
#    z 0.000000 0.000000 2.113230 
# 
# From -- ./inp_files/6001.got.cif
#   From: 2010.05.17/outbox.cif.g08.bks.cpg/sg73_4_cif.got.tgz:6001.got - 2010.06.03 17:35:07.
