data_PCOD9531058
_publ_section_title
;
Structure prediction by ZEFSAII (Michael W. Deem and Ramdas Pophale) SiO2 
 PCOD9531058
Probable space group: I B C A 
;
_chemical_formula_sum "Si O2"
_cell_formula_units_Z 120
_cell_length_a 25.044356
_cell_length_b 16.090245
_cell_length_c 15.943534
_cell_angle_alpha 90.000000
_cell_angle_beta 90.000000
_cell_angle_gamma 90.000000
_cell_volume 6424.763088
_symmetry_space_group_name_H-M "I B C A "
_symmetry_group_IT_number 73
_symmetry_cell_setting 'orthorhombic'
loop_
_space_group_symop_operation_xyz
x,y,z
-x,1/2-y,z
x,-y,1/2-z
1/2-x,y,-z
-x,-y,-z
x,1/2+y,-z
-x,y,1/2+z
1/2+x,-y,z
1/2+x,1/2+y,1/2+z
1/2-x,-y,1/2+z
1/2+x,1/2-y,-z
-x,1/2+y,1/2-z
1/2-x,1/2-y,1/2-z
1/2+x,y,1/2-z
1/2-x,1/2+y,z
x,1/2-y,1/2+z
loop_
_atom_site_type_symbol
_atom_site_label
_atom_site_fract_x
_atom_site_fract_y
_atom_site_fract_z
Si Si1 0.864470 0.363192 0.594553
Si Si2 0.159143 0.636507 0.138932
Si Si3 0.688128 0.517661 0.499144
Si Si4 0.836552 0.048673 0.832161
Si Si5 0.441057 0.904455 0.250717
Si Si6 0.500000 0.750000 0.828091
Si Si7 0.392065 0.199210 0.585031
Si Si8 0.266357 0.160158 0.285785
O O1 0.844684 0.448465 0.551807
O O2 0.909878 0.380794 0.664366
O O3 0.883607 0.308972 0.514938
O O4 0.812063 0.329287 0.643213
O O5 0.177162 0.600898 0.050656
O O6 0.104569 0.599100 0.176707
O O7 0.148217 0.733586 0.125230
O O8 0.203932 0.616566 0.207582
O O9 0.750000 0.494204 0.500000
O O10 0.672237 0.518540 0.595334
O O11 0.878898 0.112747 0.869847
O O12 0.782648 0.102851 0.815678
O O13 0.852862 0.000000 0.750000
O O14 0.482445 0.830718 0.273363
O O15 0.461360 0.000000 0.250000
O O16 0.450441 0.773002 0.887166
O O17 0.250000 0.250000 0.250000
#
# Coordination Sequence:
#
# PCOD9531058 Si02
#       8
#    16  16  16  16  16   8  16  16
#     4  10  22  37  64  90 126 167 208 255 312 380
#     4  10  21  37  59  86 124 170 207 248 311 376
#     4  11  20  35  57  91 124 167 208 241 295 371
#     4  11  23  38  58  90 133 166 201 256 307 371
#     4  10  20  41  69  91 120 162 215 265 326 388
#     4  10  24  44  68  92 118 166 216 282 334 372
#     4  10  23  43  61  87 127 159 212 276 316 373
#     4  11  21  36  58  91 131 168 206 243 308 379
#
# _framework density 18.677731000000001
#
# number of rings (size 3 to 8) (size 9 to 14) (size 15 to 20)
#    0.000    1.600    4.000    0.800    0.000    3.200 
#    0.000    0.667    0.000    0.000    0.000    0.000 
#    0.000    0.000    0.000    0.000    0.000    0.000 
#
# Total GULP energy -334665.527554 kJ/mol
# GULP energy per Si atom -5577.758793 kJ/mol
# Density = 1.863522 g / cm^3
# Si number density = 18.677731 Si / 1000 Ang^3
#
#
#
# Elastic Constant Matrix: (Units=GPa)
#
#
# Indices 1 2 3 4 5 6 
#
# 1 54.8907 20.2771 30.2244 0.0000 0.0000 0.0000
# 2 20.2771 65.3755 35.2755 0.0000 0.0000 0.0000
# 3 30.2244 35.2755 134.5581 0.0000 0.0000 0.0000
# 4 0.0000 0.0000 0.0000 30.5603 0.0000 0.0000
# 5 0.0000 0.0000 0.0000 0.0000 22.3445 0.0000
# 6 0.0000 0.0000 0.0000 0.0000 0.0000 15.0785
#
#
#
# Elastic Compliance Matrix: (Units=1/GPa)
#
#
# Indices 1 2 3 4 5 6 
#
# 1 0.022035 -0.004850 -0.003678 0.000000 0.000000 0.000000
# 2 -0.004850 0.018884 -0.003861 0.000000 0.000000 0.000000
# 3 -0.003678 -0.003861 0.009270 0.000000 0.000000 0.000000
# 4 0.000000 0.000000 0.000000 0.032722 0.000000 0.000000
# 5 0.000000 0.000000 0.000000 0.000000 0.044754 0.000000
# 6 0.000000 0.000000 0.000000 0.000000 0.000000 0.066319
#
#
# Mechanical properties :
#
#
# Convention : Reuss Voigt Hill
#
# Bulk Modulus (GPa) = 39.35336 47.37537 43.36437
# Shear Modulus (GPa) = 22.00389 24.86650 23.43520
#
# Velocity S-wave (km/s) = 3.43604 3.65272 3.54604
# Velocity P-wave (km/s) = 6.07102 6.57339 6.32719
#
# Compressibility (1/GPa) = 0.02541079
#
# Stress axis : x y z
#
# Youngs Moduli (GPa) = 45.38277 52.95511 107.87320
#
# Poissons Ratio (x) = 0.25682 0.39676
# Poissons Ratio (y) = 0.22010 0.41652
# Poissons Ratio (z) = 0.16692 0.20447
#
# Static dielectric constant tensor:
#      x y z
#    x 1.639430 0.000000 0.000000 
#    y 0.000000 1.643280 0.000000 
#    z 0.000000 0.000000 1.642700 
# 
# From -- ./inp_files/23660.got.cif
#   From: 2010.05.17/outbox.cif.g08.bks.cpg/sg73_12_cif.got.tgz:23660.got - 2010.06.03 17:35:07.
