data_PCOD9531675
_publ_section_title
;
Structure prediction by ZEFSAII (Michael W. Deem and Ramdas Pophale) SiO2 
 PCOD9531675
Probable space group: I B C A 
;
_chemical_formula_sum "Si O2"
_cell_formula_units_Z 80
_cell_length_a 26.132894
_cell_length_b 14.982498
_cell_length_c 9.478509
_cell_angle_alpha 90.000000
_cell_angle_beta 90.000000
_cell_angle_gamma 90.000000
_cell_volume 3711.177804
_symmetry_space_group_name_H-M "I B C A "
_symmetry_group_IT_number 73
_symmetry_cell_setting 'orthorhombic'
loop_
_space_group_symop_operation_xyz
x,y,z
-x,1/2-y,z
x,-y,1/2-z
1/2-x,y,-z
-x,-y,-z
x,1/2+y,-z
-x,y,1/2+z
1/2+x,-y,z
1/2+x,1/2+y,1/2+z
1/2-x,-y,1/2+z
1/2+x,1/2-y,-z
-x,1/2+y,1/2-z
1/2-x,1/2-y,1/2-z
1/2+x,y,1/2-z
1/2-x,1/2+y,z
x,1/2-y,1/2+z
loop_
_atom_site_type_symbol
_atom_site_label
_atom_site_fract_x
_atom_site_fract_y
_atom_site_fract_z
Si Si1 0.009296 0.144997 0.538718
Si Si2 0.901160 0.588216 0.169307
Si Si3 0.935660 0.906391 0.185443
Si Si4 0.192997 0.349112 0.965839
Si Si5 0.145275 0.261595 0.241931
O O1 0.059598 0.118717 0.450238
O O2 0.021212 0.125660 0.701606
O O3 0.000000 0.250000 0.519982
O O4 0.963250 0.091176 0.465230
O O5 0.916638 0.500000 0.250000
O O6 0.846028 0.575985 0.091819
O O7 0.890510 0.673301 0.271504
O O8 0.890174 0.835686 0.185499
O O9 0.917898 0.000000 0.250000
O O10 0.190160 0.273999 0.843396
O O11 0.250000 0.378429 0.000000
O O12 0.166935 0.302798 0.100282
#
# Coordination Sequence:
#
# PCOD9531675 Si02
#       5
#    16  16  16  16  16
#     4  12  23  42  65  94 134 178 223 271 333 400
#     4  10  23  41  67  95 135 173 216 277 338 393
#     4  12  25  41  63  98 131 176 223 275 331 401
#     4  10  21  42  70  95 129 171 222 271 340 398
#     4  10  22  42  66  94 133 174 218 277 334 399
#
# _framework density 21.5565
#
# number of rings (size 3 to 8) (size 9 to 14) (size 15 to 20)
#    1.200    0.000    4.000    2.400    0.000    1.600 
#    0.000    2.000    0.000    0.000    0.000    0.000 
#    0.000    0.000    0.000    0.000    0.000    0.000 
#
# Total GULP energy -223553.485142 kJ/mol
# GULP energy per Si atom -5588.837129 kJ/mol
# Density = 2.150744 g / cm^3
# Si number density = 21.556500 Si / 1000 Ang^3
#
#
#
# Elastic Constant Matrix: (Units=GPa)
#
#
# Indices 1 2 3 4 5 6 
#
# 1 58.7484 31.8875 16.3449 0.0000 0.0000 0.0000
# 2 31.8875 77.5446 -11.5466 0.0000 0.0000 0.0000
# 3 16.3449 -11.5466 73.2610 0.0000 0.0000 0.0000
# 4 0.0000 0.0000 0.0000 18.8417 0.0000 0.0000
# 5 0.0000 0.0000 0.0000 0.0000 30.8121 0.0000
# 6 0.0000 0.0000 0.0000 0.0000 0.0000 20.1364
#
#
#
# Elastic Compliance Matrix: (Units=1/GPa)
#
#
# Indices 1 2 3 4 5 6 
#
# 1 0.025370 -0.011546 -0.007480 0.000000 0.000000 0.000000
# 2 -0.011546 0.018461 0.005486 0.000000 0.000000 0.000000
# 3 -0.007480 0.005486 0.016183 0.000000 0.000000 0.000000
# 4 0.000000 0.000000 0.000000 0.053074 0.000000 0.000000
# 5 0.000000 0.000000 0.000000 0.000000 0.032455 0.000000
# 6 0.000000 0.000000 0.000000 0.000000 0.000000 0.049661
#
#
# Mechanical properties :
#
#
# Convention : Reuss Voigt Hill
#
# Bulk Modulus (GPa) = 30.36515 31.43618 30.90066
# Shear Modulus (GPa) = 21.43511 25.48260 23.45886
#
# Velocity S-wave (km/s) = 3.15678 3.44194 3.30244
# Velocity P-wave (km/s) = 5.23488 5.51460 5.37656
#
# Compressibility (1/GPa) = 0.03293249
#
# Stress axis : x y z
#
# Youngs Moduli (GPa) = 39.41682 54.16941 61.79246
#
# Poissons Ratio (x) = 0.62545 0.46220
# Poissons Ratio (y) = 0.45512 -0.33897
# Poissons Ratio (z) = 0.29483 -0.29715
#
# Static dielectric constant tensor:
#      x y z
#    x 1.793190 0.000000 0.000000 
#    y 0.000000 1.763770 0.000000 
#    z 0.000000 0.000000 1.785100 
# 
# From -- ./inp_files/14172.got.cif
#   From: 2010.05.17/outbox.cif.g08.bks.cpg/sg73_8_cif.got.tgz:14172.got - 2010.06.03 17:35:07.
