data_PCOD9531419
_publ_section_title
;
Structure prediction by ZEFSAII (Michael W. Deem and Ramdas Pophale) SiO2 
 PCOD9531419
Probable space group: I B C A 
;
_chemical_formula_sum "Si O2"
_cell_formula_units_Z 88
_cell_length_a 22.005881
_cell_length_b 10.960408
_cell_length_c 17.910760
_cell_angle_alpha 90.000000
_cell_angle_beta 90.000000
_cell_angle_gamma 90.000000
_cell_volume 4319.957713
_symmetry_space_group_name_H-M "I B C A "
_symmetry_group_IT_number 73
_symmetry_cell_setting 'orthorhombic'
loop_
_space_group_symop_operation_xyz
x,y,z
-x,1/2-y,z
x,-y,1/2-z
1/2-x,y,-z
-x,-y,-z
x,1/2+y,-z
-x,y,1/2+z
1/2+x,-y,z
1/2+x,1/2+y,1/2+z
1/2-x,-y,1/2+z
1/2+x,1/2-y,-z
-x,1/2+y,1/2-z
1/2-x,1/2-y,1/2-z
1/2+x,y,1/2-z
1/2-x,1/2+y,z
x,1/2-y,1/2+z
loop_
_atom_site_type_symbol
_atom_site_label
_atom_site_fract_x
_atom_site_fract_y
_atom_site_fract_z
Si Si1 0.899469 0.888194 0.796000
Si Si2 0.201054 0.509496 0.158031
Si Si3 0.279201 0.259104 0.331616
Si Si4 0.000000 0.250000 0.801684
Si Si5 0.026732 0.876474 0.431916
Si Si6 0.427602 0.578008 0.914857
O O1 0.849573 0.790539 0.819454
O O2 0.929832 0.937262 0.871151
O O3 0.952220 0.826938 0.747045
O O4 0.870811 0.000000 0.750000
O O5 0.194285 0.500000 0.250000
O O6 0.245828 0.621068 0.136339
O O7 0.225242 0.375752 0.133595
O O8 0.137071 0.539958 0.118500
O O9 0.250000 0.250000 0.250000
O O10 0.038207 0.157746 0.852904
O O11 0.065770 0.850906 0.506463
O O12 0.000000 0.750000 0.402886
O O13 0.967436 0.960305 0.436825
#
# Coordination Sequence:
#
# PCOD9531419 Si02
#       6
#    16  16  16   8  16  16
#     4  12  23  36  64  95 126 166 217 268 319 389
#     4  10  21  39  66  90 125 166 214 263 316 379
#     4  10  21  39  61  93 125 161 210 268 319 367
#     4  12  22  36  62  98 126 162 214 258 320 390
#     4  11  23  41  59  90 135 166 206 257 328 387
#     4  11  24  40  60  92 130 169 202 262 327 386
#
# _framework density 20.370570000000001
#
# number of rings (size 3 to 8) (size 9 to 14) (size 15 to 20)
#    0.000    1.091    3.636    4.909    2.545    0.000 
#    0.000    0.909    0.000    4.364    0.000    0.000 
#    0.000    0.000    0.000    0.000    0.000    0.000 
#
# Total GULP energy -245414.424540 kJ/mol
# GULP energy per Si atom -5577.600558 kJ/mol
# Density = 2.032421 g / cm^3
# Si number density = 20.370570 Si / 1000 Ang^3
#
#
#
# Elastic Constant Matrix: (Units=GPa)
#
#
# Indices 1 2 3 4 5 6 
#
# 1 87.6081 41.6584 30.4641 0.0000 0.0000 0.0000
# 2 41.6584 127.7557 7.5199 0.0000 0.0000 0.0000
# 3 30.4641 7.5199 66.5183 0.0000 0.0000 0.0000
# 4 0.0000 0.0000 0.0000 16.9284 0.0000 0.0000
# 5 0.0000 0.0000 0.0000 0.0000 14.6584 0.0000
# 6 0.0000 0.0000 0.0000 0.0000 0.0000 38.9235
#
#
#
# Elastic Compliance Matrix: (Units=1/GPa)
#
#
# Indices 1 2 3 4 5 6 
#
# 1 0.016090 -0.004845 -0.006821 0.000000 0.000000 0.000000
# 2 -0.004845 0.009339 0.001163 0.000000 0.000000 0.000000
# 3 -0.006821 0.001163 0.018026 0.000000 0.000000 0.000000
# 4 0.000000 0.000000 0.000000 0.059072 0.000000 0.000000
# 5 0.000000 0.000000 0.000000 0.000000 0.068220 0.000000
# 6 0.000000 0.000000 0.000000 0.000000 0.000000 0.025691
#
#
# Mechanical properties :
#
#
# Convention : Reuss Voigt Hill
#
# Bulk Modulus (GPa) = 44.54607 49.01857 46.78232
# Shear Modulus (GPa) = 22.22923 27.58470 24.90697
#
# Velocity S-wave (km/s) = 3.30698 3.68386 3.50050
# Velocity P-wave (km/s) = 6.04126 6.49693 6.27323
#
# Compressibility (1/GPa) = 0.02244867
#
# Stress axis : x y z
#
# Youngs Moduli (GPa) = 62.14881 107.07908 55.47538
#
# Poissons Ratio (x) = 0.51882 0.37842
# Poissons Ratio (y) = 0.30112 -0.06453
# Poissons Ratio (z) = 0.42394 -0.12456
#
# Static dielectric constant tensor:
#      x y z
#    x 1.620510 0.000000 0.000000 
#    y 0.000000 1.746890 0.000000 
#    z 0.000000 0.000000 1.729870 
# 
# From -- ./inp_files/11864.got.cif
#   From: 2010.05.17/outbox.cif.g08.bks.cpg/sg73_6_cif.got.tgz:11864.got - 2010.06.03 17:35:07.
