data_PCOD9531643
_publ_section_title
;
Structure prediction by ZEFSAII (Michael W. Deem and Ramdas Pophale) SiO2 
 PCOD9531643
Probable space group: I B C A 
;
_chemical_formula_sum "Si O2"
_cell_formula_units_Z 72
_cell_length_a 20.534147
_cell_length_b 14.135723
_cell_length_c 12.923302
_cell_angle_alpha 90.000000
_cell_angle_beta 90.000000
_cell_angle_gamma 90.000000
_cell_volume 3751.182436
_symmetry_space_group_name_H-M "I B C A "
_symmetry_group_IT_number 73
_symmetry_cell_setting 'orthorhombic'
loop_
_space_group_symop_operation_xyz
x,y,z
-x,1/2-y,z
x,-y,1/2-z
1/2-x,y,-z
-x,-y,-z
x,1/2+y,-z
-x,y,1/2+z
1/2+x,-y,z
1/2+x,1/2+y,1/2+z
1/2-x,-y,1/2+z
1/2+x,1/2-y,-z
-x,1/2+y,1/2-z
1/2-x,1/2-y,1/2-z
1/2+x,y,1/2-z
1/2-x,1/2+y,z
x,1/2-y,1/2+z
loop_
_atom_site_type_symbol
_atom_site_label
_atom_site_fract_x
_atom_site_fract_y
_atom_site_fract_z
Si Si1 0.311996 0.489035 0.371326
Si Si2 0.801800 0.715272 0.335597
Si Si3 0.250000 0.848441 0.000000
Si Si4 0.549596 0.503444 0.908335
Si Si5 0.447050 0.333491 0.252428
O O1 0.331381 0.500000 0.250000
O O2 0.277634 0.388363 0.372574
O O3 0.276265 0.580633 0.412195
O O4 0.376488 0.481373 0.439936
O O5 0.750000 0.750000 0.250000
O O6 0.799902 0.782579 0.436299
O O7 0.874653 0.703109 0.286704
O O8 0.553341 0.606481 0.854145
O O9 0.532857 0.416773 0.831905
O O10 0.500000 0.500000 0.000000
O O11 0.500000 0.250000 0.250718
#
# Coordination Sequence:
#
# PCOD9531643 Si02
#       5
#    16  16   8  16  16
#     4  11  21  45  63  92 140 167 213 289 325 389
#     4  11  22  44  68  93 137 175 219 275 338 398
#     4  12  24  38  72  98 122 182 224 256 346 418
#     4  10  21  42  64  85 128 174 207 261 339 383
#     4  10  22  42  62  94 130 164 215 281 320 384
#
# _framework density 19.193947000000001
#
# number of rings (size 3 to 8) (size 9 to 14) (size 15 to 20)
#    0.000    1.333    6.667    0.667    3.111    0.889 
#   16.000    0.000    0.000    0.000    0.000    0.000 
#    0.000    0.000    0.000    0.000    0.000    0.000 
#
# Total GULP energy -200524.010247 kJ/mol
# GULP energy per Si atom -5570.111396 kJ/mol
# Density = 1.915026 g / cm^3
# Si number density = 19.193947 Si / 1000 Ang^3
#
#
#
# Elastic Constant Matrix: (Units=GPa)
#
#
# Indices 1 2 3 4 5 6 
#
# 1 89.7159 58.8986 58.4326 0.0000 0.0000 0.0000
# 2 58.8986 157.4237 45.2810 0.0000 0.0000 0.0000
# 3 58.4326 45.2810 86.0311 0.0000 0.0000 0.0000
# 4 0.0000 0.0000 0.0000 21.2118 0.0000 0.0000
# 5 0.0000 0.0000 0.0000 0.0000 38.6391 0.0000
# 6 0.0000 0.0000 0.0000 0.0000 0.0000 36.9102
#
#
#
# Elastic Compliance Matrix: (Units=1/GPa)
#
#
# Indices 1 2 3 4 5 6 
#
# 1 0.022676 -0.004777 -0.012887 0.000000 0.000000 0.000000
# 2 -0.004777 0.008492 -0.001225 0.000000 0.000000 0.000000
# 3 -0.012887 -0.001225 0.021022 0.000000 0.000000 0.000000
# 4 0.000000 0.000000 0.000000 0.047144 0.000000 0.000000
# 5 0.000000 0.000000 0.000000 0.000000 0.025881 0.000000
# 6 0.000000 0.000000 0.000000 0.000000 0.000000 0.027093
#
#
# Mechanical properties :
#
#
# Convention : Reuss Voigt Hill
#
# Bulk Modulus (GPa) = 69.39250 73.15502 71.27376
# Shear Modulus (GPa) = 25.65562 30.72277 28.18919
#
# Velocity S-wave (km/s) = 3.65999 4.00515 3.83645
# Velocity P-wave (km/s) = 7.35476 7.71911 7.53914
#
# Compressibility (1/GPa) = 0.01441078
#
# Stress axis : x y z
#
# Youngs Moduli (GPa) = 44.09922 117.75859 47.57028
#
# Poissons Ratio (x) = 0.56255 0.61305
# Poissons Ratio (y) = 0.21067 0.05827
# Poissons Ratio (z) = 0.56832 0.14424
#
# Static dielectric constant tensor:
#      x y z
#    x 1.675770 0.000000 0.000000 
#    y 0.000000 1.710710 0.000000 
#    z 0.000000 0.000000 1.706570 
# 
# From -- ./inp_files/17744.got.cif
#   From: 2010.05.17/outbox.cif.g08.bks.cpg/sg73_9_cif.got.tgz:17744.got - 2010.06.03 17:35:07.
