data_PCOD9531644
_publ_section_title
;
Structure prediction by ZEFSAII (Michael W. Deem and Ramdas Pophale) SiO2 
 PCOD9531644
Probable space group: I B C A 
;
_chemical_formula_sum "Si O2"
_cell_formula_units_Z 88
_cell_length_a 10.465105
_cell_length_b 30.143866
_cell_length_c 11.381046
_cell_angle_alpha 90.000000
_cell_angle_beta 90.000000
_cell_angle_gamma 90.000000
_cell_volume 3590.250235
_symmetry_space_group_name_H-M "I B C A "
_symmetry_group_IT_number 73
_symmetry_cell_setting 'orthorhombic'
loop_
_space_group_symop_operation_xyz
x,y,z
-x,1/2-y,z
x,-y,1/2-z
1/2-x,y,-z
-x,-y,-z
x,1/2+y,-z
-x,y,1/2+z
1/2+x,-y,z
1/2+x,1/2+y,1/2+z
1/2-x,-y,1/2+z
1/2+x,1/2-y,-z
-x,1/2+y,1/2-z
1/2-x,1/2-y,1/2-z
1/2+x,y,1/2-z
1/2-x,1/2+y,z
x,1/2-y,1/2+z
loop_
_atom_site_type_symbol
_atom_site_label
_atom_site_fract_x
_atom_site_fract_y
_atom_site_fract_z
Si Si1 0.367329 0.846269 0.723951
Si Si2 0.120494 0.829465 0.855466
Si Si3 0.878240 0.430821 0.571285
Si Si4 0.500000 0.250000 0.506155
Si Si5 0.649848 0.434838 0.906498
Si Si6 0.792844 0.500000 0.750000
Si Si7 0.750000 0.202797 0.500000
O O1 0.266666 0.828127 0.816711
O O2 0.513721 0.833661 0.747506
O O3 0.362388 0.898944 0.699025
O O4 0.319742 0.824738 0.601828
O O5 0.111031 0.877595 0.916321
O O6 0.070254 0.788226 0.929153
O O7 0.750000 0.439406 0.500000
O O8 0.869260 0.459216 0.691816
O O9 0.017978 0.443360 0.525289
O O10 0.629868 0.228918 0.560353
O O11 0.705524 0.478933 0.850478
O O12 0.750000 0.416943 0.000000
#
# Coordination Sequence:
#
# PCOD9531644 Si02
#       7
#    16  16  16   8  16   8   8
#     4  10  21  42  64  93 126 171 215 267 332 390
#     4  10  23  42  65  96 132 171 222 274 338 404
#     4  11  26  44  68 102 136 180 228 281 342 403
#     4  10  24  40  64 100 130 168 222 274 336 406
#     4  11  24  43  68  96 134 174 224 278 329 403
#     4  12  24  44  70 100 132 180 230 280 336 400
#     4  10  22  40  64  94 124 166 216 268 332 400
#
# _framework density 24.510825000000001
#
# number of rings (size 3 to 8) (size 9 to 14) (size 15 to 20)
#    0.000    1.455    2.727    1.091    1.273   10.909 
#    0.000    0.000    0.000    0.000    0.000    0.000 
#    0.000    0.000    0.000    0.000    0.000    0.000 
#
# Total GULP energy -245638.181458 kJ/mol
# GULP energy per Si atom -5582.685942 kJ/mol
# Density = 2.445504 g / cm^3
# Si number density = 24.510825 Si / 1000 Ang^3
#
#
#
# Elastic Constant Matrix: (Units=GPa)
#
#
# Indices 1 2 3 4 5 6 
#
# 1 169.1219 23.9849 14.5176 0.0000 0.0000 -0.0001
# 2 23.9849 133.8553 23.6870 -0.0001 0.0001 0.0000
# 3 14.5176 23.6870 19.1951 -0.0004 0.0008 0.0010
# 4 0.0000 -0.0001 -0.0004 26.0292 0.0001 0.0002
# 5 0.0000 0.0001 0.0008 0.0001 35.0813 0.0000
# 6 -0.0001 0.0000 0.0010 0.0002 0.0000 47.4805
#
#
#
# Elastic Compliance Matrix: (Units=1/GPa)
#
#
# Indices 1 2 3 4 5 6 
#
# 1 0.006338 -0.000368 -0.004339 0.000000 0.000000 0.000000
# 2 -0.000368 0.009579 -0.011543 0.000000 0.000000 0.000000
# 3 -0.004339 -0.011543 0.069623 0.000001 -0.000002 -0.000001
# 4 0.000000 0.000000 0.000001 0.038418 0.000000 0.000000
# 5 0.000000 0.000000 -0.000002 0.000000 0.028505 0.000000
# 6 0.000000 0.000000 -0.000001 0.000000 0.000000 0.021061
#
#
# Mechanical properties :
#
#
# Convention : Reuss Voigt Hill
#
# Bulk Modulus (GPa) = 18.85384 49.61683 34.23534
# Shear Modulus (GPa) = 22.35089 39.05037 30.70063
#
# Velocity S-wave (km/s) = 3.02301 3.99581 3.54295
# Velocity P-wave (km/s) = 4.46022 6.44790 5.54387
#
# Compressibility (1/GPa) = 0.05303958
#
# Stress axis : x y z
#
# Youngs Moduli (GPa) = 157.78980 104.39210 14.36309
#
# Poissons Ratio (x) = 0.03838 0.06233
# Poissons Ratio (y) = 0.05802 0.16579
# Poissons Ratio (z) = 0.68473 1.20499
#
# Static dielectric constant tensor:
#      x y z
#    x 2.023040 0.000000 0.000000 
#    y 0.000000 2.041330 0.000000 
#    z 0.000000 0.000000 1.993740 
# 
# From -- ./inp_files/9934.got.cif
#   From: 2010.05.17/outbox.cif.g08.bks.cpg/sg73_5_cif.got.tgz:9934.got - 2010.06.03 17:35:07.
