data_PCOD9531677
_publ_section_title
;
Structure prediction by ZEFSAII (Michael W. Deem and Ramdas Pophale) SiO2 
 PCOD9531677
Probable space group: I B C A 
;
_chemical_formula_sum "Si O2"
_cell_formula_units_Z 112
_cell_length_a 10.512677
_cell_length_b 15.829932
_cell_length_c 29.243800
_cell_angle_alpha 90.000000
_cell_angle_beta 90.000000
_cell_angle_gamma 90.000000
_cell_volume 4866.605867
_symmetry_space_group_name_H-M "I B C A "
_symmetry_group_IT_number 73
_symmetry_cell_setting 'orthorhombic'
loop_
_space_group_symop_operation_xyz
x,y,z
-x,1/2-y,z
x,-y,1/2-z
1/2-x,y,-z
-x,-y,-z
x,1/2+y,-z
-x,y,1/2+z
1/2+x,-y,z
1/2+x,1/2+y,1/2+z
1/2-x,-y,1/2+z
1/2+x,1/2-y,-z
-x,1/2+y,1/2-z
1/2-x,1/2-y,1/2-z
1/2+x,y,1/2-z
1/2-x,1/2+y,z
x,1/2-y,1/2+z
loop_
_atom_site_type_symbol
_atom_site_label
_atom_site_fract_x
_atom_site_fract_y
_atom_site_fract_z
Si Si1 0.327280 0.500000 0.750000
Si Si2 0.895425 0.310631 0.864511
Si Si3 0.291345 0.673319 0.217983
Si Si4 0.966145 0.020443 0.895614
Si Si5 0.740158 0.307348 0.948221
Si Si6 0.000000 0.250000 0.608455
Si Si7 0.718175 0.009853 0.949107
Si Si8 0.479242 0.607134 0.676539
O O1 0.250028 0.581681 0.764746
O O2 0.400636 0.539853 0.706242
O O3 0.776640 0.316208 0.830875
O O4 0.961705 0.400216 0.873631
O O5 0.847895 0.275413 0.913333
O O6 0.000000 0.250000 0.843118
O O7 0.250000 0.750000 0.250000
O O8 0.440641 0.662169 0.211907
O O9 0.073296 0.980848 0.930562
O O10 0.831655 0.045100 0.917597
O O11 0.937444 0.952206 0.856563
O O12 0.606715 0.288494 0.924374
O O13 0.758854 0.408631 0.949485
O O14 0.750000 0.275176 0.000000
O O15 0.067450 0.178759 0.640726
O O16 0.750000 0.041400 0.000000
#
# Coordination Sequence:
#
# PCOD9531677 Si02
#       8
#     8  16  16  16  16   8  16  16
#     4  12  28  44  78 106 140 196 250 316 382 466
#     4  11  25  45  67 102 145 189 234 306 374 440
#     4  12  27  49  72 107 151 191 248 313 384 456
#     4  11  22  44  71  99 149 190 244 303 372 440
#     4  10  23  43  67 101 147 190 238 306 360 430
#     4  12  22  44  74  98 146 194 248 296 370 450
#     4  10  21  42  71 106 145 192 247 307 370 438
#     4  12  25  46  69 104 139 188 246 303 370 450
#
# _framework density 23.013985999999999
#
# number of rings (size 3 to 8) (size 9 to 14) (size 15 to 20)
#    0.000    0.857    4.286    2.571    3.000    2.286 
#    0.000    1.429    0.000    0.000    0.000    0.000 
#    0.000    0.000    0.000    0.000    0.000    0.000 
#
# Total GULP energy -312800.114400 kJ/mol
# GULP energy per Si atom -5585.716329 kJ/mol
# Density = 2.296161 g / cm^3
# Si number density = 23.013986 Si / 1000 Ang^3
#
#
#
# Elastic Constant Matrix: (Units=GPa)
#
#
# Indices 1 2 3 4 5 6 
#
# 1 61.6647 19.8229 9.7258 0.0000 0.0000 0.0000
# 2 19.8229 101.2433 39.5112 0.0000 0.0000 0.0000
# 3 9.7258 39.5112 101.0263 0.0000 0.0000 0.0000
# 4 0.0000 0.0000 0.0000 25.5107 0.0000 0.0000
# 5 0.0000 0.0000 0.0000 0.0000 26.3871 0.0000
# 6 0.0000 0.0000 0.0000 0.0000 0.0000 43.3444
#
#
#
# Elastic Compliance Matrix: (Units=1/GPa)
#
#
# Indices 1 2 3 4 5 6 
#
# 1 0.017320 -0.003234 -0.000403 0.000000 0.000000 0.000000
# 2 -0.003234 0.012260 -0.004484 0.000000 0.000000 0.000000
# 3 -0.000403 -0.004484 0.011691 0.000000 0.000000 0.000000
# 4 0.000000 0.000000 0.000000 0.039199 0.000000 0.000000
# 5 0.000000 0.000000 0.000000 0.000000 0.037897 0.000000
# 6 0.000000 0.000000 0.000000 0.000000 0.000000 0.023071
#
#
# Mechanical properties :
#
#
# Convention : Reuss Voigt Hill
#
# Bulk Modulus (GPa) = 39.95149 44.67267 42.31208
# Shear Modulus (GPa) = 30.11647 32.04006 31.07827
#
# Velocity S-wave (km/s) = 3.62140 3.73527 3.67878
# Velocity P-wave (km/s) = 5.90622 6.16897 6.03902
#
# Compressibility (1/GPa) = 0.02503035
#
# Stress axis : x y z
#
# Youngs Moduli (GPa) = 57.73720 81.56487 85.53814
#
# Poissons Ratio (x) = 0.26378 0.03443
# Poissons Ratio (y) = 0.18672 0.38352
# Poissons Ratio (z) = 0.02324 0.36570
#
# Static dielectric constant tensor:
#      x y z
#    x 1.921410 0.000000 0.000000 
#    y 0.000000 1.789300 0.000000 
#    z 0.000000 0.000000 1.911960 
# 
# From -- ./inp_files/34059.got.cif
#   From: 2010.05.17/outbox.cif.g08.bks.cpg/sg73_18_cif.got.tgz:34059.got - 2010.06.03 17:35:07.
