data_PCOD9531471
_publ_section_title
;
Structure prediction by ZEFSAII (Michael W. Deem and Ramdas Pophale) SiO2 
 PCOD9531471
Probable space group: I B C A 
;
_chemical_formula_sum "Si O2"
_cell_formula_units_Z 80
_cell_length_a 5.027334
_cell_length_b 30.727917
_cell_length_c 25.468999
_cell_angle_alpha 90.000000
_cell_angle_beta 90.000000
_cell_angle_gamma 90.000000
_cell_volume 3934.438279
_symmetry_space_group_name_H-M "I B C A "
_symmetry_group_IT_number 73
_symmetry_cell_setting 'orthorhombic'
loop_
_space_group_symop_operation_xyz
x,y,z
-x,1/2-y,z
x,-y,1/2-z
1/2-x,y,-z
-x,-y,-z
x,1/2+y,-z
-x,y,1/2+z
1/2+x,-y,z
1/2+x,1/2+y,1/2+z
1/2-x,-y,1/2+z
1/2+x,1/2-y,-z
-x,1/2+y,1/2-z
1/2-x,1/2-y,1/2-z
1/2+x,y,1/2-z
1/2-x,1/2+y,z
x,1/2-y,1/2+z
loop_
_atom_site_type_symbol
_atom_site_label
_atom_site_fract_x
_atom_site_fract_y
_atom_site_fract_z
Si Si1 0.103015 0.882493 0.106463
Si Si2 0.000000 0.250000 0.608183
Si Si3 0.772147 0.471587 0.561503
Si Si4 0.604574 0.341168 0.944201
Si Si5 0.505754 0.846925 0.280057
Si Si6 0.000000 0.750000 0.183469
O O1 0.173745 0.932783 0.098202
O O2 0.308763 0.858986 0.066472
O O3 0.124168 0.864899 0.165618
O O4 0.802813 0.869572 0.091583
O O5 0.083200 0.291277 0.573758
O O6 0.248527 0.241910 0.646028
O O7 0.750000 0.457847 0.500000
O O8 0.572197 0.512182 0.569004
O O9 0.750000 0.343821 0.000000
O O10 0.208424 0.860862 0.265569
O O11 0.478766 0.794427 0.284198
#
# Coordination Sequence:
#
# PCOD9531471 Si02
#       6
#    16   8  16  16  16   8
#     4  12  24  43  64  93 130 162 214 269 317 381
#     4  12  22  40  58  86 130 170 208 260 306 374
#     4  10  21  39  66  97 126 159 201 252 320 394
#     4  12  24  39  62  89 128 175 211 251 313 382
#     4  12  24  41  65  91 122 169 218 276 325 367
#     4  12  22  42  62  86 124 168 220 278 320 354
#
# _framework density 20.333271
#
# number of rings (size 3 to 8) (size 9 to 14) (size 15 to 20)
#    0.000    0.400    4.000    6.000    0.000    4.000 
#    0.000    0.000    0.000    3.600    0.000    0.000 
#    0.000    0.000    0.000    0.000    0.000    0.000 
#
# Total GULP energy -223531.779368 kJ/mol
# GULP energy per Si atom -5588.294484 kJ/mol
# Density = 2.028699 g / cm^3
# Si number density = 20.333271 Si / 1000 Ang^3
#
#
#
# Elastic Constant Matrix: (Units=GPa)
#
#
# Indices 1 2 3 4 5 6 
#
# 1 85.6033 -6.6646 20.4772 0.0000 0.0000 0.0000
# 2 -6.6646 63.6608 14.0966 0.0000 0.0000 0.0000
# 3 20.4772 14.0966 69.6018 0.0000 0.0000 0.0000
# 4 0.0000 0.0000 0.0000 23.2954 0.0000 0.0000
# 5 0.0000 0.0000 0.0000 0.0000 -19.5220 0.0000
# 6 0.0000 0.0000 0.0000 0.0000 0.0000 25.4457
#
#
#
# Elastic Compliance Matrix: (Units=1/GPa)
#
#
# Indices 1 2 3 4 5 6 
#
# 1 0.012877 0.002290 -0.004252 0.000000 0.000000 0.000000
# 2 0.002290 0.016853 -0.004087 0.000000 0.000000 0.000000
# 3 -0.004252 -0.004087 0.016446 0.000000 0.000000 0.000000
# 4 0.000000 0.000000 0.000000 0.042927 0.000000 0.000000
# 5 0.000000 0.000000 0.000000 0.000000 -0.051224 0.000000
# 6 0.000000 0.000000 0.000000 0.000000 0.000000 0.039299
#
#
# Mechanical properties :
#
#
# Convention : Reuss Voigt Hill
#
# Bulk Modulus (GPa) = 29.34493 30.52047 29.93270
# Shear Modulus (GPa) = 49.68368 18.57426 34.12897
#
# Velocity S-wave (km/s) = 4.94851 3.02568 4.10137
# Velocity P-wave (km/s) = 6.86393 5.22006 6.09765
#
# Compressibility (1/GPa) = 0.03407744
#
# Stress axis : x y z
#
# Youngs Moduli (GPa) = 77.65631 59.33679 60.80421
#
# Poissons Ratio (x) = -0.13586 0.25856
# Poissons Ratio (y) = -0.17781 0.24850
# Poissons Ratio (z) = 0.33022 0.24250
#
# Static dielectric constant tensor:
#      x y z
#    x 1.706520 0.000000 0.000000 
#    y 0.000000 1.721670 0.000000 
#    z 0.000000 0.000000 1.740490 
# 
# From -- ./inp_files/30931.got.cif
#   From: 2010.05.17/outbox.cif.g08.bks.cpg/sg73_16_cif.got.tgz:30931.got - 2010.06.03 17:35:07.
