data_PCOD9531542
_publ_section_title
;
Structure prediction by ZEFSAII (Michael W. Deem and Ramdas Pophale) SiO2 
 PCOD9531542
Probable space group: I B C A 
;
_chemical_formula_sum "Si O2"
_cell_formula_units_Z 104
_cell_length_a 19.142937
_cell_length_b 14.181829
_cell_length_c 18.187355
_cell_angle_alpha 90.000000
_cell_angle_beta 90.000000
_cell_angle_gamma 90.000000
_cell_volume 4937.536947
_symmetry_space_group_name_H-M "I B C A "
_symmetry_group_IT_number 73
_symmetry_cell_setting 'orthorhombic'
loop_
_space_group_symop_operation_xyz
x,y,z
-x,1/2-y,z
x,-y,1/2-z
1/2-x,y,-z
-x,-y,-z
x,1/2+y,-z
-x,y,1/2+z
1/2+x,-y,z
1/2+x,1/2+y,1/2+z
1/2-x,-y,1/2+z
1/2+x,1/2-y,-z
-x,1/2+y,1/2-z
1/2-x,1/2-y,1/2-z
1/2+x,y,1/2-z
1/2-x,1/2+y,z
x,1/2-y,1/2+z
loop_
_atom_site_type_symbol
_atom_site_label
_atom_site_fract_x
_atom_site_fract_y
_atom_site_fract_z
Si Si1 0.266869 0.159279 0.915324
Si Si2 0.847237 0.818058 0.343072
Si Si3 0.274859 0.565348 0.416377
Si Si4 0.563384 0.480427 0.393393
Si Si5 0.000000 0.250000 0.916317
Si Si6 0.570865 0.065009 0.055780
Si Si7 0.127226 0.835823 0.672457
O O1 0.330867 0.220327 0.884176
O O2 0.198171 0.185396 0.870080
O O3 0.275353 0.047354 0.906726
O O4 0.250000 0.180247 0.000000
O O5 0.779648 0.883079 0.363280
O O6 0.913449 0.876226 0.372430
O O7 0.858948 0.810861 0.256563
O O8 0.250000 0.585884 0.500000
O O9 0.355679 0.592975 0.409429
O O10 0.481289 0.504495 0.393352
O O11 0.584943 0.490349 0.479650
O O12 0.605209 0.554852 0.343078
O O13 0.026851 0.340247 0.960959
O O14 0.063332 0.218896 0.864329
#
# Coordination Sequence:
#
# PCOD9531542 Si02
#       7
#    16  16  16  16   8  16  16
#     4  11  24  39  67 101 132 169 230 286 330 400
#     4  12  23  40  69  95 135 182 221 273 344 408
#     4  11  21  41  68 100 137 171 224 287 340 395
#     4  10  21  40  66  92 129 176 219 271 335 398
#     4  10  24  42  70  90 138 178 226 272 342 408
#     4  10  21  42  66 100 128 175 229 279 334 396
#     4  11  23  45  65  94 137 181 213 278 349 402
#
# _framework density 21.063134999999999
#
# number of rings (size 3 to 8) (size 9 to 14) (size 15 to 20)
#    0.000    1.231    3.077    3.231    2.154    0.000 
#    2.769    0.000    3.385    0.000    0.000    0.000 
#    0.000    0.000    0.000    0.000    0.000    0.000 
#
# Total GULP energy -290594.096959 kJ/mol
# GULP energy per Si atom -5588.348018 kJ/mol
# Density = 2.101519 g / cm^3
# Si number density = 21.063135 Si / 1000 Ang^3
#
#
#
# Elastic Constant Matrix: (Units=GPa)
#
#
# Indices 1 2 3 4 5 6 
#
# 1 69.0359 -0.6499 -11.1499 0.0000 0.0000 0.0000
# 2 -0.6499 76.5612 1.0741 0.0000 0.0000 0.0000
# 3 -11.1499 1.0741 67.8340 0.0000 0.0000 0.0000
# 4 0.0000 0.0000 0.0000 -1.0978 0.0000 0.0000
# 5 0.0000 0.0000 0.0000 0.0000 24.5826 0.0000
# 6 0.0000 0.0000 0.0000 0.0000 0.0000 21.2714
#
#
#
# Elastic Compliance Matrix: (Units=1/GPa)
#
#
# Indices 1 2 3 4 5 6 
#
# 1 0.014881 0.000092 0.002445 0.000000 0.000000 0.000000
# 2 0.000092 0.013065 -0.000192 0.000000 0.000000 0.000000
# 3 0.002445 -0.000192 0.015147 0.000000 0.000000 0.000000
# 4 0.000000 0.000000 0.000000 -0.910922 0.000000 0.000000
# 5 0.000000 0.000000 0.000000 0.000000 0.040679 0.000000
# 6 0.000000 0.000000 0.000000 0.000000 0.000000 0.047011
#
#
# Mechanical properties :
#
#
# Convention : Reuss Voigt Hill
#
# Bulk Modulus (GPa) = 20.92834 21.33109 21.12972
# Shear Modulus (GPa) = -6.50279 23.89503 8.69612
#
# Velocity S-wave (km/s) = -1.75897 3.37181 2.03410
# Velocity P-wave (km/s) = 2.41501 5.03071 3.94590
#
# Compressibility (1/GPa) = 0.04778210
#
# Stress axis : x y z
#
# Youngs Moduli (GPa) = 67.20028 76.54089 66.02094
#
# Poissons Ratio (x) = -0.00704 -0.16139
# Poissons Ratio (y) = -0.00618 0.01266
# Poissons Ratio (z) = -0.16427 0.01468
#
# Static dielectric constant tensor:
#      x y z
#    x 1.779140 0.000000 0.000000 
#    y 0.000000 1.831860 0.000000 
#    z 0.000000 0.000000 1.743560 
# 
# From -- ./inp_files/23204.got.cif
#   From: 2010.05.17/outbox.cif.g08.bks.cpg/sg73_12_cif.got.tgz:23204.got - 2010.06.03 17:35:07.
