data_PCOD9531628
_publ_section_title
;
Structure prediction by ZEFSAII (Michael W. Deem and Ramdas Pophale) SiO2 
 PCOD9531628
Probable space group: I B C A 
;
_chemical_formula_sum "Si O2"
_cell_formula_units_Z 80
_cell_length_a 26.371920
_cell_length_b 17.489158
_cell_length_c 9.830558
_cell_angle_alpha 90.000000
_cell_angle_beta 90.000000
_cell_angle_gamma 90.000000
_cell_volume 4534.076264
_symmetry_space_group_name_H-M "I B C A "
_symmetry_group_IT_number 73
_symmetry_cell_setting 'orthorhombic'
loop_
_space_group_symop_operation_xyz
x,y,z
-x,1/2-y,z
x,-y,1/2-z
1/2-x,y,-z
-x,-y,-z
x,1/2+y,-z
-x,y,1/2+z
1/2+x,-y,z
1/2+x,1/2+y,1/2+z
1/2-x,-y,1/2+z
1/2+x,1/2-y,-z
-x,1/2+y,1/2-z
1/2-x,1/2-y,1/2-z
1/2+x,y,1/2-z
1/2-x,1/2+y,z
x,1/2-y,1/2+z
loop_
_atom_site_type_symbol
_atom_site_label
_atom_site_fract_x
_atom_site_fract_y
_atom_site_fract_z
Si Si1 0.639872 0.260760 0.700625
Si Si2 0.193327 0.685843 0.947211
Si Si3 0.037474 0.177782 0.731463
Si Si4 0.882183 0.083606 0.686412
Si Si5 0.483801 0.412244 0.492795
O O1 0.685755 0.265339 0.809299
O O2 0.659586 0.228056 0.560235
O O3 0.594365 0.208763 0.755996
O O4 0.619251 0.348243 0.701545
O O5 0.165906 0.605955 0.908100
O O6 0.250000 0.678158 0.000000
O O7 0.000000 0.250000 0.740549
O O8 0.025537 0.135550 0.590558
O O9 0.025559 0.122533 0.858550
O O10 0.932520 0.093218 0.596465
O O11 0.879953 0.000000 0.750000
O O12 0.500000 0.500000 0.500000
#
# Coordination Sequence:
#
# PCOD9531628 Si02
#       5
#    16  16  16  16  16
#     4  10  22  38  66  92 122 159 209 257 304 370
#     4  10  21  41  69  92 119 159 214 261 311 362
#     4  12  22  39  60  92 122 165 205 247 303 372
#     4  10  22  40  61  88 128 164 199 252 318 365
#     4  12  25  38  61  88 129 164 204 247 309 369
#
# _framework density 17.644168000000001
#
# number of rings (size 3 to 8) (size 9 to 14) (size 15 to 20)
#    1.200    0.000    4.000    3.000    2.800    0.000 
#    0.000    1.000    4.400    0.000    0.000    0.000 
#    0.000    0.000    0.000    0.000    0.000    0.000 
#
# Total GULP energy -223073.908229 kJ/mol
# GULP energy per Si atom -5576.847706 kJ/mol
# Density = 1.760401 g / cm^3
# Si number density = 17.644168 Si / 1000 Ang^3
#
#
#
# Elastic Constant Matrix: (Units=GPa)
#
#
# Indices 1 2 3 4 5 6 
#
# 1 41.7524 19.3469 -3.2587 0.0000 0.0000 0.0000
# 2 19.3469 71.1918 2.2889 0.0000 0.0000 0.0000
# 3 -3.2587 2.2889 42.2655 0.0000 0.0000 0.0000
# 4 0.0000 0.0000 0.0000 42.0979 0.0000 0.0000
# 5 0.0000 0.0000 0.0000 0.0000 32.9477 0.0000
# 6 0.0000 0.0000 0.0000 0.0000 0.0000 23.1915
#
#
#
# Elastic Compliance Matrix: (Units=1/GPa)
#
#
# Indices 1 2 3 4 5 6 
#
# 1 0.027672 -0.007602 0.002545 0.000000 0.000000 0.000000
# 2 -0.007602 0.016159 -0.001461 0.000000 0.000000 0.000000
# 3 0.002545 -0.001461 0.023935 0.000000 0.000000 0.000000
# 4 0.000000 0.000000 0.000000 0.023754 0.000000 0.000000
# 5 0.000000 0.000000 0.000000 0.000000 0.030351 0.000000
# 6 0.000000 0.000000 0.000000 0.000000 0.000000 0.043119
#
#
# Mechanical properties :
#
#
# Convention : Reuss Voigt Hill
#
# Bulk Modulus (GPa) = 18.27123 21.32931 19.80027
# Shear Modulus (GPa) = 25.47504 28.76959 27.12231
#
# Velocity S-wave (km/s) = 3.80389 4.04238 3.92495
# Velocity P-wave (km/s) = 5.44708 5.82259 5.63796
#
# Compressibility (1/GPa) = 0.05473085
#
# Stress axis : x y z
#
# Youngs Moduli (GPa) = 36.13782 61.88349 41.77920
#
# Poissons Ratio (x) = 0.47043 -0.10634
# Poissons Ratio (y) = 0.27471 0.06105
# Poissons Ratio (z) = -0.09198 0.09043
#
# Static dielectric constant tensor:
#      x y z
#    x 1.596950 0.000000 0.000000 
#    y 0.000000 1.579420 0.000000 
#    z 0.000000 0.000000 1.611420 
# 
# From -- ./inp_files/8347.got.cif
#   From: 2010.05.17/outbox.cif.g08.bks.cpg/sg73_5_cif.got.tgz:8347.got - 2010.06.03 17:35:07.
