data_PCOD9531724
_publ_section_title
;
Structure prediction by ZEFSAII (Michael W. Deem and Ramdas Pophale) SiO2 
 PCOD9531724
Probable space group: I B C A 
;
_chemical_formula_sum "Si O2"
_cell_formula_units_Z 112
_cell_length_a 18.056934
_cell_length_b 28.062418
_cell_length_c 10.415246
_cell_angle_alpha 90.000000
_cell_angle_beta 90.000000
_cell_angle_gamma 90.000000
_cell_volume 5277.626261
_symmetry_space_group_name_H-M "I B C A "
_symmetry_group_IT_number 73
_symmetry_cell_setting 'orthorhombic'
loop_
_space_group_symop_operation_xyz
x,y,z
-x,1/2-y,z
x,-y,1/2-z
1/2-x,y,-z
-x,-y,-z
x,1/2+y,-z
-x,y,1/2+z
1/2+x,-y,z
1/2+x,1/2+y,1/2+z
1/2-x,-y,1/2+z
1/2+x,1/2-y,-z
-x,1/2+y,1/2-z
1/2-x,1/2-y,1/2-z
1/2+x,y,1/2-z
1/2-x,1/2+y,z
x,1/2-y,1/2+z
loop_
_atom_site_type_symbol
_atom_site_label
_atom_site_fract_x
_atom_site_fract_y
_atom_site_fract_z
Si Si1 0.953635 0.548174 0.475336
Si Si2 0.857785 0.946175 0.200526
Si Si3 0.196157 0.551376 0.816690
Si Si4 0.578177 0.723013 0.201343
Si Si5 0.684616 0.367504 0.601536
Si Si6 0.073929 0.618438 0.390002
Si Si7 0.827431 0.742078 0.058378
O O1 0.927274 0.566692 0.612951
O O2 0.876134 0.542988 0.402057
O O3 0.000000 0.500000 0.500000
O O4 0.003286 0.585270 0.400249
O O5 0.779326 0.940563 0.130780
O O6 0.862190 0.911217 0.319423
O O7 0.867252 0.000000 0.250000
O O8 0.204754 0.500000 0.750000
O O9 0.184865 0.595968 0.719808
O O10 0.500000 0.750000 0.216633
O O11 0.561674 0.667337 0.182754
O O12 0.630817 0.731112 0.325503
O O13 0.619589 0.737553 0.067589
O O14 0.750000 0.379569 0.500000
O O15 0.605672 0.372487 0.531314
O O16 0.692085 0.310304 0.619080
O O17 0.750000 0.761833 0.000000
#
# Coordination Sequence:
#
# PCOD9531724 Si02
#       7
#    16  16  16  16  16  16  16
#     4  12  26  41  64  98 143 181 231 282 352 419
#     4  11  24  44  66  96 137 180 235 290 339 410
#     4  11  25  40  68  97 132 182 232 285 344 413
#     4  11  25  45  71 108 144 186 233 301 368 434
#     4  10  21  43  69  97 134 182 231 283 356 423
#     4  11  25  42  69  99 137 182 226 289 352 418
#     4  10  23  45  75 101 139 186 243 294 360 430
#
# _framework density 21.221662999999999
#
# number of rings (size 3 to 8) (size 9 to 14) (size 15 to 20)
#    0.000    1.143    2.857    2.143    6.000    2.286 
#    0.000    0.000    0.000    0.000    0.000    0.000 
#    0.000    0.000    0.000    0.000    0.000    0.000 
#
# Total GULP energy -312455.368866 kJ/mol
# GULP energy per Si atom -5579.560158 kJ/mol
# Density = 2.117336 g / cm^3
# Si number density = 21.221663 Si / 1000 Ang^3
#
#
#
# Elastic Constant Matrix: (Units=GPa)
#
#
# Indices 1 2 3 4 5 6 
#
# 1 146.0712 55.5012 50.5829 0.0000 0.0000 0.0000
# 2 55.5012 111.1661 48.7257 -0.0001 0.0000 0.0001
# 3 50.5829 48.7257 93.5490 0.0004 0.0000 0.0002
# 4 0.0000 -0.0001 0.0004 17.3072 0.0000 0.0001
# 5 0.0000 0.0000 0.0000 0.0000 44.3464 0.0001
# 6 0.0000 0.0001 0.0002 0.0001 0.0001 -19.6584
#
#
#
# Elastic Compliance Matrix: (Units=1/GPa)
#
#
# Indices 1 2 3 4 5 6 
#
# 1 0.009190 -0.003123 -0.003342 0.000000 0.000000 0.000000
# 2 -0.003123 0.012718 -0.004936 0.000000 0.000000 0.000000
# 3 -0.003342 -0.004936 0.015068 0.000000 0.000000 0.000000
# 4 0.000000 0.000000 0.000000 0.057779 0.000000 0.000000
# 5 0.000000 0.000000 0.000000 0.000000 0.022550 0.000000
# 6 0.000000 0.000000 0.000000 0.000000 0.000000 -0.050869
#
#
# Mechanical properties :
#
#
# Convention : Reuss Voigt Hill
#
# Bulk Modulus (GPa) = 70.55476 73.37845 71.96661
# Shear Modulus (GPa) = 53.21225 21.46413 37.33819
#
# Velocity S-wave (km/s) = 5.01288 3.18374 4.19912
# Velocity P-wave (km/s) = 8.17459 6.94026 7.58258
#
# Compressibility (1/GPa) = 0.01417339
#
# Stress axis : x y z
#
# Youngs Moduli (GPa) = 108.81220 78.62726 66.36747
#
# Poissons Ratio (x) = 0.24557 0.22183
# Poissons Ratio (y) = 0.33985 0.32756
# Poissons Ratio (z) = 0.36370 0.38807
#
# Static dielectric constant tensor:
#      x y z
#    x 1.822410 0.000000 0.000000 
#    y 0.000000 1.745850 0.000000 
#    z 0.000000 0.000000 1.786380 
# 
# From -- ./inp_files/11233.got.cif
#   From: 2010.05.17/outbox.cif.g08.bks.cpg/sg73_6_cif.got.tgz:11233.got - 2010.06.03 17:35:07.
