data_PCOD9531584
_publ_section_title
;
Structure prediction by ZEFSAII (Michael W. Deem and Ramdas Pophale) SiO2 
 PCOD9531584
Probable space group: I B C A 
;
_chemical_formula_sum "Si O2"
_cell_formula_units_Z 104
_cell_length_a 16.257010
_cell_length_b 31.697368
_cell_length_c 8.410397
_cell_angle_alpha 90.000000
_cell_angle_beta 90.000000
_cell_angle_gamma 90.000000
_cell_volume 4333.914820
_symmetry_space_group_name_H-M "I B C A "
_symmetry_group_IT_number 73
_symmetry_cell_setting 'orthorhombic'
loop_
_space_group_symop_operation_xyz
x,y,z
-x,1/2-y,z
x,-y,1/2-z
1/2-x,y,-z
-x,-y,-z
x,1/2+y,-z
-x,y,1/2+z
1/2+x,-y,z
1/2+x,1/2+y,1/2+z
1/2-x,-y,1/2+z
1/2+x,1/2-y,-z
-x,1/2+y,1/2-z
1/2-x,1/2-y,1/2-z
1/2+x,y,1/2-z
1/2-x,1/2+y,z
x,1/2-y,1/2+z
loop_
_atom_site_type_symbol
_atom_site_label
_atom_site_fract_x
_atom_site_fract_y
_atom_site_fract_z
Si Si1 0.372245 0.584749 0.311288
Si Si2 0.833395 0.732554 0.596682
Si Si3 0.750000 0.473720 0.500000
Si Si4 0.924530 0.328683 0.695799
Si Si5 0.873247 0.500000 0.750000
Si Si6 0.172149 0.825814 0.116667
Si Si7 0.527021 0.420546 0.357376
Si Si8 0.500000 0.250000 0.897772
O O1 0.296706 0.555756 0.369856
O O2 0.339705 0.632325 0.281069
O O3 0.429629 0.572241 0.163445
O O4 0.433394 0.582023 0.466422
O O5 0.750000 0.727095 0.500000
O O6 0.850619 0.691435 0.703078
O O7 0.823169 0.778377 0.682409
O O8 0.916035 0.740397 0.492875
O O9 0.815918 0.500764 0.595013
O O10 0.902081 0.327683 0.510045
O O11 0.952333 0.375764 0.727421
O O12 0.991006 0.291761 0.709541
O O13 0.928049 0.458745 0.729871
O O14 0.250000 0.832351 0.000000
#
# Coordination Sequence:
#
# PCOD9531584 Si02
#       8
#    16  16   8  16   8  16  16   8
#     4  10  21  41  63  96 118 167 205 260 311 387
#     4  10  22  38  56  86 126 162 212 267 311 377
#     4  10  22  42  72  90 128 158 214 256 320 378
#     4  10  22  38  56  90 123 164 211 264 310 383
#     4  10  24  46  64 100 124 164 208 266 316 390
#     4   9  19  36  59  83 121 163 210 250 312 372
#     4  10  24  40  65  90 131 158 215 259 324 383
#     4  10  22  36  62  86 120 174 212 256 322 384
#
# _framework density 23.996779
#
# number of rings (size 3 to 8) (size 9 to 14) (size 15 to 20)
#    0.000    2.154    0.769    0.462    8.615    9.846 
#    1.385    0.000    0.000    0.000    0.000    0.000 
#    0.000    0.000    0.000    0.000    0.000    0.000 
#
# Total GULP energy -290473.100156 kJ/mol
# GULP energy per Si atom -5586.021157 kJ/mol
# Density = 2.394216 g / cm^3
# Si number density = 23.996779 Si / 1000 Ang^3
#
#
#
# Elastic Constant Matrix: (Units=GPa)
#
#
# Indices 1 2 3 4 5 6 
#
# 1 95.1292 19.5623 24.3147 0.0049 -0.0049 -0.0005
# 2 19.5623 124.8574 28.4663 0.0073 -0.0056 -0.0003
# 3 24.3147 28.4663 39.5882 0.0192 -0.0174 -0.0028
# 4 0.0049 0.0073 0.0192 13.3280 -0.0041 -0.0010
# 5 -0.0049 -0.0056 -0.0174 -0.0041 43.8513 0.0014
# 6 -0.0005 -0.0003 -0.0028 -0.0010 0.0014 34.7495
#
#
#
# Elastic Compliance Matrix: (Units=1/GPa)
#
#
# Indices 1 2 3 4 5 6 
#
# 1 0.012476 -0.000248 -0.007484 0.000006 -0.000002 0.000000
# 2 -0.000248 0.009585 -0.006739 0.000005 -0.000001 0.000000
# 3 -0.007484 -0.006739 0.034703 -0.000044 0.000012 0.000003
# 4 0.000006 0.000005 -0.000044 0.075030 0.000007 0.000002
# 5 -0.000002 -0.000001 0.000012 0.000007 0.022804 -0.000001
# 6 0.000000 0.000000 0.000003 0.000002 -0.000001 0.028777
#
#
# Mechanical properties :
#
#
# Convention : Reuss Voigt Hill
#
# Bulk Modulus (GPa) = 35.94568 44.91792 40.43180
# Shear Modulus (GPa) = 22.56400 30.86784 26.71592
#
# Velocity S-wave (km/s) = 3.06975 3.59044 3.34025
# Velocity P-wave (km/s) = 5.25132 5.99561 5.63576
#
# Compressibility (1/GPa) = 0.02781975
#
# Stress axis : x y z
#
# Youngs Moduli (GPa) = 80.15388 104.33455 28.81621
#
# Poissons Ratio (x) = 0.02592 0.21566
# Poissons Ratio (y) = 0.01991 0.19420
# Poissons Ratio (z) = 0.59987 0.70314
#
# Static dielectric constant tensor:
#      x y z
#    x 2.006720 0.000000 0.000010 
#    y 0.000000 1.913590 0.000000 
#    z 0.000010 0.000000 1.987980 
# 
# From -- ./inp_files/12304.got.cif
#   From: 2010.05.17/outbox.cif.g08.bks.cpg/sg73_7_cif.got.tgz:12304.got - 2010.06.03 17:35:07.
