data_PCOD9531591
_publ_section_title
;
Structure prediction by ZEFSAII (Michael W. Deem and Ramdas Pophale) SiO2 
 PCOD9531591
Probable space group: I B C A 
;
_chemical_formula_sum "Si O2"
_cell_formula_units_Z 96
_cell_length_a 22.502247
_cell_length_b 13.750632
_cell_length_c 15.171482
_cell_angle_alpha 90.000000
_cell_angle_beta 90.000000
_cell_angle_gamma 90.000000
_cell_volume 4694.361746
_symmetry_space_group_name_H-M "I B C A "
_symmetry_group_IT_number 73
_symmetry_cell_setting 'orthorhombic'
loop_
_space_group_symop_operation_xyz
x,y,z
-x,1/2-y,z
x,-y,1/2-z
1/2-x,y,-z
-x,-y,-z
x,1/2+y,-z
-x,y,1/2+z
1/2+x,-y,z
1/2+x,1/2+y,1/2+z
1/2-x,-y,1/2+z
1/2+x,1/2-y,-z
-x,1/2+y,1/2-z
1/2-x,1/2-y,1/2-z
1/2+x,y,1/2-z
1/2-x,1/2+y,z
x,1/2-y,1/2+z
loop_
_atom_site_type_symbol
_atom_site_label
_atom_site_fract_x
_atom_site_fract_y
_atom_site_fract_z
Si Si1 0.742844 0.140153 0.850862
Si Si2 0.152596 0.038797 0.425997
Si Si3 0.876605 0.960504 0.376264
Si Si4 0.187035 0.651321 0.834199
Si Si5 0.436816 0.362858 0.723967
Si Si6 0.075592 0.644058 0.716517
O O1 0.795575 0.119421 0.919180
O O2 0.692344 0.058609 0.855919
O O3 0.711450 0.244413 0.865299
O O4 0.773630 0.133420 0.754272
O O5 0.120022 0.038763 0.518975
O O6 0.106020 0.069745 0.350648
O O7 0.185689 0.937560 0.402584
O O8 0.911138 0.876616 0.322502
O O9 0.902614 0.058828 0.335165
O O10 0.118894 0.651020 0.800389
O O11 0.507045 0.381668 0.730095
O O12 0.425281 0.256313 0.685048
#
# Coordination Sequence:
#
# PCOD9531591 Si02
#       6
#    16  16  16  16  16  16
#     4  10  21  41  64  95 130 175 211 271 337 403
#     4  11  25  39  68 100 134 165 224 281 334 390
#     4  11  24  41  63  99 129 176 216 272 329 408
#     4  10  22  39  69  92 128 171 218 272 330 401
#     4  10  24  41  68  89 136 179 220 261 333 410
#     4  10  21  45  64  96 126 178 221 272 328 393
#
# _framework density 20.450064000000001
#
# number of rings (size 3 to 8) (size 9 to 14) (size 15 to 20)
#    0.000    1.667    1.667    2.500    9.333    2.000 
#    0.000    3.333    0.000    0.000    0.000    0.000 
#    0.000    0.000    0.000    0.000    0.000    0.000 
#
# Total GULP energy -267905.804931 kJ/mol
# GULP energy per Si atom -5581.370936 kJ/mol
# Density = 2.040352 g / cm^3
# Si number density = 20.450064 Si / 1000 Ang^3
#
#
#
# Elastic Constant Matrix: (Units=GPa)
#
#
# Indices 1 2 3 4 5 6 
#
# 1 106.5515 33.4579 20.1582 0.0000 0.0000 0.0000
# 2 33.4579 115.4925 42.3491 0.0000 0.0000 0.0000
# 3 20.1582 42.3491 86.6719 0.0000 0.0000 0.0000
# 4 0.0000 0.0000 0.0000 6.1704 0.0000 0.0000
# 5 0.0000 0.0000 0.0000 0.0000 13.2806 0.0000
# 6 0.0000 0.0000 0.0000 0.0000 0.0000 35.8005
#
#
#
# Elastic Compliance Matrix: (Units=1/GPa)
#
#
# Indices 1 2 3 4 5 6 
#
# 1 0.010418 -0.002595 -0.001155 0.000000 0.000000 0.000000
# 2 -0.002595 0.011195 -0.004866 0.000000 0.000000 0.000000
# 3 -0.001155 -0.004866 0.014184 0.000000 0.000000 0.000000
# 4 0.000000 0.000000 0.000000 0.162064 0.000000 0.000000
# 5 0.000000 0.000000 0.000000 0.000000 0.075298 0.000000
# 6 0.000000 0.000000 0.000000 0.000000 0.000000 0.027933
#
#
# Mechanical properties :
#
#
# Convention : Reuss Voigt Hill
#
# Bulk Modulus (GPa) = 53.86582 55.62737 54.74659
# Shear Modulus (GPa) = 15.40773 25.23368 20.32070
#
# Velocity S-wave (km/s) = 2.74785 3.51653 3.15568
# Velocity P-wave (km/s) = 6.03862 6.61427 6.33299
#
# Compressibility (1/GPa) = 0.01856465
#
# Stress axis : x y z
#
# Youngs Moduli (GPa) = 95.98381 89.32858 70.50058
#
# Poissons Ratio (x) = 0.23177 0.08146
# Poissons Ratio (y) = 0.24903 0.34308
# Poissons Ratio (z) = 0.11090 0.43471
#
# Static dielectric constant tensor:
#      x y z
#    x 1.719870 0.000000 0.000000 
#    y 0.000000 1.783150 0.000000 
#    z 0.000000 0.000000 1.723330 
# 
# From -- ./inp_files/17052.got.cif
#   From: 2010.05.17/outbox.cif.g08.bks.cpg/sg73_9_cif.got.tgz:17052.got - 2010.06.03 17:35:07.
