data_PCOD9531431
_publ_section_title
;
Structure prediction by ZEFSAII (Michael W. Deem and Ramdas Pophale) SiO2 
 PCOD9531431
Probable space group: I B C A 
;
_chemical_formula_sum "Si O2"
_cell_formula_units_Z 112
_cell_length_a 14.965187
_cell_length_b 15.464228
_cell_length_c 23.045911
_cell_angle_alpha 90.000000
_cell_angle_beta 90.000000
_cell_angle_gamma 90.000000
_cell_volume 5333.401424
_symmetry_space_group_name_H-M "I B C A "
_symmetry_group_IT_number 73
_symmetry_cell_setting 'orthorhombic'
loop_
_space_group_symop_operation_xyz
x,y,z
-x,1/2-y,z
x,-y,1/2-z
1/2-x,y,-z
-x,-y,-z
x,1/2+y,-z
-x,y,1/2+z
1/2+x,-y,z
1/2+x,1/2+y,1/2+z
1/2-x,-y,1/2+z
1/2+x,1/2-y,-z
-x,1/2+y,1/2-z
1/2-x,1/2-y,1/2-z
1/2+x,y,1/2-z
1/2-x,1/2+y,z
x,1/2-y,1/2+z
loop_
_atom_site_type_symbol
_atom_site_label
_atom_site_fract_x
_atom_site_fract_y
_atom_site_fract_z
Si Si1 0.174680 0.344607 0.229195
Si Si2 0.490421 0.919336 0.711527
Si Si3 0.118611 0.916326 0.408109
Si Si4 0.344525 0.392126 0.086948
Si Si5 0.676082 0.273460 0.398183
Si Si6 0.470278 0.157577 0.484604
Si Si7 0.130387 0.180067 0.289405
O O1 0.171170 0.287683 0.170437
O O2 0.152493 0.281791 0.282954
O O3 0.278866 0.369479 0.231985
O O4 0.097591 0.413296 0.216344
O O5 0.446580 0.920130 0.648261
O O6 0.449522 0.839020 0.746134
O O7 0.460059 0.000000 0.750000
O O8 0.177750 0.829227 0.407946
O O9 0.051919 0.900609 0.462423
O O10 0.173605 0.005430 0.407191
O O11 0.258957 0.330196 0.079000
O O12 0.387642 0.354812 0.146305
O O13 0.409629 0.385901 0.032617
O O14 0.589027 0.312797 0.429295
O O15 0.500000 0.250000 0.510259
#
# Coordination Sequence:
#
# PCOD9531431 Si02
#       7
#    16  16  16  16  16  16  16
#     4  10  21  39  62  92 125 172 219 265 324 389
#     4  12  22  38  62  96 132 169 223 269 325 400
#     4  11  22  41  67  95 125 177 222 263 328 396
#     4  11  23  42  61  97 138 159 213 280 329 377
#     4  10  21  41  68  92 122 176 220 261 318 401
#     4  10  22  41  68  91 123 170 218 263 322 404
#     4  10  22  37  62  93 130 165 209 272 326 382
#
# _framework density 20.999732999999999
#
# number of rings (size 3 to 8) (size 9 to 14) (size 15 to 20)
#    0.000    1.429    4.286    1.286    0.000    1.714 
#    0.000    7.143    0.000    0.000    0.000    0.000 
#    0.000    0.000    0.000    0.000    0.000    0.000 
#
# Total GULP energy -312393.997839 kJ/mol
# GULP energy per Si atom -5578.464247 kJ/mol
# Density = 2.095194 g / cm^3
# Si number density = 20.999733 Si / 1000 Ang^3
#
#
#
# Elastic Constant Matrix: (Units=GPa)
#
#
# Indices 1 2 3 4 5 6 
#
# 1 69.6821 36.8182 7.2105 0.0000 0.0000 0.0000
# 2 36.8182 124.4101 37.6146 0.0000 0.0000 0.0000
# 3 7.2105 37.6146 53.2322 0.0000 0.0000 0.0000
# 4 0.0000 0.0000 0.0000 -0.8581 0.0000 0.0000
# 5 0.0000 0.0000 0.0000 0.0000 4.5936 0.0000
# 6 0.0000 0.0000 0.0000 0.0000 0.0000 15.4231
#
#
#
# Elastic Compliance Matrix: (Units=1/GPa)
#
#
# Indices 1 2 3 4 5 6 
#
# 1 0.017118 -0.005551 0.001604 0.000000 0.000000 0.000000
# 2 -0.005551 0.012022 -0.007743 0.000000 0.000000 0.000000
# 3 0.001604 -0.007743 0.024040 0.000000 0.000000 0.000000
# 4 0.000000 0.000000 0.000000 -1.165299 0.000000 0.000000
# 5 0.000000 0.000000 0.000000 0.000000 0.217693 0.000000
# 6 0.000000 0.000000 0.000000 0.000000 0.000000 0.064838
#
#
# Mechanical properties :
#
#
# Convention : Reuss Voigt Hill
#
# Bulk Modulus (GPa) = 33.55806 45.62345 39.59075
# Shear Modulus (GPa) = -6.27923 14.87711 4.29894
#
# Velocity S-wave (km/s) = -1.73108 2.66455 1.43234
# Velocity P-wave (km/s) = 3.46690 5.58921 4.65074
#
# Compressibility (1/GPa) = 0.02979910
#
# Stress axis : x y z
#
# Youngs Moduli (GPa) = 58.41872 83.18357 41.59807
#
# Poissons Ratio (x) = 0.46173 -0.06670
# Poissons Ratio (y) = 0.32426 0.32208
# Poissons Ratio (z) = -0.09368 0.64407
#
# Static dielectric constant tensor:
#      x y z
#    x 1.812820 0.000000 0.000000 
#    y 0.000000 1.796500 0.000000 
#    z 0.000000 0.000000 1.744580 
# 
# From -- ./inp_files/29530.got.cif
#   From: 2010.05.17/outbox.cif.g08.bks.cpg/sg73_15_cif.got.tgz:29530.got - 2010.06.03 17:35:07.
