data_PCOD9531707
_publ_section_title
;
Structure prediction by ZEFSAII (Michael W. Deem and Ramdas Pophale) SiO2 
 PCOD9531707
Probable space group: I B C A 
;
_chemical_formula_sum "Si O2"
_cell_formula_units_Z 120
_cell_length_a 20.204366
_cell_length_b 30.005718
_cell_length_c 9.441714
_cell_angle_alpha 90.000000
_cell_angle_beta 90.000000
_cell_angle_gamma 90.000000
_cell_volume 5724.006147
_symmetry_space_group_name_H-M "I B C A "
_symmetry_group_IT_number 73
_symmetry_cell_setting 'orthorhombic'
loop_
_space_group_symop_operation_xyz
x,y,z
-x,1/2-y,z
x,-y,1/2-z
1/2-x,y,-z
-x,-y,-z
x,1/2+y,-z
-x,y,1/2+z
1/2+x,-y,z
1/2+x,1/2+y,1/2+z
1/2-x,-y,1/2+z
1/2+x,1/2-y,-z
-x,1/2+y,1/2-z
1/2-x,1/2-y,1/2-z
1/2+x,y,1/2-z
1/2-x,1/2+y,z
x,1/2-y,1/2+z
loop_
_atom_site_type_symbol
_atom_site_label
_atom_site_fract_x
_atom_site_fract_y
_atom_site_fract_z
Si Si1 0.761564 0.884589 0.835396
Si Si2 0.119880 0.619835 0.300579
Si Si3 0.958704 0.456542 0.851310
Si Si4 0.000000 0.750000 0.532845
Si Si5 0.679240 0.087776 0.061808
Si Si6 0.398172 0.991334 0.911619
Si Si7 0.414233 0.220414 0.294326
Si Si8 0.209567 0.279994 0.643006
O O1 0.689975 0.894185 0.766816
O O2 0.814798 0.907647 0.730854
O O3 0.783666 0.832546 0.826702
O O4 0.750000 0.896171 0.000000
O O5 0.064560 0.587580 0.231353
O O6 0.126129 0.615349 0.470800
O O7 0.115088 0.671906 0.269134
O O8 0.948737 0.500000 0.750000
O O9 0.035111 0.460669 0.900187
O O10 0.916409 0.466565 0.992517
O O11 0.055205 0.765899 0.643724
O O12 0.031635 0.715680 0.420196
O O13 0.660522 0.037350 0.022619
O O14 0.750000 0.101524 0.000000
O O15 0.381498 0.000000 0.750000
O O16 0.363505 0.258501 0.348479
O O17 0.250000 0.273179 0.500000
O O18 0.250000 0.250000 0.750000
#
# Coordination Sequence:
#
# PCOD9531707 Si02
#       8
#    16  16  16   8  16  16  16  16
#     4  10  24  41  60  99 129 162 217 277 328 395
#     4  11  23  41  68  94 128 170 220 274 337 401
#     4  10  21  43  67  91 128 168 218 275 321 404
#     4  10  26  46  60  94 138 174 222 274 328 406
#     4  10  23  43  63  94 131 168 214 267 332 396
#     4  10  22  42  66  96 124 170 223 263 336 395
#     4  11  24  44  66  95 132 178 221 271 338 400
#     4  11  22  38  68  95 124 170 218 268 331 386
#
# _framework density 20.964337
#
# number of rings (size 3 to 8) (size 9 to 14) (size 15 to 20)
#    0.000    1.600    2.667    0.800    7.467    1.067 
#    7.200    0.000    0.000    0.000    0.000    0.000 
#    0.000    0.000    0.000    0.000    0.000    0.000 
#
# Total GULP energy -334268.644460 kJ/mol
# GULP energy per Si atom -5571.144074 kJ/mol
# Density = 2.091662 g / cm^3
# Si number density = 20.964337 Si / 1000 Ang^3
#
#
#
# Elastic Constant Matrix: (Units=GPa)
#
#
# Indices 1 2 3 4 5 6 
#
# 1 39.4050 10.4987 13.6411 0.0000 0.0000 0.0000
# 2 10.4987 42.5785 7.5511 0.0000 0.0000 0.0000
# 3 13.6411 7.5511 107.7667 0.0000 0.0000 0.0000
# 4 0.0000 0.0000 0.0000 23.4602 0.0000 0.0000
# 5 0.0000 0.0000 0.0000 0.0000 31.1833 0.0000
# 6 0.0000 0.0000 0.0000 0.0000 0.0000 17.9177
#
#
#
# Elastic Compliance Matrix: (Units=1/GPa)
#
#
# Indices 1 2 3 4 5 6 
#
# 1 0.028159 -0.006390 -0.003117 0.000000 0.000000 0.000000
# 2 -0.006390 0.025232 -0.000959 0.000000 0.000000 0.000000
# 3 -0.003117 -0.000959 0.009741 0.000000 0.000000 0.000000
# 4 0.000000 0.000000 0.000000 0.042625 0.000000 0.000000
# 5 0.000000 0.000000 0.000000 0.000000 0.032068 0.000000
# 6 0.000000 0.000000 0.000000 0.000000 0.000000 0.055811
#
#
# Mechanical properties :
#
#
# Convention : Reuss Voigt Hill
#
# Bulk Modulus (GPa) = 23.69694 28.12577 25.91136
# Shear Modulus (GPa) = 21.86889 25.04952 23.45921
#
# Velocity S-wave (km/s) = 3.23328 3.46043 3.34878
# Velocity P-wave (km/s) = 5.02661 5.42321 5.22867
#
# Compressibility (1/GPa) = 0.04219953
#
# Stress axis : x y z
#
# Youngs Moduli (GPa) = 35.51264 39.63250 102.65887
#
# Poissons Ratio (x) = 0.25327 0.31994
# Poissons Ratio (y) = 0.22694 0.09846
# Poissons Ratio (z) = 0.11068 0.03801
#
# Static dielectric constant tensor:
#      x y z
#    x 1.832840 0.000000 0.000000 
#    y 0.000000 1.757080 0.000000 
#    z 0.000000 0.000000 1.790500 
# 
# From -- ./inp_files/7468.got.cif
#   From: 2010.05.17/outbox.cif.g08.bks.cpg/sg73_4_cif.got.tgz:7468.got - 2010.06.03 17:35:07.
