data_PCOD9531118
_publ_section_title
;
Structure prediction by ZEFSAII (Michael W. Deem and Ramdas Pophale) SiO2 
 PCOD9531118
Probable space group: I B C A 
;
_chemical_formula_sum "Si O2"
_cell_formula_units_Z 72
_cell_length_a 19.965037
_cell_length_b 14.574106
_cell_length_c 9.640694
_cell_angle_alpha 90.000000
_cell_angle_beta 90.000000
_cell_angle_gamma 90.000000
_cell_volume 2805.177467
_symmetry_space_group_name_H-M "I B C A "
_symmetry_group_IT_number 73
_symmetry_cell_setting 'orthorhombic'
loop_
_space_group_symop_operation_xyz
x,y,z
-x,1/2-y,z
x,-y,1/2-z
1/2-x,y,-z
-x,-y,-z
x,1/2+y,-z
-x,y,1/2+z
1/2+x,-y,z
1/2+x,1/2+y,1/2+z
1/2-x,-y,1/2+z
1/2+x,1/2-y,-z
-x,1/2+y,1/2-z
1/2-x,1/2-y,1/2-z
1/2+x,y,1/2-z
1/2-x,1/2+y,z
x,1/2-y,1/2+z
loop_
_atom_site_type_symbol
_atom_site_label
_atom_site_fract_x
_atom_site_fract_y
_atom_site_fract_z
Si Si1 0.238245 0.147340 0.648852
Si Si2 0.167197 0.500000 0.750000
Si Si3 0.534478 0.848069 0.334217
Si Si4 0.151629 0.216404 0.855138
Si Si5 0.567090 0.080290 0.459036
O O1 0.250000 0.099595 0.500000
O O2 0.163223 0.163646 0.707536
O O3 0.274363 0.244995 0.626198
O O4 0.281857 0.084994 0.751751
O O5 0.115803 0.506807 0.881444
O O6 0.500000 0.750000 0.359347
O O7 0.609502 0.810787 0.356690
O O8 0.531031 0.874093 0.173484
O O9 0.492456 0.921495 0.424709
O O10 0.120357 0.148025 0.965455
#
# Coordination Sequence:
#
# PCOD9531118 Si02
#       5
#    16   8  16  16  16
#     4  11  25  42  72 105 145 193 254 318 394 464
#     4  12  28  46  64 112 158 196 240 322 410 478
#     4  10  20  42  73 104 136 188 260 311 374 452
#     4  10  22  44  76 102 137 193 257 317 372 467
#     4  11  24  43  72 103 152 193 247 316 385 470
#
# _framework density 25.666823999999998
#
# number of rings (size 3 to 8) (size 9 to 14) (size 15 to 20)
#    0.000    1.333    2.222    3.333    6.222    2.667 
#    0.000    0.000    0.000    0.000    0.000    0.000 
#    0.000    0.000    0.000    0.000    0.000    0.000 
#
# Total GULP energy -200471.688077 kJ/mol
# GULP energy per Si atom -5568.658002 kJ/mol
# Density = 2.560841 g / cm^3
# Si number density = 25.666824 Si / 1000 Ang^3
#
#
#
# Elastic Constant Matrix: (Units=GPa)
#
#
# Indices 1 2 3 4 5 6 
#
# 1 109.0330 56.2939 70.0446 0.0000 0.0000 0.0000
# 2 56.2939 88.3948 30.2135 0.0000 0.0000 0.0000
# 3 70.0446 30.2135 159.4087 0.0000 0.0000 0.0000
# 4 0.0000 0.0000 0.0000 40.5977 0.0000 0.0000
# 5 0.0000 0.0000 0.0000 0.0000 46.4573 0.0000
# 6 0.0000 0.0000 0.0000 0.0000 0.0000 1.9358
#
#
#
# Elastic Compliance Matrix: (Units=1/GPa)
#
#
# Indices 1 2 3 4 5 6 
#
# 1 0.017899 -0.009314 -0.006099 0.000000 0.000000 0.000000
# 2 -0.009314 0.016943 0.000881 0.000000 0.000000 0.000000
# 3 -0.006099 0.000881 0.008786 0.000000 0.000000 0.000000
# 4 0.000000 0.000000 0.000000 0.024632 0.000000 0.000000
# 5 0.000000 0.000000 0.000000 0.000000 0.021525 0.000000
# 6 0.000000 0.000000 0.000000 0.000000 0.000000 0.516595
#
#
# Mechanical properties :
#
#
# Convention : Reuss Voigt Hill
#
# Bulk Modulus (GPa) = 68.66270 74.43782 71.55026
# Shear Modulus (GPa) = 7.80885 31.15045 19.47965
#
# Velocity S-wave (km/s) = 1.74614 3.48752 2.75788
# Velocity P-wave (km/s) = 5.55652 6.72916 6.17076
#
# Compressibility (1/GPa) = 0.01456395
#
# Stress axis : x y z
#
# Youngs Moduli (GPa) = 55.87001 59.02070 113.81411
#
# Poissons Ratio (x) = 0.54971 0.69420
# Poissons Ratio (y) = 0.52037 -0.10030
# Poissons Ratio (z) = 0.34077 -0.05201
#
# Static dielectric constant tensor:
#      x y z
#    x 2.134440 0.000000 0.000000 
#    y 0.000000 2.199640 0.000000 
#    z 0.000000 0.000000 2.326770 
# 
# From -- ./inp_files/6015.got.cif
#   From: 2010.05.17/outbox.cif.g08.bks.cpg/sg73_4_cif.got.tgz:6015.got - 2010.06.03 17:35:07.
