data_PCOD9531264
_publ_section_title
;
Structure prediction by ZEFSAII (Michael W. Deem and Ramdas Pophale) SiO2 
 PCOD9531264
Probable space group: I B C A 
;
_chemical_formula_sum "Si O2"
_cell_formula_units_Z 56
_cell_length_a 19.258770
_cell_length_b 5.017489
_cell_length_c 22.596968
_cell_angle_alpha 90.000000
_cell_angle_beta 90.000000
_cell_angle_gamma 90.000000
_cell_volume 2183.560082
_symmetry_space_group_name_H-M "I B C A "
_symmetry_group_IT_number 73
_symmetry_cell_setting 'orthorhombic'
loop_
_space_group_symop_operation_xyz
x,y,z
-x,1/2-y,z
x,-y,1/2-z
1/2-x,y,-z
-x,-y,-z
x,1/2+y,-z
-x,y,1/2+z
1/2+x,-y,z
1/2+x,1/2+y,1/2+z
1/2-x,-y,1/2+z
1/2+x,1/2-y,-z
-x,1/2+y,1/2-z
1/2-x,1/2-y,1/2-z
1/2+x,y,1/2-z
1/2-x,1/2+y,z
x,1/2-y,1/2+z
loop_
_atom_site_type_symbol
_atom_site_label
_atom_site_fract_x
_atom_site_fract_y
_atom_site_fract_z
Si Si1 0.575196 0.293338 0.406811
Si Si2 0.422731 0.716767 0.329196
Si Si3 0.279822 0.610144 0.064358
Si Si4 0.195811 0.500000 0.250000
O O1 0.500000 0.250000 0.434597
O O2 0.576508 0.599653 0.388087
O O3 0.642671 0.210115 0.442461
O O4 0.582288 0.091989 0.349756
O O5 0.500000 0.750000 0.301794
O O6 0.361681 0.854817 0.292976
O O7 0.266258 0.332339 0.096617
O O8 0.250000 0.540409 0.000000
O O9 0.250000 0.250000 0.250000
#
# Coordination Sequence:
#
# PCOD9531264 Si02
#       4
#    16  16  16   8
#     4  10  21  39  62  87 116 160 213 255 300 370
#     4  10  23  41  62  87 121 167 209 252 310 374
#     4  10  21  37  57  86 119 154 195 248 317 375
#     4  12  26  40  60  96 130 160 206 266 320 372
#
# _framework density 25.646190000000001
#
# number of rings (size 3 to 8) (size 9 to 14) (size 15 to 20)
#    0.000    1.714    0.000    3.429    0.000   11.429 
#    0.000    5.714    0.000    0.000    0.000    0.000 
#    0.000    0.000    0.000    0.000    0.000    0.000 
#
# Total GULP energy -156064.107642 kJ/mol
# GULP energy per Si atom -5573.718130 kJ/mol
# Density = 2.558782 g / cm^3
# Si number density = 25.646190 Si / 1000 Ang^3
#
#
#
# Elastic Constant Matrix: (Units=GPa)
#
#
# Indices 1 2 3 4 5 6 
#
# 1 239.4863 19.0739 46.0193 0.0000 0.0000 0.0000
# 2 19.0739 163.4072 0.4135 0.0000 0.0000 0.0000
# 3 46.0193 0.4135 33.1514 0.0000 0.0000 0.0000
# 4 0.0000 0.0000 0.0000 11.5307 0.0000 0.0000
# 5 0.0000 0.0000 0.0000 0.0000 119.8651 0.0000
# 6 0.0000 0.0000 0.0000 0.0000 0.0000 46.4780
#
#
#
# Elastic Compliance Matrix: (Units=1/GPa)
#
#
# Indices 1 2 3 4 5 6 
#
# 1 0.005763 -0.000653 -0.007992 0.000000 0.000000 0.000000
# 2 -0.000653 0.006194 0.000829 0.000000 0.000000 0.000000
# 3 -0.007992 0.000829 0.041249 0.000000 0.000000 0.000000
# 4 0.000000 0.000000 0.000000 0.086725 0.000000 0.000000
# 5 0.000000 0.000000 0.000000 0.000000 0.008343 0.000000
# 6 0.000000 0.000000 0.000000 0.000000 0.000000 0.021516
#
#
# Mechanical properties :
#
#
# Convention : Reuss Voigt Hill
#
# Bulk Modulus (GPa) = 26.61454 63.00647 44.81050
# Shear Modulus (GPa) = 25.25937 60.27730 42.76834
#
# Velocity S-wave (km/s) = 3.14174 4.85329 4.08809
# Velocity P-wave (km/s) = 4.85395 7.48511 6.30824
#
# Compressibility (1/GPa) = 0.03757344
#
# Stress axis : x y z
#
# Youngs Moduli (GPa) = 173.50985 161.45307 24.24306
#
# Poissons Ratio (x) = 0.10535 0.19376
# Poissons Ratio (y) = 0.11322 -0.02009
# Poissons Ratio (z) = 1.38674 -0.13377
#
# Static dielectric constant tensor:
#      x y z
#    x 2.085590 0.000000 0.000000 
#    y 0.000000 2.187200 0.000000 
#    z 0.000000 0.000000 2.617060 
# 
# From -- ./inp_files/1005.got.cif
#   From: 2010.05.17/outbox.cif.g08.bks.cpg/sg73_1_cif.got.tgz:1005.got - 2010.06.03 17:35:07.
