data_PCOD9531679
_publ_section_title
;
Structure prediction by ZEFSAII (Michael W. Deem and Ramdas Pophale) SiO2 
 PCOD9531679
Probable space group: I B C A 
;
_chemical_formula_sum "Si O2"
_cell_formula_units_Z 120
_cell_length_a 10.849440
_cell_length_b 26.756273
_cell_length_c 17.925845
_cell_angle_alpha 90.000000
_cell_angle_beta 90.000000
_cell_angle_gamma 90.000000
_cell_volume 5203.703916
_symmetry_space_group_name_H-M "I B C A "
_symmetry_group_IT_number 73
_symmetry_cell_setting 'orthorhombic'
loop_
_space_group_symop_operation_xyz
x,y,z
-x,1/2-y,z
x,-y,1/2-z
1/2-x,y,-z
-x,-y,-z
x,1/2+y,-z
-x,y,1/2+z
1/2+x,-y,z
1/2+x,1/2+y,1/2+z
1/2-x,-y,1/2+z
1/2+x,1/2-y,-z
-x,1/2+y,1/2-z
1/2-x,1/2-y,1/2-z
1/2+x,y,1/2-z
1/2-x,1/2+y,z
x,1/2-y,1/2+z
loop_
_atom_site_type_symbol
_atom_site_label
_atom_site_fract_x
_atom_site_fract_y
_atom_site_fract_z
Si Si1 0.427122 0.703552 0.122796
Si Si2 0.114861 0.355246 0.011305
Si Si3 0.755835 0.482114 0.913609
Si Si4 0.327578 0.914694 0.145573
Si Si5 0.576934 0.952627 0.197133
Si Si6 0.250000 0.190251 0.000000
Si Si7 0.085493 0.882485 0.600733
Si Si8 0.245644 0.137910 0.229427
O O1 0.500000 0.750000 0.156229
O O2 0.521831 0.673721 0.068104
O O3 0.325372 0.720293 0.061649
O O4 0.352752 0.672814 0.186283
O O5 0.142936 0.403808 0.060067
O O6 0.250000 0.331248 0.000000
O O7 0.049210 0.372525 0.933840
O O8 0.771043 0.529945 0.860489
O O9 0.622479 0.462225 0.887119
O O10 0.861734 0.439300 0.902668
O O11 0.750000 0.493605 0.000000
O O12 0.451097 0.923117 0.192525
O O13 0.270833 0.863982 0.182435
O O14 0.686214 0.917379 0.225328
O O15 0.561353 0.000000 0.250000
O O16 0.165851 0.151800 0.954309
O O17 0.128249 0.861573 0.681251
#
# Coordination Sequence:
#
# PCOD9531679 Si02
#       8
#    16  16  16  16  16   8  16  16
#     4  10  21  42  73  99 129 175 228 289 361 438
#     4  11  24  42  62  99 138 172 218 292 355 409
#     4  11  22  37  60  89 128 180 232 277 330 407
#     4  12  25  38  60  93 134 180 227 282 334 407
#     4  11  23  39  60  90 131 177 234 276 332 410
#     4   8  16  36  64  98 126 164 222 276 344 414
#     4   9  19  37  63  89 129 180 222 270 338 407
#     4  10  22  44  65  94 133 182 229 284 350 412
#
# _framework density 23.060499
#
# number of rings (size 3 to 8) (size 9 to 14) (size 15 to 20)
#    0.000    1.600    3.333    1.200    4.667    4.267 
#    0.000    0.667    0.000    0.800    0.000    0.000 
#    0.000    0.000    0.000    0.000    0.000    0.000 
#
# Total GULP energy -334188.156518 kJ/mol
# GULP energy per Si atom -5569.802609 kJ/mol
# Density = 2.300801 g / cm^3
# Si number density = 23.060499 Si / 1000 Ang^3
#
#
#
# Elastic Constant Matrix: (Units=GPa)
#
#
# Indices 1 2 3 4 5 6 
#
# 1 104.0948 32.6256 51.8992 0.0000 0.0000 0.0000
# 2 32.6256 76.3616 34.9612 0.0000 0.0000 0.0000
# 3 51.8992 34.9612 95.5394 0.0001 0.0000 0.0000
# 4 0.0000 0.0000 0.0001 7.6602 0.0000 0.0000
# 5 0.0000 0.0000 0.0000 0.0000 21.4799 0.0000
# 6 0.0000 0.0000 0.0000 0.0000 0.0000 23.4005
#
#
#
# Elastic Compliance Matrix: (Units=1/GPa)
#
#
# Indices 1 2 3 4 5 6 
#
# 1 0.013703 -0.002939 -0.006368 0.000000 0.000000 0.000000
# 2 -0.002939 0.016361 -0.004391 0.000000 0.000000 0.000000
# 3 -0.006368 -0.004391 0.015533 0.000000 0.000000 0.000000
# 4 0.000000 0.000000 0.000000 0.130545 0.000000 0.000000
# 5 0.000000 0.000000 0.000000 0.000000 0.046555 0.000000
# 6 0.000000 0.000000 0.000000 0.000000 0.000000 0.042734
#
#
# Mechanical properties :
#
#
# Convention : Reuss Voigt Hill
#
# Bulk Modulus (GPa) = 54.94060 57.21865 56.07962
# Shear Modulus (GPa) = 16.72828 20.94210 18.83519
#
# Velocity S-wave (km/s) = 2.69626 3.01680 2.86102
# Velocity P-wave (km/s) = 5.79391 6.08285 5.94014
#
# Compressibility (1/GPa) = 0.01820148
#
# Stress axis : x y z
#
# Youngs Moduli (GPa) = 72.97786 61.11915 64.37918
#
# Poissons Ratio (x) = 0.17962 0.40998
# Poissons Ratio (y) = 0.21448 0.28267
# Poissons Ratio (z) = 0.46474 0.26836
#
# Static dielectric constant tensor:
#      x y z
#    x 2.013180 0.000000 0.000000 
#    y 0.000000 1.874380 0.000000 
#    z 0.000000 0.000000 1.960730 
# 
# From -- ./inp_files/21557.got.cif
#   From: 2010.05.17/outbox.cif.g08.bks.cpg/sg73_11_cif.got.tgz:21557.got - 2010.06.03 17:35:07.
