data_PCOD9531887
_publ_section_title
;
Structure prediction by ZEFSAII (Michael W. Deem and Ramdas Pophale) SiO2 
 PCOD9531887
Probable space group: I B C A 
;
_chemical_formula_sum "Si O2"
_cell_formula_units_Z 80
_cell_length_a 23.658058
_cell_length_b 8.677964
_cell_length_c 18.370245
_cell_angle_alpha 90.000000
_cell_angle_beta 90.000000
_cell_angle_gamma 90.000000
_cell_volume 3771.480658
_symmetry_space_group_name_H-M "I B C A "
_symmetry_group_IT_number 73
_symmetry_cell_setting 'orthorhombic'
loop_
_space_group_symop_operation_xyz
x,y,z
-x,1/2-y,z
x,-y,1/2-z
1/2-x,y,-z
-x,-y,-z
x,1/2+y,-z
-x,y,1/2+z
1/2+x,-y,z
1/2+x,1/2+y,1/2+z
1/2-x,-y,1/2+z
1/2+x,1/2-y,-z
-x,1/2+y,1/2-z
1/2-x,1/2-y,1/2-z
1/2+x,y,1/2-z
1/2-x,1/2+y,z
x,1/2-y,1/2+z
loop_
_atom_site_type_symbol
_atom_site_label
_atom_site_fract_x
_atom_site_fract_y
_atom_site_fract_z
Si Si1 0.327786 0.677562 0.144965
Si Si2 0.627462 0.168585 0.715786
Si Si3 0.871330 0.014459 0.515303
Si Si4 0.934883 0.773547 0.080078
Si Si5 0.714857 0.483177 0.108362
O O1 0.353903 0.707245 0.224061
O O2 0.372719 0.630664 0.083573
O O3 0.278907 0.552007 0.131114
O O4 0.299559 0.841454 0.127367
O O5 0.576614 0.226112 0.665971
O O6 0.678591 0.130950 0.659900
O O7 0.614801 0.000000 0.750000
O O8 0.915212 0.064804 0.453490
O O9 0.810826 0.029884 0.473534
O O10 0.891700 0.851067 0.545468
O O11 0.000000 0.750000 0.062684
#
# Coordination Sequence:
#
# PCOD9531887 Si02
#       5
#    16  16  16  16  16
#     4  11  22  39  64  97 136 173 212 258 330 404
#     4   9  22  44  63  92 135 171 221 277 325 397
#     4  11  23  41  66  96 132 166 223 277 329 396
#     4  11  24  46  69  93 125 174 227 285 338 383
#     4  10  22  38  64  93 132 179 209 259 324 399
#
# _framework density 21.211828000000001
#
# number of rings (size 3 to 8) (size 9 to 14) (size 15 to 20)
#    0.000    1.600    2.000    1.800    5.600    2.400 
#    3.600    0.000    0.000    0.000    0.000    0.000 
#    0.000    0.000    0.000    0.000    0.000    0.000 
#
# Total GULP energy -223189.753191 kJ/mol
# GULP energy per Si atom -5579.743830 kJ/mol
# Density = 2.116355 g / cm^3
# Si number density = 21.211828 Si / 1000 Ang^3
#
#
#
# Elastic Constant Matrix: (Units=GPa)
#
#
# Indices 1 2 3 4 5 6 
#
# 1 57.6378 0.8589 14.3434 0.0000 0.0000 0.0000
# 2 0.8589 58.5380 29.4884 0.0000 0.0000 0.0000
# 3 14.3434 29.4884 117.7456 0.0000 0.0000 0.0000
# 4 0.0000 0.0000 0.0000 34.0327 0.0000 0.0000
# 5 0.0000 0.0000 0.0000 0.0000 21.2846 0.0000
# 6 0.0000 0.0000 0.0000 0.0000 0.0000 16.5956
#
#
#
# Elastic Compliance Matrix: (Units=1/GPa)
#
#
# Indices 1 2 3 4 5 6 
#
# 1 0.017939 0.000959 -0.002425 0.000000 0.000000 0.000000
# 2 0.000959 0.019600 -0.005026 0.000000 0.000000 0.000000
# 3 -0.002425 -0.005026 0.010047 0.000000 0.000000 0.000000
# 4 0.000000 0.000000 0.000000 0.029383 0.000000 0.000000
# 5 0.000000 0.000000 0.000000 0.000000 0.046982 0.000000
# 6 0.000000 0.000000 0.000000 0.000000 0.000000 0.060257
#
#
# Mechanical properties :
#
#
# Convention : Reuss Voigt Hill
#
# Bulk Modulus (GPa) = 28.90027 35.92253 32.41140
# Shear Modulus (GPa) = 23.95466 26.99797 25.47632
#
# Velocity S-wave (km/s) = 3.36416 3.57147 3.46937
# Velocity P-wave (km/s) = 5.36137 5.82916 5.60015
#
# Compressibility (1/GPa) = 0.03460175
#
# Stress axis : x y z
#
# Youngs Moduli (GPa) = 55.74450 51.01926 99.53290
#
# Poissons Ratio (x) = -0.04890 0.24140
# Poissons Ratio (y) = -0.05343 0.50021
# Poissons Ratio (z) = 0.13520 0.25640
#
# Static dielectric constant tensor:
#      x y z
#    x 1.772930 0.000000 0.000000 
#    y 0.000000 1.767570 0.000000 
#    z 0.000000 0.000000 1.820320 
# 
# From -- ./inp_files/5596.got.cif
#   From: 2010.05.17/outbox.cif.g08.bks.cpg/sg73_3_cif.got.tgz:5596.got - 2010.06.03 17:35:07.
