data_PCOD9531631
_publ_section_title
;
Structure prediction by ZEFSAII (Michael W. Deem and Ramdas Pophale) SiO2 
 PCOD9531631
Probable space group: I B C A 
;
_chemical_formula_sum "Si O2"
_cell_formula_units_Z 96
_cell_length_a 14.618689
_cell_length_b 12.967093
_cell_length_c 23.836152
_cell_angle_alpha 90.000000
_cell_angle_beta 90.000000
_cell_angle_gamma 90.000000
_cell_volume 4518.426257
_symmetry_space_group_name_H-M "I B C A "
_symmetry_group_IT_number 73
_symmetry_cell_setting 'orthorhombic'
loop_
_space_group_symop_operation_xyz
x,y,z
-x,1/2-y,z
x,-y,1/2-z
1/2-x,y,-z
-x,-y,-z
x,1/2+y,-z
-x,y,1/2+z
1/2+x,-y,z
1/2+x,1/2+y,1/2+z
1/2-x,-y,1/2+z
1/2+x,1/2-y,-z
-x,1/2+y,1/2-z
1/2-x,1/2-y,1/2-z
1/2+x,y,1/2-z
1/2-x,1/2+y,z
x,1/2-y,1/2+z
loop_
_atom_site_type_symbol
_atom_site_label
_atom_site_fract_x
_atom_site_fract_y
_atom_site_fract_z
Si Si1 0.071198 0.500000 0.750000
Si Si2 0.819133 0.115810 0.197418
Si Si3 0.712867 0.142805 0.308982
Si Si4 0.837349 0.323157 0.911743
Si Si5 0.024876 0.964871 0.650653
Si Si6 0.750000 0.452927 0.000000
Si Si7 0.834185 0.079187 0.897640
O O1 0.129514 0.573239 0.789403
O O2 0.011183 0.572541 0.710781
O O3 0.791225 0.106057 0.263831
O O4 0.820639 0.239639 0.195867
O O5 0.733606 0.081919 0.157072
O O6 0.907386 0.059594 0.169178
O O7 0.752495 0.142804 0.371574
O O8 0.920444 0.378066 0.881284
O O9 0.823113 0.376186 0.971611
O O10 0.847276 0.200558 0.911440
O O11 0.931285 0.975942 0.614872
O O12 0.712091 0.525170 0.950766
#
# Coordination Sequence:
#
# PCOD9531631 Si02
#       7
#     8  16  16  16  16   8  16
#     4  12  22  36  66 104 144 182 218 276 344 426
#     4  10  21  43  68 103 140 188 225 285 351 425
#     4  10  21  41  70 102 146 183 229 275 355 428
#     4  11  24  43  72 101 134 182 233 289 356 425
#     4  12  23  41  67 103 137 178 232 285 352 419
#     4  12  24  48  72  94 138 186 238 298 358 416
#     4  11  24  45  71 100 137 181 236 293 355 425
#
# _framework density 21.246334000000001
#
# number of rings (size 3 to 8) (size 9 to 14) (size 15 to 20)
#    0.000    1.000    3.333    4.000    0.000    1.333 
#    3.000    0.000    0.000    0.000    0.000    0.000 
#    0.000    0.000    0.000    0.000    0.000    0.000 
#
# Total GULP energy -267615.221817 kJ/mol
# GULP energy per Si atom -5575.317121 kJ/mol
# Density = 2.119798 g / cm^3
# Si number density = 21.246334 Si / 1000 Ang^3
#
#
#
# Elastic Constant Matrix: (Units=GPa)
#
#
# Indices 1 2 3 4 5 6 
#
# 1 111.6400 50.3610 36.2423 0.0000 0.0000 0.0000
# 2 50.3610 121.9089 46.8621 0.0000 0.0000 0.0000
# 3 36.2423 46.8621 106.3178 0.0000 0.0000 0.0000
# 4 0.0000 0.0000 0.0000 34.1911 0.0000 0.0000
# 5 0.0000 0.0000 0.0000 0.0000 33.5496 0.0000
# 6 0.0000 0.0000 0.0000 0.0000 0.0000 12.6364
#
#
#
# Elastic Compliance Matrix: (Units=1/GPa)
#
#
# Indices 1 2 3 4 5 6 
#
# 1 0.011415 -0.003876 -0.002182 0.000000 0.000000 0.000000
# 2 -0.003876 0.011193 -0.003612 0.000000 0.000000 0.000000
# 3 -0.002182 -0.003612 0.011742 0.000000 0.000000 0.000000
# 4 0.000000 0.000000 0.000000 0.029247 0.000000 0.000000
# 5 0.000000 0.000000 0.000000 0.000000 0.029807 0.000000
# 6 0.000000 0.000000 0.000000 0.000000 0.000000 0.079137
#
#
# Mechanical properties :
#
#
# Convention : Reuss Voigt Hill
#
# Bulk Modulus (GPa) = 66.63446 67.42193 67.02819
# Shear Modulus (GPa) = 25.39567 29.83549 27.61558
#
# Velocity S-wave (km/s) = 3.46106 3.75142 3.60916
# Velocity P-wave (km/s) = 6.88497 7.11101 6.99890
#
# Compressibility (1/GPa) = 0.01500725
#
# Stress axis : x y z
#
# Youngs Moduli (GPa) = 87.60761 89.34403 85.16583
#
# Poissons Ratio (x) = 0.34634 0.18587
# Poissons Ratio (y) = 0.33961 0.30762
# Poissons Ratio (z) = 0.19120 0.32271
#
# Static dielectric constant tensor:
#      x y z
#    x 1.847280 0.000000 0.000000 
#    y 0.000000 1.796250 0.000000 
#    z 0.000000 0.000000 1.816740 
# 
# From -- ./inp_files/29504.got.cif
#   From: 2010.05.17/outbox.cif.g08.bks.cpg/sg73_15_cif.got.tgz:29504.got - 2010.06.03 17:35:07.
