data_PCOD9531970
_publ_section_title
;
Structure prediction by ZEFSAII (Michael W. Deem and Ramdas Pophale) SiO2 
 PCOD9531970
Probable space group: I B C A 
;
_chemical_formula_sum "Si O2"
_cell_formula_units_Z 96
_cell_length_a 10.975587
_cell_length_b 18.623306
_cell_length_c 25.441495
_cell_angle_alpha 90.000000
_cell_angle_beta 90.000000
_cell_angle_gamma 90.000000
_cell_volume 5200.285216
_symmetry_space_group_name_H-M "I B C A "
_symmetry_group_IT_number 73
_symmetry_cell_setting 'orthorhombic'
loop_
_space_group_symop_operation_xyz
x,y,z
-x,1/2-y,z
x,-y,1/2-z
1/2-x,y,-z
-x,-y,-z
x,1/2+y,-z
-x,y,1/2+z
1/2+x,-y,z
1/2+x,1/2+y,1/2+z
1/2-x,-y,1/2+z
1/2+x,1/2-y,-z
-x,1/2+y,1/2-z
1/2-x,1/2-y,1/2-z
1/2+x,y,1/2-z
1/2-x,1/2+y,z
x,1/2-y,1/2+z
loop_
_atom_site_type_symbol
_atom_site_label
_atom_site_fract_x
_atom_site_fract_y
_atom_site_fract_z
Si Si1 0.500000 0.250000 0.170069
Si Si2 0.251928 0.500000 0.250000
Si Si3 0.750000 0.711432 0.000000
Si Si4 0.000000 0.250000 0.057838
Si Si5 0.933736 0.983455 0.660777
Si Si6 0.549594 0.631790 0.143252
Si Si7 0.323120 0.355715 0.107721
Si Si8 0.567622 0.874303 0.758771
O O1 0.411733 0.297998 0.134633
O O2 0.419962 0.196790 0.206547
O O3 0.326758 0.514632 0.197017
O O4 0.177647 0.426451 0.242036
O O5 0.700708 0.664643 0.951921
O O6 0.873619 0.749155 0.976215
O O7 0.005703 0.181392 0.097374
O O8 0.882446 0.933384 0.615377
O O9 0.995821 0.929735 0.703232
O O10 0.015860 0.047604 0.639204
O O11 0.693531 0.644390 0.136933
O O12 0.509596 0.649265 0.203157
#
# Coordination Sequence:
#
# PCOD9531970 Si02
#       8
#     8   8   8   8  16  16  16  16
#     4  10  24  36  56  88 124 160 204 250 300 380
#     4  12  18  32  58  82 126 168 188 232 300 366
#     4  10  22  46  64  84 122 162 210 282 316 360
#     4  10  24  40  68  86 118 158 214 266 324 362
#     4  11  20  36  58  88 125 160 196 238 302 372
#     4  11  20  37  57  91 119 157 204 246 301 378
#     4  10  22  40  61  85 117 161 209 254 316 356
#     4  11  20  35  54  87 127 161 194 236 298 366
#
# _framework density 18.460525000000001
#
# number of rings (size 3 to 8) (size 9 to 14) (size 15 to 20)
#    0.000    1.333    5.000    1.000    0.000    3.333 
#    0.000    5.833    0.000    0.000    0.000    0.000 
#    0.000    0.000    0.000    0.000    0.000    0.000 
#
# Total GULP energy -267318.733665 kJ/mol
# GULP energy per Si atom -5569.140285 kJ/mol
# Density = 1.841851 g / cm^3
# Si number density = 18.460525 Si / 1000 Ang^3
#
#
#
# Elastic Constant Matrix: (Units=GPa)
#
#
# Indices 1 2 3 4 5 6 
#
# 1 84.5674 42.6888 48.8605 0.0000 0.0000 0.0000
# 2 42.6888 96.5072 61.1822 0.0000 0.0000 0.0000
# 3 48.8605 61.1822 121.4148 0.0000 0.0000 0.0000
# 4 0.0000 0.0000 0.0000 25.0623 0.0000 0.0000
# 5 0.0000 0.0000 0.0000 0.0000 44.4072 0.0000
# 6 0.0000 0.0000 0.0000 0.0000 0.0000 20.9880
#
#
#
# Elastic Compliance Matrix: (Units=1/GPa)
#
#
# Indices 1 2 3 4 5 6 
#
# 1 0.016685 -0.004590 -0.004402 0.000000 0.000000 0.000000
# 2 -0.004590 0.016489 -0.006462 0.000000 0.000000 0.000000
# 3 -0.004402 -0.006462 0.013264 0.000000 0.000000 0.000000
# 4 0.000000 0.000000 0.000000 0.039901 0.000000 0.000000
# 5 0.000000 0.000000 0.000000 0.000000 0.022519 0.000000
# 6 0.000000 0.000000 0.000000 0.000000 0.000000 0.047646
#
#
# Mechanical properties :
#
#
# Convention : Reuss Voigt Hill
#
# Bulk Modulus (GPa) = 64.38781 67.55028 65.96905
# Shear Modulus (GPa) = 25.96238 28.07537 27.01887
#
# Velocity S-wave (km/s) = 3.75423 3.90402 3.82986
# Velocity P-wave (km/s) = 7.33121 7.54937 7.44109
#
# Compressibility (1/GPa) = 0.01553089
#
# Stress axis : x y z
#
# Youngs Moduli (GPa) = 59.93433 60.64746 75.39405
#
# Poissons Ratio (x) = 0.27837 0.33185
# Poissons Ratio (y) = 0.27510 0.48718
# Poissons Ratio (z) = 0.26380 0.39189
#
# Static dielectric constant tensor:
#      x y z
#    x 1.713090 0.000000 0.000000 
#    y 0.000000 1.636280 0.000000 
#    z 0.000000 0.000000 1.631220 
# 
# From -- ./inp_files/12086.got.cif
#   From: 2010.05.17/outbox.cif.g08.bks.cpg/sg73_7_cif.got.tgz:12086.got - 2010.06.03 17:35:07.
