data_PCOD9531672
_publ_section_title
;
Structure prediction by ZEFSAII (Michael W. Deem and Ramdas Pophale) SiO2 
 PCOD9531672
Probable space group: I B C A 
;
_chemical_formula_sum "Si O2"
_cell_formula_units_Z 56
_cell_length_a 13.032588
_cell_length_b 13.915947
_cell_length_c 14.096768
_cell_angle_alpha 90.000000
_cell_angle_beta 90.000000
_cell_angle_gamma 90.000000
_cell_volume 2556.601177
_symmetry_space_group_name_H-M "I B C A "
_symmetry_group_IT_number 73
_symmetry_cell_setting 'orthorhombic'
loop_
_space_group_symop_operation_xyz
x,y,z
-x,1/2-y,z
x,-y,1/2-z
1/2-x,y,-z
-x,-y,-z
x,1/2+y,-z
-x,y,1/2+z
1/2+x,-y,z
1/2+x,1/2+y,1/2+z
1/2-x,-y,1/2+z
1/2+x,1/2-y,-z
-x,1/2+y,1/2-z
1/2-x,1/2-y,1/2-z
1/2+x,y,1/2-z
1/2-x,1/2+y,z
x,1/2-y,1/2+z
loop_
_atom_site_type_symbol
_atom_site_label
_atom_site_fract_x
_atom_site_fract_y
_atom_site_fract_z
Si Si1 0.462034 0.857639 0.283770
Si Si2 0.783288 0.500000 0.750000
Si Si3 0.120823 0.029684 0.414159
Si Si4 0.513352 0.641633 0.058636
O O1 0.500000 0.750000 0.312130
O O2 0.530818 0.928795 0.346183
O O3 0.481178 0.859327 0.171576
O O4 0.349710 0.907298 0.284224
O O5 0.715035 0.525295 0.842355
O O6 0.112384 0.098788 0.505207
O O7 0.084655 0.927500 0.457210
O O8 0.500000 0.750000 0.026679
#
# Coordination Sequence:
#
# PCOD9531672 Si02
#       4
#    16   8  16  16
#     4  11  23  44  66  96 142 181 228 293 346 406
#     4  12  22  42  70  98 132 182 236 284 342 412
#     4  11  22  43  67 100 135 181 234 288 342 410
#     4  10  21  42  69  95 143 183 222 287 355 402
#
# _framework density 21.904081000000001
#
# number of rings (size 3 to 8) (size 9 to 14) (size 15 to 20)
#    0.000    1.143    5.714    0.857    0.000    2.286 
#    0.000    0.000   12.571    0.000    0.000    0.000 
#    0.000    0.000    0.000    0.000    0.000    0.000 
#
# Total GULP energy -155945.806281 kJ/mol
# GULP energy per Si atom -5569.493081 kJ/mol
# Density = 2.185423 g / cm^3
# Si number density = 21.904081 Si / 1000 Ang^3
#
#
#
# Elastic Constant Matrix: (Units=GPa)
#
#
# Indices 1 2 3 4 5 6 
#
# 1 82.5237 59.3508 12.4663 0.0000 0.0000 0.0000
# 2 59.3508 193.5032 33.5456 0.0000 0.0000 0.0000
# 3 12.4663 33.5456 105.9763 0.0000 0.0000 0.0000
# 4 0.0000 0.0000 0.0000 -4.4607 0.0000 0.0000
# 5 0.0000 0.0000 0.0000 0.0000 20.8139 0.0000
# 6 0.0000 0.0000 0.0000 0.0000 0.0000 13.2476
#
#
#
# Elastic Compliance Matrix: (Units=1/GPa)
#
#
# Indices 1 2 3 4 5 6 
#
# 1 0.015559 -0.004714 -0.000338 0.000000 0.000000 0.000000
# 2 -0.004714 0.006896 -0.001628 0.000000 0.000000 0.000000
# 3 -0.000338 -0.001628 0.009991 0.000000 0.000000 0.000000
# 4 0.000000 0.000000 0.000000 -0.224180 0.000000 0.000000
# 5 0.000000 0.000000 0.000000 0.000000 0.048045 0.000000
# 6 0.000000 0.000000 0.000000 0.000000 0.000000 0.075486
#
#
# Mechanical properties :
#
#
# Convention : Reuss Voigt Hill
#
# Bulk Modulus (GPa) = 52.39497 65.85872 59.12685
# Shear Modulus (GPa) = -103.13268 24.36285 -39.38492
#
# Velocity S-wave (km/s) = -6.86921 3.33866 -4.24496
# Velocity P-wave (km/s) = 6.24040 6.70778 1.73951
#
# Compressibility (1/GPa) = 0.01908580
#
# Stress axis : x y z
#
# Youngs Moduli (GPa) = 64.27244 145.01414 100.08713
#
# Poissons Ratio (x) = 0.68353 0.03385
# Poissons Ratio (y) = 0.30295 0.16298
# Poissons Ratio (z) = 0.02174 0.23613
#
# Static dielectric constant tensor:
#      x y z
#    x 1.830320 0.000000 0.000000 
#    y 0.000000 1.902070 0.000000 
#    z 0.000000 0.000000 1.826720 
# 
# From -- ./inp_files/10212.got.cif
#   From: 2010.05.17/outbox.cif.g08.bks.cpg/sg73_6_cif.got.tgz:10212.got - 2010.06.03 17:35:07.
