data_PCOD9531215
_publ_section_title
;
Structure prediction by ZEFSAII (Michael W. Deem and Ramdas Pophale) SiO2 
 PCOD9531215
Probable space group: I B C A 
;
_chemical_formula_sum "Si O2"
_cell_formula_units_Z 64
_cell_length_a 32.347065
_cell_length_b 5.273571
_cell_length_c 17.772117
_cell_angle_alpha 90.000000
_cell_angle_beta 90.000000
_cell_angle_gamma 90.000000
_cell_volume 3031.648473
_symmetry_space_group_name_H-M "I B C A "
_symmetry_group_IT_number 73
_symmetry_cell_setting 'orthorhombic'
loop_
_space_group_symop_operation_xyz
x,y,z
-x,1/2-y,z
x,-y,1/2-z
1/2-x,y,-z
-x,-y,-z
x,1/2+y,-z
-x,y,1/2+z
1/2+x,-y,z
1/2+x,1/2+y,1/2+z
1/2-x,-y,1/2+z
1/2+x,1/2-y,-z
-x,1/2+y,1/2-z
1/2-x,1/2-y,1/2-z
1/2+x,y,1/2-z
1/2-x,1/2+y,z
x,1/2-y,1/2+z
loop_
_atom_site_type_symbol
_atom_site_label
_atom_site_fract_x
_atom_site_fract_y
_atom_site_fract_z
Si Si1 0.308609 0.145252 0.544380
Si Si2 0.026238 0.499363 0.839535
Si Si3 0.408024 0.628318 0.457097
Si Si4 0.203630 0.748108 0.716401
O O1 0.296607 0.367042 0.485664
O O2 0.358493 0.133229 0.550453
O O3 0.293403 0.223391 0.626985
O O4 0.032785 0.500000 0.750000
O O5 0.069011 0.468278 0.883188
O O6 0.000000 0.250000 0.859077
O O7 0.000000 0.750000 0.859785
O O8 0.419516 0.414064 0.518924
O O9 0.182240 0.500000 0.750000
O O10 0.250000 0.750000 0.750000
O O11 0.183240 0.000000 0.750000
#
# Coordination Sequence:
#
# PCOD9531215 Si02
#       4
#    16  16  16  16
#     4  10  21  39  60  84 116 152 191 238 290 344
#     4  10  21  36  53  78 112 147 186 231 281 335
#     4  10  21  36  56  82 109 144 190 232 279 336
#     4  10  21  39  59  86 117 147 190 238 286 349
#
# _framework density 21.110627999999998
#
# number of rings (size 3 to 8) (size 9 to 14) (size 15 to 20)
#    0.000    2.000    0.000    3.000    0.000    4.000 
#    0.000   18.750    0.000    0.000    0.000    0.000 
#    0.000    0.000    0.000    0.000    0.000    0.000 
#
# Total GULP energy -178690.450050 kJ/mol
# GULP energy per Si atom -5584.076564 kJ/mol
# Density = 2.106258 g / cm^3
# Si number density = 21.110628 Si / 1000 Ang^3
#
#
#
# Elastic Constant Matrix: (Units=GPa)
#
#
# Indices 1 2 3 4 5 6 
#
# 1 63.9787 26.0822 32.6881 0.0000 0.0000 0.0000
# 2 26.0822 177.8324 40.8219 0.0000 0.0000 0.0000
# 3 32.6881 40.8219 100.9822 0.0000 0.0000 0.0000
# 4 0.0000 0.0000 0.0000 28.4196 0.0000 0.0000
# 5 0.0000 0.0000 0.0000 0.0000 144.1442 0.0000
# 6 0.0000 0.0000 0.0000 0.0000 0.0000 173.5636
#
#
#
# Elastic Compliance Matrix: (Units=1/GPa)
#
#
# Indices 1 2 3 4 5 6 
#
# 1 0.019094 -0.001523 -0.005565 0.000000 0.000000 0.000000
# 2 -0.001523 0.006320 -0.002062 0.000000 0.000000 0.000000
# 3 -0.005565 -0.002062 0.012538 0.000000 0.000000 0.000000
# 4 0.000000 0.000000 0.000000 0.035187 0.000000 0.000000
# 5 0.000000 0.000000 0.000000 0.000000 0.006937 0.000000
# 6 0.000000 0.000000 0.000000 0.000000 0.000000 0.005762
#
#
# Mechanical properties :
#
#
# Convention : Reuss Voigt Hill
#
# Bulk Modulus (GPa) = 50.88549 60.21975 55.55262
# Shear Modulus (GPa) = 45.17160 85.43889 65.30524
#
# Velocity S-wave (km/s) = 4.63077 6.36866 5.56794
# Velocity P-wave (km/s) = 7.26282 9.09217 8.22849
#
# Compressibility (1/GPa) = 0.01965197
#
# Stress axis : x y z
#
# Youngs Moduli (GPa) = 52.37116 158.22916 79.75950
#
# Poissons Ratio (x) = 0.24099 0.44388
# Poissons Ratio (y) = 0.07976 0.16445
# Poissons Ratio (z) = 0.29146 0.32624
#
# Static dielectric constant tensor:
#      x y z
#    x 1.733950 0.000000 0.000000 
#    y 0.000000 1.653840 0.000000 
#    z 0.000000 0.000000 1.722620 
# 
# From -- ./inp_files/24048.got.cif
#   From: 2010.05.17/outbox.cif.g08.bks.cpg/sg73_13_cif.got.tgz:24048.got - 2010.06.03 17:35:07.
