data_PCOD9531194
_publ_section_title
;
Structure prediction by ZEFSAII (Michael W. Deem and Ramdas Pophale) SiO2 
 PCOD9531194
Probable space group: I B C A 
;
_chemical_formula_sum "Si O2"
_cell_formula_units_Z 104
_cell_length_a 9.349270
_cell_length_b 19.244772
_cell_length_c 27.970262
_cell_angle_alpha 90.000000
_cell_angle_beta 90.000000
_cell_angle_gamma 90.000000
_cell_volume 5032.537350
_symmetry_space_group_name_H-M "I B C A "
_symmetry_group_IT_number 73
_symmetry_cell_setting 'orthorhombic'
loop_
_space_group_symop_operation_xyz
x,y,z
-x,1/2-y,z
x,-y,1/2-z
1/2-x,y,-z
-x,-y,-z
x,1/2+y,-z
-x,y,1/2+z
1/2+x,-y,z
1/2+x,1/2+y,1/2+z
1/2-x,-y,1/2+z
1/2+x,1/2-y,-z
-x,1/2+y,1/2-z
1/2-x,1/2-y,1/2-z
1/2+x,y,1/2-z
1/2-x,1/2+y,z
x,1/2-y,1/2+z
loop_
_atom_site_type_symbol
_atom_site_label
_atom_site_fract_x
_atom_site_fract_y
_atom_site_fract_z
Si Si1 0.712804 0.135002 0.286893
Si Si2 0.491686 0.537832 0.156842
Si Si3 0.282413 0.861192 0.178536
Si Si4 0.522913 0.372444 0.143979
Si Si5 0.000000 0.250000 0.188642
Si Si6 0.952578 0.585597 0.541797
Si Si7 0.129008 0.949072 0.444590
O O1 0.609512 0.070581 0.301906
O O2 0.785909 0.128369 0.235666
O O3 0.834171 0.146857 0.327195
O O4 0.608210 0.201012 0.282900
O O5 0.653143 0.566904 0.159083
O O6 0.500333 0.455093 0.154563
O O7 0.424042 0.566852 0.108070
O O8 0.396206 0.803378 0.161975
O O9 0.123805 0.840698 0.163487
O O10 0.528208 0.362955 0.086482
O O11 0.933365 0.602143 0.485656
O O12 0.799110 0.551319 0.553575
O O13 0.072997 0.526551 0.544510
#
# Coordination Sequence:
#
# PCOD9531194 Si02
#       7
#    16  16  16  16   8  16  16
#     4  11  22  39  58  82 109 151 191 234 279 328
#     4  10  21  35  53  86 126 154 172 221 282 344
#     4  11  24  37  58  80 111 150 191 232 281 331
#     4  11  21  34  56  89 118 150 186 220 277 352
#     4  10  24  44  58  76 104 146 196 258 282 302
#     4   9  18  30  52  80 114 156 189 219 262 324
#     4   9  17  32  50  78 117 158 185 220 263 323
#
# _framework density 20.665519
#
# number of rings (size 3 to 8) (size 9 to 14) (size 15 to 20)
#    0.000    1.846    1.538    3.231    6.462    4.308 
#    0.000    0.000    0.000    0.000    0.000   17.231 
#    0.000    1.231    0.000    0.000    0.000    0.000 
#
# Total GULP energy -289983.043032 kJ/mol
# GULP energy per Si atom -5576.596981 kJ/mol
# Density = 2.061848 g / cm^3
# Si number density = 20.665519 Si / 1000 Ang^3
#
#
#
# Elastic Constant Matrix: (Units=GPa)
#
#
# Indices 1 2 3 4 5 6 
#
# 1 100.3469 7.9209 22.6224 0.0000 0.0000 0.0000
# 2 7.9209 37.6787 8.8253 0.0000 0.0000 0.0000
# 3 22.6224 8.8253 88.9643 0.0000 0.0000 0.0000
# 4 0.0000 0.0000 0.0000 -4.2407 0.0000 0.0000
# 5 0.0000 0.0000 0.0000 0.0000 28.8470 0.0000
# 6 0.0000 0.0000 0.0000 0.0000 0.0000 30.9580
#
#
#
# Elastic Compliance Matrix: (Units=1/GPa)
#
#
# Indices 1 2 3 4 5 6 
#
# 1 0.010670 -0.001646 -0.002550 0.000000 0.000000 0.000000
# 2 -0.001646 0.027425 -0.002302 0.000000 0.000000 0.000000
# 3 -0.002550 -0.002302 0.012117 0.000000 0.000000 0.000000
# 4 0.000000 0.000000 0.000000 -0.235810 0.000000 0.000000
# 5 0.000000 0.000000 0.000000 0.000000 0.034666 0.000000
# 6 0.000000 0.000000 0.000000 0.000000 0.000000 0.032302
#
#
# Mechanical properties :
#
#
# Convention : Reuss Voigt Hill
#
# Bulk Modulus (GPa) = 26.86945 33.96968 30.41956
# Shear Modulus (GPa) = -53.63198 23.62094 -15.00552
#
# Velocity S-wave (km/s) = -5.09988 3.38451 -2.69757
# Velocity P-wave (km/s) = 4.65274 5.63443 2.24708
#
# Compressibility (1/GPa) = 0.03721699
#
# Stress axis : x y z
#
# Youngs Moduli (GPa) = 93.71875 36.46252 82.52681
#
# Poissons Ratio (x) = 0.06001 0.21045
# Poissons Ratio (y) = 0.15425 0.18998
# Poissons Ratio (z) = 0.23899 0.08394
#
# Static dielectric constant tensor:
#      x y z
#    x 1.765350 0.000000 0.000000 
#    y 0.000000 1.770320 0.000000 
#    z 0.000000 0.000000 1.791490 
# 
# From -- ./inp_files/25056.got.cif
#   From: 2010.05.17/outbox.cif.g08.bks.cpg/sg73_13_cif.got.tgz:25056.got - 2010.06.03 17:35:07.
