data_PCOD9531774
_publ_section_title
;
Structure prediction by ZEFSAII (Michael W. Deem and Ramdas Pophale) SiO2 
 PCOD9531774
Probable space group: I B C A 
;
_chemical_formula_sum "Si O2"
_cell_formula_units_Z 88
_cell_length_a 8.925407
_cell_length_b 23.035788
_cell_length_c 21.740180
_cell_angle_alpha 90.000000
_cell_angle_beta 90.000000
_cell_angle_gamma 90.000000
_cell_volume 4469.863261
_symmetry_space_group_name_H-M "I B C A "
_symmetry_group_IT_number 73
_symmetry_cell_setting 'orthorhombic'
loop_
_space_group_symop_operation_xyz
x,y,z
-x,1/2-y,z
x,-y,1/2-z
1/2-x,y,-z
-x,-y,-z
x,1/2+y,-z
-x,y,1/2+z
1/2+x,-y,z
1/2+x,1/2+y,1/2+z
1/2-x,-y,1/2+z
1/2+x,1/2-y,-z
-x,1/2+y,1/2-z
1/2-x,1/2-y,1/2-z
1/2+x,y,1/2-z
1/2-x,1/2+y,z
x,1/2-y,1/2+z
loop_
_atom_site_type_symbol
_atom_site_label
_atom_site_fract_x
_atom_site_fract_y
_atom_site_fract_z
Si Si1 0.456814 0.190825 0.663043
Si Si2 0.619349 0.975695 0.546302
Si Si3 0.873702 0.080656 0.357144
Si Si4 0.550166 0.409188 0.850652
Si Si5 0.611232 0.302265 0.292800
Si Si6 0.517368 0.000000 0.750000
O O1 0.500000 0.250000 0.626671
O O2 0.492349 0.127578 0.633470
O O3 0.287165 0.198206 0.689291
O O4 0.573057 0.192365 0.720538
O O5 0.750000 0.955847 0.500000
O O6 0.652077 0.029380 0.592786
O O7 0.500000 0.000000 0.500000
O O8 0.537665 0.929116 0.588977
O O9 0.716733 0.113960 0.359989
O O10 0.898719 0.047875 0.291946
O O11 0.450263 0.360927 0.820572
O O12 0.565721 0.463148 0.802834
O O13 0.500000 0.250000 0.314189
#
# Coordination Sequence:
#
# PCOD9531774 Si02
#       6
#    16  16  16  16  16   8
#     4  11  22  37  59  88 125 161 200 244 306 370
#     4  11  24  43  62  89 122 165 211 251 310 361
#     4  11  22  37  61  88 127 160 200 257 300 373
#     4  11  22  37  61  88 127 160 200 257 298 376
#     4  11  22  37  59  88 125 161 200 244 305 370
#     4  10  22  32  58  90 130 154 202 228 324 352
#
# _framework density 19.687404000000001
#
# number of rings (size 3 to 8) (size 9 to 14) (size 15 to 20)
#    0.000    1.091    3.636    4.909    2.545    1.455 
#    0.000    0.000    0.000    1.091    0.000    0.000 
#    0.000    0.000    0.000    0.000    0.000    0.000 
#
# Total GULP energy -244989.398963 kJ/mol
# GULP energy per Si atom -5567.940886 kJ/mol
# Density = 1.964259 g / cm^3
# Si number density = 19.687404 Si / 1000 Ang^3
#
#
#
# Elastic Constant Matrix: (Units=GPa)
#
#
# Indices 1 2 3 4 5 6 
#
# 1 119.5810 21.4659 10.0211 0.0000 0.0000 0.0000
# 2 21.4659 83.8997 14.4326 0.0000 0.0000 0.0000
# 3 10.0211 14.4326 74.0840 0.0000 0.0000 0.0000
# 4 0.0000 0.0000 0.0000 19.9932 0.0000 0.0000
# 5 0.0000 0.0000 0.0000 0.0000 8.8355 0.0000
# 6 0.0000 0.0000 0.0000 0.0000 0.0000 34.1731
#
#
#
# Elastic Compliance Matrix: (Units=1/GPa)
#
#
# Indices 1 2 3 4 5 6 
#
# 1 0.008808 -0.002120 -0.000779 0.000000 0.000000 0.000000
# 2 -0.002120 0.012842 -0.002215 0.000000 0.000000 0.000000
# 3 -0.000779 -0.002215 0.014035 0.000000 0.000000 0.000000
# 4 0.000000 0.000000 0.000000 0.050017 0.000000 0.000000
# 5 0.000000 0.000000 0.000000 0.000000 0.113179 0.000000
# 6 0.000000 0.000000 0.000000 0.000000 0.000000 0.029263
#
#
# Mechanical properties :
#
#
# Convention : Reuss Voigt Hill
#
# Bulk Modulus (GPa) = 39.27890 41.04489 40.16189
# Shear Modulus (GPa) = 20.25457 28.04338 24.14898
#
# Velocity S-wave (km/s) = 3.21098 3.77826 3.50611
# Velocity P-wave (km/s) = 5.80877 6.31880 6.06915
#
# Compressibility (1/GPa) = 0.02545896
#
# Stress axis : x y z
#
# Youngs Moduli (GPa) = 113.52955 77.86723 71.25018
#
# Poissons Ratio (x) = 0.16505 0.05547
# Poissons Ratio (y) = 0.24065 0.15783
# Poissons Ratio (z) = 0.08839 0.17249
#
# Static dielectric constant tensor:
#      x y z
#    x 1.664200 0.000000 0.000000 
#    y 0.000000 1.759720 0.000000 
#    z 0.000000 0.000000 1.646390 
# 
# From -- ./inp_files/7074.got.cif
#   From: 2010.05.17/outbox.cif.g08.bks.cpg/sg73_4_cif.got.tgz:7074.got - 2010.06.03 17:35:07.
