data_PCOD9531137
_publ_section_title
;
Structure prediction by ZEFSAII (Michael W. Deem and Ramdas Pophale) SiO2 
 PCOD9531137
Probable space group: I B C A 
;
_chemical_formula_sum "Si O2"
_cell_formula_units_Z 56
_cell_length_a 11.608405
_cell_length_b 13.080659
_cell_length_c 13.887834
_cell_angle_alpha 90.000000
_cell_angle_beta 90.000000
_cell_angle_gamma 90.000000
_cell_volume 2108.806311
_symmetry_space_group_name_H-M "I B C A "
_symmetry_group_IT_number 73
_symmetry_cell_setting 'orthorhombic'
loop_
_space_group_symop_operation_xyz
x,y,z
-x,1/2-y,z
x,-y,1/2-z
1/2-x,y,-z
-x,-y,-z
x,1/2+y,-z
-x,y,1/2+z
1/2+x,-y,z
1/2+x,1/2+y,1/2+z
1/2-x,-y,1/2+z
1/2+x,1/2-y,-z
-x,1/2+y,1/2-z
1/2-x,1/2-y,1/2-z
1/2+x,y,1/2-z
1/2-x,1/2+y,z
x,1/2-y,1/2+z
loop_
_atom_site_type_symbol
_atom_site_label
_atom_site_fract_x
_atom_site_fract_y
_atom_site_fract_z
Si Si1 0.865759 0.707370 0.838539
Si Si2 0.856671 0.895222 0.699821
Si Si3 0.501482 0.866885 0.482124
Si Si4 0.750000 0.349260 0.000000
O O1 0.895319 0.792221 0.757135
O O2 0.780546 0.621627 0.798980
O O3 0.955866 0.648034 0.907991
O O4 0.788841 0.775282 0.913137
O O5 0.907823 0.909880 0.593020
O O6 0.889036 0.000000 0.750000
O O7 0.500000 0.750000 0.447990
O O8 0.369848 0.905763 0.474723
#
# Coordination Sequence:
#
# PCOD9531137 Si02
#       4
#    16  16  16   8
#     4  10  21  44  71 104 144 196 242 312 380 447
#     4  11  23  43  73 112 146 188 253 317 373 446
#     4  10  20  43  73 101 141 196 247 299 372 448
#     4  10  20  44  74  94 142 204 238 292 366 454
#
# _framework density 26.555306999999999
#
# number of rings (size 3 to 8) (size 9 to 14) (size 15 to 20)
#    0.000    1.714    5.714    0.000    0.000    3.429 
#    5.143    7.143    0.000    1.714    0.000    0.000 
#    0.000    0.000    0.000    0.000    0.000    0.000 
#
# Total GULP energy -156310.804502 kJ/mol
# GULP energy per Si atom -5582.528732 kJ/mol
# Density = 2.649487 g / cm^3
# Si number density = 26.555307 Si / 1000 Ang^3
#
#
#
# Elastic Constant Matrix: (Units=GPa)
#
#
# Indices 1 2 3 4 5 6 
#
# 1 157.1937 46.0928 65.3618 0.0000 0.0000 0.0000
# 2 46.0928 85.3060 22.6581 0.0000 0.0000 0.0000
# 3 65.3618 22.6581 114.2903 0.0000 0.0000 0.0000
# 4 0.0000 0.0000 0.0000 27.4974 0.0000 0.0000
# 5 0.0000 0.0000 0.0000 0.0000 48.3752 0.0000
# 6 0.0000 0.0000 0.0000 0.0000 0.0000 -21.9440
#
#
#
# Elastic Compliance Matrix: (Units=1/GPa)
#
#
# Indices 1 2 3 4 5 6 
#
# 1 0.009414 -0.003860 -0.004618 0.000000 0.000000 0.000000
# 2 -0.003860 0.013957 -0.000560 0.000000 0.000000 0.000000
# 3 -0.004618 -0.000560 0.011502 0.000000 0.000000 0.000000
# 4 0.000000 0.000000 0.000000 0.036367 0.000000 0.000000
# 5 0.000000 0.000000 0.000000 0.000000 0.020672 0.000000
# 6 0.000000 0.000000 0.000000 0.000000 0.000000 -0.045571
#
#
# Mechanical properties :
#
#
# Convention : Reuss Voigt Hill
#
# Bulk Modulus (GPa) = 59.53544 69.44616 64.49080
# Shear Modulus (GPa) = 71.41351 25.63088 48.52219
#
# Velocity S-wave (km/s) = 5.19141 3.11012 4.27923
# Velocity P-wave (km/s) = 7.64215 6.25343 6.98240
#
# Compressibility (1/GPa) = 0.01679672
#
# Stress axis : x y z
#
# Youngs Moduli (GPa) = 106.22803 71.65048 86.94261
#
# Poissons Ratio (x) = 0.27655 0.40154
# Poissons Ratio (y) = 0.41001 0.04865
# Poissons Ratio (z) = 0.49061 0.04009
#
# Static dielectric constant tensor:
#      x y z
#    x 2.282320 0.000000 0.000000 
#    y 0.000000 2.038420 0.000000 
#    z 0.000000 0.000000 2.039500 
# 
# From -- ./inp_files/16539.got.cif
#   From: 2010.05.17/outbox.cif.g08.bks.cpg/sg73_9_cif.got.tgz:16539.got - 2010.06.03 17:35:07.
