data_PCOD9531379
_publ_section_title
;
Structure prediction by ZEFSAII (Michael W. Deem and Ramdas Pophale) SiO2 
 PCOD9531379
Probable space group: I B C A 
;
_chemical_formula_sum "Si O2"
_cell_formula_units_Z 88
_cell_length_a 10.969938
_cell_length_b 10.980752
_cell_length_c 29.098710
_cell_angle_alpha 90.000000
_cell_angle_beta 90.000000
_cell_angle_gamma 90.000000
_cell_volume 3505.177316
_symmetry_space_group_name_H-M "I B C A "
_symmetry_group_IT_number 73
_symmetry_cell_setting 'orthorhombic'
loop_
_space_group_symop_operation_xyz
x,y,z
-x,1/2-y,z
x,-y,1/2-z
1/2-x,y,-z
-x,-y,-z
x,1/2+y,-z
-x,y,1/2+z
1/2+x,-y,z
1/2+x,1/2+y,1/2+z
1/2-x,-y,1/2+z
1/2+x,1/2-y,-z
-x,1/2+y,1/2-z
1/2-x,1/2-y,1/2-z
1/2+x,y,1/2-z
1/2-x,1/2+y,z
x,1/2-y,1/2+z
loop_
_atom_site_type_symbol
_atom_site_label
_atom_site_fract_x
_atom_site_fract_y
_atom_site_fract_z
Si Si1 0.204758 0.374334 0.876999
Si Si2 0.353364 0.596599 0.209802
Si Si3 0.500000 0.750000 0.933809
Si Si4 0.151107 0.371007 0.609493
Si Si5 0.387098 0.912418 0.507341
Si Si6 0.636868 0.246715 0.708207
O O1 0.239990 0.509802 0.891456
O O2 0.290168 0.261220 0.887982
O O3 0.193674 0.357062 0.821992
O O4 0.076481 0.344162 0.902597
O O5 0.386073 0.500000 0.250000
O O6 0.413372 0.601696 0.159200
O O7 0.370098 0.722806 0.238103
O O8 0.207963 0.620341 0.200382
O O9 0.597392 0.810031 0.968346
O O10 0.092322 0.371548 0.559733
O O11 0.250000 0.963270 0.500000
O O12 0.500000 0.000000 0.500000
O O13 0.500000 0.250000 0.690965
#
# Coordination Sequence:
#
# PCOD9531379 Si02
#       6
#    16  16   8  16  16  16
#     4  11  22  43  74 104 141 195 243 301 376 458
#     4  10  21  40  65  99 138 183 234 295 362 440
#     4  12  24  44  74 104 144 194 256 308 384 452
#     4  11  24  45  74 105 147 193 245 308 382 459
#     4  12  27  48  76 111 149 200 255 325 383 459
#     4  10  21  38  64  98 139 181 237 296 361 435
#
# _framework density 25.105718
#
# number of rings (size 3 to 8) (size 9 to 14) (size 15 to 20)
#    0.000    1.091    6.364    0.000    0.000    2.909 
#    1.636    0.000    0.000    0.000    0.000    0.000 
#    0.000    0.000    0.000    0.000    0.000    0.000 
#
# Total GULP energy -245127.538809 kJ/mol
# GULP energy per Si atom -5571.080427 kJ/mol
# Density = 2.504858 g / cm^3
# Si number density = 25.105718 Si / 1000 Ang^3
#
#
#
# Elastic Constant Matrix: (Units=GPa)
#
#
# Indices 1 2 3 4 5 6 
#
# 1 66.4311 2.8108 16.4419 0.0000 0.0000 0.0000
# 2 2.8108 74.6389 23.1148 0.0000 0.0000 0.0000
# 3 16.4419 23.1148 226.7125 0.0000 0.0000 0.0000
# 4 0.0000 0.0000 0.0000 30.0069 0.0000 0.0000
# 5 0.0000 0.0000 0.0000 0.0000 20.2698 0.0000
# 6 0.0000 0.0000 0.0000 0.0000 0.0000 21.6992
#
#
#
# Elastic Compliance Matrix: (Units=1/GPa)
#
#
# Indices 1 2 3 4 5 6 
#
# 1 0.015333 -0.000241 -0.001087 0.000000 0.000000 0.000000
# 2 -0.000241 0.013838 -0.001393 0.000000 0.000000 0.000000
# 3 -0.001087 -0.001393 0.004632 0.000000 0.000000 0.000000
# 4 0.000000 0.000000 0.000000 0.033326 0.000000 0.000000
# 5 0.000000 0.000000 0.000000 0.000000 0.049334 0.000000
# 6 0.000000 0.000000 0.000000 0.000000 0.000000 0.046085
#
#
# Mechanical properties :
#
#
# Convention : Reuss Voigt Hill
#
# Bulk Modulus (GPa) = 35.26130 50.27972 42.77051
# Shear Modulus (GPa) = 28.17791 36.08950 32.13370
#
# Velocity S-wave (km/s) = 3.35381 3.79555 3.58150
# Velocity P-wave (km/s) = 5.39194 6.26729 5.84602
#
# Compressibility (1/GPa) = 0.02835970
#
# Stress axis : x y z
#
# Youngs Moduli (GPa) = 65.22087 72.26251 215.89839
#
# Poissons Ratio (x) = 0.01739 0.23477
# Poissons Ratio (y) = 0.01569 0.30085
# Poissons Ratio (z) = 0.07092 0.10070
#
# Static dielectric constant tensor:
#      x y z
#    x 2.163250 0.000000 0.000000 
#    y 0.000000 2.091420 0.000000 
#    z 0.000000 0.000000 2.041580 
# 
# From -- ./inp_files/14680.got.cif
#   From: 2010.05.17/outbox.cif.g08.bks.cpg/sg73_8_cif.got.tgz:14680.got - 2010.06.03 17:35:07.
