data_PCOD9531754
_publ_section_title
;
Structure prediction by ZEFSAII (Michael W. Deem and Ramdas Pophale) SiO2 
 PCOD9531754
Probable space group: I B C A 
;
_chemical_formula_sum "Si O2"
_cell_formula_units_Z 120
_cell_length_a 18.696226
_cell_length_b 11.998436
_cell_length_c 23.975092
_cell_angle_alpha 90.000000
_cell_angle_beta 90.000000
_cell_angle_gamma 90.000000
_cell_volume 5378.223808
_symmetry_space_group_name_H-M "I B C A "
_symmetry_group_IT_number 73
_symmetry_cell_setting 'orthorhombic'
loop_
_space_group_symop_operation_xyz
x,y,z
-x,1/2-y,z
x,-y,1/2-z
1/2-x,y,-z
-x,-y,-z
x,1/2+y,-z
-x,y,1/2+z
1/2+x,-y,z
1/2+x,1/2+y,1/2+z
1/2-x,-y,1/2+z
1/2+x,1/2-y,-z
-x,1/2+y,1/2-z
1/2-x,1/2-y,1/2-z
1/2+x,y,1/2-z
1/2-x,1/2+y,z
x,1/2-y,1/2+z
loop_
_atom_site_type_symbol
_atom_site_label
_atom_site_fract_x
_atom_site_fract_y
_atom_site_fract_z
Si Si1 0.078178 0.531938 0.354863
Si Si2 0.814190 0.378009 0.418865
Si Si3 0.130969 0.219633 0.839224
Si Si4 0.414090 0.757454 0.218195
Si Si5 0.938836 0.095411 0.502456
Si Si6 0.157666 0.077410 0.536160
Si Si7 0.084070 0.925443 0.375279
Si Si8 0.500000 0.750000 0.408364
O O1 0.115553 0.412123 0.346139
O O2 0.097280 0.620142 0.307339
O O3 0.103340 0.588277 0.412774
O O4 0.992224 0.521254 0.357282
O O5 0.807742 0.273210 0.377283
O O6 0.850980 0.350102 0.479438
O O7 0.735628 0.413779 0.438185
O O8 0.130454 0.251803 0.774802
O O9 0.143062 0.480383 0.889741
O O10 0.063388 0.282317 0.867446
O O11 0.500000 0.750000 0.230043
O O12 0.396430 0.662616 0.172663
O O13 0.932646 0.136396 0.565698
O O14 0.963297 0.167181 0.450989
O O15 0.861898 0.044104 0.487597
O O16 0.000000 0.000000 0.500000
#
# Coordination Sequence:
#
# PCOD9531754 Si02
#       8
#    16  16  16  16  16  16  16   8
#     4  11  22  42  67  96 133 183 232 293 346 412
#     4  10  24  41  68  99 138 177 220 285 356 432
#     4  12  22  41  64 100 132 181 232 287 349 415
#     4  10  24  40  64  98 136 182 236 295 348 407
#     4  11  20  36  64  98 136 166 217 277 344 419
#     4  10  21  45  63  99 138 173 218 276 358 420
#     4  10  22  40  66 100 136 177 231 289 355 415
#     4  12  22  32  64 102 128 168 218 286 346 408
#
# _framework density 22.312199
#
# number of rings (size 3 to 8) (size 9 to 14) (size 15 to 20)
#    0.000    1.333    3.333    2.800    2.800    0.533 
#    2.400    2.000    2.933    0.000    0.000    0.000 
#    0.000    0.000    0.000    0.000    0.000    0.000 
#
# Total GULP energy -334903.420932 kJ/mol
# GULP energy per Si atom -5581.723682 kJ/mol
# Density = 2.226142 g / cm^3
# Si number density = 22.312199 Si / 1000 Ang^3
#
#
#
# Elastic Constant Matrix: (Units=GPa)
#
#
# Indices 1 2 3 4 5 6 
#
# 1 70.7972 47.1303 31.6406 0.0000 0.0000 0.0000
# 2 47.1303 116.7681 76.4836 0.0000 0.0000 0.0000
# 3 31.6406 76.4836 188.2232 0.0000 0.0000 0.0000
# 4 0.0000 0.0000 0.0000 27.7692 0.0000 0.0000
# 5 0.0000 0.0000 0.0000 0.0000 21.1307 0.0000
# 6 0.0000 0.0000 0.0000 0.0000 0.0000 16.3609
#
#
#
# Elastic Compliance Matrix: (Units=1/GPa)
#
#
# Indices 1 2 3 4 5 6 
#
# 1 0.019316 -0.007726 -0.000108 0.000000 0.000000 0.000000
# 2 -0.007726 0.014760 -0.004699 0.000000 0.000000 0.000000
# 3 -0.000108 -0.004699 0.007240 0.000000 0.000000 0.000000
# 4 0.000000 0.000000 0.000000 0.036011 0.000000 0.000000
# 5 0.000000 0.000000 0.000000 0.000000 0.047325 0.000000
# 6 0.000000 0.000000 0.000000 0.000000 0.000000 0.061121
#
#
# Mechanical properties :
#
#
# Convention : Reuss Voigt Hill
#
# Bulk Modulus (GPa) = 61.53265 76.25526 68.89396
# Shear Modulus (GPa) = 23.12071 27.75442 25.43756
#
# Velocity S-wave (km/s) = 3.22255 3.53074 3.38016
# Velocity P-wave (km/s) = 6.44084 7.13247 6.79546
#
# Compressibility (1/GPa) = 0.01625154
#
# Stress axis : x y z
#
# Youngs Moduli (GPa) = 51.77000 67.74966 138.11474
#
# Poissons Ratio (x) = 0.52343 0.01487
# Poissons Ratio (y) = 0.39997 0.64900
# Poissons Ratio (z) = 0.00557 0.31836
#
# Static dielectric constant tensor:
#      x y z
#    x 1.955970 0.000000 0.000000 
#    y 0.000000 1.963730 0.000000 
#    z 0.000000 0.000000 1.850310 
# 
# From -- ./inp_files/26995.got.cif
#   From: 2010.05.17/outbox.cif.g08.bks.cpg/sg73_14_cif.got.tgz:26995.got - 2010.06.03 17:35:07.
