data_PCOD9531001
_publ_section_title
;
Structure prediction by ZEFSAII (Michael W. Deem and Ramdas Pophale) SiO2 
 PCOD9531001
Probable space group: I B C A 
;
_chemical_formula_sum "Si O2"
_cell_formula_units_Z 104
_cell_length_a 15.681140
_cell_length_b 20.286188
_cell_length_c 14.699987
_cell_angle_alpha 90.000000
_cell_angle_beta 90.000000
_cell_angle_gamma 90.000000
_cell_volume 4676.221010
_symmetry_space_group_name_H-M "I B C A "
_symmetry_group_IT_number 73
_symmetry_cell_setting 'orthorhombic'
loop_
_space_group_symop_operation_xyz
x,y,z
-x,1/2-y,z
x,-y,1/2-z
1/2-x,y,-z
-x,-y,-z
x,1/2+y,-z
-x,y,1/2+z
1/2+x,-y,z
1/2+x,1/2+y,1/2+z
1/2-x,-y,1/2+z
1/2+x,1/2-y,-z
-x,1/2+y,1/2-z
1/2-x,1/2-y,1/2-z
1/2+x,y,1/2-z
1/2-x,1/2+y,z
x,1/2-y,1/2+z
loop_
_atom_site_type_symbol
_atom_site_label
_atom_site_fract_x
_atom_site_fract_y
_atom_site_fract_z
Si Si1 0.270764 0.167872 0.199337
Si Si2 0.500659 0.932705 0.298274
Si Si3 0.833020 0.755822 0.941636
Si Si4 0.062281 0.310750 0.193661
Si Si5 0.798814 0.557917 0.179797
Si Si6 0.750000 0.496810 0.000000
Si Si7 0.872042 0.109707 0.454246
O O1 0.207983 0.218682 0.152745
O O2 0.362428 0.192158 0.231957
O O3 0.229401 0.127573 0.279902
O O4 0.293796 0.119917 0.116092
O O5 0.487150 0.877163 0.220282
O O6 0.599000 0.941054 0.325291
O O7 0.449956 0.910798 0.389333
O O8 0.469423 0.000000 0.250000
O O9 0.897626 0.699491 0.907432
O O10 0.750000 0.735254 0.000000
O O11 0.875876 0.820265 0.991195
O O12 0.000000 0.250000 0.206437
O O13 0.775388 0.500000 0.250000
O O14 0.749426 0.542169 0.088194
O O15 0.664274 0.452027 0.989788
#
# Coordination Sequence:
#
# PCOD9531001 Si02
#       7
#    16  16  16  16  16   8  16
#     4  10  20  40  68  92 132 185 242 296 359 449
#     4  10  25  44  71 104 149 196 244 304 376 451
#     4  10  20  42  67  99 136 189 243 305 371 442
#     4  11  24  42  69 101 136 187 242 300 371 443
#     4  11  22  42  69 103 144 196 247 298 370 450
#     4  12  22  36  70 104 142 194 252 300 368 464
#     4  10  20  40  67 101 142 185 239 302 376 434
#
# _framework density 22.240181
#
# number of rings (size 3 to 8) (size 9 to 14) (size 15 to 20)
#    0.000    1.538    3.846    1.385    4.308    1.846 
#    4.154    6.923    0.000    0.000    0.000    0.000 
#    0.000    0.000    0.000    0.000    0.000    0.000 
#
# Total GULP energy -290227.150494 kJ/mol
# GULP energy per Si atom -5581.291356 kJ/mol
# Density = 2.218956 g / cm^3
# Si number density = 22.240181 Si / 1000 Ang^3
#
#
#
# Elastic Constant Matrix: (Units=GPa)
#
#
# Indices 1 2 3 4 5 6 
#
# 1 56.3360 19.4480 21.2073 0.0000 0.0000 0.0000
# 2 19.4480 82.4843 28.1410 0.0000 0.0000 0.0000
# 3 21.2073 28.1410 81.7703 0.0000 0.0000 0.0000
# 4 0.0000 0.0000 0.0000 2.9028 0.0000 0.0000
# 5 0.0000 0.0000 0.0000 0.0000 -0.7048 0.0000
# 6 0.0000 0.0000 0.0000 0.0000 0.0000 32.9895
#
#
#
# Elastic Compliance Matrix: (Units=1/GPa)
#
#
# Indices 1 2 3 4 5 6 
#
# 1 0.020488 -0.003419 -0.004137 0.000000 0.000000 0.000000
# 2 -0.003419 0.014307 -0.004037 0.000000 0.000000 0.000000
# 3 -0.004137 -0.004037 0.014692 0.000000 0.000000 0.000000
# 4 0.000000 0.000000 0.000000 0.344491 -0.000002 0.000000
# 5 0.000000 0.000000 0.000000 -0.000002 -1.418819 0.000000
# 6 0.000000 0.000000 0.000000 0.000000 0.000000 0.030313
#
#
# Mechanical properties :
#
#
# Convention : Reuss Voigt Hill
#
# Bulk Modulus (GPa) = 38.02196 39.79815 38.91006
# Shear Modulus (GPa) = -5.19440 17.15712 5.98136
#
# Velocity S-wave (km/s) = -1.52992 2.78051 1.64173
# Velocity P-wave (km/s) = 3.74330 5.31431 4.59642
#
# Compressibility (1/GPa) = 0.02630059
#
# Stress axis : x y z
#
# Youngs Moduli (GPa) = 48.80823 69.89598 68.06613
#
# Poissons Ratio (x) = 0.23900 0.28159
# Poissons Ratio (y) = 0.16689 0.27478
# Poissons Ratio (z) = 0.20192 0.28216
#
# Static dielectric constant tensor:
#      x y z
#    x 1.810250 0.000000 0.000000 
#    y 0.000000 1.908480 0.000000 
#    z 0.000000 0.000000 1.670030 
# 
# From -- ./inp_files/18160.got.cif
#   From: 2010.05.17/outbox.cif.g08.bks.cpg/sg73_10_cif.got.tgz:18160.got - 2010.06.03 17:35:07.
