data_PCOD9531337
_publ_section_title
;
Structure prediction by ZEFSAII (Michael W. Deem and Ramdas Pophale) SiO2 
 PCOD9531337
Probable space group: I B C A 
;
_chemical_formula_sum "Si O2"
_cell_formula_units_Z 88
_cell_length_a 8.952214
_cell_length_b 24.584638
_cell_length_c 17.865258
_cell_angle_alpha 90.000000
_cell_angle_beta 90.000000
_cell_angle_gamma 90.000000
_cell_volume 3931.909974
_symmetry_space_group_name_H-M "I B C A "
_symmetry_group_IT_number 73
_symmetry_cell_setting 'orthorhombic'
loop_
_space_group_symop_operation_xyz
x,y,z
-x,1/2-y,z
x,-y,1/2-z
1/2-x,y,-z
-x,-y,-z
x,1/2+y,-z
-x,y,1/2+z
1/2+x,-y,z
1/2+x,1/2+y,1/2+z
1/2-x,-y,1/2+z
1/2+x,1/2-y,-z
-x,1/2+y,1/2-z
1/2-x,1/2-y,1/2-z
1/2+x,y,1/2-z
1/2-x,1/2+y,z
x,1/2-y,1/2+z
loop_
_atom_site_type_symbol
_atom_site_label
_atom_site_fract_x
_atom_site_fract_y
_atom_site_fract_z
Si Si1 0.280077 0.591186 0.782913
Si Si2 0.039926 0.955228 0.587194
Si Si3 0.698786 0.934946 0.608437
Si Si4 0.537714 0.647013 0.626695
Si Si5 0.750000 0.628687 0.500000
Si Si6 0.391289 0.211546 0.241776
O O1 0.397270 0.556674 0.829602
O O2 0.275482 0.569434 0.698763
O O3 0.120008 0.598671 0.824447
O O4 0.339449 0.653242 0.786560
O O5 0.132058 0.912051 0.538460
O O6 0.865048 0.945048 0.579407
O O7 0.092950 0.017056 0.577899
O O8 0.611429 0.879199 0.591739
O O9 0.657458 0.661329 0.562766
O O10 0.484106 0.693216 0.683981
O O11 0.500000 0.250000 0.193739
O O12 0.250000 0.250000 0.250000
#
# Coordination Sequence:
#
# PCOD9531337 Si02
#       6
#    16  16  16  16   8  16
#     4  10  21  38  59  95 127 157 201 265 333 379
#     4  11  23  37  60  87 126 174 205 263 307 392
#     4  11  22  36  60  91 125 160 215 258 323 368
#     4  10  22  40  62  89 127 168 207 263 313 397
#     4  10  24  44  60  82 124 174 220 246 310 382
#     4  11  21  37  66  98 125 154 202 271 337 392
#
# _framework density 22.380980000000001
#
# number of rings (size 3 to 8) (size 9 to 14) (size 15 to 20)
#    0.000    1.455    1.818    4.909    2.545    5.091 
#    0.000    0.000    0.000    8.727    0.000    0.000 
#    0.000    0.000    0.000    0.000    0.000    0.000 
#
# Total GULP energy -245640.263328 kJ/mol
# GULP energy per Si atom -5582.733257 kJ/mol
# Density = 2.233004 g / cm^3
# Si number density = 22.380980 Si / 1000 Ang^3
#
#
#
# Elastic Constant Matrix: (Units=GPa)
#
#
# Indices 1 2 3 4 5 6 
#
# 1 161.5589 27.6556 24.4654 0.0000 0.0000 0.0000
# 2 27.6556 73.4453 2.5268 0.0000 0.0000 0.0000
# 3 24.4654 2.5268 95.6631 0.0000 0.0000 0.0000
# 4 0.0000 0.0000 0.0000 6.9041 0.0000 0.0000
# 5 0.0000 0.0000 0.0000 0.0000 34.4500 0.0000
# 6 0.0000 0.0000 0.0000 0.0000 0.0000 36.8630
#
#
#
# Elastic Compliance Matrix: (Units=1/GPa)
#
#
# Indices 1 2 3 4 5 6 
#
# 1 0.006879 -0.002532 -0.001692 0.000000 0.000000 0.000000
# 2 -0.002532 0.014560 0.000263 0.000000 0.000000 0.000000
# 3 -0.001692 0.000263 0.010879 0.000000 0.000000 0.000000
# 4 0.000000 0.000000 0.000000 0.144842 0.000000 0.000000
# 5 0.000000 0.000000 0.000000 0.000000 0.029028 0.000000
# 6 0.000000 0.000000 0.000000 0.000000 0.000000 0.027127
#
#
# Mechanical properties :
#
#
# Convention : Reuss Voigt Hill
#
# Bulk Modulus (GPa) = 40.99144 48.88476 44.93810
# Shear Modulus (GPa) = 20.05048 34.04473 27.04760
#
# Velocity S-wave (km/s) = 2.99636 3.90442 3.48013
# Velocity P-wave (km/s) = 5.50690 6.49734 6.02252
#
# Compressibility (1/GPa) = 0.02439534
#
# Stress axis : x y z
#
# Youngs Moduli (GPa) = 145.36038 68.68120 91.91810
#
# Poissons Ratio (x) = 0.17391 0.15557
# Poissons Ratio (y) = 0.36808 -0.02418
# Poissons Ratio (z) = 0.24602 -0.01806
#
# Static dielectric constant tensor:
#      x y z
#    x 1.683740 0.000000 0.000000 
#    y 0.000000 1.671540 0.000000 
#    z 0.000000 0.000000 1.919970 
# 
# From -- ./inp_files/24778.got.cif
#   From: 2010.05.17/outbox.cif.g08.bks.cpg/sg73_13_cif.got.tgz:24778.got - 2010.06.03 17:35:07.
