data_PCOD9531903
_publ_section_title
;
Structure prediction by ZEFSAII (Michael W. Deem and Ramdas Pophale) SiO2 
 PCOD9531903
Probable space group: I B C A 
;
_chemical_formula_sum "Si O2"
_cell_formula_units_Z 88
_cell_length_a 17.699087
_cell_length_b 13.904420
_cell_length_c 16.870624
_cell_angle_alpha 90.000000
_cell_angle_beta 90.000000
_cell_angle_gamma 90.000000
_cell_volume 4151.785311
_symmetry_space_group_name_H-M "I B C A "
_symmetry_group_IT_number 73
_symmetry_cell_setting 'orthorhombic'
loop_
_space_group_symop_operation_xyz
x,y,z
-x,1/2-y,z
x,-y,1/2-z
1/2-x,y,-z
-x,-y,-z
x,1/2+y,-z
-x,y,1/2+z
1/2+x,-y,z
1/2+x,1/2+y,1/2+z
1/2-x,-y,1/2+z
1/2+x,1/2-y,-z
-x,1/2+y,1/2-z
1/2-x,1/2-y,1/2-z
1/2+x,y,1/2-z
1/2-x,1/2+y,z
x,1/2-y,1/2+z
loop_
_atom_site_type_symbol
_atom_site_label
_atom_site_fract_x
_atom_site_fract_y
_atom_site_fract_z
Si Si1 0.500000 0.250000 0.773246
Si Si2 0.000000 0.250000 0.473540
Si Si3 0.703750 0.574895 0.603657
Si Si4 0.374082 0.500000 0.250000
Si Si5 0.374887 0.757829 0.092099
Si Si6 0.500725 0.590228 0.355646
Si Si7 0.639092 0.514947 0.055933
O O1 0.573494 0.260085 0.829518
O O2 0.476494 0.338913 0.716779
O O3 0.068939 0.283930 0.525789
O O4 0.971364 0.337220 0.421723
O O5 0.678564 0.564302 0.694844
O O6 0.697238 0.689128 0.588764
O O7 0.652443 0.518629 0.536324
O O8 0.786713 0.531884 0.594949
O O9 0.431717 0.536239 0.316576
O O10 0.361460 0.869945 0.072409
O O11 0.565219 0.527214 0.398428
#
# Coordination Sequence:
#
# PCOD9531903 Si02
#       7
#     8   8  16   8  16  16  16
#     4  10  22  40  68 104 138 172 228 298 348 404
#     4  10  22  38  72  98 134 178 242 292 342 418
#     4  11  26  47  66 107 140 190 235 291 352 439
#     4  12  24  42  70  98 144 172 240 296 350 408
#     4  11  22  45  68 100 139 185 234 295 353 413
#     4  11  22  41  67 105 134 182 234 289 349 421
#     4  11  26  45  74  98 146 193 238 285 363 430
#
# _framework density 21.195702000000001
#
# number of rings (size 3 to 8) (size 9 to 14) (size 15 to 20)
#    0.000    1.091    3.636    2.182    2.545    6.545 
#    6.545    1.818    0.000    0.000    0.000    0.000 
#    0.000    0.000    0.000    0.000    0.000    0.000 
#
# Total GULP energy -245103.214657 kJ/mol
# GULP energy per Si atom -5570.527606 kJ/mol
# Density = 2.114746 g / cm^3
# Si number density = 21.195702 Si / 1000 Ang^3
#
#
#
# Elastic Constant Matrix: (Units=GPa)
#
#
# Indices 1 2 3 4 5 6 
#
# 1 55.4000 14.8035 30.4678 0.0000 0.0000 0.0000
# 2 14.8035 93.6436 22.1763 0.0000 0.0000 0.0000
# 3 30.4678 22.1763 92.1420 0.0000 0.0000 0.0000
# 4 0.0000 0.0000 0.0000 -7.6696 0.0000 0.0000
# 5 0.0000 0.0000 0.0000 0.0000 31.9288 0.0000
# 6 0.0000 0.0000 0.0000 0.0000 0.0000 32.5082
#
#
#
# Elastic Compliance Matrix: (Units=1/GPa)
#
#
# Indices 1 2 3 4 5 6 
#
# 1 0.022375 -0.001893 -0.006943 0.000000 0.000000 0.000000
# 2 -0.001893 0.011484 -0.002138 0.000000 0.000000 0.000000
# 3 -0.006943 -0.002138 0.013663 0.000000 0.000000 0.000000
# 4 0.000000 0.000000 0.000000 -0.130385 0.000000 0.000000
# 5 0.000000 0.000000 0.000000 0.000000 0.031320 0.000000
# 6 0.000000 0.000000 0.000000 0.000000 0.000000 0.030761
#
#
# Mechanical properties :
#
#
# Convention : Reuss Voigt Hill
#
# Bulk Modulus (GPa) = 39.10151 41.78675 40.44413
# Shear Modulus (GPa) = 515.96753 22.93602 269.45177
#
# Velocity S-wave (km/s) = 15.61918 3.29311 11.28723
# Velocity P-wave (km/s) = 18.54093 5.84952 13.74742
#
# Compressibility (1/GPa) = 0.02557446
#
# Stress axis : x y z
#
# Youngs Moduli (GPa) = 44.69351 87.07495 73.18971
#
# Poissons Ratio (x) = 0.16482 0.50814
# Poissons Ratio (y) = 0.08460 0.15649
# Poissons Ratio (z) = 0.31030 0.18617
#
# Static dielectric constant tensor:
#      x y z
#    x 1.826210 0.000000 0.000000 
#    y 0.000000 2.005830 0.000000 
#    z 0.000000 0.000000 1.823110 
# 
# From -- ./inp_files/21980.got.cif
#   From: 2010.05.17/outbox.cif.g08.bks.cpg/sg73_11_cif.got.tgz:21980.got - 2010.06.03 17:35:07.
