data_PCOD9531481
_publ_section_title
;
Structure prediction by ZEFSAII (Michael W. Deem and Ramdas Pophale) SiO2 
 PCOD9531481
Probable space group: I B C A 
;
_chemical_formula_sum "Si O2"
_cell_formula_units_Z 96
_cell_length_a 9.295032
_cell_length_b 18.463016
_cell_length_c 26.996414
_cell_angle_alpha 90.000000
_cell_angle_beta 90.000000
_cell_angle_gamma 90.000000
_cell_volume 4632.971354
_symmetry_space_group_name_H-M "I B C A "
_symmetry_group_IT_number 73
_symmetry_cell_setting 'orthorhombic'
loop_
_space_group_symop_operation_xyz
x,y,z
-x,1/2-y,z
x,-y,1/2-z
1/2-x,y,-z
-x,-y,-z
x,1/2+y,-z
-x,y,1/2+z
1/2+x,-y,z
1/2+x,1/2+y,1/2+z
1/2-x,-y,1/2+z
1/2+x,1/2-y,-z
-x,1/2+y,1/2-z
1/2-x,1/2-y,1/2-z
1/2+x,y,1/2-z
1/2-x,1/2+y,z
x,1/2-y,1/2+z
loop_
_atom_site_type_symbol
_atom_site_label
_atom_site_fract_x
_atom_site_fract_y
_atom_site_fract_z
Si Si1 0.536509 0.367090 0.380322
Si Si2 0.081267 0.926430 0.990985
Si Si3 0.398395 0.806120 0.474498
Si Si4 0.754737 0.263893 0.123080
Si Si5 0.312322 0.677381 0.775833
Si Si6 0.538286 0.077729 0.277543
O O1 0.555135 0.400623 0.434585
O O2 0.671831 0.314233 0.369285
O O3 0.392031 0.318002 0.381559
O O4 0.516452 0.422709 0.334647
O O5 0.250000 0.930169 0.000000
O O6 0.004102 0.872791 0.029698
O O7 0.000000 0.000000 0.000000
O O8 0.500000 0.750000 0.504563
O O9 0.250000 0.828724 0.500000
O O10 0.342186 0.767212 0.425527
O O11 0.663870 0.294721 0.168626
O O12 0.250000 0.750000 0.750000
O O13 0.447148 0.641469 0.749097
O O14 0.197604 0.611583 0.777013
O O15 0.528967 0.000000 0.250000
#
# Coordination Sequence:
#
# PCOD9531481 Si02
#       6
#    16  16  16  16  16  16
#     4  10  21  44  68  94 137 181 224 279 357 414
#     4  12  27  47  67  97 140 183 225 283 351 420
#     4  12  23  40  68 101 133 172 234 287 336 411
#     4  10  21  39  71  99 128 180 228 283 343 411
#     4  11  22  43  69  97 138 179 235 288 350 425
#     4  11  24  43  67 102 138 183 229 293 357 423
#
# _framework density 20.721043999999999
#
# number of rings (size 3 to 8) (size 9 to 14) (size 15 to 20)
#    0.000    1.000    3.333    4.000    0.000    2.667 
#    9.000    0.000    0.000    0.000    0.000    0.000 
#    0.000    0.000    0.000    0.000    0.000    0.000 
#
# Total GULP energy -268040.592956 kJ/mol
# GULP energy per Si atom -5584.179020 kJ/mol
# Density = 2.067388 g / cm^3
# Si number density = 20.721044 Si / 1000 Ang^3
#
#
#
# Elastic Constant Matrix: (Units=GPa)
#
#
# Indices 1 2 3 4 5 6 
#
# 1 99.7868 14.3875 5.5064 0.0000 0.0000 0.0000
# 2 14.3875 111.2238 15.7360 0.0000 0.0000 0.0000
# 3 5.5064 15.7360 93.9496 0.0000 0.0000 0.0000
# 4 0.0000 0.0000 0.0000 38.6219 0.0000 0.0000
# 5 0.0000 0.0000 0.0000 0.0000 28.2174 0.0000
# 6 0.0000 0.0000 0.0000 0.0000 0.0000 32.2467
#
#
#
# Elastic Compliance Matrix: (Units=1/GPa)
#
#
# Indices 1 2 3 4 5 6 
#
# 1 0.010226 -0.001268 -0.000387 0.000000 0.000000 0.000000
# 2 -0.001268 0.009366 -0.001494 0.000000 0.000000 0.000000
# 3 -0.000387 -0.001494 0.010917 0.000000 0.000000 0.000000
# 4 0.000000 0.000000 0.000000 0.025892 0.000000 0.000000
# 5 0.000000 0.000000 0.000000 0.000000 0.035439 0.000000
# 6 0.000000 0.000000 0.000000 0.000000 0.000000 0.031011
#
#
# Mechanical properties :
#
#
# Convention : Reuss Voigt Hill
#
# Bulk Modulus (GPa) = 41.30517 41.80221 41.55369
# Shear Modulus (GPa) = 36.43788 37.77256 37.10522
#
# Velocity S-wave (km/s) = 4.19799 4.27418 4.23626
# Velocity P-wave (km/s) = 6.59354 6.67651 6.63515
#
# Compressibility (1/GPa) = 0.02421005
#
# Stress axis : x y z
#
# Youngs Moduli (GPa) = 97.79430 106.76529 91.60030
#
# Poissons Ratio (x) = 0.13538 0.03544
# Poissons Ratio (y) = 0.12400 0.13690
# Poissons Ratio (z) = 0.03784 0.15956
#
# Static dielectric constant tensor:
#      x y z
#    x 1.730370 0.000000 0.000000 
#    y 0.000000 1.814470 0.000000 
#    z 0.000000 0.000000 1.774200 
# 
# From -- ./inp_files/31171.got.cif
#   From: 2010.05.17/outbox.cif.g08.bks.cpg/sg73_16_cif.got.tgz:31171.got - 2010.06.03 17:35:07.
