data_PCOD9531863
_publ_section_title
;
Structure prediction by ZEFSAII (Michael W. Deem and Ramdas Pophale) SiO2 
 PCOD9531863
Probable space group: I B C A 
;
_chemical_formula_sum "Si O2"
_cell_formula_units_Z 64
_cell_length_a 8.160326
_cell_length_b 29.252595
_cell_length_c 11.066296
_cell_angle_alpha 90.000000
_cell_angle_beta 90.000000
_cell_angle_gamma 90.000000
_cell_volume 2641.643392
_symmetry_space_group_name_H-M "I B C A "
_symmetry_group_IT_number 73
_symmetry_cell_setting 'orthorhombic'
loop_
_space_group_symop_operation_xyz
x,y,z
-x,1/2-y,z
x,-y,1/2-z
1/2-x,y,-z
-x,-y,-z
x,1/2+y,-z
-x,y,1/2+z
1/2+x,-y,z
1/2+x,1/2+y,1/2+z
1/2-x,-y,1/2+z
1/2+x,1/2-y,-z
-x,1/2+y,1/2-z
1/2-x,1/2-y,1/2-z
1/2+x,y,1/2-z
1/2-x,1/2+y,z
x,1/2-y,1/2+z
loop_
_atom_site_type_symbol
_atom_site_label
_atom_site_fract_x
_atom_site_fract_y
_atom_site_fract_z
Si Si1 0.833650 0.500000 0.750000
Si Si2 0.109765 0.643312 0.589903
Si Si3 0.065712 0.540231 0.584509
Si Si4 0.000000 0.250000 0.167377
Si Si5 0.274620 0.683541 0.826496
O O1 0.941316 0.540684 0.697295
O O2 0.728258 0.479278 0.643697
O O3 0.250000 0.664885 0.500000
O O4 0.185399 0.650804 0.725638
O O5 0.088608 0.591419 0.543216
O O6 0.919830 0.659531 0.597997
O O7 0.000000 0.500000 0.500000
O O8 0.130060 0.213986 0.110839
O O9 0.116233 0.281060 0.249502
#
# Coordination Sequence:
#
# PCOD9531863 Si02
#       5
#     8  16  16   8  16
#     4  10  22  38  60  82 110 166 216 266 336 382
#     4  11  22  38  60  94 131 172 220 270 332 396
#     4  11  22  39  59  86 123 166 219 275 325 386
#     4   8  16  38  66  92 128 166 206 270 344 396
#     4   9  19  38  65  94 132 170 211 273 331 404
#
# _framework density 24.227345
#
# number of rings (size 3 to 8) (size 9 to 14) (size 15 to 20)
#    0.000    2.000    0.000    3.750    0.000    2.000 
#    0.000   17.500    0.000    0.000    0.000    3.500 
#    0.000    0.000    0.000    0.000    0.000    0.000 
#
# Total GULP energy -178278.941661 kJ/mol
# GULP energy per Si atom -5571.216927 kJ/mol
# Density = 2.417220 g / cm^3
# Si number density = 24.227345 Si / 1000 Ang^3
#
#
#
# Elastic Constant Matrix: (Units=GPa)
#
#
# Indices 1 2 3 4 5 6 
#
# 1 213.1381 58.0055 51.4555 0.0002 0.0000 0.0000
# 2 58.0055 118.2738 37.6256 0.0003 0.0001 0.0000
# 3 51.4555 37.6256 70.0095 0.0008 0.0005 0.0000
# 4 0.0002 0.0003 0.0008 78.8825 0.0004 0.0001
# 5 0.0000 0.0001 0.0005 0.0004 62.8821 0.0001
# 6 0.0000 0.0000 0.0000 0.0001 0.0001 -9.2388
#
#
#
# Elastic Compliance Matrix: (Units=1/GPa)
#
#
# Indices 1 2 3 4 5 6 
#
# 1 0.006027 -0.001866 -0.003427 0.000000 0.000000 0.000000
# 2 -0.001866 0.010776 -0.004420 0.000000 0.000000 0.000000
# 3 -0.003427 -0.004420 0.019178 0.000000 0.000000 0.000000
# 4 0.000000 0.000000 0.000000 0.012677 0.000000 0.000000
# 5 0.000000 0.000000 0.000000 0.000000 0.015903 0.000000
# 6 0.000000 0.000000 0.000000 0.000000 0.000000 -0.108239
#
#
# Mechanical properties :
#
#
# Convention : Reuss Voigt Hill
#
# Bulk Modulus (GPa) = 60.40327 77.28830 68.84578
# Shear Modulus (GPa) = -266.89864 43.46081 -111.71892
#
# Velocity S-wave (km/s) = -10.50730 4.24001 -6.79800
# Velocity P-wave (km/s) = 11.05525 7.47936 5.75664
#
# Compressibility (1/GPa) = 0.01655540
#
# Stress axis : x y z
#
# Youngs Moduli (GPa) = 165.92431 92.79796 52.14265
#
# Poissons Ratio (x) = 0.17312 0.17869
# Poissons Ratio (y) = 0.30954 0.23049
# Poissons Ratio (z) = 0.56862 0.41020
#
# Static dielectric constant tensor:
#      x y z
#    x 1.995700 0.000000 0.000000 
#    y 0.000000 1.846940 0.000000 
#    z 0.000000 0.000000 1.867040 
# 
# From -- ./inp_files/9058.got.cif
#   From: 2010.05.17/outbox.cif.g08.bks.cpg/sg73_5_cif.got.tgz:9058.got - 2010.06.03 17:35:07.
