data_PCOD9531740
_publ_section_title
;
Structure prediction by ZEFSAII (Michael W. Deem and Ramdas Pophale) SiO2 
 PCOD9531740
Probable space group: I B C A 
;
_chemical_formula_sum "Si O2"
_cell_formula_units_Z 112
_cell_length_a 28.046206
_cell_length_b 13.656408
_cell_length_c 13.427472
_cell_angle_alpha 90.000000
_cell_angle_beta 90.000000
_cell_angle_gamma 90.000000
_cell_volume 5142.861851
_symmetry_space_group_name_H-M "I B C A "
_symmetry_group_IT_number 73
_symmetry_cell_setting 'orthorhombic'
loop_
_space_group_symop_operation_xyz
x,y,z
-x,1/2-y,z
x,-y,1/2-z
1/2-x,y,-z
-x,-y,-z
x,1/2+y,-z
-x,y,1/2+z
1/2+x,-y,z
1/2+x,1/2+y,1/2+z
1/2-x,-y,1/2+z
1/2+x,1/2-y,-z
-x,1/2+y,1/2-z
1/2-x,1/2-y,1/2-z
1/2+x,y,1/2-z
1/2-x,1/2+y,z
x,1/2-y,1/2+z
loop_
_atom_site_type_symbol
_atom_site_label
_atom_site_fract_x
_atom_site_fract_y
_atom_site_fract_z
Si Si1 0.818430 0.544595 0.153253
Si Si2 0.229374 0.136828 0.608251
Si Si3 0.379757 0.698204 0.293120
Si Si4 0.809413 0.168706 0.607076
Si Si5 0.612053 0.146078 0.545988
Si Si6 0.378369 0.058162 0.356275
Si Si7 0.943569 0.243296 0.629003
O O1 0.843958 0.500000 0.250000
O O2 0.768784 0.595235 0.182486
O O3 0.802548 0.446858 0.098551
O O4 0.750000 0.607962 0.000000
O O5 0.142396 0.124464 0.376232
O O6 0.232364 0.254196 0.610866
O O7 0.176096 0.097915 0.627128
O O8 0.340286 0.697183 0.205137
O O9 0.388435 0.799173 0.349160
O O10 0.426425 0.681774 0.226456
O O11 0.840823 0.185784 0.509448
O O12 0.571894 0.184788 0.470399
O O13 0.612221 0.029515 0.564010
O O14 0.414937 0.151074 0.366706
O O15 0.381113 0.000000 0.250000
O O16 0.000000 0.250000 0.630887
#
# Coordination Sequence:
#
# PCOD9531740 Si02
#       7
#    16  16  16  16  16  16  16
#     4  10  23  37  61  96 133 187 234 277 346 411
#     4  12  23  38  64 101 141 190 233 289 337 420
#     4  10  21  44  68  94 141 182 224 297 349 418
#     4  10  22  41  59 102 141 185 238 285 339 419
#     4  11  22  41  74  98 136 189 222 294 357 418
#     4  12  24  48  73 104 148 192 239 291 363 424
#     4  11  26  49  73 107 140 175 246 303 362 437
#
# _framework density 21.777757000000001
#
# number of rings (size 3 to 8) (size 9 to 14) (size 15 to 20)
#    0.000    1.143    4.286    2.143    2.000    6.286 
#    0.000    3.571    0.000    0.000    0.000    0.000 
#    0.000    0.000    0.000    0.000    0.000    0.000 
#
# Total GULP energy -311786.696126 kJ/mol
# GULP energy per Si atom -5567.619574 kJ/mol
# Density = 2.172819 g / cm^3
# Si number density = 21.777757 Si / 1000 Ang^3
#
#
#
# Elastic Constant Matrix: (Units=GPa)
#
#
# Indices 1 2 3 4 5 6 
#
# 1 115.3308 79.9403 16.6288 0.0000 0.0000 0.0000
# 2 79.9403 155.3756 44.8448 0.0000 0.0000 0.0000
# 3 16.6288 44.8448 77.1637 0.0000 0.0000 0.0000
# 4 0.0000 0.0000 0.0000 32.1937 0.0000 0.0000
# 5 0.0000 0.0000 0.0000 0.0000 10.4750 0.0000
# 6 0.0000 0.0000 0.0000 0.0000 0.0000 4.4119
#
#
#
# Elastic Compliance Matrix: (Units=1/GPa)
#
#
# Indices 1 2 3 4 5 6 
#
# 1 0.013595 -0.007388 0.001364 0.000000 0.000000 0.000000
# 2 -0.007388 0.011748 -0.005236 0.000000 0.000000 0.000000
# 3 0.001364 -0.005236 0.015708 0.000000 0.000000 0.000000
# 4 0.000000 0.000000 0.000000 0.031062 0.000000 0.000000
# 5 0.000000 0.000000 0.000000 0.000000 0.095466 0.000000
# 6 0.000000 0.000000 0.000000 0.000000 0.000000 0.226662
#
#
# Mechanical properties :
#
#
# Convention : Reuss Voigt Hill
#
# Bulk Modulus (GPa) = 53.96030 70.07753 62.01891
# Shear Modulus (GPa) = 11.82205 23.17985 17.50095
#
# Velocity S-wave (km/s) = 2.33244 3.26603 2.83789
# Velocity P-wave (km/s) = 5.66438 6.81696 6.26722
#
# Compressibility (1/GPa) = 0.01853214
#
# Stress axis : x y z
#
# Youngs Moduli (GPa) = 73.55516 85.11766 63.66091
#
# Poissons Ratio (x) = 0.62889 -0.08684
# Poissons Ratio (y) = 0.54346 0.33330
# Poissons Ratio (z) = -0.10034 0.44564
#
# Static dielectric constant tensor:
#      x y z
#    x 1.769170 0.000000 0.000000 
#    y 0.000000 1.902620 0.000000 
#    z 0.000000 0.000000 2.031870 
# 
# From -- ./inp_files/14821.got.cif
#   From: 2010.05.17/outbox.cif.g08.bks.cpg/sg73_8_cif.got.tgz:14821.got - 2010.06.03 17:35:07.
