data_PCOD9531756
_publ_section_title
;
Structure prediction by ZEFSAII (Michael W. Deem and Ramdas Pophale) SiO2 
 PCOD9531756
Probable space group: I B C A 
;
_chemical_formula_sum "Si O2"
_cell_formula_units_Z 96
_cell_length_a 23.076236
_cell_length_b 17.681091
_cell_length_c 10.628969
_cell_angle_alpha 90.000000
_cell_angle_beta 90.000000
_cell_angle_gamma 90.000000
_cell_volume 4336.757833
_symmetry_space_group_name_H-M "I B C A "
_symmetry_group_IT_number 73
_symmetry_cell_setting 'orthorhombic'
loop_
_space_group_symop_operation_xyz
x,y,z
-x,1/2-y,z
x,-y,1/2-z
1/2-x,y,-z
-x,-y,-z
x,1/2+y,-z
-x,y,1/2+z
1/2+x,-y,z
1/2+x,1/2+y,1/2+z
1/2-x,-y,1/2+z
1/2+x,1/2-y,-z
-x,1/2+y,1/2-z
1/2-x,1/2-y,1/2-z
1/2+x,y,1/2-z
1/2-x,1/2+y,z
x,1/2-y,1/2+z
loop_
_atom_site_type_symbol
_atom_site_label
_atom_site_fract_x
_atom_site_fract_y
_atom_site_fract_z
Si Si1 0.836082 0.176190 0.560894
Si Si2 0.525906 0.165201 0.466146
Si Si3 0.533719 0.330189 0.232200
Si Si4 0.818084 0.997077 0.889934
Si Si5 0.187214 0.054101 0.645661
Si Si6 0.830328 0.709102 0.723867
O O1 0.906297 0.174143 0.563897
O O2 0.817334 0.089431 0.565179
O O3 0.816175 0.220098 0.686474
O O4 0.817465 0.212109 0.425831
O O5 0.500000 0.250000 0.480374
O O6 0.489461 0.128220 0.355019
O O7 0.520584 0.128181 0.602324
O O8 0.500000 0.250000 0.232661
O O9 0.600745 0.307975 0.232939
O O10 0.845948 0.000000 0.750000
O O11 0.752290 0.023968 0.871912
O O12 0.841671 0.046704 0.007586
O O13 0.194289 0.135911 0.705982
O O14 0.157823 0.000000 0.750000
#
# Coordination Sequence:
#
# PCOD9531756 Si02
#       6
#    16  16  16  16  16  16
#     4  11  22  37  62 100 126 158 217 263 311 376
#     4   9  16  30  52  85 126 160 192 250 308 363
#     4   9  16  30  51  86 125 162 191 250 309 359
#     4  10  23  43  66  84 120 172 205 265 326 381
#     4  10  21  45  66  80 121 172 207 253 325 384
#     4  11  22  36  64  98 124 164 214 262 310 382
#
# _framework density 22.136351999999999
#
# number of rings (size 3 to 8) (size 9 to 14) (size 15 to 20)
#    0.000    2.000    5.000    0.000    2.333    0.000 
#    0.000    6.667    0.000    2.000    0.000    0.000 
#    0.000    0.000    0.000    0.000    0.000    0.000 
#
# Total GULP energy -267664.315988 kJ/mol
# GULP energy per Si atom -5576.339916 kJ/mol
# Density = 2.208597 g / cm^3
# Si number density = 22.136352 Si / 1000 Ang^3
#
#
#
# Elastic Constant Matrix: (Units=GPa)
#
#
# Indices 1 2 3 4 5 6 
#
# 1 59.2021 16.9493 2.4830 0.0000 0.0000 0.0000
# 2 16.9493 42.4719 -0.6894 0.0000 0.0000 0.0000
# 3 2.4830 -0.6894 209.5030 0.0000 0.0000 0.0000
# 4 0.0000 0.0000 0.0000 28.6463 0.0000 0.0000
# 5 0.0000 0.0000 0.0000 0.0000 14.4529 0.0000
# 6 0.0000 0.0000 0.0000 0.0000 0.0000 -135.4388
#
#
#
# Elastic Compliance Matrix: (Units=1/GPa)
#
#
# Indices 1 2 3 4 5 6 
#
# 1 0.019083 -0.007620 -0.000251 0.000000 0.000000 0.000000
# 2 -0.007620 0.026589 0.000178 0.000000 0.000000 0.000000
# 3 -0.000251 0.000178 0.004777 0.000000 0.000000 0.000000
# 4 0.000000 0.000000 0.000000 0.034909 0.000000 0.000000
# 5 0.000000 0.000000 0.000000 0.000000 0.069190 0.000000
# 6 0.000000 0.000000 0.000000 0.000000 0.000000 -0.007383
#
#
# Mechanical properties :
#
#
# Convention : Reuss Voigt Hill
#
# Bulk Modulus (GPa) = 28.52049 38.74029 33.63039
# Shear Modulus (GPa) = 28.69640 1.02768 14.86204
#
# Velocity S-wave (km/s) = 3.60439 0.68210 2.59392
# Velocity P-wave (km/s) = 5.49856 4.26135 4.91901
#
# Compressibility (1/GPa) = 0.03506251
#
# Stress axis : x y z
#
# Youngs Moduli (GPa) = 52.40191 37.61010 209.34675
#
# Poissons Ratio (x) = 0.28658 0.05260
# Poissons Ratio (y) = 0.39928 -0.03722
# Poissons Ratio (z) = 0.01317 -0.00669
#
# Static dielectric constant tensor:
#      x y z
#    x 1.778090 0.000000 0.000000 
#    y 0.000000 1.759880 0.000000 
#    z 0.000000 0.000000 2.021750 
# 
# From -- ./inp_files/14290.got.cif
#   From: 2010.05.17/outbox.cif.g08.bks.cpg/sg73_8_cif.got.tgz:14290.got - 2010.06.03 17:35:07.
