data_PCOD9531197
_publ_section_title
;
Structure prediction by ZEFSAII (Michael W. Deem and Ramdas Pophale) SiO2 
 PCOD9531197
Probable space group: I B C A 
;
_chemical_formula_sum "Si O2"
_cell_formula_units_Z 96
_cell_length_a 8.563442
_cell_length_b 20.855088
_cell_length_c 24.507629
_cell_angle_alpha 90.000000
_cell_angle_beta 90.000000
_cell_angle_gamma 90.000000
_cell_volume 4376.850217
_symmetry_space_group_name_H-M "I B C A "
_symmetry_group_IT_number 73
_symmetry_cell_setting 'orthorhombic'
loop_
_space_group_symop_operation_xyz
x,y,z
-x,1/2-y,z
x,-y,1/2-z
1/2-x,y,-z
-x,-y,-z
x,1/2+y,-z
-x,y,1/2+z
1/2+x,-y,z
1/2+x,1/2+y,1/2+z
1/2-x,-y,1/2+z
1/2+x,1/2-y,-z
-x,1/2+y,1/2-z
1/2-x,1/2-y,1/2-z
1/2+x,y,1/2-z
1/2-x,1/2+y,z
x,1/2-y,1/2+z
loop_
_atom_site_type_symbol
_atom_site_label
_atom_site_fract_x
_atom_site_fract_y
_atom_site_fract_z
Si Si1 0.664981 0.544975 0.442117
Si Si2 0.170808 0.626333 0.849113
Si Si3 0.614076 0.690319 0.276745
Si Si4 0.192438 0.861850 0.836767
Si Si5 0.807335 0.908561 0.558903
Si Si6 0.895398 0.067349 0.763585
O O1 0.750000 0.554737 0.500000
O O2 0.749421 0.590102 0.398406
O O3 0.694998 0.469994 0.428681
O O4 0.482661 0.563289 0.444440
O O5 0.268083 0.687316 0.827640
O O6 0.177978 0.583577 0.794700
O O7 0.987178 0.638347 0.855777
O O8 0.500000 0.750000 0.277874
O O9 0.693959 0.684245 0.216714
O O10 0.509761 0.625331 0.279193
O O11 0.291607 0.857449 0.892180
O O12 0.261629 0.927457 0.809444
O O13 0.750000 0.883923 0.500000
O O14 0.973156 0.000000 0.750000
#
# Coordination Sequence:
#
# PCOD9531197 Si02
#       6
#    16  16  16  16  16  16
#     4  11  21  35  56  84 122 163 206 256 315 380
#     4  10  21  35  57  86 120 158 202 256 313 378
#     4  10  23  42  63  91 127 171 219 265 323 396
#     4  10  21  35  56  85 120 158 202 255 315 378
#     4  11  21  35  55  84 123 163 206 255 315 381
#     4  10  21  36  57  87 123 161 201 254 317 381
#
# _framework density 21.933581
#
# number of rings (size 3 to 8) (size 9 to 14) (size 15 to 20)
#    0.000    1.667    0.000    6.000    0.000   17.333 
#    0.000    0.000    0.000    0.000    0.000   35.000 
#    0.000    0.000    0.000    0.000    0.000    0.000 
#
# Total GULP energy -267890.312408 kJ/mol
# GULP energy per Si atom -5581.048175 kJ/mol
# Density = 2.188366 g / cm^3
# Si number density = 21.933581 Si / 1000 Ang^3
#
#
#
# Elastic Constant Matrix: (Units=GPa)
#
#
# Indices 1 2 3 4 5 6 
#
# 1 128.4865 20.2426 12.9364 0.0000 0.0000 0.0000
# 2 20.2426 58.0710 -6.1460 0.0000 0.0000 0.0000
# 3 12.9364 -6.1460 105.7055 0.0000 0.0000 0.0000
# 4 0.0000 0.0000 0.0000 22.8935 0.0000 0.0000
# 5 0.0000 0.0000 0.0000 0.0000 38.0451 0.0000
# 6 0.0000 0.0000 0.0000 0.0000 0.0000 29.5676
#
#
#
# Elastic Compliance Matrix: (Units=1/GPa)
#
#
# Indices 1 2 3 4 5 6 
#
# 1 0.008385 -0.003050 -0.001203 0.000000 0.000000 0.000000
# 2 -0.003050 0.018436 0.001445 0.000000 0.000000 0.000000
# 3 -0.001203 0.001445 0.009692 0.000000 0.000000 0.000000
# 4 0.000000 0.000000 0.000000 0.043681 0.000000 0.000000
# 5 0.000000 0.000000 0.000000 0.000000 0.026285 0.000000
# 6 0.000000 0.000000 0.000000 0.000000 0.000000 0.033821
#
#
# Mechanical properties :
#
#
# Convention : Reuss Voigt Hill
#
# Bulk Modulus (GPa) = 32.36669 38.48100 35.42385
# Shear Modulus (GPa) = 32.00737 35.78323 33.89530
#
# Velocity S-wave (km/s) = 3.82420 4.04349 3.93537
# Velocity P-wave (km/s) = 5.85560 6.27552 6.06919
#
# Compressibility (1/GPa) = 0.03089596
#
# Stress axis : x y z
#
# Youngs Moduli (GPa) = 119.26599 54.24029 103.18257
#
# Poissons Ratio (x) = 0.16544 0.12418
# Poissons Ratio (y) = 0.36377 -0.14912
# Poissons Ratio (z) = 0.14353 -0.07839
#
# Static dielectric constant tensor:
#      x y z
#    x 1.902020 0.000000 0.000000 
#    y 0.000000 1.923190 0.000000 
#    z 0.000000 0.000000 1.804180 
# 
# From -- ./inp_files/28387.got.cif
#   From: 2010.05.17/outbox.cif.g08.bks.cpg/sg73_15_cif.got.tgz:28387.got - 2010.06.03 17:35:07.
