data_PCOD9531563
_publ_section_title
;
Structure prediction by ZEFSAII (Michael W. Deem and Ramdas Pophale) SiO2 
 PCOD9531563
Probable space group: I B C A 
;
_chemical_formula_sum "Si O2"
_cell_formula_units_Z 88
_cell_length_a 17.786916
_cell_length_b 22.133055
_cell_length_c 9.706771
_cell_angle_alpha 90.000000
_cell_angle_beta 90.000000
_cell_angle_gamma 90.000000
_cell_volume 3821.349863
_symmetry_space_group_name_H-M "I B C A "
_symmetry_group_IT_number 73
_symmetry_cell_setting 'orthorhombic'
loop_
_space_group_symop_operation_xyz
x,y,z
-x,1/2-y,z
x,-y,1/2-z
1/2-x,y,-z
-x,-y,-z
x,1/2+y,-z
-x,y,1/2+z
1/2+x,-y,z
1/2+x,1/2+y,1/2+z
1/2-x,-y,1/2+z
1/2+x,1/2-y,-z
-x,1/2+y,1/2-z
1/2-x,1/2-y,1/2-z
1/2+x,y,1/2-z
1/2-x,1/2+y,z
x,1/2-y,1/2+z
loop_
_atom_site_type_symbol
_atom_site_label
_atom_site_fract_x
_atom_site_fract_y
_atom_site_fract_z
Si Si1 0.849051 0.000000 0.250000
Si Si2 0.583766 0.069207 0.206849
Si Si3 0.865350 0.197527 0.230949
Si Si4 0.956773 0.407288 0.592633
Si Si5 0.666957 0.800675 0.033876
Si Si6 0.764441 0.607120 0.284895
O O1 0.904801 0.037132 0.149357
O O2 0.792357 0.051490 0.308746
O O3 0.536307 0.095797 0.332302
O O4 0.668908 0.090438 0.181192
O O5 0.589919 0.000000 0.250000
O O6 0.537505 0.082511 0.069226
O O7 0.916130 0.153648 0.140235
O O8 0.881451 0.200692 0.394699
O O9 0.865074 0.262188 0.159187
O O10 0.784550 0.163501 0.232682
O O11 0.688249 0.867698 0.085342
O O12 0.750000 0.773119 0.000000
#
# Coordination Sequence:
#
# PCOD9531563 Si02
#       6
#     8  16  16  16  16  16
#     4  10  22  44  66 108 134 170 228 282 338 422
#     4  12  26  45  68  99 139 186 218 278 339 412
#     4  10  24  42  72 102 133 178 225 291 334 409
#     4  11  27  44  70  96 140 180 231 273 340 409
#     4  10  21  40  70 100 139 170 222 284 349 395
#     4  10  22  41  69 103 137 174 226 281 346 404
#
# _framework density 23.028511999999999
#
# number of rings (size 3 to 8) (size 9 to 14) (size 15 to 20)
#    0.000    1.455    1.818    2.727    7.636    6.545 
#    0.000    0.909    0.000    0.000    0.000    0.000 
#    0.000    0.000    0.000    0.000    0.000    0.000 
#
# Total GULP energy -245710.952247 kJ/mol
# GULP energy per Si atom -5584.339824 kJ/mol
# Density = 2.297610 g / cm^3
# Si number density = 23.028512 Si / 1000 Ang^3
#
#
#
# Elastic Constant Matrix: (Units=GPa)
#
#
# Indices 1 2 3 4 5 6 
#
# 1 92.9607 16.1238 11.3950 0.0000 0.0000 0.0000
# 2 16.1238 76.5154 13.0178 0.0000 0.0000 0.0000
# 3 11.3950 13.0178 62.2435 0.0000 0.0000 0.0000
# 4 0.0000 0.0000 0.0000 20.0740 0.0000 0.0000
# 5 0.0000 0.0000 0.0000 0.0000 27.3523 0.0000
# 6 0.0000 0.0000 0.0000 0.0000 0.0000 44.9046
#
#
#
# Elastic Compliance Matrix: (Units=1/GPa)
#
#
# Indices 1 2 3 4 5 6 
#
# 1 0.011323 -0.002108 -0.001632 0.000000 0.000000 0.000000
# 2 -0.002108 0.013944 -0.002530 0.000000 0.000000 0.000000
# 3 -0.001632 -0.002530 0.016894 0.000000 0.000000 0.000000
# 4 0.000000 0.000000 0.000000 0.049816 0.000000 0.000000
# 5 0.000000 0.000000 0.000000 0.000000 0.036560 0.000000
# 6 0.000000 0.000000 0.000000 0.000000 0.000000 0.022269
#
#
# Mechanical properties :
#
#
# Convention : Reuss Voigt Hill
#
# Bulk Modulus (GPa) = 33.76145 34.75476 34.25810
# Shear Modulus (GPa) = 28.86495 31.21172 30.03834
#
# Velocity S-wave (km/s) = 3.54424 3.68550 3.61556
# Velocity P-wave (km/s) = 5.60726 5.76501 5.68669
#
# Compressibility (1/GPa) = 0.02961958
#
# Stress axis : x y z
#
# Youngs Moduli (GPa) = 88.31599 71.71514 59.19303
#
# Poissons Ratio (x) = 0.15120 0.09660
# Poissons Ratio (y) = 0.18621 0.14978
# Poissons Ratio (z) = 0.14413 0.18146
#
# Static dielectric constant tensor:
#      x y z
#    x 1.899990 0.000000 0.000000 
#    y 0.000000 2.024610 0.000000 
#    z 0.000000 0.000000 1.936300 
# 
# From -- ./inp_files/6306.got.cif
#   From: 2010.05.17/outbox.cif.g08.bks.cpg/sg73_4_cif.got.tgz:6306.got - 2010.06.03 17:35:07.
