data_PCOD9531699
_publ_section_title
;
Structure prediction by ZEFSAII (Michael W. Deem and Ramdas Pophale) SiO2 
 PCOD9531699
Probable space group: I B C A 
;
_chemical_formula_sum "Si O2"
_cell_formula_units_Z 88
_cell_length_a 25.216478
_cell_length_b 12.236390
_cell_length_c 13.056866
_cell_angle_alpha 90.000000
_cell_angle_beta 90.000000
_cell_angle_gamma 90.000000
_cell_volume 4028.809067
_symmetry_space_group_name_H-M "I B C A "
_symmetry_group_IT_number 73
_symmetry_cell_setting 'orthorhombic'
loop_
_space_group_symop_operation_xyz
x,y,z
-x,1/2-y,z
x,-y,1/2-z
1/2-x,y,-z
-x,-y,-z
x,1/2+y,-z
-x,y,1/2+z
1/2+x,-y,z
1/2+x,1/2+y,1/2+z
1/2-x,-y,1/2+z
1/2+x,1/2-y,-z
-x,1/2+y,1/2-z
1/2-x,1/2-y,1/2-z
1/2+x,y,1/2-z
1/2-x,1/2+y,z
x,1/2-y,1/2+z
loop_
_atom_site_type_symbol
_atom_site_label
_atom_site_fract_x
_atom_site_fract_y
_atom_site_fract_z
Si Si1 0.769478 0.563152 0.840425
Si Si2 0.900981 0.909526 0.837603
Si Si3 0.661415 0.893272 0.965875
Si Si4 0.012893 0.872383 0.787295
Si Si5 0.871756 0.817311 0.250032
Si Si6 0.750000 0.272196 0.500000
O O1 0.739631 0.500000 0.750000
O O2 0.797348 0.479190 0.917857
O O3 0.818643 0.624436 0.787376
O O4 0.737836 0.651999 0.903112
O O5 0.872103 0.807658 0.783356
O O6 0.962051 0.873972 0.862461
O O7 0.901416 0.000000 0.750000
O O8 0.873299 0.941861 0.943106
O O9 0.627286 0.843556 0.871627
O O10 0.698316 0.800252 0.015421
O O11 0.075648 0.863401 0.805867
O O12 0.000000 0.750000 0.733175
O O13 0.009924 0.000000 0.750000
#
# Coordination Sequence:
#
# PCOD9531699 Si02
#       6
#    16  16  16  16  16   8
#     4  10  23  43  64  92 132 172 214 275 329 390
#     4  10  22  40  64  99 132 166 216 276 326 388
#     4  11  24  42  66  95 127 175 220 272 331 397
#     4   9  18  37  63  93 132 170 215 268 329 401
#     4  10  21  43  65  91 134 176 212 268 337 397
#     4  12  24  44  64  98 128 166 238 262 338 394
#
# _framework density 21.842683000000001
#
# number of rings (size 3 to 8) (size 9 to 14) (size 15 to 20)
#    0.000    1.818    1.818    2.182    2.545    2.909 
#    3.273   16.364    0.000    0.000    0.000    0.000 
#    0.000    0.000    0.000    0.000    0.000    0.000 
#
# Total GULP energy -244941.771349 kJ/mol
# GULP energy per Si atom -5566.858440 kJ/mol
# Density = 2.179297 g / cm^3
# Si number density = 21.842683 Si / 1000 Ang^3
#
#
#
# Elastic Constant Matrix: (Units=GPa)
#
#
# Indices 1 2 3 4 5 6 
#
# 1 49.6944 -0.9111 17.3128 0.0000 0.0000 0.0000
# 2 -0.9111 98.3225 8.1189 0.0000 0.0000 0.0000
# 3 17.3128 8.1189 90.7615 0.0000 0.0000 0.0000
# 4 0.0000 0.0000 0.0000 25.9456 0.0000 0.0000
# 5 0.0000 0.0000 0.0000 0.0000 5.5563 0.0000
# 6 0.0000 0.0000 0.0000 0.0000 0.0000 18.5065
#
#
#
# Elastic Compliance Matrix: (Units=1/GPa)
#
#
# Indices 1 2 3 4 5 6 
#
# 1 0.021584 0.000544 -0.004166 0.000000 0.000000 0.000000
# 2 0.000544 0.010260 -0.001022 0.000000 0.000000 0.000000
# 3 -0.004166 -0.001022 0.011904 0.000000 0.000000 0.000000
# 4 0.000000 0.000000 0.000000 0.038542 0.000000 0.000000
# 5 0.000000 0.000000 0.000000 0.000000 0.179975 0.000000
# 6 0.000000 0.000000 0.000000 0.000000 0.000000 0.054035
#
#
# Mechanical properties :
#
#
# Convention : Reuss Voigt Hill
#
# Bulk Modulus (GPa) = 29.01804 31.97998 30.49901
# Shear Modulus (GPa) = 14.83353 24.28554 19.55954
#
# Velocity S-wave (km/s) = 2.60880 3.33804 2.99569
# Velocity P-wave (km/s) = 4.73163 5.43411 5.09499
#
# Compressibility (1/GPa) = 0.03446132
#
# Stress axis : x y z
#
# Youngs Moduli (GPa) = 46.32996 97.46585 84.00591
#
# Poissons Ratio (x) = -0.05302 0.34996
# Poissons Ratio (y) = -0.02520 0.08582
# Poissons Ratio (z) = 0.19301 0.09957
#
# Static dielectric constant tensor:
#      x y z
#    x 1.791740 0.000000 0.000000 
#    y 0.000000 1.901030 0.000000 
#    z 0.000000 0.000000 1.830420 
# 
# From -- ./inp_files/19271.got.cif
#   From: 2010.05.17/outbox.cif.g08.bks.cpg/sg73_10_cif.got.tgz:19271.got - 2010.06.03 17:35:07.
