data_PCOD9531693
_publ_section_title
;
Structure prediction by ZEFSAII (Michael W. Deem and Ramdas Pophale) SiO2 
 PCOD9531693
Probable space group: I B C A 
;
_chemical_formula_sum "Si O2"
_cell_formula_units_Z 112
_cell_length_a 13.653778
_cell_length_b 27.752716
_cell_length_c 13.727301
_cell_angle_alpha 90.000000
_cell_angle_beta 90.000000
_cell_angle_gamma 90.000000
_cell_volume 5201.678249
_symmetry_space_group_name_H-M "I B C A "
_symmetry_group_IT_number 73
_symmetry_cell_setting 'orthorhombic'
loop_
_space_group_symop_operation_xyz
x,y,z
-x,1/2-y,z
x,-y,1/2-z
1/2-x,y,-z
-x,-y,-z
x,1/2+y,-z
-x,y,1/2+z
1/2+x,-y,z
1/2+x,1/2+y,1/2+z
1/2-x,-y,1/2+z
1/2+x,1/2-y,-z
-x,1/2+y,1/2-z
1/2-x,1/2-y,1/2-z
1/2+x,y,1/2-z
1/2-x,1/2+y,z
x,1/2-y,1/2+z
loop_
_atom_site_type_symbol
_atom_site_label
_atom_site_fract_x
_atom_site_fract_y
_atom_site_fract_z
Si Si1 0.412780 0.446464 0.569164
Si Si2 0.306061 0.452927 0.907894
Si Si3 0.598254 0.957949 0.317519
Si Si4 0.008853 0.193095 0.855720
Si Si5 0.142566 0.355456 0.748373
Si Si6 0.864248 0.148213 0.528852
Si Si7 0.632303 0.381498 0.257193
O O1 0.358923 0.497336 0.565133
O O2 0.528300 0.453388 0.588688
O O3 0.387262 0.409063 0.483773
O O4 0.377580 0.418120 0.666237
O O5 0.212003 0.466419 0.841112
O O6 0.374956 0.414633 0.853204
O O7 0.250000 0.430310 0.000000
O O8 0.594970 0.908096 0.259886
O O9 0.558024 0.000000 0.250000
O O10 0.064478 0.164198 0.768245
O O11 0.000000 0.250000 0.848215
O O12 0.899477 0.173799 0.839330
O O13 0.064917 0.175631 0.952854
O O14 0.121699 0.336278 0.640181
O O15 0.257909 0.361657 0.757446
O O16 0.750000 0.155145 0.500000
#
# Coordination Sequence:
#
# PCOD9531693 Si02
#       7
#    16  16  16  16  16  16  16
#     4  11  21  40  63  96 131 184 238 270 329 414
#     4  11  24  36  59  96 140 183 232 277 334 410
#     4  11  23  38  60  94 134 183 228 281 327 408
#     4  11  25  45  73 104 129 170 236 289 356 429
#     4  11  22  43  72  96 136 181 223 284 345 412
#     4  11  22  44  74  97 134 184 234 281 349 421
#     4  10  21  43  63  93 137 181 217 288 348 402
#
# _framework density 21.531514000000001
#
# number of rings (size 3 to 8) (size 9 to 14) (size 15 to 20)
#    0.000    1.143    5.714    3.429    2.000    2.857 
#    0.000    0.000    0.000    0.000    0.000    0.000 
#    0.000    0.000    0.000    0.000    0.000    0.000 
#
# Total GULP energy -312839.944708 kJ/mol
# GULP energy per Si atom -5586.427584 kJ/mol
# Density = 2.148251 g / cm^3
# Si number density = 21.531514 Si / 1000 Ang^3
#
#
#
# Elastic Constant Matrix: (Units=GPa)
#
#
# Indices 1 2 3 4 5 6 
#
# 1 98.9246 30.0413 13.3278 0.0000 0.0000 0.0000
# 2 30.0413 122.9057 23.9736 0.0000 0.0000 0.0000
# 3 13.3278 23.9736 61.9491 0.0001 -0.0001 0.0000
# 4 0.0000 0.0000 0.0001 8.5957 0.0000 0.0000
# 5 0.0000 0.0000 -0.0001 0.0000 39.3010 0.0000
# 6 0.0000 0.0000 0.0000 0.0000 0.0000 14.7698
#
#
#
# Elastic Compliance Matrix: (Units=1/GPa)
#
#
# Indices 1 2 3 4 5 6 
#
# 1 0.011037 -0.002417 -0.001439 0.000000 0.000000 0.000000
# 2 -0.002417 0.009330 -0.003091 0.000000 0.000000 0.000000
# 3 -0.001439 -0.003091 0.017648 0.000000 0.000000 0.000000
# 4 0.000000 0.000000 0.000000 0.116338 0.000000 0.000000
# 5 0.000000 0.000000 0.000000 0.000000 0.025445 0.000000
# 6 0.000000 0.000000 0.000000 0.000000 0.000000 0.067706
#
#
# Mechanical properties :
#
#
# Convention : Reuss Voigt Hill
#
# Bulk Modulus (GPa) = 41.45733 46.49608 43.97671
# Shear Modulus (GPa) = 18.55730 26.96242 22.75986
#
# Velocity S-wave (km/s) = 2.93894 3.54253 3.25476
# Velocity P-wave (km/s) = 5.55091 6.19467 5.88160
#
# Compressibility (1/GPa) = 0.02412118
#
# Stress axis : x y z
#
# Youngs Moduli (GPa) = 90.60796 107.18211 56.66387
#
# Poissons Ratio (x) = 0.25905 0.08154
# Poissons Ratio (y) = 0.21899 0.17513
# Poissons Ratio (z) = 0.13039 0.33126
#
# Static dielectric constant tensor:
#      x y z
#    x 1.856780 0.000000 0.000000 
#    y 0.000000 1.756110 0.000000 
#    z 0.000000 0.000000 1.837030 
# 
# From -- ./inp_files/17402.got.cif
#   From: 2010.05.17/outbox.cif.g08.bks.cpg/sg73_9_cif.got.tgz:17402.got - 2010.06.03 17:35:07.
