data_PCOD9531875
_publ_section_title
;
Structure prediction by ZEFSAII (Michael W. Deem and Ramdas Pophale) SiO2 
 PCOD9531875
Probable space group: I B C A 
;
_chemical_formula_sum "Si O2"
_cell_formula_units_Z 56
_cell_length_a 13.582995
_cell_length_b 8.526543
_cell_length_c 23.117254
_cell_angle_alpha 90.000000
_cell_angle_beta 90.000000
_cell_angle_gamma 90.000000
_cell_volume 2677.347680
_symmetry_space_group_name_H-M "I B C A "
_symmetry_group_IT_number 73
_symmetry_cell_setting 'orthorhombic'
loop_
_space_group_symop_operation_xyz
x,y,z
-x,1/2-y,z
x,-y,1/2-z
1/2-x,y,-z
-x,-y,-z
x,1/2+y,-z
-x,y,1/2+z
1/2+x,-y,z
1/2+x,1/2+y,1/2+z
1/2-x,-y,1/2+z
1/2+x,1/2-y,-z
-x,1/2+y,1/2-z
1/2-x,1/2-y,1/2-z
1/2+x,y,1/2-z
1/2-x,1/2+y,z
x,1/2-y,1/2+z
loop_
_atom_site_type_symbol
_atom_site_label
_atom_site_fract_x
_atom_site_fract_y
_atom_site_fract_z
Si Si1 0.975606 0.000000 0.750000
Si Si2 0.380885 0.114304 0.342325
Si Si3 0.017200 0.564426 0.563962
Si Si4 0.667418 0.519478 0.650211
O O1 0.052134 0.894405 0.785404
O O2 0.901406 0.059155 0.800056
O O3 0.352462 0.294895 0.350474
O O4 0.445633 0.035229 0.393304
O O5 0.279857 0.018849 0.337650
O O6 0.127068 0.539676 0.588822
O O7 0.000000 0.750000 0.566527
O O8 0.000000 0.500000 0.500000
#
# Coordination Sequence:
#
# PCOD9531875 Si02
#       4
#     8  16  16  16
#     4  10  22  38  62  88 124 162 200 248 300 356
#     4  11  24  41  63  92 125 162 206 252 304 363
#     4  11  23  42  66  91 123 160 203 253 307 363
#     4  11  24  41  63  92 125 162 206 252 304 363
#
# _framework density 20.916222999999999
#
# number of rings (size 3 to 8) (size 9 to 14) (size 15 to 20)
#    0.000    1.143    0.000    7.714    0.000   17.143 
#    0.000    5.714    0.000    0.000    0.000    0.000 
#    0.000    0.000    0.000    0.000    0.000    0.000 
#
# Total GULP energy -156405.561235 kJ/mol
# GULP energy per Si atom -5585.912901 kJ/mol
# Density = 2.086862 g / cm^3
# Si number density = 20.916223 Si / 1000 Ang^3
#
#
#
# Elastic Constant Matrix: (Units=GPa)
#
#
# Indices 1 2 3 4 5 6 
#
# 1 145.9788 37.3928 42.9917 0.0000 0.0000 0.0000
# 2 37.3928 146.7355 46.6141 0.0000 0.0000 0.0000
# 3 42.9917 46.6141 126.6301 0.0000 0.0000 0.0000
# 4 0.0000 0.0000 0.0000 19.7893 0.0000 0.0000
# 5 0.0000 0.0000 0.0000 0.0000 12.2748 0.0000
# 6 0.0000 0.0000 0.0000 0.0000 0.0000 37.4194
#
#
#
# Elastic Compliance Matrix: (Units=1/GPa)
#
#
# Indices 1 2 3 4 5 6 
#
# 1 0.007825 -0.001302 -0.002177 0.000000 0.000000 0.000000
# 2 -0.001302 0.007934 -0.002479 0.000000 0.000000 0.000000
# 3 -0.002177 -0.002479 0.009549 0.000000 0.000000 0.000000
# 4 0.000000 0.000000 0.000000 0.050532 0.000000 0.000000
# 5 0.000000 0.000000 0.000000 0.000000 0.081468 0.000000
# 6 0.000000 0.000000 0.000000 0.000000 0.000000 0.026724
#
#
# Mechanical properties :
#
#
# Convention : Reuss Voigt Hill
#
# Bulk Modulus (GPa) = 74.67376 74.81575 74.74475
# Shear Modulus (GPa) = 24.94854 33.38641 29.16747
#
# Velocity S-wave (km/s) = 3.45742 3.99958 3.73834
# Velocity P-wave (km/s) = 7.19147 7.56146 7.37878
#
# Compressibility (1/GPa) = 0.01339158
#
# Stress axis : x y z
#
# Youngs Moduli (GPa) = 127.79323 126.03595 104.72768
#
# Poissons Ratio (x) = 0.16415 0.22802
# Poissons Ratio (y) = 0.16644 0.25957
# Poissons Ratio (z) = 0.27824 0.31238
#
# Static dielectric constant tensor:
#      x y z
#    x 1.746030 0.000000 0.000000 
#    y 0.000000 1.803380 0.000000 
#    z 0.000000 0.000000 1.758240 
# 
# From -- ./inp_files/4443.got.cif
#   From: 2010.05.17/outbox.cif.g08.bks.cpg/sg73_3_cif.got.tgz:4443.got - 2010.06.03 17:35:07.
