data_PCOD9531411
_publ_section_title
;
Structure prediction by ZEFSAII (Michael W. Deem and Ramdas Pophale) SiO2 
 PCOD9531411
Probable space group: I B C A 
;
_chemical_formula_sum "Si O2"
_cell_formula_units_Z 120
_cell_length_a 25.278171
_cell_length_b 8.082839
_cell_length_c 25.498799
_cell_angle_alpha 90.000000
_cell_angle_beta 90.000000
_cell_angle_gamma 90.000000
_cell_volume 5209.898966
_symmetry_space_group_name_H-M "I B C A "
_symmetry_group_IT_number 73
_symmetry_cell_setting 'orthorhombic'
loop_
_space_group_symop_operation_xyz
x,y,z
-x,1/2-y,z
x,-y,1/2-z
1/2-x,y,-z
-x,-y,-z
x,1/2+y,-z
-x,y,1/2+z
1/2+x,-y,z
1/2+x,1/2+y,1/2+z
1/2-x,-y,1/2+z
1/2+x,1/2-y,-z
-x,1/2+y,1/2-z
1/2-x,1/2-y,1/2-z
1/2+x,y,1/2-z
1/2-x,1/2+y,z
x,1/2-y,1/2+z
loop_
_atom_site_type_symbol
_atom_site_label
_atom_site_fract_x
_atom_site_fract_y
_atom_site_fract_z
Si Si1 0.806464 0.914221 0.902046
Si Si2 0.951004 0.991240 0.671690
Si Si3 0.405829 0.481995 0.946460
Si Si4 0.851642 0.000000 0.250000
Si Si5 0.066203 0.603805 0.166414
Si Si6 0.714148 0.567894 0.051124
Si Si7 0.653571 0.650543 0.713150
Si Si8 0.916456 0.085939 0.560235
O O1 0.796616 0.759366 0.939714
O O2 0.821823 0.858711 0.844329
O O3 0.859198 0.997036 0.926041
O O4 0.752578 0.014492 0.901998
O O5 0.932086 0.800588 0.676826
O O6 0.012211 0.980353 0.687030
O O7 0.909902 0.114073 0.701001
O O8 0.951188 0.036210 0.609901
O O9 0.428178 0.573200 0.895593
O O10 0.342648 0.519142 0.950048
O O11 0.411815 0.284831 0.938837
O O12 0.431287 0.532239 0.001857
O O13 0.886646 0.979546 0.197671
O O14 0.828094 0.819656 0.259551
O O15 0.750000 0.544408 0.000000
O O16 0.670052 0.500000 0.750000
#
# Coordination Sequence:
#
# PCOD9531411 Si02
#       8
#    16  16  16   8  16  16  16  16
#     4  10  23  40  64  98 131 171 220 279 343 398
#     4  10  23  42  66  97 133 172 219 275 334 399
#     4  11  23  38  63  94 131 176 222 273 335 406
#     4  12  24  42  72  98 128 176 226 278 332 396
#     4  11  24  40  66 100 129 174 224 272 336 396
#     4  11  21  38  65  97 130 169 219 275 333 411
#     4  11  24  48  70  97 135 178 225 285 339 403
#     4  10  21  39  60  92 132 173 216 270 339 394
#
# _framework density 23.033076000000001
#
# number of rings (size 3 to 8) (size 9 to 14) (size 15 to 20)
#    0.000    1.333    2.667    3.600    2.800    4.800 
#    2.400    0.667    1.467    0.000    0.000    0.000 
#    0.000    0.000    0.000    0.000    0.000    0.000 
#
# Total GULP energy -335306.769430 kJ/mol
# GULP energy per Si atom -5588.446157 kJ/mol
# Density = 2.298065 g / cm^3
# Si number density = 23.033076 Si / 1000 Ang^3
#
#
#
# Elastic Constant Matrix: (Units=GPa)
#
#
# Indices 1 2 3 4 5 6 
#
# 1 45.1436 18.4451 6.1861 0.0000 0.0000 0.0000
# 2 18.4451 71.3711 32.0323 0.0000 0.0000 0.0000
# 3 6.1861 32.0323 110.0138 0.0000 0.0000 0.0000
# 4 0.0000 0.0000 0.0000 40.4879 0.0000 0.0000
# 5 0.0000 0.0000 0.0000 0.0000 1.9993 0.0000
# 6 0.0000 0.0000 0.0000 0.0000 0.0000 9.7642
#
#
#
# Elastic Compliance Matrix: (Units=1/GPa)
#
#
# Indices 1 2 3 4 5 6 
#
# 1 0.024795 -0.006651 0.000542 0.000000 0.000000 0.000000
# 2 -0.006651 0.017902 -0.004838 0.000000 0.000000 0.000000
# 3 0.000542 -0.004838 0.010468 0.000000 0.000000 0.000000
# 4 0.000000 0.000000 0.000000 0.024699 0.000000 0.000000
# 5 0.000000 0.000000 0.000000 0.000000 0.500174 0.000000
# 6 0.000000 0.000000 0.000000 0.000000 0.000000 0.102415
#
#
# Mechanical properties :
#
#
# Convention : Reuss Voigt Hill
#
# Bulk Modulus (GPa) = 31.97954 37.76173 34.87064
# Shear Modulus (GPa) = 7.01488 21.77461 14.39475
#
# Velocity S-wave (km/s) = 1.74705 3.07801 2.50263
# Velocity P-wave (km/s) = 4.24074 5.39095 4.85006
#
# Compressibility (1/GPa) = 0.03126999
#
# Stress axis : x y z
#
# Youngs Moduli (GPa) = 40.33088 55.86032 95.52886
#
# Poissons Ratio (x) = 0.37155 -0.05182
# Poissons Ratio (y) = 0.26826 0.46221
# Poissons Ratio (z) = -0.02188 0.27027
#
# Static dielectric constant tensor:
#      x y z
#    x 1.931290 0.000000 0.000000 
#    y 0.000000 1.860190 0.000000 
#    z 0.000000 0.000000 1.850180 
# 
# From -- ./inp_files/32901.got.cif
#   From: 2010.05.17/outbox.cif.g08.bks.cpg/sg73_17_cif.got.tgz:32901.got - 2010.06.03 17:35:07.
