data_PCOD9531687
_publ_section_title
;
Structure prediction by ZEFSAII (Michael W. Deem and Ramdas Pophale) SiO2 
 PCOD9531687
Probable space group: I B C A 
;
_chemical_formula_sum "Si O2"
_cell_formula_units_Z 88
_cell_length_a 26.517246
_cell_length_b 11.417107
_cell_length_c 15.110740
_cell_angle_alpha 90.000000
_cell_angle_beta 90.000000
_cell_angle_gamma 90.000000
_cell_volume 4574.780085
_symmetry_space_group_name_H-M "I B C A "
_symmetry_group_IT_number 73
_symmetry_cell_setting 'orthorhombic'
loop_
_space_group_symop_operation_xyz
x,y,z
-x,1/2-y,z
x,-y,1/2-z
1/2-x,y,-z
-x,-y,-z
x,1/2+y,-z
-x,y,1/2+z
1/2+x,-y,z
1/2+x,1/2+y,1/2+z
1/2-x,-y,1/2+z
1/2+x,1/2-y,-z
-x,1/2+y,1/2-z
1/2-x,1/2-y,1/2-z
1/2+x,y,1/2-z
1/2-x,1/2+y,z
x,1/2-y,1/2+z
loop_
_atom_site_type_symbol
_atom_site_label
_atom_site_fract_x
_atom_site_fract_y
_atom_site_fract_z
Si Si1 0.859994 0.870858 0.903061
Si Si2 0.747727 0.206332 0.651062
Si Si3 0.556611 0.751202 0.201917
Si Si4 0.408257 0.500000 0.250000
Si Si5 0.163719 0.462614 0.413172
Si Si6 0.250000 0.116200 0.500000
Si Si7 0.592816 0.000000 0.750000
O O1 0.802356 0.839147 0.880326
O O2 0.899051 0.771315 0.870227
O O3 0.875439 0.979173 0.838817
O O4 0.863900 0.894769 0.007018
O O5 0.750000 0.250000 0.750000
O O6 0.704009 0.112817 0.641484
O O7 0.733476 0.307032 0.582790
O O8 0.500000 0.750000 0.164624
O O9 0.564843 0.626843 0.251102
O O10 0.562485 0.875035 0.256473
O O11 0.200975 0.548494 0.466289
O O12 0.125735 0.507678 0.339472
#
# Coordination Sequence:
#
# PCOD9531687 Si02
#       7
#    16  16  16   8  16   8   8
#     4  10  21  43  62 101 131 184 223 270 344 411
#     4  12  24  39  63  93 135 179 225 271 336 408
#     4  10  22  47  73 100 136 178 233 290 352 402
#     4   8  23  39  68  98 130 182 217 277 358 400
#     4  12  24  42  61 103 139 179 226 282 339 413
#     4  12  22  38  62  92 144 174 226 266 330 398
#     4  12  27  43  72 106 134 178 237 293 338 410
#
# _framework density 19.235897000000001
#
# number of rings (size 3 to 8) (size 9 to 14) (size 15 to 20)
#    1.091    0.000    3.636    3.818    2.545    0.727 
#    0.000    1.818    0.000    0.000    0.000    0.000 
#    0.000    0.000    0.000    0.000    0.000    0.000 
#
# Total GULP energy -245001.549727 kJ/mol
# GULP energy per Si atom -5568.217039 kJ/mol
# Density = 1.919212 g / cm^3
# Si number density = 19.235897 Si / 1000 Ang^3
#
#
#
# Elastic Constant Matrix: (Units=GPa)
#
#
# Indices 1 2 3 4 5 6 
#
# 1 61.3382 32.2034 16.7627 0.0000 0.0000 0.0000
# 2 32.2034 108.0760 25.6786 0.0000 0.0000 0.0000
# 3 16.7627 25.6786 116.2556 0.0000 0.0000 0.0000
# 4 0.0000 0.0000 0.0000 -59.7506 0.0000 0.0000
# 5 0.0000 0.0000 0.0000 0.0000 -8.2106 0.0000
# 6 0.0000 0.0000 0.0000 0.0000 0.0000 17.5551
#
#
#
# Elastic Compliance Matrix: (Units=1/GPa)
#
#
# Indices 1 2 3 4 5 6 
#
# 1 0.019612 -0.005458 -0.001622 0.000000 0.000000 0.000000
# 2 -0.005458 0.011284 -0.001705 0.000000 0.000000 0.000000
# 3 -0.001622 -0.001705 0.009212 0.000000 0.000000 0.000000
# 4 0.000000 0.000000 0.000000 -0.016736 0.000000 0.000000
# 5 0.000000 0.000000 0.000000 0.000000 -0.121794 0.000000
# 6 0.000000 0.000000 0.000000 0.000000 0.000000 0.056963
#
#
# Mechanical properties :
#
#
# Convention : Reuss Voigt Hill
#
# Bulk Modulus (GPa) = 44.37195 48.32879 46.35037
# Shear Modulus (GPa) = -305.36324 3.98714 -150.68805
#
# Velocity S-wave (km/s) = -12.61314 1.44127 -8.86042
# Velocity P-wave (km/s) = 13.74788 5.28663 8.97373
#
# Compressibility (1/GPa) = 0.02253676
#
# Stress axis : x y z
#
# Youngs Moduli (GPa) = 50.98899 88.61796 108.55003
#
# Poissons Ratio (x) = 0.48371 0.17609
# Poissons Ratio (y) = 0.27832 0.18513
# Poissons Ratio (z) = 0.08271 0.15114
#
# Static dielectric constant tensor:
#      x y z
#    x 1.672530 0.000000 0.000000 
#    y 0.000000 1.806810 0.000000 
#    z 0.000000 0.000000 1.632090 
# 
# From -- ./inp_files/19761.got.cif
#   From: 2010.05.17/outbox.cif.g08.bks.cpg/sg73_10_cif.got.tgz:19761.got - 2010.06.03 17:35:07.
