data_PCOD9531742
_publ_section_title
;
Structure prediction by ZEFSAII (Michael W. Deem and Ramdas Pophale) SiO2 
 PCOD9531742
Probable space group: I B C A 
;
_chemical_formula_sum "Si O2"
_cell_formula_units_Z 96
_cell_length_a 14.100222
_cell_length_b 22.307471
_cell_length_c 13.502769
_cell_angle_alpha 90.000000
_cell_angle_beta 90.000000
_cell_angle_gamma 90.000000
_cell_volume 4247.164922
_symmetry_space_group_name_H-M "I B C A "
_symmetry_group_IT_number 73
_symmetry_cell_setting 'orthorhombic'
loop_
_space_group_symop_operation_xyz
x,y,z
-x,1/2-y,z
x,-y,1/2-z
1/2-x,y,-z
-x,-y,-z
x,1/2+y,-z
-x,y,1/2+z
1/2+x,-y,z
1/2+x,1/2+y,1/2+z
1/2-x,-y,1/2+z
1/2+x,1/2-y,-z
-x,1/2+y,1/2-z
1/2-x,1/2-y,1/2-z
1/2+x,y,1/2-z
1/2-x,1/2+y,z
x,1/2-y,1/2+z
loop_
_atom_site_type_symbol
_atom_site_label
_atom_site_fract_x
_atom_site_fract_y
_atom_site_fract_z
Si Si1 0.677487 0.275397 0.104461
Si Si2 0.750000 0.614682 0.500000
Si Si3 0.000000 0.250000 0.515192
Si Si4 0.841885 0.903416 0.570014
Si Si5 0.209996 0.327888 0.179627
Si Si6 0.977686 0.626147 0.907325
Si Si7 0.360304 0.967097 0.643875
O O1 0.676563 0.336887 0.041969
O O2 0.587850 0.241521 0.059866
O O3 0.765991 0.228339 0.106472
O O4 0.682584 0.298341 0.216637
O O5 0.718292 0.575621 0.593659
O O6 0.982656 0.193459 0.587337
O O7 0.750000 0.891992 0.500000
O O8 0.805610 0.868952 0.669378
O O9 0.939481 0.883973 0.519047
O O10 0.857076 0.974074 0.576449
O O11 0.120064 0.368551 0.153212
O O12 0.045864 0.574261 0.867176
O O13 0.348686 0.000000 0.750000
#
# Coordination Sequence:
#
# PCOD9531742 Si02
#       7
#    16   8   8  16  16  16  16
#     4  11  23  42  70 107 145 186 238 302 370 447
#     4  12  24  46  72 104 144 190 250 308 376 446
#     4  12  22  40  70 104 146 192 234 300 382 442
#     4  10  21  44  69  92 134 189 234 283 365 435
#     4  10  23  43  70 105 141 190 240 299 366 451
#     4  11  24  43  68 100 143 186 237 302 370 443
#     4  12  26  45  70 104 141 191 252 313 365 446
#
# _framework density 22.603313
#
# number of rings (size 3 to 8) (size 9 to 14) (size 15 to 20)
#    0.000    1.000    4.167    2.500    1.167    2.000 
#    6.000    1.667    0.000    0.000    0.000    0.000 
#    0.000    0.000    0.000    0.000    0.000    0.000 
#
# Total GULP energy -267210.344714 kJ/mol
# GULP energy per Si atom -5566.882182 kJ/mol
# Density = 2.255187 g / cm^3
# Si number density = 22.603313 Si / 1000 Ang^3
#
#
#
# Elastic Constant Matrix: (Units=GPa)
#
#
# Indices 1 2 3 4 5 6 
#
# 1 73.4695 31.0412 28.4371 -0.0001 0.0000 0.0000
# 2 31.0412 159.8461 30.3169 0.0000 0.0000 -0.0001
# 3 28.4371 30.3169 79.3230 0.0001 0.0001 -0.0001
# 4 -0.0001 0.0000 0.0001 -15.6044 0.0001 0.0000
# 5 0.0000 0.0000 0.0001 0.0001 13.4870 0.0000
# 6 0.0000 -0.0001 -0.0001 0.0000 0.0000 40.6343
#
#
#
# Elastic Compliance Matrix: (Units=1/GPa)
#
#
# Indices 1 2 3 4 5 6 
#
# 1 0.016521 -0.002248 -0.005064 0.000000 0.000000 0.000000
# 2 -0.002248 0.007051 -0.001889 0.000000 0.000000 0.000000
# 3 -0.005064 -0.001889 0.015144 0.000000 0.000000 0.000000
# 4 0.000000 0.000000 0.000000 -0.064085 0.000000 0.000000
# 5 0.000000 0.000000 0.000000 0.000000 0.074145 0.000000
# 6 0.000000 0.000000 0.000000 0.000000 0.000000 0.024610
#
#
# Mechanical properties :
#
#
# Convention : Reuss Voigt Hill
#
# Bulk Modulus (GPa) = 49.22527 54.69213 51.95870
# Shear Modulus (GPa) = 50.73143 22.55960 36.64552
#
# Velocity S-wave (km/s) = 4.74268 3.16265 4.03084
# Velocity P-wave (km/s) = 7.19832 6.13070 6.68585
#
# Compressibility (1/GPa) = 0.02031477
#
# Stress axis : x y z
#
# Youngs Moduli (GPa) = 60.53009 141.82783 66.03331
#
# Poissons Ratio (x) = 0.31881 0.33436
# Poissons Ratio (y) = 0.13606 0.12473
# Poissons Ratio (z) = 0.30649 0.26790
#
# Static dielectric constant tensor:
#      x y z
#    x 1.962780 0.000000 0.000000 
#    y 0.000000 1.876080 0.000000 
#    z 0.000000 0.000000 1.929230 
# 
# From -- ./inp_files/17115.got.cif
#   From: 2010.05.17/outbox.cif.g08.bks.cpg/sg73_9_cif.got.tgz:17115.got - 2010.06.03 17:35:07.
