data_PCOD9531974
_publ_section_title
;
Structure prediction by ZEFSAII (Michael W. Deem and Ramdas Pophale) SiO2 
 PCOD9531974
Probable space group: I B C A 
;
_chemical_formula_sum "Si O2"
_cell_formula_units_Z 112
_cell_length_a 13.681988
_cell_length_b 24.851810
_cell_length_c 14.698100
_cell_angle_alpha 90.000000
_cell_angle_beta 90.000000
_cell_angle_gamma 90.000000
_cell_volume 4997.679801
_symmetry_space_group_name_H-M "I B C A "
_symmetry_group_IT_number 73
_symmetry_cell_setting 'orthorhombic'
loop_
_space_group_symop_operation_xyz
x,y,z
-x,1/2-y,z
x,-y,1/2-z
1/2-x,y,-z
-x,-y,-z
x,1/2+y,-z
-x,y,1/2+z
1/2+x,-y,z
1/2+x,1/2+y,1/2+z
1/2-x,-y,1/2+z
1/2+x,1/2-y,-z
-x,1/2+y,1/2-z
1/2-x,1/2-y,1/2-z
1/2+x,y,1/2-z
1/2-x,1/2+y,z
x,1/2-y,1/2+z
loop_
_atom_site_type_symbol
_atom_site_label
_atom_site_fract_x
_atom_site_fract_y
_atom_site_fract_z
Si Si1 0.132583 0.703981 0.988278
Si Si2 0.633841 0.555392 0.986209
Si Si3 0.423088 0.875039 0.675297
Si Si4 0.865016 0.824813 0.510567
Si Si5 0.709663 0.441134 0.706067
Si Si6 0.426983 0.536015 0.660734
Si Si7 0.500427 0.310219 0.166715
O O1 0.099370 0.665346 0.906728
O O2 0.106546 0.767091 0.968067
O O3 0.250000 0.701187 0.000000
O O4 0.078865 0.687399 0.083572
O O5 0.631512 0.554800 0.877145
O O6 0.750000 0.550999 0.000000
O O7 0.597588 0.615673 0.014640
O O8 0.590589 0.513051 0.058474
O O9 0.325000 0.894396 0.726514
O O10 0.475582 0.930012 0.649567
O O11 0.498312 0.849730 0.748954
O O12 0.750000 0.828741 0.500000
O O13 0.897808 0.817969 0.614458
O O14 0.709352 0.500000 0.750000
O O15 0.823080 0.432932 0.677533
O O16 0.438013 0.500000 0.750000
O O17 0.500000 0.250000 0.203571
#
# Coordination Sequence:
#
# PCOD9531974 Si02
#       7
#    16  16  16  16  16  16  16
#     4  10  24  43  62  97 141 175 221 281 340 398
#     4   9  17  36  67  89 121 171 211 268 331 389
#     4  12  24  40  67  95 129 181 217 276 341 399
#     4   9  17  37  65  94 130 174 224 271 333 411
#     4  10  22  42  64  98 129 166 229 277 330 400
#     4  10  23  42  64  96 130 168 225 274 330 399
#     4  10  22  40  61  95 134 174 225 272 327 411
#
# _framework density 22.410399000000002
#
# number of rings (size 3 to 8) (size 9 to 14) (size 15 to 20)
#    0.000    2.000    1.429    1.286    2.000    2.857 
#    2.571    8.571    0.000    0.000    0.000    0.000 
#    0.000    0.000    0.000    0.000    0.000    0.000 
#
# Total GULP energy -311896.457800 kJ/mol
# GULP energy per Si atom -5569.579604 kJ/mol
# Density = 2.235939 g / cm^3
# Si number density = 22.410399 Si / 1000 Ang^3
#
#
#
# Elastic Constant Matrix: (Units=GPa)
#
#
# Indices 1 2 3 4 5 6 
#
# 1 71.1791 -2.7407 16.1794 0.0000 0.0000 0.0000
# 2 -2.7407 54.9436 36.4738 0.0002 0.0000 0.0000
# 3 16.1794 36.4738 91.2939 0.0003 0.0000 0.0000
# 4 0.0000 0.0002 0.0003 25.0026 0.0000 0.0000
# 5 0.0000 0.0000 0.0000 0.0000 23.6910 0.0000
# 6 0.0000 0.0000 0.0000 0.0000 0.0000 19.9623
#
#
#
# Elastic Compliance Matrix: (Units=1/GPa)
#
#
# Indices 1 2 3 4 5 6 
#
# 1 0.015103 0.003443 -0.004052 0.000000 0.000000 0.000000
# 2 0.003443 0.025555 -0.010820 0.000000 0.000000 0.000000
# 3 -0.004052 -0.010820 0.015995 0.000000 0.000000 0.000000
# 4 0.000000 0.000000 0.000000 0.039996 0.000000 0.000000
# 5 0.000000 0.000000 0.000000 0.000000 0.042210 0.000000
# 6 0.000000 0.000000 0.000000 0.000000 0.000000 0.050095
#
#
# Mechanical properties :
#
#
# Convention : Reuss Voigt Hill
#
# Bulk Modulus (GPa) = 29.59046 35.24905 32.41975
# Shear Modulus (GPa) = 22.41393 24.89810 23.65601
#
# Velocity S-wave (km/s) = 3.16596 3.33679 3.25250
# Velocity P-wave (km/s) = 5.15722 5.53250 5.34816
#
# Compressibility (1/GPa) = 0.03379468
#
# Stress axis : x y z
#
# Youngs Moduli (GPa) = 66.21305 39.13125 62.52103
#
# Poissons Ratio (x) = -0.13475 0.25335
# Poissons Ratio (y) = -0.22800 0.67648
# Poissons Ratio (z) = 0.26831 0.42340
#
# Static dielectric constant tensor:
#      x y z
#    x 1.880940 0.000000 0.000000 
#    y 0.000000 1.890070 0.000000 
#    z 0.000000 0.000000 1.889960 
# 
# From -- ./inp_files/17396.got.cif
#   From: 2010.05.17/outbox.cif.g08.bks.cpg/sg73_9_cif.got.tgz:17396.got - 2010.06.03 17:35:07.
