data_PCOD9531495
_publ_section_title
;
Structure prediction by ZEFSAII (Michael W. Deem and Ramdas Pophale) SiO2 
 PCOD9531495
Probable space group: I B C A 
;
_chemical_formula_sum "Si O2"
_cell_formula_units_Z 80
_cell_length_a 12.048299
_cell_length_b 14.622080
_cell_length_c 18.747752
_cell_angle_alpha 90.000000
_cell_angle_beta 90.000000
_cell_angle_gamma 90.000000
_cell_volume 3302.813814
_symmetry_space_group_name_H-M "I B C A "
_symmetry_group_IT_number 73
_symmetry_cell_setting 'orthorhombic'
loop_
_space_group_symop_operation_xyz
x,y,z
-x,1/2-y,z
x,-y,1/2-z
1/2-x,y,-z
-x,-y,-z
x,1/2+y,-z
-x,y,1/2+z
1/2+x,-y,z
1/2+x,1/2+y,1/2+z
1/2-x,-y,1/2+z
1/2+x,1/2-y,-z
-x,1/2+y,1/2-z
1/2-x,1/2-y,1/2-z
1/2+x,y,1/2-z
1/2-x,1/2+y,z
x,1/2-y,1/2+z
loop_
_atom_site_type_symbol
_atom_site_label
_atom_site_fract_x
_atom_site_fract_y
_atom_site_fract_z
Si Si1 0.058485 0.654207 0.035739
Si Si2 0.607616 0.588046 0.847563
Si Si3 0.090167 0.897159 0.763191
Si Si4 0.775995 0.774922 0.156112
Si Si5 0.919040 0.607894 0.376836
O O1 0.160157 0.679068 0.088153
O O2 0.000000 0.750000 0.016790
O O3 0.970325 0.599609 0.083233
O O4 0.084978 0.606410 0.961976
O O5 0.524811 0.607522 0.782264
O O6 0.698142 0.667396 0.848535
O O7 0.642174 0.483086 0.847470
O O8 0.042443 0.891237 0.843335
O O9 0.166950 0.821821 0.725290
O O10 0.134772 0.000000 0.750000
O O11 0.649929 0.804970 0.148968
#
# Coordination Sequence:
#
# PCOD9531495 Si02
#       5
#    16  16  16  16  16
#     4   9  19  38  62  87 121 159 197 250 310 358
#     4   9  20  40  60  83 124 164 192 247 313 355
#     4   9  20  37  59  86 117 155 198 248 301 354
#     4  10  21  40  61  86 126 161 193 249 312 359
#     4  11  21  37  64  93 116 157 215 247 289 370
#
# _framework density 24.221771
#
# number of rings (size 3 to 8) (size 9 to 14) (size 15 to 20)
#    0.000    2.400    0.000    3.000    0.000    4.800 
#    0.000   18.000    0.000    4.800    0.000    0.000 
#    0.000    0.000    0.000    0.000    0.000    0.000 
#
# Total GULP energy -223915.645587 kJ/mol
# GULP energy per Si atom -5597.891140 kJ/mol
# Density = 2.416664 g / cm^3
# Si number density = 24.221771 Si / 1000 Ang^3
#
#
#
# Elastic Constant Matrix: (Units=GPa)
#
#
# Indices 1 2 3 4 5 6 
#
# 1 57.7389 32.3155 28.0717 0.0000 0.0000 0.0000
# 2 32.3155 131.2632 14.5973 0.0000 0.0000 0.0000
# 3 28.0717 14.5973 140.6686 0.0000 0.0000 0.0000
# 4 0.0000 0.0000 0.0000 35.6498 0.0000 0.0000
# 5 0.0000 0.0000 0.0000 0.0000 31.7231 0.0000
# 6 0.0000 0.0000 0.0000 0.0000 0.0000 18.8427
#
#
#
# Elastic Compliance Matrix: (Units=1/GPa)
#
#
# Indices 1 2 3 4 5 6 
#
# 1 0.021991 -0.004983 -0.003871 0.000000 0.000000 0.000000
# 2 -0.004983 0.008837 0.000077 0.000000 0.000000 0.000000
# 3 -0.003871 0.000077 0.007873 0.000000 0.000000 0.000000
# 4 0.000000 0.000000 0.000000 0.028051 0.000000 0.000000
# 5 0.000000 0.000000 0.000000 0.000000 0.031523 0.000000
# 6 0.000000 0.000000 0.000000 0.000000 0.000000 0.053071
#
#
# Mechanical properties :
#
#
# Convention : Reuss Voigt Hill
#
# Bulk Modulus (GPa) = 47.28970 53.29333 50.29151
# Shear Modulus (GPa) = 28.41751 34.22220 31.31986
#
# Velocity S-wave (km/s) = 3.42895 3.76289 3.59980
# Velocity P-wave (km/s) = 5.93658 6.39759 6.17139
#
# Compressibility (1/GPa) = 0.02114626
#
# Stress axis : x y z
#
# Youngs Moduli (GPa) = 45.47396 113.16696 127.00962
#
# Poissons Ratio (x) = 0.56395 0.49169
# Poissons Ratio (y) = 0.22661 -0.00984
# Poissons Ratio (z) = 0.17604 -0.00877
#
# Static dielectric constant tensor:
#      x y z
#    x 1.907640 0.000000 0.000000 
#    y 0.000000 1.934200 0.000000 
#    z 0.000000 0.000000 1.944400 
# 
# From -- ./inp_files/25892.got.cif
#   From: 2010.05.17/outbox.cif.g08.bks.cpg/sg73_13_cif.got.tgz:25892.got - 2010.06.03 17:35:07.
