data_PCOD9531499
_publ_section_title
;
Structure prediction by ZEFSAII (Michael W. Deem and Ramdas Pophale) SiO2 
 PCOD9531499
Probable space group: I B C A 
;
_chemical_formula_sum "Si O2"
_cell_formula_units_Z 80
_cell_length_a 9.030439
_cell_length_b 21.286228
_cell_length_c 20.642851
_cell_angle_alpha 90.000000
_cell_angle_beta 90.000000
_cell_angle_gamma 90.000000
_cell_volume 3968.051050
_symmetry_space_group_name_H-M "I B C A "
_symmetry_group_IT_number 73
_symmetry_cell_setting 'orthorhombic'
loop_
_space_group_symop_operation_xyz
x,y,z
-x,1/2-y,z
x,-y,1/2-z
1/2-x,y,-z
-x,-y,-z
x,1/2+y,-z
-x,y,1/2+z
1/2+x,-y,z
1/2+x,1/2+y,1/2+z
1/2-x,-y,1/2+z
1/2+x,1/2-y,-z
-x,1/2+y,1/2-z
1/2-x,1/2-y,1/2-z
1/2+x,y,1/2-z
1/2-x,1/2+y,z
x,1/2-y,1/2+z
loop_
_atom_site_type_symbol
_atom_site_label
_atom_site_fract_x
_atom_site_fract_y
_atom_site_fract_z
Si Si1 0.297922 0.416609 0.644561
Si Si2 0.380976 0.467977 0.179141
Si Si3 0.749345 0.195192 0.573258
Si Si4 0.752090 0.157954 0.779898
Si Si5 0.500000 0.250000 0.340657
Si Si6 0.000000 0.250000 0.332973
O O1 0.460237 0.443367 0.657936
O O2 0.187370 0.474733 0.640445
O O3 0.285340 0.377989 0.579142
O O4 0.263490 0.369141 0.706324
O O5 0.395621 0.500000 0.250000
O O6 0.273080 0.407302 0.181440
O O7 0.750000 0.218431 0.500000
O O8 0.621068 0.223650 0.617746
O O9 0.900367 0.208730 0.611108
O O10 0.617196 0.202944 0.803471
O O11 0.901694 0.199058 0.792463
#
# Coordination Sequence:
#
# PCOD9531499 Si02
#       6
#    16  16  16  16   8   8
#     4  11  24  39  66  88 128 160 207 253 308 369
#     4  10  21  40  61  92 124 162 196 252 315 369
#     4  11  24  42  63  89 124 169 212 252 301 366
#     4  10  22  40  63  99 123 160 199 255 326 371
#     4  10  25  39  66  94 129 159 202 256 314 377
#     4  10  21  43  66  88 131 159 202 260 314 369
#
# _framework density 20.161031999999999
#
# number of rings (size 3 to 8) (size 9 to 14) (size 15 to 20)
#    0.000    1.600    2.000    2.400    8.400    4.800 
#    0.000    1.000    0.000    0.000    0.000    0.000 
#    0.000    0.000    0.000    0.000    0.000    0.000 
#
# Total GULP energy -223033.767051 kJ/mol
# GULP energy per Si atom -5575.844176 kJ/mol
# Density = 2.011514 g / cm^3
# Si number density = 20.161032 Si / 1000 Ang^3
#
#
#
# Elastic Constant Matrix: (Units=GPa)
#
#
# Indices 1 2 3 4 5 6 
#
# 1 101.3178 42.1375 34.7298 0.0000 0.0000 0.0000
# 2 42.1375 105.9532 34.3064 0.0000 0.0000 0.0000
# 3 34.7298 34.3064 52.1501 0.0000 0.0000 0.0000
# 4 0.0000 0.0000 0.0000 9.7950 0.0000 0.0000
# 5 0.0000 0.0000 0.0000 0.0000 -21.6224 0.0000
# 6 0.0000 0.0000 0.0000 0.0000 0.0000 45.7000
#
#
#
# Elastic Compliance Matrix: (Units=1/GPa)
#
#
# Indices 1 2 3 4 5 6 
#
# 1 0.013564 -0.003138 -0.006969 0.000000 0.000000 0.000000
# 2 -0.003138 0.012718 -0.006277 0.000000 0.000000 0.000000
# 3 -0.006969 -0.006277 0.027946 0.000000 0.000000 0.000000
# 4 0.000000 0.000000 0.000000 0.102093 0.000000 0.000000
# 5 0.000000 0.000000 0.000000 0.000000 -0.046248 0.000000
# 6 0.000000 0.000000 0.000000 0.000000 0.000000 0.021882
#
#
# Mechanical properties :
#
#
# Convention : Reuss Voigt Hill
#
# Bulk Modulus (GPa) = 46.59698 53.52982 50.06340
# Shear Modulus (GPa) = 29.09092 16.65768 22.87430
#
# Velocity S-wave (km/s) = 3.80271 2.87754 3.37201
# Velocity P-wave (km/s) = 6.51486 6.13589 6.32821
#
# Compressibility (1/GPa) = 0.02146062
#
# Stress axis : x y z
#
# Youngs Moduli (GPa) = 73.72627 78.62565 35.78391
#
# Poissons Ratio (x) = 0.24672 0.24936
# Poissons Ratio (y) = 0.23135 0.22462
# Poissons Ratio (z) = 0.51377 0.49353
#
# Static dielectric constant tensor:
#      x y z
#    x 1.745840 0.000000 0.000000 
#    y 0.000000 1.772260 0.000000 
#    z 0.000000 0.000000 1.711400 
# 
# From -- ./inp_files/28315.got.cif
#   From: 2010.05.17/outbox.cif.g08.bks.cpg/sg73_15_cif.got.tgz:28315.got - 2010.06.03 17:35:07.
