data_PCOD9531005
_publ_section_title
;
Structure prediction by ZEFSAII (Michael W. Deem and Ramdas Pophale) SiO2 
 PCOD9531005
Probable space group: I B C A 
;
_chemical_formula_sum "Si O2"
_cell_formula_units_Z 96
_cell_length_a 13.599738
_cell_length_b 12.597821
_cell_length_c 23.660901
_cell_angle_alpha 90.000000
_cell_angle_beta 90.000000
_cell_angle_gamma 90.000000
_cell_volume 4053.752723
_symmetry_space_group_name_H-M "I B C A "
_symmetry_group_IT_number 73
_symmetry_cell_setting 'orthorhombic'
loop_
_space_group_symop_operation_xyz
x,y,z
-x,1/2-y,z
x,-y,1/2-z
1/2-x,y,-z
-x,-y,-z
x,1/2+y,-z
-x,y,1/2+z
1/2+x,-y,z
1/2+x,1/2+y,1/2+z
1/2-x,-y,1/2+z
1/2+x,1/2-y,-z
-x,1/2+y,1/2-z
1/2-x,1/2-y,1/2-z
1/2+x,y,1/2-z
1/2-x,1/2+y,z
x,1/2-y,1/2+z
loop_
_atom_site_type_symbol
_atom_site_label
_atom_site_fract_x
_atom_site_fract_y
_atom_site_fract_z
Si Si1 0.784436 0.181774 0.825114
Si Si2 0.500000 0.250000 0.655897
Si Si3 0.092270 0.319630 0.674821
Si Si4 0.662122 0.500000 0.750000
Si Si5 0.451296 0.574039 0.934928
Si Si6 0.770031 0.063544 0.063260
Si Si7 0.110905 0.905555 0.446123
O O1 0.802067 0.235065 0.685843
O O2 0.770632 0.141723 0.889481
O O3 0.897427 0.217289 0.814374
O O4 0.771580 0.078798 0.786407
O O5 0.464287 0.347379 0.616678
O O6 0.082967 0.336851 0.607415
O O7 0.000000 0.250000 0.693687
O O8 0.096923 0.432548 0.706123
O O9 0.382061 0.470761 0.925362
O O10 0.555577 0.519337 0.945852
O O11 0.413308 0.634646 0.991267
O O12 0.720849 0.945973 0.064326
O O13 0.750000 0.104980 0.000000
#
# Coordination Sequence:
#
# PCOD9531005 Si02
#       7
#    16   8  16   8  16  16  16
#     4  12  27  47  73 106 142 189 241 292 366 421
#     4  12  24  40  70 108 142 180 232 292 342 442
#     4  12  27  48  77 106 135 187 247 301 357 426
#     4  12  28  54  72 100 148 182 242 314 352 430
#     4  10  21  36  68  97 143 187 216 280 349 421
#     4  10  20  40  67  97 141 189 227 282 351 420
#     4  10  20  42  61 100 140 180 228 277 354 410
#
# _framework density 23.681760000000001
#
# number of rings (size 3 to 8) (size 9 to 14) (size 15 to 20)
#    0.000    1.000    3.333    2.500    2.333    2.000 
#    0.000    0.000    0.000    0.000    0.000    0.000 
#    0.000    0.000    0.000    0.000    0.000    0.000 
#
# Total GULP energy -268369.547085 kJ/mol
# GULP energy per Si atom -5591.032231 kJ/mol
# Density = 2.362786 g / cm^3
# Si number density = 23.681760 Si / 1000 Ang^3
#
#
#
# Elastic Constant Matrix: (Units=GPa)
#
#
# Indices 1 2 3 4 5 6 
#
# 1 116.6387 37.4909 37.5633 0.0000 0.0000 0.0000
# 2 37.4909 67.0695 32.2100 0.0000 0.0000 0.0000
# 3 37.5633 32.2100 84.1583 0.0000 0.0000 0.0000
# 4 0.0000 0.0000 0.0000 38.5606 0.0000 0.0000
# 5 0.0000 0.0000 0.0000 0.0000 25.6143 0.0000
# 6 0.0000 0.0000 0.0000 0.0000 0.0000 34.2916
#
#
#
# Elastic Compliance Matrix: (Units=1/GPa)
#
#
# Indices 1 2 3 4 5 6 
#
# 1 0.011097 -0.004686 -0.003160 0.000000 0.000000 0.000000
# 2 -0.004686 0.020246 -0.005657 0.000000 0.000000 0.000000
# 3 -0.003160 -0.005657 0.015458 0.000000 0.000000 0.000000
# 4 0.000000 0.000000 0.000000 0.025933 0.000000 0.000000
# 5 0.000000 0.000000 0.000000 0.000000 0.039041 0.000000
# 6 0.000000 0.000000 0.000000 0.000000 0.000000 0.029162
#
#
# Mechanical properties :
#
#
# Convention : Reuss Voigt Hill
#
# Bulk Modulus (GPa) = 50.51643 53.59941 52.05792
# Shear Modulus (GPa) = 28.64655 30.40012 29.52334
#
# Velocity S-wave (km/s) = 3.48177 3.58675 3.53465
# Velocity P-wave (km/s) = 6.12710 6.31153 6.22000
#
# Compressibility (1/GPa) = 0.01979554
#
# Stress axis : x y z
#
# Youngs Moduli (GPa) = 90.11289 49.39220 64.69153
#
# Poissons Ratio (x) = 0.23144 0.20441
# Poissons Ratio (y) = 0.42224 0.36599
# Poissons Ratio (z) = 0.28474 0.27943
#
# Static dielectric constant tensor:
#      x y z
#    x 1.899330 0.000000 0.000000 
#    y 0.000000 1.854750 0.000000 
#    z 0.000000 0.000000 1.944490 
# 
# From -- ./inp_files/29488.got.cif
#   From: 2010.05.17/outbox.cif.g08.bks.cpg/sg73_15_cif.got.tgz:29488.got - 2010.06.03 17:35:07.
