data_PCOD9531223
_publ_section_title
;
Structure prediction by ZEFSAII (Michael W. Deem and Ramdas Pophale) SiO2 
 PCOD9531223
Probable space group: I B C A 
;
_chemical_formula_sum "Si O2"
_cell_formula_units_Z 72
_cell_length_a 5.546148
_cell_length_b 21.824840
_cell_length_c 25.278435
_cell_angle_alpha 90.000000
_cell_angle_beta 90.000000
_cell_angle_gamma 90.000000
_cell_volume 3059.797646
_symmetry_space_group_name_H-M "I B C A "
_symmetry_group_IT_number 73
_symmetry_cell_setting 'orthorhombic'
loop_
_space_group_symop_operation_xyz
x,y,z
-x,1/2-y,z
x,-y,1/2-z
1/2-x,y,-z
-x,-y,-z
x,1/2+y,-z
-x,y,1/2+z
1/2+x,-y,z
1/2+x,1/2+y,1/2+z
1/2-x,-y,1/2+z
1/2+x,1/2-y,-z
-x,1/2+y,1/2-z
1/2-x,1/2-y,1/2-z
1/2+x,y,1/2-z
1/2-x,1/2+y,z
x,1/2-y,1/2+z
loop_
_atom_site_type_symbol
_atom_site_label
_atom_site_fract_x
_atom_site_fract_y
_atom_site_fract_z
Si Si1 0.365747 0.688905 0.550475
Si Si2 0.280432 0.135279 0.863017
Si Si3 0.000000 0.250000 0.369533
Si Si4 0.478800 0.524009 0.190069
Si Si5 0.663463 0.040306 0.554064
O O1 0.500000 0.750000 0.529004
O O2 0.250000 0.655822 0.500000
O O3 0.538464 0.654258 0.590374
O O4 0.167875 0.712861 0.590912
O O5 0.151598 0.196283 0.841355
O O6 0.408702 0.094679 0.818168
O O7 0.126283 0.087543 0.897757
O O8 0.499431 0.500000 0.250000
O O9 0.745061 0.511962 0.167557
O O10 0.750000 0.075224 0.500000
O O11 0.408943 0.002766 0.555032
#
# Coordination Sequence:
#
# PCOD9531223 Si02
#       5
#    16  16   8  16  16
#     4  10  21  36  56  87 133 190 235 269 323 397
#     4  11  24  37  65  94 134 180 232 293 341 418
#     4  10  24  38  58  94 134 192 230 274 336 414
#     4  10  23  45  75 104 129 169 229 297 371 432
#     4  10  23  38  56  86 125 173 223 278 336 390
#
# _framework density 23.530967
#
# number of rings (size 3 to 8) (size 9 to 14) (size 15 to 20)
#    0.000    1.778    1.111    1.333    9.333    0.889 
#    0.000    0.000    0.000    5.333    0.000    0.000 
#    0.000    0.000    0.000    0.000    0.000    0.000 
#
# Total GULP energy -200530.909583 kJ/mol
# GULP energy per Si atom -5570.303044 kJ/mol
# Density = 2.347741 g / cm^3
# Si number density = 23.530967 Si / 1000 Ang^3
#
#
#
# Elastic Constant Matrix: (Units=GPa)
#
#
# Indices 1 2 3 4 5 6 
#
# 1 134.4997 29.9886 11.7480 0.0000 0.0000 0.0000
# 2 29.9886 87.4966 43.9437 0.0000 0.0000 0.0000
# 3 11.7480 43.9437 72.9965 0.0000 0.0000 0.0000
# 4 0.0000 0.0000 0.0000 44.3538 0.0000 0.0000
# 5 0.0000 0.0000 0.0000 0.0000 25.8505 0.0000
# 6 0.0000 0.0000 0.0000 0.0000 0.0000 37.6359
#
#
#
# Elastic Compliance Matrix: (Units=1/GPa)
#
#
# Indices 1 2 3 4 5 6 
#
# 1 0.008064 -0.003027 0.000525 0.000000 0.000000 0.000000
# 2 -0.003027 0.017519 -0.010059 0.000000 0.000000 0.000000
# 3 0.000525 -0.010059 0.019670 0.000000 0.000000 0.000000
# 4 0.000000 0.000000 0.000000 0.022546 0.000000 0.000000
# 5 0.000000 0.000000 0.000000 0.000000 0.038684 0.000000
# 6 0.000000 0.000000 0.000000 0.000000 0.000000 0.026570
#
#
# Mechanical properties :
#
#
# Convention : Reuss Voigt Hill
#
# Bulk Modulus (GPa) = 49.67788 51.81703 50.74746
# Shear Modulus (GPa) = 30.32391 35.52222 32.92306
#
# Velocity S-wave (km/s) = 3.59371 3.88956 3.74456
# Velocity P-wave (km/s) = 6.19494 6.49925 6.34892
#
# Compressibility (1/GPa) = 0.02012968
#
# Stress axis : x y z
#
# Youngs Moduli (GPa) = 124.00585 57.08245 50.83813
#
# Poissons Ratio (x) = 0.17281 -0.02667
# Poissons Ratio (y) = 0.37542 0.51137
# Poissons Ratio (z) = -0.06506 0.57419
#
# Static dielectric constant tensor:
#      x y z
#    x 3.385750 0.000000 0.000000 
#    y 0.000000 2.288870 0.000000 
#    z 0.000000 0.000000 1.727060 
# 
# From -- ./inp_files/2539.got.cif
#   From: 2010.05.17/outbox.cif.g08.bks.cpg/sg73_2_cif.got.tgz:2539.got - 2010.06.03 17:35:07.
