data_PCOD9531249
_publ_section_title
;
Structure prediction by ZEFSAII (Michael W. Deem and Ramdas Pophale) SiO2 
 PCOD9531249
Probable space group: I B C A 
;
_chemical_formula_sum "Si O2"
_cell_formula_units_Z 112
_cell_length_a 13.579080
_cell_length_b 9.644630
_cell_length_c 37.173965
_cell_angle_alpha 90.000000
_cell_angle_beta 90.000000
_cell_angle_gamma 90.000000
_cell_volume 4868.495848
_symmetry_space_group_name_H-M "I B C A "
_symmetry_group_IT_number 73
_symmetry_cell_setting 'orthorhombic'
loop_
_space_group_symop_operation_xyz
x,y,z
-x,1/2-y,z
x,-y,1/2-z
1/2-x,y,-z
-x,-y,-z
x,1/2+y,-z
-x,y,1/2+z
1/2+x,-y,z
1/2+x,1/2+y,1/2+z
1/2-x,-y,1/2+z
1/2+x,1/2-y,-z
-x,1/2+y,1/2-z
1/2-x,1/2-y,1/2-z
1/2+x,y,1/2-z
1/2-x,1/2+y,z
x,1/2-y,1/2+z
loop_
_atom_site_type_symbol
_atom_site_label
_atom_site_fract_x
_atom_site_fract_y
_atom_site_fract_z
Si Si1 0.798567 0.753395 0.102031
Si Si2 0.381079 0.749609 0.971818
Si Si3 0.364351 0.184745 0.176263
Si Si4 0.881419 0.944196 0.892029
Si Si5 0.701053 0.130306 0.273486
Si Si6 0.586303 0.457928 0.971893
Si Si7 0.546806 0.512308 0.814074
O O1 0.831233 0.811159 0.063392
O O2 0.868666 0.813667 0.133290
O O3 0.816392 0.587377 0.105102
O O4 0.689798 0.811092 0.108815
O O5 0.500000 0.750000 0.964241
O O6 0.346134 0.907394 0.973405
O O7 0.366922 0.675028 0.009559
O O8 0.256639 0.142867 0.188696
O O9 0.390702 0.342108 0.188339
O O10 0.438109 0.070896 0.192021
O O11 0.941237 0.957896 0.854952
O O12 0.940140 0.937459 0.930096
O O13 0.750000 0.250000 0.250000
O O14 0.588814 0.099046 0.285670
O O15 0.730203 0.000000 0.250000
O O16 0.500000 0.500000 0.000000
#
# Coordination Sequence:
#
# PCOD9531249 Si02
#       7
#    16  16  16  16  16  16  16
#     4  10  21  36  64  90 125 168 218 272 334 391
#     4   9  19  34  55  84 116 161 217 266 327 384
#     4  10  22  41  69  99 132 176 227 279 330 417
#     4  10  21  38  63  91 129 169 221 278 331 404
#     4  12  24  44  72 100 142 177 219 284 342 407
#     4   9  19  34  56  84 119 161 214 271 325 384
#     4  10  22  42  69 101 130 178 233 271 346 406
#
# _framework density 23.005051999999999
#
# number of rings (size 3 to 8) (size 9 to 14) (size 15 to 20)
#    0.000    2.000    2.857    0.000    8.000    2.286 
#    0.000    2.857    0.000    0.000    0.000    0.000 
#    0.000    0.000    0.000    0.000    0.000    0.000 
#
# Total GULP energy -312153.610448 kJ/mol
# GULP energy per Si atom -5574.171615 kJ/mol
# Density = 2.295269 g / cm^3
# Si number density = 23.005052 Si / 1000 Ang^3
#
#
#
# Elastic Constant Matrix: (Units=GPa)
#
#
# Indices 1 2 3 4 5 6 
#
# 1 31.7999 -11.7726 6.1620 0.0000 0.0000 0.0000
# 2 -11.7726 45.4937 33.2499 0.0000 0.0000 0.0000
# 3 6.1620 33.2499 117.7380 0.0000 0.0000 0.0000
# 4 0.0000 0.0000 0.0000 33.5205 0.0000 0.0000
# 5 0.0000 0.0000 0.0000 0.0000 30.7489 0.0000
# 6 0.0000 0.0000 0.0000 0.0000 0.0000 26.3246
#
#
#
# Elastic Compliance Matrix: (Units=1/GPa)
#
#
# Indices 1 2 3 4 5 6 
#
# 1 0.037850 0.014167 -0.005982 0.000000 0.000000 0.000000
# 2 0.014167 0.033000 -0.010061 0.000000 0.000000 0.000000
# 3 -0.005982 -0.010061 0.011648 0.000000 0.000000 0.000000
# 4 0.000000 0.000000 0.000000 0.029833 0.000000 0.000000
# 5 0.000000 0.000000 0.000000 0.000000 0.032521 0.000000
# 6 0.000000 0.000000 0.000000 0.000000 0.000000 0.037987
#
#
# Mechanical properties :
#
#
# Convention : Reuss Voigt Hill
#
# Bulk Modulus (GPa) = 12.69901 27.81224 20.25562
# Shear Modulus (GPa) = 23.49178 29.27827 26.38503
#
# Velocity S-wave (km/s) = 3.19902 3.57135 3.39030
# Velocity P-wave (km/s) = 4.37916 5.39647 4.91421
#
# Compressibility (1/GPa) = 0.07874627
#
# Stress axis : x y z
#
# Youngs Moduli (GPa) = 26.41985 30.30284 85.85350
#
# Poissons Ratio (x) = -0.42929 0.51355
# Poissons Ratio (y) = -0.37428 0.86376
# Poissons Ratio (z) = 0.15803 0.30487
#
# Static dielectric constant tensor:
#      x y z
#    x 1.928290 0.000000 0.000000 
#    y 0.000000 1.893590 0.000000 
#    z 0.000000 0.000000 1.913260 
# 
# From -- ./inp_files/34321.got.cif
#   From: 2010.05.17/outbox.cif.g08.bks.cpg/sg73_18_cif.got.tgz:34321.got - 2010.06.03 17:35:07.
