data_PCOD9531448
_publ_section_title
;
Structure prediction by ZEFSAII (Michael W. Deem and Ramdas Pophale) SiO2 
 PCOD9531448
Probable space group: I B C A 
;
_chemical_formula_sum "Si O2"
_cell_formula_units_Z 96
_cell_length_a 9.255285
_cell_length_b 25.911588
_cell_length_c 19.821184
_cell_angle_alpha 90.000000
_cell_angle_beta 90.000000
_cell_angle_gamma 90.000000
_cell_volume 4753.499137
_symmetry_space_group_name_H-M "I B C A "
_symmetry_group_IT_number 73
_symmetry_cell_setting 'orthorhombic'
loop_
_space_group_symop_operation_xyz
x,y,z
-x,1/2-y,z
x,-y,1/2-z
1/2-x,y,-z
-x,-y,-z
x,1/2+y,-z
-x,y,1/2+z
1/2+x,-y,z
1/2+x,1/2+y,1/2+z
1/2-x,-y,1/2+z
1/2+x,1/2-y,-z
-x,1/2+y,1/2-z
1/2-x,1/2-y,1/2-z
1/2+x,y,1/2-z
1/2-x,1/2+y,z
x,1/2-y,1/2+z
loop_
_atom_site_type_symbol
_atom_site_label
_atom_site_fract_x
_atom_site_fract_y
_atom_site_fract_z
Si Si1 0.750000 0.406814 0.500000
Si Si2 0.825948 0.032984 0.687060
Si Si3 0.316764 0.130835 0.252476
Si Si4 0.250000 0.767307 0.500000
Si Si5 0.932794 0.804278 0.690422
Si Si6 0.543557 0.815607 0.466623
Si Si7 0.114254 0.549841 0.368313
O O1 0.612550 0.370917 0.519393
O O2 0.803982 0.438927 0.563152
O O3 0.775152 0.088852 0.711274
O O4 0.944987 0.038543 0.629411
O O5 0.891167 0.000000 0.750000
O O6 0.690964 0.999177 0.664898
O O7 0.450180 0.151951 0.209357
O O8 0.366593 0.099196 0.318731
O O9 0.214642 0.178076 0.274498
O O10 0.370559 0.806550 0.468905
O O11 0.371379 0.722993 0.518290
O O12 0.000000 0.750000 0.713372
O O13 0.911002 0.800938 0.609804
#
# Coordination Sequence:
#
# PCOD9531448 Si02
#       7
#     8  16  16   8  16  16  16
#     4  11  24  40  62  95 132 164 209 278 321 382
#     4  10  22  41  68  93 123 170 216 262 330 400
#     4  11  23  41  66  95 132 168 209 269 334 380
#     4   9  18  40  60  87 118 188 215 254 299 388
#     4  12  23  42  63  99 133 168 214 273 314 383
#     4  10  21  39  64  88 131 174 222 258 316 381
#     4  11  23  41  64  96 124 168 216 267 328 390
#
# _framework density 20.195649
#
# number of rings (size 3 to 8) (size 9 to 14) (size 15 to 20)
#    0.000    1.333    5.000    2.000    2.333    2.000 
#    0.000    0.000    0.000    0.000    0.000    0.000 
#    0.000    0.000    0.000    0.000    0.000    0.000 
#
# Total GULP energy -267207.385355 kJ/mol
# GULP energy per Si atom -5566.820528 kJ/mol
# Density = 2.014968 g / cm^3
# Si number density = 20.195649 Si / 1000 Ang^3
#
#
#
# Elastic Constant Matrix: (Units=GPa)
#
#
# Indices 1 2 3 4 5 6 
#
# 1 93.7022 7.2321 17.7007 0.0000 0.0000 0.0000
# 2 7.2321 58.1474 11.6708 0.0000 0.0000 0.0000
# 3 17.7007 11.6708 52.6795 0.0000 0.0000 0.0000
# 4 0.0000 0.0000 0.0000 10.3302 0.0000 0.0000
# 5 0.0000 0.0000 0.0000 0.0000 18.6868 0.0000
# 6 0.0000 0.0000 0.0000 0.0000 0.0000 13.6086
#
#
#
# Elastic Compliance Matrix: (Units=1/GPa)
#
#
# Indices 1 2 3 4 5 6 
#
# 1 0.011421 -0.000681 -0.003687 0.000000 0.000000 0.000000
# 2 -0.000681 0.018039 -0.003768 0.000000 0.000000 0.000000
# 3 -0.003687 -0.003768 0.021056 0.000000 0.000000 0.000000
# 4 0.000000 0.000000 0.000000 0.096803 0.000000 0.000000
# 5 0.000000 0.000000 0.000000 0.000000 0.053514 0.000000
# 6 0.000000 0.000000 0.000000 0.000000 0.000000 0.073483
#
#
# Mechanical properties :
#
#
# Convention : Reuss Voigt Hill
#
# Bulk Modulus (GPa) = 29.20060 30.85957 30.03009
# Shear Modulus (GPa) = 16.55625 19.72017 18.13821
#
# Velocity S-wave (km/s) = 2.86631 3.12822 3.00012
# Velocity P-wave (km/s) = 5.04426 5.32552 5.18680
#
# Compressibility (1/GPa) = 0.03424587
#
# Stress axis : x y z
#
# Youngs Moduli (GPa) = 87.55739 55.43689 47.49197
#
# Poissons Ratio (x) = 0.03773 0.17509
# Poissons Ratio (y) = 0.05958 0.17893
# Poissons Ratio (z) = 0.32281 0.20887
#
# Static dielectric constant tensor:
#      x y z
#    x 1.725220 0.000000 0.000000 
#    y 0.000000 1.733070 0.000000 
#    z 0.000000 0.000000 1.723770 
# 
# From -- ./inp_files/24926.got.cif
#   From: 2010.05.17/outbox.cif.g08.bks.cpg/sg73_13_cif.got.tgz:24926.got - 2010.06.03 17:35:07.
