data_PCOD9531043
_publ_section_title
;
Structure prediction by ZEFSAII (Michael W. Deem and Ramdas Pophale) SiO2 
 PCOD9531043
Probable space group: I B C A 
;
_chemical_formula_sum "Si O2"
_cell_formula_units_Z 88
_cell_length_a 19.641260
_cell_length_b 14.981072
_cell_length_c 13.933812
_cell_angle_alpha 90.000000
_cell_angle_beta 90.000000
_cell_angle_gamma 90.000000
_cell_volume 4099.984194
_symmetry_space_group_name_H-M "I B C A "
_symmetry_group_IT_number 73
_symmetry_cell_setting 'orthorhombic'
loop_
_space_group_symop_operation_xyz
x,y,z
-x,1/2-y,z
x,-y,1/2-z
1/2-x,y,-z
-x,-y,-z
x,1/2+y,-z
-x,y,1/2+z
1/2+x,-y,z
1/2+x,1/2+y,1/2+z
1/2-x,-y,1/2+z
1/2+x,1/2-y,-z
-x,1/2+y,1/2-z
1/2-x,1/2-y,1/2-z
1/2+x,y,1/2-z
1/2-x,1/2+y,z
x,1/2-y,1/2+z
loop_
_atom_site_type_symbol
_atom_site_label
_atom_site_fract_x
_atom_site_fract_y
_atom_site_fract_z
Si Si1 0.430756 0.692125 0.442492
Si Si2 0.317059 0.178434 0.297744
Si Si3 0.784785 0.272024 0.910821
Si Si4 0.521662 0.055645 0.909808
Si Si5 0.937635 0.679915 0.273553
Si Si6 0.605812 0.000000 0.750000
O O1 0.500000 0.750000 0.447748
O O2 0.362094 0.750368 0.438116
O O3 0.432099 0.631282 0.537441
O O4 0.429427 0.646301 0.336490
O O5 0.263541 0.187124 0.384381
O O6 0.282147 0.182043 0.192481
O O7 0.371061 0.261128 0.300314
O O8 0.354374 0.084821 0.287571
O O9 0.750000 0.320369 0.000000
O O10 0.462727 0.105737 0.849062
O O11 0.557715 0.984226 0.840500
O O12 0.500000 0.000000 0.000000
O O13 0.000000 0.750000 0.270991
#
# Coordination Sequence:
#
# PCOD9531043 Si02
#       6
#    16  16  16  16  16   8
#     4  10  23  41  68  97 129 175 230 286 340 419
#     4  10  23  42  65  92 131 182 225 274 349 421
#     4  10  22  41  67  94 122 169 231 272 331 423
#     4  12  25  36  63 101 135 171 227 288 349 395
#     4  10  20  41  65  89 131 179 224 276 340 412
#     4  12  24  42  60  96 142 178 218 292 344 406
#
# _framework density 21.463497
#
# number of rings (size 3 to 8) (size 9 to 14) (size 15 to 20)
#    0.000    1.455    1.818    2.727    7.636    0.000 
#    0.000    8.182    0.000    0.000    0.000    0.000 
#    0.000    0.000    0.000    0.000    0.000    0.000 
#
# Total GULP energy -245297.878726 kJ/mol
# GULP energy per Si atom -5574.951789 kJ/mol
# Density = 2.141465 g / cm^3
# Si number density = 21.463497 Si / 1000 Ang^3
#
#
#
# Elastic Constant Matrix: (Units=GPa)
#
#
# Indices 1 2 3 4 5 6 
#
# 1 110.5264 12.1627 22.4424 0.0000 0.0000 0.0000
# 2 12.1627 40.6938 9.2164 0.0000 0.0000 0.0000
# 3 22.4424 9.2164 125.0913 0.0000 0.0000 0.0000
# 4 0.0000 0.0000 0.0000 30.9153 0.0000 0.0000
# 5 0.0000 0.0000 0.0000 0.0000 37.7308 0.0000
# 6 0.0000 0.0000 0.0000 0.0000 0.0000 23.7122
#
#
#
# Elastic Compliance Matrix: (Units=1/GPa)
#
#
# Indices 1 2 3 4 5 6 
#
# 1 0.009639 -0.002532 -0.001543 0.000000 0.000000 0.000000
# 2 -0.002532 0.025656 -0.001436 0.000000 0.000000 0.000000
# 3 -0.001543 -0.001436 0.008377 0.000000 0.000000 0.000000
# 4 0.000000 0.000000 0.000000 0.032346 0.000000 0.000000
# 5 0.000000 0.000000 0.000000 0.000000 0.026504 0.000000
# 6 0.000000 0.000000 0.000000 0.000000 0.000000 0.042172
#
#
# Mechanical properties :
#
#
# Convention : Reuss Voigt Hill
#
# Bulk Modulus (GPa) = 30.62714 40.43939 35.53327
# Shear Modulus (GPa) = 30.01218 33.97099 31.99159
#
# Velocity S-wave (km/s) = 3.74343 3.98267 3.86490
# Velocity P-wave (km/s) = 5.74323 6.32699 6.04217
#
# Compressibility (1/GPa) = 0.03265078
#
# Stress axis : x y z
#
# Youngs Moduli (GPa) = 103.74003 38.97776 119.37775
#
# Poissons Ratio (x) = 0.09868 0.18418
# Poissons Ratio (y) = 0.26263 0.17143
# Poissons Ratio (z) = 0.16006 0.05597
#
# Static dielectric constant tensor:
#      x y z
#    x 1.989620 0.000000 0.000000 
#    y 0.000000 1.922610 0.000000 
#    z 0.000000 0.000000 1.755700 
# 
# From -- ./inp_files/18538.got.cif
#   From: 2010.05.17/outbox.cif.g08.bks.cpg/sg73_10_cif.got.tgz:18538.got - 2010.06.03 17:35:07.
