data_PCOD9531797
_publ_section_title
;
Structure prediction by ZEFSAII (Michael W. Deem and Ramdas Pophale) SiO2 
 PCOD9531797
Probable space group: I B C A 
;
_chemical_formula_sum "Si O2"
_cell_formula_units_Z 96
_cell_length_a 7.569765
_cell_length_b 27.746502
_cell_length_c 21.938051
_cell_angle_alpha 90.000000
_cell_angle_beta 90.000000
_cell_angle_gamma 90.000000
_cell_volume 4607.747566
_symmetry_space_group_name_H-M "I B C A "
_symmetry_group_IT_number 73
_symmetry_cell_setting 'orthorhombic'
loop_
_space_group_symop_operation_xyz
x,y,z
-x,1/2-y,z
x,-y,1/2-z
1/2-x,y,-z
-x,-y,-z
x,1/2+y,-z
-x,y,1/2+z
1/2+x,-y,z
1/2+x,1/2+y,1/2+z
1/2-x,-y,1/2+z
1/2+x,1/2-y,-z
-x,1/2+y,1/2-z
1/2-x,1/2-y,1/2-z
1/2+x,y,1/2-z
1/2-x,1/2+y,z
x,1/2-y,1/2+z
loop_
_atom_site_type_symbol
_atom_site_label
_atom_site_fract_x
_atom_site_fract_y
_atom_site_fract_z
Si Si1 0.130795 0.962497 0.439898
Si Si2 0.076600 0.648069 0.806802
Si Si3 0.167845 0.903923 0.888856
Si Si4 0.479949 0.938802 0.381887
Si Si5 0.820504 0.445357 0.269893
Si Si6 0.368626 0.213916 0.209023
O O1 0.250000 0.970264 0.500000
O O2 0.953066 0.930431 0.438941
O O3 0.276943 0.935960 0.398806
O O4 0.064905 0.012902 0.412120
O O5 0.940465 0.640065 0.861680
O O6 0.154631 0.599569 0.775392
O O7 0.239398 0.680404 0.828644
O O8 0.975424 0.677859 0.753771
O O9 0.375879 0.898808 0.902824
O O10 0.182630 0.935921 0.825774
O O11 0.497615 0.943399 0.309581
O O12 0.802272 0.500000 0.250000
O O13 0.500000 0.250000 0.175060
O O14 0.250000 0.250000 0.250000
#
# Coordination Sequence:
#
# PCOD9531797 Si02
#       6
#    16  16  16  16  16  16
#     4  12  23  38  56  71 102 153 210 263 287 324
#     4  11  19  36  53  82 119 156 187 235 281 339
#     4  10  24  35  52  79 112 149 195 239 283 336
#     4  10  22  36  51  76 100 148 205 236 286 333
#     4  10  22  36  51  80 122 163 195 224 274 341
#     4   9  19  34  56  78 108 155 192 230 286 343
#
# _framework density 20.834475000000001
#
# number of rings (size 3 to 8) (size 9 to 14) (size 15 to 20)
#    1.000    0.667    3.333    1.500    2.333    3.333 
#    0.000    0.833    0.000    0.000    0.000    0.000 
#    0.000    4.000    0.000    0.333    0.000    0.000 
#
# Total GULP energy -267374.539237 kJ/mol
# GULP energy per Si atom -5570.302901 kJ/mol
# Density = 2.078705 g / cm^3
# Si number density = 20.834475 Si / 1000 Ang^3
#
#
#
# Elastic Constant Matrix: (Units=GPa)
#
#
# Indices 1 2 3 4 5 6 
#
# 1 103.0547 28.9119 -3.7423 0.0000 0.0000 0.0000
# 2 28.9119 78.0838 10.2477 0.0000 0.0000 0.0000
# 3 -3.7423 10.2477 38.8573 0.0000 0.0000 0.0000
# 4 0.0000 0.0000 0.0000 4.3562 0.0000 0.0000
# 5 0.0000 0.0000 0.0000 0.0000 32.0462 0.0000
# 6 0.0000 0.0000 0.0000 0.0000 0.0000 42.4809
#
#
#
# Elastic Compliance Matrix: (Units=1/GPa)
#
#
# Indices 1 2 3 4 5 6 
#
# 1 0.011009 -0.004367 0.002212 0.000000 0.000000 0.000000
# 2 -0.004367 0.014998 -0.004376 0.000000 0.000000 0.000000
# 3 0.002212 -0.004376 0.027102 0.000000 0.000000 0.000000
# 4 0.000000 0.000000 0.000000 0.229555 0.000000 0.000000
# 5 0.000000 0.000000 0.000000 0.000000 0.031205 0.000000
# 6 0.000000 0.000000 0.000000 0.000000 0.000000 0.023540
#
#
# Mechanical properties :
#
#
# Convention : Reuss Voigt Hill
#
# Bulk Modulus (GPa) = 24.97012 32.31450 28.64231
# Shear Modulus (GPa) = 13.74306 28.08189 20.91247
#
# Velocity S-wave (km/s) = 2.57111 3.67530 3.17163
# Velocity P-wave (km/s) = 4.56346 5.79260 5.21437
#
# Compressibility (1/GPa) = 0.04004786
#
# Stress axis : x y z
#
# Youngs Moduli (GPa) = 90.83528 66.67630 36.89734
#
# Poissons Ratio (x) = 0.29114 -0.08161
# Poissons Ratio (y) = 0.39664 0.16146
# Poissons Ratio (z) = -0.20091 0.29177
#
# Static dielectric constant tensor:
#      x y z
#    x 1.928480 0.000000 0.000000 
#    y 0.000000 1.758380 0.000000 
#    z 0.000000 0.000000 1.830030 
# 
# From -- ./inp_files/28464.got.cif
#   From: 2010.05.17/outbox.cif.g08.bks.cpg/sg73_15_cif.got.tgz:28464.got - 2010.06.03 17:35:07.
