data_PCOD9531523
_publ_section_title
;
Structure prediction by ZEFSAII (Michael W. Deem and Ramdas Pophale) SiO2 
 PCOD9531523
Probable space group: I B C A 
;
_chemical_formula_sum "Si O2"
_cell_formula_units_Z 56
_cell_length_a 5.459819
_cell_length_b 14.778353
_cell_length_c 26.839117
_cell_angle_alpha 90.000000
_cell_angle_beta 90.000000
_cell_angle_gamma 90.000000
_cell_volume 2165.571390
_symmetry_space_group_name_H-M "I B C A "
_symmetry_group_IT_number 73
_symmetry_cell_setting 'orthorhombic'
loop_
_space_group_symop_operation_xyz
x,y,z
-x,1/2-y,z
x,-y,1/2-z
1/2-x,y,-z
-x,-y,-z
x,1/2+y,-z
-x,y,1/2+z
1/2+x,-y,z
1/2+x,1/2+y,1/2+z
1/2-x,-y,1/2+z
1/2+x,1/2-y,-z
-x,1/2+y,1/2-z
1/2-x,1/2-y,1/2-z
1/2+x,y,1/2-z
1/2-x,1/2+y,z
x,1/2-y,1/2+z
loop_
_atom_site_type_symbol
_atom_site_label
_atom_site_fract_x
_atom_site_fract_y
_atom_site_fract_z
Si Si1 0.000000 0.250000 0.967698
Si Si2 0.098420 0.982960 0.316446
Si Si3 0.566320 0.545932 0.930870
Si Si4 0.750254 0.782821 0.807668
O O1 0.972121 0.153076 0.939333
O O2 0.750000 0.258095 0.000000
O O3 0.242141 0.889188 0.311519
O O4 0.326431 0.043089 0.295870
O O5 0.068756 0.018432 0.372362
O O6 0.330718 0.489292 0.949934
O O7 0.500000 0.750000 0.831079
O O8 0.750000 0.750000 0.750000
O O9 0.000000 0.750000 0.832626
#
# Coordination Sequence:
#
# PCOD9531523 Si02
#       4
#     8  16  16  16
#     4  12  26  44  74 108 142 188 228 290 370 432
#     4  10  21  42  64  96 133 182 230 288 345 405
#     4  10  23  45  67 104 141 184 237 288 345 432
#     4  10  21  40  63  97 134 179 233 293 347 415
#
# _framework density 25.859224999999999
#
# number of rings (size 3 to 8) (size 9 to 14) (size 15 to 20)
#    0.000    1.714    0.000    3.429    0.000    3.429 
#   30.857   17.143    0.000    0.000    0.000    0.000 
#    0.000    0.000    0.000    0.000    0.000    0.000 
#
# Total GULP energy -156280.662039 kJ/mol
# GULP energy per Si atom -5581.452216 kJ/mol
# Density = 2.580037 g / cm^3
# Si number density = 25.859225 Si / 1000 Ang^3
#
#
#
# Elastic Constant Matrix: (Units=GPa)
#
#
# Indices 1 2 3 4 5 6 
#
# 1 274.0569 15.4032 41.9099 0.0000 0.0000 0.0000
# 2 15.4032 167.5571 60.0595 0.0000 0.0000 0.0000
# 3 41.9099 60.0595 104.9953 0.0000 0.0000 0.0000
# 4 0.0000 0.0000 0.0000 44.7241 0.0000 0.0000
# 5 0.0000 0.0000 0.0000 0.0000 25.5512 0.0000
# 6 0.0000 0.0000 0.0000 0.0000 0.0000 57.9076
#
#
#
# Elastic Compliance Matrix: (Units=1/GPa)
#
#
# Indices 1 2 3 4 5 6 
#
# 1 0.003894 0.000251 -0.001698 0.000000 0.000000 0.000000
# 2 0.000251 0.007524 -0.004404 0.000000 0.000000 0.000000
# 3 -0.001698 -0.004404 0.012721 0.000000 0.000000 0.000000
# 4 0.000000 0.000000 0.000000 0.022359 0.000000 0.000000
# 5 0.000000 0.000000 0.000000 0.000000 0.039137 0.000000
# 6 0.000000 0.000000 0.000000 0.000000 0.000000 0.017269
#
#
# Mechanical properties :
#
#
# Convention : Reuss Voigt Hill
#
# Bulk Modulus (GPa) = 80.40473 86.81717 83.61095
# Shear Modulus (GPa) = 42.10465 54.25234 48.17850
#
# Velocity S-wave (km/s) = 4.03951 4.58535 4.32105
# Velocity P-wave (km/s) = 7.27445 7.85365 7.56959
#
# Compressibility (1/GPa) = 0.01243708
#
# Stress axis : x y z
#
# Youngs Moduli (GPa) = 256.77669 132.91642 78.61074
#
# Poissons Ratio (x) = -0.03330 0.13347
# Poissons Ratio (y) = -0.06434 0.34617
# Poissons Ratio (z) = 0.43596 0.58531
#
# Static dielectric constant tensor:
#      x y z
#    x 3.173100 0.000000 0.000000 
#    y 0.000000 2.152860 0.000000 
#    z 0.000000 0.000000 2.046400 
# 
# From -- ./inp_files/2868.got.cif
#   From: 2010.05.17/outbox.cif.g08.bks.cpg/sg73_2_cif.got.tgz:2868.got - 2010.06.03 17:35:07.
