data_PCOD9531338
_publ_section_title
;
Structure prediction by ZEFSAII (Michael W. Deem and Ramdas Pophale) SiO2 
 PCOD9531338
Probable space group: I B C A 
;
_chemical_formula_sum "Si O2"
_cell_formula_units_Z 56
_cell_length_a 5.647177
_cell_length_b 21.357786
_cell_length_c 18.886844
_cell_angle_alpha 90.000000
_cell_angle_beta 90.000000
_cell_angle_gamma 90.000000
_cell_volume 2277.964879
_symmetry_space_group_name_H-M "I B C A "
_symmetry_group_IT_number 73
_symmetry_cell_setting 'orthorhombic'
loop_
_space_group_symop_operation_xyz
x,y,z
-x,1/2-y,z
x,-y,1/2-z
1/2-x,y,-z
-x,-y,-z
x,1/2+y,-z
-x,y,1/2+z
1/2+x,-y,z
1/2+x,1/2+y,1/2+z
1/2-x,-y,1/2+z
1/2+x,1/2-y,-z
-x,1/2+y,1/2-z
1/2-x,1/2-y,1/2-z
1/2+x,y,1/2-z
1/2-x,1/2+y,z
x,1/2-y,1/2+z
loop_
_atom_site_type_symbol
_atom_site_label
_atom_site_fract_x
_atom_site_fract_y
_atom_site_fract_z
Si Si1 0.853138 0.476404 0.830791
Si Si2 0.495112 0.174744 0.466801
Si Si3 0.847150 0.339217 0.176941
Si Si4 0.000000 0.250000 0.804064
O O1 0.876798 0.500000 0.750000
O O2 0.612658 0.507717 0.862537
O O3 0.793880 0.403282 0.821096
O O4 0.500000 0.250000 0.473805
O O5 0.250000 0.151492 0.500000
O O6 0.464807 0.153933 0.384347
O O7 0.750000 0.151473 0.500000
O O8 0.689254 0.282250 0.147477
O O9 0.922953 0.306444 0.250869
#
# Coordination Sequence:
#
# PCOD9531338 Si02
#       4
#    16  16  16   8
#     4  10  21  38  60  87 124 174 214 256 315 391
#     4  10  23  40  63  88 127 176 217 258 318 394
#     4  11  22  38  63  97 139 167 220 270 338 400
#     4  10  22  34  60 104 136 166 198 280 358 396
#
# _framework density 24.583347
#
# number of rings (size 3 to 8) (size 9 to 14) (size 15 to 20)
#    0.000    1.714    1.429    3.429    6.000    4.571 
#    0.000    0.000    0.000    5.143    0.000    0.000 
#    0.000    0.000    0.000    0.000    0.000    0.000 
#
# Total GULP energy -156069.662579 kJ/mol
# GULP energy per Si atom -5573.916521 kJ/mol
# Density = 2.452739 g / cm^3
# Si number density = 24.583347 Si / 1000 Ang^3
#
#
#
# Elastic Constant Matrix: (Units=GPa)
#
#
# Indices 1 2 3 4 5 6 
#
# 1 164.4626 31.0975 11.5793 0.0000 0.0000 0.0000
# 2 31.0975 88.4468 16.0576 0.0000 0.0000 0.0000
# 3 11.5793 16.0576 57.7893 0.0000 0.0000 0.0000
# 4 0.0000 0.0000 0.0000 3.3007 0.0000 0.0000
# 5 0.0000 0.0000 0.0000 0.0000 35.4029 0.0000
# 6 0.0000 0.0000 0.0000 0.0000 0.0000 32.5120
#
#
#
# Elastic Compliance Matrix: (Units=1/GPa)
#
#
# Indices 1 2 3 4 5 6 
#
# 1 0.006541 -0.002171 -0.000707 0.000000 0.000000 0.000000
# 2 -0.002171 0.012628 -0.003074 0.000000 0.000000 0.000000
# 3 -0.000707 -0.003074 0.018300 0.000000 0.000000 0.000000
# 4 0.000000 0.000000 0.000000 0.302966 0.000000 0.000000
# 5 0.000000 0.000000 0.000000 0.000000 0.028246 0.000000
# 6 0.000000 0.000000 0.000000 0.000000 0.000000 0.030758
#
#
# Mechanical properties :
#
#
# Convention : Reuss Voigt Hill
#
# Bulk Modulus (GPa) = 39.11762 47.57418 43.34590
# Shear Modulus (GPa) = 11.90860 31.04076 21.47468
#
# Velocity S-wave (km/s) = 2.20334 3.55727 2.95879
# Velocity P-wave (km/s) = 4.73495 6.02216 5.41692
#
# Compressibility (1/GPa) = 0.02556393
#
# Stress axis : x y z
#
# Youngs Moduli (GPa) = 152.88731 79.19106 54.64468
#
# Poissons Ratio (x) = 0.17195 0.03865
# Poissons Ratio (y) = 0.33196 0.16796
# Poissons Ratio (z) = 0.10813 0.24341
#
# Static dielectric constant tensor:
#      x y z
#    x 2.395400 0.000000 0.000000 
#    y 0.000000 1.967500 0.000000 
#    z 0.000000 0.000000 1.910840 
# 
# From -- ./inp_files/24304.got.cif
#   From: 2010.05.17/outbox.cif.g08.bks.cpg/sg73_13_cif.got.tgz:24304.got - 2010.06.03 17:35:07.
