data_PCOD9531374
_publ_section_title
;
Structure prediction by ZEFSAII (Michael W. Deem and Ramdas Pophale) SiO2 
 PCOD9531374
Probable space group: I B C A 
;
_chemical_formula_sum "Si O2"
_cell_formula_units_Z 96
_cell_length_a 18.472038
_cell_length_b 18.916599
_cell_length_c 12.540551
_cell_angle_alpha 90.000000
_cell_angle_beta 90.000000
_cell_angle_gamma 90.000000
_cell_volume 4382.021355
_symmetry_space_group_name_H-M "I B C A "
_symmetry_group_IT_number 73
_symmetry_cell_setting 'orthorhombic'
loop_
_space_group_symop_operation_xyz
x,y,z
-x,1/2-y,z
x,-y,1/2-z
1/2-x,y,-z
-x,-y,-z
x,1/2+y,-z
-x,y,1/2+z
1/2+x,-y,z
1/2+x,1/2+y,1/2+z
1/2-x,-y,1/2+z
1/2+x,1/2-y,-z
-x,1/2+y,1/2-z
1/2-x,1/2-y,1/2-z
1/2+x,y,1/2-z
1/2-x,1/2+y,z
x,1/2-y,1/2+z
loop_
_atom_site_type_symbol
_atom_site_label
_atom_site_fract_x
_atom_site_fract_y
_atom_site_fract_z
Si Si1 0.841593 0.000000 0.750000
Si Si2 0.885010 0.500000 0.750000
Si Si3 0.225420 0.915168 0.621033
Si Si4 0.671267 0.774106 0.781908
Si Si5 0.958539 0.680749 0.205857
Si Si6 0.051211 0.444707 0.934686
Si Si7 0.435228 0.635813 0.639727
O O1 0.790223 0.063430 0.704149
O O2 0.891713 0.020444 0.852047
O O3 0.835305 0.528606 0.654503
O O4 0.930013 0.437278 0.702751
O O5 0.250000 0.923614 0.500000
O O6 0.188422 0.838385 0.636896
O O7 0.750000 0.750000 0.750000
O O8 0.623982 0.704643 0.808992
O O9 0.624181 0.811333 0.688323
O O10 0.986036 0.614011 0.139838
O O11 0.000000 0.750000 0.166643
O O12 0.986056 0.666900 0.327594
O O13 0.082472 0.390245 0.022351
O O14 0.000000 0.500000 0.000000
#
# Coordination Sequence:
#
# PCOD9531374 Si02
#       7
#     8   8  16  16  16  16  16
#     4  11  24  41  64 104 142 170 234 300 344 426
#     4   9  18  37  60  90 122 156 212 268 324 406
#     4  10  21  38  64  94 131 177 219 276 352 416
#     4  10  22  41  63  92 131 172 225 284 338 413
#     4  10  23  41  61  93 131 171 228 285 336 416
#     4  12  24  40  67  97 132 178 226 286 355 413
#     4  10  21  39  63  87 122 168 211 268 338 402
#
# _framework density 21.907699999999998
#
# number of rings (size 3 to 8) (size 9 to 14) (size 15 to 20)
#    0.000    1.667    0.000    4.000    0.000    6.000 
#    0.000    5.000    0.000    0.000    0.000    0.000 
#    0.000    0.000    0.000    0.000    0.000    0.000 
#
# Total GULP energy -267318.423147 kJ/mol
# GULP energy per Si atom -5569.133816 kJ/mol
# Density = 2.185784 g / cm^3
# Si number density = 21.907700 Si / 1000 Ang^3
#
#
#
# Elastic Constant Matrix: (Units=GPa)
#
#
# Indices 1 2 3 4 5 6 
#
# 1 94.8037 40.3431 41.9869 0.0000 0.0000 0.0000
# 2 40.3431 102.3382 33.0555 0.0000 0.0000 0.0000
# 3 41.9869 33.0555 132.8815 0.0000 0.0000 0.0000
# 4 0.0000 0.0000 0.0000 30.6890 0.0000 0.0000
# 5 0.0000 0.0000 0.0000 0.0000 34.9098 0.0000
# 6 0.0000 0.0000 0.0000 0.0000 0.0000 -5.1372
#
#
#
# Elastic Compliance Matrix: (Units=1/GPa)
#
#
# Indices 1 2 3 4 5 6 
#
# 1 0.013881 -0.004410 -0.003289 0.000000 0.000000 0.000000
# 2 -0.004410 0.012026 -0.001598 0.000000 0.000000 0.000000
# 3 -0.003289 -0.001598 0.008962 0.000000 0.000000 0.000000
# 4 0.000000 0.000000 0.000000 0.032585 0.000000 0.000000
# 5 0.000000 0.000000 0.000000 0.000000 0.028645 0.000000
# 6 0.000000 0.000000 0.000000 0.000000 0.000000 -0.194657
#
#
# Mechanical properties :
#
#
# Convention : Reuss Voigt Hill
#
# Bulk Modulus (GPa) = 61.44209 62.31049 61.87629
# Shear Modulus (GPa) = -67.08058 26.40150 -20.33954
#
# Velocity S-wave (km/s) = -5.53950 3.47526 -3.05030
# Velocity P-wave (km/s) = 3.57883 6.67886 3.98743
#
# Compressibility (1/GPa) = 0.01627549
#
# Stress axis : x y z
#
# Youngs Moduli (GPa) = 72.03895 83.15196 111.57780
#
# Poissons Ratio (x) = 0.36669 0.36700
# Poissons Ratio (y) = 0.31768 0.17833
# Poissons Ratio (z) = 0.23695 0.13290
#
# Static dielectric constant tensor:
#      x y z
#    x 1.872330 0.000000 0.000000 
#    y 0.000000 1.867430 0.000000 
#    z 0.000000 0.000000 1.988350 
# 
# From -- ./inp_files/12897.got.cif
#   From: 2010.05.17/outbox.cif.g08.bks.cpg/sg73_7_cif.got.tgz:12897.got - 2010.06.03 17:35:07.
