data_PCOD9531779
_publ_section_title
;
Structure prediction by ZEFSAII (Michael W. Deem and Ramdas Pophale) SiO2 
 PCOD9531779
Probable space group: I B C A 
;
_chemical_formula_sum "Si O2"
_cell_formula_units_Z 128
_cell_length_a 25.408913
_cell_length_b 14.105436
_cell_length_c 20.281449
_cell_angle_alpha 90.000000
_cell_angle_beta 90.000000
_cell_angle_gamma 90.000000
_cell_volume 7268.948313
_symmetry_space_group_name_H-M "I B C A "
_symmetry_group_IT_number 73
_symmetry_cell_setting 'orthorhombic'
loop_
_space_group_symop_operation_xyz
x,y,z
-x,1/2-y,z
x,-y,1/2-z
1/2-x,y,-z
-x,-y,-z
x,1/2+y,-z
-x,y,1/2+z
1/2+x,-y,z
1/2+x,1/2+y,1/2+z
1/2-x,-y,1/2+z
1/2+x,1/2-y,-z
-x,1/2+y,1/2-z
1/2-x,1/2-y,1/2-z
1/2+x,y,1/2-z
1/2-x,1/2+y,z
x,1/2-y,1/2+z
loop_
_atom_site_type_symbol
_atom_site_label
_atom_site_fract_x
_atom_site_fract_y
_atom_site_fract_z
Si Si1 0.828131 0.088490 0.128114
Si Si2 0.809059 0.870413 0.994673
Si Si3 0.137212 0.315567 0.002005
Si Si4 0.811848 0.265040 0.743261
Si Si5 0.294662 0.440603 0.091145
Si Si6 0.856979 0.387933 0.860510
Si Si7 0.938535 0.229315 0.886024
Si Si8 0.625257 0.091824 0.209134
O O1 0.767171 0.069119 0.106798
O O2 0.854385 0.996528 0.161125
O O3 0.861924 0.114452 0.063551
O O4 0.829157 0.890913 0.068210
O O5 0.805861 0.964053 0.950287
O O6 0.750000 0.832693 0.000000
O O7 0.846469 0.786838 0.970080
O O8 0.182960 0.353455 0.952433
O O9 0.086075 0.305822 0.955908
O O10 0.750000 0.250000 0.750000
O O11 0.826432 0.324266 0.808346
O O12 0.825538 0.326088 0.679436
O O13 0.844729 0.167994 0.745039
O O14 0.329958 0.440618 0.156789
O O15 0.910572 0.329991 0.870233
O O16 0.918555 0.151336 0.832221
O O17 0.000000 0.250000 0.887527
O O18 0.606813 0.000000 0.250000
#
# Coordination Sequence:
#
# PCOD9531779 Si02
#       8
#    16  16  16  16  16  16  16  16
#     4  12  21  34  56  85 132 160 199 239 294 365
#     4  11  19  30  55  79 118 154 192 236 290 349
#     4  10  22  34  55  88 113 154 208 248 295 362
#     4  11  24  35  54  85 127 177 196 230 292 370
#     4  11  20  35  54  84 126 164 193 234 295 363
#     4  10  22  38  55  87 116 156 207 245 302 368
#     4   9  21  46  69  82 114 159 209 269 324 354
#     4  10  23  39  59  92 122 154 214 247 299 379
#
# _framework density 17.60915
#
# number of rings (size 3 to 8) (size 9 to 14) (size 15 to 20)
#    0.000    1.500    3.750    2.250    5.250    0.000 
#    0.000    3.125    0.000    3.000    0.000    0.000 
#    0.000    0.000    0.000    0.000    0.000    0.000 
#
# Total GULP energy -357024.640907 kJ/mol
# GULP energy per Si atom -5578.510014 kJ/mol
# Density = 1.756907 g / cm^3
# Si number density = 17.609150 Si / 1000 Ang^3
#
#
#
# Elastic Constant Matrix: (Units=GPa)
#
#
# Indices 1 2 3 4 5 6 
#
# 1 130.0757 54.9819 43.3154 0.0000 0.0000 0.0000
# 2 54.9819 111.8137 55.8764 0.0000 0.0000 0.0000
# 3 43.3154 55.8764 58.4016 0.0000 0.0000 0.0000
# 4 0.0000 0.0000 0.0000 33.5879 0.0000 0.0000
# 5 0.0000 0.0000 0.0000 0.0000 7.9016 0.0000
# 6 0.0000 0.0000 0.0000 0.0000 0.0000 10.9836
#
#
#
# Elastic Compliance Matrix: (Units=1/GPa)
#
#
# Indices 1 2 3 4 5 6 
#
# 1 0.010548 -0.002447 -0.005482 0.000000 0.000000 0.000000
# 2 -0.002447 0.017705 -0.015124 0.000000 0.000000 0.000000
# 3 -0.005482 -0.015124 0.035659 0.000000 0.000000 0.000000
# 4 0.000000 0.000000 0.000000 0.029773 0.000000 0.000000
# 5 0.000000 0.000000 0.000000 0.000000 0.126557 0.000000
# 6 0.000000 0.000000 0.000000 0.000000 0.000000 0.091045
#
#
# Mechanical properties :
#
#
# Convention : Reuss Voigt Hill
#
# Bulk Modulus (GPa) = 56.16374 67.62649 61.89511
# Shear Modulus (GPa) = 13.76174 20.23576 16.99875
#
# Velocity S-wave (km/s) = 2.79858 3.39361 3.11036
# Velocity P-wave (km/s) = 6.51204 7.33778 6.93720
#
# Compressibility (1/GPa) = 0.01780508
#
# Stress axis : x y z
#
# Youngs Moduli (GPa) = 94.80793 56.48177 28.04368
#
# Poissons Ratio (x) = 0.13823 0.15372
# Poissons Ratio (y) = 0.23202 0.42414
# Poissons Ratio (z) = 0.51969 0.85424
#
# Static dielectric constant tensor:
#      x y z
#    x 1.570470 0.000000 0.000000 
#    y 0.000000 1.667970 0.000000 
#    z 0.000000 0.000000 1.623130 
# 
# From -- ./inp_files/30388.got.cif
#   From: 2010.05.17/outbox.cif.g08.bks.cpg/sg73_16_cif.got.tgz:30388.got - 2010.06.03 17:35:07.
