data_PCOD9531888
_publ_section_title
;
Structure prediction by ZEFSAII (Michael W. Deem and Ramdas Pophale) SiO2 
 PCOD9531888
Probable space group: I B C A 
;
_chemical_formula_sum "Si O2"
_cell_formula_units_Z 72
_cell_length_a 23.882519
_cell_length_b 26.361938
_cell_length_c 5.018807
_cell_angle_alpha 90.000000
_cell_angle_beta 90.000000
_cell_angle_gamma 90.000000
_cell_volume 3159.788115
_symmetry_space_group_name_H-M "I B C A "
_symmetry_group_IT_number 73
_symmetry_cell_setting 'orthorhombic'
loop_
_space_group_symop_operation_xyz
x,y,z
-x,1/2-y,z
x,-y,1/2-z
1/2-x,y,-z
-x,-y,-z
x,1/2+y,-z
-x,y,1/2+z
1/2+x,-y,z
1/2+x,1/2+y,1/2+z
1/2-x,-y,1/2+z
1/2+x,1/2-y,-z
-x,1/2+y,1/2-z
1/2-x,1/2-y,1/2-z
1/2+x,y,1/2-z
1/2-x,1/2+y,z
x,1/2-y,1/2+z
loop_
_atom_site_type_symbol
_atom_site_label
_atom_site_fract_x
_atom_site_fract_y
_atom_site_fract_z
Si Si1 0.209826 0.850550 0.248086
Si Si2 0.250000 0.532689 0.000000
Si Si3 0.639110 0.944132 0.138617
Si Si4 0.894704 0.717610 0.329821
Si Si5 0.536125 0.621981 0.468408
O O1 0.250000 0.861199 0.500000
O O2 0.170654 0.899930 0.185066
O O3 0.167676 0.806015 0.333369
O O4 0.250000 0.838947 0.000000
O O5 0.267327 0.500000 0.250000
O O6 0.311311 0.553108 0.917723
O O7 0.582531 0.919926 0.032040
O O8 0.625481 0.000000 0.250000
O O9 0.902741 0.765152 0.526172
O O10 0.935842 0.674933 0.443039
O O11 0.517079 0.617565 0.164120
#
# Coordination Sequence:
#
# PCOD9531888 Si02
#       5
#    16   8  16  16  16
#     4  11  24  39  62  96 135 172 211 262 322 392
#     4  10  22  38  64  96 126 168 222 266 314 382
#     4  10  24  42  68  98 134 178 221 266 323 388
#     4  11  24  43  67  96 126 167 218 269 330 390
#     4  11  26  46  67  97 132 171 223 276 326 386
#
# _framework density 22.786335999999999
#
# number of rings (size 3 to 8) (size 9 to 14) (size 15 to 20)
#    0.000    1.333    1.111    2.667    6.222   15.111 
#    0.000    0.000    0.000    0.000    0.000    0.000 
#    0.000    0.000    0.000    0.000    0.000    0.000 
#
# Total GULP energy -200730.633663 kJ/mol
# GULP energy per Si atom -5575.850935 kJ/mol
# Density = 2.273447 g / cm^3
# Si number density = 22.786336 Si / 1000 Ang^3
#
#
#
# Elastic Constant Matrix: (Units=GPa)
#
#
# Indices 1 2 3 4 5 6 
#
# 1 68.1839 15.9447 -16.3668 0.0000 0.0000 0.0000
# 2 15.9447 65.0273 -10.4748 0.0000 0.0000 0.0000
# 3 -16.3668 -10.4748 66.6387 0.0000 0.0000 0.0000
# 4 0.0000 0.0000 0.0000 23.3929 0.0000 0.0000
# 5 0.0000 0.0000 0.0000 0.0000 35.8505 0.0000
# 6 0.0000 0.0000 0.0000 0.0000 0.0000 24.3584
#
#
#
# Elastic Compliance Matrix: (Units=1/GPa)
#
#
# Indices 1 2 3 4 5 6 
#
# 1 0.016302 -0.003439 0.003463 0.000000 0.000000 0.000000
# 2 -0.003439 0.016503 0.001749 0.000000 0.000000 0.000000
# 3 0.003463 0.001749 0.016132 0.000000 0.000000 0.000000
# 4 0.000000 0.000000 0.000000 0.042748 0.000000 0.000000
# 5 0.000000 0.000000 0.000000 0.000000 0.027894 0.000000
# 6 0.000000 0.000000 0.000000 0.000000 0.000000 0.041054
#
#
# Mechanical properties :
#
#
# Convention : Reuss Voigt Hill
#
# Bulk Modulus (GPa) = 19.05362 19.78400 19.41881
# Shear Modulus (GPa) = 28.64013 30.77015 29.70514
#
# Velocity S-wave (km/s) = 3.54912 3.67873 3.61451
# Velocity P-wave (km/s) = 5.01748 5.17159 5.09512
#
# Compressibility (1/GPa) = 0.05248346
#
# Stress axis : x y z
#
# Youngs Moduli (GPa) = 61.34287 60.59402 61.98911
#
# Poissons Ratio (x) = 0.20840 -0.21468
# Poissons Ratio (y) = 0.21098 -0.10844
# Poissons Ratio (z) = -0.21244 -0.10600
#
# Static dielectric constant tensor:
#      x y z
#    x 1.860050 0.000000 0.000000 
#    y 0.000000 0.589470 0.000000 
#    z 0.000000 0.000000 1.857760 
# 
# From -- ./inp_files/1684.got.cif
#   From: 2010.05.17/outbox.cif.g08.bks.cpg/sg73_1_cif.got.tgz:1684.got - 2010.06.03 17:35:07.
