data_PCOD9531889
_publ_section_title
;
Structure prediction by ZEFSAII (Michael W. Deem and Ramdas Pophale) SiO2 
 PCOD9531889
Probable space group: I B C A 
;
_chemical_formula_sum "Si O2"
_cell_formula_units_Z 64
_cell_length_a 8.503179
_cell_length_b 22.823545
_cell_length_c 14.231392
_cell_angle_alpha 90.000000
_cell_angle_beta 90.000000
_cell_angle_gamma 90.000000
_cell_volume 2761.924507
_symmetry_space_group_name_H-M "I B C A "
_symmetry_group_IT_number 73
_symmetry_cell_setting 'orthorhombic'
loop_
_space_group_symop_operation_xyz
x,y,z
-x,1/2-y,z
x,-y,1/2-z
1/2-x,y,-z
-x,-y,-z
x,1/2+y,-z
-x,y,1/2+z
1/2+x,-y,z
1/2+x,1/2+y,1/2+z
1/2-x,-y,1/2+z
1/2+x,1/2-y,-z
-x,1/2+y,1/2-z
1/2-x,1/2-y,1/2-z
1/2+x,y,1/2-z
1/2-x,1/2+y,z
x,1/2-y,1/2+z
loop_
_atom_site_type_symbol
_atom_site_label
_atom_site_fract_x
_atom_site_fract_y
_atom_site_fract_z
Si Si1 0.500000 0.250000 0.364299
Si Si2 0.570500 0.938461 0.536302
Si Si3 0.427423 0.622064 0.205971
Si Si4 0.399583 0.634190 0.888462
Si Si5 0.250000 0.261852 0.500000
O O1 0.452914 0.307872 0.309816
O O2 0.364242 0.226991 0.433455
O O3 0.750000 0.933657 0.500000
O O4 0.543474 0.919936 0.645275
O O5 0.452438 0.894206 0.484747
O O6 0.500000 0.000000 0.500000
O O7 0.253496 0.610250 0.166351
O O8 0.460237 0.619500 0.316454
O O9 0.349090 0.698430 0.925976
#
# Coordination Sequence:
#
# PCOD9531889 Si02
#       5
#     8  16  16  16   8
#     4  10  22  38  64  98 134 182 222 272 340 402
#     4  12  25  45  71  97 133 176 222 284 340 398
#     4  11  24  41  66 102 134 181 226 275 338 405
#     4  11  22  45  65  99 139 176 228 280 335 402
#     4  10  22  40  66  92 148 176 222 282 328 420
#
# _framework density 23.172246999999999
#
# number of rings (size 3 to 8) (size 9 to 14) (size 15 to 20)
#    0.000    1.000    5.000    3.000    1.750    8.000 
#    0.000    5.000    0.000    0.000    0.000    0.000 
#    0.000    0.000    0.000    0.000    0.000    0.000 
#
# Total GULP energy -178463.102420 kJ/mol
# GULP energy per Si atom -5576.971951 kJ/mol
# Density = 2.311951 g / cm^3
# Si number density = 23.172247 Si / 1000 Ang^3
#
#
#
# Elastic Constant Matrix: (Units=GPa)
#
#
# Indices 1 2 3 4 5 6 
#
# 1 75.7339 -0.8141 -10.8297 0.0000 0.0000 0.0000
# 2 -0.8141 44.2079 -9.6048 0.0000 0.0000 0.0000
# 3 -10.8297 -9.6048 95.3051 0.0001 -0.0001 0.0000
# 4 0.0000 0.0000 0.0001 -23.9447 0.0000 0.0000
# 5 0.0000 0.0000 -0.0001 0.0000 25.3796 0.0000
# 6 0.0000 0.0000 0.0000 0.0000 0.0000 11.2144
#
#
#
# Elastic Compliance Matrix: (Units=1/GPa)
#
#
# Indices 1 2 3 4 5 6 
#
# 1 0.013437 0.000592 0.001587 0.000000 0.000000 0.000000
# 2 0.000592 0.023153 0.002401 0.000000 0.000000 0.000000
# 3 0.001587 0.002401 0.010915 0.000000 0.000000 0.000000
# 4 0.000000 0.000000 0.000000 -0.041763 0.000000 0.000000
# 5 0.000000 0.000000 0.000000 0.000000 0.039402 0.000000
# 6 0.000000 0.000000 0.000000 0.000000 0.000000 0.089171
#
#
# Mechanical properties :
#
#
# Convention : Reuss Voigt Hill
#
# Bulk Modulus (GPa) = 17.64796 19.19442 18.42119
# Shear Modulus (GPa) = 34.71164 18.29624 26.50394
#
# Velocity S-wave (km/s) = 3.87458 2.81299 3.38565
# Velocity P-wave (km/s) = 5.25823 4.34187 4.82187
#
# Compressibility (1/GPa) = 0.05666379
#
# Stress axis : x y z
#
# Youngs Moduli (GPa) = 74.41936 43.19123 91.61839
#
# Poissons Ratio (x) = -0.02558 -0.14536
# Poissons Ratio (y) = -0.04407 -0.21994
# Poissons Ratio (z) = -0.11807 -0.10369
#
# Static dielectric constant tensor:
#      x y z
#    x 1.955990 0.000000 0.000000 
#    y 0.000000 1.947950 0.000000 
#    z 0.000000 0.000000 1.916060 
# 
# From -- ./inp_files/4677.got.cif
#   From: 2010.05.17/outbox.cif.g08.bks.cpg/sg73_3_cif.got.tgz:4677.got - 2010.06.03 17:35:07.
