data_PCOD9531896
_publ_section_title
;
Structure prediction by ZEFSAII (Michael W. Deem and Ramdas Pophale) SiO2 
 PCOD9531896
Probable space group: I B C A 
;
_chemical_formula_sum "Si O2"
_cell_formula_units_Z 72
_cell_length_a 8.306788
_cell_length_b 18.343541
_cell_length_c 19.722261
_cell_angle_alpha 90.000000
_cell_angle_beta 90.000000
_cell_angle_gamma 90.000000
_cell_volume 3005.197393
_symmetry_space_group_name_H-M "I B C A "
_symmetry_group_IT_number 73
_symmetry_cell_setting 'orthorhombic'
loop_
_space_group_symop_operation_xyz
x,y,z
-x,1/2-y,z
x,-y,1/2-z
1/2-x,y,-z
-x,-y,-z
x,1/2+y,-z
-x,y,1/2+z
1/2+x,-y,z
1/2+x,1/2+y,1/2+z
1/2-x,-y,1/2+z
1/2+x,1/2-y,-z
-x,1/2+y,1/2-z
1/2-x,1/2-y,1/2-z
1/2+x,y,1/2-z
1/2-x,1/2+y,z
x,1/2-y,1/2+z
loop_
_atom_site_type_symbol
_atom_site_label
_atom_site_fract_x
_atom_site_fract_y
_atom_site_fract_z
Si Si1 0.580522 0.003470 0.587106
Si Si2 0.153516 0.199130 0.360895
Si Si3 0.511732 0.627467 0.992289
Si Si4 0.000000 0.750000 0.900206
Si Si5 0.678170 0.460521 0.681513
O O1 0.593032 0.937704 0.535143
O O2 0.642145 0.982798 0.661499
O O3 0.615164 0.082315 0.554363
O O4 0.393516 0.012893 0.609000
O O5 0.119702 0.172136 0.438463
O O6 0.334570 0.231824 0.359932
O O7 0.151071 0.125704 0.316216
O O8 0.000000 0.250000 0.343846
O O9 0.456512 0.683435 0.049462
O O10 0.636294 0.500000 0.750000
#
# Coordination Sequence:
#
# PCOD9531896 Si02
#       5
#    16  16  16   8  16
#     4  10  23  40  69  99 137 187 243 293 356 429
#     4  11  25  42  72 111 151 186 234 298 377 447
#     4  10  22  38  67 106 146 180 230 299 369 447
#     4  12  22  40  72 108 156 186 224 298 392 450
#     4  11  24  46  70  98 141 193 253 299 348 423
#
# _framework density 23.958492
#
# number of rings (size 3 to 8) (size 9 to 14) (size 15 to 20)
#    0.000    1.333    3.333    1.333    3.111    8.000 
#    0.000    0.000    2.444    9.333    0.000    0.000 
#    0.000    0.000    0.000    0.000    0.000    0.000 
#
# Total GULP energy -200723.298783 kJ/mol
# GULP energy per Si atom -5575.647188 kJ/mol
# Density = 2.390396 g / cm^3
# Si number density = 23.958492 Si / 1000 Ang^3
#
#
#
# Elastic Constant Matrix: (Units=GPa)
#
#
# Indices 1 2 3 4 5 6 
#
# 1 81.0409 67.5098 50.9714 0.0000 0.0000 0.0000
# 2 67.5098 147.0892 59.8763 0.0000 0.0000 0.0000
# 3 50.9714 59.8763 95.7123 0.0000 0.0000 0.0000
# 4 0.0000 0.0000 0.0000 40.6293 0.0000 0.0000
# 5 0.0000 0.0000 0.0000 0.0000 28.5604 0.0000
# 6 0.0000 0.0000 0.0000 0.0000 0.0000 21.5738
#
#
#
# Elastic Compliance Matrix: (Units=1/GPa)
#
#
# Indices 1 2 3 4 5 6 
#
# 1 0.023629 -0.007678 -0.007780 0.000000 0.000000 0.000000
# 2 -0.007678 0.011616 -0.003178 0.000000 0.000000 0.000000
# 3 -0.007780 -0.003178 0.016580 0.000000 0.000000 0.000000
# 4 0.000000 0.000000 0.000000 0.024613 0.000000 0.000000
# 5 0.000000 0.000000 0.000000 0.000000 0.035014 0.000000
# 6 0.000000 0.000000 0.000000 0.000000 0.000000 0.046353
#
#
# Mechanical properties :
#
#
# Convention : Reuss Voigt Hill
#
# Bulk Modulus (GPa) = 68.71889 75.61749 72.16819
# Shear Modulus (GPa) = 25.00915 27.85170 26.43043
#
# Velocity S-wave (km/s) = 3.23438 3.41324 3.32501
# Velocity P-wave (km/s) = 6.53399 6.86761 6.70287
#
# Compressibility (1/GPa) = 0.01455204
#
# Stress axis : x y z
#
# Youngs Moduli (GPa) = 42.32117 86.08640 60.31510
#
# Poissons Ratio (x) = 0.66095 0.46927
# Poissons Ratio (y) = 0.32493 0.19169
# Poissons Ratio (z) = 0.32927 0.27360
#
# Static dielectric constant tensor:
#      x y z
#    x 2.093400 0.000000 0.000000 
#    y 0.000000 1.961620 0.000000 
#    z 0.000000 0.000000 1.859650 
# 
# From -- ./inp_files/20599.got.cif
#   From: 2010.05.17/outbox.cif.g08.bks.cpg/sg73_11_cif.got.tgz:20599.got - 2010.06.03 17:35:07.
