data_PCOD9531910
_publ_section_title
;
Structure prediction by ZEFSAII (Michael W. Deem and Ramdas Pophale) SiO2 
 PCOD9531910
Probable space group: I B C A 
;
_chemical_formula_sum "Si O2"
_cell_formula_units_Z 88
_cell_length_a 5.717497
_cell_length_b 23.498320
_cell_length_c 27.937963
_cell_angle_alpha 90.000000
_cell_angle_beta 90.000000
_cell_angle_gamma 90.000000
_cell_volume 3753.509306
_symmetry_space_group_name_H-M "I B C A "
_symmetry_group_IT_number 73
_symmetry_cell_setting 'orthorhombic'
loop_
_space_group_symop_operation_xyz
x,y,z
-x,1/2-y,z
x,-y,1/2-z
1/2-x,y,-z
-x,-y,-z
x,1/2+y,-z
-x,y,1/2+z
1/2+x,-y,z
1/2+x,1/2+y,1/2+z
1/2-x,-y,1/2+z
1/2+x,1/2-y,-z
-x,1/2+y,1/2-z
1/2-x,1/2-y,1/2-z
1/2+x,y,1/2-z
1/2-x,1/2+y,z
x,1/2-y,1/2+z
loop_
_atom_site_type_symbol
_atom_site_label
_atom_site_fract_x
_atom_site_fract_y
_atom_site_fract_z
Si Si1 0.467393 0.815916 0.379441
Si Si2 0.971446 0.999858 0.330865
Si Si3 0.279140 0.080173 0.603547
Si Si4 0.532424 0.683012 0.267139
Si Si5 0.394772 0.807478 0.544732
Si Si6 0.750000 0.602056 0.000000
O O1 0.500000 0.750000 0.390813
O O2 0.698178 0.852379 0.390586
O O3 0.415929 0.820002 0.323434
O O4 0.268042 0.836313 0.415526
O O5 0.935624 0.947908 0.368323
O O6 0.721527 0.005553 0.305251
O O7 0.008701 0.054153 0.365281
O O8 0.303924 0.066419 0.547723
O O9 0.500000 0.750000 0.252882
O O10 0.769186 0.658778 0.242360
O O11 0.500000 0.750000 0.567023
O O12 0.250000 0.782553 0.500000
O O13 0.549154 0.855492 0.518938
#
# Coordination Sequence:
#
# PCOD9531910 Si02
#       6
#    16  16  16  16  16   8
#     4  11  23  40  63  95 124 167 209 260 324 387
#     4   8  20  40  58  80 116 160 216 264 307 356
#     4  10  22  39  56  87 117 167 217 261 313 369
#     4   9  20  40  63  92 126 158 199 256 320 387
#     4  12  23  38  52  81 132 178 215 252 304 381
#     4  12  24  32  58  80 122 166 218 282 306 358
#
# _framework density 23.444725999999999
#
# number of rings (size 3 to 8) (size 9 to 14) (size 15 to 20)
#    1.091    0.727    2.727    1.636    2.545    5.818 
#    0.000    0.000    0.000    0.000    0.000    3.818 
#    0.000    0.000    0.000    0.000    0.000    0.000 
#
# Total GULP energy -245112.617641 kJ/mol
# GULP energy per Si atom -5570.741310 kJ/mol
# Density = 2.339136 g / cm^3
# Si number density = 23.444726 Si / 1000 Ang^3
#
#
#
# Elastic Constant Matrix: (Units=GPa)
#
#
# Indices 1 2 3 4 5 6 
#
# 1 157.8230 2.1245 42.6051 0.0000 0.0000 0.0000
# 2 2.1245 52.0267 0.7009 0.0000 0.0000 0.0000
# 3 42.6051 0.7009 94.2293 0.0000 0.0000 0.0000
# 4 0.0000 0.0000 0.0000 -106.5797 0.0000 0.0000
# 5 0.0000 0.0000 0.0000 0.0000 -6.0704 0.0000
# 6 0.0000 0.0000 0.0000 0.0000 0.0000 25.0813
#
#
#
# Elastic Compliance Matrix: (Units=1/GPa)
#
#
# Indices 1 2 3 4 5 6 
#
# 1 0.007220 -0.000251 -0.003263 0.000000 0.000000 0.000000
# 2 -0.000251 0.019232 -0.000030 0.000000 0.000000 0.000000
# 3 -0.003263 -0.000030 0.012088 0.000000 0.000000 0.000000
# 4 0.000000 0.000000 0.000000 -0.009383 0.000000 0.000000
# 5 0.000000 0.000000 0.000000 0.000000 -0.164732 0.000000
# 6 0.000000 0.000000 0.000000 0.000000 0.000000 0.039870
#
#
# Mechanical properties :
#
#
# Convention : Reuss Voigt Hill
#
# Bulk Modulus (GPa) = 31.79324 43.88224 37.83774
# Shear Modulus (GPa) = -63.99269 -0.27055 -32.13162
#
# Velocity S-wave (km/s) = -5.23014 -0.34007 -3.70608
# Velocity P-wave (km/s) = 4.78353 4.31321 1.46260
#
# Compressibility (1/GPa) = 0.03145323
#
# Stress axis : x y z
#
# Youngs Moduli (GPa) = 138.49657 51.99794 82.72755
#
# Poissons Ratio (x) = 0.01305 0.26992
# Poissons Ratio (y) = 0.03475 0.00245
# Poissons Ratio (z) = 0.45188 0.00154
#
# Static dielectric constant tensor:
#      x y z
#    x 2.079970 0.000000 0.000000 
#    y 0.000000 1.911870 0.000000 
#    z 0.000000 0.000000 1.833810 
# 
# From -- ./inp_files/30964.got.cif
#   From: 2010.05.17/outbox.cif.g08.bks.cpg/sg73_16_cif.got.tgz:30964.got - 2010.06.03 17:35:07.
