data_PCOD9531507
_publ_section_title
;
Structure prediction by ZEFSAII (Michael W. Deem and Ramdas Pophale) SiO2 
 PCOD9531507
Probable space group: I B C A 
;
_chemical_formula_sum "Si O2"
_cell_formula_units_Z 120
_cell_length_a 18.264588
_cell_length_b 23.741167
_cell_length_c 12.874427
_cell_angle_alpha 90.000000
_cell_angle_beta 90.000000
_cell_angle_gamma 90.000000
_cell_volume 5582.642946
_symmetry_space_group_name_H-M "I B C A "
_symmetry_group_IT_number 73
_symmetry_cell_setting 'orthorhombic'
loop_
_space_group_symop_operation_xyz
x,y,z
-x,1/2-y,z
x,-y,1/2-z
1/2-x,y,-z
-x,-y,-z
x,1/2+y,-z
-x,y,1/2+z
1/2+x,-y,z
1/2+x,1/2+y,1/2+z
1/2-x,-y,1/2+z
1/2+x,1/2-y,-z
-x,1/2+y,1/2-z
1/2-x,1/2-y,1/2-z
1/2+x,y,1/2-z
1/2-x,1/2+y,z
x,1/2-y,1/2+z
loop_
_atom_site_type_symbol
_atom_site_label
_atom_site_fract_x
_atom_site_fract_y
_atom_site_fract_z
Si Si1 0.250000 0.150300 0.000000
Si Si2 0.471725 0.383545 0.637308
Si Si3 0.164995 0.545653 0.511591
Si Si4 0.571704 0.715123 0.912295
Si Si5 0.608289 0.578101 0.550009
Si Si6 0.178341 0.339286 0.073384
Si Si7 0.904221 0.062061 0.780778
Si Si8 0.834417 0.309340 0.806356
O O1 0.318701 0.110559 0.980712
O O2 0.227389 0.183854 0.895597
O O3 0.536072 0.337642 0.646844
O O4 0.457170 0.396652 0.517262
O O5 0.510742 0.437406 0.686079
O O6 0.396592 0.358668 0.681303
O O7 0.250000 0.529202 0.500000
O O8 0.118561 0.487885 0.518175
O O9 0.152799 0.594772 0.426890
O O10 0.146838 0.576542 0.621374
O O11 0.500000 0.750000 0.945685
O O12 0.621545 0.752902 0.836792
O O13 0.617441 0.696375 0.012220
O O14 0.599605 0.591668 0.670632
O O15 0.192342 0.315437 0.188406
O O16 0.250000 0.337825 0.000000
O O17 0.878383 0.000000 0.750000
#
# Coordination Sequence:
#
# PCOD9531507 Si02
#       8
#     8  16  16  16  16  16  16  16
#     4  10  22  44  66  96 134 180 230 274 340 406
#     4  10  22  42  63  97 129 176 230 276 336 406
#     4  10  21  40  63 100 138 177 225 271 343 410
#     4  10  23  46  65  95 134 177 231 283 345 406
#     4  10  22  40  67  96 140 182 220 280 333 417
#     4  11  25  43  70 102 134 178 228 293 346 410
#     4  10  22  37  64  95 135 182 219 272 343 398
#     4  10  25  44  67  97 132 177 230 283 352 399
#
# _framework density 21.495194999999999
#
# number of rings (size 3 to 8) (size 9 to 14) (size 15 to 20)
#    0.000    1.867    2.000    0.000    6.533    5.333 
#    4.800    2.000    0.000    0.000    0.000    0.000 
#    0.000    0.000    0.000    0.000    0.000    0.000 
#
# Total GULP energy -334522.693157 kJ/mol
# GULP energy per Si atom -5575.378219 kJ/mol
# Density = 2.144627 g / cm^3
# Si number density = 21.495195 Si / 1000 Ang^3
#
#
#
# Elastic Constant Matrix: (Units=GPa)
#
#
# Indices 1 2 3 4 5 6 
#
# 1 70.3622 26.8995 42.6474 0.0000 0.0000 0.0000
# 2 26.8995 63.8837 37.6559 0.0000 0.0000 0.0000
# 3 42.6474 37.6559 136.5667 0.0000 0.0000 0.0000
# 4 0.0000 0.0000 0.0000 19.2604 0.0000 0.0000
# 5 0.0000 0.0000 0.0000 0.0000 27.9925 0.0000
# 6 0.0000 0.0000 0.0000 0.0000 0.0000 15.2050
#
#
#
# Elastic Compliance Matrix: (Units=1/GPa)
#
#
# Indices 1 2 3 4 5 6 
#
# 1 0.018954 -0.005364 -0.004440 0.000000 0.000000 0.000000
# 2 -0.005364 0.020209 -0.003897 0.000000 0.000000 0.000000
# 3 -0.004440 -0.003897 0.009784 0.000000 0.000000 0.000000
# 4 0.000000 0.000000 0.000000 0.051920 0.000000 0.000000
# 5 0.000000 0.000000 0.000000 0.000000 0.035724 0.000000
# 6 0.000000 0.000000 0.000000 0.000000 0.000000 0.065768
#
#
# Mechanical properties :
#
#
# Convention : Reuss Voigt Hill
#
# Bulk Modulus (GPa) = 46.41560 53.91314 50.16437
# Shear Modulus (GPa) = 21.10222 23.39892 22.25057
#
# Velocity S-wave (km/s) = 3.13664 3.30292 3.22085
# Velocity P-wave (km/s) = 5.89562 6.29934 6.10082
#
# Compressibility (1/GPa) = 0.02154448
#
# Stress axis : x y z
#
# Youngs Moduli (GPa) = 52.75964 49.48235 102.21204
#
# Poissons Ratio (x) = 0.26541 0.45382
# Poissons Ratio (y) = 0.28299 0.39835
# Poissons Ratio (z) = 0.23425 0.19285
#
# Static dielectric constant tensor:
#      x y z
#    x 1.815080 0.000000 0.000000 
#    y 0.000000 1.942600 0.000000 
#    z 0.000000 0.000000 1.827070 
# 
# From -- ./inp_files/12240.got.cif
#   From: 2010.05.17/outbox.cif.g08.bks.cpg/sg73_7_cif.got.tgz:12240.got - 2010.06.03 17:35:07.
