data_PCOD9531562
_publ_section_title
;
Structure prediction by ZEFSAII (Michael W. Deem and Ramdas Pophale) SiO2 
 PCOD9531562
Probable space group: I B C A 
;
_chemical_formula_sum "Si O2"
_cell_formula_units_Z 88
_cell_length_a 5.716950
_cell_length_b 22.428352
_cell_length_c 29.487075
_cell_angle_alpha 90.000000
_cell_angle_beta 90.000000
_cell_angle_gamma 90.000000
_cell_volume 3780.884859
_symmetry_space_group_name_H-M "I B C A "
_symmetry_group_IT_number 73
_symmetry_cell_setting 'orthorhombic'
loop_
_space_group_symop_operation_xyz
x,y,z
-x,1/2-y,z
x,-y,1/2-z
1/2-x,y,-z
-x,-y,-z
x,1/2+y,-z
-x,y,1/2+z
1/2+x,-y,z
1/2+x,1/2+y,1/2+z
1/2-x,-y,1/2+z
1/2+x,1/2-y,-z
-x,1/2+y,1/2-z
1/2-x,1/2-y,1/2-z
1/2+x,y,1/2-z
1/2-x,1/2+y,z
x,1/2-y,1/2+z
loop_
_atom_site_type_symbol
_atom_site_label
_atom_site_fract_x
_atom_site_fract_y
_atom_site_fract_z
Si Si1 0.000000 0.750000 0.881644
Si Si2 0.750000 0.875327 0.500000
Si Si3 0.605440 0.314411 0.574807
Si Si4 0.217476 0.017589 0.824729
Si Si5 0.344582 0.845871 0.341264
Si Si6 0.500000 0.750000 0.775745
Si Si7 0.682385 0.473428 0.428695
O O1 0.129981 0.797984 0.913162
O O2 0.154544 0.705769 0.851025
O O3 0.558699 0.834682 0.475871
O O4 0.666181 0.911894 0.543695
O O5 0.500000 0.250000 0.583275
O O6 0.490170 0.356260 0.612381
O O7 0.247029 0.089171 0.828539
O O8 0.459157 0.993028 0.803943
O O9 0.191590 0.983692 0.874177
O O10 0.505016 0.811234 0.305240
O O11 0.750000 0.750000 0.750000
O O12 0.440651 0.504762 0.443584
#
# Coordination Sequence:
#
# PCOD9531562 Si02
#       7
#     8   8  16  16  16   8  16
#     4  10  21  40  69  92 132 196 246 291 370 435
#     4  12  24  38  60  90 142 188 250 314 336 402
#     4  10  23  41  58  93 133 195 242 292 367 423
#     4  10  23  39  68 102 136 188 243 285 351 428
#     4  11  23  45  73 101 148 183 235 298 368 451
#     4  12  27  46  79 120 144 174 232 301 374 439
#     4  10  22  41  57  90 125 175 238 295 349 383
#
# _framework density 23.274974
#
# number of rings (size 3 to 8) (size 9 to 14) (size 15 to 20)
#    0.000    1.455    2.727    3.273    8.909    0.000 
#    6.545    0.000    0.000    3.273    0.000    0.000 
#    0.000    0.000    0.000    0.000    0.000    0.000 
#
# Total GULP energy -244999.887716 kJ/mol
# GULP energy per Si atom -5568.179266 kJ/mol
# Density = 2.322200 g / cm^3
# Si number density = 23.274974 Si / 1000 Ang^3
#
#
#
# Elastic Constant Matrix: (Units=GPa)
#
#
# Indices 1 2 3 4 5 6 
#
# 1 143.2665 30.8881 28.0097 0.0000 0.0000 0.0000
# 2 30.8881 107.7529 21.1811 0.0000 0.0000 0.0000
# 3 28.0097 21.1811 78.4734 0.0000 0.0000 0.0000
# 4 0.0000 0.0000 0.0000 10.4499 0.0000 0.0000
# 5 0.0000 0.0000 0.0000 0.0000 9.9129 0.0000
# 6 0.0000 0.0000 0.0000 0.0000 0.0000 15.6913
#
#
#
# Elastic Compliance Matrix: (Units=1/GPa)
#
#
# Indices 1 2 3 4 5 6 
#
# 1 0.007816 -0.001787 -0.002308 0.000000 0.000000 0.000000
# 2 -0.001787 0.010209 -0.002118 0.000000 0.000000 0.000000
# 3 -0.002308 -0.002118 0.014138 0.000000 0.000000 0.000000
# 4 0.000000 0.000000 0.000000 0.095695 0.000000 0.000000
# 5 0.000000 0.000000 0.000000 0.000000 0.100879 0.000000
# 6 0.000000 0.000000 0.000000 0.000000 0.000000 0.063730
#
#
# Mechanical properties :
#
#
# Convention : Reuss Voigt Hill
#
# Bulk Modulus (GPa) = 50.66055 54.40562 52.53308
# Shear Modulus (GPa) = 16.05282 23.83840 19.94561
#
# Velocity S-wave (km/s) = 2.62907 3.20380 2.93056
# Velocity P-wave (km/s) = 5.57040 6.09193 5.83699
#
# Compressibility (1/GPa) = 0.01973923
#
# Stress axis : x y z
#
# Youngs Moduli (GPa) = 127.93567 97.95245 70.72924
#
# Poissons Ratio (x) = 0.17504 0.16321
# Poissons Ratio (y) = 0.22862 0.14978
# Poissons Ratio (z) = 0.29522 0.20744
#
# Static dielectric constant tensor:
#      x y z
#    x 2.171050 0.000000 0.000000 
#    y 0.000000 2.092710 0.000000 
#    z 0.000000 0.000000 1.849200 
# 
# From -- ./inp_files/28104.got.cif
#   From: 2010.05.17/outbox.cif.g08.bks.cpg/sg73_15_cif.got.tgz:28104.got - 2010.06.03 17:35:07.
