data_PCOD9531736
_publ_section_title
;
Structure prediction by ZEFSAII (Michael W. Deem and Ramdas Pophale) SiO2 
 PCOD9531736
Probable space group: I B C A 
;
_chemical_formula_sum "Si O2"
_cell_formula_units_Z 96
_cell_length_a 23.830611
_cell_length_b 12.168805
_cell_length_c 15.324399
_cell_angle_alpha 90.000000
_cell_angle_beta 90.000000
_cell_angle_gamma 90.000000
_cell_volume 4443.923359
_symmetry_space_group_name_H-M "I B C A "
_symmetry_group_IT_number 73
_symmetry_cell_setting 'orthorhombic'
loop_
_space_group_symop_operation_xyz
x,y,z
-x,1/2-y,z
x,-y,1/2-z
1/2-x,y,-z
-x,-y,-z
x,1/2+y,-z
-x,y,1/2+z
1/2+x,-y,z
1/2+x,1/2+y,1/2+z
1/2-x,-y,1/2+z
1/2+x,1/2-y,-z
-x,1/2+y,1/2-z
1/2-x,1/2-y,1/2-z
1/2+x,y,1/2-z
1/2-x,1/2+y,z
x,1/2-y,1/2+z
loop_
_atom_site_type_symbol
_atom_site_label
_atom_site_fract_x
_atom_site_fract_y
_atom_site_fract_z
Si Si1 0.801937 0.677341 0.280225
Si Si2 0.649238 0.346199 0.412256
Si Si3 0.434018 0.491934 0.511172
Si Si4 0.224476 0.557810 0.095632
Si Si5 0.895431 0.922943 0.670985
Si Si6 0.877608 0.216544 0.416130
O O1 0.750000 0.750000 0.250000
O O2 0.843489 0.755653 0.336807
O O3 0.775032 0.585330 0.341154
O O4 0.834544 0.617916 0.202985
O O5 0.592400 0.418707 0.421627
O O6 0.698492 0.436139 0.401392
O O7 0.651103 0.285613 0.505583
O O8 0.500000 0.500000 0.500000
O O9 0.402886 0.510791 0.418406
O O10 0.419004 0.371687 0.543088
O O11 0.173374 0.641351 0.119955
O O12 0.250000 0.578106 0.000000
O O13 0.914416 0.799524 0.643191
O O14 0.917462 0.000000 0.750000
#
# Coordination Sequence:
#
# PCOD9531736 Si02
#       6
#    16  16  16  16  16  16
#     4  12  25  38  62 101 147 189 227 297 377 420
#     4  10  24  39  63  99 137 183 245 287 347 455
#     4  10  24  50  78  97 132 194 249 306 368 431
#     4  11  23  36  63  95 140 194 245 276 352 437
#     4  11  25  42  69 105 144 180 235 302 365 432
#     4  10  21  44  65 101 135 182 246 289 343 453
#
# _framework density 21.602533000000001
#
# number of rings (size 3 to 8) (size 9 to 14) (size 15 to 20)
#    0.000    1.333    3.333    1.000    9.333    2.667 
#    0.000    3.333    0.000    0.000    0.000    0.000 
#    0.000    0.000    0.000    0.000    0.000    0.000 
#
# Total GULP energy -267738.467174 kJ/mol
# GULP energy per Si atom -5577.884733 kJ/mol
# Density = 2.155336 g / cm^3
# Si number density = 21.602533 Si / 1000 Ang^3
#
#
#
# Elastic Constant Matrix: (Units=GPa)
#
#
# Indices 1 2 3 4 5 6 
#
# 1 100.2533 58.2540 50.7245 0.0000 0.0000 0.0000
# 2 58.2540 156.5565 49.3149 0.0000 0.0000 0.0000
# 3 50.7245 49.3149 74.8652 0.0000 0.0000 0.0000
# 4 0.0000 0.0000 0.0000 46.1152 0.0000 0.0000
# 5 0.0000 0.0000 0.0000 0.0000 14.9400 0.0000
# 6 0.0000 0.0000 0.0000 0.0000 0.0000 13.3722
#
#
#
# Elastic Compliance Matrix: (Units=1/GPa)
#
#
# Indices 1 2 3 4 5 6 
#
# 1 0.016417 -0.003287 -0.008958 0.000000 0.000000 0.000000
# 2 -0.003287 0.008718 -0.003516 0.000000 0.000000 0.000000
# 3 -0.008958 -0.003516 0.021743 0.000000 0.000000 0.000000
# 4 0.000000 0.000000 0.000000 0.021685 0.000000 0.000000
# 5 0.000000 0.000000 0.000000 0.000000 0.066934 0.000000
# 6 0.000000 0.000000 0.000000 0.000000 0.000000 0.074782
#
#
# Mechanical properties :
#
#
# Convention : Reuss Voigt Hill
#
# Bulk Modulus (GPa) = 65.11973 72.02910 68.57441
# Shear Modulus (GPa) = 20.24950 26.44424 23.34687
#
# Velocity S-wave (km/s) = 3.06497 3.50255 3.29104
# Velocity P-wave (km/s) = 6.53722 7.05496 6.80102
#
# Compressibility (1/GPa) = 0.01535633
#
# Stress axis : x y z
#
# Youngs Moduli (GPa) = 60.91162 114.70609 45.99235
#
# Poissons Ratio (x) = 0.37703 0.41201
# Poissons Ratio (y) = 0.20021 0.16169
# Poissons Ratio (z) = 0.54566 0.40326
#
# Static dielectric constant tensor:
#      x y z
#    x 1.668100 0.000000 0.000000 
#    y 0.000000 1.847160 0.000000 
#    z 0.000000 0.000000 1.846100 
# 
# From -- ./inp_files/23862.got.cif
#   From: 2010.05.17/outbox.cif.g08.bks.cpg/sg73_12_cif.got.tgz:23862.got - 2010.06.03 17:35:07.
