data_PCOD9531111
_publ_section_title
;
Structure prediction by ZEFSAII (Michael W. Deem and Ramdas Pophale) SiO2 
 PCOD9531111
Probable space group: I B C A 
;
_chemical_formula_sum "Si O2"
_cell_formula_units_Z 64
_cell_length_a 15.059556
_cell_length_b 8.924602
_cell_length_c 24.537266
_cell_angle_alpha 90.000000
_cell_angle_beta 90.000000
_cell_angle_gamma 90.000000
_cell_volume 3297.821889
_symmetry_space_group_name_H-M "I B C A "
_symmetry_group_IT_number 73
_symmetry_cell_setting 'orthorhombic'
loop_
_space_group_symop_operation_xyz
x,y,z
-x,1/2-y,z
x,-y,1/2-z
1/2-x,y,-z
-x,-y,-z
x,1/2+y,-z
-x,y,1/2+z
1/2+x,-y,z
1/2+x,1/2+y,1/2+z
1/2-x,-y,1/2+z
1/2+x,1/2-y,-z
-x,1/2+y,1/2-z
1/2-x,1/2-y,1/2-z
1/2+x,y,1/2-z
1/2-x,1/2+y,z
x,1/2-y,1/2+z
loop_
_atom_site_type_symbol
_atom_site_label
_atom_site_fract_x
_atom_site_fract_y
_atom_site_fract_z
Si Si1 0.667236 0.599864 0.400107
Si Si2 0.540847 0.087137 0.693984
Si Si3 0.493832 0.928643 0.587047
Si Si4 0.817027 0.429059 0.448502
O O1 0.632774 0.613408 0.338487
O O2 0.483933 0.491774 0.350755
O O3 0.760729 0.518884 0.403451
O O4 0.671005 0.757687 0.430726
O O5 0.500000 0.250000 0.702567
O O6 0.549873 0.000000 0.750000
O O7 0.589618 0.998892 0.572582
O O8 0.500000 0.750000 0.584952
O O9 0.586586 0.006426 0.448585
O O10 0.750000 0.438272 0.500000
#
# Coordination Sequence:
#
# PCOD9531111 Si02
#       4
#    16  16  16  16
#     4  10  23  42  64 100 137 170 230 282 332 414
#     4  10  20  42  71  99 132 176 227 278 350 403
#     4  10  21  42  69  94 136 175 223 284 334 409
#     4  12  23  42  68  97 137 182 226 283 336 405
#
# _framework density 19.406748
#
# number of rings (size 3 to 8) (size 9 to 14) (size 15 to 20)
#    1.500    0.000    2.500    3.750    0.000    1.000 
#    0.000    7.500    0.000    0.000    0.000    0.000 
#    0.000    0.000    0.000    0.000    0.000    0.000 
#
# Total GULP energy -178353.109034 kJ/mol
# GULP energy per Si atom -5573.534657 kJ/mol
# Density = 1.936258 g / cm^3
# Si number density = 19.406748 Si / 1000 Ang^3
#
#
#
# Elastic Constant Matrix: (Units=GPa)
#
#
# Indices 1 2 3 4 5 6 
#
# 1 58.1247 15.6439 -19.7400 0.0000 0.0000 0.0000
# 2 15.6439 145.0015 -5.4419 0.0000 0.0000 0.0000
# 3 -19.7400 -5.4419 79.5274 0.0000 0.0000 0.0000
# 4 0.0000 0.0000 0.0000 12.7038 0.0000 0.0000
# 5 0.0000 0.0000 0.0000 0.0000 78.2039 0.0000
# 6 0.0000 0.0000 0.0000 0.0000 0.0000 40.4352
#
#
#
# Elastic Compliance Matrix: (Units=1/GPa)
#
#
# Indices 1 2 3 4 5 6 
#
# 1 0.019300 -0.001907 0.004660 0.000000 0.000000 0.000000
# 2 -0.001907 0.007103 0.000013 0.000000 0.000000 0.000000
# 3 0.004660 0.000013 0.013732 0.000000 0.000000 0.000000
# 4 0.000000 0.000000 0.000000 0.078716 0.000000 0.000000
# 5 0.000000 0.000000 0.000000 0.000000 0.012787 0.000000
# 6 0.000000 0.000000 0.000000 0.000000 0.000000 0.024731
#
#
# Mechanical properties :
#
#
# Convention : Reuss Voigt Hill
#
# Bulk Modulus (GPa) = 21.89827 29.28641 25.59234
# Shear Modulus (GPa) = 30.10951 45.74803 37.92877
#
# Velocity S-wave (km/s) = 3.94318 4.86050 4.42567
# Velocity P-wave (km/s) = 5.66038 6.82809 6.27147
#
# Compressibility (1/GPa) = 0.04566572
#
# Stress axis : x y z
#
# Youngs Moduli (GPa) = 51.81241 140.79081 72.82324
#
# Poissons Ratio (x) = 0.26854 -0.33937
# Poissons Ratio (y) = 0.09883 -0.00092
# Poissons Ratio (z) = -0.24145 -0.00177
#
# Static dielectric constant tensor:
#      x y z
#    x 1.710070 0.000000 0.000000 
#    y 0.000000 1.640060 0.000000 
#    z 0.000000 0.000000 1.730410 
# 
# From -- ./inp_files/34212.got.cif
#   From: 2010.05.17/outbox.cif.g08.bks.cpg/sg73_18_cif.got.tgz:34212.got - 2010.06.03 17:35:07.
