data_PCOD9531244
_publ_section_title
;
Structure prediction by ZEFSAII (Michael W. Deem and Ramdas Pophale) SiO2 
 PCOD9531244
Probable space group: I B C A 
;
_chemical_formula_sum "Si O2"
_cell_formula_units_Z 88
_cell_length_a 21.763485
_cell_length_b 17.402454
_cell_length_c 12.493480
_cell_angle_alpha 90.000000
_cell_angle_beta 90.000000
_cell_angle_gamma 90.000000
_cell_volume 4731.756210
_symmetry_space_group_name_H-M "I B C A "
_symmetry_group_IT_number 73
_symmetry_cell_setting 'orthorhombic'
loop_
_space_group_symop_operation_xyz
x,y,z
-x,1/2-y,z
x,-y,1/2-z
1/2-x,y,-z
-x,-y,-z
x,1/2+y,-z
-x,y,1/2+z
1/2+x,-y,z
1/2+x,1/2+y,1/2+z
1/2-x,-y,1/2+z
1/2+x,1/2-y,-z
-x,1/2+y,1/2-z
1/2-x,1/2-y,1/2-z
1/2+x,y,1/2-z
1/2-x,1/2+y,z
x,1/2-y,1/2+z
loop_
_atom_site_type_symbol
_atom_site_label
_atom_site_fract_x
_atom_site_fract_y
_atom_site_fract_z
Si Si1 0.750000 0.374443 0.500000
Si Si2 0.085544 0.688388 0.838246
Si Si3 0.309107 0.228605 0.680744
Si Si4 0.652098 0.027951 0.866268
Si Si5 0.613866 0.863152 0.923782
Si Si6 0.044401 0.861098 0.785357
O O1 0.711169 0.321900 0.580540
O O2 0.797578 0.423617 0.570583
O O3 0.141987 0.684187 0.755562
O O4 0.064853 0.777357 0.827759
O O5 0.027743 0.634585 0.808576
O O6 0.102810 0.670395 0.959654
O O7 0.250000 0.250000 0.750000
O O8 0.338829 0.307484 0.637715
O O9 0.590359 0.077149 0.839178
O O10 0.675748 0.000000 0.750000
O O11 0.636378 0.950468 0.929688
O O12 0.556036 0.863407 0.842409
#
# Coordination Sequence:
#
# PCOD9531244 Si02
#       6
#     8  16  16  16  16  16
#     4  12  24  38  62  88 122 160 198 256 314 366
#     4  10  21  36  61  89 110 150 204 242 284 361
#     4  11  22  39  61  88 118 154 203 252 302 367
#     4  10  22  40  58  83 121 160 194 243 314 371
#     4  10  21  38  60  82 115 157 192 245 305 354
#     4   9  20  38  57  83 118 150 192 243 297 357
#
# _framework density 18.597746000000001
#
# number of rings (size 3 to 8) (size 9 to 14) (size 15 to 20)
#    0.000    1.818    0.000    5.455    0.000   11.636 
#    0.000    3.636    0.000    0.000    0.000    0.000 
#    0.000    0.000    0.000    0.000    0.000    0.000 
#
# Total GULP energy -245606.115321 kJ/mol
# GULP energy per Si atom -5581.957166 kJ/mol
# Density = 1.855542 g / cm^3
# Si number density = 18.597746 Si / 1000 Ang^3
#
#
#
# Elastic Constant Matrix: (Units=GPa)
#
#
# Indices 1 2 3 4 5 6 
#
# 1 134.5832 36.4256 69.8843 0.0000 0.0000 0.0000
# 2 36.4256 77.3567 38.9651 0.0000 0.0000 0.0000
# 3 69.8843 38.9651 107.3272 0.0000 0.0000 0.0000
# 4 0.0000 0.0000 0.0000 36.3719 0.0000 0.0000
# 5 0.0000 0.0000 0.0000 0.0000 21.1013 0.0000
# 6 0.0000 0.0000 0.0000 0.0000 0.0000 21.7853
#
#
#
# Elastic Compliance Matrix: (Units=1/GPa)
#
#
# Indices 1 2 3 4 5 6 
#
# 1 0.011475 -0.002007 -0.006743 0.000000 0.000000 0.000000
# 2 -0.002007 0.016171 -0.004564 0.000000 0.000000 0.000000
# 3 -0.006743 -0.004564 0.015365 0.000000 0.000000 0.000000
# 4 0.000000 0.000000 0.000000 0.027494 0.000000 0.000000
# 5 0.000000 0.000000 0.000000 0.000000 0.047390 0.000000
# 6 0.000000 0.000000 0.000000 0.000000 0.000000 0.045902
#
#
# Mechanical properties :
#
#
# Convention : Reuss Voigt Hill
#
# Bulk Modulus (GPa) = 61.03970 67.75745 64.39857
# Shear Modulus (GPa) = 25.52490 27.45117 26.48804
#
# Velocity S-wave (km/s) = 3.70871 3.84611 3.77803
# Velocity P-wave (km/s) = 7.15763 7.49904 7.33032
#
# Compressibility (1/GPa) = 0.01638278
#
# Stress axis : x y z
#
# Youngs Moduli (GPa) = 87.14603 61.83866 65.08259
#
# Poissons Ratio (x) = 0.12409 0.43887
# Poissons Ratio (y) = 0.17488 0.29705
# Poissons Ratio (z) = 0.58764 0.28225
#
# Static dielectric constant tensor:
#      x y z
#    x 1.666870 0.000000 0.000000 
#    y 0.000000 1.643230 0.000000 
#    z 0.000000 0.000000 1.620810 
# 
# From -- ./inp_files/12756.got.cif
#   From: 2010.05.17/outbox.cif.g08.bks.cpg/sg73_7_cif.got.tgz:12756.got - 2010.06.03 17:35:07.
