data_PCOD9531703
_publ_section_title
;
Structure prediction by ZEFSAII (Michael W. Deem and Ramdas Pophale) SiO2 
 PCOD9531703
Probable space group: I B C A 
;
_chemical_formula_sum "Si O2"
_cell_formula_units_Z 112
_cell_length_a 11.367808
_cell_length_b 13.766373
_cell_length_c 27.472401
_cell_angle_alpha 90.000000
_cell_angle_beta 90.000000
_cell_angle_gamma 90.000000
_cell_volume 4299.251777
_symmetry_space_group_name_H-M "I B C A "
_symmetry_group_IT_number 73
_symmetry_cell_setting 'orthorhombic'
loop_
_space_group_symop_operation_xyz
x,y,z
-x,1/2-y,z
x,-y,1/2-z
1/2-x,y,-z
-x,-y,-z
x,1/2+y,-z
-x,y,1/2+z
1/2+x,-y,z
1/2+x,1/2+y,1/2+z
1/2-x,-y,1/2+z
1/2+x,1/2-y,-z
-x,1/2+y,1/2-z
1/2-x,1/2-y,1/2-z
1/2+x,y,1/2-z
1/2-x,1/2+y,z
x,1/2-y,1/2+z
loop_
_atom_site_type_symbol
_atom_site_label
_atom_site_fract_x
_atom_site_fract_y
_atom_site_fract_z
Si Si1 0.800241 0.518250 0.393079
Si Si2 0.000000 0.750000 0.313427
Si Si3 0.180106 0.799966 0.584361
Si Si4 0.000000 0.250000 0.000374
Si Si5 0.646006 0.574623 0.185101
Si Si6 0.680516 0.373950 0.449728
Si Si7 0.148466 0.885536 0.240998
Si Si8 0.993572 0.096061 0.849306
O O1 0.792586 0.629500 0.407606
O O2 0.751524 0.484627 0.340953
O O3 0.693348 0.477800 0.426178
O O4 0.923498 0.462317 0.392360
O O5 0.918658 0.831953 0.338824
O O6 0.911871 0.681196 0.281788
O O7 0.101839 0.795631 0.534564
O O8 0.239191 0.694686 0.584453
O O9 0.088766 0.834857 0.625320
O O10 0.057608 0.330155 0.035046
O O11 0.709531 0.617557 0.233085
O O12 0.552709 0.488746 0.182898
O O13 0.750000 0.380194 0.500000
O O14 0.089760 0.851835 0.189894
O O15 0.127534 0.000000 0.250000
#
# Coordination Sequence:
#
# PCOD9531703 Si02
#       8
#    16   8  16   8  16  16  16  16
#     4  10  23  40  64  97 128 177 228 275 338 404
#     4  12  24  42  66 100 126 178 214 282 352 406
#     4  10  22  41  66  94 134 179 227 270 333 411
#     4  10  22  40  64  98 140 182 216 288 344 380
#     4  10  24  42  61  95 130 171 224 276 337 404
#     4  10  22  39  62  97 135 171 225 281 326 399
#     4  11  24  42  67  96 134 172 222 283 343 413
#     4  10  21  43  66  91 129 180 215 278 337 394
#
# _framework density 26.051044000000001
#
# number of rings (size 3 to 8) (size 9 to 14) (size 15 to 20)
#    0.000    1.714    1.429    2.143    2.000    9.143 
#    2.571    0.000    0.000    0.000    0.000    0.000 
#    0.000    0.000    0.000    0.000    0.000    0.000 
#
# Total GULP energy -312352.194558 kJ/mol
# GULP energy per Si atom -5577.717760 kJ/mol
# Density = 2.599175 g / cm^3
# Si number density = 26.051044 Si / 1000 Ang^3
#
#
#
# Elastic Constant Matrix: (Units=GPa)
#
#
# Indices 1 2 3 4 5 6 
#
# 1 84.5446 11.9914 37.9722 0.0000 0.0000 0.0000
# 2 11.9914 87.9519 20.8371 0.0000 0.0000 0.0000
# 3 37.9722 20.8371 64.4094 0.0000 0.0000 0.0000
# 4 0.0000 0.0000 0.0000 26.2348 0.0000 0.0000
# 5 0.0000 0.0000 0.0000 0.0000 33.5276 0.0000
# 6 0.0000 0.0000 0.0000 0.0000 0.0000 24.8062
#
#
#
# Elastic Compliance Matrix: (Units=1/GPa)
#
#
# Indices 1 2 3 4 5 6 
#
# 1 0.016088 0.000058 -0.009504 0.000000 0.000000 0.000000
# 2 0.000058 0.012314 -0.004018 0.000000 0.000000 0.000000
# 3 -0.009504 -0.004018 0.022428 0.000000 0.000000 0.000000
# 4 0.000000 0.000000 0.000000 0.038117 0.000000 0.000000
# 5 0.000000 0.000000 0.000000 0.000000 0.029826 0.000000
# 6 0.000000 0.000000 0.000000 0.000000 0.000000 0.040312
#
#
# Mechanical properties :
#
#
# Convention : Reuss Voigt Hill
#
# Bulk Modulus (GPa) = 41.83461 42.05636 41.94548
# Shear Modulus (GPa) = 25.77575 27.98742 26.88158
#
# Velocity S-wave (km/s) = 3.14894 3.28125 3.21578
# Velocity P-wave (km/s) = 5.41430 5.52579 5.47033
#
# Compressibility (1/GPa) = 0.02390365
#
# Stress axis : x y z
#
# Youngs Moduli (GPa) = 62.15720 81.20952 44.58656
#
# Poissons Ratio (x) = -0.00471 0.42373
# Poissons Ratio (y) = -0.00361 0.17914
# Poissons Ratio (z) = 0.59071 0.32629
#
# Static dielectric constant tensor:
#      x y z
#    x 2.165410 0.000000 0.000000 
#    y 0.000000 1.995990 0.000000 
#    z 0.000000 0.000000 2.132130 
# 
# From -- ./inp_files/34063.got.cif
#   From: 2010.05.17/outbox.cif.g08.bks.cpg/sg73_18_cif.got.tgz:34063.got - 2010.06.03 17:35:07.
