data_PCOD9531979
_publ_section_title
;
Structure prediction by ZEFSAII (Michael W. Deem and Ramdas Pophale) SiO2 
 PCOD9531979
Probable space group: I B C A 
;
_chemical_formula_sum "Si O2"
_cell_formula_units_Z 96
_cell_length_a 16.254173
_cell_length_b 22.728603
_cell_length_c 11.901685
_cell_angle_alpha 90.000000
_cell_angle_beta 90.000000
_cell_angle_gamma 90.000000
_cell_volume 4396.894775
_symmetry_space_group_name_H-M "I B C A "
_symmetry_group_IT_number 73
_symmetry_cell_setting 'orthorhombic'
loop_
_space_group_symop_operation_xyz
x,y,z
-x,1/2-y,z
x,-y,1/2-z
1/2-x,y,-z
-x,-y,-z
x,1/2+y,-z
-x,y,1/2+z
1/2+x,-y,z
1/2+x,1/2+y,1/2+z
1/2-x,-y,1/2+z
1/2+x,1/2-y,-z
-x,1/2+y,1/2-z
1/2-x,1/2-y,1/2-z
1/2+x,y,1/2-z
1/2-x,1/2+y,z
x,1/2-y,1/2+z
loop_
_atom_site_type_symbol
_atom_site_label
_atom_site_fract_x
_atom_site_fract_y
_atom_site_fract_z
Si Si1 0.163388 0.485707 0.964927
Si Si2 0.389342 0.826663 0.260583
Si Si3 0.972779 0.582136 0.901895
Si Si4 0.335247 0.247357 0.935190
Si Si5 0.415389 0.500000 0.250000
Si Si6 0.000000 0.250000 0.415297
Si Si7 0.866741 0.379348 0.990696
O O1 0.142099 0.468301 0.839040
O O2 0.165865 0.556567 0.976261
O O3 0.250000 0.460187 0.000000
O O4 0.088872 0.462457 0.038969
O O5 0.421391 0.871579 0.168344
O O6 0.342036 0.777265 0.187373
O O7 0.465564 0.798320 0.328316
O O8 0.345303 0.861344 0.362697
O O9 0.028342 0.545289 0.816224
O O10 0.035065 0.612752 0.988970
O O11 0.339297 0.176020 0.934031
O O12 0.250000 0.263484 0.000000
O O13 0.419114 0.263238 0.007032
#
# Coordination Sequence:
#
# PCOD9531979 Si02
#       7
#    16  16  16  16   8   8  16
#     4  11  24  42  65  99 132 164 217 272 323 386
#     4  11  21  38  63  90 128 170 213 275 326 373
#     4  11  21  40  66  93 126 169 220 261 319 398
#     4  11  24  42  65  96 131 171 223 271 322 391
#     4  10  22  40  64  86 122 174 208 258 320 376
#     4  10  22  40  62  90 126 174 216 260 328 388
#     4  10  22  40  64  91 126 175 220 260 320 392
#
# _framework density 21.833590000000001
#
# number of rings (size 3 to 8) (size 9 to 14) (size 15 to 20)
#    0.000    1.333    0.000    8.000    0.000    5.333 
#    0.000    6.667    0.000    0.000    0.000    0.000 
#    0.000    0.000    0.000    0.000    0.000    0.000 
#
# Total GULP energy -267991.863776 kJ/mol
# GULP energy per Si atom -5583.163829 kJ/mol
# Density = 2.178390 g / cm^3
# Si number density = 21.833590 Si / 1000 Ang^3
#
#
#
# Elastic Constant Matrix: (Units=GPa)
#
#
# Indices 1 2 3 4 5 6 
#
# 1 138.2979 26.6557 54.6875 0.0000 0.0000 0.0000
# 2 26.6557 56.1322 48.5657 0.0000 0.0000 0.0000
# 3 54.6875 48.5657 129.8770 0.0000 0.0000 0.0000
# 4 0.0000 0.0000 0.0000 17.7601 0.0000 0.0000
# 5 0.0000 0.0000 0.0000 0.0000 104.7191 0.0000
# 6 0.0000 0.0000 0.0000 0.0000 0.0000 9.4018
#
#
#
# Elastic Compliance Matrix: (Units=1/GPa)
#
#
# Indices 1 2 3 4 5 6 
#
# 1 0.008752 -0.001430 -0.003150 0.000000 0.000000 0.000000
# 2 -0.001430 0.026569 -0.009333 0.000000 0.000000 0.000000
# 3 -0.003150 -0.009333 0.012516 0.000000 0.000000 0.000000
# 4 0.000000 0.000000 0.000000 0.056306 0.000000 0.000000
# 5 0.000000 0.000000 0.000000 0.000000 0.009549 0.000000
# 6 0.000000 0.000000 0.000000 0.000000 0.000000 0.106363
#
#
# Mechanical properties :
#
#
# Convention : Reuss Voigt Hill
#
# Bulk Modulus (GPa) = 49.97500 64.90278 57.43889
# Shear Modulus (GPa) = 19.64226 39.33608 29.48917
#
# Velocity S-wave (km/s) = 3.00265 4.24917 3.67908
# Velocity P-wave (km/s) = 5.91269 7.33925 6.66425
#
# Compressibility (1/GPa) = 0.02001001
#
# Stress axis : x y z
#
# Youngs Moduli (GPa) = 114.25620 37.63754 79.89743
#
# Poissons Ratio (x) = 0.05384 0.25171
# Poissons Ratio (y) = 0.16344 0.74567
# Poissons Ratio (z) = 0.35996 0.35127
#
# Static dielectric constant tensor:
#      x y z
#    x 1.903200 0.000000 0.000000 
#    y 0.000000 1.827540 0.000000 
#    z 0.000000 0.000000 1.804720 
# 
# From -- ./inp_files/12057.got.cif
#   From: 2010.05.17/outbox.cif.g08.bks.cpg/sg73_7_cif.got.tgz:12057.got - 2010.06.03 17:35:07.
