data_PCOD9531082
_publ_section_title
;
Structure prediction by ZEFSAII (Michael W. Deem and Ramdas Pophale) SiO2 
 PCOD9531082
Probable space group: I B C A 
;
_chemical_formula_sum "Si O2"
_cell_formula_units_Z 56
_cell_length_a 12.638782
_cell_length_b 9.549324
_cell_length_c 17.414295
_cell_angle_alpha 90.000000
_cell_angle_beta 90.000000
_cell_angle_gamma 90.000000
_cell_volume 2101.763032
_symmetry_space_group_name_H-M "I B C A "
_symmetry_group_IT_number 73
_symmetry_cell_setting 'orthorhombic'
loop_
_space_group_symop_operation_xyz
x,y,z
-x,1/2-y,z
x,-y,1/2-z
1/2-x,y,-z
-x,-y,-z
x,1/2+y,-z
-x,y,1/2+z
1/2+x,-y,z
1/2+x,1/2+y,1/2+z
1/2-x,-y,1/2+z
1/2+x,1/2-y,-z
-x,1/2+y,1/2-z
1/2-x,1/2-y,1/2-z
1/2+x,y,1/2-z
1/2-x,1/2+y,z
x,1/2-y,1/2+z
loop_
_atom_site_type_symbol
_atom_site_label
_atom_site_fract_x
_atom_site_fract_y
_atom_site_fract_z
Si Si1 0.386918 0.825658 0.127932
Si Si2 0.513769 0.000000 0.750000
Si Si3 0.074832 0.380806 0.963955
Si Si4 0.816638 0.117819 0.806745
O O1 0.500000 0.750000 0.125227
O O2 0.420143 0.966286 0.174130
O O3 0.280560 0.778289 0.173348
O O4 0.358610 0.836904 0.038805
O O5 0.432664 0.128670 0.732395
O O6 0.144713 0.430268 0.892063
O O7 0.000000 0.250000 0.940277
O O8 0.000000 0.500000 0.000000
O O9 0.771849 0.000000 0.750000
#
# Coordination Sequence:
#
# PCOD9531082 Si02
#       4
#    16   8  16  16
#     4  11  23  43  68 101 149 193 251 313 383 463
#     4  10  20  42  66 100 142 190 240 314 372 460
#     4  11  23  46  74 108 150 200 259 321 387 466
#     4  10  22  43  70 105 140 197 248 315 391 454
#
# _framework density 26.644297999999999
#
# number of rings (size 3 to 8) (size 9 to 14) (size 15 to 20)
#    0.857    0.571    4.286    0.857    0.000    2.286 
#    5.143    4.286    0.000    0.000    0.000    0.000 
#    0.000    0.000    0.000    0.000    0.000    0.000 
#
# Total GULP energy -155874.342040 kJ/mol
# GULP energy per Si atom -5566.940787 kJ/mol
# Density = 2.658365 g / cm^3
# Si number density = 26.644298 Si / 1000 Ang^3
#
#
#
# Elastic Constant Matrix: (Units=GPa)
#
#
# Indices 1 2 3 4 5 6 
#
# 1 140.2297 46.9285 73.3865 0.0000 0.0000 0.0000
# 2 46.9285 80.5220 28.3056 0.0000 0.0000 0.0000
# 3 73.3865 28.3056 211.5721 0.0000 0.0000 0.0000
# 4 0.0000 0.0000 0.0000 21.5402 0.0000 0.0000
# 5 0.0000 0.0000 0.0000 0.0000 40.1509 0.0000
# 6 0.0000 0.0000 0.0000 0.0000 0.0000 40.9793
#
#
#
# Elastic Compliance Matrix: (Units=1/GPa)
#
#
# Indices 1 2 3 4 5 6 
#
# 1 0.010328 -0.004995 -0.002914 0.000000 0.000000 0.000000
# 2 -0.004995 0.015447 -0.000334 0.000000 0.000000 0.000000
# 3 -0.002914 -0.000334 0.005782 0.000000 0.000000 0.000000
# 4 0.000000 0.000000 0.000000 0.046425 0.000000 0.000000
# 5 0.000000 0.000000 0.000000 0.000000 0.024906 0.000000
# 6 0.000000 0.000000 0.000000 0.000000 0.000000 0.024403
#
#
# Mechanical properties :
#
#
# Convention : Reuss Voigt Hill
#
# Bulk Modulus (GPa) = 66.35163 81.06277 73.70720
# Shear Modulus (GPa) = 33.60218 39.44763 36.52491
#
# Velocity S-wave (km/s) = 3.55511 3.85194 3.70649
# Velocity P-wave (km/s) = 6.46595 7.09037 6.78535
#
# Compressibility (1/GPa) = 0.01507122
#
# Stress axis : x y z
#
# Youngs Moduli (GPa) = 96.82746 64.73608 172.95015
#
# Poissons Ratio (x) = 0.32333 0.50399
# Poissons Ratio (y) = 0.48362 0.05780
# Poissons Ratio (z) = 0.28216 0.02164
#
# Static dielectric constant tensor:
#      x y z
#    x 2.085590 0.000000 0.000000 
#    y 0.000000 2.170280 0.000000 
#    z 0.000000 0.000000 2.124340 
# 
# From -- ./inp_files/10356.got.cif
#   From: 2010.05.17/outbox.cif.g08.bks.cpg/sg73_6_cif.got.tgz:10356.got - 2010.06.03 17:35:07.
