data_PCOD9531686
_publ_section_title
;
Structure prediction by ZEFSAII (Michael W. Deem and Ramdas Pophale) SiO2 
 PCOD9531686
Probable space group: I B C A 
;
_chemical_formula_sum "Si O2"
_cell_formula_units_Z 80
_cell_length_a 19.916911
_cell_length_b 15.259136
_cell_length_c 14.185120
_cell_angle_alpha 90.000000
_cell_angle_beta 90.000000
_cell_angle_gamma 90.000000
_cell_volume 4311.068669
_symmetry_space_group_name_H-M "I B C A "
_symmetry_group_IT_number 73
_symmetry_cell_setting 'orthorhombic'
loop_
_space_group_symop_operation_xyz
x,y,z
-x,1/2-y,z
x,-y,1/2-z
1/2-x,y,-z
-x,-y,-z
x,1/2+y,-z
-x,y,1/2+z
1/2+x,-y,z
1/2+x,1/2+y,1/2+z
1/2-x,-y,1/2+z
1/2+x,1/2-y,-z
-x,1/2+y,1/2-z
1/2-x,1/2-y,1/2-z
1/2+x,y,1/2-z
1/2-x,1/2+y,z
x,1/2-y,1/2+z
loop_
_atom_site_type_symbol
_atom_site_label
_atom_site_fract_x
_atom_site_fract_y
_atom_site_fract_z
Si Si1 0.611395 0.461441 0.555167
Si Si2 0.369948 0.878265 0.434898
Si Si3 0.750000 0.524169 0.500000
Si Si4 0.077054 0.781306 0.955815
Si Si5 0.949529 0.328984 0.750131
Si Si6 0.038894 0.500000 0.750000
O O1 0.590498 0.540087 0.483465
O O2 0.692701 0.468468 0.552030
O O3 0.588062 0.368892 0.515469
O O4 0.582758 0.479610 0.657945
O O5 0.294163 0.914472 0.431409
O O6 0.377066 0.796411 0.504818
O O7 0.400954 0.851268 0.336084
O O8 0.087668 0.801191 0.845619
O O9 0.000000 0.750000 0.965227
O O10 0.000000 0.250000 0.776558
O O11 0.993141 0.415448 0.729630
#
# Coordination Sequence:
#
# PCOD9531686 Si02
#       6
#    16  16   8  16  16   8
#     4  10  22  42  59  89 124 165 202 253 298 366
#     4  10  21  43  59  86 128 158 204 254 292 368
#     4   8  24  44  60  84 124 176 210 230 302 364
#     4  11  22  37  65  93 124 157 202 261 318 356
#     4  11  23  36  61  99 117 156 203 253 326 362
#     4  12  22  36  64  90 124 154 202 262 318 356
#
# _framework density 18.556884
#
# number of rings (size 3 to 8) (size 9 to 14) (size 15 to 20)
#    1.200    0.400    0.000    6.600    0.000    3.200 
#    3.600    1.000    0.000    0.000    0.000    0.000 
#    0.000    0.000    0.000    0.000    0.000    0.000 
#
# Total GULP energy -223199.089322 kJ/mol
# GULP energy per Si atom -5579.977233 kJ/mol
# Density = 1.851465 g / cm^3
# Si number density = 18.556884 Si / 1000 Ang^3
#
#
#
# Elastic Constant Matrix: (Units=GPa)
#
#
# Indices 1 2 3 4 5 6 
#
# 1 61.2746 23.3752 46.3234 0.0000 0.0000 0.0000
# 2 23.3752 125.0716 31.3581 0.0000 0.0000 0.0000
# 3 46.3234 31.3581 103.8358 0.0000 0.0000 0.0000
# 4 0.0000 0.0000 0.0000 22.6128 0.0000 0.0000
# 5 0.0000 0.0000 0.0000 0.0000 -5.0405 0.0000
# 6 0.0000 0.0000 0.0000 0.0000 0.0000 25.0091
#
#
#
# Elastic Compliance Matrix: (Units=1/GPa)
#
#
# Indices 1 2 3 4 5 6 
#
# 1 0.025096 -0.002038 -0.010581 0.000000 0.000000 0.000000
# 2 -0.002038 0.008816 -0.001753 0.000000 0.000000 0.000000
# 3 -0.010581 -0.001753 0.014880 0.000000 0.000000 0.000000
# 4 0.000000 0.000000 0.000000 0.044223 0.000000 0.000000
# 5 0.000000 0.000000 0.000000 0.000000 -0.198393 0.000000
# 6 0.000000 0.000000 0.000000 0.000000 0.000000 0.039985
#
#
# Mechanical properties :
#
#
# Convention : Reuss Voigt Hill
#
# Bulk Modulus (GPa) = 49.87707 54.69949 52.28828
# Shear Modulus (GPa) = -166.85215 21.12464 -72.86375
#
# Velocity S-wave (km/s) = -9.49258 3.37764 -6.27298
# Velocity P-wave (km/s) = 9.65449 6.68969 4.92226
#
# Compressibility (1/GPa) = 0.02004929
#
# Stress axis : x y z
#
# Youngs Moduli (GPa) = 39.84670 113.43230 67.20275
#
# Poissons Ratio (x) = 0.23112 0.71105
# Poissons Ratio (y) = 0.08119 0.11783
# Poissons Ratio (z) = 0.42160 0.19889
#
# Static dielectric constant tensor:
#      x y z
#    x 1.637190 0.000000 0.000000 
#    y 0.000000 1.641340 0.000000 
#    z 0.000000 0.000000 1.627580 
# 
# From -- ./inp_files/18724.got.cif
#   From: 2010.05.17/outbox.cif.g08.bks.cpg/sg73_10_cif.got.tgz:18724.got - 2010.06.03 17:35:07.
