data_PCOD9531283
_publ_section_title
;
Structure prediction by ZEFSAII (Michael W. Deem and Ramdas Pophale) SiO2 
 PCOD9531283
Probable space group: I B C A 
;
_chemical_formula_sum "Si O2"
_cell_formula_units_Z 80
_cell_length_a 14.273081
_cell_length_b 12.097432
_cell_length_c 23.622280
_cell_angle_alpha 90.000000
_cell_angle_beta 90.000000
_cell_angle_gamma 90.000000
_cell_volume 4078.803028
_symmetry_space_group_name_H-M "I B C A "
_symmetry_group_IT_number 73
_symmetry_cell_setting 'orthorhombic'
loop_
_space_group_symop_operation_xyz
x,y,z
-x,1/2-y,z
x,-y,1/2-z
1/2-x,y,-z
-x,-y,-z
x,1/2+y,-z
-x,y,1/2+z
1/2+x,-y,z
1/2+x,1/2+y,1/2+z
1/2-x,-y,1/2+z
1/2+x,1/2-y,-z
-x,1/2+y,1/2-z
1/2-x,1/2-y,1/2-z
1/2+x,y,1/2-z
1/2-x,1/2+y,z
x,1/2-y,1/2+z
loop_
_atom_site_type_symbol
_atom_site_label
_atom_site_fract_x
_atom_site_fract_y
_atom_site_fract_z
Si Si1 0.880296 0.038769 0.371370
Si Si2 0.143271 0.488757 0.493386
Si Si3 0.503264 0.878442 0.070817
Si Si4 0.751264 0.905948 0.702828
Si Si5 0.104561 0.776032 0.723330
O O1 0.864424 0.081814 0.435050
O O2 0.898296 0.131832 0.325648
O O3 0.967414 0.954382 0.377731
O O4 0.790495 0.967130 0.351716
O O5 0.250000 0.522696 0.500000
O O6 0.073597 0.590349 0.478186
O O7 0.100880 0.421690 0.545682
O O8 0.500000 0.750000 0.083464
O O9 0.842774 0.831079 0.698298
O O10 0.669157 0.826130 0.727036
O O11 0.767390 0.000000 0.750000
O O12 0.000000 0.750000 0.742415
#
# Coordination Sequence:
#
# PCOD9531283 Si02
#       5
#    16  16  16  16  16
#     4   9  20  38  55  88 114 148 201 235 286 361
#     4   9  20  38  55  83 116 152 195 240 290 353
#     4   9  20  38  56  82 118 154 189 246 287 343
#     4   9  20  39  58  84 122 145 198 244 290 360
#     4  10  21  37  60  86 114 156 190 243 302 347
#
# _framework density 19.613596000000001
#
# number of rings (size 3 to 8) (size 9 to 14) (size 15 to 20)
#    1.200    1.600    0.000    0.000    0.000    8.000 
#    3.600    4.000    0.000    0.000    0.000    0.000 
#    0.000    0.000    0.000    0.000    0.000    0.000 
#
# Total GULP energy -222747.332067 kJ/mol
# GULP energy per Si atom -5568.683302 kJ/mol
# Density = 1.956895 g / cm^3
# Si number density = 19.613596 Si / 1000 Ang^3
#
#
#
# Elastic Constant Matrix: (Units=GPa)
#
#
# Indices 1 2 3 4 5 6 
#
# 1 116.9022 41.3721 7.0622 0.0000 0.0000 0.0000
# 2 41.3721 74.8976 1.5879 0.0000 0.0000 0.0000
# 3 7.0622 1.5879 32.8609 0.0000 0.0000 0.0000
# 4 0.0000 0.0000 0.0000 4.7668 0.0000 0.0000
# 5 0.0000 0.0000 0.0000 0.0000 13.2435 0.0000
# 6 0.0000 0.0000 0.0000 0.0000 0.0000 20.9782
#
#
#
# Elastic Compliance Matrix: (Units=1/GPa)
#
#
# Indices 1 2 3 4 5 6 
#
# 1 0.010766 -0.005904 -0.002029 0.000000 0.000000 0.000000
# 2 -0.005904 0.016603 0.000467 0.000000 0.000000 0.000000
# 3 -0.002029 0.000467 0.030845 0.000000 0.000000 0.000000
# 4 0.000000 0.000000 0.000000 0.209784 0.000000 0.000000
# 5 0.000000 0.000000 0.000000 0.000000 0.075509 0.000000
# 6 0.000000 0.000000 0.000000 0.000000 0.000000 0.047668
#
#
# Mechanical properties :
#
#
# Convention : Reuss Voigt Hill
#
# Bulk Modulus (GPa) = 23.10431 36.07833 29.59132
# Shear Modulus (GPa) = 11.88963 19.44027 15.66495
#
# Velocity S-wave (km/s) = 2.46477 3.15169 2.82916
# Velocity P-wave (km/s) = 4.46155 5.62838 5.07859
#
# Compressibility (1/GPa) = 0.04328197
#
# Stress axis : x y z
#
# Youngs Moduli (GPa) = 92.88356 60.23022 32.42043
#
# Poissons Ratio (x) = 0.35560 0.06577
# Poissons Ratio (y) = 0.54839 -0.01513
# Poissons Ratio (z) = 0.18841 -0.02810
#
# Static dielectric constant tensor:
#      x y z
#    x 1.700290 0.000000 0.000000 
#    y 0.000000 1.671760 0.000000 
#    z 0.000000 0.000000 1.698070 
# 
# From -- ./inp_files/33829.got.cif
#   From: 2010.05.17/outbox.cif.g08.bks.cpg/sg73_17_cif.got.tgz:33829.got - 2010.06.03 17:35:07.
