data_PCOD9531958
_publ_section_title
;
Structure prediction by ZEFSAII (Michael W. Deem and Ramdas Pophale) SiO2 
 PCOD9531958
Probable space group: I B C A 
;
_chemical_formula_sum "Si O2"
_cell_formula_units_Z 96
_cell_length_a 19.041252
_cell_length_b 26.962880
_cell_length_c 7.297769
_cell_angle_alpha 90.000000
_cell_angle_beta 90.000000
_cell_angle_gamma 90.000000
_cell_volume 3746.725636
_symmetry_space_group_name_H-M "I B C A "
_symmetry_group_IT_number 73
_symmetry_cell_setting 'orthorhombic'
loop_
_space_group_symop_operation_xyz
x,y,z
-x,1/2-y,z
x,-y,1/2-z
1/2-x,y,-z
-x,-y,-z
x,1/2+y,-z
-x,y,1/2+z
1/2+x,-y,z
1/2+x,1/2+y,1/2+z
1/2-x,-y,1/2+z
1/2+x,1/2-y,-z
-x,1/2+y,1/2-z
1/2-x,1/2-y,1/2-z
1/2+x,y,1/2-z
1/2-x,1/2+y,z
x,1/2-y,1/2+z
loop_
_atom_site_type_symbol
_atom_site_label
_atom_site_fract_x
_atom_site_fract_y
_atom_site_fract_z
Si Si1 0.465836 0.380212 0.955811
Si Si2 0.254081 0.445187 0.217425
Si Si3 0.599504 0.808339 0.823588
Si Si4 0.916145 0.055490 0.738478
Si Si5 0.901241 0.695630 0.238441
Si Si6 0.746228 0.666414 0.289105
O O1 0.566033 0.355841 0.274323
O O2 0.420829 0.422096 0.057717
O O3 0.450544 0.334906 0.099683
O O4 0.536262 0.410064 0.892888
O O5 0.222036 0.500000 0.250000
O O6 0.333215 0.446727 0.303313
O O7 0.227738 0.392084 0.287344
O O8 0.250000 0.439413 0.000000
O O9 0.577063 0.752333 0.786126
O O10 0.676839 0.805893 0.728712
O O11 0.594061 0.815484 0.043431
O O12 0.944629 0.000000 0.750000
O O13 0.820079 0.680004 0.197068
O O14 0.750000 0.681947 0.500000
#
# Coordination Sequence:
#
# PCOD9531958 Si02
#       6
#    16  16  16  16  16  16
#     4  12  26  48  79 106 156 208 267 334 391 487
#     4  11  23  44  76 112 154 200 262 343 422 489
#     4  11  24  44  76 114 158 210 260 331 406 483
#     4  11  27  51  79 111 152 216 276 333 416 502
#     4  11  23  45  72 114 155 209 264 324 402 482
#     4  10  22  39  71 109 153 196 259 329 401 482
#
# _framework density 25.622374000000001
#
# number of rings (size 3 to 8) (size 9 to 14) (size 15 to 20)
#    0.000    1.000    3.333    2.500    2.333    0.000 
#    0.000    7.500    0.000    0.000    0.000    0.000 
#    0.000    0.000    0.000    0.000    0.000    0.000 
#
# Total GULP energy -267973.093038 kJ/mol
# GULP energy per Si atom -5582.772772 kJ/mol
# Density = 2.556406 g / cm^3
# Si number density = 25.622374 Si / 1000 Ang^3
#
#
#
# Elastic Constant Matrix: (Units=GPa)
#
#
# Indices 1 2 3 4 5 6 
#
# 1 112.0925 44.5934 19.0035 0.0000 0.0000 0.0000
# 2 44.5934 195.5159 33.8144 0.0000 0.0000 0.0000
# 3 19.0035 33.8144 130.0089 0.0000 0.0000 0.0000
# 4 0.0000 0.0000 0.0000 34.8674 0.0000 0.0000
# 5 0.0000 0.0000 0.0000 0.0000 21.9557 0.0000
# 6 0.0000 0.0000 0.0000 0.0000 0.0000 71.8649
#
#
#
# Elastic Compliance Matrix: (Units=1/GPa)
#
#
# Indices 1 2 3 4 5 6 
#
# 1 0.009911 -0.002105 -0.000901 0.000000 0.000000 0.000000
# 2 -0.002105 0.005803 -0.001202 0.000000 0.000000 0.000000
# 3 -0.000901 -0.001202 0.008136 0.000000 0.000000 0.000000
# 4 0.000000 0.000000 0.000000 0.028680 0.000000 0.000000
# 5 0.000000 0.000000 0.000000 0.000000 0.045546 0.000000
# 6 0.000000 0.000000 0.000000 0.000000 0.000000 0.013915
#
#
# Mechanical properties :
#
#
# Convention : Reuss Voigt Hill
#
# Bulk Modulus (GPa) = 64.78895 70.27111 67.53003
# Shear Modulus (GPa) = 39.82437 48.41799 44.12118
#
# Velocity S-wave (km/s) = 3.94671 4.35176 4.15417
# Velocity P-wave (km/s) = 6.79041 7.26193 7.03012
#
# Compressibility (1/GPa) = 0.01543473
#
# Stress axis : x y z
#
# Youngs Moduli (GPa) = 100.89479 172.33880 122.90981
#
# Poissons Ratio (x) = 0.36272 0.11078
# Poissons Ratio (y) = 0.21235 0.14768
# Poissons Ratio (z) = 0.09094 0.20707
#
# Static dielectric constant tensor:
#      x y z
#    x 2.215660 0.000000 0.000000 
#    y 0.000000 2.020140 0.000000 
#    z 0.000000 0.000000 2.046250 
# 
# From -- ./inp_files/6415.got.cif
#   From: 2010.05.17/outbox.cif.g08.bks.cpg/sg73_4_cif.got.tgz:6415.got - 2010.06.03 17:35:07.
