data_PCOD9531860
_publ_section_title
;
Structure prediction by ZEFSAII (Michael W. Deem and Ramdas Pophale) SiO2 
 PCOD9531860
Probable space group: I B C A 
;
_chemical_formula_sum "Si O2"
_cell_formula_units_Z 104
_cell_length_a 21.365989
_cell_length_b 24.324148
_cell_length_c 9.778794
_cell_angle_alpha 90.000000
_cell_angle_beta 90.000000
_cell_angle_gamma 90.000000
_cell_volume 5082.131931
_symmetry_space_group_name_H-M "I B C A "
_symmetry_group_IT_number 73
_symmetry_cell_setting 'orthorhombic'
loop_
_space_group_symop_operation_xyz
x,y,z
-x,1/2-y,z
x,-y,1/2-z
1/2-x,y,-z
-x,-y,-z
x,1/2+y,-z
-x,y,1/2+z
1/2+x,-y,z
1/2+x,1/2+y,1/2+z
1/2-x,-y,1/2+z
1/2+x,1/2-y,-z
-x,1/2+y,1/2-z
1/2-x,1/2-y,1/2-z
1/2+x,y,1/2-z
1/2-x,1/2+y,z
x,1/2-y,1/2+z
loop_
_atom_site_type_symbol
_atom_site_label
_atom_site_fract_x
_atom_site_fract_y
_atom_site_fract_z
Si Si1 0.896671 0.814038 0.806540
Si Si2 0.962671 0.426230 0.628107
Si Si3 0.431060 0.550353 0.929071
Si Si4 0.680178 0.627563 0.451792
Si Si5 0.500000 0.750000 0.566102
Si Si6 0.891261 0.671632 0.014142
Si Si7 0.689382 0.713736 0.210778
O O1 0.856744 0.837162 0.932850
O O2 0.967052 0.798763 0.848281
O O3 0.887023 0.848782 0.669602
O O4 0.867474 0.755326 0.764728
O O5 0.964925 0.428149 0.791575
O O6 0.934018 0.484612 0.577982
O O7 0.919803 0.376731 0.577491
O O8 0.030671 0.426248 0.557850
O O9 0.361710 0.574115 0.928166
O O10 0.750000 0.615488 0.500000
O O11 0.685352 0.663566 0.314947
O O12 0.556605 0.779448 0.486462
O O13 0.826983 0.692876 0.943243
O O14 0.750000 0.750000 0.250000
#
# Coordination Sequence:
#
# PCOD9531860 Si02
#       7
#    16  16  16  16   8  16  16
#     4  11  24  36  61  92 129 168 214 264 324 393
#     4  10  22  42  71  95 132 163 220 275 343 385
#     4  10  23  43  69  99 125 174 216 279 336 402
#     4  12  24  43  66  91 130 180 218 270 326 397
#     4  10  22  38  58  96 136 166 206 266 332 392
#     4  11  23  38  63  94 130 168 214 272 320 394
#     4  11  22  42  61  87 124 176 218 256 319 393
#
# _framework density 20.463853
#
# number of rings (size 3 to 8) (size 9 to 14) (size 15 to 20)
#    0.000    1.231    3.077    3.231    4.308    1.231 
#    0.000    0.000   10.154    0.000    0.000    0.000 
#    0.000    0.000    0.000    0.000    0.000    0.000 
#
# Total GULP energy -290446.839080 kJ/mol
# GULP energy per Si atom -5585.516136 kJ/mol
# Density = 2.041728 g / cm^3
# Si number density = 20.463853 Si / 1000 Ang^3
#
#
#
# Elastic Constant Matrix: (Units=GPa)
#
#
# Indices 1 2 3 4 5 6 
#
# 1 116.8436 17.1147 32.3357 0.0000 0.0000 0.0000
# 2 17.1147 53.1973 -2.4361 0.0000 0.0000 0.0000
# 3 32.3357 -2.4361 94.8782 0.0000 0.0000 0.0000
# 4 0.0000 0.0000 0.0000 18.3379 0.0000 0.0000
# 5 0.0000 0.0000 0.0000 0.0000 17.2833 0.0000
# 6 0.0000 0.0000 0.0000 0.0000 0.0000 33.6804
#
#
#
# Elastic Compliance Matrix: (Units=1/GPa)
#
#
# Indices 1 2 3 4 5 6 
#
# 1 0.010024 -0.003385 -0.003503 0.000000 0.000000 0.000000
# 2 -0.003385 0.019963 0.001666 0.000000 0.000000 0.000000
# 3 -0.003503 0.001666 0.011777 0.000000 0.000000 0.000000
# 4 0.000000 0.000000 0.000000 0.054532 0.000000 0.000000
# 5 0.000000 0.000000 0.000000 0.000000 0.057859 0.000000
# 6 0.000000 0.000000 0.000000 0.000000 0.000000 0.029691
#
#
# Mechanical properties :
#
#
# Convention : Reuss Voigt Hill
#
# Bulk Modulus (GPa) = 31.92899 39.88306 35.90603
# Shear Modulus (GPa) = 24.42242 28.38730 26.40486
#
# Velocity S-wave (km/s) = 3.45837 3.72854 3.59600
# Velocity P-wave (km/s) = 5.61993 6.16992 5.90133
#
# Compressibility (1/GPa) = 0.03131950
#
# Stress axis : x y z
#
# Youngs Moduli (GPa) = 99.76274 50.09169 84.91464
#
# Poissons Ratio (x) = 0.16957 0.29747
# Poissons Ratio (y) = 0.33773 -0.14150
# Poissons Ratio (z) = 0.34948 -0.08347
#
# Static dielectric constant tensor:
#      x y z
#    x 1.729180 0.000000 0.000000 
#    y 0.000000 1.729760 0.000000 
#    z 0.000000 0.000000 1.814230 
# 
# From -- ./inp_files/6554.got.cif
#   From: 2010.05.17/outbox.cif.g08.bks.cpg/sg73_4_cif.got.tgz:6554.got - 2010.06.03 17:35:07.
