data_PCOD9531212
_publ_section_title
;
Structure prediction by ZEFSAII (Michael W. Deem and Ramdas Pophale) SiO2 
 PCOD9531212
Probable space group: I B C A 
;
_chemical_formula_sum "Si O2"
_cell_formula_units_Z 96
_cell_length_a 18.635623
_cell_length_b 28.753145
_cell_length_c 8.249652
_cell_angle_alpha 90.000000
_cell_angle_beta 90.000000
_cell_angle_gamma 90.000000
_cell_volume 4420.433885
_symmetry_space_group_name_H-M "I B C A "
_symmetry_group_IT_number 73
_symmetry_cell_setting 'orthorhombic'
loop_
_space_group_symop_operation_xyz
x,y,z
-x,1/2-y,z
x,-y,1/2-z
1/2-x,y,-z
-x,-y,-z
x,1/2+y,-z
-x,y,1/2+z
1/2+x,-y,z
1/2+x,1/2+y,1/2+z
1/2-x,-y,1/2+z
1/2+x,1/2-y,-z
-x,1/2+y,1/2-z
1/2-x,1/2-y,1/2-z
1/2+x,y,1/2-z
1/2-x,1/2+y,z
x,1/2-y,1/2+z
loop_
_atom_site_type_symbol
_atom_site_label
_atom_site_fract_x
_atom_site_fract_y
_atom_site_fract_z
Si Si1 0.911267 0.795710 0.046734
Si Si2 0.644012 0.394301 0.060236
Si Si3 0.642647 0.946768 0.266548
Si Si4 0.019738 0.036697 0.860926
Si Si5 0.426609 0.197578 0.427729
Si Si6 0.322128 0.384710 0.935126
O O1 0.862788 0.840287 0.009051
O O2 0.921088 0.796895 0.237333
O O3 0.889566 0.743543 0.000739
O O4 0.990028 0.803256 0.972252
O O5 0.566987 0.419305 0.092790
O O6 0.678766 0.395893 0.242037
O O7 0.668797 0.420583 0.896530
O O8 0.554963 0.946594 0.280340
O O9 0.669098 0.926785 0.438038
O O10 0.664407 0.000000 0.250000
O O11 0.063605 0.000000 0.750000
O O12 0.000000 0.000000 0.000000
O O13 0.388032 0.149762 0.469708
O O14 0.250000 0.360514 0.000000
#
# Coordination Sequence:
#
# PCOD9531212 Si02
#       6
#    16  16  16  16  16  16
#     4  10  21  35  64 101 125 165 201 271 347 403
#     4  11  24  39  66  97 132 171 221 270 344 400
#     4  11  24  41  66  96 130 177 216 279 342 394
#     4  11  19  35  60 100 137 161 208 274 348 404
#     4  10  21  39  65  96 134 162 211 269 338 403
#     4  11  27  47  64  92 133 182 233 275 315 393
#
# _framework density 21.717326
#
# number of rings (size 3 to 8) (size 9 to 14) (size 15 to 20)
#    0.000    1.333    3.333    4.000    9.333    0.667 
#    3.000    3.333    0.000    0.000    0.000    0.000 
#    0.000    0.000    0.000    0.000    0.000    0.000 
#
# Total GULP energy -267682.495698 kJ/mol
# GULP energy per Si atom -5576.718660 kJ/mol
# Density = 2.166790 g / cm^3
# Si number density = 21.717326 Si / 1000 Ang^3
#
#
#
# Elastic Constant Matrix: (Units=GPa)
#
#
# Indices 1 2 3 4 5 6 
#
# 1 28.7581 0.2090 20.4814 0.0000 0.0000 0.0000
# 2 0.2090 109.3813 70.9941 0.0000 0.0000 0.0000
# 3 20.4814 70.9941 121.9607 0.0001 0.0001 0.0000
# 4 0.0000 0.0000 0.0001 10.3267 0.0000 0.0000
# 5 0.0000 0.0000 0.0001 0.0000 21.1506 0.0000
# 6 0.0000 0.0000 0.0000 0.0000 0.0000 -3.0699
#
#
#
# Elastic Compliance Matrix: (Units=1/GPa)
#
#
# Indices 1 2 3 4 5 6 
#
# 1 0.042914 0.007386 -0.011506 0.000000 0.000000 0.000000
# 2 0.007386 0.015965 -0.010534 0.000000 0.000000 0.000000
# 3 -0.011506 -0.010534 0.016263 0.000000 0.000000 0.000000
# 4 0.000000 0.000000 0.000000 0.096836 0.000000 0.000000
# 5 0.000000 0.000000 0.000000 0.000000 0.047280 0.000000
# 6 0.000000 0.000000 0.000000 0.000000 0.000000 -0.325745
#
#
# Mechanical properties :
#
#
# Convention : Reuss Voigt Hill
#
# Bulk Modulus (GPa) = 21.81757 49.27433 35.54595
# Shear Modulus (GPa) = -80.77476 16.90921 -31.93277
#
# Velocity S-wave (km/s) = -6.10528 2.79338 -3.83872
# Velocity P-wave (km/s) = 6.29534 5.75692 1.80127
#
# Compressibility (1/GPa) = 0.04583461
#
# Stress axis : x y z
#
# Youngs Moduli (GPa) = 23.30256 62.63616 61.48754
#
# Poissons Ratio (x) = -0.46264 0.70749
# Poissons Ratio (y) = -0.17212 0.64770
# Poissons Ratio (z) = 0.26812 0.65980
#
# Static dielectric constant tensor:
#      x y z
#    x 1.788640 0.000000 0.000000 
#    y 0.000000 2.102390 0.000000 
#    z 0.000000 0.000000 1.814900 
# 
# From -- ./inp_files/6446.got.cif
#   From: 2010.05.17/outbox.cif.g08.bks.cpg/sg73_4_cif.got.tgz:6446.got - 2010.06.03 17:35:07.
