data_PCOD9531409
_publ_section_title
;
Structure prediction by ZEFSAII (Michael W. Deem and Ramdas Pophale) SiO2 
 PCOD9531409
Probable space group: I B C A 
;
_chemical_formula_sum "Si O2"
_cell_formula_units_Z 72
_cell_length_a 19.194832
_cell_length_b 22.318214
_cell_length_c 7.924827
_cell_angle_alpha 90.000000
_cell_angle_beta 90.000000
_cell_angle_gamma 90.000000
_cell_volume 3394.951256
_symmetry_space_group_name_H-M "I B C A "
_symmetry_group_IT_number 73
_symmetry_cell_setting 'orthorhombic'
loop_
_space_group_symop_operation_xyz
x,y,z
-x,1/2-y,z
x,-y,1/2-z
1/2-x,y,-z
-x,-y,-z
x,1/2+y,-z
-x,y,1/2+z
1/2+x,-y,z
1/2+x,1/2+y,1/2+z
1/2-x,-y,1/2+z
1/2+x,1/2-y,-z
-x,1/2+y,1/2-z
1/2-x,1/2-y,1/2-z
1/2+x,y,1/2-z
1/2-x,1/2+y,z
x,1/2-y,1/2+z
loop_
_atom_site_type_symbol
_atom_site_label
_atom_site_fract_x
_atom_site_fract_y
_atom_site_fract_z
Si Si1 0.685759 0.666911 0.804693
Si Si2 0.425128 0.576082 0.378742
Si Si3 0.083334 0.950907 0.520006
Si Si4 0.281278 0.066785 0.187432
Si Si5 0.750000 0.275320 0.000000
O O1 0.617586 0.637827 0.890929
O O2 0.745013 0.615143 0.807502
O O3 0.694741 0.685651 0.607230
O O4 0.705105 0.729181 0.890290
O O5 0.507445 0.568599 0.413903
O O6 0.412828 0.565091 0.178284
O O7 0.399421 0.522320 0.501653
O O8 0.137885 0.923022 0.648468
O O9 0.267462 0.000000 0.250000
O O10 0.250000 0.069246 0.000000
#
# Coordination Sequence:
#
# PCOD9531409 Si02
#       5
#    16  16  16  16   8
#     4  11  22  43  64  92 128 166 222 275 314 393
#     4  10  21  39  60  87 134 169 205 259 327 401
#     4  10  22  36  59  96 131 171 199 253 344 412
#     4  12  24  38  63 100 134 163 213 271 340 402
#     4  10  24  40  68  92 120 180 230 264 326 366
#
# _framework density 21.207962999999999
#
# number of rings (size 3 to 8) (size 9 to 14) (size 15 to 20)
#    0.000    1.333    3.333    1.333   10.889    0.000 
#    0.000    0.000    0.000   22.667    0.000    0.000 
#    0.000    0.000    0.000    0.000    0.000    0.000 
#
# Total GULP energy -200502.053663 kJ/mol
# GULP energy per Si atom -5569.501491 kJ/mol
# Density = 2.115969 g / cm^3
# Si number density = 21.207963 Si / 1000 Ang^3
#
#
#
# Elastic Constant Matrix: (Units=GPa)
#
#
# Indices 1 2 3 4 5 6 
#
# 1 80.2568 44.4268 23.3586 0.0000 0.0000 0.0000
# 2 44.4268 113.3938 25.4315 0.0000 0.0000 0.0000
# 3 23.3586 25.4315 78.1504 0.0000 0.0000 0.0000
# 4 0.0000 0.0000 0.0000 34.3922 0.0000 0.0000
# 5 0.0000 0.0000 0.0000 0.0000 30.6278 0.0000
# 6 0.0000 0.0000 0.0000 0.0000 0.0000 38.7054
#
#
#
# Elastic Compliance Matrix: (Units=1/GPa)
#
#
# Indices 1 2 3 4 5 6 
#
# 1 0.016563 -0.005803 -0.003062 0.000000 0.000000 0.000000
# 2 -0.005803 0.011546 -0.002023 0.000000 0.000000 0.000000
# 3 -0.003062 -0.002023 0.014369 0.000000 0.000000 0.000000
# 4 0.000000 0.000000 0.000000 0.029076 0.000000 0.000000
# 5 0.000000 0.000000 0.000000 0.000000 0.032650 0.000000
# 6 0.000000 0.000000 0.000000 0.000000 0.000000 0.025836
#
#
# Mechanical properties :
#
#
# Convention : Reuss Voigt Hill
#
# Bulk Modulus (GPa) = 48.30223 50.91499 49.60861
# Shear Modulus (GPa) = 31.50239 32.65070 32.07654
#
# Velocity S-wave (km/s) = 3.85828 3.92797 3.89328
# Velocity P-wave (km/s) = 6.53248 6.68068 6.60700
#
# Compressibility (1/GPa) = 0.02070298
#
# Stress axis : x y z
#
# Youngs Moduli (GPa) = 60.37416 86.61070 69.59208
#
# Poissons Ratio (x) = 0.50257 0.21312
# Poissons Ratio (y) = 0.35033 0.14078
# Poissons Ratio (z) = 0.18489 0.17520
#
# Static dielectric constant tensor:
#      x y z
#    x 1.844290 0.000000 0.000000 
#    y 0.000000 1.797040 0.000000 
#    z 0.000000 0.000000 1.817160 
# 
# From -- ./inp_files/6115.got.cif
#   From: 2010.05.17/outbox.cif.g08.bks.cpg/sg73_4_cif.got.tgz:6115.got - 2010.06.03 17:35:07.
