data_PCOD9531157
_publ_section_title
;
Structure prediction by ZEFSAII (Michael W. Deem and Ramdas Pophale) SiO2 
 PCOD9531157
Probable space group: I B C A 
;
_chemical_formula_sum "Si O2"
_cell_formula_units_Z 96
_cell_length_a 11.626449
_cell_length_b 13.893825
_cell_length_c 28.333018
_cell_angle_alpha 90.000000
_cell_angle_beta 90.000000
_cell_angle_gamma 90.000000
_cell_volume 4576.798083
_symmetry_space_group_name_H-M "I B C A "
_symmetry_group_IT_number 73
_symmetry_cell_setting 'orthorhombic'
loop_
_space_group_symop_operation_xyz
x,y,z
-x,1/2-y,z
x,-y,1/2-z
1/2-x,y,-z
-x,-y,-z
x,1/2+y,-z
-x,y,1/2+z
1/2+x,-y,z
1/2+x,1/2+y,1/2+z
1/2-x,-y,1/2+z
1/2+x,1/2-y,-z
-x,1/2+y,1/2-z
1/2-x,1/2-y,1/2-z
1/2+x,y,1/2-z
1/2-x,1/2+y,z
x,1/2-y,1/2+z
loop_
_atom_site_type_symbol
_atom_site_label
_atom_site_fract_x
_atom_site_fract_y
_atom_site_fract_z
Si Si1 0.668873 0.000000 0.750000
Si Si2 0.334609 0.655459 0.330412
Si Si3 0.279566 0.147529 0.822740
Si Si4 0.990914 0.038624 0.446964
Si Si5 0.476188 0.357785 0.259848
Si Si6 0.500000 0.250000 0.591153
Si Si7 0.744841 0.003053 0.399458
O O1 0.731570 0.066687 0.712606
O O2 0.584010 0.078248 0.771572
O O3 0.267299 0.747380 0.310628
O O4 0.405691 0.606675 0.287085
O O5 0.410071 0.705370 0.371314
O O6 0.260380 0.577516 0.358398
O O7 0.410721 0.149157 0.808807
O O8 0.255757 0.107905 0.874504
O O9 0.975494 0.154957 0.440434
O O10 0.118055 0.010857 0.424506
O O11 0.869093 0.996767 0.425714
O O12 0.000000 0.000000 0.500000
O O13 0.500000 0.250000 0.243841
#
# Coordination Sequence:
#
# PCOD9531157 Si02
#       7
#     8  16  16  16  16   8  16
#     4  12  24  40  60  88 142 180 242 288 342 402
#     4  11  21  43  65  98 140 186 238 288 353 420
#     4  12  25  40  62 100 136 187 241 294 347 412
#     4  11  25  50  75 109 138 181 235 301 372 446
#     4  12  25  39  64  95 137 191 242 294 335 416
#     4  10  20  44  76  94 136 192 224 282 372 440
#     4  11  26  44  76 101 144 185 234 293 363 436
#
# _framework density 20.975363999999999
#
# number of rings (size 3 to 8) (size 9 to 14) (size 15 to 20)
#    0.000    0.667    4.167    3.500    7.000    0.000 
#    3.000    1.667    0.000    0.000    0.000    0.000 
#    0.000    0.000    0.000    0.000    0.000    0.000 
#
# Total GULP energy -267269.195916 kJ/mol
# GULP energy per Si atom -5568.108248 kJ/mol
# Density = 2.092762 g / cm^3
# Si number density = 20.975364 Si / 1000 Ang^3
#
#
#
# Elastic Constant Matrix: (Units=GPa)
#
#
# Indices 1 2 3 4 5 6 
#
# 1 105.5657 32.5382 45.3772 0.0000 0.0000 0.0000
# 2 32.5382 88.4992 26.5794 0.0000 0.0000 0.0000
# 3 45.3772 26.5794 100.5470 0.0000 0.0000 0.0000
# 4 0.0000 0.0000 0.0000 36.7497 0.0000 0.0000
# 5 0.0000 0.0000 0.0000 0.0000 39.0430 0.0000
# 6 0.0000 0.0000 0.0000 0.0000 0.0000 33.8732
#
#
#
# Elastic Compliance Matrix: (Units=1/GPa)
#
#
# Indices 1 2 3 4 5 6 
#
# 1 0.012515 -0.003155 -0.004814 0.000000 0.000000 0.000000
# 2 -0.003155 0.013070 -0.002031 0.000000 0.000000 0.000000
# 3 -0.004814 -0.002031 0.012655 0.000000 0.000000 0.000000
# 4 0.000000 0.000000 0.000000 0.027211 0.000000 0.000000
# 5 0.000000 0.000000 0.000000 0.000000 0.025613 0.000000
# 6 0.000000 0.000000 0.000000 0.000000 0.000000 0.029522
#
#
# Mechanical properties :
#
#
# Convention : Reuss Voigt Hill
#
# Bulk Modulus (GPa) = 54.82755 55.95572 55.39164
# Shear Modulus (GPa) = 34.09140 34.60765 34.34953
#
# Velocity S-wave (km/s) = 4.03588 4.06633 4.05113
# Velocity P-wave (km/s) = 6.92196 6.98437 6.95324
#
# Compressibility (1/GPa) = 0.01823900
#
# Stress axis : x y z
#
# Youngs Moduli (GPa) = 79.90709 76.51328 79.02076
#
# Poissons Ratio (x) = 0.24143 0.38038
# Poissons Ratio (y) = 0.25214 0.16048
# Poissons Ratio (z) = 0.38465 0.15539
#
# Static dielectric constant tensor:
#      x y z
#    x 1.867280 0.000000 0.000000 
#    y 0.000000 1.797090 0.000000 
#    z 0.000000 0.000000 1.757730 
# 
# From -- ./inp_files/33978.got.cif
#   From: 2010.05.17/outbox.cif.g08.bks.cpg/sg73_17_cif.got.tgz:33978.got - 2010.06.03 17:35:07.
