data_PCOD9531304
_publ_section_title
;
Structure prediction by ZEFSAII (Michael W. Deem and Ramdas Pophale) SiO2 
 PCOD9531304
Probable space group: I B C A 
;
_chemical_formula_sum "Si O2"
_cell_formula_units_Z 120
_cell_length_a 11.821997
_cell_length_b 26.509586
_cell_length_c 18.747489
_cell_angle_alpha 90.000000
_cell_angle_beta 90.000000
_cell_angle_gamma 90.000000
_cell_volume 5875.392678
_symmetry_space_group_name_H-M "I B C A "
_symmetry_group_IT_number 73
_symmetry_cell_setting 'orthorhombic'
loop_
_space_group_symop_operation_xyz
x,y,z
-x,1/2-y,z
x,-y,1/2-z
1/2-x,y,-z
-x,-y,-z
x,1/2+y,-z
-x,y,1/2+z
1/2+x,-y,z
1/2+x,1/2+y,1/2+z
1/2-x,-y,1/2+z
1/2+x,1/2-y,-z
-x,1/2+y,1/2-z
1/2-x,1/2-y,1/2-z
1/2+x,y,1/2-z
1/2-x,1/2+y,z
x,1/2-y,1/2+z
loop_
_atom_site_type_symbol
_atom_site_label
_atom_site_fract_x
_atom_site_fract_y
_atom_site_fract_z
Si Si1 0.811549 0.223653 0.077434
Si Si2 0.562025 0.174331 0.409329
Si Si3 0.175367 0.446605 0.068263
Si Si4 0.825490 0.138426 0.865784
Si Si5 0.646700 0.953408 0.856727
Si Si6 0.855854 0.401928 0.206204
Si Si7 0.984944 0.100412 0.476552
Si Si8 0.025544 0.500000 0.750000
O O1 0.848237 0.280369 0.096542
O O2 0.723097 0.194965 0.128861
O O3 0.933755 0.195298 0.080959
O O4 0.750000 0.221106 0.000000
O O5 0.574976 0.136516 0.343014
O O6 0.583245 0.142208 0.480450
O O7 0.225526 0.396365 0.102878
O O8 0.190371 0.490549 0.125476
O O9 0.250000 0.460549 0.000000
O O10 0.054024 0.432481 0.035027
O O11 0.851563 0.119920 0.786229
O O12 0.927924 0.126921 0.920863
O O13 0.732029 0.912042 0.826525
O O14 0.594290 0.934681 0.930301
O O15 0.549900 0.964806 0.799925
O O16 0.904271 0.458901 0.206390
#
# Coordination Sequence:
#
# PCOD9531304 Si02
#       8
#    16  16  16  16  16  16  16   8
#     4  11  23  46  79  98 129 185 235 294 368 425
#     4  11  26  44  72 107 137 173 236 307 352 419
#     4  10  21  37  63  96 136 179 234 285 338 415
#     4  11  21  45  70  98 135 190 237 280 353 428
#     4  12  26  38  65  98 143 191 226 295 350 418
#     4  12  28  43  68 106 150 184 236 296 352 427
#     4  11  22  42  67 101 131 185 238 291 347 417
#     4  12  24  46  64  96 146 202 240 264 350 434
#
# _framework density 20.424167000000001
#
# number of rings (size 3 to 8) (size 9 to 14) (size 15 to 20)
#    0.000    0.800    4.000    3.600    7.467    0.533 
#    0.000    0.000    5.867    0.000    0.000    0.000 
#    0.000    0.000    0.000    0.000    0.000    0.000 
#
# Total GULP energy -335151.470735 kJ/mol
# GULP energy per Si atom -5585.857846 kJ/mol
# Density = 2.037768 g / cm^3
# Si number density = 20.424167 Si / 1000 Ang^3
#
#
#
# Elastic Constant Matrix: (Units=GPa)
#
#
# Indices 1 2 3 4 5 6 
#
# 1 37.6661 24.3078 24.0599 0.0000 0.0000 0.0000
# 2 24.3078 77.6381 14.2237 0.0000 0.0000 0.0002
# 3 24.0599 14.2237 89.3423 0.0000 0.0000 0.0005
# 4 0.0000 0.0000 0.0000 26.4724 0.0000 0.0002
# 5 0.0000 0.0000 0.0000 0.0000 21.2836 0.0001
# 6 0.0000 0.0002 0.0005 0.0002 0.0001 329.8407
#
#
#
# Elastic Compliance Matrix: (Units=1/GPa)
#
#
# Indices 1 2 3 4 5 6 
#
# 1 0.039027 -0.010603 -0.008822 0.000000 0.000000 0.000000
# 2 -0.010603 0.016148 0.000285 0.000000 0.000000 0.000000
# 3 -0.008822 0.000285 0.013523 0.000000 0.000000 0.000000
# 4 0.000000 0.000000 0.000000 0.037775 0.000000 0.000000
# 5 0.000000 0.000000 0.000000 0.000000 0.046985 0.000000
# 6 0.000000 0.000000 0.000000 0.000000 0.000000 0.003032
#
#
# Mechanical properties :
#
#
# Convention : Reuss Voigt Hill
#
# Bulk Modulus (GPa) = 32.87569 36.64770 34.76169
# Shear Modulus (GPa) = 24.40112 84.98968 54.69540
#
# Velocity S-wave (km/s) = 3.46022 6.45776 5.18053
# Velocity P-wave (km/s) = 5.66529 8.57822 7.26916
#
# Compressibility (1/GPa) = 0.03041761
#
# Stress axis : x y z
#
# Youngs Moduli (GPa) = 25.62351 61.92807 73.94616
#
# Poissons Ratio (x) = 0.65660 0.65235
# Poissons Ratio (y) = 0.27168 -0.02104
# Poissons Ratio (z) = 0.22605 -0.01762
#
# Static dielectric constant tensor:
#      x y z
#    x 1.785410 0.000000 0.000000 
#    y 0.000000 1.755920 0.000000 
#    z 0.000000 0.000000 1.743960 
# 
# From -- ./inp_files/21520.got.cif
#   From: 2010.05.17/outbox.cif.g08.bks.cpg/sg73_11_cif.got.tgz:21520.got - 2010.06.03 17:35:07.
