data_PCOD9531147
_publ_section_title
;
Structure prediction by ZEFSAII (Michael W. Deem and Ramdas Pophale) SiO2 
 PCOD9531147
Probable space group: I B C A 
;
_chemical_formula_sum "Si O2"
_cell_formula_units_Z 88
_cell_length_a 18.890105
_cell_length_b 22.268729
_cell_length_c 9.260830
_cell_angle_alpha 90.000000
_cell_angle_beta 90.000000
_cell_angle_gamma 90.000000
_cell_volume 3895.648051
_symmetry_space_group_name_H-M "I B C A "
_symmetry_group_IT_number 73
_symmetry_cell_setting 'orthorhombic'
loop_
_space_group_symop_operation_xyz
x,y,z
-x,1/2-y,z
x,-y,1/2-z
1/2-x,y,-z
-x,-y,-z
x,1/2+y,-z
-x,y,1/2+z
1/2+x,-y,z
1/2+x,1/2+y,1/2+z
1/2-x,-y,1/2+z
1/2+x,1/2-y,-z
-x,1/2+y,1/2-z
1/2-x,1/2-y,1/2-z
1/2+x,y,1/2-z
1/2-x,1/2+y,z
x,1/2-y,1/2+z
loop_
_atom_site_type_symbol
_atom_site_label
_atom_site_fract_x
_atom_site_fract_y
_atom_site_fract_z
Si Si1 0.075894 0.121731 0.693966
Si Si2 0.475676 0.681156 0.981737
Si Si3 0.628841 0.314455 0.540109
Si Si4 0.750000 0.274507 0.000000
Si Si5 0.339892 0.860526 0.660721
Si Si6 0.250000 0.038556 0.000000
Si Si7 0.651445 0.500000 0.250000
O O1 0.044660 0.162947 0.819665
O O2 0.140837 0.154505 0.613921
O O3 0.020304 0.124632 0.561368
O O4 0.101817 0.058409 0.749081
O O5 0.551667 0.719814 0.971131
O O6 0.404598 0.671677 0.075592
O O7 0.687232 0.265261 0.559112
O O8 0.635468 0.360114 0.673501
O O9 0.775556 0.315714 0.130675
O O10 0.307712 0.920788 0.589225
O O11 0.202962 0.001483 0.887901
#
# Coordination Sequence:
#
# PCOD9531147 Si02
#       7
#    16  16  16   8  16   8   8
#     4  10  23  42  69  98 135 176 230 280 336 397
#     4  10  20  44  67  95 133 177 218 289 323 398
#     4  10  23  42  68  98 134 176 224 277 340 397
#     4  11  26  39  70 104 130 187 222 277 338 424
#     4  11  23  46  66  96 140 176 223 277 344 399
#     4  11  28  41  66  98 142 175 228 283 336 400
#     4  12  26  44  66 106 132 186 230 276 344 416
#
# _framework density 22.589310000000001
#
# number of rings (size 3 to 8) (size 9 to 14) (size 15 to 20)
#    1.091    0.364    3.636    0.545    5.091    2.909 
#    0.000    1.818    0.000    0.000    0.000    0.000 
#    0.000    0.000    0.000    0.000    0.000    0.000 
#
# Total GULP energy -245016.811919 kJ/mol
# GULP energy per Si atom -5568.563907 kJ/mol
# Density = 2.253790 g / cm^3
# Si number density = 22.589310 Si / 1000 Ang^3
#
#
#
# Elastic Constant Matrix: (Units=GPa)
#
#
# Indices 1 2 3 4 5 6 
#
# 1 105.2182 38.3083 17.3773 0.0000 0.0000 0.0000
# 2 38.3083 109.9596 26.7809 0.0000 0.0000 0.0000
# 3 17.3773 26.7809 116.3774 0.0000 0.0000 0.0000
# 4 0.0000 0.0000 0.0000 3.2195 0.0000 0.0000
# 5 0.0000 0.0000 0.0000 0.0000 39.9124 0.0000
# 6 0.0000 0.0000 0.0000 0.0000 0.0000 32.7132
#
#
#
# Elastic Compliance Matrix: (Units=1/GPa)
#
#
# Indices 1 2 3 4 5 6 
#
# 1 0.010955 -0.003621 -0.000802 0.000000 0.000000 0.000000
# 2 -0.003621 0.010831 -0.001952 0.000000 0.000000 0.000000
# 3 -0.000802 -0.001952 0.009162 0.000000 0.000000 0.000000
# 4 0.000000 0.000000 0.000000 0.310606 0.000000 0.000000
# 5 0.000000 0.000000 0.000000 0.000000 0.025055 0.000000
# 6 0.000000 0.000000 0.000000 0.000000 0.000000 0.030569
#
#
# Mechanical properties :
#
#
# Convention : Reuss Voigt Hill
#
# Bulk Modulus (GPa) = 54.95383 55.16535 55.05959
# Shear Modulus (GPa) = 12.01941 31.77493 21.89717
#
# Velocity S-wave (km/s) = 2.30920 3.75458 3.11683
# Velocity P-wave (km/s) = 5.61160 6.57798 6.11391
#
# Compressibility (1/GPa) = 0.01819709
#
# Stress axis : x y z
#
# Youngs Moduli (GPa) = 91.28261 92.32629 109.14996
#
# Poissons Ratio (x) = 0.33432 0.08759
# Poissons Ratio (y) = 0.33054 0.21304
# Poissons Ratio (z) = 0.07325 0.18020
#
# Static dielectric constant tensor:
#      x y z
#    x 1.949350 0.000000 0.000000 
#    y 0.000000 2.332390 0.000000 
#    z 0.000000 0.000000 1.824150 
# 
# From -- ./inp_files/6339.got.cif
#   From: 2010.05.17/outbox.cif.g08.bks.cpg/sg73_4_cif.got.tgz:6339.got - 2010.06.03 17:35:07.
