data_PCOD9531564
_publ_section_title
;
Structure prediction by ZEFSAII (Michael W. Deem and Ramdas Pophale) SiO2 
 PCOD9531564
Probable space group: I B C A 
;
_chemical_formula_sum "Si O2"
_cell_formula_units_Z 96
_cell_length_a 9.109370
_cell_length_b 25.131118
_cell_length_c 18.395745
_cell_angle_alpha 90.000000
_cell_angle_beta 90.000000
_cell_angle_gamma 90.000000
_cell_volume 4211.313112
_symmetry_space_group_name_H-M "I B C A "
_symmetry_group_IT_number 73
_symmetry_cell_setting 'orthorhombic'
loop_
_space_group_symop_operation_xyz
x,y,z
-x,1/2-y,z
x,-y,1/2-z
1/2-x,y,-z
-x,-y,-z
x,1/2+y,-z
-x,y,1/2+z
1/2+x,-y,z
1/2+x,1/2+y,1/2+z
1/2-x,-y,1/2+z
1/2+x,1/2-y,-z
-x,1/2+y,1/2-z
1/2-x,1/2-y,1/2-z
1/2+x,y,1/2-z
1/2-x,1/2+y,z
x,1/2-y,1/2+z
loop_
_atom_site_type_symbol
_atom_site_label
_atom_site_fract_x
_atom_site_fract_y
_atom_site_fract_z
Si Si1 0.823592 0.737130 0.172280
Si Si2 0.545785 0.972017 0.679037
Si Si3 0.094612 0.573190 0.960899
Si Si4 0.219736 0.880681 0.203994
Si Si5 0.463886 0.573042 0.889112
Si Si6 0.213143 0.343459 0.629133
O O1 0.750000 0.750000 0.250000
O O2 0.780499 0.675691 0.161067
O O3 0.744673 0.781335 0.123177
O O4 0.000000 0.750000 0.173998
O O5 0.441851 0.957896 0.611987
O O6 0.639511 0.919800 0.700151
O O7 0.478176 0.000000 0.750000
O O8 0.626808 0.023225 0.643542
O O9 0.101014 0.633293 0.929647
O O10 0.250000 0.560492 0.000000
O O11 0.985521 0.564324 0.027859
O O12 0.181945 0.863013 0.287337
O O13 0.096039 0.914103 0.163836
O O14 0.362489 0.624988 0.888394
#
# Coordination Sequence:
#
# PCOD9531564 Si02
#       6
#    16  16  16  16  16  16
#     4  10  21  40  70 103 140 178 237 305 359 419
#     4  12  25  43  70 105 139 181 241 299 348 435
#     4  10  25  45  68  96 140 191 227 282 365 429
#     4  11  24  40  70 105 136 178 240 300 357 416
#     4  11  23  42  67  95 141 184 228 285 358 424
#     4  10  21  42  69  98 132 181 231 289 352 416
#
# _framework density 22.795741
#
# number of rings (size 3 to 8) (size 9 to 14) (size 15 to 20)
#    0.000    1.333    3.333    1.500    4.667    2.667 
#    0.000    0.000   18.333    0.000    0.000    0.000 
#    0.000    0.000    0.000    0.000    0.000    0.000 
#
# Total GULP energy -267415.158161 kJ/mol
# GULP energy per Si atom -5571.149128 kJ/mol
# Density = 2.274386 g / cm^3
# Si number density = 22.795741 Si / 1000 Ang^3
#
#
#
# Elastic Constant Matrix: (Units=GPa)
#
#
# Indices 1 2 3 4 5 6 
#
# 1 47.3516 32.7715 33.1434 0.0000 0.0000 0.0000
# 2 32.7715 187.6387 57.3733 0.0000 0.0000 0.0000
# 3 33.1434 57.3733 139.7507 0.0000 0.0000 0.0000
# 4 0.0000 0.0000 0.0000 33.7575 0.0000 0.0000
# 5 0.0000 0.0000 0.0000 0.0000 21.1518 0.0000
# 6 0.0000 0.0000 0.0000 0.0000 0.0000 27.3094
#
#
#
# Elastic Compliance Matrix: (Units=1/GPa)
#
#
# Indices 1 2 3 4 5 6 
#
# 1 0.026844 -0.003135 -0.005079 0.000000 0.000000 0.000000
# 2 -0.003135 0.006461 -0.001909 0.000000 0.000000 0.000000
# 3 -0.005079 -0.001909 0.009144 0.000000 0.000000 0.000000
# 4 0.000000 0.000000 0.000000 0.029623 0.000000 0.000000
# 5 0.000000 0.000000 0.000000 0.000000 0.047277 0.000000
# 6 0.000000 0.000000 0.000000 0.000000 0.000000 0.036617
#
#
# Mechanical properties :
#
#
# Convention : Reuss Voigt Hill
#
# Bulk Modulus (GPa) = 45.04162 69.03526 57.03844
# Shear Modulus (GPa) = 27.23126 33.20727 30.21926
#
# Velocity S-wave (km/s) = 3.46001 3.82086 3.64490
# Velocity P-wave (km/s) = 5.98030 7.05799 6.54138
#
# Compressibility (1/GPa) = 0.02220169
#
# Stress axis : x y z
#
# Youngs Moduli (GPa) = 37.25287 154.78408 109.36393
#
# Poissons Ratio (x) = 0.48529 0.55547
# Poissons Ratio (y) = 0.11680 0.20875
# Poissons Ratio (z) = 0.18921 0.29545
#
# Static dielectric constant tensor:
#      x y z
#    x 1.916970 0.000000 0.000000 
#    y 0.000000 1.943130 0.000000 
#    z 0.000000 0.000000 2.088110 
# 
# From -- ./inp_files/21351.got.cif
#   From: 2010.05.17/outbox.cif.g08.bks.cpg/sg73_11_cif.got.tgz:21351.got - 2010.06.03 17:35:07.
