data_PCOD9531622
_publ_section_title
;
Structure prediction by ZEFSAII (Michael W. Deem and Ramdas Pophale) SiO2 
 PCOD9531622
Probable space group: I B C A 
;
_chemical_formula_sum "Si O2"
_cell_formula_units_Z 56
_cell_length_a 37.621990
_cell_length_b 5.231119
_cell_length_c 13.008424
_cell_angle_alpha 90.000000
_cell_angle_beta 90.000000
_cell_angle_gamma 90.000000
_cell_volume 2560.124273
_symmetry_space_group_name_H-M "I B C A "
_symmetry_group_IT_number 73
_symmetry_cell_setting 'orthorhombic'
loop_
_space_group_symop_operation_xyz
x,y,z
-x,1/2-y,z
x,-y,1/2-z
1/2-x,y,-z
-x,-y,-z
x,1/2+y,-z
-x,y,1/2+z
1/2+x,-y,z
1/2+x,1/2+y,1/2+z
1/2-x,-y,1/2+z
1/2+x,1/2-y,-z
-x,1/2+y,1/2-z
1/2-x,1/2-y,1/2-z
1/2+x,y,1/2-z
1/2-x,1/2+y,z
x,1/2-y,1/2+z
loop_
_atom_site_type_symbol
_atom_site_label
_atom_site_fract_x
_atom_site_fract_y
_atom_site_fract_z
Si Si1 0.927486 0.658908 0.934055
Si Si2 0.735781 0.568440 0.883681
Si Si3 0.500000 0.250000 0.817605
Si Si4 0.328382 0.500000 0.250000
Si Si5 0.875462 0.000000 0.250000
O O1 0.900332 0.581405 0.844793
O O2 0.967020 0.657508 0.886356
O O3 0.922748 0.443537 0.021388
O O4 0.762303 0.354213 0.842148
O O5 0.697391 0.465557 0.849838
O O6 0.750000 0.604948 0.000000
O O7 0.510577 0.500000 0.750000
O O8 0.351550 0.750773 0.270146
#
# Coordination Sequence:
#
# PCOD9531622 Si02
#       5
#    16  16   8   8   8
#     4  12  26  49  74 109 150 198 253 307 368 433
#     4  10  21  41  67  99 131 171 236 298 347 425
#     4  12  24  44  82 108 148 200 254 316 366 424
#     4  12  24  45  71 100 144 192 230 296 384 432
#     4  12  28  49  69 108 154 194 240 300 370 470
#
# _framework density 21.873940000000001
#
# number of rings (size 3 to 8) (size 9 to 14) (size 15 to 20)
#    0.000    0.571    1.429    6.857    2.000    0.000 
#   30.857    0.000    0.000    0.000    0.000    0.000 
#    0.000    0.000    0.000    0.000    0.000    0.000 
#
# Total GULP energy -156264.199050 kJ/mol
# GULP energy per Si atom -5580.864252 kJ/mol
# Density = 2.182415 g / cm^3
# Si number density = 21.873940 Si / 1000 Ang^3
#
#
#
# Elastic Constant Matrix: (Units=GPa)
#
#
# Indices 1 2 3 4 5 6 
#
# 1 129.0958 28.2615 37.6076 0.0000 0.0000 0.0000
# 2 28.2615 149.6874 13.1783 0.0000 0.0000 0.0000
# 3 37.6076 13.1783 103.3754 0.0000 0.0000 0.0000
# 4 0.0000 0.0000 0.0000 30.1484 0.0000 0.0000
# 5 0.0000 0.0000 0.0000 0.0000 -72.9800 0.0000
# 6 0.0000 0.0000 0.0000 0.0000 0.0000 54.7546
#
#
#
# Elastic Compliance Matrix: (Units=1/GPa)
#
#
# Indices 1 2 3 4 5 6 
#
# 1 0.008953 -0.001420 -0.003076 0.000000 0.000000 0.000000
# 2 -0.001420 0.006981 -0.000374 0.000000 0.000000 0.000000
# 3 -0.003076 -0.000374 0.010840 0.000000 0.000000 0.000000
# 4 0.000000 0.000000 0.000000 0.033169 0.000000 0.000000
# 5 0.000000 0.000000 0.000000 0.000000 -0.013702 0.000000
# 6 0.000000 0.000000 0.000000 0.000000 0.000000 0.018263
#
#
# Mechanical properties :
#
#
# Convention : Reuss Voigt Hill
#
# Bulk Modulus (GPa) = 58.69837 60.02815 59.36326
# Shear Modulus (GPa) = 62.56085 22.59202 42.57643
#
# Velocity S-wave (km/s) = 5.35376 3.21725 4.41664
# Velocity P-wave (km/s) = 8.06908 6.42676 7.29429
#
# Compressibility (1/GPa) = 0.01703625
#
# Stress axis : x y z
#
# Youngs Moduli (GPa) = 111.69340 143.23580 92.24927
#
# Poissons Ratio (x) = 0.20333 0.28377
# Poissons Ratio (y) = 0.15856 0.03446
# Poissons Ratio (z) = 0.34358 0.05351
#
# Static dielectric constant tensor:
#      x y z
#    x 1.784880 0.000000 0.000000 
#    y 0.000000 1.821350 0.000000 
#    z 0.000000 0.000000 1.764830 
# 
# From -- ./inp_files/2875.got.cif
#   From: 2010.05.17/outbox.cif.g08.bks.cpg/sg73_2_cif.got.tgz:2875.got - 2010.06.03 17:35:07.
