data_PCOD9531534
_publ_section_title
;
Structure prediction by ZEFSAII (Michael W. Deem and Ramdas Pophale) SiO2 
 PCOD9531534
Probable space group: I B C A 
;
_chemical_formula_sum "Si O2"
_cell_formula_units_Z 88
_cell_length_a 14.787027
_cell_length_b 10.553674
_cell_length_c 23.885825
_cell_angle_alpha 90.000000
_cell_angle_beta 90.000000
_cell_angle_gamma 90.000000
_cell_volume 3727.561237
_symmetry_space_group_name_H-M "I B C A "
_symmetry_group_IT_number 73
_symmetry_cell_setting 'orthorhombic'
loop_
_space_group_symop_operation_xyz
x,y,z
-x,1/2-y,z
x,-y,1/2-z
1/2-x,y,-z
-x,-y,-z
x,1/2+y,-z
-x,y,1/2+z
1/2+x,-y,z
1/2+x,1/2+y,1/2+z
1/2-x,-y,1/2+z
1/2+x,1/2-y,-z
-x,1/2+y,1/2-z
1/2-x,1/2-y,1/2-z
1/2+x,y,1/2-z
1/2-x,1/2+y,z
x,1/2-y,1/2+z
loop_
_atom_site_type_symbol
_atom_site_label
_atom_site_fract_x
_atom_site_fract_y
_atom_site_fract_z
Si Si1 0.766975 0.988649 0.826026
Si Si2 0.209819 0.150321 0.056397
Si Si3 0.530913 0.462758 0.938532
Si Si4 0.430662 0.056277 0.160100
Si Si5 0.919931 0.000000 0.750000
Si Si6 0.650367 0.191405 0.109883
O O1 0.845482 0.925811 0.788175
O O2 0.800305 0.131928 0.836031
O O3 0.769169 0.926947 0.887365
O O4 0.663022 0.980796 0.810083
O O5 0.270769 0.273403 0.066255
O O6 0.101483 0.153072 0.054840
O O7 0.250000 0.089832 0.000000
O O8 0.457356 0.455641 0.888921
O O9 0.587991 0.584245 0.916663
O O10 0.500000 0.500000 0.000000
O O11 0.511987 0.063596 0.205086
O O12 0.407189 0.187277 0.128444
#
# Coordination Sequence:
#
# PCOD9531534 Si02
#       6
#    16  16  16  16   8  16
#     4  10  23  43  66  99 138 179 228 294 347 404
#     4  10  21  40  65  97 140 175 223 286 350 411
#     4  11  22  41  70 102 137 179 232 286 348 424
#     4  11  23  43  72  98 136 188 232 287 352 414
#     4  12  22  44  70  90 140 176 244 282 346 412
#     4  10  22  43  68  97 137 184 234 274 365 425
#
# _framework density 23.607928000000001
#
# number of rings (size 3 to 8) (size 9 to 14) (size 15 to 20)
#    0.000    1.455    3.636    3.273    0.000    4.364 
#    0.000   14.545    0.000    0.000    0.000    0.000 
#    0.000    0.000    0.000    0.000    0.000    0.000 
#
# Total GULP energy -245323.207819 kJ/mol
# GULP energy per Si atom -5575.527450 kJ/mol
# Density = 2.355420 g / cm^3
# Si number density = 23.607928 Si / 1000 Ang^3
#
#
#
# Elastic Constant Matrix: (Units=GPa)
#
#
# Indices 1 2 3 4 5 6 
#
# 1 181.3772 14.2548 43.2844 0.0000 0.0000 0.0000
# 2 14.2548 16.7795 2.2327 0.0000 0.0000 0.0000
# 3 43.2844 2.2327 151.0085 0.0000 0.0000 0.0000
# 4 0.0000 0.0000 0.0000 15.7710 0.0000 0.0000
# 5 0.0000 0.0000 0.0000 0.0000 53.3789 0.0000
# 6 0.0000 0.0000 0.0000 0.0000 0.0000 30.8188
#
#
#
# Elastic Compliance Matrix: (Units=1/GPa)
#
#
# Indices 1 2 3 4 5 6 
#
# 1 0.006333 -0.005149 -0.001739 0.000000 0.000000 0.000000
# 2 -0.005149 0.063900 0.000531 0.000000 0.000000 0.000000
# 3 -0.001739 0.000531 0.007113 0.000000 0.000000 0.000000
# 4 0.000000 0.000000 0.000000 0.063407 0.000000 0.000000
# 5 0.000000 0.000000 0.000000 0.000000 0.018734 0.000000
# 6 0.000000 0.000000 0.000000 0.000000 0.000000 0.032448
#
#
# Mechanical properties :
#
#
# Convention : Reuss Voigt Hill
#
# Bulk Modulus (GPa) = 15.47222 52.07877 33.77550
# Shear Modulus (GPa) = 22.10506 39.28662 30.69584
#
# Velocity S-wave (km/s) = 3.06329 4.08380 3.60979
# Velocity P-wave (km/s) = 4.36803 6.65915 5.63134
#
# Compressibility (1/GPa) = 0.06463196
#
# Stress axis : x y z
#
# Youngs Moduli (GPa) = 157.90163 15.64949 140.59167
#
# Poissons Ratio (x) = 0.08057 0.24451
# Poissons Ratio (y) = 0.81299 -0.07466
# Poissons Ratio (z) = 0.27462 -0.00831
#
# Static dielectric constant tensor:
#      x y z
#    x 2.017470 0.000000 0.000000 
#    y 0.000000 1.976460 0.000000 
#    z 0.000000 0.000000 1.976880 
# 
# From -- ./inp_files/13532.got.cif
#   From: 2010.05.17/outbox.cif.g08.bks.cpg/sg73_7_cif.got.tgz:13532.got - 2010.06.03 17:35:07.
