data_PCOD9531219
_publ_section_title
;
Structure prediction by ZEFSAII (Michael W. Deem and Ramdas Pophale) SiO2 
 PCOD9531219
Probable space group: I B C A 
;
_chemical_formula_sum "Si O2"
_cell_formula_units_Z 112
_cell_length_a 30.191930
_cell_length_b 5.396032
_cell_length_c 30.812122
_cell_angle_alpha 90.000000
_cell_angle_beta 90.000000
_cell_angle_gamma 90.000000
_cell_volume 5019.806784
_symmetry_space_group_name_H-M "I B C A "
_symmetry_group_IT_number 73
_symmetry_cell_setting 'orthorhombic'
loop_
_space_group_symop_operation_xyz
x,y,z
-x,1/2-y,z
x,-y,1/2-z
1/2-x,y,-z
-x,-y,-z
x,1/2+y,-z
-x,y,1/2+z
1/2+x,-y,z
1/2+x,1/2+y,1/2+z
1/2-x,-y,1/2+z
1/2+x,1/2-y,-z
-x,1/2+y,1/2-z
1/2-x,1/2-y,1/2-z
1/2+x,y,1/2-z
1/2-x,1/2+y,z
x,1/2-y,1/2+z
loop_
_atom_site_type_symbol
_atom_site_label
_atom_site_fract_x
_atom_site_fract_y
_atom_site_fract_z
Si Si1 0.265344 0.341161 0.186274
Si Si2 0.830859 0.827308 0.978112
Si Si3 0.028847 0.497291 0.613723
Si Si4 0.354936 0.241694 0.222517
Si Si5 0.550122 0.145882 0.204791
Si Si6 0.435991 0.117969 0.979130
Si Si7 0.729307 0.342660 0.411298
O O1 0.258161 0.606947 0.207474
O O2 0.317670 0.283958 0.185754
O O3 0.239906 0.359866 0.139884
O O4 0.883352 0.849134 0.984314
O O5 0.817589 0.753901 0.928942
O O6 0.813801 0.593846 0.006155
O O7 0.054977 0.503461 0.659240
O O8 0.056117 0.470646 0.569730
O O9 0.000000 0.250000 0.615886
O O10 0.000000 0.750000 0.610742
O O11 0.355601 0.500000 0.250000
O O12 0.405352 0.189987 0.206869
O O13 0.341565 0.000000 0.250000
O O14 0.500000 0.250000 0.202972
O O15 0.550445 0.000000 0.250000
O O16 0.453396 0.394395 0.990151
O O17 0.739428 0.618368 0.427391
#
# Coordination Sequence:
#
# PCOD9531219 Si02
#       7
#    16  16  16  16  16  16  16
#     4  10  22  40  60  88 125 164 208 255 312 376
#     4  10  21  37  58  85 117 157 208 258 310 371
#     4  11  24  40  64  98 128 166 215 261 322 396
#     4  11  24  41  66  96 124 166 216 263 325 391
#     4  10  22  43  70  98 134 172 216 277 336 394
#     4  10  22  41  63  90 128 170 210 264 321 375
#     4  10  21  36  55  81 113 152 197 244 302 362
#
# _framework density 22.311616000000001
#
# number of rings (size 3 to 8) (size 9 to 14) (size 15 to 20)
#    0.000    1.714    0.000    3.429    0.000   10.857 
#    0.000   10.000    0.000    0.000    0.000    0.000 
#    0.000    0.000    0.000    0.000    0.000    0.000 
#
# Total GULP energy -312074.185498 kJ/mol
# GULP energy per Si atom -5572.753312 kJ/mol
# Density = 2.226083 g / cm^3
# Si number density = 22.311616 Si / 1000 Ang^3
#
#
#
# Elastic Constant Matrix: (Units=GPa)
#
#
# Indices 1 2 3 4 5 6 
#
# 1 72.8914 21.1194 7.6209 0.0000 0.0000 0.0000
# 2 21.1194 169.0215 34.0983 0.0000 0.0000 0.0000
# 3 7.6209 34.0983 99.8122 0.0000 0.0000 0.0000
# 4 0.0000 0.0000 0.0000 30.7990 0.0000 0.0000
# 5 0.0000 0.0000 0.0000 0.0000 20.6892 0.0000
# 6 0.0000 0.0000 0.0000 0.0000 0.0000 20.5364
#
#
#
# Elastic Compliance Matrix: (Units=1/GPa)
#
#
# Indices 1 2 3 4 5 6 
#
# 1 0.014259 -0.001678 -0.000516 0.000000 0.000000 0.000000
# 2 -0.001678 0.006552 -0.002110 0.000000 0.000000 0.000000
# 3 -0.000516 -0.002110 0.010779 0.000000 0.000000 0.000000
# 4 0.000000 0.000000 0.000000 0.032469 0.000000 0.000000
# 5 0.000000 0.000000 0.000000 0.000000 0.048334 0.000000
# 6 0.000000 0.000000 0.000000 0.000000 0.000000 0.048694
#
#
# Mechanical properties :
#
#
# Convention : Reuss Voigt Hill
#
# Bulk Modulus (GPa) = 43.51036 51.93359 47.72198
# Shear Modulus (GPa) = 28.19211 32.99735 30.59473
#
# Velocity S-wave (km/s) = 3.55852 3.84986 3.70705
# Velocity P-wave (km/s) = 6.03553 6.56421 6.30542
#
# Compressibility (1/GPa) = 0.02298303
#
# Stress axis : x y z
#
# Youngs Moduli (GPa) = 70.13104 152.63143 92.77252
#
# Poissons Ratio (x) = 0.25606 0.04783
# Poissons Ratio (y) = 0.11766 0.19576
# Poissons Ratio (z) = 0.03616 0.32207
#
# Static dielectric constant tensor:
#      x y z
#    x 1.849750 0.000000 0.000000 
#    y 0.000000 2.111260 0.000000 
#    z 0.000000 0.000000 1.936670 
# 
# From -- ./inp_files/34924.got.cif
#   From: 2010.05.17/outbox.cif.g08.bks.cpg/sg73_18_cif.got.tgz:34924.got - 2010.06.03 17:35:07.
