data_PCOD9531107
_publ_section_title
;
Structure prediction by ZEFSAII (Michael W. Deem and Ramdas Pophale) SiO2 
 PCOD9531107
Probable space group: I B C A 
;
_chemical_formula_sum "Si O2"
_cell_formula_units_Z 104
_cell_length_a 19.759734
_cell_length_b 18.323184
_cell_length_c 13.230929
_cell_angle_alpha 90.000000
_cell_angle_beta 90.000000
_cell_angle_gamma 90.000000
_cell_volume 4790.406585
_symmetry_space_group_name_H-M "I B C A "
_symmetry_group_IT_number 73
_symmetry_cell_setting 'orthorhombic'
loop_
_space_group_symop_operation_xyz
x,y,z
-x,1/2-y,z
x,-y,1/2-z
1/2-x,y,-z
-x,-y,-z
x,1/2+y,-z
-x,y,1/2+z
1/2+x,-y,z
1/2+x,1/2+y,1/2+z
1/2-x,-y,1/2+z
1/2+x,1/2-y,-z
-x,1/2+y,1/2-z
1/2-x,1/2-y,1/2-z
1/2+x,y,1/2-z
1/2-x,1/2+y,z
x,1/2-y,1/2+z
loop_
_atom_site_type_symbol
_atom_site_label
_atom_site_fract_x
_atom_site_fract_y
_atom_site_fract_z
Si Si1 0.047512 0.310843 0.873698
Si Si2 0.750000 0.409942 0.500000
Si Si3 0.257278 0.345300 0.301612
Si Si4 0.685936 0.274540 0.613131
Si Si5 0.349891 0.564989 0.670801
Si Si6 0.392011 0.419162 0.293632
Si Si7 0.009502 0.080322 0.549038
O O1 0.109567 0.263477 0.917700
O O2 0.079315 0.366325 0.793729
O O3 0.000000 0.250000 0.825449
O O4 0.015937 0.359471 0.961683
O O5 0.705979 0.351061 0.562399
O O6 0.701373 0.452166 0.422862
O O7 0.302754 0.291765 0.231540
O O8 0.230550 0.297737 0.394567
O O9 0.193214 0.375248 0.236238
O O10 0.313319 0.406706 0.322764
O O11 0.360616 0.500000 0.750000
O O12 0.422216 0.584013 0.619267
O O13 0.398411 0.500000 0.250000
O O14 0.442519 0.407534 0.385860
O O15 0.000000 0.000000 0.500000
#
# Coordination Sequence:
#
# PCOD9531107 Si02
#       7
#    16   8  16  16  16  16  16
#     4  11  25  43  68 105 143 188 245 300 365 447
#     4  10  20  42  70  94 142 180 232 298 368 424
#     4   9  21  39  68  97 129 179 238 290 361 424
#     4   9  19  40  63  94 135 173 226 294 350 421
#     4  11  24  41  70 103 136 191 239 295 364 442
#     4  11  23  45  72 101 146 196 243 309 375 445
#     4  12  26  44  69 104 147 195 241 298 377 448
#
# _framework density 21.710056999999999
#
# number of rings (size 3 to 8) (size 9 to 14) (size 15 to 20)
#    0.000    1.538    3.077    0.923    2.154    3.077 
#    2.769    0.769    0.000    0.000    0.000    0.000 
#    0.000    0.000    0.000    0.000    0.000    0.000 
#
# Total GULP energy -289750.771622 kJ/mol
# GULP energy per Si atom -5572.130223 kJ/mol
# Density = 2.166064 g / cm^3
# Si number density = 21.710057 Si / 1000 Ang^3
#
#
#
# Elastic Constant Matrix: (Units=GPa)
#
#
# Indices 1 2 3 4 5 6 
#
# 1 100.5845 44.7261 18.3568 0.0000 0.0000 0.0000
# 2 44.7261 98.1409 35.7027 0.0000 0.0000 0.0000
# 3 18.3568 35.7027 70.7744 0.0000 0.0000 0.0000
# 4 0.0000 0.0000 0.0000 -10.5711 0.0000 0.0000
# 5 0.0000 0.0000 0.0000 0.0000 26.5611 0.0000
# 6 0.0000 0.0000 0.0000 0.0000 0.0000 36.1546
#
#
#
# Elastic Compliance Matrix: (Units=1/GPa)
#
#
# Indices 1 2 3 4 5 6 
#
# 1 0.012480 -0.005524 -0.000451 0.000000 0.000000 0.000000
# 2 -0.005524 0.014924 -0.006096 0.000000 0.000000 0.000000
# 3 -0.000451 -0.006096 0.017321 0.000000 0.000000 0.000000
# 4 0.000000 0.000000 0.000000 -0.094597 0.000000 0.000000
# 5 0.000000 0.000000 0.000000 0.000000 0.037649 0.000000
# 6 0.000000 0.000000 0.000000 0.000000 0.000000 0.027659
#
#
# Mechanical properties :
#
#
# Convention : Reuss Voigt Hill
#
# Bulk Modulus (GPa) = 48.57781 51.89678 50.23730
# Shear Modulus (GPa) = 107.66712 21.80988 64.73850
#
# Velocity S-wave (km/s) = 7.04988 3.17298 5.46666
# Velocity P-wave (km/s) = 9.41765 6.11393 7.93953
#
# Compressibility (1/GPa) = 0.02058553
#
# Stress axis : x y z
#
# Youngs Moduli (GPa) = 80.12606 67.00393 57.73190
#
# Poissons Ratio (x) = 0.37012 0.02601
# Poissons Ratio (y) = 0.44260 0.35194
# Poissons Ratio (z) = 0.03610 0.40846
#
# Static dielectric constant tensor:
#      x y z
#    x 1.875340 0.000000 0.000000 
#    y 0.000000 1.822710 0.000000 
#    z 0.000000 0.000000 1.822610 
# 
# From -- ./inp_files/18122.got.cif
#   From: 2010.05.17/outbox.cif.g08.bks.cpg/sg73_10_cif.got.tgz:18122.got - 2010.06.03 17:35:07.
