data_PCOD9531996
_publ_section_title
;
Structure prediction by ZEFSAII (Michael W. Deem and Ramdas Pophale) SiO2 
 PCOD9531996
Probable space group: I B C A 
;
_chemical_formula_sum "Si O2"
_cell_formula_units_Z 72
_cell_length_a 17.353949
_cell_length_b 20.700106
_cell_length_c 9.971959
_cell_angle_alpha 90.000000
_cell_angle_beta 90.000000
_cell_angle_gamma 90.000000
_cell_volume 3582.212709
_symmetry_space_group_name_H-M "I B C A "
_symmetry_group_IT_number 73
_symmetry_cell_setting 'orthorhombic'
loop_
_space_group_symop_operation_xyz
x,y,z
-x,1/2-y,z
x,-y,1/2-z
1/2-x,y,-z
-x,-y,-z
x,1/2+y,-z
-x,y,1/2+z
1/2+x,-y,z
1/2+x,1/2+y,1/2+z
1/2-x,-y,1/2+z
1/2+x,1/2-y,-z
-x,1/2+y,1/2-z
1/2-x,1/2-y,1/2-z
1/2+x,y,1/2-z
1/2-x,1/2+y,z
x,1/2-y,1/2+z
loop_
_atom_site_type_symbol
_atom_site_label
_atom_site_fract_x
_atom_site_fract_y
_atom_site_fract_z
Si Si1 0.673666 0.875546 0.820246
Si Si2 0.411825 0.673958 0.076138
Si Si3 0.411825 0.326042 0.923862
Si Si4 0.750000 0.000000 0.250000
Si Si5 0.173666 0.375546 0.820245
O O1 0.646483 0.845580 0.958469
O O2 0.608104 0.865553 0.709419
O O3 0.697827 0.950532 0.834709
O O4 0.750001 0.845119 0.750001
O O5 0.500000 0.662422 0.032962
O O6 0.404127 0.750000 0.106333
O O7 0.391897 0.634446 0.209420
O O8 0.353517 0.345580 0.041532
O O9 0.697826 0.950532 0.334709
#
# Coordination Sequence:
#
# PCOD9531996 Si02
#       5
#    16  16  16   8  16
#     4  10  22  40  64  82 123 157 197 242 293 338
#     4  11  23  39  60  92 124 151 191 245 300 354
#     4  11  23  39  60  92 124 151 191 245 300 354
#     4   8  24  42  60  86 120 150 206 256 268 346
#     4  10  22  40  64  82 123 157 197 242 293 338
#
# _framework density 20.099308000000001
#
# number of rings (size 3 to 8) (size 9 to 14) (size 15 to 20)
#    1.333    0.444    0.000    4.000    0.000   12.444 
#    0.000    6.667    0.000    0.000    0.000    0.000 
#    0.000    0.000    0.000    0.000    0.000    0.000 
#
# Total GULP energy -200763.585415 kJ/mol
# GULP energy per Si atom -5576.766262 kJ/mol
# Density = 2.005356 g / cm^3
# Si number density = 20.099308 Si / 1000 Ang^3
#
#
#
# Elastic Constant Matrix: (Units=GPa)
#
#
# Indices 1 2 3 4 5 6 
#
# 1 68.0931 42.3790 7.9432 0.0000 0.0000 0.0000
# 2 42.3790 93.7336 26.3303 0.0000 0.0000 0.0000
# 3 7.9432 26.3303 87.5632 0.0000 0.0000 0.0000
# 4 0.0000 0.0000 0.0000 -15.7153 0.0000 0.0000
# 5 0.0000 0.0000 0.0000 0.0000 34.2222 0.0000
# 6 0.0000 0.0000 0.0000 0.0000 0.0000 83.6056
#
#
#
# Elastic Compliance Matrix: (Units=1/GPa)
#
#
# Indices 1 2 3 4 5 6 
#
# 1 0.020518 -0.009562 0.001014 0.000000 0.000000 0.000000
# 2 -0.009562 0.016109 -0.003976 0.000000 0.000000 0.000000
# 3 0.001014 -0.003976 0.012524 0.000000 0.000000 0.000000
# 4 0.000000 0.000000 0.000000 -0.063632 0.000000 0.000000
# 5 0.000000 0.000000 0.000000 0.000000 0.029221 0.000000
# 6 0.000000 0.000000 0.000000 0.000000 0.000000 0.011961
#
#
# Mechanical properties :
#
#
# Convention : Reuss Voigt Hill
#
# Bulk Modulus (GPa) = 41.48931 44.74387 43.11659
# Shear Modulus (GPa) = 83.63588 31.93832 57.78710
#
# Velocity S-wave (km/s) = 6.45768 3.99058 5.36779
# Velocity P-wave (km/s) = 8.73437 6.59869 7.74054
#
# Compressibility (1/GPa) = 0.02410259
#
# Stress axis : x y z
#
# Youngs Moduli (GPa) = 48.73684 62.07877 79.84620
#
# Poissons Ratio (x) = 0.59357 -0.08096
# Poissons Ratio (y) = 0.46600 0.31751
# Poissons Ratio (z) = -0.04941 0.24686
#
# Static dielectric constant tensor:
#      x y z
#    x 1.762040 0.000000 0.000000 
#    y 0.000000 1.688680 0.000000 
#    z 0.000000 0.000000 1.689830 
# 
# From -- ./inp_files/11757.got.cif
#   From: 2010.05.17/outbox.cif.g08.bks.cpg/sg73_6_cif.got.tgz:11757.got - 2010.06.03 17:35:07.
