data_PCOD9531236
_publ_section_title
;
Structure prediction by ZEFSAII (Michael W. Deem and Ramdas Pophale) SiO2 
 PCOD9531236
Probable space group: I B C A 
;
_chemical_formula_sum "Si O2"
_cell_formula_units_Z 96
_cell_length_a 33.033071
_cell_length_b 27.741849
_cell_length_c 5.367063
_cell_angle_alpha 90.000000
_cell_angle_beta 90.000000
_cell_angle_gamma 90.000000
_cell_volume 4918.368309
_symmetry_space_group_name_H-M "I B C A "
_symmetry_group_IT_number 73
_symmetry_cell_setting 'orthorhombic'
loop_
_space_group_symop_operation_xyz
x,y,z
-x,1/2-y,z
x,-y,1/2-z
1/2-x,y,-z
-x,-y,-z
x,1/2+y,-z
-x,y,1/2+z
1/2+x,-y,z
1/2+x,1/2+y,1/2+z
1/2-x,-y,1/2+z
1/2+x,1/2-y,-z
-x,1/2+y,1/2-z
1/2-x,1/2-y,1/2-z
1/2+x,y,1/2-z
1/2-x,1/2+y,z
x,1/2-y,1/2+z
loop_
_atom_site_type_symbol
_atom_site_label
_atom_site_fract_x
_atom_site_fract_y
_atom_site_fract_z
Si Si1 0.534541 0.500000 0.750000
Si Si2 0.901462 0.861451 0.740965
Si Si3 0.723986 0.057095 0.750034
Si Si4 0.412116 0.000000 0.250000
Si Si5 0.452576 0.767939 0.624573
Si Si6 0.863460 0.101980 0.256253
Si Si7 0.016982 0.897629 0.247419
O O1 0.562703 0.500511 0.505922
O O2 0.505334 0.453273 0.753235
O O3 0.933462 0.816958 0.762715
O O4 0.876720 0.866934 0.486305
O O5 0.935243 0.902672 0.733238
O O6 0.875788 0.870050 0.990143
O O7 0.750000 0.065703 0.500000
O O8 0.683814 0.089120 0.749503
O O9 0.712897 0.000000 0.750000
O O10 0.750000 0.065730 0.000000
O O11 0.386211 0.049983 0.249825
O O12 0.500000 0.750000 0.598534
O O13 0.437276 0.767866 0.340885
O O14 0.001621 0.873896 0.501791
#
# Coordination Sequence:
#
# PCOD9531236 Si02
#       7
#     8  16  16   8  16  16  16
#     4  12  22  39  46  71 106 156 212 246 300 321
#     4  12  25  39  62  88 112 158 209 255 311 372
#     4  10  21  36  59  91 128 174 214 244 292 352
#     4  12  20  37  54  79 116 166 194 254 290 333
#     4  10  23  42  63  86 115 148 195 261 331 392
#     4  12  22  40  60  88 127 162 211 252 289 357
#     4  12  24  35  52  72 109 148 202 259 286 347
#
# _framework density 19.518667000000001
#
# number of rings (size 3 to 8) (size 9 to 14) (size 15 to 20)
#    0.000    0.667    4.167    4.500    4.667    0.000 
#    0.000    0.000    0.000    0.000    0.000    0.000 
#    0.000   46.667    0.000    0.000    0.000    0.000 
#
# Total GULP energy -267431.310771 kJ/mol
# GULP energy per Si atom -5571.485641 kJ/mol
# Density = 1.947424 g / cm^3
# Si number density = 19.518667 Si / 1000 Ang^3
#
#
#
# Elastic Constant Matrix: (Units=GPa)
#
#
# Indices 1 2 3 4 5 6 
#
# 1 116.2347 24.8832 67.8610 0.0000 0.0000 0.0000
# 2 24.8832 51.2716 6.3122 0.0000 0.0000 0.0000
# 3 67.8610 6.3122 186.3268 0.0000 0.0000 0.0000
# 4 0.0000 0.0000 0.0000 24.0835 0.0000 0.0000
# 5 0.0000 0.0000 0.0000 0.0000 19.5573 0.0000
# 6 0.0000 0.0000 0.0000 0.0000 0.0000 28.4989
#
#
#
# Elastic Compliance Matrix: (Units=1/GPa)
#
#
# Indices 1 2 3 4 5 6 
#
# 1 0.012265 -0.005425 -0.004283 0.000000 0.000000 0.000000
# 2 -0.005425 0.021985 0.001231 0.000000 0.000000 0.000000
# 3 -0.004283 0.001231 0.006885 0.000000 0.000000 0.000000
# 4 0.000000 0.000000 0.000000 0.041522 0.000000 0.000000
# 5 0.000000 0.000000 0.000000 0.000000 0.051132 0.000000
# 6 0.000000 0.000000 0.000000 0.000000 0.000000 0.035089
#
#
# Mechanical properties :
#
#
# Convention : Reuss Voigt Hill
#
# Bulk Modulus (GPa) = 41.35476 61.32731 51.34103
# Shear Modulus (GPa) = 25.78722 31.41306 28.60014
#
# Velocity S-wave (km/s) = 3.63872 4.01607 3.83204
# Velocity P-wave (km/s) = 6.23594 7.27964 6.77791
#
# Compressibility (1/GPa) = 0.02418101
#
# Stress axis : x y z
#
# Youngs Moduli (GPa) = 81.52983 45.48466 145.23876
#
# Poissons Ratio (x) = 0.24677 0.62211
# Poissons Ratio (y) = 0.44233 -0.17881
# Poissons Ratio (z) = 0.34922 -0.05600
#
# Static dielectric constant tensor:
#      x y z
#    x 1.673650 0.000000 0.000000 
#    y 0.000000 1.905720 0.000000 
#    z 0.000000 0.000000 1.770670 
# 
# From -- ./inp_files/3232.got.cif
#   From: 2010.05.17/outbox.cif.g08.bks.cpg/sg73_2_cif.got.tgz:3232.got - 2010.06.03 17:35:07.
