data_PCOD9531802
_publ_section_title
;
Structure prediction by ZEFSAII (Michael W. Deem and Ramdas Pophale) SiO2 
 PCOD9531802
Probable space group: I B C A 
;
_chemical_formula_sum "Si O2"
_cell_formula_units_Z 112
_cell_length_a 14.339159
_cell_length_b 14.406181
_cell_length_c 27.038982
_cell_angle_alpha 90.000000
_cell_angle_beta 90.000000
_cell_angle_gamma 90.000000
_cell_volume 5585.510648
_symmetry_space_group_name_H-M "I B C A "
_symmetry_group_IT_number 73
_symmetry_cell_setting 'orthorhombic'
loop_
_space_group_symop_operation_xyz
x,y,z
-x,1/2-y,z
x,-y,1/2-z
1/2-x,y,-z
-x,-y,-z
x,1/2+y,-z
-x,y,1/2+z
1/2+x,-y,z
1/2+x,1/2+y,1/2+z
1/2-x,-y,1/2+z
1/2+x,1/2-y,-z
-x,1/2+y,1/2-z
1/2-x,1/2-y,1/2-z
1/2+x,y,1/2-z
1/2-x,1/2+y,z
x,1/2-y,1/2+z
loop_
_atom_site_type_symbol
_atom_site_label
_atom_site_fract_x
_atom_site_fract_y
_atom_site_fract_z
Si Si1 0.594565 0.139401 0.305280
Si Si2 0.117702 0.860634 0.804337
Si Si3 0.299266 0.226849 0.449893
Si Si4 0.831151 0.902768 0.903401
Si Si5 0.811956 0.547534 0.902544
Si Si6 0.414686 0.064993 0.012315
Si Si7 0.000000 0.750000 0.492080
Si Si8 0.737051 0.000000 0.250000
O O1 0.627822 0.247724 0.300982
O O2 0.489016 0.125695 0.286275
O O3 0.588820 0.116824 0.364146
O O4 0.666924 0.067890 0.280674
O O5 0.130415 0.898523 0.860757
O O6 0.193109 0.924689 0.775932
O O7 0.250000 0.256680 0.500000
O O8 0.279660 0.304507 0.409541
O O9 0.262856 0.127593 0.434404
O O10 0.411005 0.218414 0.459319
O O11 0.766726 0.981516 0.880991
O O12 0.859573 0.926216 0.959966
O O13 0.863721 0.481309 0.941680
O O14 0.457830 0.165812 0.023041
O O15 0.500000 0.000000 0.000000
#
# Coordination Sequence:
#
# PCOD9531802 Si02
#       8
#    16  16  16  16  16  16   8   8
#     4  11  24  44  73 102 128 171 219 267 339 411
#     4  11  25  44  74  99 131 170 217 270 335 413
#     4  11  22  37  59  85 127 172 221 260 312 366
#     4  11  22  38  59  92 129 170 220 264 310 383
#     4  12  22  39  62  93 128 177 215 264 319 385
#     4  11  21  35  57  87 130 172 219 262 313 371
#     4  10  22  36  56  84 118 178 216 268 308 364
#     4  12  24  50  72 102 130 158 214 288 350 394
#
# _framework density 20.051881000000002
#
# number of rings (size 3 to 8) (size 9 to 14) (size 15 to 20)
#    0.000    0.857    4.286    4.714    2.000    0.000 
#    0.000    0.000    0.000    1.714    0.000    0.000 
#    0.000    0.000    0.000    0.000    0.000    0.000 
#
# Total GULP energy -312047.887789 kJ/mol
# GULP energy per Si atom -5572.283711 kJ/mol
# Density = 2.000624 g / cm^3
# Si number density = 20.051881 Si / 1000 Ang^3
#
#
#
# Elastic Constant Matrix: (Units=GPa)
#
#
# Indices 1 2 3 4 5 6 
#
# 1 97.4393 56.8948 39.9563 0.0000 0.0000 0.0000
# 2 56.8948 159.7599 41.9137 0.0000 0.0000 0.0000
# 3 39.9563 41.9137 76.3467 0.0000 0.0000 0.0000
# 4 0.0000 0.0000 0.0000 24.4897 0.0000 0.0000
# 5 0.0000 0.0000 0.0000 0.0000 23.5824 0.0000
# 6 0.0000 0.0000 0.0000 0.0000 0.0000 40.5028
#
#
#
# Elastic Compliance Matrix: (Units=1/GPa)
#
#
# Indices 1 2 3 4 5 6 
#
# 1 0.014795 -0.003782 -0.005667 0.000000 0.000000 0.000000
# 2 -0.003782 0.008280 -0.002566 0.000000 0.000000 0.000000
# 3 -0.005667 -0.002566 0.017472 0.000000 0.000000 0.000000
# 4 0.000000 0.000000 0.000000 0.040833 0.000000 0.000000
# 5 0.000000 0.000000 0.000000 0.000000 0.042405 0.000000
# 6 0.000000 0.000000 0.000000 0.000000 0.000000 0.024690
#
#
# Mechanical properties :
#
#
# Convention : Reuss Voigt Hill
#
# Bulk Modulus (GPa) = 60.54216 67.89727 64.21971
# Shear Modulus (GPa) = 28.08835 30.70039 29.39437
#
# Velocity S-wave (km/s) = 3.74676 3.91711 3.83288
# Velocity P-wave (km/s) = 6.99828 7.37513 7.18918
#
# Compressibility (1/GPa) = 0.01651742
#
# Stress axis : x y z
#
# Youngs Moduli (GPa) = 67.59095 120.77982 57.23302
#
# Poissons Ratio (x) = 0.45682 0.32431
# Poissons Ratio (y) = 0.25564 0.14686
# Poissons Ratio (z) = 0.38301 0.30992
#
# Static dielectric constant tensor:
#      x y z
#    x 1.732090 0.000000 0.000000 
#    y 0.000000 1.716130 0.000000 
#    z 0.000000 0.000000 1.762270 
# 
# From -- ./inp_files/32209.got.cif
#   From: 2010.05.17/outbox.cif.g08.bks.cpg/sg73_17_cif.got.tgz:32209.got - 2010.06.03 17:35:07.
