data_PCOD9531377
_publ_section_title
;
Structure prediction by ZEFSAII (Michael W. Deem and Ramdas Pophale) SiO2 
 PCOD9531377
Probable space group: I B C A 
;
_chemical_formula_sum "Si O2"
_cell_formula_units_Z 64
_cell_length_a 22.132774
_cell_length_b 14.672597
_cell_length_c 7.900900
_cell_angle_alpha 90.000000
_cell_angle_beta 90.000000
_cell_angle_gamma 90.000000
_cell_volume 2565.779931
_symmetry_space_group_name_H-M "I B C A "
_symmetry_group_IT_number 73
_symmetry_cell_setting 'orthorhombic'
loop_
_space_group_symop_operation_xyz
x,y,z
-x,1/2-y,z
x,-y,1/2-z
1/2-x,y,-z
-x,-y,-z
x,1/2+y,-z
-x,y,1/2+z
1/2+x,-y,z
1/2+x,1/2+y,1/2+z
1/2-x,-y,1/2+z
1/2+x,1/2-y,-z
-x,1/2+y,1/2-z
1/2-x,1/2-y,1/2-z
1/2+x,y,1/2-z
1/2-x,1/2+y,z
x,1/2-y,1/2+z
loop_
_atom_site_type_symbol
_atom_site_label
_atom_site_fract_x
_atom_site_fract_y
_atom_site_fract_z
Si Si1 0.374000 0.298857 0.503963
Si Si2 0.565891 0.029032 0.441990
Si Si3 0.275533 0.090635 0.816554
Si Si4 0.649908 0.614177 0.131737
O O1 0.428744 0.360744 0.439376
O O2 0.319352 0.329013 0.376128
O O3 0.371177 0.339438 0.692964
O O4 0.368094 0.190824 0.504897
O O5 0.615852 0.977035 0.564118
O O6 0.571658 0.000000 0.250000
O O7 0.500000 0.000000 0.500000
O O8 0.221253 0.106547 0.682462
O O9 0.307198 0.000000 0.750000
O O10 0.250000 0.065369 0.000000
#
# Coordination Sequence:
#
# PCOD9531377 Si02
#       4
#    16  16  16  16
#     4  11  23  41  66 100 137 182 231 287 351 421
#     4  12  26  47  72  99 135 183 236 298 363 431
#     4  10  21  38  64  97 142 189 233 287 351 419
#     4  11  23  42  67 100 139 180 232 288 350 423
#
# _framework density 24.943681999999999
#
# number of rings (size 3 to 8) (size 9 to 14) (size 15 to 20)
#    0.000    1.000    0.000    8.250    0.000    3.000 
#    0.000    5.000    0.000    0.000    0.000    0.000 
#    0.000    0.000    0.000    0.000    0.000    0.000 
#
# Total GULP energy -178441.361309 kJ/mol
# GULP energy per Si atom -5576.292541 kJ/mol
# Density = 2.488691 g / cm^3
# Si number density = 24.943682 Si / 1000 Ang^3
#
#
#
# Elastic Constant Matrix: (Units=GPa)
#
#
# Indices 1 2 3 4 5 6 
#
# 1 123.6540 -1.2170 32.5516 0.0000 0.0000 0.0000
# 2 -1.2170 103.9957 24.3424 0.0000 0.0000 0.0000
# 3 32.5516 24.3424 155.3229 0.0000 0.0000 0.0000
# 4 0.0000 0.0000 0.0000 48.9895 0.0000 0.0000
# 5 0.0000 0.0000 0.0000 0.0000 36.3374 0.0000
# 6 0.0000 0.0000 0.0000 0.0000 0.0000 23.2128
#
#
#
# Elastic Compliance Matrix: (Units=1/GPa)
#
#
# Indices 1 2 3 4 5 6 
#
# 1 0.008589 0.000542 -0.001885 0.000000 0.000000 0.000000
# 2 0.000542 0.010016 -0.001683 0.000000 0.000000 0.000000
# 3 -0.001885 -0.001683 0.007097 0.000000 0.000000 0.000000
# 4 0.000000 0.000000 0.000000 0.020413 0.000000 0.000000
# 5 0.000000 0.000000 0.000000 0.000000 0.027520 0.000000
# 6 0.000000 0.000000 0.000000 0.000000 0.000000 0.043080
#
#
# Mechanical properties :
#
#
# Convention : Reuss Voigt Hill
#
# Bulk Modulus (GPa) = 50.89341 54.92519 52.90930
# Shear Modulus (GPa) = 38.66489 43.52765 41.09627
#
# Velocity S-wave (km/s) = 3.94139 4.18190 4.06342
# Velocity P-wave (km/s) = 6.41563 6.73685 6.57820
#
# Compressibility (1/GPa) = 0.01964891
#
# Stress axis : x y z
#
# Youngs Moduli (GPa) = 116.43352 99.83903 140.90431
#
# Poissons Ratio (x) = -0.05408 0.26558
# Poissons Ratio (y) = -0.06307 0.23718
# Poissons Ratio (z) = 0.21946 0.16806
#
# Static dielectric constant tensor:
#      x y z
#    x 2.161380 0.000000 0.000000 
#    y 0.000000 2.016050 0.000000 
#    z 0.000000 0.000000 2.028190 
# 
# From -- ./inp_files/6841.got.cif
#   From: 2010.05.17/outbox.cif.g08.bks.cpg/sg73_4_cif.got.tgz:6841.got - 2010.06.03 17:35:07.
