data_PCOD9531261
_publ_section_title
;
Structure prediction by ZEFSAII (Michael W. Deem and Ramdas Pophale) SiO2 
 PCOD9531261
Probable space group: I B C A 
;
_chemical_formula_sum "Si O2"
_cell_formula_units_Z 104
_cell_length_a 8.412175
_cell_length_b 19.064325
_cell_length_c 24.701823
_cell_angle_alpha 90.000000
_cell_angle_beta 90.000000
_cell_angle_gamma 90.000000
_cell_volume 3961.491581
_symmetry_space_group_name_H-M "I B C A "
_symmetry_group_IT_number 73
_symmetry_cell_setting 'orthorhombic'
loop_
_space_group_symop_operation_xyz
x,y,z
-x,1/2-y,z
x,-y,1/2-z
1/2-x,y,-z
-x,-y,-z
x,1/2+y,-z
-x,y,1/2+z
1/2+x,-y,z
1/2+x,1/2+y,1/2+z
1/2-x,-y,1/2+z
1/2+x,1/2-y,-z
-x,1/2+y,1/2-z
1/2-x,1/2-y,1/2-z
1/2+x,y,1/2-z
1/2-x,1/2+y,z
x,1/2-y,1/2+z
loop_
_atom_site_type_symbol
_atom_site_label
_atom_site_fract_x
_atom_site_fract_y
_atom_site_fract_z
Si Si1 0.842739 0.197746 0.432266
Si Si2 0.532364 0.160159 0.230882
Si Si3 0.500000 0.250000 0.418091
Si Si4 0.237797 0.531529 0.373896
Si Si5 0.007911 0.553101 0.049764
Si Si6 0.821653 0.172454 0.176074
Si Si7 0.740593 0.391966 0.174516
O O1 0.663965 0.227059 0.449097
O O2 0.791276 0.165243 0.372812
O O3 0.000000 0.250000 0.431852
O O4 0.903426 0.126100 0.461273
O O5 0.638921 0.195171 0.184099
O O6 0.401279 0.197231 0.268383
O O7 0.433642 0.099413 0.200666
O O8 0.646603 0.133921 0.278122
O O9 0.577829 0.305297 0.375901
O O10 0.341515 0.568663 0.420780
O O11 0.191016 0.588822 0.330105
O O12 0.314542 0.463483 0.346693
O O13 0.100070 0.492183 0.405935
O O14 0.000000 0.500000 0.000000
#
# Coordination Sequence:
#
# PCOD9531261 Si02
#       7
#    16  16   8  16  16  16  16
#     4  11  24  47  75 110 154 202 250 312 395 475
#     4  10  21  37  57 100 145 191 259 308 363 425
#     4  12  24  44  72 102 154 208 252 304 392 460
#     4  11  23  42  71 101 143 189 248 311 402 462
#     4  11  25  46  78 112 144 186 251 328 400 484
#     4  11  23  39  61  99 142 199 250 307 368 445
#     4  10  21  39  61 101 142 200 248 313 368 444
#
# _framework density 26.252737
#
# number of rings (size 3 to 8) (size 9 to 14) (size 15 to 20)
#    0.000    1.231    1.538    5.077    2.154    4.308 
#    5.538    0.000    1.692    3.692    0.000    0.000 
#    0.000    0.000    0.000    0.000    0.000    0.000 
#
# Total GULP energy -290224.533011 kJ/mol
# GULP energy per Si atom -5581.241019 kJ/mol
# Density = 2.619298 g / cm^3
# Si number density = 26.252737 Si / 1000 Ang^3
#
#
#
# Elastic Constant Matrix: (Units=GPa)
#
#
# Indices 1 2 3 4 5 6 
#
# 1 186.5586 68.4986 34.9013 0.0000 0.0000 0.0000
# 2 68.4986 147.0384 45.4811 0.0000 0.0000 0.0000
# 3 34.9013 45.4811 72.6313 0.0000 0.0000 0.0000
# 4 0.0000 0.0000 0.0000 43.9482 0.0000 0.0000
# 5 0.0000 0.0000 0.0000 0.0000 41.9858 0.0000
# 6 0.0000 0.0000 0.0000 0.0000 0.0000 38.2506
#
#
#
# Elastic Compliance Matrix: (Units=1/GPa)
#
#
# Indices 1 2 3 4 5 6 
#
# 1 0.006603 -0.002598 -0.001546 0.000000 0.000000 0.000000
# 2 -0.002598 0.009457 -0.004673 0.000000 0.000000 0.000000
# 3 -0.001546 -0.004673 0.017438 0.000000 0.000000 0.000000
# 4 0.000000 0.000000 0.000000 0.022754 0.000000 0.000000
# 5 0.000000 0.000000 0.000000 0.000000 0.023818 0.000000
# 6 0.000000 0.000000 0.000000 0.000000 0.000000 0.026143
#
#
# Mechanical properties :
#
#
# Convention : Reuss Voigt Hill
#
# Bulk Modulus (GPa) = 63.04144 78.22114 70.63129
# Shear Modulus (GPa) = 38.71902 41.99342 40.35622
#
# Velocity S-wave (km/s) = 3.84455 4.00382 3.92499
# Velocity P-wave (km/s) = 6.61611 7.15781 6.89228
#
# Compressibility (1/GPa) = 0.01586258
#
# Stress axis : x y z
#
# Youngs Moduli (GPa) = 151.43684 105.74467 57.34722
#
# Poissons Ratio (x) = 0.27472 0.08868
# Poissons Ratio (y) = 0.39342 0.26800
# Poissons Ratio (z) = 0.23417 0.49418
#
# Static dielectric constant tensor:
#      x y z
#    x 2.207950 0.000000 0.000000 
#    y 0.000000 2.136490 0.000000 
#    z 0.000000 0.000000 2.126350 
# 
# From -- ./inp_files/31239.got.cif
#   From: 2010.05.17/outbox.cif.g08.bks.cpg/sg73_16_cif.got.tgz:31239.got - 2010.06.03 17:35:07.
