data_PCOD9531833
_publ_section_title
;
Structure prediction by ZEFSAII (Michael W. Deem and Ramdas Pophale) SiO2 
 PCOD9531833
Probable space group: I B C A 
;
_chemical_formula_sum "Si O2"
_cell_formula_units_Z 72
_cell_length_a 29.096979
_cell_length_b 13.442010
_cell_length_c 8.065185
_cell_angle_alpha 90.000000
_cell_angle_beta 90.000000
_cell_angle_gamma 90.000000
_cell_volume 3154.470341
_symmetry_space_group_name_H-M "I B C A "
_symmetry_group_IT_number 73
_symmetry_cell_setting 'orthorhombic'
loop_
_space_group_symop_operation_xyz
x,y,z
-x,1/2-y,z
x,-y,1/2-z
1/2-x,y,-z
-x,-y,-z
x,1/2+y,-z
-x,y,1/2+z
1/2+x,-y,z
1/2+x,1/2+y,1/2+z
1/2-x,-y,1/2+z
1/2+x,1/2-y,-z
-x,1/2+y,1/2-z
1/2-x,1/2-y,1/2-z
1/2+x,y,1/2-z
1/2-x,1/2+y,z
x,1/2-y,1/2+z
loop_
_atom_site_type_symbol
_atom_site_label
_atom_site_fract_x
_atom_site_fract_y
_atom_site_fract_z
Si Si1 0.399607 0.385001 0.413663
Si Si2 0.750000 0.761662 0.500000
Si Si3 0.952573 0.046790 0.069189
Si Si4 0.551843 0.268962 0.210392
Si Si5 0.200356 0.116481 0.249304
O O1 0.412490 0.497890 0.459609
O O2 0.431610 0.337650 0.273060
O O3 0.413694 0.321867 0.579755
O O4 0.349059 0.375761 0.339545
O O5 0.790666 0.833205 0.570594
O O6 0.732451 0.685005 0.637009
O O7 0.950615 0.161324 0.123441
O O8 0.947991 0.000000 0.250000
O O9 0.000000 0.000000 0.000000
O O10 0.500000 0.250000 0.151045
O O11 0.212926 0.000000 0.250000
#
# Coordination Sequence:
#
# PCOD9531833 Si02
#       5
#    16   8  16  16  16
#     4  11  24  39  62  98 133 178 238 294 351 422
#     4  10  24  48  78 108 140 178 234 294 390 476
#     4  10  22  37  56  86 127 181 237 288 336 403
#     4  11  22  39  62  90 135 193 249 296 347 408
#     4  11  24  46  74 109 142 182 229 302 381 459
#
# _framework density 22.824750999999999
#
# number of rings (size 3 to 8) (size 9 to 14) (size 15 to 20)
#    0.000    1.333    2.222    2.667    3.111    4.444 
#    0.000   10.000    0.000    0.000    0.000    0.000 
#    0.000    0.000    0.000    0.000    0.000    0.000 
#
# Total GULP energy -200945.897120 kJ/mol
# GULP energy per Si atom -5581.830476 kJ/mol
# Density = 2.277280 g / cm^3
# Si number density = 22.824751 Si / 1000 Ang^3
#
#
#
# Elastic Constant Matrix: (Units=GPa)
#
#
# Indices 1 2 3 4 5 6 
#
# 1 100.1413 40.2958 37.0698 0.0000 0.0000 0.0000
# 2 40.2958 160.5929 64.5685 0.0000 0.0000 0.0000
# 3 37.0698 64.5685 99.1407 0.0000 0.0000 0.0000
# 4 0.0000 0.0000 0.0000 58.8885 0.0000 0.0000
# 5 0.0000 0.0000 0.0000 0.0000 99.1306 0.0000
# 6 0.0000 0.0000 0.0000 0.0000 0.0000 28.3835
#
#
#
# Elastic Compliance Matrix: (Units=1/GPa)
#
#
# Indices 1 2 3 4 5 6 
#
# 1 0.011894 -0.001621 -0.003392 0.000000 0.000000 0.000000
# 2 -0.001621 0.008657 -0.005032 0.000000 0.000000 0.000000
# 3 -0.003392 -0.005032 0.014632 0.000000 0.000000 0.000000
# 4 0.000000 0.000000 0.000000 0.016981 0.000000 0.000000
# 5 0.000000 0.000000 0.000000 0.000000 0.010088 0.000000
# 6 0.000000 0.000000 0.000000 0.000000 0.000000 0.035232
#
#
# Mechanical properties :
#
#
# Convention : Reuss Voigt Hill
#
# Bulk Modulus (GPa) = 66.25234 71.52703 68.88969
# Shear Modulus (GPa) = 40.78210 51.80993 46.29601
#
# Velocity S-wave (km/s) = 4.23158 4.76952 4.50858
# Velocity P-wave (km/s) = 7.27768 7.85726 7.57302
#
# Compressibility (1/GPa) = 0.01509381
#
# Stress axis : x y z
#
# Youngs Moduli (GPa) = 84.07939 115.51658 68.34298
#
# Poissons Ratio (x) = 0.18721 0.23179
# Poissons Ratio (y) = 0.13627 0.34390
# Poissons Ratio (z) = 0.28516 0.58128
#
# Static dielectric constant tensor:
#      x y z
#    x 1.830680 0.000000 0.000000 
#    y 0.000000 1.983080 0.000000 
#    z 0.000000 0.000000 1.983080 
# 
# From -- ./inp_files/7610.got.cif
#   From: 2010.05.17/outbox.cif.g08.bks.cpg/sg73_4_cif.got.tgz:7610.got - 2010.06.03 17:35:07.
