data_PCOD9531319
_publ_section_title
;
Structure prediction by ZEFSAII (Michael W. Deem and Ramdas Pophale) SiO2 
 PCOD9531319
Probable space group: I B C A 
;
_chemical_formula_sum "Si O2"
_cell_formula_units_Z 80
_cell_length_a 23.451361
_cell_length_b 10.388989
_cell_length_c 14.977334
_cell_angle_alpha 90.000000
_cell_angle_beta 90.000000
_cell_angle_gamma 90.000000
_cell_volume 3649.016720
_symmetry_space_group_name_H-M "I B C A "
_symmetry_group_IT_number 73
_symmetry_cell_setting 'orthorhombic'
loop_
_space_group_symop_operation_xyz
x,y,z
-x,1/2-y,z
x,-y,1/2-z
1/2-x,y,-z
-x,-y,-z
x,1/2+y,-z
-x,y,1/2+z
1/2+x,-y,z
1/2+x,1/2+y,1/2+z
1/2-x,-y,1/2+z
1/2+x,1/2-y,-z
-x,1/2+y,1/2-z
1/2-x,1/2-y,1/2-z
1/2+x,y,1/2-z
1/2-x,1/2+y,z
x,1/2-y,1/2+z
loop_
_atom_site_type_symbol
_atom_site_label
_atom_site_fract_x
_atom_site_fract_y
_atom_site_fract_z
Si Si1 0.091761 0.607419 0.447635
Si Si2 0.122649 0.387801 0.584281
Si Si3 0.742517 0.775672 0.143913
Si Si4 0.197220 0.514918 0.354758
Si Si5 0.009108 0.105523 0.180139
O O1 0.114124 0.513328 0.524164
O O2 0.102656 0.757467 0.466894
O O3 0.133650 0.567255 0.366550
O O4 0.027736 0.591552 0.411051
O O5 0.184602 0.354900 0.623323
O O6 0.075914 0.405499 0.661220
O O7 0.750000 0.750000 0.250000
O O8 0.735850 0.631112 0.106382
O O9 0.790940 0.872270 0.107588
O O10 0.209566 0.500000 0.250000
O O11 0.000000 0.250000 0.214059
O O12 0.990027 0.000000 0.250000
#
# Coordination Sequence:
#
# PCOD9531319 Si02
#       5
#    16  16  16  16  16
#     4  10  21  38  57  83 117 151 194 246 303 363
#     4  10  22  38  58  85 118 155 195 249 307 365
#     4   9  19  35  55  81 111 148 193 239 288 352
#     4   9  18  34  56  79 110 149 189 237 291 351
#     4  10  22  39  60  86 116 151 198 249 303 368
#
# _framework density 21.923712999999999
#
# number of rings (size 3 to 8) (size 9 to 14) (size 15 to 20)
#    0.000    2.400    0.000    1.200    0.000    8.000 
#    0.000    4.000    0.000    0.000    0.000    0.000 
#    0.000    0.000    0.000    0.000    0.000    0.000 
#
# Total GULP energy -223000.482141 kJ/mol
# GULP energy per Si atom -5575.012054 kJ/mol
# Density = 2.187381 g / cm^3
# Si number density = 21.923713 Si / 1000 Ang^3
#
#
#
# Elastic Constant Matrix: (Units=GPa)
#
#
# Indices 1 2 3 4 5 6 
#
# 1 53.1370 20.5882 6.8009 0.0000 0.0000 0.0000
# 2 20.5882 119.8457 34.7969 0.0000 0.0000 0.0000
# 3 6.8009 34.7969 44.8887 0.0000 0.0000 0.0000
# 4 0.0000 0.0000 0.0000 33.8904 0.0000 0.0000
# 5 0.0000 0.0000 0.0000 0.0000 1.0383 0.0000
# 6 0.0000 0.0000 0.0000 0.0000 0.0000 21.8812
#
#
#
# Elastic Compliance Matrix: (Units=1/GPa)
#
#
# Indices 1 2 3 4 5 6 
#
# 1 0.020169 -0.003326 -0.000477 0.000000 0.000000 0.000000
# 2 -0.003326 0.011316 -0.008268 0.000000 0.000000 0.000000
# 3 -0.000477 -0.008268 0.028759 0.000000 0.000000 0.000000
# 4 0.000000 0.000000 0.000000 0.029507 0.000000 0.000000
# 5 0.000000 0.000000 0.000000 0.000000 0.963078 0.000000
# 6 0.000000 0.000000 0.000000 0.000000 0.000000 0.045701
#
#
# Mechanical properties :
#
#
# Convention : Reuss Voigt Hill
#
# Bulk Modulus (GPa) = 27.70017 38.02704 32.86360
# Shear Modulus (GPa) = 4.40642 21.74101 13.07372
#
# Velocity S-wave (km/s) = 1.41924 3.15249 2.44463
# Velocity P-wave (km/s) = 3.91764 5.53478 4.79487
#
# Compressibility (1/GPa) = 0.03610087
#
# Stress axis : x y z
#
# Youngs Moduli (GPa) = 49.58067 88.36974 34.77189
#
# Poissons Ratio (x) = 0.29394 0.01660
# Poissons Ratio (y) = 0.16492 0.28750
# Poissons Ratio (z) = 0.02366 0.73065
#
# Static dielectric constant tensor:
#      x y z
#    x 1.844720 0.000000 0.000000 
#    y 0.000000 1.840220 0.000000 
#    z 0.000000 0.000000 1.806760 
# 
# From -- ./inp_files/13442.got.cif
#   From: 2010.05.17/outbox.cif.g08.bks.cpg/sg73_7_cif.got.tgz:13442.got - 2010.06.03 17:35:07.
