data_PCOD9531011
_publ_section_title
;
Structure prediction by ZEFSAII (Michael W. Deem and Ramdas Pophale) SiO2 
 PCOD9531011
Probable space group: I B C A 
;
_chemical_formula_sum "Si O2"
_cell_formula_units_Z 120
_cell_length_a 22.524701
_cell_length_b 19.967488
_cell_length_c 12.294120
_cell_angle_alpha 90.000000
_cell_angle_beta 90.000000
_cell_angle_gamma 90.000000
_cell_volume 5529.424273
_symmetry_space_group_name_H-M "I B C A "
_symmetry_group_IT_number 73
_symmetry_cell_setting 'orthorhombic'
loop_
_space_group_symop_operation_xyz
x,y,z
-x,1/2-y,z
x,-y,1/2-z
1/2-x,y,-z
-x,-y,-z
x,1/2+y,-z
-x,y,1/2+z
1/2+x,-y,z
1/2+x,1/2+y,1/2+z
1/2-x,-y,1/2+z
1/2+x,1/2-y,-z
-x,1/2+y,1/2-z
1/2-x,1/2-y,1/2-z
1/2+x,y,1/2-z
1/2-x,1/2+y,z
x,1/2-y,1/2+z
loop_
_atom_site_type_symbol
_atom_site_label
_atom_site_fract_x
_atom_site_fract_y
_atom_site_fract_z
Si Si1 0.417073 0.112631 0.455978
Si Si2 0.764579 0.665909 0.611651
Si Si3 0.324097 0.075278 0.296161
Si Si4 0.750000 0.536247 0.000000
Si Si5 0.856990 0.038416 0.858205
Si Si6 0.124698 0.247112 0.427221
Si Si7 0.536274 0.182002 0.428847
Si Si8 0.643437 0.329562 0.773906
O O1 0.389092 0.093929 0.340054
O O2 0.403195 0.056962 0.547614
O O3 0.385750 0.181604 0.498235
O O4 0.486085 0.127961 0.448924
O O5 0.750000 0.626573 0.500000
O O6 0.798321 0.622891 0.702911
O O7 0.809388 0.723091 0.570527
O O8 0.702822 0.690442 0.663087
O O9 0.286753 0.077227 0.409133
O O10 0.321600 0.000000 0.250000
O O11 0.801375 0.504879 0.078111
O O12 0.838452 0.109497 0.804790
O O13 0.876712 0.000000 0.750000
O O14 0.073767 0.297476 0.464910
O O15 0.117918 0.227689 0.302578
O O16 0.500000 0.250000 0.393573
O O17 0.588213 0.154974 0.351104
#
# Coordination Sequence:
#
# PCOD9531011 Si02
#       8
#    16  16  16   8  16  16  16  16
#     4   9  23  46  68  96 134 179 235 284 343 414
#     4  12  25  40  65 104 146 171 225 291 353 418
#     4  11  25  43  70 102 135 189 228 286 348 419
#     4  10  20  40  68  92 136 174 228 274 334 422
#     4  10  21  41  66  95 130 175 221 278 345 407
#     4  10  23  42  66  98 136 176 222 282 354 418
#     4  10  22  44  66  92 130 180 231 277 338 416
#     4  11  23  41  65  99 130 179 223 278 352 414
#
# _framework density 21.702079000000001
#
# number of rings (size 3 to 8) (size 9 to 14) (size 15 to 20)
#    0.000    1.600    2.667    0.800    4.667    4.800 
#    2.400    1.333    0.000    0.000    0.000    0.000 
#    0.000    0.000    0.000    0.000    0.000    0.000 
#
# Total GULP energy -334675.389251 kJ/mol
# GULP energy per Si atom -5577.923154 kJ/mol
# Density = 2.165268 g / cm^3
# Si number density = 21.702079 Si / 1000 Ang^3
#
#
#
# Elastic Constant Matrix: (Units=GPa)
#
#
# Indices 1 2 3 4 5 6 
#
# 1 145.8105 38.7170 60.8752 0.0000 0.0000 0.0000
# 2 38.7170 29.8698 36.3555 0.0000 0.0000 0.0000
# 3 60.8752 36.3555 147.2398 0.0000 0.0000 0.0000
# 4 0.0000 0.0000 0.0000 -34.7553 0.0000 0.0000
# 5 0.0000 0.0000 0.0000 0.0000 -87.3671 0.0000
# 6 0.0000 0.0000 0.0000 0.0000 0.0000 53.4211
#
#
#
# Elastic Compliance Matrix: (Units=1/GPa)
#
#
# Indices 1 2 3 4 5 6 
#
# 1 0.010662 -0.012087 -0.001424 0.000000 0.000000 0.000000
# 2 -0.012087 0.061566 -0.010204 0.000000 0.000000 0.000000
# 3 -0.001424 -0.010204 0.009900 0.000000 0.000000 0.000000
# 4 0.000000 0.000000 0.000000 -0.028773 0.000000 0.000000
# 5 0.000000 0.000000 0.000000 0.000000 -0.011446 0.000000
# 6 0.000000 0.000000 0.000000 0.000000 0.000000 0.018719
#
#
# Mechanical properties :
#
#
# Convention : Reuss Voigt Hill
#
# Bulk Modulus (GPa) = 28.82043 66.09061 47.45552
# Shear Modulus (GPa) = 41.79753 -1.27543 20.26105
#
# Velocity S-wave (km/s) = 4.39335 -0.76745 3.05880
# Velocity P-wave (km/s) = 6.24854 5.45293 5.86424
#
# Compressibility (1/GPa) = 0.03469761
#
# Stress axis : x y z
#
# Youngs Moduli (GPa) = 93.78981 16.24278 101.01272
#
# Poissons Ratio (x) = 0.19633 0.14380
# Poissons Ratio (y) = 1.13368 1.03073
# Poissons Ratio (z) = 0.13352 0.16574
#
# Static dielectric constant tensor:
#      x y z
#    x 1.788800 0.000000 0.000000 
#    y 0.000000 1.894990 0.000000 
#    z 0.000000 0.000000 1.814980 
# 
# From -- ./inp_files/13857.got.cif
#   From: 2010.05.17/outbox.cif.g08.bks.cpg/sg73_7_cif.got.tgz:13857.got - 2010.06.03 17:35:07.
