data_PCOD9531634
_publ_section_title
;
Structure prediction by ZEFSAII (Michael W. Deem and Ramdas Pophale) SiO2 
 PCOD9531634
Probable space group: I B C A 
;
_chemical_formula_sum "Si O2"
_cell_formula_units_Z 96
_cell_length_a 20.821171
_cell_length_b 22.003994
_cell_length_c 9.031146
_cell_angle_alpha 90.000000
_cell_angle_beta 90.000000
_cell_angle_gamma 90.000000
_cell_volume 4137.609802
_symmetry_space_group_name_H-M "I B C A "
_symmetry_group_IT_number 73
_symmetry_cell_setting 'orthorhombic'
loop_
_space_group_symop_operation_xyz
x,y,z
-x,1/2-y,z
x,-y,1/2-z
1/2-x,y,-z
-x,-y,-z
x,1/2+y,-z
-x,y,1/2+z
1/2+x,-y,z
1/2+x,1/2+y,1/2+z
1/2-x,-y,1/2+z
1/2+x,1/2-y,-z
-x,1/2+y,1/2-z
1/2-x,1/2-y,1/2-z
1/2+x,y,1/2-z
1/2-x,1/2+y,z
x,1/2-y,1/2+z
loop_
_atom_site_type_symbol
_atom_site_label
_atom_site_fract_x
_atom_site_fract_y
_atom_site_fract_z
Si Si1 0.862421 0.772888 0.834388
Si Si2 0.581881 0.894979 0.205975
Si Si3 0.034958 0.625570 0.126576
Si Si4 0.177509 0.500000 0.750000
Si Si5 0.750000 0.838282 0.000000
Si Si6 0.250000 0.573156 0.500000
Si Si7 0.329648 0.862282 0.237528
Si Si8 0.500000 0.750000 0.708436
O O1 0.879393 0.834071 0.742097
O O2 0.809679 0.797332 0.947061
O O3 0.835399 0.711297 0.765514
O O4 0.934412 0.754708 0.885591
O O5 0.526285 0.912981 0.320798
O O6 0.631908 0.948063 0.183220
O O7 0.549200 0.879663 0.047187
O O8 0.101428 0.612322 0.212523
O O9 0.013371 0.691944 0.187394
O O10 0.218518 0.531297 0.623423
O O11 0.722852 0.876491 0.863477
O O12 0.196581 0.614002 0.417627
#
# Coordination Sequence:
#
# PCOD9531634 Si02
#       8
#    16  16  16   8   8   8  16   8
#     4  10  21  41  71 110 153 192 249 311 391 464
#     4  11  25  49  74 110 150 201 257 320 379 452
#     4  10  23  44  76 107 152 193 252 319 384 457
#     4  12  32  54  78 108 148 206 262 320 372 466
#     4  12  21  39  70 108 152 199 235 312 378 474
#     4  12  31  53  78 104 152 199 257 312 398 458
#     4  11  25  46  74 114 146 201 248 322 394 469
#     4   8  20  40  64 112 150 202 238 312 396 462
#
# _framework density 23.201799000000001
#
# number of rings (size 3 to 8) (size 9 to 14) (size 15 to 20)
#    0.000    1.333    1.667    2.000    4.667    6.667 
#    6.000    0.000    0.000    0.000    0.000    0.000 
#    0.000    0.000    0.000    0.000    0.000    0.000 
#
# Total GULP energy -268248.661772 kJ/mol
# GULP energy per Si atom -5588.513787 kJ/mol
# Density = 2.314899 g / cm^3
# Si number density = 23.201799 Si / 1000 Ang^3
#
#
#
# Elastic Constant Matrix: (Units=GPa)
#
#
# Indices 1 2 3 4 5 6 
#
# 1 133.0795 42.9587 63.5635 0.0000 0.0000 0.0000
# 2 42.9587 64.8405 23.7080 0.0000 0.0000 0.0000
# 3 63.5635 23.7080 111.2919 0.0000 0.0000 0.0000
# 4 0.0000 0.0000 0.0000 19.9004 0.0000 0.0000
# 5 0.0000 0.0000 0.0000 0.0000 38.1209 0.0000
# 6 0.0000 0.0000 0.0000 0.0000 0.0000 27.8115
#
#
#
# Elastic Compliance Matrix: (Units=1/GPa)
#
#
# Indices 1 2 3 4 5 6 
#
# 1 0.012150 -0.005978 -0.005666 0.000000 0.000000 0.000000
# 2 -0.005978 0.019667 -0.000775 0.000000 0.000000 0.000000
# 3 -0.005666 -0.000775 0.012387 0.000000 0.000000 0.000000
# 4 0.000000 0.000000 0.000000 0.050250 0.000000 0.000000
# 5 0.000000 0.000000 0.000000 0.000000 0.026232 0.000000
# 6 0.000000 0.000000 0.000000 0.000000 0.000000 0.035956
#
#
# Mechanical properties :
#
#
# Convention : Reuss Voigt Hill
#
# Bulk Modulus (GPa) = 51.63995 63.29691 57.46843
# Shear Modulus (GPa) = 26.60473 29.09868 27.85170
#
# Velocity S-wave (km/s) = 3.38992 3.54525 3.46845
# Velocity P-wave (km/s) = 6.13411 6.64068 6.39241
#
# Compressibility (1/GPa) = 0.01936485
#
# Stress axis : x y z
#
# Youngs Moduli (GPa) = 82.30138 50.84756 80.73214
#
# Poissons Ratio (x) = 0.30398 0.45744
# Poissons Ratio (y) = 0.49202 0.06257
# Poissons Ratio (z) = 0.46633 0.03941
#
# Static dielectric constant tensor:
#      x y z
#    x 1.892980 0.000000 0.000000 
#    y 0.000000 1.898670 0.000000 
#    z 0.000000 0.000000 1.880270 
# 
# From -- ./inp_files/6531.got.cif
#   From: 2010.05.17/outbox.cif.g08.bks.cpg/sg73_4_cif.got.tgz:6531.got - 2010.06.03 17:35:07.
