data_PCOD9531432
_publ_section_title
;
Structure prediction by ZEFSAII (Michael W. Deem and Ramdas Pophale) SiO2 
 PCOD9531432
Probable space group: I B C A 
;
_chemical_formula_sum "Si O2"
_cell_formula_units_Z 128
_cell_length_a 19.622147
_cell_length_b 11.979253
_cell_length_c 23.079937
_cell_angle_alpha 90.000000
_cell_angle_beta 90.000000
_cell_angle_gamma 90.000000
_cell_volume 5425.139141
_symmetry_space_group_name_H-M "I B C A "
_symmetry_group_IT_number 73
_symmetry_cell_setting 'orthorhombic'
loop_
_space_group_symop_operation_xyz
x,y,z
-x,1/2-y,z
x,-y,1/2-z
1/2-x,y,-z
-x,-y,-z
x,1/2+y,-z
-x,y,1/2+z
1/2+x,-y,z
1/2+x,1/2+y,1/2+z
1/2-x,-y,1/2+z
1/2+x,1/2-y,-z
-x,1/2+y,1/2-z
1/2-x,1/2-y,1/2-z
1/2+x,y,1/2-z
1/2-x,1/2+y,z
x,1/2-y,1/2+z
loop_
_atom_site_type_symbol
_atom_site_label
_atom_site_fract_x
_atom_site_fract_y
_atom_site_fract_z
Si Si1 0.516951 0.993983 0.330591
Si Si2 0.289616 0.069832 0.600843
Si Si3 0.355705 0.130785 0.850959
Si Si4 0.072812 0.184720 0.715760
Si Si5 0.901863 0.723565 0.163425
Si Si6 0.564676 0.710516 0.546276
Si Si7 0.555129 0.402056 0.068702
Si Si8 0.158692 0.418484 0.031191
O O1 0.541538 0.868322 0.316965
O O2 0.498960 0.979163 0.398426
O O3 0.586075 0.060299 0.317885
O O4 0.452798 0.061293 0.304254
O O5 0.336029 0.155948 0.638458
O O6 0.318809 0.057530 0.534901
O O7 0.215489 0.110596 0.579969
O O8 0.292253 0.953077 0.637885
O O9 0.368907 0.253057 0.823262
O O10 0.384628 0.141311 0.915335
O O11 0.103865 0.197803 0.780315
O O12 0.000000 0.250000 0.711622
O O13 0.926869 0.799289 0.110367
O O14 0.500000 0.750000 0.583619
O O15 0.533597 0.643617 0.492989
O O16 0.607982 0.815388 0.526086
O O17 0.621627 0.473859 0.056322
#
# Coordination Sequence:
#
# PCOD9531432 Si02
#       8
#    16  16  16  16  16  16  16  16
#     4  10  22  39  62  96 142 177 224 290 359 421
#     4  10  23  43  63  90 132 183 244 298 346 437
#     4  10  21  39  62  96 130 182 231 280 348 426
#     4  10  21  39  66 100 139 186 233 288 355 432
#     4  11  23  41  65 103 137 187 243 291 353 426
#     4  12  23  37  64  98 138 176 231 302 377 446
#     4  12  23  37  64  96 133 182 228 302 361 440
#     4  11  24  43  62  93 135 184 236 297 370 429
#
# _framework density 23.593864
#
# number of rings (size 3 to 8) (size 9 to 14) (size 15 to 20)
#    0.000    1.250    2.500    4.500    1.750    9.000 
#    0.000    0.000    0.000    9.750    0.000    0.000 
#    0.000    0.000    0.000    0.000    0.000    0.250 
#
# Total GULP energy -356746.599232 kJ/mol
# GULP energy per Si atom -5574.165613 kJ/mol
# Density = 2.354016 g / cm^3
# Si number density = 23.593864 Si / 1000 Ang^3
#
#
#
# Elastic Constant Matrix: (Units=GPa)
#
#
# Indices 1 2 3 4 5 6 
#
# 1 66.5627 13.2932 26.0409 0.0000 0.0000 0.0000
# 2 13.2932 85.4557 36.7606 0.0000 0.0000 0.0000
# 3 26.0409 36.7606 134.1968 0.0000 0.0000 0.0000
# 4 0.0000 0.0000 0.0000 23.9677 0.0000 0.0000
# 5 0.0000 0.0000 0.0000 0.0000 25.9361 0.0000
# 6 0.0000 0.0000 0.0000 0.0000 0.0000 21.7924
#
#
#
# Elastic Compliance Matrix: (Units=1/GPa)
#
#
# Indices 1 2 3 4 5 6 
#
# 1 0.016392 -0.001339 -0.002814 0.000000 0.000000 0.000000
# 2 -0.001339 0.013375 -0.003404 0.000000 0.000000 0.000000
# 3 -0.002814 -0.003404 0.008930 0.000000 0.000000 0.000000
# 4 0.000000 0.000000 0.000000 0.041723 0.000000 0.000000
# 5 0.000000 0.000000 0.000000 0.000000 0.038556 0.000000
# 6 0.000000 0.000000 0.000000 0.000000 0.000000 0.045887
#
#
# Mechanical properties :
#
#
# Convention : Reuss Voigt Hill
#
# Bulk Modulus (GPa) = 42.40467 48.71164 45.55815
# Shear Modulus (GPa) = 26.61869 28.34730 27.48299
#
# Velocity S-wave (km/s) = 3.36252 3.46998 3.41667
# Velocity P-wave (km/s) = 5.75214 6.06177 5.90899
#
# Compressibility (1/GPa) = 0.02358231
#
# Stress axis : x y z
#
# Youngs Moduli (GPa) = 61.00617 74.76898 111.97974
#
# Poissons Ratio (x) = 0.10014 0.31510
# Poissons Ratio (y) = 0.08171 0.38116
# Poissons Ratio (z) = 0.17167 0.25450
#
# Static dielectric constant tensor:
#      x y z
#    x 1.939450 0.000000 0.000000 
#    y 0.000000 2.047510 0.000000 
#    z 0.000000 0.000000 1.954610 
# 
# From -- ./inp_files/30393.got.cif
#   From: 2010.05.17/outbox.cif.g08.bks.cpg/sg73_16_cif.got.tgz:30393.got - 2010.06.03 17:35:07.
