data_PCOD9531690
_publ_section_title
;
Structure prediction by ZEFSAII (Michael W. Deem and Ramdas Pophale) SiO2 
 PCOD9531690
Probable space group: I B C A 
;
_chemical_formula_sum "Si O2"
_cell_formula_units_Z 120
_cell_length_a 20.407516
_cell_length_b 32.379160
_cell_length_c 8.971315
_cell_angle_alpha 90.000000
_cell_angle_beta 90.000000
_cell_angle_gamma 90.000000
_cell_volume 5928.049608
_symmetry_space_group_name_H-M "I B C A "
_symmetry_group_IT_number 73
_symmetry_cell_setting 'orthorhombic'
loop_
_space_group_symop_operation_xyz
x,y,z
-x,1/2-y,z
x,-y,1/2-z
1/2-x,y,-z
-x,-y,-z
x,1/2+y,-z
-x,y,1/2+z
1/2+x,-y,z
1/2+x,1/2+y,1/2+z
1/2-x,-y,1/2+z
1/2+x,1/2-y,-z
-x,1/2+y,1/2-z
1/2-x,1/2-y,1/2-z
1/2+x,y,1/2-z
1/2-x,1/2+y,z
x,1/2-y,1/2+z
loop_
_atom_site_type_symbol
_atom_site_label
_atom_site_fract_x
_atom_site_fract_y
_atom_site_fract_z
Si Si1 0.274831 0.439259 0.770069
Si Si2 0.034306 0.145893 0.217024
Si Si3 0.382369 0.879474 0.195160
Si Si4 0.682839 0.714957 0.910204
Si Si5 0.750000 0.995580 0.000000
Si Si6 0.632630 0.212793 0.777724
Si Si7 0.484242 0.205392 0.054401
Si Si8 0.158149 0.377781 0.850500
O O1 0.341802 0.415801 0.725216
O O2 0.292588 0.471062 0.904608
O O3 0.238770 0.464095 0.636966
O O4 0.221268 0.405836 0.822392
O O5 0.095655 0.115779 0.242051
O O6 0.961245 0.125383 0.216301
O O7 0.036450 0.177229 0.357729
O O8 0.042281 0.174498 0.071750
O O9 0.350522 0.835483 0.241572
O O10 0.366605 0.884277 0.019781
O O11 0.630944 0.719571 0.045830
O O12 0.750000 0.716255 0.000000
O O13 0.676502 0.752583 0.797741
O O14 0.678118 0.670311 0.835093
O O15 0.565179 0.215912 0.688821
O O16 0.500000 0.250000 0.988952
#
# Coordination Sequence:
#
# PCOD9531690 Si02
#       8
#    16  16  16  16   8  16  16  16
#     4  11  22  45  76 101 132 162 208 264 322 405
#     4  11  23  38  61  88 127 170 225 267 326 387
#     4  10  21  43  62  94 131 176 213 269 327 379
#     4  11  23  40  57  85 127 179 221 274 326 375
#     4  10  24  42  74 112 124 162 206 258 326 402
#     4  10  24  36  56  84 124 170 225 266 318 363
#     4  11  23  36  54  82 120 171 231 281 312 366
#     4  11  21  40  67  94 127 178 214 265 329 381
#
# _framework density 20.242743999999998
#
# number of rings (size 3 to 8) (size 9 to 14) (size 15 to 20)
#    0.000    1.333    2.667    3.200    7.467    2.133 
#    1.200    0.000    0.000    4.800    0.000    0.000 
#    0.000    0.000    0.000    0.000    0.000    0.000 
#
# Total GULP energy -334329.538875 kJ/mol
# GULP energy per Si atom -5572.158981 kJ/mol
# Density = 2.019667 g / cm^3
# Si number density = 20.242744 Si / 1000 Ang^3
#
#
#
# Elastic Constant Matrix: (Units=GPa)
#
#
# Indices 1 2 3 4 5 6 
#
# 1 113.1452 46.4083 21.3097 0.0000 0.0000 0.0000
# 2 46.4083 101.3600 31.0394 0.0000 0.0000 0.0000
# 3 21.3097 31.0394 76.4588 -0.0001 -0.0005 0.0002
# 4 0.0000 0.0000 -0.0001 35.4865 0.0000 0.0001
# 5 0.0000 0.0000 -0.0005 0.0000 31.8041 -0.0001
# 6 0.0000 0.0000 0.0002 0.0001 -0.0001 9.9625
#
#
#
# Elastic Compliance Matrix: (Units=1/GPa)
#
#
# Indices 1 2 3 4 5 6 
#
# 1 0.010972 -0.004667 -0.001163 0.000000 0.000000 0.000000
# 2 -0.004667 0.013252 -0.004079 0.000000 0.000000 0.000000
# 3 -0.001163 -0.004079 0.015059 0.000000 0.000000 0.000000
# 4 0.000000 0.000000 0.000000 0.028180 0.000000 0.000000
# 5 0.000000 0.000000 0.000000 0.000000 0.031443 0.000000
# 6 0.000000 0.000000 0.000000 0.000000 0.000000 0.100377
#
#
# Mechanical properties :
#
#
# Convention : Reuss Voigt Hill
#
# Bulk Modulus (GPa) = 51.37745 54.27542 52.82644
# Shear Modulus (GPa) = 22.16431 28.26439 25.21435
#
# Velocity S-wave (km/s) = 3.31256 3.74073 3.53313
# Velocity P-wave (km/s) = 6.32981 6.74743 6.54196
#
# Compressibility (1/GPa) = 0.01946379
#
# Stress axis : x y z
#
# Youngs Moduli (GPa) = 91.14439 75.46120 66.40533
#
# Poissons Ratio (x) = 0.35219 0.07724
# Poissons Ratio (y) = 0.42539 0.27086
# Poissons Ratio (z) = 0.10602 0.30780
#
# Static dielectric constant tensor:
#      x y z
#    x 1.852940 0.000000 0.000000 
#    y 0.000000 1.739210 0.000000 
#    z 0.000000 0.000000 1.752960 
# 
# From -- ./inp_files/7462.got.cif
#   From: 2010.05.17/outbox.cif.g08.bks.cpg/sg73_4_cif.got.tgz:7462.got - 2010.06.03 17:35:07.
