data_PCOD9531170
_publ_section_title
;
Structure prediction by ZEFSAII (Michael W. Deem and Ramdas Pophale) SiO2 
 PCOD9531170
Probable space group: I B C A 
;
_chemical_formula_sum "Si O2"
_cell_formula_units_Z 104
_cell_length_a 9.350644
_cell_length_b 21.219424
_cell_length_c 26.757981
_cell_angle_alpha 90.000000
_cell_angle_beta 90.000000
_cell_angle_gamma 90.000000
_cell_volume 5309.192285
_symmetry_space_group_name_H-M "I B C A "
_symmetry_group_IT_number 73
_symmetry_cell_setting 'orthorhombic'
loop_
_space_group_symop_operation_xyz
x,y,z
-x,1/2-y,z
x,-y,1/2-z
1/2-x,y,-z
-x,-y,-z
x,1/2+y,-z
-x,y,1/2+z
1/2+x,-y,z
1/2+x,1/2+y,1/2+z
1/2-x,-y,1/2+z
1/2+x,1/2-y,-z
-x,1/2+y,1/2-z
1/2-x,1/2-y,1/2-z
1/2+x,y,1/2-z
1/2-x,1/2+y,z
x,1/2-y,1/2+z
loop_
_atom_site_type_symbol
_atom_site_label
_atom_site_fract_x
_atom_site_fract_y
_atom_site_fract_z
Si Si1 0.269009 0.617210 0.685058
Si Si2 0.475694 0.397969 0.251052
Si Si3 0.750000 0.960660 0.500000
Si Si4 0.778203 0.465840 0.812364
Si Si5 0.889726 0.125929 0.081386
Si Si6 0.000000 0.750000 0.968052
Si Si7 0.184153 0.935344 0.419658
Si Si8 0.750000 0.832437 0.000000
O O1 0.413707 0.638702 0.713159
O O2 0.128884 0.640237 0.714070
O O3 0.270139 0.541044 0.691359
O O4 0.277276 0.628233 0.626225
O O5 0.580623 0.439080 0.215089
O O6 0.363310 0.435954 0.286310
O O7 0.846187 0.914196 0.467135
O O8 0.824090 0.006351 0.541225
O O9 0.777101 0.450815 0.871249
O O10 0.925732 0.196615 0.065346
O O11 0.030391 0.088319 0.099495
O O12 0.886606 0.788029 0.000347
O O13 0.244882 0.877739 0.452151
#
# Coordination Sequence:
#
# PCOD9531170 Si02
#       8
#    16  16   8  16  16   8  16   8
#     4  11  19  33  53  83 112 152 186 228 285 340
#     4  10  21  32  52  81 121 154 186 225 281 359
#     4  11  21  36  54  90 119 149 190 234 294 363
#     4  11  18  33  52  83 123 153 183 222 288 358
#     4  11  22  37  60  82 116 157 192 242 286 342
#     4  10  22  44  60  80 110 156 210 240 278 332
#     4  10  21  36  57  88 125 150 179 239 309 345
#     4   9  21  42  62  82 113 157 192 248 284 339
#
# _framework density 19.588667999999998
#
# number of rings (size 3 to 8) (size 9 to 14) (size 15 to 20)
#    0.000    1.538    3.077    4.615    0.000    0.000 
#   11.077    0.000    0.000    0.923    0.000    0.000 
#    0.000    0.000    0.000    0.000    0.000    0.000 
#
# Total GULP energy -290096.273959 kJ/mol
# GULP energy per Si atom -5578.774499 kJ/mol
# Density = 1.954408 g / cm^3
# Si number density = 19.588668 Si / 1000 Ang^3
#
#
#
# Elastic Constant Matrix: (Units=GPa)
#
#
# Indices 1 2 3 4 5 6 
#
# 1 82.4447 17.6558 40.2246 0.0000 0.0000 0.0000
# 2 17.6558 68.6450 26.0256 0.0000 0.0000 0.0000
# 3 40.2246 26.0256 126.1837 0.0000 0.0000 0.0000
# 4 0.0000 0.0000 0.0000 -8.8986 0.0000 0.0000
# 5 0.0000 0.0000 0.0000 0.0000 63.1384 0.0000
# 6 0.0000 0.0000 0.0000 0.0000 0.0000 11.9169
#
#
#
# Elastic Compliance Matrix: (Units=1/GPa)
#
#
# Indices 1 2 3 4 5 6 
#
# 1 0.014655 -0.002168 -0.004225 0.000000 0.000000 0.000000
# 2 -0.002168 0.016124 -0.002635 0.000000 0.000000 0.000000
# 3 -0.004225 -0.002635 0.009815 0.000000 0.000000 0.000000
# 4 0.000000 0.000000 0.000000 -0.112377 0.000000 0.000000
# 5 0.000000 0.000000 0.000000 0.000000 0.015838 0.000000
# 6 0.000000 0.000000 0.000000 0.000000 0.000000 0.083915
#
#
# Mechanical properties :
#
#
# Convention : Reuss Voigt Hill
#
# Bulk Modulus (GPa) = 44.36498 49.45394 46.90946
# Shear Modulus (GPa) = 93.39459 26.12249 59.75854
#
# Velocity S-wave (km/s) = 6.91241 3.65574 5.52928
# Velocity P-wave (km/s) = 9.29548 6.56660 8.04755
#
# Compressibility (1/GPa) = 0.02254030
#
# Stress axis : x y z
#
# Youngs Moduli (GPa) = 68.23760 62.01896 101.88451
#
# Poissons Ratio (x) = 0.13443 0.43041
# Poissons Ratio (y) = 0.14791 0.26843
# Poissons Ratio (z) = 0.28827 0.16340
#
# Static dielectric constant tensor:
#      x y z
#    x 1.760940 0.000000 0.000000 
#    y 0.000000 1.658530 0.000000 
#    z 0.000000 0.000000 1.761300 
# 
# From -- ./inp_files/6611.got.cif
#   From: 2010.05.17/outbox.cif.g08.bks.cpg/sg73_4_cif.got.tgz:6611.got - 2010.06.03 17:35:07.
