data_PCOD9531973
_publ_section_title
;
Structure prediction by ZEFSAII (Michael W. Deem and Ramdas Pophale) SiO2 
 PCOD9531973
Probable space group: I B C A 
;
_chemical_formula_sum "Si O2"
_cell_formula_units_Z 80
_cell_length_a 18.134758
_cell_length_b 7.330171
_cell_length_c 24.975350
_cell_angle_alpha 90.000000
_cell_angle_beta 90.000000
_cell_angle_gamma 90.000000
_cell_volume 3319.995183
_symmetry_space_group_name_H-M "I B C A "
_symmetry_group_IT_number 73
_symmetry_cell_setting 'orthorhombic'
loop_
_space_group_symop_operation_xyz
x,y,z
-x,1/2-y,z
x,-y,1/2-z
1/2-x,y,-z
-x,-y,-z
x,1/2+y,-z
-x,y,1/2+z
1/2+x,-y,z
1/2+x,1/2+y,1/2+z
1/2-x,-y,1/2+z
1/2+x,1/2-y,-z
-x,1/2+y,1/2-z
1/2-x,1/2-y,1/2-z
1/2+x,y,1/2-z
1/2-x,1/2+y,z
x,1/2-y,1/2+z
loop_
_atom_site_type_symbol
_atom_site_label
_atom_site_fract_x
_atom_site_fract_y
_atom_site_fract_z
Si Si1 0.079261 0.824612 0.941931
Si Si2 0.300004 0.997165 0.306763
Si Si3 0.078231 0.269830 0.676300
Si Si4 0.158982 0.128579 0.361196
Si Si5 0.830770 0.503946 0.025811
O O1 0.069585 0.848000 0.878825
O O2 0.148758 0.686711 0.946697
O O3 0.000000 0.750000 0.960256
O O4 0.107397 0.981285 0.980061
O O5 0.340270 0.815770 0.327901
O O6 0.257589 0.000000 0.250000
O O7 0.355890 0.163188 0.296324
O O8 0.240373 0.045719 0.351454
O O9 0.101633 0.475844 0.660679
O O10 0.000000 0.250000 0.704970
O O11 0.154204 0.145753 0.425683
O O12 0.750000 0.511002 0.000000
#
# Coordination Sequence:
#
# PCOD9531973 Si02
#       5
#    16  16  16  16  16
#     4  10  22  40  61  89 133 175 208 259 331 398
#     4  12  25  45  72  97 125 178 225 280 338 400
#     4  10  24  46  66  99 139 170 218 283 332 397
#     4  11  25  42  69 101 132 176 225 275 336 397
#     4  11  23  36  62  98 128 170 218 271 317 392
#
# _framework density 24.096420999999999
#
# number of rings (size 3 to 8) (size 9 to 14) (size 15 to 20)
#    0.000    1.200    2.000    3.000    8.400    0.800 
#    3.600    0.000    0.000    0.000    0.000    0.000 
#    0.000    0.000    0.000    0.000    0.000    0.000 
#
# Total GULP energy -223350.778150 kJ/mol
# GULP energy per Si atom -5583.769454 kJ/mol
# Density = 2.404158 g / cm^3
# Si number density = 24.096421 Si / 1000 Ang^3
#
#
#
# Elastic Constant Matrix: (Units=GPa)
#
#
# Indices 1 2 3 4 5 6 
#
# 1 116.4149 24.4541 -5.0844 0.0000 0.0000 0.0000
# 2 24.4541 88.6233 27.5647 0.0000 0.0000 0.0000
# 3 -5.0844 27.5647 53.4151 0.0000 0.0000 0.0000
# 4 0.0000 0.0000 0.0000 18.6455 0.0000 0.0000
# 5 0.0000 0.0000 0.0000 0.0000 7.5976 0.0000
# 6 0.0000 0.0000 0.0000 0.0000 0.0000 24.0522
#
#
#
# Elastic Compliance Matrix: (Units=1/GPa)
#
#
# Indices 1 2 3 4 5 6 
#
# 1 0.009427 -0.003431 0.002668 0.000000 0.000000 0.000000
# 2 -0.003431 0.014690 -0.007907 0.000000 0.000000 0.000000
# 3 0.002668 -0.007907 0.023056 0.000000 0.000000 0.000000
# 4 0.000000 0.000000 0.000000 0.053632 0.000000 0.000000
# 5 0.000000 0.000000 0.000000 0.000000 0.131621 0.000000
# 6 0.000000 0.000000 0.000000 0.000000 0.000000 0.041576
#
#
# Mechanical properties :
#
#
# Convention : Reuss Voigt Hill
#
# Bulk Modulus (GPa) = 33.52097 39.14687 36.33392
# Shear Modulus (GPa) = 16.59546 24.16032 20.37789
#
# Velocity S-wave (km/s) = 2.62718 3.16990 2.91121
# Velocity P-wave (km/s) = 4.81083 5.44784 5.13921
#
# Compressibility (1/GPa) = 0.02983207
#
# Stress axis : x y z
#
# Youngs Moduli (GPa) = 106.07575 68.07413 43.37312
#
# Poissons Ratio (x) = 0.23357 -0.11572
# Poissons Ratio (y) = 0.36396 0.34296
# Poissons Ratio (z) = -0.28300 0.53828
#
# Static dielectric constant tensor:
#      x y z
#    x 1.927340 0.000000 0.000000 
#    y 0.000000 2.026820 0.000000 
#    z 0.000000 0.000000 2.022190 
# 
# From -- ./inp_files/23810.got.cif
#   From: 2010.05.17/outbox.cif.g08.bks.cpg/sg73_12_cif.got.tgz:23810.got - 2010.06.03 17:35:07.
