data_PCOD9531269
_publ_section_title
;
Structure prediction by ZEFSAII (Michael W. Deem and Ramdas Pophale) SiO2 
 PCOD9531269
Probable space group: I B C A 
;
_chemical_formula_sum "Si O2"
_cell_formula_units_Z 56
_cell_length_a 14.181605
_cell_length_b 31.454051
_cell_length_c 5.179406
_cell_angle_alpha 90.000000
_cell_angle_beta 90.000000
_cell_angle_gamma 90.000000
_cell_volume 2310.372077
_symmetry_space_group_name_H-M "I B C A "
_symmetry_group_IT_number 73
_symmetry_cell_setting 'orthorhombic'
loop_
_space_group_symop_operation_xyz
x,y,z
-x,1/2-y,z
x,-y,1/2-z
1/2-x,y,-z
-x,-y,-z
x,1/2+y,-z
-x,y,1/2+z
1/2+x,-y,z
1/2+x,1/2+y,1/2+z
1/2-x,-y,1/2+z
1/2+x,1/2-y,-z
-x,1/2+y,1/2-z
1/2-x,1/2-y,1/2-z
1/2+x,y,1/2-z
1/2-x,1/2+y,z
x,1/2-y,1/2+z
loop_
_atom_site_type_symbol
_atom_site_label
_atom_site_fract_x
_atom_site_fract_y
_atom_site_fract_z
Si Si1 0.360642 0.586405 0.962239
Si Si2 0.566450 0.000000 0.750000
Si Si3 0.135289 0.225982 0.480518
Si Si4 0.865005 0.130265 0.968283
O O1 0.372654 0.541472 0.817240
O O2 0.399909 0.619608 0.755004
O O3 0.250000 0.593173 0.000000
O O4 0.396607 0.595991 0.251785
O O5 0.500000 0.000000 0.500000
O O6 0.250000 0.226315 0.500000
O O7 0.104892 0.259540 0.264180
O O8 0.109255 0.178298 0.399176
O O9 0.750000 0.128463 0.000000
#
# Coordination Sequence:
#
# PCOD9531269 Si02
#       4
#    16   8  16  16
#     4  10  21  37  58  80 109 149 190 230 279 342
#     4  12  26  42  60  86 118 146 188 246 300 350
#     4   9  15  23  39  67 107 146 174 212 272 328
#     4   9  17  30  49  76 108 145 187 226 269 331
#
# _framework density 24.238520000000001
#
# number of rings (size 3 to 8) (size 9 to 14) (size 15 to 20)
#    0.000    2.286    0.000    3.429    0.000   11.429 
#    0.000    0.000    0.000    0.000    0.000    0.000 
#    0.000   80.000    0.000    0.000    0.000    0.000 
#
# Total GULP energy -156324.044928 kJ/mol
# GULP energy per Si atom -5583.001605 kJ/mol
# Density = 2.418335 g / cm^3
# Si number density = 24.238520 Si / 1000 Ang^3
#
#
#
# Elastic Constant Matrix: (Units=GPa)
#
#
# Indices 1 2 3 4 5 6 
#
# 1 76.1826 -13.7189 -1.7121 0.0003 0.0235 -0.0025
# 2 -13.7189 109.7379 52.1999 0.0010 0.0131 0.0103
# 3 -1.7121 52.1999 193.5284 -0.0343 0.1210 0.0025
# 4 0.0003 0.0010 -0.0343 47.3895 0.0124 -0.0333
# 5 0.0235 0.0131 0.1210 0.0124 0.7924 0.0131
# 6 -0.0025 0.0103 0.0025 -0.0333 0.0131 8.3027
#
#
#
# Elastic Compliance Matrix: (Units=1/GPa)
#
#
# Indices 1 2 3 4 5 6 
#
# 1 0.013454 0.001864 -0.000384 0.000000 -0.000371 0.000002
# 2 0.001864 0.010712 -0.002873 -0.000002 0.000206 -0.000012
# 3 -0.000384 -0.002873 0.005939 0.000005 -0.000848 0.000003
# 4 0.000000 -0.000002 0.000005 0.021102 -0.000332 0.000085
# 5 -0.000371 0.000206 -0.000848 -0.000332 1.262118 -0.001992
# 6 0.000002 -0.000012 0.000003 0.000085 -0.001992 0.120447
#
#
# Mechanical properties :
#
#
# Convention : Reuss Voigt Hill
#
# Bulk Modulus (GPa) = 36.60230 50.33189 43.46709
# Shear Modulus (GPa) = 3.45862 34.14225 18.80043
#
# Velocity S-wave (km/s) = 1.19583 3.75720 2.78806
# Velocity P-wave (km/s) = 4.12799 6.29542 5.32319
#
# Compressibility (1/GPa) = 0.02732069
#
# Stress axis : x y z
#
# Youngs Moduli (GPa) = 74.32959 93.35042 168.37066
#
# Poissons Ratio (x) = -0.17405 0.06459
# Poissons Ratio (y) = -0.13858 0.48374
# Poissons Ratio (z) = 0.02852 0.26820
#
# Static dielectric constant tensor:
#      x y z
#    x 1.992130 0.000010 0.000000 
#    y 0.000010 2.034030 -0.000020 
#    z 0.000000 -0.000020 1.875110 
# 
# From -- ./inp_files/1060.got.cif
#   From: 2010.05.17/outbox.cif.g08.bks.cpg/sg73_1_cif.got.tgz:1060.got - 2010.06.03 17:35:07.
