data_PCOD9531567
_publ_section_title
;
Structure prediction by ZEFSAII (Michael W. Deem and Ramdas Pophale) SiO2 
 PCOD9531567
Probable space group: I B C A 
;
_chemical_formula_sum "Si O2"
_cell_formula_units_Z 112
_cell_length_a 29.011009
_cell_length_b 12.578230
_cell_length_c 13.157239
_cell_angle_alpha 90.000000
_cell_angle_beta 90.000000
_cell_angle_gamma 90.000000
_cell_volume 4801.170503
_symmetry_space_group_name_H-M "I B C A "
_symmetry_group_IT_number 73
_symmetry_cell_setting 'orthorhombic'
loop_
_space_group_symop_operation_xyz
x,y,z
-x,1/2-y,z
x,-y,1/2-z
1/2-x,y,-z
-x,-y,-z
x,1/2+y,-z
-x,y,1/2+z
1/2+x,-y,z
1/2+x,1/2+y,1/2+z
1/2-x,-y,1/2+z
1/2+x,1/2-y,-z
-x,1/2+y,1/2-z
1/2-x,1/2-y,1/2-z
1/2+x,y,1/2-z
1/2-x,1/2+y,z
x,1/2-y,1/2+z
loop_
_atom_site_type_symbol
_atom_site_label
_atom_site_fract_x
_atom_site_fract_y
_atom_site_fract_z
Si Si1 0.637138 0.806787 0.624405
Si Si2 0.668729 0.763595 0.406830
Si Si3 0.788988 0.024719 0.918843
Si Si4 0.042409 0.825149 0.775178
Si Si5 0.735206 0.193050 0.352281
Si Si6 0.360603 0.955294 0.418587
Si Si7 0.962505 0.467619 0.916525
O O1 0.634767 0.790989 0.501230
O O2 0.591463 0.775468 0.687259
O O3 0.683879 0.740786 0.638957
O O4 0.645213 0.933521 0.640612
O O5 0.721048 0.721567 0.424302
O O6 0.647264 0.655930 0.359701
O O7 0.682384 0.880729 0.366084
O O8 0.766604 0.934323 0.850546
O O9 0.750000 0.064574 0.000000
O O10 0.825037 0.962554 0.989706
O O11 0.034773 0.865191 0.658637
O O12 0.000000 0.750000 0.801365
O O13 0.039593 0.931605 0.841791
O O14 0.750000 0.250000 0.250000
O O15 0.411826 0.956594 0.463512
O O16 0.000000 0.500000 0.000000
#
# Coordination Sequence:
#
# PCOD9531567 Si02
#       7
#    16  16  16  16  16  16  16
#     4  10  22  43  68  94 136 188 237 309 367 441
#     4  11  22  40  64  95 132 184 244 299 363 444
#     4  11  21  38  62  91 130 180 240 298 352 445
#     4  10  24  46  72 108 143 182 242 310 378 457
#     4  12  25  39  61  96 139 192 241 306 375 446
#     4  10  21  40  70  95 128 179 240 290 361 451
#     4  10  24  46  74 106 140 187 239 302 381 467
#
# _framework density 23.327643999999999
#
# number of rings (size 3 to 8) (size 9 to 14) (size 15 to 20)
#    0.000    1.429    2.857    2.143    4.000    1.143 
#    5.143    0.000    0.000    0.000    0.000    0.000 
#    0.000    0.000    0.000    0.000    0.000    0.000 
#
# Total GULP energy -311832.025659 kJ/mol
# GULP energy per Si atom -5568.429030 kJ/mol
# Density = 2.327455 g / cm^3
# Si number density = 23.327644 Si / 1000 Ang^3
#
#
#
# Elastic Constant Matrix: (Units=GPa)
#
#
# Indices 1 2 3 4 5 6 
#
# 1 164.8678 43.8860 44.5310 0.0000 0.0000 0.0000
# 2 43.8860 158.7783 18.4861 0.0000 0.0000 0.0000
# 3 44.5310 18.4861 62.5798 0.0000 0.0000 0.0000
# 4 0.0000 0.0000 0.0000 25.2702 0.0000 0.0000
# 5 0.0000 0.0000 0.0000 0.0000 27.1263 0.0000
# 6 0.0000 0.0000 0.0000 0.0000 0.0000 40.6367
#
#
#
# Elastic Compliance Matrix: (Units=1/GPa)
#
#
# Indices 1 2 3 4 5 6 
#
# 1 0.007873 -0.001578 -0.005136 0.000000 0.000000 0.000000
# 2 -0.001578 0.006839 -0.000897 0.000000 0.000000 0.000000
# 3 -0.005136 -0.000897 0.019899 0.000000 0.000000 0.000000
# 4 0.000000 0.000000 0.000000 0.039572 0.000000 0.000000
# 5 0.000000 0.000000 0.000000 0.000000 0.036865 0.000000
# 6 0.000000 0.000000 0.000000 0.000000 0.000000 0.024608
#
#
# Mechanical properties :
#
#
# Convention : Reuss Voigt Hill
#
# Bulk Modulus (GPa) = 51.57759 66.67023 59.12391
# Shear Modulus (GPa) = 31.77802 37.22815 34.50309
#
# Velocity S-wave (km/s) = 3.69487 3.99918 3.85003
# Velocity P-wave (km/s) = 6.35302 7.06870 6.72039
#
# Compressibility (1/GPa) = 0.01938827
#
# Stress axis : x y z
#
# Youngs Moduli (GPa) = 127.02021 146.22611 50.25286
#
# Poissons Ratio (x) = 0.23075 0.25810
# Poissons Ratio (y) = 0.20044 0.04509
# Poissons Ratio (z) = 0.65238 0.13120
#
# Static dielectric constant tensor:
#      x y z
#    x 1.885110 0.000000 0.000000 
#    y 0.000000 1.922920 0.000000 
#    z 0.000000 0.000000 1.739570 
# 
# From -- ./inp_files/20046.got.cif
#   From: 2010.05.17/outbox.cif.g08.bks.cpg/sg73_11_cif.got.tgz:20046.got - 2010.06.03 17:35:07.
