data_PCOD9531734
_publ_section_title
;
Structure prediction by ZEFSAII (Michael W. Deem and Ramdas Pophale) SiO2 
 PCOD9531734
Probable space group: I B C A 
;
_chemical_formula_sum "Si O2"
_cell_formula_units_Z 96
_cell_length_a 18.684714
_cell_length_b 22.337875
_cell_length_c 8.945584
_cell_angle_alpha 90.000000
_cell_angle_beta 90.000000
_cell_angle_gamma 90.000000
_cell_volume 3733.679275
_symmetry_space_group_name_H-M "I B C A "
_symmetry_group_IT_number 73
_symmetry_cell_setting 'orthorhombic'
loop_
_space_group_symop_operation_xyz
x,y,z
-x,1/2-y,z
x,-y,1/2-z
1/2-x,y,-z
-x,-y,-z
x,1/2+y,-z
-x,y,1/2+z
1/2+x,-y,z
1/2+x,1/2+y,1/2+z
1/2-x,-y,1/2+z
1/2+x,1/2-y,-z
-x,1/2+y,1/2-z
1/2-x,1/2-y,1/2-z
1/2+x,y,1/2-z
1/2-x,1/2+y,z
x,1/2-y,1/2+z
loop_
_atom_site_type_symbol
_atom_site_label
_atom_site_fract_x
_atom_site_fract_y
_atom_site_fract_z
Si Si1 0.166818 0.574022 0.500516
Si Si2 0.594035 0.500000 0.250000
Si Si3 0.099544 0.000000 0.250000
Si Si4 0.750000 0.250000 0.750000
Si Si5 0.933325 0.208850 0.657273
Si Si6 0.365127 0.200966 0.533733
Si Si7 0.909763 0.086252 0.497917
Si Si8 0.250000 0.858642 0.500000
O O1 0.250000 0.582345 0.500000
O O2 0.142390 0.526593 0.380333
O O3 0.144240 0.549924 0.662102
O O4 0.130070 0.636372 0.463414
O O5 0.563407 0.558535 0.339919
O O6 0.062634 0.037488 0.119306
O O7 0.705514 0.288428 0.628417
O O8 0.738859 0.185475 0.642941
O O9 0.867420 0.249886 0.597304
O O10 0.923836 0.202783 0.833953
O O11 0.937803 0.149698 0.558640
O O12 0.000000 0.250000 0.625626
O O13 0.822846 0.099723 0.504149
#
# Coordination Sequence:
#
# PCOD9531734 Si02
#       8
#    16   8   8   8  16  16  16   8
#     4  11  24  37  66 102 146 195 232 286 354 438
#     4  10  27  38  66 103 154 186 241 287 352 446
#     4  10  21  44  62  97 152 186 243 283 346 440
#     4  12  22  40  62 108 150 190 218 300 368 454
#     4  12  27  49  74 101 142 187 251 305 357 429
#     4  12  26  44  70 108 141 190 236 301 379 424
#     4  11  24  43  68 106 143 194 239 296 362 427
#     4  12  24  36  66  98 162 184 236 284 364 448
#
# _framework density 25.711903
#
# number of rings (size 3 to 8) (size 9 to 14) (size 15 to 20)
#    0.000    0.667    5.000    1.000   15.167    0.000 
#    0.000    0.000    0.000    6.000    0.000    0.000 
#    0.000    0.000    0.000    0.000    0.000    0.000 
#
# Total GULP energy -267600.421552 kJ/mol
# GULP energy per Si atom -5575.008782 kJ/mol
# Density = 2.565338 g / cm^3
# Si number density = 25.711903 Si / 1000 Ang^3
#
#
#
# Elastic Constant Matrix: (Units=GPa)
#
#
# Indices 1 2 3 4 5 6 
#
# 1 35.5878 -2.5749 -0.6566 0.0000 0.0000 0.0000
# 2 -2.5749 137.0440 24.8285 0.0000 0.0000 0.0000
# 3 -0.6566 24.8285 137.5002 0.0000 0.0000 0.0000
# 4 0.0000 0.0000 0.0000 87.2088 0.0000 0.0000
# 5 0.0000 0.0000 0.0000 0.0000 64.1488 0.0000
# 6 0.0000 0.0000 0.0000 0.0000 0.0000 21.5759
#
#
#
# Elastic Compliance Matrix: (Units=1/GPa)
#
#
# Indices 1 2 3 4 5 6 
#
# 1 0.028138 0.000521 0.000040 0.000000 0.000000 0.000000
# 2 0.000521 0.007553 -0.001361 0.000000 0.000000 0.000000
# 3 0.000040 -0.001361 0.007519 0.000000 0.000000 0.000000
# 4 0.000000 0.000000 0.000000 0.011467 0.000000 0.000000
# 5 0.000000 0.000000 0.000000 0.000000 0.015589 0.000000
# 6 0.000000 0.000000 0.000000 0.000000 0.000000 0.046348
#
#
# Mechanical properties :
#
#
# Convention : Reuss Voigt Hill
#
# Bulk Modulus (GPa) = 24.03242 39.25843 31.64543
# Shear Modulus (GPa) = 37.85489 53.82235 45.83862
#
# Velocity S-wave (km/s) = 3.84118 4.58021 4.22688
# Velocity P-wave (km/s) = 5.38888 6.57821 6.01302
#
# Compressibility (1/GPa) = 0.04161045
#
# Stress axis : x y z
#
# Youngs Moduli (GPa) = 35.53917 132.39116 133.00093
#
# Poissons Ratio (x) = -0.06903 -0.00535
# Poissons Ratio (y) = -0.01853 0.18107
# Poissons Ratio (z) = -0.00143 0.18024
#
# Static dielectric constant tensor:
#      x y z
#    x 1.645310 0.000000 0.000000 
#    y 0.000000 2.068550 0.000000 
#    z 0.000000 0.000000 2.096070 
# 
# From -- ./inp_files/7233.got.cif
#   From: 2010.05.17/outbox.cif.g08.bks.cpg/sg73_4_cif.got.tgz:7233.got - 2010.06.03 17:35:07.
