data_PCOD9531642
_publ_section_title
;
Structure prediction by ZEFSAII (Michael W. Deem and Ramdas Pophale) SiO2 
 PCOD9531642
Probable space group: I B C A 
;
_chemical_formula_sum "Si O2"
_cell_formula_units_Z 88
_cell_length_a 13.862138
_cell_length_b 13.501172
_cell_length_c 19.900085
_cell_angle_alpha 90.000000
_cell_angle_beta 90.000000
_cell_angle_gamma 90.000000
_cell_volume 3724.402586
_symmetry_space_group_name_H-M "I B C A "
_symmetry_group_IT_number 73
_symmetry_cell_setting 'orthorhombic'
loop_
_space_group_symop_operation_xyz
x,y,z
-x,1/2-y,z
x,-y,1/2-z
1/2-x,y,-z
-x,-y,-z
x,1/2+y,-z
-x,y,1/2+z
1/2+x,-y,z
1/2+x,1/2+y,1/2+z
1/2-x,-y,1/2+z
1/2+x,1/2-y,-z
-x,1/2+y,1/2-z
1/2-x,1/2-y,1/2-z
1/2+x,y,1/2-z
1/2-x,1/2+y,z
x,1/2-y,1/2+z
loop_
_atom_site_type_symbol
_atom_site_label
_atom_site_fract_x
_atom_site_fract_y
_atom_site_fract_z
Si Si1 0.299556 0.500000 0.750000
Si Si2 0.016484 0.414857 0.406144
Si Si3 0.192159 0.621063 0.652770
Si Si4 0.015564 0.618954 0.940984
Si Si5 0.173248 0.253014 0.058661
Si Si6 0.402466 0.797934 0.283193
O O1 0.231489 0.521015 0.685972
O O2 0.361284 0.398624 0.747906
O O3 0.048641 0.408753 0.483335
O O4 0.072434 0.339330 0.358493
O O5 0.903886 0.395202 0.391141
O O6 0.025011 0.532177 0.393836
O O7 0.270281 0.676492 0.608436
O O8 0.165016 0.702621 0.709303
O O9 0.114761 0.661063 0.909674
O O10 0.923219 0.685942 0.960125
O O11 0.250000 0.228270 0.000000
O O12 0.500000 0.750000 0.253055
#
# Coordination Sequence:
#
# PCOD9531642 Si02
#       6
#     8  16  16  16  16  16
#     4  12  26  46  66 100 130 176 248 290 336 420
#     4  10  21  42  63  94 136 174 216 277 342 414
#     4  11  24  42  69  98 136 178 227 284 352 404
#     4  10  22  38  63 100 134 175 222 262 348 424
#     4  11  21  39  64  98 136 174 219 283 338 421
#     4  10  24  45  69  91 131 179 222 287 344 401
#
# _framework density 23.627949999999998
#
# number of rings (size 3 to 8) (size 9 to 14) (size 15 to 20)
#    0.000    1.455    1.818    2.727    7.636    2.909 
#   13.091    0.000    0.000    0.000    0.000    0.000 
#    0.000    0.000    0.000    0.000    0.000    0.000 
#
# Total GULP energy -245208.232990 kJ/mol
# GULP energy per Si atom -5572.914386 kJ/mol
# Density = 2.357417 g / cm^3
# Si number density = 23.627950 Si / 1000 Ang^3
#
#
#
# Elastic Constant Matrix: (Units=GPa)
#
#
# Indices 1 2 3 4 5 6 
#
# 1 87.0346 32.5808 7.3717 0.0000 0.0000 0.0000
# 2 32.5808 96.3696 -2.4711 0.0000 0.0000 0.0000
# 3 7.3717 -2.4711 29.2470 0.0000 0.0000 0.0000
# 4 0.0000 0.0000 0.0000 23.3853 0.0000 0.0000
# 5 0.0000 0.0000 0.0000 0.0000 9.9685 0.0000
# 6 0.0000 0.0000 0.0000 0.0000 0.0000 35.6182
#
#
#
# Elastic Compliance Matrix: (Units=1/GPa)
#
#
# Indices 1 2 3 4 5 6 
#
# 1 0.013566 -0.004684 -0.003815 0.000000 0.000000 0.000000
# 2 -0.004684 0.012017 0.002196 0.000000 0.000000 0.000000
# 3 -0.003815 0.002196 0.035339 0.000000 0.000000 0.000000
# 4 0.000000 0.000000 0.000000 0.042762 0.000000 0.000000
# 5 0.000000 0.000000 0.000000 0.000000 0.100316 0.000000
# 6 0.000000 0.000000 0.000000 0.000000 0.000000 0.028076
#
#
# Mechanical properties :
#
#
# Convention : Reuss Voigt Hill
#
# Bulk Modulus (GPa) = 20.69763 31.95709 26.32736
# Shear Modulus (GPa) = 19.17272 25.47241 22.32256
#
# Velocity S-wave (km/s) = 2.85167 3.28695 3.07702
# Velocity P-wave (km/s) = 4.42962 5.28771 4.87757
#
# Compressibility (1/GPa) = 0.04831470
#
# Stress axis : x y z
#
# Youngs Moduli (GPa) = 73.71166 83.21732 28.29762
#
# Poissons Ratio (x) = 0.38982 0.10796
# Poissons Ratio (y) = 0.34529 -0.06214
# Poissons Ratio (z) = 0.28122 -0.18275
#
# Static dielectric constant tensor:
#      x y z
#    x 1.919360 0.000000 0.000000 
#    y 0.000000 2.062900 0.000000 
#    z 0.000000 0.000000 1.920390 
# 
# From -- ./inp_files/28854.got.cif
#   From: 2010.05.17/outbox.cif.g08.bks.cpg/sg73_15_cif.got.tgz:28854.got - 2010.06.03 17:35:07.
