data_PCOD9531298
_publ_section_title
;
Structure prediction by ZEFSAII (Michael W. Deem and Ramdas Pophale) SiO2 
 PCOD9531298
Probable space group: I B C A 
;
_chemical_formula_sum "Si O2"
_cell_formula_units_Z 96
_cell_length_a 22.901866
_cell_length_b 17.641010
_cell_length_c 10.533512
_cell_angle_alpha 90.000000
_cell_angle_beta 90.000000
_cell_angle_gamma 90.000000
_cell_volume 4255.665747
_symmetry_space_group_name_H-M "I B C A "
_symmetry_group_IT_number 73
_symmetry_cell_setting 'orthorhombic'
loop_
_space_group_symop_operation_xyz
x,y,z
-x,1/2-y,z
x,-y,1/2-z
1/2-x,y,-z
-x,-y,-z
x,1/2+y,-z
-x,y,1/2+z
1/2+x,-y,z
1/2+x,1/2+y,1/2+z
1/2-x,-y,1/2+z
1/2+x,1/2-y,-z
-x,1/2+y,1/2-z
1/2-x,1/2-y,1/2-z
1/2+x,y,1/2-z
1/2-x,1/2+y,z
x,1/2-y,1/2+z
loop_
_atom_site_type_symbol
_atom_site_label
_atom_site_fract_x
_atom_site_fract_y
_atom_site_fract_z
Si Si1 0.107458 0.000000 0.750000
Si Si2 0.472747 0.606246 0.919645
Si Si3 0.375378 0.719677 0.239878
Si Si4 0.000000 0.250000 0.755107
Si Si5 0.645403 0.329150 0.019473
Si Si6 0.412087 0.557574 0.354928
Si Si7 0.815104 0.495622 0.971748
O O1 0.065366 0.942789 0.677845
O O2 0.152065 0.034298 0.646721
O O3 0.497895 0.677654 0.844652
O O4 0.420947 0.637773 0.007401
O O5 0.534406 0.567713 0.955993
O O6 0.437716 0.752244 0.188673
O O7 0.356971 0.774022 0.357719
O O8 0.387778 0.636223 0.298245
O O9 0.336756 0.710623 0.112923
O O10 0.682301 0.404666 0.048528
O O11 0.437148 0.500000 0.250000
O O12 0.357144 0.514861 0.412605
O O13 0.750000 0.520642 0.000000
#
# Coordination Sequence:
#
# PCOD9531298 Si02
#       7
#     8  16  16   8  16  16  16
#     4  10  22  38  62  96 130 166 222 274 338 402
#     4   9  19  36  60 100 132 166 203 270 332 400
#     4  10  21  37  62  94 131 173 215 266 333 399
#     4   8  18  32  56  88 134 164 200 250 328 400
#     4  10  22  41  63  93 134 172 219 269 330 402
#     4  11  21  38  68 100 131 170 220 272 338 404
#     4  11  26  44  66  91 131 180 227 286 331 393
#
# _framework density 22.558161999999999
#
# number of rings (size 3 to 8) (size 9 to 14) (size 15 to 20)
#    0.000    2.000    2.500    0.000    1.167   13.333 
#    0.000    1.667    0.000    0.000    0.000    0.000 
#    0.000    0.000    0.000    0.000    0.000    0.000 
#
# Total GULP energy -267474.593549 kJ/mol
# GULP energy per Si atom -5572.387366 kJ/mol
# Density = 2.250682 g / cm^3
# Si number density = 22.558162 Si / 1000 Ang^3
#
#
#
# Elastic Constant Matrix: (Units=GPa)
#
#
# Indices 1 2 3 4 5 6 
#
# 1 91.9565 14.1559 20.6424 0.0000 0.0000 0.0000
# 2 14.1559 82.5661 33.2237 0.0000 0.0000 0.0000
# 3 20.6424 33.2237 87.5270 0.0000 0.0000 0.0000
# 4 0.0000 0.0000 0.0000 42.6403 0.0000 0.0000
# 5 0.0000 0.0000 0.0000 0.0000 13.7655 0.0000
# 6 0.0000 0.0000 0.0000 0.0000 0.0000 10.0771
#
#
#
# Elastic Compliance Matrix: (Units=1/GPa)
#
#
# Indices 1 2 3 4 5 6 
#
# 1 0.011558 -0.001044 -0.002330 0.000000 0.000000 0.000000
# 2 -0.001044 0.014389 -0.005216 0.000000 0.000000 0.000000
# 3 -0.002330 -0.005216 0.013954 0.000000 0.000000 0.000000
# 4 0.000000 0.000000 0.000000 0.023452 0.000000 0.000000
# 5 0.000000 0.000000 0.000000 0.000000 0.072646 0.000000
# 6 0.000000 0.000000 0.000000 0.000000 0.000000 0.099235
#
#
# Mechanical properties :
#
#
# Convention : Reuss Voigt Hill
#
# Bulk Modulus (GPa) = 44.00840 44.23264 44.12052
# Shear Modulus (GPa) = 19.23170 26.23174 22.73172
#
# Velocity S-wave (km/s) = 2.92299 3.41376 3.17786
# Velocity P-wave (km/s) = 5.56265 5.93204 5.75031
#
# Compressibility (1/GPa) = 0.02272294
#
# Stress axis : x y z
#
# Youngs Moduli (GPa) = 86.51718 69.49632 71.66302
#
# Poissons Ratio (x) = 0.07258 0.16694
# Poissons Ratio (y) = 0.09035 0.37377
# Poissons Ratio (z) = 0.20155 0.36247
#
# Static dielectric constant tensor:
#      x y z
#    x 1.578180 0.000000 0.000000 
#    y 0.000000 1.874440 0.000000 
#    z 0.000000 0.000000 1.941290 
# 
# From -- ./inp_files/13677.got.cif
#   From: 2010.05.17/outbox.cif.g08.bks.cpg/sg73_7_cif.got.tgz:13677.got - 2010.06.03 17:35:07.
