data_PCOD9531302
_publ_section_title
;
Structure prediction by ZEFSAII (Michael W. Deem and Ramdas Pophale) SiO2 
 PCOD9531302
Probable space group: I B C A 
;
_chemical_formula_sum "Si O2"
_cell_formula_units_Z 48
_cell_length_a 9.933625
_cell_length_b 14.191535
_cell_length_c 12.625399
_cell_angle_alpha 90.000000
_cell_angle_beta 90.000000
_cell_angle_gamma 90.000000
_cell_volume 1779.845258
_symmetry_space_group_name_H-M "I B C A "
_symmetry_group_IT_number 73
_symmetry_cell_setting 'orthorhombic'
loop_
_space_group_symop_operation_xyz
x,y,z
-x,1/2-y,z
x,-y,1/2-z
1/2-x,y,-z
-x,-y,-z
x,1/2+y,-z
-x,y,1/2+z
1/2+x,-y,z
1/2+x,1/2+y,1/2+z
1/2-x,-y,1/2+z
1/2+x,1/2-y,-z
-x,1/2+y,1/2-z
1/2-x,1/2-y,1/2-z
1/2+x,y,1/2-z
1/2-x,1/2+y,z
x,1/2-y,1/2+z
loop_
_atom_site_type_symbol
_atom_site_label
_atom_site_fract_x
_atom_site_fract_y
_atom_site_fract_z
Si Si1 0.416436 0.877716 0.945339
Si Si2 0.436149 0.565929 0.152779
Si Si3 0.202906 0.314127 0.385850
O O1 0.552911 0.853585 0.879371
O O2 0.316688 0.796970 0.905152
O O3 0.370574 0.981695 0.916611
O O4 0.461715 0.881952 0.070362
O O5 0.487404 0.500000 0.250000
O O6 0.320808 0.641652 0.185406
O O7 0.250000 0.348295 0.500000
#
# Coordination Sequence:
#
# PCOD9531302 Si02
#       3
#    16  16  16
#     4   9  20  39  60  87 130 168 211 273 342 409
#     4  10  21  37  63  94 122 165 222 277 336 406
#     4   9  19  38  61  86 122 172 217 267 337 409
#
# _framework density 26.968637000000001
#
# number of rings (size 3 to 8) (size 9 to 14) (size 15 to 20)
#    0.000    2.667    0.000    0.000    0.000    9.333 
#    0.000   13.333    0.000   16.000    0.000    7.000 
#    0.000    0.000    0.000    0.000    0.000    0.000 
#
# Total GULP energy -133614.697487 kJ/mol
# GULP energy per Si atom -5567.279062 kJ/mol
# Density = 2.690726 g / cm^3
# Si number density = 26.968637 Si / 1000 Ang^3
#
#
#
# Elastic Constant Matrix: (Units=GPa)
#
#
# Indices 1 2 3 4 5 6 
#
# 1 73.9125 86.7581 22.6244 0.0000 0.0000 0.0000
# 2 86.7581 228.7380 52.2712 0.0000 0.0000 0.0000
# 3 22.6244 52.2712 130.4142 0.0001 0.0000 0.0000
# 4 0.0000 0.0000 0.0001 -15.5210 0.0000 0.0000
# 5 0.0000 0.0000 0.0000 0.0000 -6.8510 0.0000
# 6 0.0000 0.0000 0.0000 0.0000 0.0000 14.2056
#
#
#
# Elastic Compliance Matrix: (Units=1/GPa)
#
#
# Indices 1 2 3 4 5 6 
#
# 1 0.024426 -0.009133 -0.000577 0.000000 0.000000 0.000000
# 2 -0.009133 0.008227 -0.001713 0.000000 0.000000 0.000000
# 3 -0.000577 -0.001713 0.008455 0.000000 0.000000 0.000000
# 4 0.000000 0.000000 0.000000 -0.064429 0.000000 0.000000
# 5 0.000000 0.000000 0.000000 0.000000 -0.145965 0.000000
# 6 0.000000 0.000000 0.000000 0.000000 0.000000 0.070395
#
#
# Mechanical properties :
#
#
# Convention : Reuss Voigt Hill
#
# Bulk Modulus (GPa) = 54.75810 84.04135 69.39972
# Shear Modulus (GPa) = -71.47116 16.46081 -27.50518
#
# Velocity S-wave (km/s) = -5.15355 2.47324 -3.19704
# Velocity P-wave (km/s) = 3.88120 6.27584 3.48730
#
# Compressibility (1/GPa) = 0.01826214
#
# Stress axis : x y z
#
# Youngs Moduli (GPa) = 40.93996 121.54719 118.27818
#
# Poissons Ratio (x) = 1.11005 0.06824
# Poissons Ratio (y) = 0.37389 0.20264
# Poissons Ratio (z) = 0.02362 0.20824
#
# Static dielectric constant tensor:
#      x y z
#    x 2.185700 0.000000 0.000000 
#    y 0.000000 2.032430 0.000000 
#    z 0.000000 0.000000 2.313320 
# 
# From -- ./inp_files/9273.got.cif
#   From: 2010.05.17/outbox.cif.g08.bks.cpg/sg73_5_cif.got.tgz:9273.got - 2010.06.03 17:35:07.
