data_PCOD9531116
_publ_section_title
;
Structure prediction by ZEFSAII (Michael W. Deem and Ramdas Pophale) SiO2 
 PCOD9531116
Probable space group: I B C A 
;
_chemical_formula_sum "Si O2"
_cell_formula_units_Z 72
_cell_length_a 14.961687
_cell_length_b 18.402773
_cell_length_c 12.449834
_cell_angle_alpha 90.000000
_cell_angle_beta 90.000000
_cell_angle_gamma 90.000000
_cell_volume 3427.894087
_symmetry_space_group_name_H-M "I B C A "
_symmetry_group_IT_number 73
_symmetry_cell_setting 'orthorhombic'
loop_
_space_group_symop_operation_xyz
x,y,z
-x,1/2-y,z
x,-y,1/2-z
1/2-x,y,-z
-x,-y,-z
x,1/2+y,-z
-x,y,1/2+z
1/2+x,-y,z
1/2+x,1/2+y,1/2+z
1/2-x,-y,1/2+z
1/2+x,1/2-y,-z
-x,1/2+y,1/2-z
1/2-x,1/2-y,1/2-z
1/2+x,y,1/2-z
1/2-x,1/2+y,z
x,1/2-y,1/2+z
loop_
_atom_site_type_symbol
_atom_site_label
_atom_site_fract_x
_atom_site_fract_y
_atom_site_fract_z
Si Si1 0.750000 0.399028 0.500000
Si Si2 0.909311 0.978758 0.371360
Si Si3 0.500000 0.250000 0.593657
Si Si4 0.250000 0.646535 0.000000
Si Si5 0.439562 0.107271 0.969274
Si Si6 0.186451 0.229156 0.346425
O O1 0.827412 0.445679 0.558452
O O2 0.787042 0.343914 0.408984
O O3 0.992590 0.922864 0.379632
O O4 0.884124 0.000000 0.250000
O O5 0.942331 0.051181 0.431341
O O6 0.523915 0.183480 0.514141
O O7 0.418784 0.227026 0.670263
O O8 0.166759 0.607765 0.941145
O O9 0.299664 0.700613 0.920689
O O10 0.250000 0.250000 0.250000
#
# Coordination Sequence:
#
# PCOD9531116 Si02
#       6
#     8  16   8   8  16  16
#     4  11  23  46  64 102 146 184 244 306 348 464
#     4  11  25  43  69  98 141 190 235 293 378 433
#     4  10  20  42  72  96 140 178 236 308 348 420
#     4   9  21  40  64  94 134 170 230 296 344 424
#     4  10  22  45  64 100 136 175 240 299 348 448
#     4  10  22  40  66 101 135 180 234 293 369 417
#
# _framework density 21.004149999999999
#
# number of rings (size 3 to 8) (size 9 to 14) (size 15 to 20)
#    0.000    1.778    2.222    0.667    6.222    1.778 
#    0.000    3.333    0.000    0.000    0.000    0.000 
#    0.000    0.000    0.000    0.000    0.000    0.000 
#
# Total GULP energy -200674.989283 kJ/mol
# GULP energy per Si atom -5574.305258 kJ/mol
# Density = 2.095634 g / cm^3
# Si number density = 21.004150 Si / 1000 Ang^3
#
#
#
# Elastic Constant Matrix: (Units=GPa)
#
#
# Indices 1 2 3 4 5 6 
#
# 1 170.7258 57.0496 42.8148 0.0000 0.0000 0.0000
# 2 57.0496 121.0180 34.8369 0.0000 0.0000 0.0000
# 3 42.8148 34.8369 85.9768 0.0000 0.0000 0.0000
# 4 0.0000 0.0000 0.0000 41.1067 0.0000 0.0000
# 5 0.0000 0.0000 0.0000 0.0000 25.2920 0.0000
# 6 0.0000 0.0000 0.0000 0.0000 0.0000 48.8475
#
#
#
# Elastic Compliance Matrix: (Units=1/GPa)
#
#
# Indices 1 2 3 4 5 6 
#
# 1 0.007426 -0.002758 -0.002581 0.000000 0.000000 0.000000
# 2 -0.002758 0.010379 -0.002832 0.000000 0.000000 0.000000
# 3 -0.002581 -0.002832 0.014064 0.000000 0.000000 0.000000
# 4 0.000000 0.000000 0.000000 0.024327 0.000000 0.000000
# 5 0.000000 0.000000 0.000000 0.000000 0.039538 0.000000
# 6 0.000000 0.000000 0.000000 0.000000 0.000000 0.020472
#
#
# Mechanical properties :
#
#
# Convention : Reuss Voigt Hill
#
# Bulk Modulus (GPa) = 64.40204 71.90258 68.15231
# Shear Modulus (GPa) = 36.30510 39.25055 37.77782
#
# Velocity S-wave (km/s) = 4.16200 4.32754 4.24558
# Velocity P-wave (km/s) = 7.33652 7.69916 7.52002
#
# Compressibility (1/GPa) = 0.01552746
#
# Stress axis : x y z
#
# Youngs Moduli (GPa) = 134.66059 96.35258 71.10572
#
# Poissons Ratio (x) = 0.26573 0.18349
# Poissons Ratio (y) = 0.37138 0.20136
# Poissons Ratio (z) = 0.34750 0.27286
#
# Static dielectric constant tensor:
#      x y z
#    x 1.960200 0.000000 0.000000 
#    y 0.000000 1.773520 0.000000 
#    z 0.000000 0.000000 1.760210 
# 
# From -- ./inp_files/10685.got.cif
#   From: 2010.05.17/outbox.cif.g08.bks.cpg/sg73_6_cif.got.tgz:10685.got - 2010.06.03 17:35:07.
