data_PCOD9531538
_publ_section_title
;
Structure prediction by ZEFSAII (Michael W. Deem and Ramdas Pophale) SiO2 
 PCOD9531538
Probable space group: I B C A 
;
_chemical_formula_sum "Si O2"
_cell_formula_units_Z 88
_cell_length_a 22.477784
_cell_length_b 7.689615
_cell_length_c 22.732996
_cell_angle_alpha 90.000000
_cell_angle_beta 90.000000
_cell_angle_gamma 90.000000
_cell_volume 3929.296174
_symmetry_space_group_name_H-M "I B C A "
_symmetry_group_IT_number 73
_symmetry_cell_setting 'orthorhombic'
loop_
_space_group_symop_operation_xyz
x,y,z
-x,1/2-y,z
x,-y,1/2-z
1/2-x,y,-z
-x,-y,-z
x,1/2+y,-z
-x,y,1/2+z
1/2+x,-y,z
1/2+x,1/2+y,1/2+z
1/2-x,-y,1/2+z
1/2+x,1/2-y,-z
-x,1/2+y,1/2-z
1/2-x,1/2-y,1/2-z
1/2+x,y,1/2-z
1/2-x,1/2+y,z
x,1/2-y,1/2+z
loop_
_atom_site_type_symbol
_atom_site_label
_atom_site_fract_x
_atom_site_fract_y
_atom_site_fract_z
Si Si1 0.433440 0.047657 0.558375
Si Si2 0.345621 0.019641 0.185941
Si Si3 0.250000 0.634376 0.500000
Si Si4 0.680281 0.110857 0.422399
Si Si5 0.431236 0.049487 0.078012
Si Si6 0.217159 0.602527 0.690096
O O1 0.497934 0.032875 0.588839
O O2 0.414406 0.245504 0.572076
O O3 0.390538 0.893457 0.579805
O O4 0.431011 0.031508 0.487532
O O5 0.387940 0.986648 0.130136
O O6 0.316110 0.213285 0.183433
O O7 0.376063 0.000000 0.250000
O O8 0.289194 0.888731 0.188250
O O9 0.303628 0.521954 0.475351
O O10 0.278756 0.733153 0.555350
O O11 0.700913 0.020656 0.363619
O O12 0.201817 0.500000 0.750000
#
# Coordination Sequence:
#
# PCOD9531538 Si02
#       6
#    16  16   8  16  16  16
#     4  10  21  40  66  86 128 159 210 248 320 359
#     4  11  23  43  64  92 126 166 211 257 312 374
#     4  10  24  32  58  98 126 154 196 252 320 370
#     4  11  21  38  57  92 124 157 198 256 307 381
#     4  10  22  42  64  91 118 172 204 261 304 375
#     4  11  23  40  61  91 125 167 203 257 316 370
#
# _framework density 22.395866999999999
#
# number of rings (size 3 to 8) (size 9 to 14) (size 15 to 20)
#    0.000    1.455    1.818    4.364    5.091    0.000 
#    6.545    0.909    0.000    0.000    0.000    0.000 
#    0.000    0.000    0.000    0.000    0.000    0.000 
#
# Total GULP energy -245652.202700 kJ/mol
# GULP energy per Si atom -5583.004607 kJ/mol
# Density = 2.234489 g / cm^3
# Si number density = 22.395867 Si / 1000 Ang^3
#
#
#
# Elastic Constant Matrix: (Units=GPa)
#
#
# Indices 1 2 3 4 5 6 
#
# 1 91.9420 22.9753 36.9289 0.0000 0.0000 0.0000
# 2 22.9753 82.5640 17.0152 0.0000 0.0000 0.0000
# 3 36.9289 17.0152 122.8322 0.0000 0.0000 0.0000
# 4 0.0000 0.0000 0.0000 31.4129 0.0000 0.0000
# 5 0.0000 0.0000 0.0000 0.0000 38.2677 0.0000
# 6 0.0000 0.0000 0.0000 0.0000 0.0000 8.4160
#
#
#
# Elastic Compliance Matrix: (Units=1/GPa)
#
#
# Indices 1 2 3 4 5 6 
#
# 1 0.013010 -0.002897 -0.003510 0.000000 0.000000 0.000000
# 2 -0.002897 0.013113 -0.000945 0.000000 0.000000 0.000000
# 3 -0.003510 -0.000945 0.009327 0.000000 0.000000 0.000000
# 4 0.000000 0.000000 0.000000 0.031834 0.000000 0.000000
# 5 0.000000 0.000000 0.000000 0.000000 0.026132 0.000000
# 6 0.000000 0.000000 0.000000 0.000000 0.000000 0.118821
#
#
# Mechanical properties :
#
#
# Convention : Reuss Voigt Hill
#
# Bulk Modulus (GPa) = 48.20378 50.13077 49.16727
# Shear Modulus (GPa) = 21.38055 30.31390 25.84722
#
# Velocity S-wave (km/s) = 3.09312 3.68305 3.40090
# Velocity P-wave (km/s) = 5.85890 6.36546 6.11742
#
# Compressibility (1/GPa) = 0.02074526
#
# Stress axis : x y z
#
# Youngs Moduli (GPa) = 76.86264 76.26121 107.21020
#
# Poissons Ratio (x) = 0.22093 0.37632
# Poissons Ratio (y) = 0.22267 0.10136
# Poissons Ratio (z) = 0.26980 0.07210
#
# Static dielectric constant tensor:
#      x y z
#    x 1.957940 0.000000 0.000000 
#    y 0.000000 1.941180 0.000000 
#    z 0.000000 0.000000 1.835110 
# 
# From -- ./inp_files/27210.got.cif
#   From: 2010.05.17/outbox.cif.g08.bks.cpg/sg73_14_cif.got.tgz:27210.got - 2010.06.03 17:35:07.
