data_PCOD9531372
_publ_section_title
;
Structure prediction by ZEFSAII (Michael W. Deem and Ramdas Pophale) SiO2 
 PCOD9531372
Probable space group: I B C A 
;
_chemical_formula_sum "Si O2"
_cell_formula_units_Z 104
_cell_length_a 20.187181
_cell_length_b 8.657818
_cell_length_c 30.084319
_cell_angle_alpha 90.000000
_cell_angle_beta 90.000000
_cell_angle_gamma 90.000000
_cell_volume 5258.045188
_symmetry_space_group_name_H-M "I B C A "
_symmetry_group_IT_number 73
_symmetry_cell_setting 'orthorhombic'
loop_
_space_group_symop_operation_xyz
x,y,z
-x,1/2-y,z
x,-y,1/2-z
1/2-x,y,-z
-x,-y,-z
x,1/2+y,-z
-x,y,1/2+z
1/2+x,-y,z
1/2+x,1/2+y,1/2+z
1/2-x,-y,1/2+z
1/2+x,1/2-y,-z
-x,1/2+y,1/2-z
1/2-x,1/2-y,1/2-z
1/2+x,y,1/2-z
1/2-x,1/2+y,z
x,1/2-y,1/2+z
loop_
_atom_site_type_symbol
_atom_site_label
_atom_site_fract_x
_atom_site_fract_y
_atom_site_fract_z
Si Si1 0.186521 0.584042 0.203326
Si Si2 0.158948 0.926180 0.536177
Si Si3 0.565508 0.550327 0.875814
Si Si4 0.667748 0.454348 0.700919
Si Si5 0.546160 0.605732 0.531421
Si Si6 0.085017 0.078877 0.873119
Si Si7 0.750000 0.808912 0.500000
O O1 0.171294 0.500000 0.250000
O O2 0.261807 0.536274 0.192672
O O3 0.180497 0.769905 0.203956
O O4 0.134538 0.533705 0.165987
O O5 0.107857 0.858100 0.500193
O O6 0.118680 0.963531 0.580395
O O7 0.217717 0.799646 0.537977
O O8 0.193789 0.079721 0.518847
O O9 0.616461 0.499995 0.837667
O O10 0.573466 0.479929 0.924907
O O11 0.575996 0.735333 0.876864
O O12 0.488614 0.516284 0.865155
O O13 0.643202 0.500000 0.750000
O O14 0.500000 0.750000 0.543966
O O15 0.500000 0.500000 0.500000
#
# Coordination Sequence:
#
# PCOD9531372 Si02
#       7
#    16  16  16  16  16  16   8
#     4  10  21  39  62  91 118 167 209 251 320 384
#     4  11  22  39  59  87 121 164 203 257 312 363
#     4  10  22  40  60  95 121 161 208 256 317 368
#     4  10  21  41  65  89 125 162 206 264 314 381
#     4  12  23  40  64  90 123 168 215 257 309 385
#     4  10  21  38  64  86 125 160 206 258 316 374
#     4  10  24  38  56  86 124 156 208 254 310 366
#
# _framework density 19.779214
#
# number of rings (size 3 to 8) (size 9 to 14) (size 15 to 20)
#    0.000    1.538    1.538    4.615    0.000    5.538 
#    5.538    0.000    0.000    0.000    0.000    0.000 
#    0.000    0.000    0.000    0.000    0.000    0.000 
#
# Total GULP energy -290349.238457 kJ/mol
# GULP energy per Si atom -5583.639201 kJ/mol
# Density = 1.973420 g / cm^3
# Si number density = 19.779214 Si / 1000 Ang^3
#
#
#
# Elastic Constant Matrix: (Units=GPa)
#
#
# Indices 1 2 3 4 5 6 
#
# 1 116.8175 34.7519 97.2892 0.0000 0.0000 0.0000
# 2 34.7519 58.0997 32.4258 0.0000 0.0000 0.0000
# 3 97.2892 32.4258 161.4757 0.0000 0.0000 0.0000
# 4 0.0000 0.0000 0.0000 113.4317 0.0000 0.0000
# 5 0.0000 0.0000 0.0000 0.0000 43.9485 0.0000
# 6 0.0000 0.0000 0.0000 0.0000 0.0000 24.7330
#
#
#
# Elastic Compliance Matrix: (Units=1/GPa)
#
#
# Indices 1 2 3 4 5 6 
#
# 1 0.018617 -0.005491 -0.010114 0.000000 0.000000 0.000000
# 2 -0.005491 0.021004 -0.000909 0.000000 0.000000 0.000000
# 3 -0.010114 -0.000909 0.012469 0.000000 0.000000 0.000000
# 4 0.000000 0.000000 0.000000 0.008816 0.000000 0.000000
# 5 0.000000 0.000000 0.000000 0.000000 0.022754 0.000000
# 6 0.000000 0.000000 0.000000 0.000000 0.000000 0.040432
#
#
# Mechanical properties :
#
#
# Convention : Reuss Voigt Hill
#
# Bulk Modulus (GPa) = 52.46308 73.92520 63.19414
# Shear Modulus (GPa) = 30.58565 47.88439 39.23502
#
# Velocity S-wave (km/s) = 3.93664 4.92565 4.45865
# Velocity P-wave (km/s) = 6.87348 8.35498 7.65018
#
# Compressibility (1/GPa) = 0.01906102
#
# Stress axis : x y z
#
# Youngs Moduli (GPa) = 53.71309 47.61058 80.19622
#
# Poissons Ratio (x) = 0.26143 0.81113
# Poissons Ratio (y) = 0.29494 0.07293
# Poissons Ratio (z) = 0.54327 0.04330
#
# Static dielectric constant tensor:
#      x y z
#    x 1.708920 0.000000 0.000000 
#    y 0.000000 1.717300 0.000000 
#    z 0.000000 0.000000 1.671020 
# 
# From -- ./inp_files/34682.got.cif
#   From: 2010.05.17/outbox.cif.g08.bks.cpg/sg73_18_cif.got.tgz:34682.got - 2010.06.03 17:35:07.
