data_PCOD9531568
_publ_section_title
;
Structure prediction by ZEFSAII (Michael W. Deem and Ramdas Pophale) SiO2 
 PCOD9531568
Probable space group: I B C A 
;
_chemical_formula_sum "Si O2"
_cell_formula_units_Z 120
_cell_length_a 25.481656
_cell_length_b 26.094117
_cell_length_c 8.870696
_cell_angle_alpha 90.000000
_cell_angle_beta 90.000000
_cell_angle_gamma 90.000000
_cell_volume 5898.314832
_symmetry_space_group_name_H-M "I B C A "
_symmetry_group_IT_number 73
_symmetry_cell_setting 'orthorhombic'
loop_
_space_group_symop_operation_xyz
x,y,z
-x,1/2-y,z
x,-y,1/2-z
1/2-x,y,-z
-x,-y,-z
x,1/2+y,-z
-x,y,1/2+z
1/2+x,-y,z
1/2+x,1/2+y,1/2+z
1/2-x,-y,1/2+z
1/2+x,1/2-y,-z
-x,1/2+y,1/2-z
1/2-x,1/2-y,1/2-z
1/2+x,y,1/2-z
1/2-x,1/2+y,z
x,1/2-y,1/2+z
loop_
_atom_site_type_symbol
_atom_site_label
_atom_site_fract_x
_atom_site_fract_y
_atom_site_fract_z
Si Si1 0.464623 0.796457 0.435405
Si Si2 0.952076 0.026089 0.089246
Si Si3 0.250000 0.937107 0.500000
Si Si4 0.128617 0.769180 0.928678
Si Si5 0.344531 0.513308 0.416067
Si Si6 0.697097 0.724537 0.808515
Si Si7 0.450085 0.147213 0.367035
Si Si8 0.775269 0.110786 0.830980
O O1 0.500000 0.750000 0.367991
O O2 0.414789 0.770253 0.512217
O O3 0.450022 0.837016 0.307716
O O4 0.501018 0.824039 0.557119
O O5 0.955987 0.087513 0.103009
O O6 0.953335 0.000000 0.250000
O O7 0.894995 0.016151 0.019240
O O8 0.000000 0.000000 0.000000
O O9 0.252363 0.908746 0.330989
O O10 0.301377 0.973228 0.520030
O O11 0.183133 0.768026 0.017799
O O12 0.146302 0.750765 0.765857
O O13 0.102179 0.825234 0.932547
O O14 0.364487 0.500000 0.250000
O O15 0.314410 0.566166 0.382783
O O16 0.750000 0.750000 0.750000
O O17 0.699467 0.664124 0.779622
O O18 0.750000 0.122183 0.000000
#
# Coordination Sequence:
#
# PCOD9531568 Si02
#       8
#    16  16   8  16  16  16  16  16
#     4  10  21  40  70  99 126 170 226 282 328 415
#     4  12  27  46  67 100 140 181 229 293 358 423
#     4  10  24  46  76 108 136 186 248 300 342 424
#     4  11  23  44  67  98 140 177 234 276 342 419
#     4  10  23  47  72 100 137 178 241 296 344 420
#     4  12  26  44  63 101 146 185 225 287 344 421
#     4  11  23  44  69  97 131 176 222 278 353 409
#     4  11  24  44  74 104 140 189 235 295 364 414
#
# _framework density 20.344794
#
# number of rings (size 3 to 8) (size 9 to 14) (size 15 to 20)
#    0.000    1.067    2.000    4.400    5.600    0.000 
#   12.000    0.000    0.000    0.000    0.000    0.000 
#    0.000    0.000    0.000    0.000    0.000    0.000 
#
# Total GULP energy -334439.550304 kJ/mol
# GULP energy per Si atom -5573.992505 kJ/mol
# Density = 2.029849 g / cm^3
# Si number density = 20.344794 Si / 1000 Ang^3
#
#
#
# Elastic Constant Matrix: (Units=GPa)
#
#
# Indices 1 2 3 4 5 6 
#
# 1 87.5584 37.0911 52.5029 0.0000 0.0000 0.0000
# 2 37.0911 118.6284 38.5969 0.0000 0.0000 0.0000
# 3 52.5029 38.5969 114.3609 0.0000 0.0000 0.0000
# 4 0.0000 0.0000 0.0000 18.7325 0.0000 0.0000
# 5 0.0000 0.0000 0.0000 0.0000 45.7496 0.0000
# 6 0.0000 0.0000 0.0000 0.0000 0.0000 13.9335
#
#
#
# Elastic Compliance Matrix: (Units=1/GPa)
#
#
# Indices 1 2 3 4 5 6 
#
# 1 0.016694 -0.003062 -0.006631 0.000000 0.000000 0.000000
# 2 -0.003062 0.010031 -0.001980 0.000000 0.000000 0.000000
# 3 -0.006631 -0.001980 0.012457 0.000000 0.000000 0.000000
# 4 0.000000 0.000000 0.000000 0.053383 0.000000 0.000000
# 5 0.000000 0.000000 0.000000 0.000000 0.021858 0.000000
# 6 0.000000 0.000000 0.000000 0.000000 0.000000 0.071770
#
#
# Mechanical properties :
#
#
# Convention : Reuss Voigt Hill
#
# Bulk Modulus (GPa) = 63.14499 64.10327 63.62413
# Shear Modulus (GPa) = 23.27558 28.50690 25.89124
#
# Velocity S-wave (km/s) = 3.38606 3.74731 3.57125
# Velocity P-wave (km/s) = 6.81117 7.09224 6.95313
#
# Compressibility (1/GPa) = 0.01583657
#
# Stress axis : x y z
#
# Youngs Moduli (GPa) = 59.90095 99.68824 80.27912
#
# Poissons Ratio (x) = 0.30528 0.53231
# Poissons Ratio (y) = 0.18344 0.15892
# Poissons Ratio (z) = 0.39719 0.19735
#
# Static dielectric constant tensor:
#      x y z
#    x 1.702420 0.000000 0.000000 
#    y 0.000000 1.726960 0.000000 
#    z 0.000000 0.000000 1.728480 
# 
# From -- ./inp_files/7373.got.cif
#   From: 2010.05.17/outbox.cif.g08.bks.cpg/sg73_4_cif.got.tgz:7373.got - 2010.06.03 17:35:07.
