data_PCOD9531905
_publ_section_title
;
Structure prediction by ZEFSAII (Michael W. Deem and Ramdas Pophale) SiO2 
 PCOD9531905
Probable space group: I B C A 
;
_chemical_formula_sum "Si O2"
_cell_formula_units_Z 80
_cell_length_a 28.580742
_cell_length_b 7.869168
_cell_length_c 16.782286
_cell_angle_alpha 90.000000
_cell_angle_beta 90.000000
_cell_angle_gamma 90.000000
_cell_volume 3774.447898
_symmetry_space_group_name_H-M "I B C A "
_symmetry_group_IT_number 73
_symmetry_cell_setting 'orthorhombic'
loop_
_space_group_symop_operation_xyz
x,y,z
-x,1/2-y,z
x,-y,1/2-z
1/2-x,y,-z
-x,-y,-z
x,1/2+y,-z
-x,y,1/2+z
1/2+x,-y,z
1/2+x,1/2+y,1/2+z
1/2-x,-y,1/2+z
1/2+x,1/2-y,-z
-x,1/2+y,1/2-z
1/2-x,1/2-y,1/2-z
1/2+x,y,1/2-z
1/2-x,1/2+y,z
x,1/2-y,1/2+z
loop_
_atom_site_type_symbol
_atom_site_label
_atom_site_fract_x
_atom_site_fract_y
_atom_site_fract_z
Si Si1 0.601481 0.080912 0.335029
Si Si2 0.447007 0.050874 0.340438
Si Si3 0.750000 0.415543 0.500000
Si Si4 0.320374 0.679099 0.067283
Si Si5 0.406405 0.745505 0.943544
Si Si6 0.000000 0.750000 0.951548
O O1 0.574012 0.259028 0.340521
O O2 0.654307 0.144185 0.350304
O O3 0.592446 0.000000 0.250000
O O4 0.595503 0.927022 0.398766
O O5 0.492086 0.082353 0.396431
O O6 0.458205 0.000000 0.250000
O O7 0.413186 0.910863 0.381148
O O8 0.708038 0.516833 0.538999
O O9 0.778384 0.312699 0.566442
O O10 0.361712 0.721471 0.002383
O O11 0.453678 0.740104 0.995394
#
# Coordination Sequence:
#
# PCOD9531905 Si02
#       6
#    16  16   8  16  16   8
#     4  12  25  46  73 103 144 190 231 294 367 420
#     4  12  27  45  67 102 146 190 233 292 354 421
#     4  10  22  38  76 104 132 178 238 298 350 416
#     4  11  21  44  71 104 137 179 238 292 350 421
#     4  12  25  47  74 104 139 188 244 295 345 428
#     4  12  28  46  74 106 140 192 246 288 350 426
#
# _framework density 21.195150999999999
#
# number of rings (size 3 to 8) (size 9 to 14) (size 15 to 20)
#    0.000    0.400    6.000    3.000    2.800    1.600 
#    0.000    1.000    0.000    0.000    0.000    0.000 
#    0.000    0.000    0.000    0.000    0.000    0.000 
#
# Total GULP energy -223291.502188 kJ/mol
# GULP energy per Si atom -5582.287555 kJ/mol
# Density = 2.114691 g / cm^3
# Si number density = 21.195151 Si / 1000 Ang^3
#
#
#
# Elastic Constant Matrix: (Units=GPa)
#
#
# Indices 1 2 3 4 5 6 
#
# 1 130.2965 49.2099 31.6571 0.0000 0.0000 0.0000
# 2 49.2099 138.3185 42.8373 0.0000 0.0000 0.0000
# 3 31.6571 42.8373 96.9198 0.0000 0.0000 0.0000
# 4 0.0000 0.0000 0.0000 45.0093 0.0000 0.0000
# 5 0.0000 0.0000 0.0000 0.0000 9.8361 0.0000
# 6 0.0000 0.0000 0.0000 0.0000 0.0000 11.2892
#
#
#
# Elastic Compliance Matrix: (Units=1/GPa)
#
#
# Indices 1 2 3 4 5 6 
#
# 1 0.009127 -0.002692 -0.001791 0.000000 0.000000 0.000000
# 2 -0.002692 0.009170 -0.003174 0.000000 0.000000 0.000000
# 3 -0.001791 -0.003174 0.012306 0.000000 0.000000 0.000000
# 4 0.000000 0.000000 0.000000 0.022218 0.000000 0.000000
# 5 0.000000 0.000000 0.000000 0.000000 0.101667 0.000000
# 6 0.000000 0.000000 0.000000 0.000000 0.000000 0.088580
#
#
# Mechanical properties :
#
#
# Convention : Reuss Voigt Hill
#
# Bulk Modulus (GPa) = 65.40936 68.10481 66.75709
# Shear Modulus (GPa) = 18.97689 29.34894 24.16291
#
# Velocity S-wave (km/s) = 2.99547 3.72519 3.38008
# Velocity P-wave (km/s) = 6.54915 7.12073 6.84091
#
# Compressibility (1/GPa) = 0.01528833
#
# Stress axis : x y z
#
# Youngs Moduli (GPa) = 109.56720 109.04543 81.26356
#
# Poissons Ratio (x) = 0.29359 0.14555
# Poissons Ratio (y) = 0.29499 0.25792
# Poissons Ratio (z) = 0.19625 0.34609
#
# Static dielectric constant tensor:
#      x y z
#    x 1.780420 0.000000 0.000000 
#    y 0.000000 1.867010 0.000000 
#    z 0.000000 0.000000 1.786970 
# 
# From -- ./inp_files/24088.got.cif
#   From: 2010.05.17/outbox.cif.g08.bks.cpg/sg73_13_cif.got.tgz:24088.got - 2010.06.03 17:35:07.
