data_PCOD9531054
_publ_section_title
;
Structure prediction by ZEFSAII (Michael W. Deem and Ramdas Pophale) SiO2 
 PCOD9531054
Probable space group: I B C A 
;
_chemical_formula_sum "Si O2"
_cell_formula_units_Z 72
_cell_length_a 16.665035
_cell_length_b 8.903693
_cell_length_c 20.299123
_cell_angle_alpha 90.000000
_cell_angle_beta 90.000000
_cell_angle_gamma 90.000000
_cell_volume 3011.991087
_symmetry_space_group_name_H-M "I B C A "
_symmetry_group_IT_number 73
_symmetry_cell_setting 'orthorhombic'
loop_
_space_group_symop_operation_xyz
x,y,z
-x,1/2-y,z
x,-y,1/2-z
1/2-x,y,-z
-x,-y,-z
x,1/2+y,-z
-x,y,1/2+z
1/2+x,-y,z
1/2+x,1/2+y,1/2+z
1/2-x,-y,1/2+z
1/2+x,1/2-y,-z
-x,1/2+y,1/2-z
1/2-x,1/2-y,1/2-z
1/2+x,y,1/2-z
1/2-x,1/2+y,z
x,1/2-y,1/2+z
loop_
_atom_site_type_symbol
_atom_site_label
_atom_site_fract_x
_atom_site_fract_y
_atom_site_fract_z
Si Si1 0.986971 0.472130 0.907233
Si Si2 0.000000 0.250000 0.787112
Si Si3 0.250000 0.319568 0.000000
Si Si4 0.000000 0.750000 0.479263
Si Si5 0.170727 0.668227 0.776626
Si Si6 0.331001 0.573177 0.077361
O O1 0.979533 0.390222 0.836924
O O2 0.081489 0.502397 0.915323
O O3 0.961509 0.361297 0.965870
O O4 0.954408 0.636000 0.928746
O O5 0.081737 0.271762 0.744685
O O6 0.224221 0.432085 0.942001
O O7 0.316790 0.202762 0.976125
O O8 0.170997 0.500000 0.750000
O O9 0.250000 0.750000 0.750000
O O10 0.184407 0.653154 0.853986
#
# Coordination Sequence:
#
# PCOD9531054 Si02
#       6
#    16   8   8   8  16  16
#     4  10  20  41  68 104 149 191 255 309 377 459
#     4  11  26  49  76 108 158 206 258 316 390 479
#     4  10  24  42  74 112 142 210 252 330 408 454
#     4   9  20  37  66 106 138 196 244 314 378 439
#     4  12  27  52  77 113 154 208 263 320 390 478
#     4  11  22  44  71 105 152 193 262 320 390 471
#
# _framework density 23.904453
#
# number of rings (size 3 to 8) (size 9 to 14) (size 15 to 20)
#    0.000    1.333    2.222    2.667    0.000    1.778 
#   16.000    0.000    0.000    0.000    0.000    0.000 
#    0.000    0.000    0.000    0.000    0.000    0.000 
#
# Total GULP energy -200787.822880 kJ/mol
# GULP energy per Si atom -5577.439524 kJ/mol
# Density = 2.385004 g / cm^3
# Si number density = 23.904453 Si / 1000 Ang^3
#
#
#
# Elastic Constant Matrix: (Units=GPa)
#
#
# Indices 1 2 3 4 5 6 
#
# 1 159.6837 68.6769 52.8779 0.0000 0.0000 0.0000
# 2 68.6769 169.5283 56.5154 0.0000 0.0000 0.0000
# 3 52.8779 56.5154 132.3265 0.0000 0.0000 0.0000
# 4 0.0000 0.0000 0.0000 41.5457 0.0000 0.0000
# 5 0.0000 0.0000 0.0000 0.0000 42.3625 0.0000
# 6 0.0000 0.0000 0.0000 0.0000 0.0000 43.6781
#
#
#
# Elastic Compliance Matrix: (Units=1/GPa)
#
#
# Indices 1 2 3 4 5 6 
#
# 1 0.008068 -0.002558 -0.002132 0.000000 0.000000 0.000000
# 2 -0.002558 0.007689 -0.002262 0.000000 0.000000 0.000000
# 3 -0.002132 -0.002262 0.009375 0.000000 0.000000 0.000000
# 4 0.000000 0.000000 0.000000 0.024070 0.000000 0.000000
# 5 0.000000 0.000000 0.000000 0.000000 0.023606 0.000000
# 6 0.000000 0.000000 0.000000 0.000000 0.000000 0.022895
#
#
# Mechanical properties :
#
#
# Convention : Reuss Voigt Hill
#
# Bulk Modulus (GPa) = 89.05092 90.85322 89.95207
# Shear Modulus (GPa) = 44.11178 44.41514 44.26346
#
# Velocity S-wave (km/s) = 4.30040 4.31516 4.30779
# Velocity P-wave (km/s) = 7.87348 7.93201 7.90280
#
# Compressibility (1/GPa) = 0.01122953
#
# Stress axis : x y z
#
# Youngs Moduli (GPa) = 123.94064 130.05706 106.66838
#
# Poissons Ratio (x) = 0.33267 0.22738
# Poissons Ratio (y) = 0.31703 0.24125
# Poissons Ratio (z) = 0.26420 0.29415
#
# Static dielectric constant tensor:
#      x y z
#    x 2.398200 0.000000 0.000000 
#    y 0.000000 2.031730 0.000000 
#    z 0.000000 0.000000 1.696680 
# 
# From -- ./inp_files/6049.got.cif
#   From: 2010.05.17/outbox.cif.g08.bks.cpg/sg73_4_cif.got.tgz:6049.got - 2010.06.03 17:35:07.
