data_PCOD9531259
_publ_section_title
;
Structure prediction by ZEFSAII (Michael W. Deem and Ramdas Pophale) SiO2 
 PCOD9531259
Probable space group: I B C A 
;
_chemical_formula_sum "Si O2"
_cell_formula_units_Z 64
_cell_length_a 28.312179
_cell_length_b 18.255036
_cell_length_c 5.336288
_cell_angle_alpha 90.000000
_cell_angle_beta 90.000000
_cell_angle_gamma 90.000000
_cell_volume 2758.006273
_symmetry_space_group_name_H-M "I B C A "
_symmetry_group_IT_number 73
_symmetry_cell_setting 'orthorhombic'
loop_
_space_group_symop_operation_xyz
x,y,z
-x,1/2-y,z
x,-y,1/2-z
1/2-x,y,-z
-x,-y,-z
x,1/2+y,-z
-x,y,1/2+z
1/2+x,-y,z
1/2+x,1/2+y,1/2+z
1/2-x,-y,1/2+z
1/2+x,1/2-y,-z
-x,1/2+y,1/2-z
1/2-x,1/2-y,1/2-z
1/2+x,y,1/2-z
1/2-x,1/2+y,z
x,1/2-y,1/2+z
loop_
_atom_site_type_symbol
_atom_site_label
_atom_site_fract_x
_atom_site_fract_y
_atom_site_fract_z
Si Si1 0.571744 0.775263 0.124807
Si Si2 0.677886 0.215470 0.937883
Si Si3 0.807280 0.542937 0.999342
Si Si4 0.530734 0.081103 0.219693
O O1 0.549151 0.728636 0.349721
O O2 0.568959 0.857182 0.225338
O O3 0.623698 0.743206 0.081380
O O4 0.698878 0.260235 0.171419
O O5 0.679525 0.128767 0.985577
O O6 0.823717 0.500000 0.750000
O O7 0.822888 0.500000 0.250000
O O8 0.750000 0.541416 0.000000
O O9 0.491913 0.087804 0.443583
O O10 0.550947 0.000000 0.250000
#
# Coordination Sequence:
#
# PCOD9531259 Si02
#       4
#    16  16  16  16
#     4  10  21  37  55  82 115 149 190 233 287 346
#     4  10  21  38  58  86 121 156 198 243 296 357
#     4  10  21  38  61  89 121 157 197 243 295 353
#     4  10  21  37  58  83 111 147 191 239 290 343
#
# _framework density 23.205169000000001
#
# number of rings (size 3 to 8) (size 9 to 14) (size 15 to 20)
#    0.000    2.000    0.000    3.000    0.000    4.000 
#    0.000   15.000    0.000    0.000    0.000    0.000 
#    0.000    0.000    0.000    0.000    0.000    0.000 
#
# Total GULP energy -178745.619942 kJ/mol
# GULP energy per Si atom -5585.800623 kJ/mol
# Density = 2.315235 g / cm^3
# Si number density = 23.205169 Si / 1000 Ang^3
#
#
#
# Elastic Constant Matrix: (Units=GPa)
#
#
# Indices 1 2 3 4 5 6 
#
# 1 60.3945 16.7525 6.8730 0.0000 0.0000 0.0000
# 2 16.7525 222.2400 78.6478 0.0000 0.0000 0.0000
# 3 6.8730 78.6478 214.1223 0.0000 0.0000 0.0000
# 4 0.0000 0.0000 0.0000 44.7406 0.0000 0.0000
# 5 0.0000 0.0000 0.0000 0.0000 -3.5080 0.0000
# 6 0.0000 0.0000 0.0000 0.0000 0.0000 43.8797
#
#
#
# Elastic Compliance Matrix: (Units=1/GPa)
#
#
# Indices 1 2 3 4 5 6 
#
# 1 0.016913 -0.001245 -0.000086 0.000000 0.000000 0.000000
# 2 -0.001245 0.005263 -0.001893 0.000000 0.000000 0.000000
# 3 -0.000086 -0.001893 0.005368 0.000000 0.000000 0.000000
# 4 0.000000 0.000000 0.000000 0.022351 0.000000 0.000000
# 5 0.000000 0.000000 0.000000 0.000000 -0.285061 0.000000
# 6 0.000000 0.000000 0.000000 0.000000 0.000000 0.022790
#
#
# Mechanical properties :
#
#
# Convention : Reuss Voigt Hill
#
# Bulk Modulus (GPa) = 47.39924 77.92261 62.66093
# Shear Modulus (GPa) = -25.13876 43.32134 9.09129
#
# Velocity S-wave (km/s) = -3.29496 4.32543 1.98149
# Velocity P-wave (km/s) = 2.44843 7.65497 5.68302
#
# Compressibility (1/GPa) = 0.02109738
#
# Stress axis : x y z
#
# Youngs Moduli (GPa) = 59.12694 189.98816 186.27481
#
# Poissons Ratio (x) = 0.23645 0.01597
# Poissons Ratio (y) = 0.07359 0.35268
# Poissons Ratio (z) = 0.00507 0.35971
#
# Static dielectric constant tensor:
#      x y z
#    x 1.420660 0.000000 0.000000 
#    y 0.000000 1.838570 0.000000 
#    z 0.000000 0.000000 1.998840 
# 
# From -- ./inp_files/2919.got.cif
#   From: 2010.05.17/outbox.cif.g08.bks.cpg/sg73_2_cif.got.tgz:2919.got - 2010.06.03 17:35:07.
