data_PCOD9531254
_publ_section_title
;
Structure prediction by ZEFSAII (Michael W. Deem and Ramdas Pophale) SiO2 
 PCOD9531254
Probable space group: I B C A 
;
_chemical_formula_sum "Si O2"
_cell_formula_units_Z 64
_cell_length_a 15.259387
_cell_length_b 7.980237
_cell_length_c 21.020006
_cell_angle_alpha 90.000000
_cell_angle_beta 90.000000
_cell_angle_gamma 90.000000
_cell_volume 2559.680221
_symmetry_space_group_name_H-M "I B C A "
_symmetry_group_IT_number 73
_symmetry_cell_setting 'orthorhombic'
loop_
_space_group_symop_operation_xyz
x,y,z
-x,1/2-y,z
x,-y,1/2-z
1/2-x,y,-z
-x,-y,-z
x,1/2+y,-z
-x,y,1/2+z
1/2+x,-y,z
1/2+x,1/2+y,1/2+z
1/2-x,-y,1/2+z
1/2+x,1/2-y,-z
-x,1/2+y,1/2-z
1/2-x,1/2-y,1/2-z
1/2+x,y,1/2-z
1/2-x,1/2+y,z
x,1/2-y,1/2+z
loop_
_atom_site_type_symbol
_atom_site_label
_atom_site_fract_x
_atom_site_fract_y
_atom_site_fract_z
Si Si1 0.352096 0.198624 0.760728
Si Si2 0.870840 0.183493 0.371874
Si Si3 0.916621 0.842273 0.396304
Si Si4 0.256551 0.052318 0.569383
O O1 0.250000 0.250000 0.750000
O O2 0.396817 0.281565 0.699495
O O3 0.393578 0.271683 0.825516
O O4 0.360305 0.000000 0.750000
O O5 0.565062 0.542339 0.398727
O O6 0.842991 0.351259 0.408726
O O7 0.780381 0.070947 0.375967
O O8 0.826483 0.818873 0.434085
O O9 0.000000 0.750000 0.422434
O O10 0.250000 0.973851 0.500000
#
# Coordination Sequence:
#
# PCOD9531254 Si02
#       4
#    16  16  16  16
#     4  12  21  36  64  99 131 173 220 273 340 421
#     4  10  21  36  68  93 128 173 228 269 340 403
#     4  10  24  41  63  96 139 163 217 288 349 397
#     4  10  21  39  68  92 126 178 238 273 324 403
#
# _framework density 25.003124
#
# number of rings (size 3 to 8) (size 9 to 14) (size 15 to 20)
#    1.500    0.000    2.500    4.500    0.000    2.000 
#    0.000    1.250    0.000    0.000    0.000    0.000 
#    0.000    0.000    0.000    0.000    0.000    0.000 
#
# Total GULP energy -178418.143030 kJ/mol
# GULP energy per Si atom -5575.566970 kJ/mol
# Density = 2.494622 g / cm^3
# Si number density = 25.003124 Si / 1000 Ang^3
#
#
#
# Elastic Constant Matrix: (Units=GPa)
#
#
# Indices 1 2 3 4 5 6 
#
# 1 73.1270 1.6481 -0.7668 0.0000 0.0000 0.0000
# 2 1.6481 94.5222 20.7332 0.0000 0.0000 0.0000
# 3 -0.7668 20.7332 94.6157 0.0000 0.0000 0.0000
# 4 0.0000 0.0000 0.0000 40.4795 0.0000 0.0000
# 5 0.0000 0.0000 0.0000 0.0000 1.3118 0.0000
# 6 0.0000 0.0000 0.0000 0.0000 0.0000 24.5822
#
#
#
# Elastic Compliance Matrix: (Units=1/GPa)
#
#
# Indices 1 2 3 4 5 6 
#
# 1 0.013683 -0.000276 0.000171 0.000000 0.000000 0.000000
# 2 -0.000276 0.011119 -0.002439 0.000000 0.000000 0.000000
# 3 0.000171 -0.002439 0.011105 0.000000 0.000000 0.000000
# 4 0.000000 0.000000 0.000000 0.024704 0.000000 0.000000
# 5 0.000000 0.000000 0.000000 0.000000 0.762304 0.000000
# 6 0.000000 0.000000 0.000000 0.000000 0.000000 0.040680
#
#
# Mechanical properties :
#
#
# Convention : Reuss Voigt Hill
#
# Bulk Modulus (GPa) = 32.44660 33.94377 33.19518
# Shear Modulus (GPa) = 5.68857 29.31807 17.50332
#
# Velocity S-wave (km/s) = 1.50999 3.42800 2.64871
# Velocity P-wave (km/s) = 4.00566 5.41051 4.76019
#
# Compressibility (1/GPa) = 0.03081987
#
# Stress axis : x y z
#
# Youngs Moduli (GPa) = 73.08409 89.93380 90.05050
#
# Poissons Ratio (x) = 0.02484 -0.01544
# Poissons Ratio (y) = 0.02018 0.21962
# Poissons Ratio (z) = -0.01253 0.21933
#
# Static dielectric constant tensor:
#      x y z
#    x 2.040670 0.000000 0.000000 
#    y 0.000000 2.159360 0.000000 
#    z 0.000000 0.000000 1.925230 
# 
# From -- ./inp_files/32291.got.cif
#   From: 2010.05.17/outbox.cif.g08.bks.cpg/sg73_17_cif.got.tgz:32291.got - 2010.06.03 17:35:07.
