data_PCOD9531500
_publ_section_title
;
Structure prediction by ZEFSAII (Michael W. Deem and Ramdas Pophale) SiO2 
 PCOD9531500
Probable space group: I B C A 
;
_chemical_formula_sum "Si O2"
_cell_formula_units_Z 120
_cell_length_a 11.275770
_cell_length_b 24.126925
_cell_length_c 22.912636
_cell_angle_alpha 90.000000
_cell_angle_beta 90.000000
_cell_angle_gamma 90.000000
_cell_volume 6233.374767
_symmetry_space_group_name_H-M "I B C A "
_symmetry_group_IT_number 73
_symmetry_cell_setting 'orthorhombic'
loop_
_space_group_symop_operation_xyz
x,y,z
-x,1/2-y,z
x,-y,1/2-z
1/2-x,y,-z
-x,-y,-z
x,1/2+y,-z
-x,y,1/2+z
1/2+x,-y,z
1/2+x,1/2+y,1/2+z
1/2-x,-y,1/2+z
1/2+x,1/2-y,-z
-x,1/2+y,1/2-z
1/2-x,1/2-y,1/2-z
1/2+x,y,1/2-z
1/2-x,1/2+y,z
x,1/2-y,1/2+z
loop_
_atom_site_type_symbol
_atom_site_label
_atom_site_fract_x
_atom_site_fract_y
_atom_site_fract_z
Si Si1 0.045602 0.312288 0.155006
Si Si2 0.146423 0.157781 0.546367
Si Si3 0.016169 0.065510 0.003099
Si Si4 0.416465 0.350520 0.597029
Si Si5 0.798830 0.938113 0.772856
Si Si6 0.459501 0.376951 0.728658
Si Si7 0.000000 0.250000 0.979125
Si Si8 0.842879 0.893346 0.894233
O O1 0.159890 0.326815 0.114509
O O2 0.056431 0.330286 0.221838
O O3 0.000000 0.250000 0.151308
O O4 0.945963 0.351672 0.125826
O O5 0.250000 0.158891 0.500000
O O6 0.089331 0.097196 0.537230
O O7 0.066373 0.207822 0.521824
O O8 0.031028 0.099079 0.942551
O O9 0.127259 0.078945 0.044559
O O10 0.000000 0.000000 0.000000
O O11 0.466042 0.354342 0.662612
O O12 0.434512 0.292840 0.563684
O O13 0.277067 0.359762 0.601065
O O14 0.665819 0.911537 0.766288
O O15 0.826558 0.936666 0.841958
O O16 0.914795 0.907806 0.743708
O O17 0.794031 0.000000 0.750000
#
# Coordination Sequence:
#
# PCOD9531500 Si02
#       8
#    16  16  16  16  16  16   8  16
#     4  10  21  40  62  88 124 163 205 258 314 377
#     4  10  22  38  59  89 117 158 212 251 315 379
#     4  10  22  39  60  89 121 158 199 266 314 376
#     4  10  22  39  60  91 124 157 212 255 317 382
#     4  10  21  41  64  87 125 168 212 262 317 381
#     4  10  23  40  61  96 124 165 217 259 320 384
#     4  10  22  36  58  86 118 158 200 262 310 370
#     4   9  21  40  59  88 118 163 209 249 316 386
#
# _framework density 19.251208999999999
#
# number of rings (size 3 to 8) (size 9 to 14) (size 15 to 20)
#    0.000    2.133    0.667    0.800    4.667    3.200 
#    7.200    2.000    0.000    0.000    0.000    0.000 
#    0.000    0.000    0.000    0.000    0.000    0.000 
#
# Total GULP energy -334152.931444 kJ/mol
# GULP energy per Si atom -5569.215524 kJ/mol
# Density = 1.920739 g / cm^3
# Si number density = 19.251209 Si / 1000 Ang^3
#
#
#
# Elastic Constant Matrix: (Units=GPa)
#
#
# Indices 1 2 3 4 5 6 
#
# 1 32.3383 2.6802 2.5209 0.0000 0.0000 0.0000
# 2 2.6802 118.9324 48.6760 0.0000 0.0000 0.0000
# 3 2.5209 48.6760 144.0575 0.0000 0.0000 0.0000
# 4 0.0000 0.0000 0.0000 15.3515 0.0000 0.0000
# 5 0.0000 0.0000 0.0000 0.0000 21.1254 0.0000
# 6 0.0000 0.0000 0.0000 0.0000 0.0000 9.4064
#
#
#
# Elastic Compliance Matrix: (Units=1/GPa)
#
#
# Indices 1 2 3 4 5 6 
#
# 1 0.030997 -0.000553 -0.000356 0.000000 0.000000 0.000000
# 2 -0.000553 0.009767 -0.003291 0.000000 0.000000 0.000000
# 3 -0.000356 -0.003291 0.008060 0.000000 0.000000 0.000000
# 4 0.000000 0.000000 0.000000 0.065140 0.000000 0.000000
# 5 0.000000 0.000000 0.000000 0.000000 0.047336 0.000000
# 6 0.000000 0.000000 0.000000 0.000000 0.000000 0.106311
#
#
# Mechanical properties :
#
#
# Convention : Reuss Voigt Hill
#
# Bulk Modulus (GPa) = 24.73695 44.78695 34.76195
# Shear Modulus (GPa) = 17.27205 25.27338 21.27272
#
# Velocity S-wave (km/s) = 2.99857 3.62722 3.32777
# Velocity P-wave (km/s) = 4.98658 6.39197 5.73251
#
# Compressibility (1/GPa) = 0.04042535
#
# Stress axis : x y z
#
# Youngs Moduli (GPa) = 32.26156 102.38155 124.07280
#
# Poissons Ratio (x) = 0.05662 0.04412
# Poissons Ratio (y) = 0.01784 0.40828
# Poissons Ratio (z) = 0.01147 0.33690
#
# Static dielectric constant tensor:
#      x y z
#    x 1.844290 0.000000 0.000000 
#    y 0.000000 1.626930 0.000000 
#    z 0.000000 0.000000 1.715050 
# 
# From -- ./inp_files/25637.got.cif
#   From: 2010.05.17/outbox.cif.g08.bks.cpg/sg73_13_cif.got.tgz:25637.got - 2010.06.03 17:35:07.
