data_PCOD9531572
_publ_section_title
;
Structure prediction by ZEFSAII (Michael W. Deem and Ramdas Pophale) SiO2 
 PCOD9531572
Probable space group: I B C A 
;
_chemical_formula_sum "Si O2"
_cell_formula_units_Z 64
_cell_length_a 16.192280
_cell_length_b 16.831244
_cell_length_c 10.167854
_cell_angle_alpha 90.000000
_cell_angle_beta 90.000000
_cell_angle_gamma 90.000000
_cell_volume 2771.108450
_symmetry_space_group_name_H-M "I B C A "
_symmetry_group_IT_number 73
_symmetry_cell_setting 'orthorhombic'
loop_
_space_group_symop_operation_xyz
x,y,z
-x,1/2-y,z
x,-y,1/2-z
1/2-x,y,-z
-x,-y,-z
x,1/2+y,-z
-x,y,1/2+z
1/2+x,-y,z
1/2+x,1/2+y,1/2+z
1/2-x,-y,1/2+z
1/2+x,1/2-y,-z
-x,1/2+y,1/2-z
1/2-x,1/2-y,1/2-z
1/2+x,y,1/2-z
1/2-x,1/2+y,z
x,1/2-y,1/2+z
loop_
_atom_site_type_symbol
_atom_site_label
_atom_site_fract_x
_atom_site_fract_y
_atom_site_fract_z
Si Si1 0.562968 0.406879 0.748598
Si Si2 0.771550 0.325701 0.346865
Si Si3 0.618357 0.342056 0.232550
Si Si4 0.082206 0.714747 0.966108
O O1 0.576797 0.500000 0.750000
O O2 0.637292 0.363205 0.669314
O O3 0.467531 0.388772 0.710341
O O4 0.570912 0.368028 0.892499
O O5 0.750000 0.314689 0.500000
O O6 0.699907 0.384726 0.287918
O O7 0.861759 0.197708 0.408879
O O8 0.750000 0.250000 0.250000
O O9 0.598566 0.277723 0.348798
O O10 0.000000 0.750000 0.030234
#
# Coordination Sequence:
#
# PCOD9531572 Si02
#       4
#    16  16  16  16
#     4  11  27  46  68 104 148 185 235 289 354 423
#     4  12  27  45  75 108 139 181 241 294 349 416
#     4  11  24  43  75 104 138 184 235 291 349 411
#     4  10  21  40  72 104 138 175 237 285 345 410
#
# _framework density 23.09545
#
# number of rings (size 3 to 8) (size 9 to 14) (size 15 to 20)
#    0.000    1.000    2.500    3.750    7.000    2.000 
#    4.500    0.000    0.000    0.000    0.000    0.000 
#    0.000    0.000    0.000    0.000    0.000    0.000 
#
# Total GULP energy -178294.458715 kJ/mol
# GULP energy per Si atom -5571.701835 kJ/mol
# Density = 2.304288 g / cm^3
# Si number density = 23.095450 Si / 1000 Ang^3
#
#
#
# Elastic Constant Matrix: (Units=GPa)
#
#
# Indices 1 2 3 4 5 6 
#
# 1 175.3459 38.5085 44.3727 0.0000 0.0000 0.0000
# 2 38.5085 111.7755 28.2780 0.0000 0.0000 0.0000
# 3 44.3727 28.2780 140.2144 0.0000 0.0000 0.0000
# 4 0.0000 0.0000 0.0000 13.2020 0.0000 0.0000
# 5 0.0000 0.0000 0.0000 0.0000 52.5241 0.0000
# 6 0.0000 0.0000 0.0000 0.0000 0.0000 14.3050
#
#
#
# Elastic Compliance Matrix: (Units=1/GPa)
#
#
# Indices 1 2 3 4 5 6 
#
# 1 0.006533 -0.001821 -0.001700 0.000000 0.000000 0.000000
# 2 -0.001821 0.009935 -0.001427 0.000000 0.000000 0.000000
# 3 -0.001700 -0.001427 0.007958 0.000000 0.000000 0.000000
# 4 0.000000 0.000000 0.000000 0.075746 0.000000 0.000000
# 5 0.000000 0.000000 0.000000 0.000000 0.019039 0.000000
# 6 0.000000 0.000000 0.000000 0.000000 0.000000 0.069905
#
#
# Mechanical properties :
#
#
# Convention : Reuss Voigt Hill
#
# Bulk Modulus (GPa) = 68.82740 72.18381 70.50560
# Shear Modulus (GPa) = 24.52706 37.08465 30.80586
#
# Velocity S-wave (km/s) = 3.26235 4.01148 3.65615
# Velocity P-wave (km/s) = 6.63751 7.26487 6.95827
#
# Compressibility (1/GPa) = 0.01452910
#
# Stress axis : x y z
#
# Youngs Moduli (GPa) = 153.06604 100.65556 125.66113
#
# Poissons Ratio (x) = 0.18325 0.21366
# Poissons Ratio (y) = 0.27867 0.17938
# Poissons Ratio (z) = 0.26026 0.14368
#
# Static dielectric constant tensor:
#      x y z
#    x 2.202020 0.000000 0.000000 
#    y 0.000000 1.905910 0.000000 
#    z 0.000000 0.000000 1.835890 
# 
# From -- ./inp_files/16616.got.cif
#   From: 2010.05.17/outbox.cif.g08.bks.cpg/sg73_9_cif.got.tgz:16616.got - 2010.06.03 17:35:07.
