data_PCOD9531491
_publ_section_title
;
Structure prediction by ZEFSAII (Michael W. Deem and Ramdas Pophale) SiO2 
 PCOD9531491
Probable space group: I B C A 
;
_chemical_formula_sum "Si O2"
_cell_formula_units_Z 72
_cell_length_a 5.428298
_cell_length_b 22.545330
_cell_length_c 23.794326
_cell_angle_alpha 90.000000
_cell_angle_beta 90.000000
_cell_angle_gamma 90.000000
_cell_volume 2912.015520
_symmetry_space_group_name_H-M "I B C A "
_symmetry_group_IT_number 73
_symmetry_cell_setting 'orthorhombic'
loop_
_space_group_symop_operation_xyz
x,y,z
-x,1/2-y,z
x,-y,1/2-z
1/2-x,y,-z
-x,-y,-z
x,1/2+y,-z
-x,y,1/2+z
1/2+x,-y,z
1/2+x,1/2+y,1/2+z
1/2-x,-y,1/2+z
1/2+x,1/2-y,-z
-x,1/2+y,1/2-z
1/2-x,1/2-y,1/2-z
1/2+x,y,1/2-z
1/2-x,1/2+y,z
x,1/2-y,1/2+z
loop_
_atom_site_type_symbol
_atom_site_label
_atom_site_fract_x
_atom_site_fract_y
_atom_site_fract_z
Si Si1 0.945097 0.882873 0.878475
Si Si2 0.000000 0.250000 0.623192
Si Si3 0.232420 0.537276 0.564788
Si Si4 0.750000 0.647515 0.500000
Si Si5 0.500000 0.250000 0.052674
Si Si6 0.708132 0.932066 0.772121
O O1 0.817681 0.882200 0.940654
O O2 0.798367 0.924429 0.835581
O O3 0.965369 0.816718 0.852686
O O4 0.212342 0.910545 0.891626
O O5 0.254323 0.244634 0.588845
O O6 0.250000 0.558415 0.500000
O O7 0.472224 0.494864 0.571358
O O8 0.529540 0.691997 0.484968
O O9 0.438945 0.905253 0.762205
O O10 0.683304 0.000000 0.750000
#
# Coordination Sequence:
#
# PCOD9531491 Si02
#       6
#    16   8  16   8   8  16
#     4  11  25  43  76 103 152 181 248 286 369 434
#     4  10  25  42  66 107 142 197 220 292 349 440
#     4  10  25  41  62  98 142 183 225 283 349 413
#     4  10  22  38  68 108 144 196 220 294 346 440
#     4  10  21  40  60  97 156 189 234 246 353 452
#     4  10  25  48  73  98 129 187 250 301 350 411
#
# _framework density 24.725144
#
# number of rings (size 3 to 8) (size 9 to 14) (size 15 to 20)
#    0.000    1.778    0.000    2.667   14.000    5.333 
#    0.000    1.111    0.000    0.000    0.000    0.000 
#    0.000    0.000    0.000    0.000    0.000    0.000 
#
# Total GULP energy -201176.584476 kJ/mol
# GULP energy per Si atom -5588.238458 kJ/mol
# Density = 2.466887 g / cm^3
# Si number density = 24.725144 Si / 1000 Ang^3
#
#
#
# Elastic Constant Matrix: (Units=GPa)
#
#
# Indices 1 2 3 4 5 6 
#
# 1 134.8890 13.2436 12.4541 0.0000 0.0000 0.0000
# 2 13.2436 120.8491 29.9393 0.0000 0.0000 0.0000
# 3 12.4541 29.9393 114.3255 0.0000 0.0000 0.0000
# 4 0.0000 0.0000 0.0000 32.6166 0.0000 0.0000
# 5 0.0000 0.0000 0.0000 0.0000 34.4325 0.0000
# 6 0.0000 0.0000 0.0000 0.0000 0.0000 35.6907
#
#
#
# Elastic Compliance Matrix: (Units=1/GPa)
#
#
# Indices 1 2 3 4 5 6 
#
# 1 0.007539 -0.000666 -0.000647 0.000000 0.000000 0.000000
# 2 -0.000666 0.008908 -0.002260 0.000000 0.000000 0.000000
# 3 -0.000647 -0.002260 0.009409 0.000000 0.000000 0.000000
# 4 0.000000 0.000000 0.000000 0.030659 0.000000 0.000000
# 5 0.000000 0.000000 0.000000 0.000000 0.029042 0.000000
# 6 0.000000 0.000000 0.000000 0.000000 0.000000 0.028018
#
#
# Mechanical properties :
#
#
# Convention : Reuss Voigt Hill
#
# Bulk Modulus (GPa) = 53.44800 53.48196 53.46498
# Shear Modulus (GPa) = 39.38309 41.50975 40.44642
#
# Velocity S-wave (km/s) = 3.99536 4.10182 4.04894
# Velocity P-wave (km/s) = 6.55345 6.64160 6.59767
#
# Compressibility (1/GPa) = 0.01870977
#
# Stress axis : x y z
#
# Youngs Moduli (GPa) = 132.65059 112.26241 106.27774
#
# Poissons Ratio (x) = 0.07475 0.06874
# Poissons Ratio (y) = 0.08833 0.24021
# Poissons Ratio (z) = 0.08580 0.25373
#
# Static dielectric constant tensor:
#      x y z
#    x 1.978070 0.000000 0.000000 
#    y 0.000000 1.767080 0.000000 
#    z 0.000000 0.000000 1.998550 
# 
# From -- ./inp_files/24441.got.cif
#   From: 2010.05.17/outbox.cif.g08.bks.cpg/sg73_13_cif.got.tgz:24441.got - 2010.06.03 17:35:07.
