data_PCOD9531061
_publ_section_title
;
Structure prediction by ZEFSAII (Michael W. Deem and Ramdas Pophale) SiO2 
 PCOD9531061
Probable space group: I B C A 
;
_chemical_formula_sum "Si O2"
_cell_formula_units_Z 64
_cell_length_a 12.862800
_cell_length_b 22.845947
_cell_length_c 8.493865
_cell_angle_alpha 90.000000
_cell_angle_beta 90.000000
_cell_angle_gamma 90.000000
_cell_volume 2496.031352
_symmetry_space_group_name_H-M "I B C A "
_symmetry_group_IT_number 73
_symmetry_cell_setting 'orthorhombic'
loop_
_space_group_symop_operation_xyz
x,y,z
-x,1/2-y,z
x,-y,1/2-z
1/2-x,y,-z
-x,-y,-z
x,1/2+y,-z
-x,y,1/2+z
1/2+x,-y,z
1/2+x,1/2+y,1/2+z
1/2-x,-y,1/2+z
1/2+x,1/2-y,-z
-x,1/2+y,1/2-z
1/2-x,1/2-y,1/2-z
1/2+x,y,1/2-z
1/2-x,1/2+y,z
x,1/2-y,1/2+z
loop_
_atom_site_type_symbol
_atom_site_label
_atom_site_fract_x
_atom_site_fract_y
_atom_site_fract_z
Si Si1 0.809271 0.616244 0.665923
Si Si2 0.994717 0.955568 0.638919
Si Si3 0.379075 0.837252 0.874141
Si Si4 0.367898 0.271085 0.792074
O O1 0.750000 0.608644 0.500000
O O2 0.890512 0.564285 0.698192
O O3 0.724621 0.631659 0.800502
O O4 0.877468 0.675985 0.667801
O O5 0.944627 0.894754 0.591772
O O6 0.931332 0.000000 0.750000
O O7 0.000000 0.000000 0.500000
O O8 0.422278 0.791546 0.741270
O O9 0.372981 0.797516 0.032115
O O10 0.250000 0.250000 0.750000
#
# Coordination Sequence:
#
# PCOD9531061 Si02
#       4
#    16  16  16  16
#     4  11  23  43  72 104 142 186 231 295 362 419
#     4  12  28  48  70 103 146 194 248 288 338 428
#     4  11  24  46  72 106 145 183 233 297 361 422
#     4  10  20  41  72 105 139 177 228 293 363 434
#
# _framework density 25.640703999999999
#
# number of rings (size 3 to 8) (size 9 to 14) (size 15 to 20)
#    0.000    1.000    0.000    9.000    0.000    4.000 
#    0.000   12.500    0.000    0.000    0.000    0.000 
#    0.000    0.000    0.000    0.000    0.000    0.000 
#
# Total GULP energy -178427.372793 kJ/mol
# GULP energy per Si atom -5575.855400 kJ/mol
# Density = 2.558235 g / cm^3
# Si number density = 25.640704 Si / 1000 Ang^3
#
#
#
# Elastic Constant Matrix: (Units=GPa)
#
#
# Indices 1 2 3 4 5 6 
#
# 1 72.5035 65.4351 14.0075 0.0000 -0.0001 0.0000
# 2 65.4351 255.6456 72.3546 -0.0004 0.0002 0.0001
# 3 14.0075 72.3546 136.7376 -0.0020 0.0008 0.0005
# 4 0.0000 -0.0004 -0.0020 53.8810 0.0004 0.0001
# 5 -0.0001 0.0002 0.0008 0.0004 23.2290 -0.0002
# 6 0.0000 0.0001 0.0005 0.0001 -0.0002 37.3529
#
#
#
# Elastic Compliance Matrix: (Units=1/GPa)
#
#
# Indices 1 2 3 4 5 6 
#
# 1 0.017992 -0.004803 0.000698 0.000000 0.000000 0.000000
# 2 -0.004803 0.005883 -0.002621 0.000000 0.000000 0.000000
# 3 0.000698 -0.002621 0.008629 0.000000 0.000000 0.000000
# 4 0.000000 0.000000 0.000000 0.018559 0.000000 0.000000
# 5 0.000000 0.000000 0.000000 0.000000 0.043050 0.000000
# 6 0.000000 0.000000 0.000000 0.000000 0.000000 0.026772
#
#
# Mechanical properties :
#
#
# Convention : Reuss Voigt Hill
#
# Bulk Modulus (GPa) = 52.48617 85.38681 68.93649
# Shear Modulus (GPa) = 35.54011 43.76522 39.65266
#
# Velocity S-wave (km/s) = 3.72705 4.13590 3.93679
# Velocity P-wave (km/s) = 6.24784 7.49541 6.89988
#
# Compressibility (1/GPa) = 0.01905264
#
# Stress axis : x y z
#
# Youngs Moduli (GPa) = 55.57960 169.98703 115.89414
#
# Poissons Ratio (x) = 0.81644 -0.08093
# Poissons Ratio (y) = 0.26695 0.30374
# Poissons Ratio (z) = -0.03881 0.44551
#
# Static dielectric constant tensor:
#      x y z
#    x 2.033540 0.000010 0.000000 
#    y 0.000010 1.940490 0.000000 
#    z 0.000000 0.000000 2.054650 
# 
# From -- ./inp_files/4644.got.cif
#   From: 2010.05.17/outbox.cif.g08.bks.cpg/sg73_3_cif.got.tgz:4644.got - 2010.06.03 17:35:07.
