data_PCOD9531307
_publ_section_title
;
Structure prediction by ZEFSAII (Michael W. Deem and Ramdas Pophale) SiO2 
 PCOD9531307
Probable space group: I B C A 
;
_chemical_formula_sum "Si O2"
_cell_formula_units_Z 80
_cell_length_a 8.469424
_cell_length_b 24.687305
_cell_length_c 16.604651
_cell_angle_alpha 90.000000
_cell_angle_beta 90.000000
_cell_angle_gamma 90.000000
_cell_volume 3471.820872
_symmetry_space_group_name_H-M "I B C A "
_symmetry_group_IT_number 73
_symmetry_cell_setting 'orthorhombic'
loop_
_space_group_symop_operation_xyz
x,y,z
-x,1/2-y,z
x,-y,1/2-z
1/2-x,y,-z
-x,-y,-z
x,1/2+y,-z
-x,y,1/2+z
1/2+x,-y,z
1/2+x,1/2+y,1/2+z
1/2-x,-y,1/2+z
1/2+x,1/2-y,-z
-x,1/2+y,1/2-z
1/2-x,1/2-y,1/2-z
1/2+x,y,1/2-z
1/2-x,1/2+y,z
x,1/2-y,1/2+z
loop_
_atom_site_type_symbol
_atom_site_label
_atom_site_fract_x
_atom_site_fract_y
_atom_site_fract_z
Si Si1 0.712693 0.682580 0.663214
Si Si2 0.266047 0.522216 0.620354
Si Si3 0.025606 0.925198 0.595082
Si Si4 0.500000 0.750000 0.783619
Si Si5 0.056529 0.430258 0.712918
Si Si6 0.750000 0.656828 0.500000
O O1 0.613817 0.716472 0.726199
O O2 0.660191 0.620969 0.684349
O O3 0.667358 0.690226 0.570267
O O4 0.890709 0.706227 0.670657
O O5 0.151013 0.560272 0.570197
O O6 0.373391 0.478685 0.576522
O O7 0.157959 0.481423 0.676619
O O8 0.386287 0.559457 0.671443
O O9 0.992702 0.921144 0.692829
O O10 0.119659 0.878913 0.548009
#
# Coordination Sequence:
#
# PCOD9531307 Si02
#       6
#    16  16  16   8  16   8
#     4  11  25  48  75 104 133 176 237 307 365 439
#     4  10  21  37  66 102 142 203 248 275 326 425
#     4  11  21  37  59  97 144 196 231 283 328 415
#     4  10  26  52  82  96 120 184 246 304 366 442
#     4  11  20  40  69 103 142 193 255 285 333 434
#     4  12  26  42  66 106 146 178 218 310 380 424
#
# _framework density 23.042663999999998
#
# number of rings (size 3 to 8) (size 9 to 14) (size 15 to 20)
#    0.000    1.200    2.000    6.000    2.800    1.600 
#    0.000    0.000    0.000    0.000    0.000    0.000 
#    0.000    0.000    0.000    0.000    0.000    0.000 
#
# Total GULP energy -222871.893242 kJ/mol
# GULP energy per Si atom -5571.797331 kJ/mol
# Density = 2.299022 g / cm^3
# Si number density = 23.042664 Si / 1000 Ang^3
#
#
#
# Elastic Constant Matrix: (Units=GPa)
#
#
# Indices 1 2 3 4 5 6 
#
# 1 160.3797 45.9133 53.3758 0.0000 0.0000 0.0000
# 2 45.9133 104.8711 35.0465 0.0000 0.0000 0.0000
# 3 53.3758 35.0465 111.7178 0.0001 0.0000 0.0000
# 4 0.0000 0.0000 0.0001 46.1930 0.0000 0.0000
# 5 0.0000 0.0000 0.0000 0.0000 42.3887 0.0000
# 6 0.0000 0.0000 0.0000 0.0000 0.0000 29.6776
#
#
#
# Elastic Compliance Matrix: (Units=1/GPa)
#
#
# Indices 1 2 3 4 5 6 
#
# 1 0.007948 -0.002470 -0.003023 0.000000 0.000000 0.000000
# 2 -0.002470 0.011420 -0.002402 0.000000 0.000000 0.000000
# 3 -0.003023 -0.002402 0.011149 0.000000 0.000000 0.000000
# 4 0.000000 0.000000 0.000000 0.021648 0.000000 0.000000
# 5 0.000000 0.000000 0.000000 0.000000 0.023591 0.000000
# 6 0.000000 0.000000 0.000000 0.000000 0.000000 0.033695
#
#
# Mechanical properties :
#
#
# Convention : Reuss Voigt Hill
#
# Bulk Modulus (GPa) = 67.90176 71.73776 69.81976
# Shear Modulus (GPa) = 38.41710 39.82739 39.12225
#
# Velocity S-wave (km/s) = 4.08759 4.16194 4.12493
# Velocity P-wave (km/s) = 7.19789 7.36857 7.28373
#
# Compressibility (1/GPa) = 0.01472716
#
# Stress axis : x y z
#
# Youngs Moduli (GPa) = 125.81493 87.56859 89.69448
#
# Poissons Ratio (x) = 0.21626 0.27112
# Poissons Ratio (y) = 0.31072 0.21549
# Poissons Ratio (z) = 0.38030 0.21038
#
# Static dielectric constant tensor:
#      x y z
#    x 1.953280 0.000000 0.000000 
#    y 0.000000 1.929240 0.000000 
#    z 0.000000 0.000000 2.004640 
# 
# From -- ./inp_files/20750.got.cif
#   From: 2010.05.17/outbox.cif.g08.bks.cpg/sg73_11_cif.got.tgz:20750.got - 2010.06.03 17:35:07.
