data_PCOD9531653
_publ_section_title
;
Structure prediction by ZEFSAII (Michael W. Deem and Ramdas Pophale) SiO2 
 PCOD9531653
Probable space group: I B C A 
;
_chemical_formula_sum "Si O2"
_cell_formula_units_Z 72
_cell_length_a 28.358337
_cell_length_b 22.746281
_cell_length_c 5.038954
_cell_angle_alpha 90.000000
_cell_angle_beta 90.000000
_cell_angle_gamma 90.000000
_cell_volume 3250.360660
_symmetry_space_group_name_H-M "I B C A "
_symmetry_group_IT_number 73
_symmetry_cell_setting 'orthorhombic'
loop_
_space_group_symop_operation_xyz
x,y,z
-x,1/2-y,z
x,-y,1/2-z
1/2-x,y,-z
-x,-y,-z
x,1/2+y,-z
-x,y,1/2+z
1/2+x,-y,z
1/2+x,1/2+y,1/2+z
1/2-x,-y,1/2+z
1/2+x,1/2-y,-z
-x,1/2+y,1/2-z
1/2-x,1/2-y,1/2-z
1/2+x,y,1/2-z
1/2-x,1/2+y,z
x,1/2-y,1/2+z
loop_
_atom_site_type_symbol
_atom_site_label
_atom_site_fract_x
_atom_site_fract_y
_atom_site_fract_z
Si Si1 0.534719 0.500000 0.250000
Si Si2 0.750000 0.293394 0.500000
Si Si3 0.615995 0.210036 0.484663
Si Si4 0.715991 0.500000 0.250000
Si Si5 0.699361 0.372159 0.154264
Si Si6 0.466586 0.871894 0.303306
O O1 0.500000 0.500000 0.500000
O O2 0.558299 0.563509 0.285240
O O3 0.750000 0.250000 0.250000
O O4 0.708135 0.338423 0.432121
O O5 0.617250 0.235304 0.188768
O O6 0.660149 0.166612 0.515040
O O7 0.570628 0.174392 0.587226
O O8 0.750000 0.487444 0.500000
O O9 0.687712 0.440471 0.192563
O O10 0.750000 0.371269 0.000000
O O11 0.509868 0.866534 0.513234
#
# Coordination Sequence:
#
# PCOD9531653 Si02
#       6
#     8   8  16   8  16  16
#     4   8  16  33  64  93 116 154 204 253 312 379
#     4  12  22  36  62  88 120 168 200 242 310 366
#     4  12  28  41  62  96 127 167 221 257 310 392
#     4  10  22  41  66  93 124 168 214 265 326 387
#     4  11  25  44  67  94 130 168 215 270 324 377
#     4  10  21  42  66  91 127 164 206 263 321 373
#
# _framework density 22.151387
#
# number of rings (size 3 to 8) (size 9 to 14) (size 15 to 20)
#    0.000    1.333    2.222    2.667    3.111    3.556 
#    0.000    0.000    0.000    9.333    0.000    0.000 
#    0.000    0.000    0.000    0.000    0.000    0.000 
#
# Total GULP energy -200912.702460 kJ/mol
# GULP energy per Si atom -5580.908402 kJ/mol
# Density = 2.210097 g / cm^3
# Si number density = 22.151387 Si / 1000 Ang^3
#
#
#
# Elastic Constant Matrix: (Units=GPa)
#
#
# Indices 1 2 3 4 5 6 
#
# 1 61.7174 31.5961 -8.8654 0.0000 0.0000 0.0000
# 2 31.5961 132.9732 -8.5767 0.0000 0.0000 0.0000
# 3 -8.8654 -8.5767 104.9056 0.0000 0.0000 0.0000
# 4 0.0000 0.0000 0.0000 15.6581 0.0000 0.0000
# 5 0.0000 0.0000 0.0000 0.0000 18.0264 0.0000
# 6 0.0000 0.0000 0.0000 0.0000 0.0000 13.2340
#
#
#
# Elastic Compliance Matrix: (Units=1/GPa)
#
#
# Indices 1 2 3 4 5 6 
#
# 1 0.018600 -0.004341 0.001217 0.000000 0.000000 0.000000
# 2 -0.004341 0.008573 0.000334 0.000000 0.000000 0.000000
# 3 0.001217 0.000334 0.009663 0.000000 0.000000 0.000000
# 4 0.000000 0.000000 0.000000 0.063865 0.000000 0.000000
# 5 0.000000 0.000000 0.000000 0.000000 0.055474 0.000000
# 6 0.000000 0.000000 0.000000 0.000000 0.000000 0.075563
#
#
# Mechanical properties :
#
#
# Convention : Reuss Voigt Hill
#
# Bulk Modulus (GPa) = 31.99409 36.43382 34.21396
# Shear Modulus (GPa) = 20.18271 28.41317 24.29794
#
# Velocity S-wave (km/s) = 3.02176 3.58534 3.31555
# Velocity P-wave (km/s) = 5.16231 5.79853 5.48964
#
# Compressibility (1/GPa) = 0.03125577
#
# Stress axis : x y z
#
# Youngs Moduli (GPa) = 53.76309 116.64028 103.49252
#
# Poissons Ratio (x) = 0.50635 -0.12594
# Poissons Ratio (y) = 0.23339 -0.03457
# Poissons Ratio (z) = -0.06543 -0.03897
#
# Static dielectric constant tensor:
#      x y z
#    x 1.833190 0.000000 0.000000 
#    y 0.000000 1.893920 0.000000 
#    z 0.000000 0.000000 1.812460 
# 
# From -- ./inp_files/3055.got.cif
#   From: 2010.05.17/outbox.cif.g08.bks.cpg/sg73_2_cif.got.tgz:3055.got - 2010.06.03 17:35:07.
