data_PCOD9531141
_publ_section_title
;
Structure prediction by ZEFSAII (Michael W. Deem and Ramdas Pophale) SiO2 
 PCOD9531141
Probable space group: I B C A 
;
_chemical_formula_sum "Si O2"
_cell_formula_units_Z 72
_cell_length_a 23.714975
_cell_length_b 10.708174
_cell_length_c 14.050192
_cell_angle_alpha 90.000000
_cell_angle_beta 90.000000
_cell_angle_gamma 90.000000
_cell_volume 3567.963063
_symmetry_space_group_name_H-M "I B C A "
_symmetry_group_IT_number 73
_symmetry_cell_setting 'orthorhombic'
loop_
_space_group_symop_operation_xyz
x,y,z
-x,1/2-y,z
x,-y,1/2-z
1/2-x,y,-z
-x,-y,-z
x,1/2+y,-z
-x,y,1/2+z
1/2+x,-y,z
1/2+x,1/2+y,1/2+z
1/2-x,-y,1/2+z
1/2+x,1/2-y,-z
-x,1/2+y,1/2-z
1/2-x,1/2-y,1/2-z
1/2+x,y,1/2-z
1/2-x,1/2+y,z
x,1/2-y,1/2+z
loop_
_atom_site_type_symbol
_atom_site_label
_atom_site_fract_x
_atom_site_fract_y
_atom_site_fract_z
Si Si1 0.186763 0.622086 0.206293
Si Si2 0.559684 0.543880 0.957163
Si Si3 0.397297 0.500000 0.250000
Si Si4 0.376390 0.299716 0.528178
Si Si5 0.303901 0.170009 0.854049
O O1 0.158881 0.500000 0.250000
O O2 0.145933 0.694659 0.135346
O O3 0.245625 0.593844 0.151868
O O4 0.203972 0.703723 0.296037
O O5 0.565172 0.541100 0.841333
O O6 0.581349 0.682684 0.986001
O O7 0.500000 0.500000 0.000000
O O8 0.599190 0.435130 0.000253
O O9 0.354333 0.598533 0.201000
O O10 0.323410 0.290307 0.458029
#
# Coordination Sequence:
#
# PCOD9531141 Si02
#       5
#    16  16   8  16  16
#     4  11  21  37  62  99 135 173 217 258 327 414
#     4  11  24  45  65  94 125 175 227 284 338 393
#     4  10  20  44  64  86 132 170 210 278 344 392
#     4  11  23  41  66  95 134 169 225 273 333 399
#     4  10  21  37  62  93 134 171 207 262 332 402
#
# _framework density 20.179580000000001
#
# number of rings (size 3 to 8) (size 9 to 14) (size 15 to 20)
#    0.000    1.333    3.333    2.667    0.000    0.000 
#    6.000    6.667    0.000    0.000    0.000    0.000 
#    0.000    0.000    0.000    0.000    0.000    0.000 
#
# Total GULP energy -200571.138832 kJ/mol
# GULP energy per Si atom -5571.420523 kJ/mol
# Density = 2.013365 g / cm^3
# Si number density = 20.179580 Si / 1000 Ang^3
#
#
#
# Elastic Constant Matrix: (Units=GPa)
#
#
# Indices 1 2 3 4 5 6 
#
# 1 69.5832 9.8789 19.3655 0.0000 0.0000 0.0000
# 2 9.8789 86.6498 20.0682 0.0000 0.0000 0.0000
# 3 19.3655 20.0682 65.9375 0.0000 0.0000 0.0000
# 4 0.0000 0.0000 0.0000 27.4657 0.0000 0.0000
# 5 0.0000 0.0000 0.0000 0.0000 29.1456 0.0000
# 6 0.0000 0.0000 0.0000 0.0000 0.0000 27.5749
#
#
#
# Elastic Compliance Matrix: (Units=1/GPa)
#
#
# Indices 1 2 3 4 5 6 
#
# 1 0.015699 -0.000777 -0.004374 0.000000 0.000000 0.000000
# 2 -0.000777 0.012454 -0.003562 0.000000 0.000000 0.000000
# 3 -0.004374 -0.003562 0.017535 0.000000 0.000000 0.000000
# 4 0.000000 0.000000 0.000000 0.036409 0.000000 0.000000
# 5 0.000000 0.000000 0.000000 0.000000 0.034311 0.000000
# 6 0.000000 0.000000 0.000000 0.000000 0.000000 0.036265
#
#
# Mechanical properties :
#
#
# Convention : Reuss Voigt Hill
#
# Bulk Modulus (GPa) = 35.38414 35.64398 35.51406
# Shear Modulus (GPa) = 27.85208 28.36109 28.10658
#
# Velocity S-wave (km/s) = 3.71915 3.75298 3.73610
# Velocity P-wave (km/s) = 6.00129 6.04000 6.02067
#
# Compressibility (1/GPa) = 0.02826125
#
# Stress axis : x y z
#
# Youngs Moduli (GPa) = 63.69845 80.29351 57.02941
#
# Poissons Ratio (x) = 0.06237 0.24946
# Poissons Ratio (y) = 0.04948 0.20316
# Poissons Ratio (z) = 0.27864 0.28604
#
# Static dielectric constant tensor:
#      x y z
#    x 1.775890 0.000000 0.000000 
#    y 0.000000 1.768790 0.000000 
#    z 0.000000 0.000000 1.728140 
# 
# From -- ./inp_files/4837.got.cif
#   From: 2010.05.17/outbox.cif.g08.bks.cpg/sg73_3_cif.got.tgz:4837.got - 2010.06.03 17:35:07.
