data_PCOD9531474
_publ_section_title
;
Structure prediction by ZEFSAII (Michael W. Deem and Ramdas Pophale) SiO2 
 PCOD9531474
Probable space group: I B C A 
;
_chemical_formula_sum "Si O2"
_cell_formula_units_Z 80
_cell_length_a 24.796743
_cell_length_b 18.858896
_cell_length_c 7.713807
_cell_angle_alpha 90.000000
_cell_angle_beta 90.000000
_cell_angle_gamma 90.000000
_cell_volume 3607.278514
_symmetry_space_group_name_H-M "I B C A "
_symmetry_group_IT_number 73
_symmetry_cell_setting 'orthorhombic'
loop_
_space_group_symop_operation_xyz
x,y,z
-x,1/2-y,z
x,-y,1/2-z
1/2-x,y,-z
-x,-y,-z
x,1/2+y,-z
-x,y,1/2+z
1/2+x,-y,z
1/2+x,1/2+y,1/2+z
1/2-x,-y,1/2+z
1/2+x,1/2-y,-z
-x,1/2+y,1/2-z
1/2-x,1/2-y,1/2-z
1/2+x,y,1/2-z
1/2-x,1/2+y,z
x,1/2-y,1/2+z
loop_
_atom_site_type_symbol
_atom_site_label
_atom_site_fract_x
_atom_site_fract_y
_atom_site_fract_z
Si Si1 0.707187 0.160876 0.223272
Si Si2 0.815704 0.318532 0.883371
Si Si3 0.188298 0.523090 0.552265
Si Si4 0.000000 0.250000 0.986994
Si Si5 0.567673 0.843780 0.737554
Si Si6 0.895808 0.000000 0.250000
O O1 0.703457 0.237560 0.136887
O O2 0.679441 0.162336 0.413490
O O3 0.768017 0.140387 0.282487
O O4 0.684629 0.107458 0.081365
O O5 0.871545 0.326721 0.788928
O O6 0.178474 0.500000 0.750000
O O7 0.250000 0.505395 0.500000
O O8 0.144816 0.494651 0.415401
O O9 0.952545 0.207397 0.084485
O O10 0.971503 0.313778 0.885439
O O11 0.568596 0.929086 0.722198
#
# Coordination Sequence:
#
# PCOD9531474 Si02
#       6
#    16  16  16   8  16   8
#     4  10  23  36  64 104 143 186 228 287 338 428
#     4  10  21  39  67 102 141 181 237 287 350 431
#     4  12  26  43  63  99 149 199 233 278 345 437
#     4  10  26  48  80  98 138 178 248 322 370 420
#     4  11  24  48  72 108 134 189 237 308 371 432
#     4  12  28  46  76 104 148 192 240 296 372 446
#
# _framework density 22.177385000000001
#
# number of rings (size 3 to 8) (size 9 to 14) (size 15 to 20)
#    0.000    1.200    1.000    3.600   14.000    0.800 
#    3.600    0.000    0.000    0.000    0.000    0.000 
#    0.000    0.000    0.000    0.000    0.000    0.000 
#
# Total GULP energy -223505.438330 kJ/mol
# GULP energy per Si atom -5587.635958 kJ/mol
# Density = 2.212691 g / cm^3
# Si number density = 22.177385 Si / 1000 Ang^3
#
#
#
# Elastic Constant Matrix: (Units=GPa)
#
#
# Indices 1 2 3 4 5 6 
#
# 1 75.6818 17.4176 14.8930 0.0000 0.0000 0.0000
# 2 17.4176 109.7472 25.9773 0.0000 0.0000 0.0000
# 3 14.8930 25.9773 114.0457 0.0000 0.0000 0.0000
# 4 0.0000 0.0000 0.0000 89.5158 0.0000 0.0000
# 5 0.0000 0.0000 0.0000 0.0000 1.9845 0.0000
# 6 0.0000 0.0000 0.0000 0.0000 0.0000 27.3386
#
#
#
# Elastic Compliance Matrix: (Units=1/GPa)
#
#
# Indices 1 2 3 4 5 6 
#
# 1 0.013919 -0.001880 -0.001389 0.000000 0.000000 0.000000
# 2 -0.001880 0.009885 -0.002006 0.000000 0.000000 0.000000
# 3 -0.001389 -0.002006 0.009407 0.000000 0.000000 0.000000
# 4 0.000000 0.000000 0.000000 0.011171 0.000000 0.000000
# 5 0.000000 0.000000 0.000000 0.000000 0.503916 0.000000
# 6 0.000000 0.000000 0.000000 0.000000 0.000000 0.036578
#
#
# Mechanical properties :
#
#
# Convention : Reuss Voigt Hill
#
# Bulk Modulus (GPa) = 44.13103 46.22783 45.17943
# Shear Modulus (GPa) = 8.29213 39.84689 24.06951
#
# Velocity S-wave (km/s) = 1.93575 4.24339 3.29799
# Velocity P-wave (km/s) = 4.99384 6.70062 5.90918
#
# Compressibility (1/GPa) = 0.02265979
#
# Stress axis : x y z
#
# Youngs Moduli (GPa) = 71.84241 101.16237 106.30606
#
# Poissons Ratio (x) = 0.19021 0.14771
# Poissons Ratio (y) = 0.13508 0.21326
# Poissons Ratio (z) = 0.09982 0.20294
#
# Static dielectric constant tensor:
#      x y z
#    x 1.764250 0.000000 0.000000 
#    y 0.000000 1.818040 0.000000 
#    z 0.000000 0.000000 1.921710 
# 
# From -- ./inp_files/7018.got.cif
#   From: 2010.05.17/outbox.cif.g08.bks.cpg/sg73_4_cif.got.tgz:7018.got - 2010.06.03 17:35:07.
