data_PCOD9531240
_publ_section_title
;
Structure prediction by ZEFSAII (Michael W. Deem and Ramdas Pophale) SiO2 
 PCOD9531240
Probable space group: I B C A 
;
_chemical_formula_sum "Si O2"
_cell_formula_units_Z 80
_cell_length_a 10.366619
_cell_length_b 23.500482
_cell_length_c 16.373140
_cell_angle_alpha 90.000000
_cell_angle_beta 90.000000
_cell_angle_gamma 90.000000
_cell_volume 3988.833261
_symmetry_space_group_name_H-M "I B C A "
_symmetry_group_IT_number 73
_symmetry_cell_setting 'orthorhombic'
loop_
_space_group_symop_operation_xyz
x,y,z
-x,1/2-y,z
x,-y,1/2-z
1/2-x,y,-z
-x,-y,-z
x,1/2+y,-z
-x,y,1/2+z
1/2+x,-y,z
1/2+x,1/2+y,1/2+z
1/2-x,-y,1/2+z
1/2+x,1/2-y,-z
-x,1/2+y,1/2-z
1/2-x,1/2-y,1/2-z
1/2+x,y,1/2-z
1/2-x,1/2+y,z
x,1/2-y,1/2+z
loop_
_atom_site_type_symbol
_atom_site_label
_atom_site_fract_x
_atom_site_fract_y
_atom_site_fract_z
Si Si1 0.322557 0.557663 0.708863
Si Si2 0.346734 0.242111 0.174636
Si Si3 0.107161 0.117073 0.870949
Si Si4 0.129070 0.503108 0.051295
Si Si5 0.820524 0.141600 0.913475
O O1 0.261673 0.500000 0.750000
O O2 0.399270 0.591506 0.778737
O O3 0.401809 0.531176 0.634021
O O4 0.233694 0.602610 0.660786
O O5 0.500000 0.250000 0.196745
O O6 0.250000 0.250000 0.250000
O O7 0.330639 0.179055 0.137545
O O8 0.313955 0.292573 0.112646
O O9 0.171815 0.066162 0.920636
O O10 0.970479 0.125421 0.914759
O O11 0.250000 0.480229 0.000000
O O12 0.000000 0.500000 0.000000
O O13 0.750000 0.135664 0.000000
#
# Coordination Sequence:
#
# PCOD9531240 Si02
#       5
#    16  16  16  16  16
#     4  10  21  36  60  89 122 171 214 258 321 391
#     4  10  21  42  66  94 127 169 220 273 330 399
#     4  10  22  39  63  93 124 171 220 266 324 403
#     4  11  23  40  60  90 133 169 214 273 325 387
#     4  11  22  40  66  92 133 168 217 276 334 385
#
# _framework density 20.055990000000001
#
# number of rings (size 3 to 8) (size 9 to 14) (size 15 to 20)
#    0.000    1.600    2.000    3.000    0.000    6.400 
#    0.000    3.000    0.000    0.000    0.000    0.000 
#    0.000    0.000    0.000    0.000    0.000    0.000 
#
# Total GULP energy -222903.166143 kJ/mol
# GULP energy per Si atom -5572.579154 kJ/mol
# Density = 2.001034 g / cm^3
# Si number density = 20.055990 Si / 1000 Ang^3
#
#
#
# Elastic Constant Matrix: (Units=GPa)
#
#
# Indices 1 2 3 4 5 6 
#
# 1 61.4000 26.5846 48.9210 0.0000 0.0000 0.0000
# 2 26.5846 176.7520 58.7531 0.0000 0.0000 0.0000
# 3 48.9210 58.7531 129.0916 0.0000 0.0000 0.0000
# 4 0.0000 0.0000 0.0000 17.6705 0.0000 0.0000
# 5 0.0000 0.0000 0.0000 0.0000 32.1869 0.0000
# 6 0.0000 0.0000 0.0000 0.0000 0.0000 20.2475
#
#
#
# Elastic Compliance Matrix: (Units=1/GPa)
#
#
# Indices 1 2 3 4 5 6 
#
# 1 0.023399 -0.000674 -0.008561 0.000000 0.000000 0.000000
# 2 -0.000674 0.006686 -0.002787 0.000000 0.000000 0.000000
# 3 -0.008561 -0.002787 0.012259 0.000000 0.000000 0.000000
# 4 0.000000 0.000000 0.000000 0.056592 0.000000 0.000000
# 5 0.000000 0.000000 0.000000 0.000000 0.031069 0.000000
# 6 0.000000 0.000000 0.000000 0.000000 0.000000 0.049389
#
#
# Mechanical properties :
#
#
# Convention : Reuss Voigt Hill
#
# Bulk Modulus (GPa) = 54.64451 70.64013 62.64232
# Shear Modulus (GPa) = 23.86212 29.55330 26.70771
#
# Velocity S-wave (km/s) = 3.45305 3.84284 3.65315
# Velocity P-wave (km/s) = 6.57292 7.41537 7.00682
#
# Compressibility (1/GPa) = 0.01830010
#
# Stress axis : x y z
#
# Youngs Moduli (GPa) = 42.73634 149.57657 81.57048
#
# Poissons Ratio (x) = 0.10077 0.69831
# Poissons Ratio (y) = 0.02879 0.22737
# Poissons Ratio (z) = 0.36586 0.41694
#
# Static dielectric constant tensor:
#      x y z
#    x 1.693730 0.000000 0.000000 
#    y 0.000000 1.778710 0.000000 
#    z 0.000000 0.000000 1.692270 
# 
# From -- ./inp_files/10801.got.cif
#   From: 2010.05.17/outbox.cif.g08.bks.cpg/sg73_6_cif.got.tgz:10801.got - 2010.06.03 17:35:07.
