data_PCOD9531623
_publ_section_title
;
Structure prediction by ZEFSAII (Michael W. Deem and Ramdas Pophale) SiO2 
 PCOD9531623
Probable space group: I B C A 
;
_chemical_formula_sum "Si O2"
_cell_formula_units_Z 64
_cell_length_a 10.179320
_cell_length_b 21.414825
_cell_length_c 12.138161
_cell_angle_alpha 90.000000
_cell_angle_beta 90.000000
_cell_angle_gamma 90.000000
_cell_volume 2645.977766
_symmetry_space_group_name_H-M "I B C A "
_symmetry_group_IT_number 73
_symmetry_cell_setting 'orthorhombic'
loop_
_space_group_symop_operation_xyz
x,y,z
-x,1/2-y,z
x,-y,1/2-z
1/2-x,y,-z
-x,-y,-z
x,1/2+y,-z
-x,y,1/2+z
1/2+x,-y,z
1/2+x,1/2+y,1/2+z
1/2-x,-y,1/2+z
1/2+x,1/2-y,-z
-x,1/2+y,1/2-z
1/2-x,1/2-y,1/2-z
1/2+x,y,1/2-z
1/2-x,1/2+y,z
x,1/2-y,1/2+z
loop_
_atom_site_type_symbol
_atom_site_label
_atom_site_fract_x
_atom_site_fract_y
_atom_site_fract_z
Si Si1 0.311399 0.850645 0.774622
Si Si2 0.104130 0.086378 0.471040
Si Si3 0.645109 0.744926 0.097181
Si Si4 0.583255 0.459582 0.848420
O O1 0.422061 0.868044 0.867288
O O2 0.353358 0.800065 0.686122
O O3 0.188066 0.816741 0.833379
O O4 0.304744 0.916736 0.708392
O O5 0.250000 0.105997 0.500000
O O6 0.007283 0.083144 0.573815
O O7 0.123671 0.015672 0.428059
O O8 0.500000 0.750000 0.047949
O O9 0.750000 0.753689 0.000000
O O10 0.515660 0.500000 0.750000
#
# Coordination Sequence:
#
# PCOD9531623 Si02
#       4
#    16  16  16  16
#     4  10  24  45  69 103 144 201 241 309 379 460
#     4  10  21  41  68 106 147 189 240 303 372 459
#     4  11  27  50  73 108 143 194 260 323 386 456
#     4   9  21  42  67 110 149 192 240 302 376 463
#
# _framework density 24.187656
#
# number of rings (size 3 to 8) (size 9 to 14) (size 15 to 20)
#    0.000    2.000    0.000    0.750    7.000    8.000 
#    9.000    0.000    0.000    0.000    0.000    0.000 
#    0.000    0.000    0.000    0.000    0.000    0.000 
#
# Total GULP energy -178280.634072 kJ/mol
# GULP energy per Si atom -5571.269815 kJ/mol
# Density = 2.413260 g / cm^3
# Si number density = 24.187656 Si / 1000 Ang^3
#
#
#
# Elastic Constant Matrix: (Units=GPa)
#
#
# Indices 1 2 3 4 5 6 
#
# 1 107.6863 39.9608 66.6087 0.0000 0.0000 0.0000
# 2 39.9608 159.1870 67.2861 0.0001 0.0000 0.0000
# 3 66.6087 67.2861 136.4185 0.0002 0.0000 0.0000
# 4 0.0000 0.0001 0.0002 70.0203 0.0000 0.0000
# 5 0.0000 0.0000 0.0000 0.0000 17.0681 0.0000
# 6 0.0000 0.0000 0.0000 0.0000 0.0000 31.7672
#
#
#
# Elastic Compliance Matrix: (Units=1/GPa)
#
#
# Indices 1 2 3 4 5 6 
#
# 1 0.013376 -0.000754 -0.006159 0.000000 0.000000 0.000000
# 2 -0.000754 0.007979 -0.003567 0.000000 0.000000 0.000000
# 3 -0.006159 -0.003567 0.012097 0.000000 0.000000 0.000000
# 4 0.000000 0.000000 0.000000 0.014282 0.000000 0.000000
# 5 0.000000 0.000000 0.000000 0.000000 0.058589 0.000000
# 6 0.000000 0.000000 0.000000 0.000000 0.000000 0.031479
#
#
# Mechanical properties :
#
#
# Convention : Reuss Voigt Hill
#
# Bulk Modulus (GPa) = 80.05828 83.44478 81.75153
# Shear Modulus (GPa) = 30.68884 39.06687 34.87785
#
# Velocity S-wave (km/s) = 3.56586 4.02326 3.80145
# Velocity P-wave (km/s) = 7.07986 7.49373 7.28973
#
# Compressibility (1/GPa) = 0.01249090
#
# Stress axis : x y z
#
# Youngs Moduli (GPa) = 74.76257 125.32720 82.66539
#
# Poissons Ratio (x) = 0.09456 0.50912
# Poissons Ratio (y) = 0.05641 0.29488
# Poissons Ratio (z) = 0.46045 0.44706
#
# Static dielectric constant tensor:
#      x y z
#    x 1.908600 0.000000 0.000000 
#    y 0.000000 1.992090 0.000000 
#    z 0.000000 0.000000 2.030750 
# 
# From -- ./inp_files/9438.got.cif
#   From: 2010.05.17/outbox.cif.g08.bks.cpg/sg73_5_cif.got.tgz:9438.got - 2010.06.03 17:35:07.
