data_PCOD9531510
_publ_section_title
;
Structure prediction by ZEFSAII (Michael W. Deem and Ramdas Pophale) SiO2 
 PCOD9531510
Probable space group: I B C A 
;
_chemical_formula_sum "Si O2"
_cell_formula_units_Z 96
_cell_length_a 12.890817
_cell_length_b 21.578888
_cell_length_c 18.156838
_cell_angle_alpha 90.000000
_cell_angle_beta 90.000000
_cell_angle_gamma 90.000000
_cell_volume 5050.678480
_symmetry_space_group_name_H-M "I B C A "
_symmetry_group_IT_number 73
_symmetry_cell_setting 'orthorhombic'
loop_
_space_group_symop_operation_xyz
x,y,z
-x,1/2-y,z
x,-y,1/2-z
1/2-x,y,-z
-x,-y,-z
x,1/2+y,-z
-x,y,1/2+z
1/2+x,-y,z
1/2+x,1/2+y,1/2+z
1/2-x,-y,1/2+z
1/2+x,1/2-y,-z
-x,1/2+y,1/2-z
1/2-x,1/2-y,1/2-z
1/2+x,y,1/2-z
1/2-x,1/2+y,z
x,1/2-y,1/2+z
loop_
_atom_site_type_symbol
_atom_site_label
_atom_site_fract_x
_atom_site_fract_y
_atom_site_fract_z
Si Si1 0.770935 0.156396 0.745769
Si Si2 0.114640 0.245019 0.668922
Si Si3 0.577897 0.616866 0.872813
Si Si4 0.731238 0.038091 0.920555
Si Si5 0.862922 0.332736 0.525930
Si Si6 0.621064 0.949311 0.807697
O O1 0.824214 0.189939 0.675823
O O2 0.682617 0.199216 0.781361
O O3 0.860025 0.151590 0.807930
O O4 0.712251 0.092586 0.727814
O O5 0.101581 0.214270 0.588543
O O6 0.000000 0.250000 0.700891
O O7 0.657606 0.560528 0.890483
O O8 0.469129 0.593019 0.841936
O O9 0.573380 0.654263 0.950700
O O10 0.663524 0.100775 0.935393
O O11 0.673158 0.991048 0.869624
O O12 0.750000 0.009157 0.000000
O O13 0.750000 0.309889 0.500000
O O14 0.577713 0.000000 0.750000
#
# Coordination Sequence:
#
# PCOD9531510 Si02
#       6
#    16  16  16  16  16  16
#     4  11  23  41  61  92 130 155 213 263 315 377
#     4  11  22  42  65  88 116 167 208 265 314 372
#     4  10  21  40  63  88 124 171 201 253 318 384
#     4   9  20  40  62  85 129 165 204 257 310 376
#     4   9  18  42  64  82 122 168 210 249 317 372
#     4  12  23  37  62 100 128 164 212 260 321 379
#
# _framework density 19.007346999999999
#
# number of rings (size 3 to 8) (size 9 to 14) (size 15 to 20)
#    0.000    2.000    5.000    1.000    2.333    2.667 
#    6.000    0.833    0.000    0.000    0.000    0.000 
#    0.000    0.000    0.000    0.000    0.000    0.000 
#
# Total GULP energy -267515.803372 kJ/mol
# GULP energy per Si atom -5573.245904 kJ/mol
# Density = 1.896409 g / cm^3
# Si number density = 19.007347 Si / 1000 Ang^3
#
#
#
# Elastic Constant Matrix: (Units=GPa)
#
#
# Indices 1 2 3 4 5 6 
#
# 1 73.4337 32.3738 41.4069 0.0000 0.0000 0.0000
# 2 32.3738 46.4102 39.7548 0.0000 0.0000 0.0000
# 3 41.4069 39.7548 103.0272 0.0000 0.0000 0.0000
# 4 0.0000 0.0000 0.0000 14.9924 0.0000 0.0000
# 5 0.0000 0.0000 0.0000 0.0000 13.5274 0.0000
# 6 0.0000 0.0000 0.0000 0.0000 0.0000 39.4506
#
#
#
# Elastic Compliance Matrix: (Units=1/GPa)
#
#
# Indices 1 2 3 4 5 6 
#
# 1 0.020773 -0.010962 -0.004119 0.000000 0.000000 0.000000
# 2 -0.010962 0.037970 -0.010246 0.000000 0.000000 0.000000
# 3 -0.004119 -0.010246 0.015315 0.000000 0.000000 0.000000
# 4 0.000000 0.000000 0.000000 0.066700 0.000000 0.000000
# 5 0.000000 0.000000 0.000000 0.000000 0.073924 0.000000
# 6 0.000000 0.000000 0.000000 0.000000 0.000000 0.025348
#
#
# Mechanical properties :
#
#
# Convention : Reuss Voigt Hill
#
# Bulk Modulus (GPa) = 42.72630 49.99357 46.35993
# Shear Modulus (GPa) = 16.75122 20.88311 18.81717
#
# Velocity S-wave (km/s) = 2.97189 3.31824 3.14983
# Velocity P-wave (km/s) = 5.85695 6.40627 6.13776
#
# Compressibility (1/GPa) = 0.02340479
#
# Stress axis : x y z
#
# Youngs Moduli (GPa) = 48.13949 26.33645 65.29558
#
# Poissons Ratio (x) = 0.28871 0.26894
# Poissons Ratio (y) = 0.52772 0.66900
# Poissons Ratio (z) = 0.19827 0.26983
#
# Static dielectric constant tensor:
#      x y z
#    x 1.645220 0.000000 0.000000 
#    y 0.000000 1.691760 0.000000 
#    z 0.000000 0.000000 1.713470 
# 
# From -- ./inp_files/21345.got.cif
#   From: 2010.05.17/outbox.cif.g08.bks.cpg/sg73_11_cif.got.tgz:21345.got - 2010.06.03 17:35:07.
