data_PCOD9531496
_publ_section_title
;
Structure prediction by ZEFSAII (Michael W. Deem and Ramdas Pophale) SiO2 
 PCOD9531496
Probable space group: I B C A 
;
_chemical_formula_sum "Si O2"
_cell_formula_units_Z 64
_cell_length_a 5.427692
_cell_length_b 33.468904
_cell_length_c 13.857423
_cell_angle_alpha 90.000000
_cell_angle_beta 90.000000
_cell_angle_gamma 90.000000
_cell_volume 2517.324254
_symmetry_space_group_name_H-M "I B C A "
_symmetry_group_IT_number 73
_symmetry_cell_setting 'orthorhombic'
loop_
_space_group_symop_operation_xyz
x,y,z
-x,1/2-y,z
x,-y,1/2-z
1/2-x,y,-z
-x,-y,-z
x,1/2+y,-z
-x,y,1/2+z
1/2+x,-y,z
1/2+x,1/2+y,1/2+z
1/2-x,-y,1/2+z
1/2+x,1/2-y,-z
-x,1/2+y,1/2-z
1/2-x,1/2-y,1/2-z
1/2+x,y,1/2-z
1/2-x,1/2+y,z
x,1/2-y,1/2+z
loop_
_atom_site_type_symbol
_atom_site_label
_atom_site_fract_x
_atom_site_fract_y
_atom_site_fract_z
Si Si1 0.853070 0.894948 0.134327
Si Si2 0.748915 0.725945 0.115966
Si Si3 0.349759 0.363146 0.851286
Si Si4 0.944265 0.014138 0.390648
O O1 0.614907 0.870282 0.101125
O O2 0.871688 0.885514 0.248617
O O3 0.116024 0.881335 0.094948
O O4 0.832422 0.941700 0.115059
O O5 0.500000 0.750000 0.137803
O O6 0.720107 0.682934 0.164772
O O7 0.000000 0.750000 0.138940
O O8 0.750000 0.718858 0.000000
O O9 0.223619 0.013460 0.349019
O O10 0.000000 0.000000 0.500000
#
# Coordination Sequence:
#
# PCOD9531496 Si02
#       4
#    16  16  16  16
#     4  10  21  40  61  88 131 157 214 259 318 380
#     4  10  21  40  64  91 127 166 211 259 312 381
#     4  10  21  40  61  93 125 168 206 260 320 374
#     4  10  21  40  62  88 122 161 212 261 317 373
#
# _framework density 25.423821
#
# number of rings (size 3 to 8) (size 9 to 14) (size 15 to 20)
#    0.000    2.000    0.000    3.000    0.000    0.000 
#   13.500   30.000    0.000    0.000    0.000    0.000 
#    0.000    0.000    0.000    0.000    0.000    0.000 
#
# Total GULP energy -179000.004170 kJ/mol
# GULP energy per Si atom -5593.750130 kJ/mol
# Density = 2.536595 g / cm^3
# Si number density = 25.423821 Si / 1000 Ang^3
#
#
#
# Elastic Constant Matrix: (Units=GPa)
#
#
# Indices 1 2 3 4 5 6 
#
# 1 254.1788 30.6283 7.0152 0.0000 0.0000 0.0000
# 2 30.6283 157.9909 11.2410 0.0000 0.0000 0.0000
# 3 7.0152 11.2410 127.6044 0.0000 0.0000 0.0000
# 4 0.0000 0.0000 0.0000 90.7777 0.0000 0.0000
# 5 0.0000 0.0000 0.0000 0.0000 -0.8760 0.0000
# 6 0.0000 0.0000 0.0000 0.0000 0.0000 53.1174
#
#
#
# Elastic Compliance Matrix: (Units=1/GPa)
#
#
# Indices 1 2 3 4 5 6 
#
# 1 0.004031 -0.000771 -0.000154 0.000000 0.000000 0.000000
# 2 -0.000771 0.006517 -0.000532 0.000000 0.000000 0.000000
# 3 -0.000154 -0.000532 0.007892 0.000000 0.000000 0.000000
# 4 0.000000 0.000000 0.000000 0.011016 0.000000 0.000000
# 5 0.000000 0.000000 0.000000 0.000000 -1.141548 0.000000
# 6 0.000000 0.000000 0.000000 0.000000 0.000000 0.018826
#
#
# Mechanical properties :
#
#
# Convention : Reuss Voigt Hill
#
# Bulk Modulus (GPa) = 64.39992 70.83813 67.61902
# Shear Modulus (GPa) = -4.60754 61.32980 28.36113
#
# Velocity S-wave (km/s) = -1.34767 4.91684 3.34358
# Velocity P-wave (km/s) = 4.79207 7.75611 6.44675
#
# Compressibility (1/GPa) = 0.01552797
#
# Stress axis : x y z
#
# Youngs Moduli (GPa) = 248.05671 153.45206 126.71040
#
# Poissons Ratio (x) = 0.11825 0.01948
# Poissons Ratio (y) = 0.19115 0.06737
# Poissons Ratio (z) = 0.03814 0.08159
#
# Static dielectric constant tensor:
#      x y z
#    x 2.150340 0.000000 0.000000 
#    y 0.000000 1.968810 0.000000 
#    z 0.000000 0.000000 1.796280 
# 
# From -- ./inp_files/24358.got.cif
#   From: 2010.05.17/outbox.cif.g08.bks.cpg/sg73_13_cif.got.tgz:24358.got - 2010.06.03 17:35:07.
