data_PCOD9531772
_publ_section_title
;
Structure prediction by ZEFSAII (Michael W. Deem and Ramdas Pophale) SiO2 
 PCOD9531772
Probable space group: I B C A 
;
_chemical_formula_sum "Si O2"
_cell_formula_units_Z 88
_cell_length_a 25.484668
_cell_length_b 27.313892
_cell_length_c 5.662193
_cell_angle_alpha 90.000000
_cell_angle_beta 90.000000
_cell_angle_gamma 90.000000
_cell_volume 3941.370272
_symmetry_space_group_name_H-M "I B C A "
_symmetry_group_IT_number 73
_symmetry_cell_setting 'orthorhombic'
loop_
_space_group_symop_operation_xyz
x,y,z
-x,1/2-y,z
x,-y,1/2-z
1/2-x,y,-z
-x,-y,-z
x,1/2+y,-z
-x,y,1/2+z
1/2+x,-y,z
1/2+x,1/2+y,1/2+z
1/2-x,-y,1/2+z
1/2+x,1/2-y,-z
-x,1/2+y,1/2-z
1/2-x,1/2-y,1/2-z
1/2+x,y,1/2-z
1/2-x,1/2+y,z
x,1/2-y,1/2+z
loop_
_atom_site_type_symbol
_atom_site_label
_atom_site_fract_x
_atom_site_fract_y
_atom_site_fract_z
Si Si1 0.809408 0.000000 0.250000
Si Si2 0.689476 0.778918 0.014485
Si Si3 0.112203 0.859695 0.610279
Si Si4 0.196574 0.403597 0.033995
Si Si5 0.559586 0.731413 0.221172
Si Si6 0.619934 0.452722 0.848965
O O1 0.780833 0.950350 0.317257
O O2 0.845819 0.018650 0.458853
O O3 0.682853 0.754546 0.750813
O O4 0.649358 0.824063 0.043935
O O5 0.750000 0.796027 0.000000
O O6 0.067440 0.825441 0.719444
O O7 0.091470 0.907136 0.472528
O O8 0.152845 0.877309 0.809622
O O9 0.162364 0.426052 0.821327
O O10 0.250000 0.372915 0.000000
O O11 0.500000 0.750000 0.204586
O O12 0.581462 0.757941 0.458821
O O13 0.588412 0.500000 0.750000
#
# Coordination Sequence:
#
# PCOD9531772 Si02
#       6
#     8  16  16  16  16  16
#     4   8  18  34  48  74 112 170 224 278 304 350
#     4  10  23  38  54  79 117 162 213 261 315 383
#     4  11  23  35  61  88 124 170 216 270 339 391
#     4  10  22  31  52  80 121 171 228 266 312 376
#     4  10  23  44  71 101 128 157 209 275 342 413
#     4   9  20  37  53  82 124 169 229 272 318 379
#
# _framework density 22.327261
#
# number of rings (size 3 to 8) (size 9 to 14) (size 15 to 20)
#    0.000    2.182    0.000    1.091   11.455    2.182 
#    0.000    0.000    0.000    0.000    0.000    5.091 
#    0.000    0.000    0.000    0.000    0.000    0.000 
#
# Total GULP energy -244968.700016 kJ/mol
# GULP energy per Si atom -5567.470455 kJ/mol
# Density = 2.227644 g / cm^3
# Si number density = 22.327261 Si / 1000 Ang^3
#
#
#
# Elastic Constant Matrix: (Units=GPa)
#
#
# Indices 1 2 3 4 5 6 
#
# 1 56.1536 30.3836 6.9831 0.0000 0.0000 0.0000
# 2 30.3836 118.8343 25.8527 0.0000 0.0000 0.0000
# 3 6.9831 25.8527 97.8407 0.0000 0.0000 0.0000
# 4 0.0000 0.0000 0.0000 32.5074 0.0000 0.0000
# 5 0.0000 0.0000 0.0000 0.0000 17.1419 0.0000
# 6 0.0000 0.0000 0.0000 0.0000 0.0000 -2.7705
#
#
#
# Elastic Compliance Matrix: (Units=1/GPa)
#
#
# Indices 1 2 3 4 5 6 
#
# 1 0.020668 -0.005266 -0.000084 0.000000 0.000000 0.000000
# 2 -0.005266 0.010270 -0.002338 0.000000 0.000000 0.000000
# 3 -0.000084 -0.002338 0.010844 0.000000 0.000000 0.000000
# 4 0.000000 0.000000 0.000000 0.030762 0.000000 0.000000
# 5 0.000000 0.000000 0.000000 0.000000 0.058337 0.000000
# 6 0.000000 0.000000 0.000000 0.000000 0.000000 -0.360946
#
#
# Mechanical properties :
#
#
# Convention : Reuss Voigt Hill
#
# Bulk Modulus (GPa) = 37.86832 44.36305 41.11569
# Shear Modulus (GPa) = -24.28517 23.34971 -0.46773
#
# Velocity S-wave (km/s) = -3.30159 3.23738 -0.45820
# Velocity P-wave (km/s) = 1.56951 5.82124 4.26322
#
# Compressibility (1/GPa) = 0.02640730
#
# Stress axis : x y z
#
# Youngs Moduli (GPa) = 48.38359 97.36949 92.21353
#
# Poissons Ratio (x) = 0.51277 0.00771
# Poissons Ratio (y) = 0.25480 0.21558
# Poissons Ratio (z) = 0.00405 0.22764
#
# Static dielectric constant tensor:
#      x y z
#    x 1.573170 0.000000 0.000000 
#    y 0.000000 1.931730 0.000000 
#    z 0.000000 0.000000 1.971590 
# 
# From -- ./inp_files/3110.got.cif
#   From: 2010.05.17/outbox.cif.g08.bks.cpg/sg73_2_cif.got.tgz:3110.got - 2010.06.03 17:35:07.
