data_PCOD9531823
_publ_section_title
;
Structure prediction by ZEFSAII (Michael W. Deem and Ramdas Pophale) SiO2 
 PCOD9531823
Probable space group: I B C A 
;
_chemical_formula_sum "Si O2"
_cell_formula_units_Z 88
_cell_length_a 22.441620
_cell_length_b 20.991799
_cell_length_c 9.060578
_cell_angle_alpha 90.000000
_cell_angle_beta 90.000000
_cell_angle_gamma 90.000000
_cell_volume 4268.347475
_symmetry_space_group_name_H-M "I B C A "
_symmetry_group_IT_number 73
_symmetry_cell_setting 'orthorhombic'
loop_
_space_group_symop_operation_xyz
x,y,z
-x,1/2-y,z
x,-y,1/2-z
1/2-x,y,-z
-x,-y,-z
x,1/2+y,-z
-x,y,1/2+z
1/2+x,-y,z
1/2+x,1/2+y,1/2+z
1/2-x,-y,1/2+z
1/2+x,1/2-y,-z
-x,1/2+y,1/2-z
1/2-x,1/2-y,1/2-z
1/2+x,y,1/2-z
1/2-x,1/2+y,z
x,1/2-y,1/2+z
loop_
_atom_site_type_symbol
_atom_site_label
_atom_site_fract_x
_atom_site_fract_y
_atom_site_fract_z
Si Si1 0.785633 0.062669 0.845748
Si Si2 0.750000 0.259380 0.500000
Si Si3 0.587707 0.134035 0.153993
Si Si4 0.198009 0.832737 0.746652
Si Si5 0.492626 0.653736 0.091949
Si Si6 0.422636 0.786300 0.331500
O O1 0.848736 0.099652 0.864912
O O2 0.740397 0.106991 0.752401
O O3 0.796512 0.000000 0.750000
O O4 0.750000 0.050913 0.000000
O O5 0.777764 0.215859 0.375280
O O6 0.703564 0.302279 0.409992
O O7 0.541709 0.122970 0.018112
O O8 0.552789 0.113862 0.304379
O O9 0.595846 0.211741 0.170015
O O10 0.130130 0.835947 0.701642
O O11 0.451554 0.696992 0.987333
O O12 0.529930 0.694172 0.209065
#
# Coordination Sequence:
#
# PCOD9531823 Si02
#       6
#    16   8  16  16  16  16
#     4  12  29  49  67  92 131 184 235 280 327 395
#     4  10  22  40  62 108 128 164 208 272 354 408
#     4  11  21  41  65  96 138 169 218 269 334 398
#     4  11  24  39  67  98 137 171 217 270 341 404
#     4  10  22  36  62 103 137 175 207 264 337 407
#     4  11  21  35  63  99 141 172 209 267 340 402
#
# _framework density 20.616879000000001
#
# number of rings (size 3 to 8) (size 9 to 14) (size 15 to 20)
#    0.000    1.091    0.909    7.636    8.909    0.000 
#    0.000    0.909    0.000    4.364    0.000    0.000 
#    0.000    0.000    0.000    0.000    0.000    0.000 
#
# Total GULP energy -245617.134020 kJ/mol
# GULP energy per Si atom -5582.207591 kJ/mol
# Density = 2.056995 g / cm^3
# Si number density = 20.616879 Si / 1000 Ang^3
#
#
#
# Elastic Constant Matrix: (Units=GPa)
#
#
# Indices 1 2 3 4 5 6 
#
# 1 156.0685 50.6652 60.0811 0.0000 0.0000 0.0000
# 2 50.6652 72.3124 38.1640 0.0000 0.0000 0.0000
# 3 60.0811 38.1640 150.7230 0.0000 0.0000 0.0000
# 4 0.0000 0.0000 0.0000 66.2794 0.0000 0.0000
# 5 0.0000 0.0000 0.0000 0.0000 26.5153 0.0000
# 6 0.0000 0.0000 0.0000 0.0000 0.0000 31.0897
#
#
#
# Elastic Compliance Matrix: (Units=1/GPa)
#
#
# Indices 1 2 3 4 5 6 
#
# 1 0.008924 -0.005050 -0.002279 0.000000 0.000000 0.000000
# 2 -0.005050 0.018820 -0.002752 0.000000 0.000000 0.000000
# 3 -0.002279 -0.002752 0.008240 0.000000 0.000000 0.000000
# 4 0.000000 0.000000 0.000000 0.015088 0.000000 0.000000
# 5 0.000000 0.000000 0.000000 0.000000 0.037714 0.000000
# 6 0.000000 0.000000 0.000000 0.000000 0.000000 0.032165
#
#
# Mechanical properties :
#
#
# Convention : Reuss Voigt Hill
#
# Bulk Modulus (GPa) = 63.20351 75.21383 69.20867
# Shear Modulus (GPa) = 34.15629 40.12312 37.13970
#
# Velocity S-wave (km/s) = 4.07469 4.41628 4.24892
# Velocity P-wave (km/s) = 7.27050 7.90984 7.59690
#
# Compressibility (1/GPa) = 0.01582191
#
# Stress axis : x y z
#
# Youngs Moduli (GPa) = 112.05706 53.13591 121.36128
#
# Poissons Ratio (x) = 0.26834 0.27653
# Poissons Ratio (y) = 0.56589 0.33401
# Poissons Ratio (z) = 0.25533 0.14624
#
# Static dielectric constant tensor:
#      x y z
#    x 1.901360 0.000000 0.000000 
#    y 0.000000 1.738210 0.000000 
#    z 0.000000 0.000000 1.769550 
# 
# From -- ./inp_files/7063.got.cif
#   From: 2010.05.17/outbox.cif.g08.bks.cpg/sg73_4_cif.got.tgz:7063.got - 2010.06.03 17:35:07.
