data_PCOD9531618
_publ_section_title
;
Structure prediction by ZEFSAII (Michael W. Deem and Ramdas Pophale) SiO2 
 PCOD9531618
Probable space group: I B C A 
;
_chemical_formula_sum "Si O2"
_cell_formula_units_Z 96
_cell_length_a 31.642232
_cell_length_b 9.941373
_cell_length_c 14.115339
_cell_angle_alpha 90.000000
_cell_angle_beta 90.000000
_cell_angle_gamma 90.000000
_cell_volume 4440.223102
_symmetry_space_group_name_H-M "I B C A "
_symmetry_group_IT_number 73
_symmetry_cell_setting 'orthorhombic'
loop_
_space_group_symop_operation_xyz
x,y,z
-x,1/2-y,z
x,-y,1/2-z
1/2-x,y,-z
-x,-y,-z
x,1/2+y,-z
-x,y,1/2+z
1/2+x,-y,z
1/2+x,1/2+y,1/2+z
1/2-x,-y,1/2+z
1/2+x,1/2-y,-z
-x,1/2+y,1/2-z
1/2-x,1/2-y,1/2-z
1/2+x,y,1/2-z
1/2-x,1/2+y,z
x,1/2-y,1/2+z
loop_
_atom_site_type_symbol
_atom_site_label
_atom_site_fract_x
_atom_site_fract_y
_atom_site_fract_z
Si Si1 0.409644 0.807001 0.938525
Si Si2 0.868698 0.737802 0.240839
Si Si3 0.798908 0.086553 0.845713
Si Si4 0.575636 0.500000 0.250000
Si Si5 0.250000 0.286730 0.000000
Si Si6 0.161128 0.349154 0.553066
Si Si7 0.455974 0.034492 0.048445
O O1 0.399615 0.845867 0.829377
O O2 0.446383 0.694378 0.950854
O O3 0.370443 0.715777 0.976608
O O4 0.421016 0.941455 0.995450
O O5 0.823062 0.717863 0.192527
O O6 0.860108 0.699171 0.348524
O O7 0.892337 0.877408 0.238818
O O8 0.758732 0.125319 0.906567
O O9 0.791684 0.000000 0.750000
O O10 0.828619 0.004353 0.920033
O O11 0.547145 0.510670 0.157301
O O12 0.292313 0.204750 0.975165
O O13 0.500000 0.000000 0.000000
#
# Coordination Sequence:
#
# PCOD9531618 Si02
#       7
#    16  16  16   8   8  16  16
#     4  11  22  43  71  96 139 181 226 282 348 413
#     4  10  21  41  67  95 129 177 233 274 337 419
#     4  10  23  42  62  95 134 174 236 294 343 406
#     4  10  22  44  72 102 132 180 232 276 350 422
#     4  12  24  42  64 100 140 184 234 296 360 406
#     4  11  23  42  65  96 134 180 237 281 351 408
#     4  11  24  45  70 105 138 178 227 287 350 422
#
# _framework density 21.620536999999999
#
# number of rings (size 3 to 8) (size 9 to 14) (size 15 to 20)
#    0.000    1.333    3.333    2.000    0.000    2.667 
#   10.500    1.667    0.000    0.000    0.000    0.000 
#    0.000    0.000    0.000    0.000    0.000    0.000 
#
# Total GULP energy -267501.261214 kJ/mol
# GULP energy per Si atom -5572.942942 kJ/mol
# Density = 2.157133 g / cm^3
# Si number density = 21.620537 Si / 1000 Ang^3
#
#
#
# Elastic Constant Matrix: (Units=GPa)
#
#
# Indices 1 2 3 4 5 6 
#
# 1 92.5137 21.6346 25.5751 0.0000 0.0000 0.0000
# 2 21.6346 49.8512 21.2386 0.0000 0.0000 0.0000
# 3 25.5751 21.2386 124.3924 0.0000 0.0000 0.0000
# 4 0.0000 0.0000 0.0000 24.0404 0.0000 0.0000
# 5 0.0000 0.0000 0.0000 0.0000 44.6824 0.0000
# 6 0.0000 0.0000 0.0000 0.0000 0.0000 15.4462
#
#
#
# Elastic Compliance Matrix: (Units=1/GPa)
#
#
# Indices 1 2 3 4 5 6 
#
# 1 0.012375 -0.004623 -0.001755 0.000000 0.000000 0.000000
# 2 -0.004623 0.023360 -0.003038 0.000000 0.000000 0.000000
# 3 -0.001755 -0.003038 0.008919 0.000000 0.000000 0.000000
# 4 0.000000 0.000000 0.000000 0.041597 0.000000 0.000000
# 5 0.000000 0.000000 0.000000 0.000000 0.022380 0.000000
# 6 0.000000 0.000000 0.000000 0.000000 0.000000 0.064741
#
#
# Mechanical properties :
#
#
# Convention : Reuss Voigt Hill
#
# Bulk Modulus (GPa) = 38.72633 44.85042 41.78838
# Shear Modulus (GPa) = 24.89895 30.05440 27.47668
#
# Velocity S-wave (km/s) = 3.39726 3.73243 3.56878
# Velocity P-wave (km/s) = 5.77401 6.27408 6.02923
#
# Compressibility (1/GPa) = 0.02582222
#
# Stress axis : x y z
#
# Youngs Moduli (GPa) = 80.80484 42.80760 112.12483
#
# Poissons Ratio (x) = 0.19790 0.19679
# Poissons Ratio (y) = 0.37356 0.34064
# Poissons Ratio (z) = 0.14182 0.13005
#
# Static dielectric constant tensor:
#      x y z
#    x 1.854680 0.000000 0.000000 
#    y 0.000000 1.823810 0.000000 
#    z 0.000000 0.000000 1.803890 
# 
# From -- ./inp_files/20005.got.cif
#   From: 2010.05.17/outbox.cif.g08.bks.cpg/sg73_11_cif.got.tgz:20005.got - 2010.06.03 17:35:07.
