data_PCOD9531770
_publ_section_title
;
Structure prediction by ZEFSAII (Michael W. Deem and Ramdas Pophale) SiO2 
 PCOD9531770
Probable space group: I B C A 
;
_chemical_formula_sum "Si O2"
_cell_formula_units_Z 88
_cell_length_a 24.501371
_cell_length_b 13.716004
_cell_length_c 11.021573
_cell_angle_alpha 90.000000
_cell_angle_beta 90.000000
_cell_angle_gamma 90.000000
_cell_volume 3703.919771
_symmetry_space_group_name_H-M "I B C A "
_symmetry_group_IT_number 73
_symmetry_cell_setting 'orthorhombic'
loop_
_space_group_symop_operation_xyz
x,y,z
-x,1/2-y,z
x,-y,1/2-z
1/2-x,y,-z
-x,-y,-z
x,1/2+y,-z
-x,y,1/2+z
1/2+x,-y,z
1/2+x,1/2+y,1/2+z
1/2-x,-y,1/2+z
1/2+x,1/2-y,-z
-x,1/2+y,1/2-z
1/2-x,1/2-y,1/2-z
1/2+x,y,1/2-z
1/2-x,1/2+y,z
x,1/2-y,1/2+z
loop_
_atom_site_type_symbol
_atom_site_label
_atom_site_fract_x
_atom_site_fract_y
_atom_site_fract_z
Si Si1 0.625719 0.410021 0.654427
Si Si2 0.284353 0.000389 0.382788
Si Si3 0.602775 0.066763 0.547682
Si Si4 0.453312 0.668452 0.159014
Si Si5 0.741291 0.801908 0.376008
Si Si6 0.024296 0.000000 0.750000
O O1 0.632879 0.500000 0.750000
O O2 0.605208 0.466662 0.533716
O O3 0.583113 0.335894 0.718398
O O4 0.682410 0.354388 0.633798
O O5 0.250000 0.973485 0.500000
O O6 0.289084 0.117158 0.392449
O O7 0.257974 0.000000 0.250000
O O8 0.338119 0.935697 0.389178
O O9 0.586880 0.153894 0.456057
O O10 0.560370 0.061224 0.656855
O O11 0.500000 0.750000 0.150429
O O12 0.487164 0.568462 0.168209
O O13 0.750000 0.741793 0.500000
O O14 0.750000 0.750000 0.250000
#
# Coordination Sequence:
#
# PCOD9531770 Si02
#       6
#    16  16  16  16  16   8
#     4  10  21  47  74  99 140 197 250 310 385 461
#     4  11  23  42  76 110 149 199 262 304 385 483
#     4  11  22  45  74 105 143 195 258 318 383 473
#     4  11  26  46  74 107 143 199 260 326 397 459
#     4  11  24  43  67 105 153 193 243 313 384 464
#     4  12  24  44  70 102 146 194 254 320 388 460
#
# _framework density 23.758614000000001
#
# number of rings (size 3 to 8) (size 9 to 14) (size 15 to 20)
#    0.000    1.091    7.273    1.091    2.545    2.909 
#    0.000    0.000    0.000    0.000    0.000    0.000 
#    0.000    0.000    0.000    0.000    0.000    0.000 
#
# Total GULP energy -245564.260173 kJ/mol
# GULP energy per Si atom -5581.005913 kJ/mol
# Density = 2.370454 g / cm^3
# Si number density = 23.758614 Si / 1000 Ang^3
#
#
#
# Elastic Constant Matrix: (Units=GPa)
#
#
# Indices 1 2 3 4 5 6 
#
# 1 116.4644 25.2162 36.8744 0.0000 0.0000 0.0000
# 2 25.2162 73.2932 10.7426 0.0000 0.0000 0.0000
# 3 36.8744 10.7426 147.1362 0.0000 0.0000 0.0000
# 4 0.0000 0.0000 0.0000 25.4606 0.0000 0.0000
# 5 0.0000 0.0000 0.0000 0.0000 59.3438 0.0000
# 6 0.0000 0.0000 0.0000 0.0000 0.0000 43.6557
#
#
#
# Elastic Compliance Matrix: (Units=1/GPa)
#
#
# Indices 1 2 3 4 5 6 
#
# 1 0.009977 -0.003099 -0.002274 0.000000 0.000000 0.000000
# 2 -0.003099 0.014754 -0.000300 0.000000 0.000000 0.000000
# 3 -0.002274 -0.000300 0.007388 0.000000 0.000000 0.000000
# 4 0.000000 0.000000 0.000000 0.039276 0.000000 0.000000
# 5 0.000000 0.000000 0.000000 0.000000 0.016851 0.000000
# 6 0.000000 0.000000 0.000000 0.000000 0.000000 0.022907
#
#
# Mechanical properties :
#
#
# Convention : Reuss Voigt Hill
#
# Bulk Modulus (GPa) = 48.14207 53.61780 50.87994
# Shear Modulus (GPa) = 38.63219 43.29607 40.96413
#
# Velocity S-wave (km/s) = 4.03678 4.27351 4.15683
# Velocity P-wave (km/s) = 6.48340 6.85326 6.67089
#
# Compressibility (1/GPa) = 0.02077185
#
# Stress axis : x y z
#
# Youngs Moduli (GPa) = 100.22644 67.77736 135.34906
#
# Poissons Ratio (x) = 0.21007 0.30781
# Poissons Ratio (y) = 0.31064 0.04067
# Poissons Ratio (z) = 0.22793 0.02037
#
# Static dielectric constant tensor:
#      x y z
#    x 1.931400 0.000000 0.000000 
#    y 0.000000 1.959480 0.000000 
#    z 0.000000 0.000000 2.043570 
# 
# From -- ./inp_files/13538.got.cif
#   From: 2010.05.17/outbox.cif.g08.bks.cpg/sg73_7_cif.got.tgz:13538.got - 2010.06.03 17:35:07.
