data_PCOD9531453
_publ_section_title
;
Structure prediction by ZEFSAII (Michael W. Deem and Ramdas Pophale) SiO2 
 PCOD9531453
Probable space group: I B C A 
;
_chemical_formula_sum "Si O2"
_cell_formula_units_Z 104
_cell_length_a 15.578793
_cell_length_b 22.326918
_cell_length_c 13.418917
_cell_angle_alpha 90.000000
_cell_angle_beta 90.000000
_cell_angle_gamma 90.000000
_cell_volume 4667.454046
_symmetry_space_group_name_H-M "I B C A "
_symmetry_group_IT_number 73
_symmetry_cell_setting 'orthorhombic'
loop_
_space_group_symop_operation_xyz
x,y,z
-x,1/2-y,z
x,-y,1/2-z
1/2-x,y,-z
-x,-y,-z
x,1/2+y,-z
-x,y,1/2+z
1/2+x,-y,z
1/2+x,1/2+y,1/2+z
1/2-x,-y,1/2+z
1/2+x,1/2-y,-z
-x,1/2+y,1/2-z
1/2-x,1/2-y,1/2-z
1/2+x,y,1/2-z
1/2-x,1/2+y,z
x,1/2-y,1/2+z
loop_
_atom_site_type_symbol
_atom_site_label
_atom_site_fract_x
_atom_site_fract_y
_atom_site_fract_z
Si Si1 0.374283 0.900162 0.887281
Si Si2 0.989369 0.116374 0.687775
Si Si3 0.112095 0.529265 0.956430
Si Si4 0.660481 0.711909 0.032373
Si Si5 0.794139 0.543404 0.652219
Si Si6 0.813205 0.879338 0.308015
Si Si7 0.000000 0.250000 0.611689
O O1 0.430885 0.891824 0.787144
O O2 0.411657 0.960072 0.936971
O O3 0.271341 0.906720 0.863143
O O4 0.370448 0.844001 0.963374
O O5 0.997401 0.187918 0.671235
O O6 0.089262 0.095483 0.687906
O O7 0.945305 0.078408 0.599282
O O8 0.204459 0.533669 0.901966
O O9 0.130029 0.536967 0.073179
O O10 0.679640 0.684828 0.141720
O O11 0.582347 0.755346 0.041602
O O12 0.750000 0.738241 0.000000
O O13 0.800719 0.500000 0.750000
O O14 0.791597 0.611151 0.693600
#
# Coordination Sequence:
#
# PCOD9531453 Si02
#       7
#    16  16  16  16  16  16   8
#     4  11  21  43  67  97 133 177 229 276 350 418
#     4  11  24  44  66  98 138 182 228 290 339 406
#     4  11  23  39  67 100 141 177 216 286 348 402
#     4   9  21  42  72  92 126 185 227 284 343 415
#     4  11  20  37  65  95 135 183 214 268 340 413
#     4  10  21  39  64  91 131 176 222 267 343 408
#     4  10  24  48  64  96 140 176 238 294 334 396
#
# _framework density 22.281953999999999
#
# number of rings (size 3 to 8) (size 9 to 14) (size 15 to 20)
#    0.000    1.538    3.077    1.385    4.308    4.308 
#    2.769   14.615    0.000    0.000    0.000    0.000 
#    0.000    0.000    0.000    0.000    0.000    0.000 
#
# Total GULP energy -289740.739238 kJ/mol
# GULP energy per Si atom -5571.937293 kJ/mol
# Density = 2.223124 g / cm^3
# Si number density = 22.281954 Si / 1000 Ang^3
#
#
#
# Elastic Constant Matrix: (Units=GPa)
#
#
# Indices 1 2 3 4 5 6 
#
# 1 91.1043 4.6021 16.5882 0.0000 0.0000 0.0000
# 2 4.6021 33.8735 18.1614 0.0000 0.0000 0.0000
# 3 16.5882 18.1614 93.5680 0.0000 0.0000 0.0000
# 4 0.0000 0.0000 0.0000 2.4007 0.0000 0.0000
# 5 0.0000 0.0000 0.0000 0.0000 27.1047 0.0000
# 6 0.0000 0.0000 0.0000 0.0000 0.0000 15.1516
#
#
#
# Elastic Compliance Matrix: (Units=1/GPa)
#
#
# Indices 1 2 3 4 5 6 
#
# 1 0.011351 -0.000517 -0.001912 0.000000 0.000000 0.000000
# 2 -0.000517 0.032974 -0.006309 0.000000 0.000000 0.000000
# 3 -0.001912 -0.006309 0.012251 0.000000 0.000000 0.000000
# 4 0.000000 0.000000 0.000000 0.416546 0.000000 -0.000001
# 5 0.000000 0.000000 0.000000 0.000000 0.036894 0.000000
# 6 0.000000 0.000000 0.000000 -0.000001 0.000000 0.066000
#
#
# Mechanical properties :
#
#
# Convention : Reuss Voigt Hill
#
# Bulk Modulus (GPa) = 25.57502 33.02768 29.30135
# Shear Modulus (GPa) = 8.24370 20.87767 14.56068
#
# Velocity S-wave (km/s) = 1.92555 3.06433 2.55909
# Velocity P-wave (km/s) = 4.05543 5.23211 4.68089
#
# Compressibility (1/GPa) = 0.03910065
#
# Stress axis : x y z
#
# Youngs Moduli (GPa) = 88.10052 30.32677 81.62691
#
# Poissons Ratio (x) = 0.01568 0.15607
# Poissons Ratio (y) = 0.04555 0.51495
# Poissons Ratio (z) = 0.16844 0.19132
#
# Static dielectric constant tensor:
#      x y z
#    x 1.873620 0.000000 0.000000 
#    y 0.000000 1.889540 0.000000 
#    z 0.000000 0.000000 1.850010 
# 
# From -- ./inp_files/17250.got.cif
#   From: 2010.05.17/outbox.cif.g08.bks.cpg/sg73_9_cif.got.tgz:17250.got - 2010.06.03 17:35:07.
