data_PCOD9531313
_publ_section_title
;
Structure prediction by ZEFSAII (Michael W. Deem and Ramdas Pophale) SiO2 
 PCOD9531313
Probable space group: I B C A 
;
_chemical_formula_sum "Si O2"
_cell_formula_units_Z 120
_cell_length_a 33.124069
_cell_length_b 26.918118
_cell_length_c 7.833936
_cell_angle_alpha 90.000000
_cell_angle_beta 90.000000
_cell_angle_gamma 90.000000
_cell_volume 6985.031878
_symmetry_space_group_name_H-M "I B C A "
_symmetry_group_IT_number 73
_symmetry_cell_setting 'orthorhombic'
loop_
_space_group_symop_operation_xyz
x,y,z
-x,1/2-y,z
x,-y,1/2-z
1/2-x,y,-z
-x,-y,-z
x,1/2+y,-z
-x,y,1/2+z
1/2+x,-y,z
1/2+x,1/2+y,1/2+z
1/2-x,-y,1/2+z
1/2+x,1/2-y,-z
-x,1/2+y,1/2-z
1/2-x,1/2-y,1/2-z
1/2+x,y,1/2-z
1/2-x,1/2+y,z
x,1/2-y,1/2+z
loop_
_atom_site_type_symbol
_atom_site_label
_atom_site_fract_x
_atom_site_fract_y
_atom_site_fract_z
Si Si1 0.340328 0.287142 0.886694
Si Si2 0.035350 0.437154 0.570141
Si Si3 0.050938 0.837748 0.642952
Si Si4 0.914189 0.788713 0.833501
Si Si5 0.280834 0.777720 0.377980
Si Si6 0.945489 0.546473 0.034700
Si Si7 0.500000 0.750000 0.275620
Si Si8 0.093499 0.643175 0.500146
O O1 0.375099 0.247258 0.828657
O O2 0.313379 0.306304 0.731283
O O3 0.363401 0.333275 0.964058
O O4 0.309008 0.260476 0.015257
O O5 0.044708 0.390044 0.452619
O O6 0.045613 0.437511 0.769692
O O7 0.057960 0.487505 0.510064
O O8 0.986989 0.442281 0.563570
O O9 0.084317 0.811355 0.523255
O O10 0.011337 0.802266 0.633210
O O11 0.064727 0.842633 0.838948
O O12 0.916200 0.829571 0.681415
O O13 0.957175 0.760436 0.815433
O O14 0.250000 0.806295 0.500000
O O15 0.250000 0.750000 0.250000
O O16 0.909505 0.583745 0.993548
#
# Coordination Sequence:
#
# PCOD9531313 Si02
#       8
#    16  16  16  16  16  16   8  16
#     4  11  19  37  54  80 117 153 194 237 292 342
#     4  10  21  38  57  71 102 141 206 267 302 332
#     4  12  25  36  52  74 105 156 199 252 286 335
#     4  12  24  38  49  76 115 158 200 242 279 339
#     4   9  19  34  58  82 108 152 198 229 283 364
#     4  10  21  38  55  77  98 141 201 266 307 336
#     4  12  26  36  50  74 114 160 212 236 284 340
#     4  12  23  36  56  77 109 149 192 245 299 336
#
# _framework density 17.179592
#
# number of rings (size 3 to 8) (size 9 to 14) (size 15 to 20)
#    0.000    1.067    4.000    3.600    3.733    1.600 
#    0.000    0.000    0.000    0.000    0.000    0.000 
#    0.000    0.000    0.000  138.000    3.733    0.000 
#
# Total GULP energy -334007.532703 kJ/mol
# GULP energy per Si atom -5566.792212 kJ/mol
# Density = 1.714049 g / cm^3
# Si number density = 17.179592 Si / 1000 Ang^3
#
#
#
# Elastic Constant Matrix: (Units=GPa)
#
#
# Indices 1 2 3 4 5 6 
#
# 1 81.1203 33.6664 18.7310 0.0000 0.0000 0.0000
# 2 33.6664 93.2354 19.8419 0.0000 0.0000 0.0000
# 3 18.7310 19.8419 63.2603 0.0000 0.0000 0.0000
# 4 0.0000 0.0000 0.0000 17.1427 0.0000 0.0000
# 5 0.0000 0.0000 0.0000 0.0000 36.8465 0.0000
# 6 0.0000 0.0000 0.0000 0.0000 0.0000 11.2434
#
#
#
# Elastic Compliance Matrix: (Units=1/GPa)
#
#
# Indices 1 2 3 4 5 6 
#
# 1 0.014993 -0.004789 -0.002937 0.000000 0.000000 0.000000
# 2 -0.004789 0.013022 -0.002667 0.000000 0.000000 0.000000
# 3 -0.002937 -0.002667 0.017514 0.000000 0.000000 0.000000
# 4 0.000000 0.000000 0.000000 0.058334 0.000000 0.000000
# 5 0.000000 0.000000 0.000000 0.000000 0.027140 0.000000
# 6 0.000000 0.000000 0.000000 0.000000 0.000000 0.088941
#
#
# Mechanical properties :
#
#
# Convention : Reuss Voigt Hill
#
# Bulk Modulus (GPa) = 40.41419 42.45494 41.43456
# Shear Modulus (GPa) = 20.08220 24.07163 22.07692
#
# Velocity S-wave (km/s) = 3.42271 3.74729 3.58867
# Velocity P-wave (km/s) = 6.26063 6.59462 6.42979
#
# Compressibility (1/GPa) = 0.02474378
#
# Stress axis : x y z
#
# Youngs Moduli (GPa) = 66.69770 76.79200 57.09779
#
# Poissons Ratio (x) = 0.36774 0.16772
# Poissons Ratio (y) = 0.31940 0.15225
# Poissons Ratio (z) = 0.19591 0.20477
#
# Static dielectric constant tensor:
#      x y z
#    x 1.562430 0.000000 0.000000 
#    y 0.000000 1.627760 0.000000 
#    z 0.000000 0.000000 1.713660 
# 
# From -- ./inp_files/8606.got.cif
#   From: 2010.05.17/outbox.cif.g08.bks.cpg/sg73_5_cif.got.tgz:8606.got - 2010.06.03 17:35:07.
