data_PCOD9531706
_publ_section_title
;
Structure prediction by ZEFSAII (Michael W. Deem and Ramdas Pophale) SiO2 
 PCOD9531706
Probable space group: I B C A 
;
_chemical_formula_sum "Si O2"
_cell_formula_units_Z 112
_cell_length_a 13.427342
_cell_length_b 12.914016
_cell_length_c 29.267728
_cell_angle_alpha 90.000000
_cell_angle_beta 90.000000
_cell_angle_gamma 90.000000
_cell_volume 5075.050652
_symmetry_space_group_name_H-M "I B C A "
_symmetry_group_IT_number 73
_symmetry_cell_setting 'orthorhombic'
loop_
_space_group_symop_operation_xyz
x,y,z
-x,1/2-y,z
x,-y,1/2-z
1/2-x,y,-z
-x,-y,-z
x,1/2+y,-z
-x,y,1/2+z
1/2+x,-y,z
1/2+x,1/2+y,1/2+z
1/2-x,-y,1/2+z
1/2+x,1/2-y,-z
-x,1/2+y,1/2-z
1/2-x,1/2-y,1/2-z
1/2+x,y,1/2-z
1/2-x,1/2+y,z
x,1/2-y,1/2+z
loop_
_atom_site_type_symbol
_atom_site_label
_atom_site_fract_x
_atom_site_fract_y
_atom_site_fract_z
Si Si1 0.283073 0.135459 0.064827
Si Si2 0.088811 0.671347 0.231389
Si Si3 0.314290 0.496497 0.365172
Si Si4 0.626592 0.532449 0.184959
Si Si5 0.118382 0.728903 0.643468
Si Si6 0.504001 0.626176 0.610065
Si Si7 0.919389 0.838641 0.981919
O O1 0.327747 0.202628 0.105616
O O2 0.184245 0.192485 0.044364
O O3 0.241293 0.031198 0.087464
O O4 0.369005 0.116621 0.027490
O O5 0.062312 0.565059 0.203272
O O6 0.129723 0.623075 0.277831
O O7 0.151771 0.735967 0.194257
O O8 0.000000 0.750000 0.243066
O O9 0.236223 0.490103 0.324345
O O10 0.359417 0.610087 0.365740
O O11 0.400662 0.412322 0.361784
O O12 0.586738 0.576421 0.137128
O O13 0.000000 0.750000 0.641476
O O14 0.500000 0.750000 0.609681
O O15 0.523360 0.594861 0.557082
O O16 0.000000 0.750000 0.994070
#
# Coordination Sequence:
#
# PCOD9531706 Si02
#       7
#    16  16  16  16  16  16  16
#     4  10  21  43  67 100 146 182 240 300 352 436
#     4  10  22  43  68 100 140 187 236 294 363 425
#     4  11  25  40  70 104 135 191 242 291 365 434
#     4  11  23  42  69 103 142 182 242 301 355 444
#     4  11  23  43  72  96 144 188 239 299 368 423
#     4  10  22  42  69  95 140 186 235 294 359 422
#     4   9  20  39  69  98 140 189 239 287 361 427
#
# _framework density 22.068745
#
# number of rings (size 3 to 8) (size 9 to 14) (size 15 to 20)
#    0.000    1.714    1.429    2.571    6.000    0.571 
#    0.000   16.429    6.286    0.000    0.000    0.000 
#    0.000    0.000    0.000    0.000    0.000    0.000 
#
# Total GULP energy -312310.072151 kJ/mol
# GULP energy per Si atom -5576.965574 kJ/mol
# Density = 2.201852 g / cm^3
# Si number density = 22.068745 Si / 1000 Ang^3
#
#
#
# Elastic Constant Matrix: (Units=GPa)
#
#
# Indices 1 2 3 4 5 6 
#
# 1 87.6787 58.6025 45.3294 0.0000 0.0000 0.0000
# 2 58.6025 120.9107 44.0631 0.0000 0.0000 0.0000
# 3 45.3294 44.0631 93.7836 0.0000 0.0000 0.0000
# 4 0.0000 0.0000 0.0000 -28.7614 0.0000 0.0000
# 5 0.0000 0.0000 0.0000 0.0000 25.2512 0.0000
# 6 0.0000 0.0000 0.0000 0.0000 0.0000 36.7122
#
#
#
# Elastic Compliance Matrix: (Units=1/GPa)
#
#
# Indices 1 2 3 4 5 6 
#
# 1 0.019275 -0.007176 -0.005945 0.000000 0.000000 0.000000
# 2 -0.007176 0.012650 -0.002475 0.000000 0.000000 0.000000
# 3 -0.005945 -0.002475 0.014699 0.000000 0.000000 0.000000
# 4 0.000000 0.000000 0.000000 -0.034769 0.000000 0.000000
# 5 0.000000 0.000000 0.000000 0.000000 0.039602 0.000000
# 6 0.000000 0.000000 0.000000 0.000000 0.000000 0.027239
#
#
# Mechanical properties :
#
#
# Convention : Reuss Voigt Hill
#
# Bulk Modulus (GPa) = 64.79728 66.48479 65.64104
# Shear Modulus (GPa) = 43.46584 16.93225 30.19904
#
# Velocity S-wave (km/s) = 4.44279 2.77293 3.70321
# Velocity P-wave (km/s) = 7.46614 6.35955 6.93495
#
# Compressibility (1/GPa) = 0.01543275
#
# Stress axis : x y z
#
# Youngs Moduli (GPa) = 51.88139 79.04827 68.03023
#
# Poissons Ratio (x) = 0.56721 0.40444
# Poissons Ratio (y) = 0.37228 0.16841
# Poissons Ratio (z) = 0.30843 0.19568
#
# Static dielectric constant tensor:
#      x y z
#    x 1.867710 0.000000 0.000000 
#    y 0.000000 1.803060 0.000000 
#    z 0.000000 0.000000 1.858910 
# 
# From -- ./inp_files/34292.got.cif
#   From: 2010.05.17/outbox.cif.g08.bks.cpg/sg73_18_cif.got.tgz:34292.got - 2010.06.03 17:35:07.
