data_PCOD9531422
_publ_section_title
;
Structure prediction by ZEFSAII (Michael W. Deem and Ramdas Pophale) SiO2 
 PCOD9531422
Probable space group: I B C A 
;
_chemical_formula_sum "Si O2"
_cell_formula_units_Z 120
_cell_length_a 17.119490
_cell_length_b 10.927812
_cell_length_c 33.550351
_cell_angle_alpha 90.000000
_cell_angle_beta 90.000000
_cell_angle_gamma 90.000000
_cell_volume 6276.551630
_symmetry_space_group_name_H-M "I B C A "
_symmetry_group_IT_number 73
_symmetry_cell_setting 'orthorhombic'
loop_
_space_group_symop_operation_xyz
x,y,z
-x,1/2-y,z
x,-y,1/2-z
1/2-x,y,-z
-x,-y,-z
x,1/2+y,-z
-x,y,1/2+z
1/2+x,-y,z
1/2+x,1/2+y,1/2+z
1/2-x,-y,1/2+z
1/2+x,1/2-y,-z
-x,1/2+y,1/2-z
1/2-x,1/2-y,1/2-z
1/2+x,y,1/2-z
1/2-x,1/2+y,z
x,1/2-y,1/2+z
loop_
_atom_site_type_symbol
_atom_site_label
_atom_site_fract_x
_atom_site_fract_y
_atom_site_fract_z
Si Si1 0.750000 0.209971 0.000000
Si Si2 0.041170 0.633808 0.962733
Si Si3 0.059247 0.135036 0.200941
Si Si4 0.622647 0.910169 0.114742
Si Si5 0.563849 0.143448 0.212218
Si Si6 0.378912 0.021417 0.474826
Si Si7 0.087412 0.190328 0.374813
Si Si8 0.787706 0.356640 0.920157
O O1 0.740311 0.285606 0.040382
O O2 0.827930 0.128396 0.005706
O O3 0.076311 0.663194 0.919636
O O4 0.000000 0.750000 0.982517
O O5 0.966734 0.545437 0.959999
O O6 0.107743 0.578248 0.990486
O O7 0.104947 0.133395 0.159418
O O8 0.102660 0.145647 0.243921
O O9 0.000000 0.250000 0.198895
O O10 0.028175 0.993298 0.204464
O O11 0.713571 0.894716 0.105661
O O12 0.593867 0.050940 0.109377
O O13 0.500000 0.250000 0.214506
O O14 0.609820 0.175635 0.172046
O O15 0.330284 0.975155 0.437499
O O16 0.149513 0.274527 0.397092
O O17 0.000000 0.250000 0.377798
#
# Coordination Sequence:
#
# PCOD9531422 Si02
#       8
#     8  16  16  16  16  16  16  16
#     4  12  24  40  56  74 110 152 188 234 294 348
#     4  11  22  36  54  78 106 137 181 234 286 340
#     4   9  17  32  57  85 118 154 193 245 298 354
#     4  11  22  36  55  85 117 148 191 240 294 355
#     4   8  16  33  57  86 115 152 196 239 296 364
#     4  11  23  37  55  76 102 143 188 233 284 345
#     4  10  21  39  62  85 114 153 196 240 291 360
#     4  12  23  37  57  81 111 148 189 237 290 345
#
# _framework density 19.118777999999999
#
# number of rings (size 3 to 8) (size 9 to 14) (size 15 to 20)
#    0.000    1.600    0.000    6.400    0.000    2.667 
#    0.000    4.667    0.000    0.000    0.000    9.333 
#    0.000    0.000    0.000    0.000    0.000    0.000 
#
# Total GULP energy -334337.695371 kJ/mol
# GULP energy per Si atom -5572.294923 kJ/mol
# Density = 1.907526 g / cm^3
# Si number density = 19.118778 Si / 1000 Ang^3
#
#
#
# Elastic Constant Matrix: (Units=GPa)
#
#
# Indices 1 2 3 4 5 6 
#
# 1 99.5120 28.8929 54.2290 0.0000 0.0000 0.0000
# 2 28.8929 63.1981 27.4791 0.0000 0.0000 0.0000
# 3 54.2290 27.4791 113.1086 0.0000 0.0000 0.0000
# 4 0.0000 0.0000 0.0000 26.7981 0.0000 0.0000
# 5 0.0000 0.0000 0.0000 0.0000 -0.1354 0.0000
# 6 0.0000 0.0000 0.0000 0.0000 0.0000 34.2639
#
#
#
# Elastic Compliance Matrix: (Units=1/GPa)
#
#
# Indices 1 2 3 4 5 6 
#
# 1 0.014463 -0.004022 -0.005957 0.000000 0.000000 0.000000
# 2 -0.004022 0.018811 -0.002642 0.000000 0.000000 0.000000
# 3 -0.005957 -0.002642 0.012339 0.000000 0.000000 0.000000
# 4 0.000000 0.000000 0.000000 0.037316 0.000000 0.000000
# 5 0.000000 0.000000 0.000000 0.000000 -7.386372 0.000000
# 6 0.000000 0.000000 0.000000 0.000000 0.000000 0.029185
#
#
# Mechanical properties :
#
#
# Convention : Reuss Voigt Hill
#
# Bulk Modulus (GPa) = 49.08893 55.22453 52.15673
# Shear Modulus (GPa) = -0.69040 23.19982 11.25471
#
# Velocity S-wave (km/s) = -0.60158 3.48725 2.42889
# Velocity P-wave (km/s) = 5.02484 6.72029 5.93343
#
# Compressibility (1/GPa) = 0.02037119
#
# Stress axis : x y z
#
# Youngs Moduli (GPa) = 69.14127 53.16131 81.04449
#
# Poissons Ratio (x) = 0.21382 0.48279
# Poissons Ratio (y) = 0.27809 0.21409
# Poissons Ratio (z) = 0.41188 0.14043
#
# Static dielectric constant tensor:
#      x y z
#    x 1.644830 0.000000 0.000000 
#    y 0.000000 1.751610 0.000000 
#    z 0.000000 0.000000 1.687590 
# 
# From -- ./inp_files/34585.got.cif
#   From: 2010.05.17/outbox.cif.g08.bks.cpg/sg73_18_cif.got.tgz:34585.got - 2010.06.03 17:35:07.
