data_PCOD9531838
_publ_section_title
;
Structure prediction by ZEFSAII (Michael W. Deem and Ramdas Pophale) SiO2 
 PCOD9531838
Probable space group: I B C A 
;
_chemical_formula_sum "Si O2"
_cell_formula_units_Z 64
_cell_length_a 5.350699
_cell_length_b 20.788929
_cell_length_c 23.020975
_cell_angle_alpha 90.000000
_cell_angle_beta 90.000000
_cell_angle_gamma 90.000000
_cell_volume 2560.745098
_symmetry_space_group_name_H-M "I B C A "
_symmetry_group_IT_number 73
_symmetry_cell_setting 'orthorhombic'
loop_
_space_group_symop_operation_xyz
x,y,z
-x,1/2-y,z
x,-y,1/2-z
1/2-x,y,-z
-x,-y,-z
x,1/2+y,-z
-x,y,1/2+z
1/2+x,-y,z
1/2+x,1/2+y,1/2+z
1/2-x,-y,1/2+z
1/2+x,1/2-y,-z
-x,1/2+y,1/2-z
1/2-x,1/2-y,1/2-z
1/2+x,y,1/2-z
1/2-x,1/2+y,z
x,1/2-y,1/2+z
loop_
_atom_site_type_symbol
_atom_site_label
_atom_site_fract_x
_atom_site_fract_y
_atom_site_fract_z
Si Si1 0.750000 0.279969 0.500000
Si Si2 0.500000 0.250000 0.808033
Si Si3 0.524956 0.621295 0.269152
Si Si4 0.721095 0.538369 0.069840
Si Si5 0.653497 0.834839 0.382408
O O1 0.500000 0.250000 0.469829
O O2 0.597879 0.315245 0.551952
O O3 0.536391 0.312038 0.766744
O O4 0.280267 0.275274 0.849520
O O5 0.260971 0.587115 0.258379
O O6 0.548165 0.638511 0.336929
O O7 0.492136 0.491315 0.083410
O O8 0.671041 0.603843 0.104697
O O9 0.750000 0.550247 0.000000
#
# Coordination Sequence:
#
# PCOD9531838 Si02
#       5
#     8   8  16  16  16
#     4  12  28  38  58 100 140 166 198 266 336 396
#     4  10  22  40  64 102 128 174 206 262 318 402
#     4  10  22  37  61  90 123 166 209 248 305 383
#     4  10  23  43  64  90 123 171 223 264 313 375
#     4  11  22  42  67  93 136 168 214 262 328 388
#
# _framework density 24.992728
#
# number of rings (size 3 to 8) (size 9 to 14) (size 15 to 20)
#    0.000    1.500    2.500    3.000    5.250    6.000 
#    0.000    0.000    0.000   18.000    0.000    0.000 
#    0.000    0.000    0.000    0.000    0.000    0.000 
#
# Total GULP energy -178303.393198 kJ/mol
# GULP energy per Si atom -5571.981037 kJ/mol
# Density = 2.493584 g / cm^3
# Si number density = 24.992728 Si / 1000 Ang^3
#
#
#
# Elastic Constant Matrix: (Units=GPa)
#
#
# Indices 1 2 3 4 5 6 
#
# 1 137.3151 13.5343 13.0505 0.0000 0.0000 0.0000
# 2 13.5343 47.6816 -0.9909 0.0000 0.0000 0.0000
# 3 13.0505 -0.9909 133.9949 0.0000 0.0000 0.0000
# 4 0.0000 0.0000 0.0000 115.8006 0.0000 0.0000
# 5 0.0000 0.0000 0.0000 0.0000 19.3205 0.0000
# 6 0.0000 0.0000 0.0000 0.0000 0.0000 13.1657
#
#
#
# Elastic Compliance Matrix: (Units=1/GPa)
#
#
# Indices 1 2 3 4 5 6 
#
# 1 0.007567 -0.002164 -0.000753 0.000000 0.000000 0.000000
# 2 -0.002164 0.021594 0.000370 0.000000 0.000000 0.000000
# 3 -0.000753 0.000370 0.007539 0.000000 0.000000 0.000000
# 4 0.000000 0.000000 0.000000 0.008636 0.000000 0.000000
# 5 0.000000 0.000000 0.000000 0.000000 0.051759 0.000000
# 6 0.000000 0.000000 0.000000 0.000000 0.000000 0.075955
#
#
# Mechanical properties :
#
#
# Convention : Reuss Voigt Hill
#
# Bulk Modulus (GPa) = 31.63733 41.13104 36.38418
# Shear Modulus (GPa) = 26.50017 49.21720 37.85868
#
# Velocity S-wave (km/s) = 3.25978 4.44245 3.89625
# Velocity P-wave (km/s) = 5.18212 6.54269 5.90174
#
# Compressibility (1/GPa) = 0.03160823
#
# Stress axis : x y z
#
# Youngs Moduli (GPa) = 132.14673 46.30850 132.64267
#
# Poissons Ratio (x) = 0.10019 0.09988
# Poissons Ratio (y) = 0.28592 -0.04913
# Poissons Ratio (z) = 0.09951 -0.01715
#
# Static dielectric constant tensor:
#      x y z
#    x 2.271780 0.000000 0.000000 
#    y 0.000000 2.091700 0.000000 
#    z 0.000000 0.000000 2.005950 
# 
# From -- ./inp_files/2036.got.cif
#   From: 2010.05.17/outbox.cif.g08.bks.cpg/sg73_2_cif.got.tgz:2036.got - 2010.06.03 17:35:07.
