data_PCOD9531150
_publ_section_title
;
Structure prediction by ZEFSAII (Michael W. Deem and Ramdas Pophale) SiO2 
 PCOD9531150
Probable space group: I B C A 
;
_chemical_formula_sum "Si O2"
_cell_formula_units_Z 88
_cell_length_a 32.860976
_cell_length_b 11.925585
_cell_length_c 11.019867
_cell_angle_alpha 90.000000
_cell_angle_beta 90.000000
_cell_angle_gamma 90.000000
_cell_volume 4318.535594
_symmetry_space_group_name_H-M "I B C A "
_symmetry_group_IT_number 73
_symmetry_cell_setting 'orthorhombic'
loop_
_space_group_symop_operation_xyz
x,y,z
-x,1/2-y,z
x,-y,1/2-z
1/2-x,y,-z
-x,-y,-z
x,1/2+y,-z
-x,y,1/2+z
1/2+x,-y,z
1/2+x,1/2+y,1/2+z
1/2-x,-y,1/2+z
1/2+x,1/2-y,-z
-x,1/2+y,1/2-z
1/2-x,1/2-y,1/2-z
1/2+x,y,1/2-z
1/2-x,1/2+y,z
x,1/2-y,1/2+z
loop_
_atom_site_type_symbol
_atom_site_label
_atom_site_fract_x
_atom_site_fract_y
_atom_site_fract_z
Si Si1 0.343820 0.907145 0.841624
Si Si2 0.543317 0.689020 0.114572
Si Si3 0.208159 0.689578 0.213191
Si Si4 0.792848 0.972576 0.437843
Si Si5 0.565656 0.165937 0.157809
Si Si6 0.504007 0.500000 0.250000
O O1 0.324185 0.786374 0.814470
O O2 0.392053 0.898755 0.830832
O O3 0.326803 0.000000 0.750000
O O4 0.329282 0.951249 0.970614
O O5 0.500000 0.750000 0.103105
O O6 0.564645 0.742311 0.233784
O O7 0.532029 0.562053 0.151275
O O8 0.563704 0.704112 0.983060
O O9 0.250000 0.750000 0.250000
O O10 0.198567 0.608713 0.325543
O O11 0.211383 0.601635 0.102861
O O12 0.750000 0.939259 0.500000
O O13 0.526068 0.088851 0.184730
#
# Coordination Sequence:
#
# PCOD9531150 Si02
#       6
#    16  16  16  16  16   8
#     4  12  27  44  68 100 142 178 226 291 350 408
#     4  10  22  42  69  96 130 177 228 277 336 421
#     4  11  25  45  69  98 133 180 235 278 344 409
#     4  11  25  44  69  99 132 180 231 282 339 411
#     4  11  24  42  66 102 136 176 225 285 355 405
#     4  10  20  44  68  98 132 176 234 280 344 420
#
# _framework density 20.377276999999999
#
# number of rings (size 3 to 8) (size 9 to 14) (size 15 to 20)
#    0.000    1.091    2.727    3.273    7.636    1.455 
#    3.273    0.000    0.000    0.000    0.000    0.000 
#    0.000    0.000    0.000    0.000    0.000    0.000 
#
# Total GULP energy -245709.530379 kJ/mol
# GULP energy per Si atom -5584.307509 kJ/mol
# Density = 2.033090 g / cm^3
# Si number density = 20.377277 Si / 1000 Ang^3
#
#
#
# Elastic Constant Matrix: (Units=GPa)
#
#
# Indices 1 2 3 4 5 6 
#
# 1 59.9962 19.6805 35.7681 0.0000 0.0000 0.0000
# 2 19.6805 105.4847 63.5419 0.0000 0.0000 0.0000
# 3 35.7681 63.5419 140.8473 0.0000 0.0000 0.0000
# 4 0.0000 0.0000 0.0000 33.4989 0.0000 0.0000
# 5 0.0000 0.0000 0.0000 0.0000 17.4313 0.0000
# 6 0.0000 0.0000 0.0000 0.0000 0.0000 25.4573
#
#
#
# Elastic Compliance Matrix: (Units=1/GPa)
#
#
# Indices 1 2 3 4 5 6 
#
# 1 0.019705 -0.000909 -0.004594 0.000000 0.000000 0.000000
# 2 -0.000909 0.013060 -0.005661 0.000000 0.000000 0.000000
# 3 -0.004594 -0.005661 0.010820 0.000000 0.000000 0.000000
# 4 0.000000 0.000000 0.000000 0.029852 0.000000 0.000000
# 5 0.000000 0.000000 0.000000 0.000000 0.057368 0.000000
# 6 0.000000 0.000000 0.000000 0.000000 0.000000 0.039281
#
#
# Mechanical properties :
#
#
# Convention : Reuss Voigt Hill
#
# Bulk Modulus (GPa) = 47.04330 60.47880 53.76105
# Shear Modulus (GPa) = 25.06273 27.76666 26.41470
#
# Velocity S-wave (km/s) = 3.51085 3.69538 3.60430
# Velocity P-wave (km/s) = 6.29055 6.92472 6.61524
#
# Compressibility (1/GPa) = 0.02125701
#
# Stress axis : x y z
#
# Youngs Moduli (GPa) = 50.74943 76.57162 92.41838
#
# Poissons Ratio (x) = 0.06961 0.42456
# Poissons Ratio (y) = 0.04614 0.52317
# Poissons Ratio (z) = 0.23314 0.43346
#
# Static dielectric constant tensor:
#      x y z
#    x 1.680390 0.000000 0.000000 
#    y 0.000000 1.744100 0.000000 
#    z 0.000000 0.000000 1.727350 
# 
# From -- ./inp_files/14672.got.cif
#   From: 2010.05.17/outbox.cif.g08.bks.cpg/sg73_8_cif.got.tgz:14672.got - 2010.06.03 17:35:07.
