data_PCOD9531771
_publ_section_title
;
Structure prediction by ZEFSAII (Michael W. Deem and Ramdas Pophale) SiO2 
 PCOD9531771
Probable space group: I B C A 
;
_chemical_formula_sum "Si O2"
_cell_formula_units_Z 104
_cell_length_a 8.994625
_cell_length_b 20.027511
_cell_length_c 24.726306
_cell_angle_alpha 90.000000
_cell_angle_beta 90.000000
_cell_angle_gamma 90.000000
_cell_volume 4454.195554
_symmetry_space_group_name_H-M "I B C A "
_symmetry_group_IT_number 73
_symmetry_cell_setting 'orthorhombic'
loop_
_space_group_symop_operation_xyz
x,y,z
-x,1/2-y,z
x,-y,1/2-z
1/2-x,y,-z
-x,-y,-z
x,1/2+y,-z
-x,y,1/2+z
1/2+x,-y,z
1/2+x,1/2+y,1/2+z
1/2-x,-y,1/2+z
1/2+x,1/2-y,-z
-x,1/2+y,1/2-z
1/2-x,1/2-y,1/2-z
1/2+x,y,1/2-z
1/2-x,1/2+y,z
x,1/2-y,1/2+z
loop_
_atom_site_type_symbol
_atom_site_label
_atom_site_fract_x
_atom_site_fract_y
_atom_site_fract_z
Si Si1 0.250000 0.925447 0.000000
Si Si2 0.041620 0.965500 0.093883
Si Si3 0.260008 0.405641 0.286955
Si Si4 0.033427 0.118709 0.587319
Si Si5 0.717645 0.358856 0.666271
Si Si6 0.500000 0.750000 0.880475
Si Si7 0.710854 0.358189 0.094906
Si Si8 0.486135 0.500000 0.750000
O O1 0.355781 0.966011 0.959640
O O2 0.144163 0.881678 0.962766
O O3 0.140465 0.925052 0.138662
O O4 0.892353 0.922408 0.083540
O O5 0.996887 0.041461 0.104098
O O6 0.254323 0.368444 0.229563
O O7 0.246936 0.362131 0.340342
O O8 0.408588 0.449467 0.281983
O O9 0.122923 0.457413 0.287661
O O10 0.126350 0.152271 0.635682
O O11 0.873171 0.145205 0.570164
O O12 0.600699 0.300284 0.654573
O O13 0.390242 0.705218 0.915469
#
# Coordination Sequence:
#
# PCOD9531771 Si02
#       8
#     8  16  16  16  16   8  16   8
#     4  10  22  42  62  96 136 160 198 258 324 406
#     4  10  22  39  65  99 131 165 203 258 322 394
#     4  11  23  36  58  95 129 179 204 257 304 376
#     4  11  23  38  66  98 125 163 209 256 332 391
#     4  10  23  40  63  91 131 176 214 259 311 359
#     4  10  24  46  60  84 130 172 230 272 292 364
#     4  11  24  39  65  93 128 174 213 261 318 363
#     4  10  22  30  56  86 138 158 204 250 310 376
#
# _framework density 23.348773999999999
#
# number of rings (size 3 to 8) (size 9 to 14) (size 15 to 20)
#    0.000    1.538    0.000    5.077   12.923    1.846 
#    0.000    0.000    0.000   49.846    0.000    1.077 
#    0.000    0.000    0.000    0.000    0.000    0.000 
#
# Total GULP energy -291142.782003 kJ/mol
# GULP energy per Si atom -5598.899654 kJ/mol
# Density = 2.329563 g / cm^3
# Si number density = 23.348774 Si / 1000 Ang^3
#
#
#
# Elastic Constant Matrix: (Units=GPa)
#
#
# Indices 1 2 3 4 5 6 
#
# 1 174.5945 29.4213 23.5783 0.0000 0.0000 0.0000
# 2 29.4213 67.0376 4.4757 0.0000 0.0000 0.0000
# 3 23.5783 4.4757 75.5357 0.0000 0.0000 0.0000
# 4 0.0000 0.0000 0.0000 0.0088 0.0000 0.0000
# 5 0.0000 0.0000 0.0000 0.0000 30.3160 0.0000
# 6 0.0000 0.0000 0.0000 0.0000 0.0000 38.8857
#
#
#
# Elastic Compliance Matrix: (Units=1/GPa)
#
#
# Indices 1 2 3 4 5 6 
#
# 1 0.006432 -0.002699 -0.001848 -0.000001 0.000000 0.000000
# 2 -0.002699 0.016109 -0.000112 0.000003 0.000000 0.000000
# 3 -0.001848 -0.000112 0.013822 0.000001 0.000000 0.000000
# 4 -0.000001 0.000003 0.000001113.193574 0.000000 0.000001
# 5 0.000000 0.000000 0.000000 0.000000 0.032986 0.000000
# 6 0.000000 0.000000 0.000000 0.000001 0.000000 0.025716
#
#
# Mechanical properties :
#
#
# Convention : Reuss Voigt Hill
#
# Bulk Modulus (GPa) = 36.97528 48.01317 42.49422
# Shear Modulus (GPa) = 0.04413 31.15493 15.59953
#
# Velocity S-wave (km/s) = 0.13762 3.65681 2.58758
# Velocity P-wave (km/s) = 3.98694 6.19982 5.21217
#
# Compressibility (1/GPa) = 0.02704510
#
# Stress axis : x y z
#
# Youngs Moduli (GPa) = 155.47289 62.07625 72.34749
#
# Poissons Ratio (x) = 0.16757 0.13368
# Poissons Ratio (y) = 0.41970 0.00809
# Poissons Ratio (z) = 0.28728 0.00694
#
# Static dielectric constant tensor:
#      x y z
#    x 1.912600 0.000000 0.000000 
#    y 0.000000 1.866400 0.000000 
#    z 0.000000 0.000000 1.930560 
# 
# From -- ./inp_files/31305.got.cif
#   From: 2010.05.17/outbox.cif.g08.bks.cpg/sg73_16_cif.got.tgz:31305.got - 2010.06.03 17:35:07.
