data_PCOD9531993
_publ_section_title
;
Structure prediction by ZEFSAII (Michael W. Deem and Ramdas Pophale) SiO2 
 PCOD9531993
Probable space group: I B C A 
;
_chemical_formula_sum "Si O2"
_cell_formula_units_Z 88
_cell_length_a 15.011883
_cell_length_b 11.529474
_cell_length_c 23.882211
_cell_angle_alpha 90.000000
_cell_angle_beta 90.000000
_cell_angle_gamma 90.000000
_cell_volume 4133.511938
_symmetry_space_group_name_H-M "I B C A "
_symmetry_group_IT_number 73
_symmetry_cell_setting 'orthorhombic'
loop_
_space_group_symop_operation_xyz
x,y,z
-x,1/2-y,z
x,-y,1/2-z
1/2-x,y,-z
-x,-y,-z
x,1/2+y,-z
-x,y,1/2+z
1/2+x,-y,z
1/2+x,1/2+y,1/2+z
1/2-x,-y,1/2+z
1/2+x,1/2-y,-z
-x,1/2+y,1/2-z
1/2-x,1/2-y,1/2-z
1/2+x,y,1/2-z
1/2-x,1/2+y,z
x,1/2-y,1/2+z
loop_
_atom_site_type_symbol
_atom_site_label
_atom_site_fract_x
_atom_site_fract_y
_atom_site_fract_z
Si Si1 0.662352 0.445026 0.599494
Si Si2 0.894833 0.764319 0.693461
Si Si3 0.104345 0.225151 0.686459
Si Si4 0.404046 0.184379 0.931228
Si Si5 0.805278 0.482330 0.811777
Si Si6 0.250000 0.797192 0.000000
O O1 0.622102 0.355362 0.644597
O O2 0.595014 0.544872 0.577077
O O3 0.739056 0.502730 0.637033
O O4 0.708350 0.377505 0.548551
O O5 0.861006 0.787647 0.757340
O O6 0.851974 0.640370 0.681030
O O7 0.000000 0.750000 0.698397
O O8 0.137948 0.269716 0.627263
O O9 0.000000 0.250000 0.684016
O O10 0.124499 0.088930 0.688640
O O11 0.500000 0.250000 0.939715
O O12 0.332087 0.219850 0.977610
O O13 0.762968 0.500000 0.750000
#
# Coordination Sequence:
#
# PCOD9531993 Si02
#       6
#    16  16  16  16  16   8
#     4  12  26  42  71  99 137 184 228 291 346 415
#     4  10  24  40  65 104 140 176 224 284 346 414
#     4   9  20  41  68  99 139 178 223 276 349 413
#     4  11  26  46  72 101 134 186 236 286 355 421
#     4  10  22  40  64 100 141 178 228 283 342 415
#     4  12  26  50  68 102 138 180 244 292 346 412
#
# _framework density 21.289404000000001
#
# number of rings (size 3 to 8) (size 9 to 14) (size 15 to 20)
#    0.000    1.455    1.818    1.636    7.636    2.909 
#    0.000    0.000    0.000    0.000    0.000    0.000 
#    0.000    0.000    0.000    0.000    0.000    0.000 
#
# Total GULP energy -245614.119704 kJ/mol
# GULP energy per Si atom -5582.139084 kJ/mol
# Density = 2.124095 g / cm^3
# Si number density = 21.289404 Si / 1000 Ang^3
#
#
#
# Elastic Constant Matrix: (Units=GPa)
#
#
# Indices 1 2 3 4 5 6 
#
# 1 102.8666 59.9386 44.1192 0.0000 0.0000 0.0000
# 2 59.9386 125.2526 40.1926 0.0000 0.0000 0.0000
# 3 44.1192 40.1926 122.1367 0.0000 0.0000 0.0000
# 4 0.0000 0.0000 0.0000 103.2964 0.0000 0.0000
# 5 0.0000 0.0000 0.0000 0.0000 32.9159 0.0000
# 6 0.0000 0.0000 0.0000 0.0000 0.0000 50.1788
#
#
#
# Elastic Compliance Matrix: (Units=1/GPa)
#
#
# Indices 1 2 3 4 5 6 
#
# 1 0.014595 -0.005918 -0.003325 0.000000 0.000000 0.000000
# 2 -0.005918 0.011326 -0.001589 0.000000 0.000000 0.000000
# 3 -0.003325 -0.001589 0.009912 0.000000 0.000000 0.000000
# 4 0.000000 0.000000 0.000000 0.009681 0.000000 0.000000
# 5 0.000000 0.000000 0.000000 0.000000 0.030380 0.000000
# 6 0.000000 0.000000 0.000000 0.000000 0.000000 0.019929
#
#
# Mechanical properties :
#
#
# Convention : Reuss Voigt Hill
#
# Bulk Modulus (GPa) = 70.57720 70.97298 70.77509
# Shear Modulus (GPa) = 40.91323 51.01190 45.96256
#
# Velocity S-wave (km/s) = 4.38855 4.90033 4.65148
# Velocity P-wave (km/s) = 7.67479 8.08871 7.88447
#
# Compressibility (1/GPa) = 0.01416888
#
# Stress axis : x y z
#
# Youngs Moduli (GPa) = 68.51447 88.29461 100.89125
#
# Poissons Ratio (x) = 0.52249 0.33546
# Poissons Ratio (y) = 0.40544 0.16036
# Poissons Ratio (z) = 0.22781 0.14034
#
# Static dielectric constant tensor:
#      x y z
#    x 1.683300 0.000000 0.000000 
#    y 0.000000 1.788910 0.000000 
#    z 0.000000 0.000000 1.804000 
# 
# From -- ./inp_files/19265.got.cif
#   From: 2010.05.17/outbox.cif.g08.bks.cpg/sg73_10_cif.got.tgz:19265.got - 2010.06.03 17:35:07.
