data_PCOD9531400
_publ_section_title
;
Structure prediction by ZEFSAII (Michael W. Deem and Ramdas Pophale) SiO2 
 PCOD9531400
Probable space group: I B C A 
;
_chemical_formula_sum "Si O2"
_cell_formula_units_Z 120
_cell_length_a 26.501373
_cell_length_b 16.498467
_cell_length_c 13.836253
_cell_angle_alpha 90.000000
_cell_angle_beta 90.000000
_cell_angle_gamma 90.000000
_cell_volume 6049.652958
_symmetry_space_group_name_H-M "I B C A "
_symmetry_group_IT_number 73
_symmetry_cell_setting 'orthorhombic'
loop_
_space_group_symop_operation_xyz
x,y,z
-x,1/2-y,z
x,-y,1/2-z
1/2-x,y,-z
-x,-y,-z
x,1/2+y,-z
-x,y,1/2+z
1/2+x,-y,z
1/2+x,1/2+y,1/2+z
1/2-x,-y,1/2+z
1/2+x,1/2-y,-z
-x,1/2+y,1/2-z
1/2-x,1/2-y,1/2-z
1/2+x,y,1/2-z
1/2-x,1/2+y,z
x,1/2-y,1/2+z
loop_
_atom_site_type_symbol
_atom_site_label
_atom_site_fract_x
_atom_site_fract_y
_atom_site_fract_z
Si Si1 0.396493 0.622032 0.668286
Si Si2 0.593256 0.935463 0.327351
Si Si3 0.805076 0.996917 0.356166
Si Si4 0.873113 0.863683 0.115446
Si Si5 0.357785 0.808943 0.967870
Si Si6 0.750000 0.120273 0.000000
Si Si7 0.451591 0.056080 0.980564
Si Si8 0.989787 0.653009 0.307304
O O1 0.359954 0.545572 0.655870
O O2 0.378921 0.658174 0.771260
O O3 0.385963 0.669523 0.568740
O O4 0.455748 0.610017 0.683993
O O5 0.624502 0.864653 0.378093
O O6 0.545486 0.891030 0.273479
O O7 0.615439 0.000000 0.250000
O O8 0.581156 0.994608 0.416639
O O9 0.769587 0.940641 0.418158
O O10 0.782490 0.000000 0.250000
O O11 0.822103 0.083467 0.396193
O O12 0.869090 0.782753 0.055591
O O13 0.921510 0.912261 0.073565
O O14 0.298500 0.825916 0.977710
O O15 0.464605 0.132114 0.910835
O O16 0.500000 0.000000 0.000000
O O17 0.000000 0.750000 0.292241
#
# Coordination Sequence:
#
# PCOD9531400 Si02
#       8
#    16  16  16  16  16   8  16  16
#     4  10  21  39  59  84 124 164 199 247 305 374
#     4  10  23  39  57  87 125 162 203 251 310 372
#     4   9  20  39  62  87 114 153 200 246 308 375
#     4  11  22  38  62  88 119 158 203 257 309 368
#     4  11  23  42  63  90 124 160 206 265 317 364
#     4  10  22  42  64  86 118 158 202 258 320 372
#     4  11  21  34  56  87 121 164 209 247 299 370
#     4  11  21  35  58  89 122 163 209 252 303 370
#
# _framework density 19.835847999999999
#
# number of rings (size 3 to 8) (size 9 to 14) (size 15 to 20)
#    0.000    1.600    0.000    5.600    0.000    5.867 
#    0.000   10.000    0.000    0.000    0.000    0.000 
#    0.000    0.000    0.000    0.000    0.000    0.000 
#
# Total GULP energy -334488.493911 kJ/mol
# GULP energy per Si atom -5574.808232 kJ/mol
# Density = 1.979070 g / cm^3
# Si number density = 19.835848 Si / 1000 Ang^3
#
#
#
# Elastic Constant Matrix: (Units=GPa)
#
#
# Indices 1 2 3 4 5 6 
#
# 1 85.0089 13.7608 46.0280 0.0000 0.0000 0.0000
# 2 13.7608 96.5749 51.6693 0.0000 0.0000 0.0000
# 3 46.0280 51.6693 110.0139 0.0000 0.0000 0.0000
# 4 0.0000 0.0000 0.0000 28.4310 0.0000 0.0000
# 5 0.0000 0.0000 0.0000 0.0000 -139.1361 0.0000
# 6 0.0000 0.0000 0.0000 0.0000 0.0000 14.1558
#
#
#
# Elastic Compliance Matrix: (Units=1/GPa)
#
#
# Indices 1 2 3 4 5 6 
#
# 1 0.015409 0.001674 -0.007233 0.000000 0.000000 0.000000
# 2 0.001674 0.014012 -0.007281 0.000000 0.000000 0.000000
# 3 -0.007233 -0.007281 0.015536 0.000000 0.000000 0.000000
# 4 0.000000 0.000000 0.000000 0.035173 0.000000 0.000000
# 5 0.000000 0.000000 0.000000 0.000000 -0.007187 0.000000
# 6 0.000000 0.000000 0.000000 0.000000 0.000000 0.070642
#
#
# Mechanical properties :
#
#
# Convention : Reuss Voigt Hill
#
# Bulk Modulus (GPa) = 51.87793 57.16821 54.52307
# Shear Modulus (GPa) = 28.45924 -7.30055 10.57935
#
# Velocity S-wave (km/s) = 3.79190 -1.92054 2.31193
# Velocity P-wave (km/s) = 6.73660 4.89543 5.88842
#
# Compressibility (1/GPa) = 0.01927602
#
# Stress axis : x y z
#
# Youngs Moduli (GPa) = 64.89789 71.36896 64.36786
#
# Poissons Ratio (x) = -0.11949 0.46558
# Poissons Ratio (y) = -0.10866 0.46868
# Poissons Ratio (z) = 0.46942 0.51966
#
# Static dielectric constant tensor:
#      x y z
#    x 1.708910 0.000000 0.000000 
#    y 0.000000 1.700780 0.000000 
#    z 0.000000 0.000000 1.777850 
# 
# From -- ./inp_files/14377.got.cif
#   From: 2010.05.17/outbox.cif.g08.bks.cpg/sg73_8_cif.got.tgz:14377.got - 2010.06.03 17:35:07.
