data_PCOD9531890
_publ_section_title
;
Structure prediction by ZEFSAII (Michael W. Deem and Ramdas Pophale) SiO2 
 PCOD9531890
Probable space group: I B C A 
;
_chemical_formula_sum "Si O2"
_cell_formula_units_Z 64
_cell_length_a 9.241238
_cell_length_b 17.089403
_cell_length_c 17.150887
_cell_angle_alpha 90.000000
_cell_angle_beta 90.000000
_cell_angle_gamma 90.000000
_cell_volume 2708.592254
_symmetry_space_group_name_H-M "I B C A "
_symmetry_group_IT_number 73
_symmetry_cell_setting 'orthorhombic'
loop_
_space_group_symop_operation_xyz
x,y,z
-x,1/2-y,z
x,-y,1/2-z
1/2-x,y,-z
-x,-y,-z
x,1/2+y,-z
-x,y,1/2+z
1/2+x,-y,z
1/2+x,1/2+y,1/2+z
1/2-x,-y,1/2+z
1/2+x,1/2-y,-z
-x,1/2+y,1/2-z
1/2-x,1/2-y,1/2-z
1/2+x,y,1/2-z
1/2-x,1/2+y,z
x,1/2-y,1/2+z
loop_
_atom_site_type_symbol
_atom_site_label
_atom_site_fract_x
_atom_site_fract_y
_atom_site_fract_z
Si Si1 0.948458 0.480068 0.841265
Si Si2 0.826355 0.258115 0.576866
Si Si3 0.393989 0.825584 0.808662
Si Si4 0.659792 0.900401 0.138891
O O1 0.970844 0.500000 0.750000
O O2 0.780139 0.466705 0.852862
O O3 0.028613 0.397359 0.853211
O O4 0.016104 0.553558 0.886014
O O5 0.750000 0.291074 0.500000
O O6 0.756690 0.302987 0.650158
O O7 0.781740 0.167425 0.584671
O O8 0.000000 0.250000 0.575580
O O9 0.500000 0.750000 0.808451
O O10 0.365148 0.856409 0.721397
#
# Coordination Sequence:
#
# PCOD9531890 Si02
#       4
#    16  16  16  16
#     4  10  22  38  66 103 143 170 219 270 343 395
#     4  12  28  46  69  97 135 182 234 281 338 401
#     4  11  22  43  72 102 138 174 226 286 338 399
#     4  11  24  42  70 105 137 180 218 280 338 408
#
# _framework density 23.628511
#
# number of rings (size 3 to 8) (size 9 to 14) (size 15 to 20)
#    0.000    1.000    2.500    4.500   10.500    0.000 
#    0.000    2.500    0.000    0.000    0.000    0.000 
#    0.000    0.000    0.000    0.000    0.000    0.000 
#
# Total GULP energy -178967.723931 kJ/mol
# GULP energy per Si atom -5592.741373 kJ/mol
# Density = 2.357473 g / cm^3
# Si number density = 23.628511 Si / 1000 Ang^3
#
#
#
# Elastic Constant Matrix: (Units=GPa)
#
#
# Indices 1 2 3 4 5 6 
#
# 1 145.2622 32.4746 26.6672 0.0000 0.0000 0.0000
# 2 32.4746 84.2898 11.2954 0.0000 0.0000 0.0000
# 3 26.6672 11.2954 51.1113 0.0000 0.0000 0.0000
# 4 0.0000 0.0000 0.0000 9.7871 0.0000 0.0000
# 5 0.0000 0.0000 0.0000 0.0000 16.1408 0.0000
# 6 0.0000 0.0000 0.0000 0.0000 0.0000 60.2982
#
#
#
# Elastic Compliance Matrix: (Units=1/GPa)
#
#
# Indices 1 2 3 4 5 6 
#
# 1 0.008149 -0.002648 -0.003667 0.000000 0.000000 0.000000
# 2 -0.002648 0.013087 -0.001510 0.000000 0.000000 0.000000
# 3 -0.003667 -0.001510 0.021812 0.000000 0.000000 0.000000
# 4 0.000000 0.000000 0.000000 0.102175 0.000000 0.000000
# 5 0.000000 0.000000 0.000000 0.000000 0.061955 0.000000
# 6 0.000000 0.000000 0.000000 0.000000 0.000000 0.016584
#
#
# Mechanical properties :
#
#
# Convention : Reuss Voigt Hill
#
# Bulk Modulus (GPa) = 36.49995 46.83753 41.66874
# Shear Modulus (GPa) = 20.11709 31.26028 25.68869
#
# Velocity S-wave (km/s) = 2.92103 3.64124 3.30083
# Velocity P-wave (km/s) = 5.18242 6.12729 5.67455
#
# Compressibility (1/GPa) = 0.02739730
#
# Stress axis : x y z
#
# Youngs Moduli (GPa) = 122.71028 76.41426 45.84641
#
# Poissons Ratio (x) = 0.20237 0.16810
# Poissons Ratio (y) = 0.32498 0.06924
# Poissons Ratio (z) = 0.44993 0.11541
#
# Static dielectric constant tensor:
#      x y z
#    x 1.908000 0.000000 0.000000 
#    y 0.000000 1.907640 0.000000 
#    z 0.000000 0.000000 1.868080 
# 
# From -- ./inp_files/22927.got.cif
#   From: 2010.05.17/outbox.cif.g08.bks.cpg/sg73_12_cif.got.tgz:22927.got - 2010.06.03 17:35:07.
