data_PCOD9531065
_publ_section_title
;
Structure prediction by ZEFSAII (Michael W. Deem and Ramdas Pophale) SiO2 
 PCOD9531065
Probable space group: I B C A 
;
_chemical_formula_sum "Si O2"
_cell_formula_units_Z 112
_cell_length_a 28.261426
_cell_length_b 13.324734
_cell_length_c 11.860280
_cell_angle_alpha 90.000000
_cell_angle_beta 90.000000
_cell_angle_gamma 90.000000
_cell_volume 4466.296610
_symmetry_space_group_name_H-M "I B C A "
_symmetry_group_IT_number 73
_symmetry_cell_setting 'orthorhombic'
loop_
_space_group_symop_operation_xyz
x,y,z
-x,1/2-y,z
x,-y,1/2-z
1/2-x,y,-z
-x,-y,-z
x,1/2+y,-z
-x,y,1/2+z
1/2+x,-y,z
1/2+x,1/2+y,1/2+z
1/2-x,-y,1/2+z
1/2+x,1/2-y,-z
-x,1/2+y,1/2-z
1/2-x,1/2-y,1/2-z
1/2+x,y,1/2-z
1/2-x,1/2+y,z
x,1/2-y,1/2+z
loop_
_atom_site_type_symbol
_atom_site_label
_atom_site_fract_x
_atom_site_fract_y
_atom_site_fract_z
Si Si1 0.211243 0.500000 0.750000
Si Si2 0.073308 0.888140 0.511485
Si Si3 0.998725 0.603863 0.205133
Si Si4 0.648123 0.236950 0.649361
Si Si5 0.854743 0.458352 0.453531
Si Si6 0.433144 0.245238 0.304510
Si Si7 0.217436 0.618871 0.393030
Si Si8 0.250000 0.250000 0.250000
O O1 0.178109 0.486010 0.641045
O O2 0.247168 0.591359 0.715133
O O3 0.028677 0.904550 0.591692
O O4 0.118779 0.843677 0.577984
O O5 0.060955 0.806968 0.417249
O O6 0.094785 0.989782 0.461116
O O7 0.979272 0.500000 0.250000
O O8 0.037762 0.642865 0.296880
O O9 0.958088 0.687095 0.206829
O O10 0.642021 0.345583 0.592498
O O11 0.620318 0.234085 0.767994
O O12 0.703334 0.225020 0.667182
O O13 0.828298 0.444994 0.575202
O O14 0.250000 0.600173 0.500000
O O15 0.214597 0.734194 0.363290
#
# Coordination Sequence:
#
# PCOD9531065 Si02
#       8
#     8  16  16  16  16  16  16   8
#     4  10  20  42  60  92 134 192 236 298 356 424
#     4  11  27  44  75 108 140 198 237 317 379 454
#     4  10  25  48  77 112 145 190 242 311 383 454
#     4  11  26  43  68 106 144 194 250 303 364 448
#     4  11  24  43  66 101 144 185 252 300 371 446
#     4  10  25  48  73 108 152 185 249 305 381 455
#     4  10  23  40  61  95 137 193 247 303 358 439
#     4  12  24  44  68  96 150 194 240 310 360 422
#
# _framework density 25.076705
#
# number of rings (size 3 to 8) (size 9 to 14) (size 15 to 20)
#    0.000    1.429    2.857    0.857    8.000    6.286 
#    0.000    0.000    0.000    0.000    0.000    0.000 
#    0.000    0.000    0.000    0.000    0.000    0.000 
#
# Total GULP energy -312186.849747 kJ/mol
# GULP energy per Si atom -5574.765174 kJ/mol
# Density = 2.501963 g / cm^3
# Si number density = 25.076705 Si / 1000 Ang^3
#
#
#
# Elastic Constant Matrix: (Units=GPa)
#
#
# Indices 1 2 3 4 5 6 
#
# 1 114.5654 -4.1734 32.7699 0.0000 0.0000 0.0000
# 2 -4.1734 42.1444 8.9164 0.0000 0.0000 0.0000
# 3 32.7699 8.9164 90.4463 0.0000 0.0000 0.0000
# 4 0.0000 0.0000 0.0000 39.2966 0.0000 0.0000
# 5 0.0000 0.0000 0.0000 0.0000 41.4542 0.0000
# 6 0.0000 0.0000 0.0000 0.0000 0.0000 22.6879
#
#
#
# Elastic Compliance Matrix: (Units=1/GPa)
#
#
# Indices 1 2 3 4 5 6 
#
# 1 0.009865 0.001770 -0.003749 0.000000 0.000000 0.000000
# 2 0.001770 0.024551 -0.003062 0.000000 0.000000 0.000000
# 3 -0.003749 -0.003062 0.012716 0.000000 0.000000 0.000000
# 4 0.000000 0.000000 0.000000 0.025448 0.000000 0.000000
# 5 0.000000 0.000000 0.000000 0.000000 0.024123 0.000000
# 6 0.000000 0.000000 0.000000 0.000000 0.000000 0.044076
#
#
# Mechanical properties :
#
#
# Convention : Reuss Voigt Hill
#
# Bulk Modulus (GPa) = 26.98913 35.79799 31.39356
# Shear Modulus (GPa) = 30.63517 34.66395 32.64956
#
# Velocity S-wave (km/s) = 3.49902 3.72199 3.61222
# Velocity P-wave (km/s) = 5.20674 5.72515 5.47208
#
# Compressibility (1/GPa) = 0.03705196
#
# Stress axis : x y z
#
# Youngs Moduli (GPa) = 101.36398 40.73161 78.63883
#
# Poissons Ratio (x) = -0.07210 0.29481
# Poissons Ratio (y) = -0.17942 0.24076
# Poissons Ratio (z) = 0.38000 0.12470
#
# Static dielectric constant tensor:
#      x y z
#    x 1.947020 0.000000 0.000000 
#    y 0.000000 1.613670 0.000000 
#    z 0.000000 0.000000 2.076420 
# 
# From -- ./inp_files/14843.got.cif
#   From: 2010.05.17/outbox.cif.g08.bks.cpg/sg73_8_cif.got.tgz:14843.got - 2010.06.03 17:35:07.
