data_PCOD9531784
_publ_section_title
;
Structure prediction by ZEFSAII (Michael W. Deem and Ramdas Pophale) SiO2 
 PCOD9531784
Probable space group: I B C A 
;
_chemical_formula_sum "Si O2"
_cell_formula_units_Z 120
_cell_length_a 19.949317
_cell_length_b 18.699065
_cell_length_c 12.846773
_cell_angle_alpha 90.000000
_cell_angle_beta 90.000000
_cell_angle_gamma 90.000000
_cell_volume 4792.277663
_symmetry_space_group_name_H-M "I B C A "
_symmetry_group_IT_number 73
_symmetry_cell_setting 'orthorhombic'
loop_
_space_group_symop_operation_xyz
x,y,z
-x,1/2-y,z
x,-y,1/2-z
1/2-x,y,-z
-x,-y,-z
x,1/2+y,-z
-x,y,1/2+z
1/2+x,-y,z
1/2+x,1/2+y,1/2+z
1/2-x,-y,1/2+z
1/2+x,1/2-y,-z
-x,1/2+y,1/2-z
1/2-x,1/2-y,1/2-z
1/2+x,y,1/2-z
1/2-x,1/2+y,z
x,1/2-y,1/2+z
loop_
_atom_site_type_symbol
_atom_site_label
_atom_site_fract_x
_atom_site_fract_y
_atom_site_fract_z
Si Si1 0.176414 0.439974 0.532580
Si Si2 0.335577 0.282714 0.143238
Si Si3 0.999054 0.162948 0.685647
Si Si4 0.891694 0.145959 0.023249
Si Si5 0.818833 0.000000 0.750000
Si Si6 0.719055 0.615890 0.154224
Si Si7 0.112087 0.627940 0.158788
Si Si8 0.644556 0.800140 0.122237
O O1 0.250000 0.468310 0.500000
O O2 0.149006 0.476751 0.638933
O O3 0.127705 0.428970 0.432430
O O4 0.190988 0.357817 0.568791
O O5 0.263409 0.316159 0.115066
O O6 0.367424 0.206126 0.115522
O O7 0.328679 0.280280 0.265809
O O8 0.389082 0.340810 0.099191
O O9 0.040920 0.133995 0.585779
O O10 0.038824 0.131655 0.786010
O O11 0.000000 0.250000 0.698841
O O12 0.922973 0.155797 0.650266
O O13 0.830666 0.095631 0.058894
O O14 0.870989 0.225327 0.066611
O O15 0.771995 0.936549 0.706943
O O16 0.664184 0.620799 0.246321
#
# Coordination Sequence:
#
# PCOD9531784 Si02
#       8
#    16  16  16  16   8  16  16  16
#     4  12  25  42  67  98 127 177 221 275 345 397
#     4  12  20  34  61  94 130 164 203 266 339 402
#     4   9  19  38  57  94 135 171 209 260 326 400
#     4  10  22  34  58  93 129 166 208 265 330 400
#     4  12  26  44  64  88 136 168 230 284 324 404
#     4  11  23  40  58  91 127 172 213 274 327 388
#     4  11  21  38  67  94 131 170 219 264 336 414
#     4  11  21  38  60  94 134 168 209 272 325 397
#
# _framework density 25.040285000000001
#
# number of rings (size 3 to 8) (size 9 to 14) (size 15 to 20)
#    0.000    1.067    8.000    0.800    1.867    2.133 
#    2.400    0.000    0.000    4.000    0.000    0.000 
#    0.000    0.000    0.000    0.000    0.000    0.000 
#
# Total GULP energy -334281.741066 kJ/mol
# GULP energy per Si atom -5571.362351 kJ/mol
# Density = 2.498329 g / cm^3
# Si number density = 25.040285 Si / 1000 Ang^3
#
#
#
# Elastic Constant Matrix: (Units=GPa)
#
#
# Indices 1 2 3 4 5 6 
#
# 1 116.9743 25.5937 18.1952 0.0000 0.0000 0.0000
# 2 25.5937 52.6280 12.9161 0.0000 0.0000 0.0000
# 3 18.1952 12.9161 111.1733 0.0000 0.0000 0.0000
# 4 0.0000 0.0000 0.0000 26.8396 0.0000 0.0000
# 5 0.0000 0.0000 0.0000 0.0000 19.7374 0.0000
# 6 0.0000 0.0000 0.0000 0.0000 0.0000 23.2546
#
#
#
# Elastic Compliance Matrix: (Units=1/GPa)
#
#
# Indices 1 2 3 4 5 6 
#
# 1 0.009689 -0.004449 -0.001069 0.000000 0.000000 0.000000
# 2 -0.004449 0.021602 -0.001782 0.000000 0.000000 0.000000
# 3 -0.001069 -0.001782 0.009377 0.000000 0.000000 0.000000
# 4 0.000000 0.000000 0.000000 0.037258 0.000000 0.000000
# 5 0.000000 0.000000 0.000000 0.000000 0.050665 0.000000
# 6 0.000000 0.000000 0.000000 0.000000 0.000000 0.043002
#
#
# Mechanical properties :
#
#
# Convention : Reuss Voigt Hill
#
# Bulk Modulus (GPa) = 38.36061 43.79840 41.07950
# Shear Modulus (GPa) = 25.65647 28.90436 27.28042
#
# Velocity S-wave (km/s) = 3.20442 3.40121 3.30428
# Velocity P-wave (km/s) = 5.38924 5.74051 5.56764
#
# Compressibility (1/GPa) = 0.02606841
#
# Stress axis : x y z
#
# Youngs Moduli (GPa) = 103.21352 46.29124 106.64550
#
# Poissons Ratio (x) = 0.20597 0.11398
# Poissons Ratio (y) = 0.45924 0.18999
# Poissons Ratio (z) = 0.11031 0.08247
#
# Static dielectric constant tensor:
#      x y z
#    x 1.961680 0.000000 0.000000 
#    y 0.000000 2.059120 0.000000 
#    z 0.000000 0.000000 2.065180 
# 
# From -- ./inp_files/13847.got.cif
#   From: 2010.05.17/outbox.cif.g08.bks.cpg/sg73_7_cif.got.tgz:13847.got - 2010.06.03 17:35:07.
