data_PCOD9531928
_publ_section_title
;
Structure prediction by ZEFSAII (Michael W. Deem and Ramdas Pophale) SiO2 
 PCOD9531928
Probable space group: I B C A 
;
_chemical_formula_sum "Si O2"
_cell_formula_units_Z 56
_cell_length_a 12.660223
_cell_length_b 20.217757
_cell_length_c 9.078568
_cell_angle_alpha 90.000000
_cell_angle_beta 90.000000
_cell_angle_gamma 90.000000
_cell_volume 2323.762178
_symmetry_space_group_name_H-M "I B C A "
_symmetry_group_IT_number 73
_symmetry_cell_setting 'orthorhombic'
loop_
_space_group_symop_operation_xyz
x,y,z
-x,1/2-y,z
x,-y,1/2-z
1/2-x,y,-z
-x,-y,-z
x,1/2+y,-z
-x,y,1/2+z
1/2+x,-y,z
1/2+x,1/2+y,1/2+z
1/2-x,-y,1/2+z
1/2+x,1/2-y,-z
-x,1/2+y,1/2-z
1/2-x,1/2-y,1/2-z
1/2+x,y,1/2-z
1/2-x,1/2+y,z
x,1/2-y,1/2+z
loop_
_atom_site_type_symbol
_atom_site_label
_atom_site_fract_x
_atom_site_fract_y
_atom_site_fract_z
Si Si1 0.151561 0.789006 0.167539
Si Si2 0.496246 0.500000 0.750000
Si Si3 0.924366 0.085590 0.993633
Si Si4 0.626945 0.336613 0.978754
O O1 0.250000 0.750000 0.250000
O O2 0.097413 0.819247 0.310821
O O3 0.146676 0.850931 0.051775
O O4 0.108233 0.728489 0.074596
O O5 0.423568 0.551147 0.654167
O O6 0.578097 0.468632 0.632872
O O7 0.045357 0.109167 0.974218
O O8 0.750000 0.354776 0.000000
#
# Coordination Sequence:
#
# PCOD9531928 Si02
#       4
#    16   8  16  16
#     4  10  22  39  65 101 135 176 235 314 375 438
#     4  10  24  38  68 100 132 202 242 286 354 466
#     4  11  21  42  66  97 139 185 247 289 371 450
#     4  10  22  39  63  99 136 176 233 309 376 438
#
# _framework density 24.098849999999999
#
# number of rings (size 3 to 8) (size 9 to 14) (size 15 to 20)
#    0.000    1.714    2.857    0.857    4.000    2.286 
#    0.000    1.429    0.000    0.000    0.000    0.000 
#    0.000    0.000    0.000    0.000    0.000    0.000 
#
# Total GULP energy -155920.866067 kJ/mol
# GULP energy per Si atom -5568.602360 kJ/mol
# Density = 2.404400 g / cm^3
# Si number density = 24.098850 Si / 1000 Ang^3
#
#
#
# Elastic Constant Matrix: (Units=GPa)
#
#
# Indices 1 2 3 4 5 6 
#
# 1 107.1651 32.1307 29.9162 0.0000 0.0000 0.0000
# 2 32.1307 110.2275 47.4419 -0.0001 0.0000 0.0001
# 3 29.9162 47.4419 144.0946 -0.0003 -0.0001 0.0006
# 4 0.0000 -0.0001 -0.0003 68.7005 -0.0001 0.0002
# 5 0.0000 0.0000 -0.0001 -0.0001 16.4849 0.0001
# 6 0.0000 0.0001 0.0006 0.0002 0.0001 -175.5997
#
#
#
# Elastic Compliance Matrix: (Units=1/GPa)
#
#
# Indices 1 2 3 4 5 6 
#
# 1 0.010449 -0.002461 -0.001359 0.000000 0.000000 0.000000
# 2 -0.002461 0.011150 -0.003160 0.000000 0.000000 0.000000
# 3 -0.001359 -0.003160 0.008262 0.000000 0.000000 0.000000
# 4 0.000000 0.000000 0.000000 0.014556 0.000000 0.000000
# 5 0.000000 0.000000 0.000000 0.000000 0.060662 0.000000
# 6 0.000000 0.000000 0.000000 0.000000 0.000000 -0.005695
#
#
# Mechanical properties :
#
#
# Convention : Reuss Voigt Hill
#
# Bulk Modulus (GPa) = 62.88966 64.49609 63.69288
# Shear Modulus (GPa) = 42.14310 -1.28296 20.43007
#
# Velocity S-wave (km/s) = 4.18635 -0.73043 2.91479
# Velocity P-wave (km/s) = 7.03709 5.10978 6.14941
#
# Compressibility (1/GPa) = 0.01590087
#
# Stress axis : x y z
#
# Youngs Moduli (GPa) = 95.70663 89.69007 121.02939
#
# Poissons Ratio (x) = 0.22070 0.16449
# Poissons Ratio (y) = 0.23551 0.38245
# Poissons Ratio (z) = 0.13008 0.28342
#
# Static dielectric constant tensor:
#      x y z
#    x 2.000480 0.000000 0.000000 
#    y 0.000000 2.101430 0.000000 
#    z 0.000000 0.000000 1.574360 
# 
# From -- ./inp_files/4465.got.cif
#   From: 2010.05.17/outbox.cif.g08.bks.cpg/sg73_3_cif.got.tgz:4465.got - 2010.06.03 17:35:07.
