data_PCOD9531193
_publ_section_title
;
Structure prediction by ZEFSAII (Michael W. Deem and Ramdas Pophale) SiO2 
 PCOD9531193
Probable space group: I B C A 
;
_chemical_formula_sum "Si O2"
_cell_formula_units_Z 112
_cell_length_a 5.213846
_cell_length_b 34.370936
_cell_length_c 26.209173
_cell_angle_alpha 90.000000
_cell_angle_beta 90.000000
_cell_angle_gamma 90.000000
_cell_volume 4696.808745
_symmetry_space_group_name_H-M "I B C A "
_symmetry_group_IT_number 73
_symmetry_cell_setting 'orthorhombic'
loop_
_space_group_symop_operation_xyz
x,y,z
-x,1/2-y,z
x,-y,1/2-z
1/2-x,y,-z
-x,-y,-z
x,1/2+y,-z
-x,y,1/2+z
1/2+x,-y,z
1/2+x,1/2+y,1/2+z
1/2-x,-y,1/2+z
1/2+x,1/2-y,-z
-x,1/2+y,1/2-z
1/2-x,1/2-y,1/2-z
1/2+x,y,1/2-z
1/2-x,1/2+y,z
x,1/2-y,1/2+z
loop_
_atom_site_type_symbol
_atom_site_label
_atom_site_fract_x
_atom_site_fract_y
_atom_site_fract_z
Si Si1 0.969917 0.113184 0.446892
Si Si2 0.433480 0.522199 0.820685
Si Si3 0.401915 0.191494 0.714396
Si Si4 0.759440 0.274538 0.394725
Si Si5 0.107237 0.523355 0.057255
Si Si6 0.975677 0.606204 0.720656
Si Si7 0.458856 0.645841 0.561005
O O1 0.925456 0.068138 0.457997
O O2 0.242855 0.116202 0.419727
O O3 0.737719 0.134390 0.417652
O O4 0.002533 0.136221 0.500722
O O5 0.149952 0.508755 0.804304
O O6 0.413247 0.523941 0.881489
O O7 0.521611 0.564833 0.804349
O O8 0.159993 0.198628 0.752343
O O9 0.353507 0.213796 0.661895
O O10 0.433988 0.146614 0.696376
O O11 0.500000 0.250000 0.390049
O O12 0.662190 0.312443 0.426123
O O13 0.000000 0.250000 0.417934
O O14 0.883378 0.493333 0.043457
O O15 0.670430 0.607311 0.730890
#
# Coordination Sequence:
#
# PCOD9531193 Si02
#       7
#    16  16  16  16  16  16  16
#     4  10  21  43  68  95 135 179 226 267 341 394
#     4  10  21  35  53  86 125 166 217 271 322 369
#     4  10  23  43  65  98 136 172 219 267 326 403
#     4  12  26  45  71 104 135 171 218 274 346 415
#     4  10  21  38  60  95 133 173 224 277 326 383
#     4  10  21  37  56  85 122 167 217 263 320 384
#     4  10  23  43  66 100 127 167 227 268 327 411
#
# _framework density 23.845979
#
# number of rings (size 3 to 8) (size 9 to 14) (size 15 to 20)
#    0.000    1.714    0.000    3.429    2.000    3.429 
#    5.143   14.286    0.000    0.000    0.000    0.000 
#    0.000    0.000    0.000    0.000    0.000    0.000 
#
# Total GULP energy -312721.143823 kJ/mol
# GULP energy per Si atom -5584.306140 kJ/mol
# Density = 2.379170 g / cm^3
# Si number density = 23.845979 Si / 1000 Ang^3
#
#
#
# Elastic Constant Matrix: (Units=GPa)
#
#
# Indices 1 2 3 4 5 6 
#
# 1 193.4001 70.7813 19.3103 0.0000 0.0000 0.0000
# 2 70.7813 179.3647 38.7189 0.0000 0.0000 0.0000
# 3 19.3103 38.7189 70.6711 0.0000 0.0000 0.0000
# 4 0.0000 0.0000 0.0000 6.9458 0.0000 0.0000
# 5 0.0000 0.0000 0.0000 0.0000 5.1359 0.0000
# 6 0.0000 0.0000 0.0000 0.0000 0.0000 74.9583
#
#
#
# Elastic Compliance Matrix: (Units=1/GPa)
#
#
# Indices 1 2 3 4 5 6 
#
# 1 0.006053 -0.002304 -0.000392 0.000000 0.000000 0.000000
# 2 -0.002304 0.007200 -0.003315 0.000000 0.000000 0.000000
# 3 -0.000392 -0.003315 0.016073 0.000000 0.000000 0.000000
# 4 0.000000 0.000000 0.000000 0.143971 0.000000 0.000000
# 5 0.000000 0.000000 0.000000 0.000000 0.194709 0.000000
# 6 0.000000 0.000000 0.000000 0.000000 0.000000 0.013341
#
#
# Mechanical properties :
#
#
# Convention : Reuss Voigt Hill
#
# Bulk Modulus (GPa) = 57.78763 77.89521 67.84142
# Shear Modulus (GPa) = 12.52702 38.38302 25.45502
#
# Velocity S-wave (km/s) = 2.29450 4.01636 3.27077
# Velocity P-wave (km/s) = 5.59517 7.36513 6.54030
#
# Compressibility (1/GPa) = 0.01730474
#
# Stress axis : x y z
#
# Youngs Moduli (GPa) = 165.20739 138.88635 62.21479
#
# Poissons Ratio (x) = 0.32001 0.02436
# Poissons Ratio (y) = 0.38066 0.20625
# Poissons Ratio (z) = 0.06469 0.46043
#
# Static dielectric constant tensor:
#      x y z
#    x 1.965440 0.000000 0.000000 
#    y 0.000000 1.901790 0.000000 
#    z 0.000000 0.000000 2.201550 
# 
# From -- ./inp_files/33362.got.cif
#   From: 2010.05.17/outbox.cif.g08.bks.cpg/sg73_17_cif.got.tgz:33362.got - 2010.06.03 17:35:07.
