data_PCOD9531938
_publ_section_title
;
Structure prediction by ZEFSAII (Michael W. Deem and Ramdas Pophale) SiO2 
 PCOD9531938
Probable space group: I B C A 
;
_chemical_formula_sum "Si O2"
_cell_formula_units_Z 88
_cell_length_a 11.217113
_cell_length_b 23.962037
_cell_length_c 16.077067
_cell_angle_alpha 90.000000
_cell_angle_beta 90.000000
_cell_angle_gamma 90.000000
_cell_volume 4321.272472
_symmetry_space_group_name_H-M "I B C A "
_symmetry_group_IT_number 73
_symmetry_cell_setting 'orthorhombic'
loop_
_space_group_symop_operation_xyz
x,y,z
-x,1/2-y,z
x,-y,1/2-z
1/2-x,y,-z
-x,-y,-z
x,1/2+y,-z
-x,y,1/2+z
1/2+x,-y,z
1/2+x,1/2+y,1/2+z
1/2-x,-y,1/2+z
1/2+x,1/2-y,-z
-x,1/2+y,1/2-z
1/2-x,1/2-y,1/2-z
1/2+x,y,1/2-z
1/2-x,1/2+y,z
x,1/2-y,1/2+z
loop_
_atom_site_type_symbol
_atom_site_label
_atom_site_fract_x
_atom_site_fract_y
_atom_site_fract_z
Si Si1 0.492690 0.935919 0.027117
Si Si2 0.500000 0.250000 0.496224
Si Si3 0.559017 0.562018 0.216353
Si Si4 0.350484 0.655287 0.430261
Si Si5 0.302450 0.877829 0.747109
Si Si6 0.161105 0.841085 0.427581
O O1 0.425784 0.935234 0.116115
O O2 0.615023 0.903433 0.049553
O O3 0.433957 0.897595 0.955439
O O4 0.500000 0.000000 0.000000
O O5 0.584987 0.286078 0.555005
O O6 0.555170 0.202727 0.437279
O O7 0.541177 0.500000 0.250000
O O8 0.683594 0.584124 0.253847
O O9 0.434835 0.594150 0.237631
O O10 0.250000 0.652879 0.500000
O O11 0.304435 0.650648 0.336967
O O12 0.290167 0.840238 0.665060
O O13 0.250000 0.824362 0.500000
#
# Coordination Sequence:
#
# PCOD9531938 Si02
#       6
#    16   8  16  16  16  16
#     4  10  22  39  65  97 138 180 222 281 337 405
#     4  10  24  44  70  94 130 176 230 288 346 406
#     4  11  23  41  63 102 140 183 232 272 332 412
#     4  11  22  44  67  96 133 176 229 278 343 407
#     4  11  25  42  68  98 139 179 226 284 340 408
#     4  10  24  44  65  98 134 174 231 283 343 409
#
# _framework density 20.364373000000001
#
# number of rings (size 3 to 8) (size 9 to 14) (size 15 to 20)
#    0.000    1.455    1.818    2.182    7.636    2.909 
#    0.000    3.636    0.000    0.000    0.000    0.000 
#    0.000    0.000    0.000    0.000    0.000    0.000 
#
# Total GULP energy -245409.257656 kJ/mol
# GULP energy per Si atom -5577.483129 kJ/mol
# Density = 2.031802 g / cm^3
# Si number density = 20.364373 Si / 1000 Ang^3
#
#
#
# Elastic Constant Matrix: (Units=GPa)
#
#
# Indices 1 2 3 4 5 6 
#
# 1 67.7863 13.7710 30.4666 0.0000 0.0000 0.0000
# 2 13.7710 82.9182 24.4353 0.0000 0.0000 0.0000
# 3 30.4666 24.4353 149.2407 0.0000 0.0000 0.0000
# 4 0.0000 0.0000 0.0000 6.9116 0.0000 0.0000
# 5 0.0000 0.0000 0.0000 0.0000 28.3707 0.0000
# 6 0.0000 0.0000 0.0000 0.0000 0.0000 5.1248
#
#
#
# Elastic Compliance Matrix: (Units=1/GPa)
#
#
# Indices 1 2 3 4 5 6 
#
# 1 0.016505 -0.001837 -0.003069 0.000000 0.000000 0.000000
# 2 -0.001837 0.012876 -0.001733 0.000000 0.000000 0.000000
# 3 -0.003069 -0.001733 0.007611 0.000000 0.000000 0.000000
# 4 0.000000 0.000000 0.000000 0.144685 0.000000 0.000000
# 5 0.000000 0.000000 0.000000 0.000000 0.035248 0.000000
# 6 0.000000 0.000000 0.000000 0.000000 0.000000 0.195129
#
#
# Mechanical properties :
#
#
# Convention : Reuss Voigt Hill
#
# Bulk Modulus (GPa) = 42.16896 48.58788 45.37842
# Shear Modulus (GPa) = 11.54109 23.49957 17.52033
#
# Velocity S-wave (km/s) = 2.38319 3.40068 2.93634
# Velocity P-wave (km/s) = 5.32212 6.27141 5.81616
#
# Compressibility (1/GPa) = 0.02371413
#
# Stress axis : x y z
#
# Youngs Moduli (GPa) = 60.58927 77.66447 131.39237
#
# Poissons Ratio (x) = 0.14265 0.40319
# Poissons Ratio (y) = 0.11129 0.22773
# Poissons Ratio (z) = 0.18592 0.13461
#
# Static dielectric constant tensor:
#      x y z
#    x 1.820110 0.000000 0.000000 
#    y 0.000000 2.161100 0.000000 
#    z 0.000000 0.000000 1.735980 
# 
# From -- ./inp_files/10981.got.cif
#   From: 2010.05.17/outbox.cif.g08.bks.cpg/sg73_6_cif.got.tgz:10981.got - 2010.06.03 17:35:07.
