data_PCOD9531662
_publ_section_title
;
Structure prediction by ZEFSAII (Michael W. Deem and Ramdas Pophale) SiO2 
 PCOD9531662
Probable space group: I B C A 
;
_chemical_formula_sum "Si O2"
_cell_formula_units_Z 80
_cell_length_a 12.710418
_cell_length_b 21.819058
_cell_length_c 13.901178
_cell_angle_alpha 90.000000
_cell_angle_beta 90.000000
_cell_angle_gamma 90.000000
_cell_volume 3855.204625
_symmetry_space_group_name_H-M "I B C A "
_symmetry_group_IT_number 73
_symmetry_cell_setting 'orthorhombic'
loop_
_space_group_symop_operation_xyz
x,y,z
-x,1/2-y,z
x,-y,1/2-z
1/2-x,y,-z
-x,-y,-z
x,1/2+y,-z
-x,y,1/2+z
1/2+x,-y,z
1/2+x,1/2+y,1/2+z
1/2-x,-y,1/2+z
1/2+x,1/2-y,-z
-x,1/2+y,1/2-z
1/2-x,1/2-y,1/2-z
1/2+x,y,1/2-z
1/2-x,1/2+y,z
x,1/2-y,1/2+z
loop_
_atom_site_type_symbol
_atom_site_label
_atom_site_fract_x
_atom_site_fract_y
_atom_site_fract_z
Si Si1 0.000000 0.250000 0.121888
Si Si2 0.628912 0.172257 0.022839
Si Si3 0.663616 0.194436 0.239482
Si Si4 0.946743 0.052885 0.062066
Si Si5 0.750000 0.513673 0.500000
Si Si6 0.639857 0.438330 0.813616
O O1 0.933602 0.293647 0.190141
O O2 0.913728 0.219956 0.053838
O O3 0.624662 0.195982 0.130370
O O4 0.750000 0.158467 0.000000
O O5 0.558448 0.112959 0.003644
O O6 0.750000 0.250000 0.250000
O O7 0.688551 0.122551 0.263489
O O8 0.827375 0.028481 0.064815
O O9 0.014479 0.064653 0.158193
O O10 0.000000 0.000000 0.000000
O O11 0.691319 0.553643 0.580663
O O12 0.654557 0.500000 0.750000
#
# Coordination Sequence:
#
# PCOD9531662 Si02
#       6
#     8  16  16  16   8  16
#     4  12  26  48  70 102 140 192 236 306 364 440
#     4  12  24  46  74  98 145 186 238 301 367 431
#     4  12  26  47  72 106 142 191 245 295 374 447
#     4  10  21  42  67  99 138 181 228 294 359 422
#     4  10  22  42  72 104 138 186 232 302 370 424
#     4  11  25  45  69 108 146 188 248 299 366 438
#
# _framework density 20.751166999999999
#
# number of rings (size 3 to 8) (size 9 to 14) (size 15 to 20)
#    0.000    0.800    5.000    3.000    0.000    2.400 
#   10.800    0.000    0.000    0.000    0.000    0.000 
#    0.000    0.000    0.000    0.000    0.000    0.000 
#
# Total GULP energy -222973.428241 kJ/mol
# GULP energy per Si atom -5574.335706 kJ/mol
# Density = 2.070394 g / cm^3
# Si number density = 20.751167 Si / 1000 Ang^3
#
#
#
# Elastic Constant Matrix: (Units=GPa)
#
#
# Indices 1 2 3 4 5 6 
#
# 1 61.3551 23.5444 28.1927 0.0000 0.0000 0.0000
# 2 23.5444 119.4294 48.9768 -0.0001 0.0000 0.0000
# 3 28.1927 48.9768 137.2247 0.0000 0.0000 0.0000
# 4 0.0000 -0.0001 0.0000 62.1456 0.0000 0.0000
# 5 0.0000 0.0000 0.0000 0.0000 39.1047 0.0000
# 6 0.0000 0.0000 0.0000 0.0000 0.0000 36.3857
#
#
#
# Elastic Compliance Matrix: (Units=1/GPa)
#
#
# Indices 1 2 3 4 5 6 
#
# 1 0.018594 -0.002459 -0.002943 0.000000 0.000000 0.000000
# 2 -0.002459 0.010134 -0.003112 0.000000 0.000000 0.000000
# 3 -0.002943 -0.003112 0.009002 0.000000 0.000000 0.000000
# 4 0.000000 0.000000 0.000000 0.016091 0.000000 0.000000
# 5 0.000000 0.000000 0.000000 0.000000 0.025572 0.000000
# 6 0.000000 0.000000 0.000000 0.000000 0.000000 0.027483
#
#
# Mechanical properties :
#
#
# Convention : Reuss Voigt Hill
#
# Bulk Modulus (GPa) = 48.29929 57.71523 53.00726
# Shear Modulus (GPa) = 38.22466 42.01355 40.11911
#
# Velocity S-wave (km/s) = 4.29657 4.50448 4.40175
# Velocity P-wave (km/s) = 6.92387 7.41128 7.17172
#
# Compressibility (1/GPa) = 0.02070424
#
# Stress axis : x y z
#
# Youngs Moduli (GPa) = 53.78000 98.67768 111.08064
#
# Poissons Ratio (x) = 0.24265 0.32686
# Poissons Ratio (y) = 0.13224 0.34565
# Poissons Ratio (z) = 0.15825 0.30706
#
# Static dielectric constant tensor:
#      x y z
#    x 2.090180 0.000000 0.000000 
#    y 0.000000 1.793380 0.000000 
#    z 0.000000 0.000000 1.673480 
# 
# From -- ./inp_files/16085.got.cif
#   From: 2010.05.17/outbox.cif.g08.bks.cpg/sg73_9_cif.got.tgz:16085.got - 2010.06.03 17:35:07.
