data_PCOD9531835
_publ_section_title
;
Structure prediction by ZEFSAII (Michael W. Deem and Ramdas Pophale) SiO2 
 PCOD9531835
Probable space group: I B C A 
;
_chemical_formula_sum "Si O2"
_cell_formula_units_Z 64
_cell_length_a 18.855421
_cell_length_b 27.586747
_cell_length_c 5.497006
_cell_angle_alpha 90.000000
_cell_angle_beta 90.000000
_cell_angle_gamma 90.000000
_cell_volume 2859.321150
_symmetry_space_group_name_H-M "I B C A "
_symmetry_group_IT_number 73
_symmetry_cell_setting 'orthorhombic'
loop_
_space_group_symop_operation_xyz
x,y,z
-x,1/2-y,z
x,-y,1/2-z
1/2-x,y,-z
-x,-y,-z
x,1/2+y,-z
-x,y,1/2+z
1/2+x,-y,z
1/2+x,1/2+y,1/2+z
1/2-x,-y,1/2+z
1/2+x,1/2-y,-z
-x,1/2+y,1/2-z
1/2-x,1/2-y,1/2-z
1/2+x,y,1/2-z
1/2-x,1/2+y,z
x,1/2-y,1/2+z
loop_
_atom_site_type_symbol
_atom_site_label
_atom_site_fract_x
_atom_site_fract_y
_atom_site_fract_z
Si Si1 0.039646 0.306606 0.659294
Si Si2 0.163928 0.025282 0.996549
Si Si3 0.333525 0.861309 0.448109
Si Si4 0.346997 0.228784 0.351225
O O1 0.113790 0.336107 0.638652
O O2 0.183104 0.254399 0.891571
O O3 0.998805 0.319466 0.410109
O O4 0.139561 0.000000 0.250000
O O5 0.250000 0.020951 0.000000
O O6 0.148607 0.082138 0.960250
O O7 0.137698 0.000000 0.750000
O O8 0.250000 0.856791 0.500000
O O9 0.345036 0.828120 0.206821
O O10 0.427360 0.251695 0.350193
#
# Coordination Sequence:
#
# PCOD9531835 Si02
#       4
#    16  16  16  16
#     4  11  24  42  63  91 129 174 216 256 316 395
#     4   9  19  37  62  92 126 165 213 270 330 390
#     4  10  23  42  68 100 132 171 222 278 331 383
#     4  10  22  37  58  87 125 161 205 254 308 373
#
# _framework density 22.382935
#
# number of rings (size 3 to 8) (size 9 to 14) (size 15 to 20)
#    0.000    2.000    0.000    3.000    0.000   22.000 
#    0.000   13.750    0.000    6.000    0.000    0.000 
#    0.000    0.000    0.000    0.000    0.000    0.000 
#
# Total GULP energy -178453.245378 kJ/mol
# GULP energy per Si atom -5576.663918 kJ/mol
# Density = 2.233199 g / cm^3
# Si number density = 22.382935 Si / 1000 Ang^3
#
#
#
# Elastic Constant Matrix: (Units=GPa)
#
#
# Indices 1 2 3 4 5 6 
#
# 1 93.7647 25.7904 52.2209 0.0000 0.0000 0.0000
# 2 25.7904 166.7041 89.1629 0.0000 0.0000 0.0000
# 3 52.2209 89.1629 232.7098 0.0000 0.0000 0.0000
# 4 0.0000 0.0000 0.0000 28.2620 0.0000 0.0000
# 5 0.0000 0.0000 0.0000 0.0000 38.5282 0.0000
# 6 0.0000 0.0000 0.0000 0.0000 0.0000 40.8279
#
#
#
# Elastic Compliance Matrix: (Units=1/GPa)
#
#
# Indices 1 2 3 4 5 6 
#
# 1 0.012226 -0.000533 -0.002539 0.000000 0.000000 0.000000
# 2 -0.000533 0.007568 -0.002780 0.000000 0.000000 0.000000
# 3 -0.002539 -0.002780 0.005932 0.000000 0.000000 0.000000
# 4 0.000000 0.000000 0.000000 0.035383 0.000000 0.000000
# 5 0.000000 0.000000 0.000000 0.000000 0.025955 0.000000
# 6 0.000000 0.000000 0.000000 0.000000 0.000000 0.024493
#
#
# Mechanical properties :
#
#
# Convention : Reuss Voigt Hill
#
# Bulk Modulus (GPa) = 71.32153 91.94746 81.63450
# Shear Modulus (GPa) = 39.08199 43.25725 41.16962
#
# Velocity S-wave (km/s) = 4.18312 4.40090 4.29339
# Velocity P-wave (km/s) = 7.43403 8.18489 7.81848
#
# Compressibility (1/GPa) = 0.01402101
#
# Stress axis : x y z
#
# Youngs Moduli (GPa) = 81.79392 132.13383 168.57246
#
# Poissons Ratio (x) = 0.07047 0.42803
# Poissons Ratio (y) = 0.04362 0.46864
# Poissons Ratio (z) = 0.20769 0.36734
#
# Static dielectric constant tensor:
#      x y z
#    x 1.983520 0.000000 0.000000 
#    y 0.000000 1.877440 0.000000 
#    z 0.000000 0.000000 1.878530 
# 
# From -- ./inp_files/1633.got.cif
#   From: 2010.05.17/outbox.cif.g08.bks.cpg/sg73_1_cif.got.tgz:1633.got - 2010.06.03 17:35:07.
