data_PCOD9531097
_publ_section_title
;
Structure prediction by ZEFSAII (Michael W. Deem and Ramdas Pophale) SiO2 
 PCOD9531097
Probable space group: I B C A 
;
_chemical_formula_sum "Si O2"
_cell_formula_units_Z 120
_cell_length_a 21.696228
_cell_length_b 21.694818
_cell_length_c 11.584537
_cell_angle_alpha 90.000000
_cell_angle_beta 90.000000
_cell_angle_gamma 90.000000
_cell_volume 5452.791958
_symmetry_space_group_name_H-M "I B C A "
_symmetry_group_IT_number 73
_symmetry_cell_setting 'orthorhombic'
loop_
_space_group_symop_operation_xyz
x,y,z
-x,1/2-y,z
x,-y,1/2-z
1/2-x,y,-z
-x,-y,-z
x,1/2+y,-z
-x,y,1/2+z
1/2+x,-y,z
1/2+x,1/2+y,1/2+z
1/2-x,-y,1/2+z
1/2+x,1/2-y,-z
-x,1/2+y,1/2-z
1/2-x,1/2-y,1/2-z
1/2+x,y,1/2-z
1/2-x,1/2+y,z
x,1/2-y,1/2+z
loop_
_atom_site_type_symbol
_atom_site_label
_atom_site_fract_x
_atom_site_fract_y
_atom_site_fract_z
Si Si1 0.963780 0.456320 0.647846
Si Si2 0.336762 0.000000 0.750000
Si Si3 0.845967 0.302783 0.439275
Si Si4 0.631234 0.645579 0.188699
Si Si5 0.232670 0.872744 0.244153
Si Si6 0.648822 0.171116 0.448355
Si Si7 0.930122 0.227889 0.746547
Si Si8 0.909898 0.047888 0.526388
O O1 0.987753 0.500000 0.750000
O O2 0.926276 0.399690 0.699254
O O3 0.916796 0.497320 0.572571
O O4 0.020450 0.436842 0.567161
O O5 0.296459 0.060266 0.722760
O O6 0.376263 0.019112 0.861921
O O7 0.854735 0.343393 0.552957
O O8 0.791759 0.327430 0.357136
O O9 0.837064 0.232272 0.479962
O O10 0.908285 0.306113 0.362296
O O11 0.694403 0.623617 0.244108
O O12 0.612044 0.711453 0.238432
O O13 0.204770 0.846446 0.363270
O O14 0.591435 0.188051 0.362854
O O15 0.626345 0.109256 0.511055
O O16 0.000000 0.250000 0.744668
#
# Coordination Sequence:
#
# PCOD9531097 Si02
#       8
#    16   8  16  16  16  16  16  16
#     4  11  24  39  63  95 130 167 212 267 324 384
#     4  10  20  42  68  90 124 170 222 262 318 396
#     4  10  22  39  63  92 123 165 211 261 324 388
#     4  11  24  40  61  92 127 163 208 266 317 383
#     4  10  22  40  66  90 124 170 211 266 320 385
#     4   9  21  40  63  92 125 161 216 261 322 394
#     4  10  22  39  62  91 123 167 207 262 321 384
#     4  10  21  41  65  93 124 170 212 267 322 382
#
# _framework density 22.007075
#
# number of rings (size 3 to 8) (size 9 to 14) (size 15 to 20)
#    0.000    1.867    0.667    2.000    2.800    9.067 
#    2.400    0.000    0.000    0.000    0.000    0.000 
#    0.000    0.000    0.000    0.000    0.000    0.000 
#
# Total GULP energy -335742.321869 kJ/mol
# GULP energy per Si atom -5595.705364 kJ/mol
# Density = 2.195699 g / cm^3
# Si number density = 22.007075 Si / 1000 Ang^3
#
#
#
# Elastic Constant Matrix: (Units=GPa)
#
#
# Indices 1 2 3 4 5 6 
#
# 1 68.6270 1.9198 9.7552 0.0000 0.0000 0.0000
# 2 1.9198 95.0814 20.2789 0.0000 0.0000 0.0000
# 3 9.7552 20.2789 60.2603 0.0000 0.0000 0.0000
# 4 0.0000 0.0000 0.0000 21.6377 0.0000 0.0000
# 5 0.0000 0.0000 0.0000 0.0000 8.2815 0.0000
# 6 0.0000 0.0000 0.0000 0.0000 0.0000 9.9528
#
#
#
# Elastic Compliance Matrix: (Units=1/GPa)
#
#
# Indices 1 2 3 4 5 6 
#
# 1 0.014919 0.000230 -0.002493 0.000000 0.000000 0.000000
# 2 0.000230 0.011334 -0.003851 0.000000 0.000000 0.000000
# 3 -0.002493 -0.003851 0.018294 0.000000 0.000000 0.000000
# 4 0.000000 0.000000 0.000000 0.046216 0.000000 0.000000
# 5 0.000000 0.000000 0.000000 0.000000 0.120752 0.000000
# 6 0.000000 0.000000 0.000000 0.000000 0.000000 0.100474
#
#
# Mechanical properties :
#
#
# Convention : Reuss Voigt Hill
#
# Bulk Modulus (GPa) = 30.94043 31.98630 31.46336
# Shear Modulus (GPa) = 14.92579 20.77537 17.85058
#
# Velocity S-wave (km/s) = 2.60710 3.07584 2.85112
# Velocity P-wave (km/s) = 4.81170 5.21349 5.01662
#
# Compressibility (1/GPa) = 0.03232018
#
# Stress axis : x y z
#
# Youngs Moduli (GPa) = 67.02676 88.22939 54.66177
#
# Poissons Ratio (x) = -0.02033 0.13626
# Poissons Ratio (y) = -0.01544 0.21053
# Poissons Ratio (z) = 0.16708 0.33981
#
# Static dielectric constant tensor:
#      x y z
#    x 1.775210 0.000000 0.000000 
#    y 0.000000 1.769670 0.000000 
#    z 0.000000 0.000000 1.821360 
# 
# From -- ./inp_files/13110.got.cif
#   From: 2010.05.17/outbox.cif.g08.bks.cpg/sg73_7_cif.got.tgz:13110.got - 2010.06.03 17:35:07.
