data_PCOD9531606
_publ_section_title
;
Structure prediction by ZEFSAII (Michael W. Deem and Ramdas Pophale) SiO2 
 PCOD9531606
Probable space group: I B C A 
;
_chemical_formula_sum "Si O2"
_cell_formula_units_Z 88
_cell_length_a 5.163343
_cell_length_b 25.434894
_cell_length_c 30.370240
_cell_angle_alpha 90.000000
_cell_angle_beta 90.000000
_cell_angle_gamma 90.000000
_cell_volume 3988.495736
_symmetry_space_group_name_H-M "I B C A "
_symmetry_group_IT_number 73
_symmetry_cell_setting 'orthorhombic'
loop_
_space_group_symop_operation_xyz
x,y,z
-x,1/2-y,z
x,-y,1/2-z
1/2-x,y,-z
-x,-y,-z
x,1/2+y,-z
-x,y,1/2+z
1/2+x,-y,z
1/2+x,1/2+y,1/2+z
1/2-x,-y,1/2+z
1/2+x,1/2-y,-z
-x,1/2+y,1/2-z
1/2-x,1/2-y,1/2-z
1/2+x,y,1/2-z
1/2-x,1/2+y,z
x,1/2-y,1/2+z
loop_
_atom_site_type_symbol
_atom_site_label
_atom_site_fract_x
_atom_site_fract_y
_atom_site_fract_z
Si Si1 0.250000 0.118992 0.000000
Si Si2 0.238289 0.087520 0.858653
Si Si3 0.938862 0.805657 0.874824
Si Si4 0.986905 0.033186 0.563694
Si Si5 0.504667 0.559089 0.768259
Si Si6 0.546121 0.161452 0.078446
O O1 0.412218 0.082168 0.966832
O O2 0.043738 0.151259 0.971122
O O3 0.384838 0.142007 0.846392
O O4 0.431930 0.050825 0.886045
O O5 0.105506 0.061066 0.817201
O O6 0.021988 0.108014 0.893715
O O7 0.168539 0.820654 0.908771
O O8 0.328016 0.699991 0.901632
O O9 0.000000 0.750000 0.852854
O O10 0.770503 0.988688 0.554873
O O11 0.547687 0.500000 0.750000
O O12 0.784873 0.584398 0.762521
#
# Coordination Sequence:
#
# PCOD9531606 Si02
#       6
#     8  16  16  16  16  16
#     4  10  22  42  56  88 122 168 202 264 298 358
#     4   9  24  38  64  87 125 159 202 252 310 357
#     4  10  21  41  66  91 115 160 207 256 313 367
#     4  11  25  36  60  83 121 165 210 246 297 370
#     4  10  23  37  58  88 125 159 192 244 294 370
#     4   9  22  37  65  86 123 155 206 255 308 359
#
# _framework density 22.063455999999999
#
# number of rings (size 3 to 8) (size 9 to 14) (size 15 to 20)
#    1.091    1.091    0.000    1.091   12.727    2.182 
#    0.000    1.818    0.000    1.091    0.000    0.000 
#    0.000    0.000    0.000    0.000    0.000    0.000 
#
# Total GULP energy -245495.445014 kJ/mol
# GULP energy per Si atom -5579.441932 kJ/mol
# Density = 2.201324 g / cm^3
# Si number density = 22.063456 Si / 1000 Ang^3
#
#
#
# Elastic Constant Matrix: (Units=GPa)
#
#
# Indices 1 2 3 4 5 6 
#
# 1 111.4297 17.9101 -5.8430 0.0000 0.0000 0.0000
# 2 17.9101 56.8624 11.5240 0.0000 0.0000 0.0000
# 3 -5.8430 11.5240 67.5349 0.0000 0.0000 0.0000
# 4 0.0000 0.0000 0.0000 10.6547 0.0000 0.0000
# 5 0.0000 0.0000 0.0000 0.0000 15.3663 0.0000
# 6 0.0000 0.0000 0.0000 0.0000 0.0000 28.0942
#
#
#
# Elastic Compliance Matrix: (Units=1/GPa)
#
#
# Indices 1 2 3 4 5 6 
#
# 1 0.009577 -0.003299 0.001391 0.000000 0.000000 0.000000
# 2 -0.003299 0.019352 -0.003588 0.000000 0.000000 0.000000
# 3 0.001391 -0.003588 0.015540 0.000000 0.000000 0.000000
# 4 0.000000 0.000000 0.000000 0.093855 0.000000 0.000000
# 5 0.000000 0.000000 0.000000 0.000000 0.065078 0.000000
# 6 0.000000 0.000000 0.000000 0.000000 0.000000 0.035595
#
#
# Mechanical properties :
#
#
# Convention : Reuss Voigt Hill
#
# Bulk Modulus (GPa) = 29.86860 31.44548 30.65704
# Shear Modulus (GPa) = 19.14636 24.97210 22.05923
#
# Velocity S-wave (km/s) = 2.94902 3.36792 3.16541
# Velocity P-wave (km/s) = 5.01623 5.42283 5.22349
#
# Compressibility (1/GPa) = 0.03347997
#
# Stress axis : x y z
#
# Youngs Moduli (GPa) = 104.41227 51.67329 64.35116
#
# Poissons Ratio (x) = 0.17045 -0.08954
# Poissons Ratio (y) = 0.34442 0.23087
# Poissons Ratio (z) = -0.14529 0.18538
#
# Static dielectric constant tensor:
#      x y z
#    x 1.871720 0.000000 0.000000 
#    y 0.000000 1.442790 0.000000 
#    z 0.000000 0.000000 1.817220 
# 
# From -- ./inp_files/33271.got.cif
#   From: 2010.05.17/outbox.cif.g08.bks.cpg/sg73_17_cif.got.tgz:33271.got - 2010.06.03 17:35:07.
