data_PCOD9531717
_publ_section_title
;
Structure prediction by ZEFSAII (Michael W. Deem and Ramdas Pophale) SiO2 
 PCOD9531717
Probable space group: I B C A 
;
_chemical_formula_sum "Si O2"
_cell_formula_units_Z 88
_cell_length_a 12.465700
_cell_length_b 13.578244
_cell_length_c 21.496499
_cell_angle_alpha 90.000000
_cell_angle_beta 90.000000
_cell_angle_gamma 90.000000
_cell_volume 3638.547212
_symmetry_space_group_name_H-M "I B C A "
_symmetry_group_IT_number 73
_symmetry_cell_setting 'orthorhombic'
loop_
_space_group_symop_operation_xyz
x,y,z
-x,1/2-y,z
x,-y,1/2-z
1/2-x,y,-z
-x,-y,-z
x,1/2+y,-z
-x,y,1/2+z
1/2+x,-y,z
1/2+x,1/2+y,1/2+z
1/2-x,-y,1/2+z
1/2+x,1/2-y,-z
-x,1/2+y,1/2-z
1/2-x,1/2-y,1/2-z
1/2+x,y,1/2-z
1/2-x,1/2+y,z
x,1/2-y,1/2+z
loop_
_atom_site_type_symbol
_atom_site_label
_atom_site_fract_x
_atom_site_fract_y
_atom_site_fract_z
Si Si1 0.250873 0.633773 0.675092
Si Si2 0.109545 0.968750 0.071601
Si Si3 0.604778 0.682409 0.574302
Si Si4 0.764161 0.638608 0.313261
Si Si5 0.750000 0.823515 0.500000
Si Si6 0.062794 0.503694 0.322672
O O1 0.197727 0.568155 0.622283
O O2 0.208702 0.608004 0.743501
O O3 0.226749 0.749124 0.677570
O O4 0.377961 0.610060 0.671187
O O5 0.007212 0.972153 0.117657
O O6 0.107370 0.076772 0.039207
O O7 0.147389 0.890407 0.019226
O O8 0.500000 0.750000 0.570034
O O9 0.632434 0.639211 0.642666
O O10 0.703143 0.750350 0.552061
O O11 0.662589 0.571692 0.327279
O O12 0.023411 0.500000 0.250000
#
# Coordination Sequence:
#
# PCOD9531717 Si02
#       6
#    16  16  16  16   8  16
#     4  10  21  43  69 109 147 187 234 302 374 454
#     4  12  26  46  78 102 151 195 252 313 378 449
#     4  12  27  47  76 105 144 197 253 316 374 452
#     4  10  21  43  71 105 152 185 234 303 374 454
#     4  12  30  54  68 106 146 204 266 308 372 440
#     4  10  23  41  74 113 147 190 241 301 382 456
#
# _framework density 24.185478
#
# number of rings (size 3 to 8) (size 9 to 14) (size 15 to 20)
#    0.000    1.091    3.636    1.636    2.545    2.909 
#    0.000    0.000    0.000    0.000    0.000    0.000 
#    0.000    0.000    0.000    0.000    0.000    0.000 
#
# Total GULP energy -245021.102491 kJ/mol
# GULP energy per Si atom -5568.661420 kJ/mol
# Density = 2.413043 g / cm^3
# Si number density = 24.185478 Si / 1000 Ang^3
#
#
#
# Elastic Constant Matrix: (Units=GPa)
#
#
# Indices 1 2 3 4 5 6 
#
# 1 41.4427 4.8529 7.2852 0.0000 0.0000 0.0000
# 2 4.8529 127.3597 14.7108 0.0000 0.0000 0.0000
# 3 7.2852 14.7108 87.5042 0.0000 0.0000 0.0000
# 4 0.0000 0.0000 0.0000 14.5102 0.0000 0.0000
# 5 0.0000 0.0000 0.0000 0.0000 18.0547 0.0000
# 6 0.0000 0.0000 0.0000 0.0000 0.0000 26.2030
#
#
#
# Elastic Compliance Matrix: (Units=1/GPa)
#
#
# Indices 1 2 3 4 5 6 
#
# 1 0.024551 -0.000713 -0.001924 0.000000 0.000000 0.000000
# 2 -0.000713 0.008028 -0.001290 0.000000 0.000000 0.000000
# 3 -0.001924 -0.001290 0.011805 0.000000 0.000000 0.000000
# 4 0.000000 0.000000 0.000000 0.068917 0.000000 0.000000
# 5 0.000000 0.000000 0.000000 0.000000 0.055387 0.000000
# 6 0.000000 0.000000 0.000000 0.000000 0.000000 0.038164
#
#
# Mechanical properties :
#
#
# Convention : Reuss Voigt Hill
#
# Bulk Modulus (GPa) = 27.37529 34.44496 30.91012
# Shear Modulus (GPa) = 22.03766 27.05075 24.54420
#
# Velocity S-wave (km/s) = 3.02187 3.34798 3.18910
# Velocity P-wave (km/s) = 4.84965 5.40539 5.13504
#
# Compressibility (1/GPa) = 0.03652930
#
# Stress axis : x y z
#
# Youngs Moduli (GPa) = 40.73074 124.56426 84.70896
#
# Poissons Ratio (x) = 0.08885 0.16299
# Poissons Ratio (y) = 0.02905 0.10930
# Poissons Ratio (z) = 0.07837 0.16072
#
# Static dielectric constant tensor:
#      x y z
#    x 1.942620 0.000000 0.000000 
#    y 0.000000 2.010550 0.000000 
#    z 0.000000 0.000000 1.978330 
# 
# From -- ./inp_files/28842.got.cif
#   From: 2010.05.17/outbox.cif.g08.bks.cpg/sg73_15_cif.got.tgz:28842.got - 2010.06.03 17:35:07.
