data_PCOD9531010
_publ_section_title
;
Structure prediction by ZEFSAII (Michael W. Deem and Ramdas Pophale) SiO2 
 PCOD9531010
Probable space group: I B C A 
;
_chemical_formula_sum "Si O2"
_cell_formula_units_Z 88
_cell_length_a 17.897064
_cell_length_b 17.703621
_cell_length_c 13.638943
_cell_angle_alpha 90.000000
_cell_angle_beta 90.000000
_cell_angle_gamma 90.000000
_cell_volume 4321.401408
_symmetry_space_group_name_H-M "I B C A "
_symmetry_group_IT_number 73
_symmetry_cell_setting 'orthorhombic'
loop_
_space_group_symop_operation_xyz
x,y,z
-x,1/2-y,z
x,-y,1/2-z
1/2-x,y,-z
-x,-y,-z
x,1/2+y,-z
-x,y,1/2+z
1/2+x,-y,z
1/2+x,1/2+y,1/2+z
1/2-x,-y,1/2+z
1/2+x,1/2-y,-z
-x,1/2+y,1/2-z
1/2-x,1/2-y,1/2-z
1/2+x,y,1/2-z
1/2-x,1/2+y,z
x,1/2-y,1/2+z
loop_
_atom_site_type_symbol
_atom_site_label
_atom_site_fract_x
_atom_site_fract_y
_atom_site_fract_z
Si Si1 0.499125 0.048810 0.849319
Si Si2 0.873815 0.002981 0.005340
Si Si3 0.250000 0.619005 0.000000
Si Si4 0.817036 0.757518 0.395417
Si Si5 0.672715 0.846782 0.409849
Si Si6 0.061130 0.196059 0.245898
O O1 0.577668 0.034941 0.904250
O O2 0.481090 0.134610 0.820162
O O3 0.496671 0.000000 0.750000
O O4 0.434123 0.024052 0.924587
O O5 0.827228 0.070528 0.955979
O O6 0.818510 0.934540 0.031185
O O7 0.220483 0.675855 0.916016
O O8 0.751342 0.816219 0.367632
O O9 0.844696 0.789181 0.500590
O O10 0.882513 0.745649 0.319339
O O11 0.610177 0.844263 0.327741
O O12 0.000000 0.250000 0.293626
#
# Coordination Sequence:
#
# PCOD9531010 Si02
#       6
#    16  16   8  16  16  16
#     4  11  24  42  63  96 130 168 214 261 321 385
#     4  11  22  41  69  90 130 169 211 267 319 375
#     4  10  20  40  68  92 124 174 208 264 324 368
#     4  10  23  42  62  98 131 162 220 265 317 384
#     4  10  22  41  65  91 126 173 212 263 318 378
#     4  12  24  40  66  96 134 173 211 261 325 381
#
# _framework density 20.363764
#
# number of rings (size 3 to 8) (size 9 to 14) (size 15 to 20)
#    0.000    1.455    3.636    2.727    0.000    5.091 
#    0.000    6.364    0.000    0.000    0.000    0.000 
#    0.000    0.000    0.000    0.000    0.000    0.000 
#
# Total GULP energy -245797.653855 kJ/mol
# GULP energy per Si atom -5586.310315 kJ/mol
# Density = 2.031742 g / cm^3
# Si number density = 20.363764 Si / 1000 Ang^3
#
#
#
# Elastic Constant Matrix: (Units=GPa)
#
#
# Indices 1 2 3 4 5 6 
#
# 1 98.9973 39.7687 14.5203 0.0000 0.0000 0.0000
# 2 39.7687 97.8506 4.0134 0.0000 0.0000 0.0000
# 3 14.5203 4.0134 39.8208 0.0000 0.0000 0.0000
# 4 0.0000 0.0000 0.0000 20.3050 0.0000 0.0000
# 5 0.0000 0.0000 0.0000 0.0000 11.4323 0.0000
# 6 0.0000 0.0000 0.0000 0.0000 0.0000 33.1850
#
#
#
# Elastic Compliance Matrix: (Units=1/GPa)
#
#
# Indices 1 2 3 4 5 6 
#
# 1 0.012715 -0.004998 -0.004133 0.000000 0.000000 0.000000
# 2 -0.004998 0.012227 0.000590 0.000000 0.000000 0.000000
# 3 -0.004133 0.000590 0.026560 0.000000 0.000000 0.000000
# 4 0.000000 0.000000 0.000000 0.049249 0.000000 0.000000
# 5 0.000000 0.000000 0.000000 0.000000 0.087471 0.000000
# 6 0.000000 0.000000 0.000000 0.000000 0.000000 0.030134
#
#
# Mechanical properties :
#
#
# Convention : Reuss Voigt Hill
#
# Bulk Modulus (GPa) = 29.05235 39.25262 34.15249
# Shear Modulus (GPa) = 20.25015 24.87554 22.56285
#
# Velocity S-wave (km/s) = 3.15687 3.49887 3.33226
# Velocity P-wave (km/s) = 5.25218 5.96996 5.62253
#
# Compressibility (1/GPa) = 0.03442063
#
# Stress axis : x y z
#
# Youngs Moduli (GPa) = 78.64508 81.78704 37.65059
#
# Poissons Ratio (x) = 0.40880 0.15560
# Poissons Ratio (y) = 0.39309 -0.02222
# Poissons Ratio (z) = 0.32502 -0.04828
#
# Static dielectric constant tensor:
#      x y z
#    x 1.718260 0.000000 0.000000 
#    y 0.000000 1.727540 0.000000 
#    z 0.000000 0.000000 1.693510 
# 
# From -- ./inp_files/17928.got.cif
#   From: 2010.05.17/outbox.cif.g08.bks.cpg/sg73_9_cif.got.tgz:17928.got - 2010.06.03 17:35:07.
