data_PCOD9531487
_publ_section_title
;
Structure prediction by ZEFSAII (Michael W. Deem and Ramdas Pophale) SiO2 
 PCOD9531487
Probable space group: I B C A 
;
_chemical_formula_sum "Si O2"
_cell_formula_units_Z 120
_cell_length_a 29.794632
_cell_length_b 23.788128
_cell_length_c 9.264476
_cell_angle_alpha 90.000000
_cell_angle_beta 90.000000
_cell_angle_gamma 90.000000
_cell_volume 6566.276296
_symmetry_space_group_name_H-M "I B C A "
_symmetry_group_IT_number 73
_symmetry_cell_setting 'orthorhombic'
loop_
_space_group_symop_operation_xyz
x,y,z
-x,1/2-y,z
x,-y,1/2-z
1/2-x,y,-z
-x,-y,-z
x,1/2+y,-z
-x,y,1/2+z
1/2+x,-y,z
1/2+x,1/2+y,1/2+z
1/2-x,-y,1/2+z
1/2+x,1/2-y,-z
-x,1/2+y,1/2-z
1/2-x,1/2-y,1/2-z
1/2+x,y,1/2-z
1/2-x,1/2+y,z
x,1/2-y,1/2+z
loop_
_atom_site_type_symbol
_atom_site_label
_atom_site_fract_x
_atom_site_fract_y
_atom_site_fract_z
Si Si1 0.443790 0.039027 0.114235
Si Si2 0.880417 0.365507 0.760952
Si Si3 0.500000 0.750000 0.136468
Si Si4 0.194966 0.697899 0.635033
Si Si5 0.291265 0.183629 0.293171
Si Si6 0.439830 0.276130 0.612598
Si Si7 0.545319 0.955322 0.377394
Si Si8 0.400273 0.653026 0.418912
O O1 0.407357 0.084692 0.161023
O O2 0.494143 0.061116 0.075174
O O3 0.450998 0.000000 0.250000
O O4 0.430001 0.993784 0.995467
O O5 0.826464 0.363978 0.754446
O O6 0.896103 0.311862 0.855568
O O7 0.894675 0.358784 0.591685
O O8 0.529713 0.713966 0.246464
O O9 0.468273 0.713338 0.031928
O O10 0.238612 0.668726 0.706775
O O11 0.198133 0.760692 0.699709
O O12 0.199820 0.699541 0.461083
O O13 0.147835 0.666103 0.654472
O O14 0.427786 0.210559 0.600942
O O15 0.573253 0.899136 0.351340
O O16 0.542321 0.000000 0.250000
#
# Coordination Sequence:
#
# PCOD9531487 Si02
#       8
#    16  16   8  16  16  16  16  16
#     4  10  21  40  59  77 109 152 199 238 277 336
#     4  11  21  35  60  84 113 148 194 237 282 351
#     4  10  24  34  44  72 122 150 182 218 280 346
#     4   9  18  34  56  83 117 148 176 230 282 347
#     4   9  18  34  55  85 116 145 184 223 286 344
#     4  11  22  36  50  82 112 150 185 227 288 346
#     4  10  23  40  57  83 107 150 200 240 287 328
#     4  11  21  36  59  83 117 146 190 239 285 349
#
# _framework density 18.275198
#
# number of rings (size 3 to 8) (size 9 to 14) (size 15 to 20)
#    0.000    1.867    4.000    0.000    3.733    1.067 
#    2.400    0.000    0.000    0.800    0.000    0.000 
#    0.000    0.000    0.000    0.000    0.000    0.000 
#
# Total GULP energy -334088.584016 kJ/mol
# GULP energy per Si atom -5568.143067 kJ/mol
# Density = 1.823360 g / cm^3
# Si number density = 18.275198 Si / 1000 Ang^3
#
#
#
# Elastic Constant Matrix: (Units=GPa)
#
#
# Indices 1 2 3 4 5 6 
#
# 1 128.8720 53.6440 14.5653 0.0000 0.0000 0.0000
# 2 53.6440 94.5223 15.3335 0.0000 0.0000 0.0000
# 3 14.5653 15.3335 50.0523 0.0000 0.0000 0.0000
# 4 0.0000 0.0000 0.0000 24.5949 0.0000 0.0000
# 5 0.0000 0.0000 0.0000 0.0000 21.9173 0.0000
# 6 0.0000 0.0000 0.0000 0.0000 0.0000 28.6363
#
#
#
# Elastic Compliance Matrix: (Units=1/GPa)
#
#
# Indices 1 2 3 4 5 6 
#
# 1 0.010235 -0.005604 -0.001262 0.000000 0.000000 0.000000
# 2 -0.005604 0.014201 -0.002720 0.000000 0.000000 0.000000
# 3 -0.001262 -0.002720 0.021179 0.000000 0.000000 0.000000
# 4 0.000000 0.000000 0.000000 0.040659 0.000000 0.000000
# 5 0.000000 0.000000 0.000000 0.000000 0.045626 0.000000
# 6 0.000000 0.000000 0.000000 0.000000 0.000000 0.034921
#
#
# Mechanical properties :
#
#
# Convention : Reuss Voigt Hill
#
# Bulk Modulus (GPa) = 37.81453 48.94802 43.38128
# Shear Modulus (GPa) = 25.66648 27.68996 26.67822
#
# Velocity S-wave (km/s) = 3.75166 3.89674 3.82488
# Velocity P-wave (km/s) = 6.28516 6.86207 6.57994
#
# Compressibility (1/GPa) = 0.02644486
#
# Stress axis : x y z
#
# Youngs Moduli (GPa) = 97.70487 70.41707 47.21559
#
# Poissons Ratio (x) = 0.39461 0.05957
# Poissons Ratio (y) = 0.54753 0.12841
# Poissons Ratio (z) = 0.12327 0.19152
#
# Static dielectric constant tensor:
#      x y z
#    x 1.692350 0.000000 0.000000 
#    y 0.000000 1.621460 0.000000 
#    z 0.000000 0.000000 1.633000 
# 
# From -- ./inp_files/8572.got.cif
#   From: 2010.05.17/outbox.cif.g08.bks.cpg/sg73_5_cif.got.tgz:8572.got - 2010.06.03 17:35:07.
