data_PCOD9531169
_publ_section_title
;
Structure prediction by ZEFSAII (Michael W. Deem and Ramdas Pophale) SiO2 
 PCOD9531169
Probable space group: I B C A 
;
_chemical_formula_sum "Si O2"
_cell_formula_units_Z 80
_cell_length_a 21.804345
_cell_length_b 14.875126
_cell_length_c 9.563185
_cell_angle_alpha 90.000000
_cell_angle_beta 90.000000
_cell_angle_gamma 90.000000
_cell_volume 3101.746176
_symmetry_space_group_name_H-M "I B C A "
_symmetry_group_IT_number 73
_symmetry_cell_setting 'orthorhombic'
loop_
_space_group_symop_operation_xyz
x,y,z
-x,1/2-y,z
x,-y,1/2-z
1/2-x,y,-z
-x,-y,-z
x,1/2+y,-z
-x,y,1/2+z
1/2+x,-y,z
1/2+x,1/2+y,1/2+z
1/2-x,-y,1/2+z
1/2+x,1/2-y,-z
-x,1/2+y,1/2-z
1/2-x,1/2-y,1/2-z
1/2+x,y,1/2-z
1/2-x,1/2+y,z
x,1/2-y,1/2+z
loop_
_atom_site_type_symbol
_atom_site_label
_atom_site_fract_x
_atom_site_fract_y
_atom_site_fract_z
Si Si1 0.670616 0.449653 0.554819
Si Si2 0.750000 0.601772 0.500000
Si Si3 0.687553 0.753743 0.338500
Si Si4 0.936100 0.831934 0.245815
Si Si5 0.641984 0.000000 0.750000
Si Si6 0.534445 0.408484 0.546240
O O1 0.710138 0.536034 0.600478
O O2 0.691261 0.350189 0.590506
O O3 0.547653 0.347363 0.408591
O O4 0.599723 0.446821 0.597640
O O5 0.699345 0.668497 0.437940
O O6 0.750000 0.750000 0.250000
O O7 0.619242 0.740396 0.272618
O O8 0.674613 0.539672 0.114765
O O9 0.001668 0.654472 0.156245
O O10 0.901484 0.922003 0.196974
O O11 0.500000 0.500000 0.500000
#
# Coordination Sequence:
#
# PCOD9531169 Si02
#       6
#    16   8  16  16   8  16
#     4  11  26  46  81 115 162 216 285 348 438 523
#     4  12  26  46  78 110 158 214 284 346 428 520
#     4  12  30  51  77 124 169 231 280 369 441 532
#     4  11  23  47  82 118 168 217 287 356 434 522
#     4  10  20  48  80 108 160 214 270 358 428 506
#     4  11  21  47  84 118 161 220 279 352 437 518
#
# _framework density 25.791923000000001
#
# number of rings (size 3 to 8) (size 9 to 14) (size 15 to 20)
#    0.000    0.800    6.000    0.600   11.200    1.600 
#   10.800    4.000    0.000    0.000    0.000    0.000 
#    0.000    0.000    0.000    0.000    0.000    0.000 
#
# Total GULP energy -223419.473946 kJ/mol
# GULP energy per Si atom -5585.486849 kJ/mol
# Density = 2.573322 g / cm^3
# Si number density = 25.791923 Si / 1000 Ang^3
#
#
#
# Elastic Constant Matrix: (Units=GPa)
#
#
# Indices 1 2 3 4 5 6 
#
# 1 129.8415 30.1325 11.5459 0.0000 0.0000 0.0000
# 2 30.1325 153.4384 15.9720 0.0000 0.0000 0.0000
# 3 11.5459 15.9720 87.7264 0.0000 0.0000 0.0000
# 4 0.0000 0.0000 0.0000 30.8339 0.0000 0.0000
# 5 0.0000 0.0000 0.0000 0.0000 42.5818 0.0000
# 6 0.0000 0.0000 0.0000 0.0000 0.0000 50.7186
#
#
#
# Elastic Compliance Matrix: (Units=1/GPa)
#
#
# Indices 1 2 3 4 5 6 
#
# 1 0.008123 -0.001513 -0.000794 0.000000 0.000000 0.000000
# 2 -0.001513 0.006925 -0.001062 0.000000 0.000000 0.000000
# 3 -0.000794 -0.001062 0.011697 0.000000 0.000000 0.000000
# 4 0.000000 0.000000 0.000000 0.032432 0.000000 0.000000
# 5 0.000000 0.000000 0.000000 0.000000 0.023484 0.000000
# 6 0.000000 0.000000 0.000000 0.000000 0.000000 0.019717
#
#
# Mechanical properties :
#
#
# Convention : Reuss Voigt Hill
#
# Bulk Modulus (GPa) = 49.97789 54.03415 52.00602
# Shear Modulus (GPa) = 43.18404 45.71724 44.45064
#
# Velocity S-wave (km/s) = 4.09629 4.21472 4.15593
# Velocity P-wave (km/s) = 6.46469 6.68436 6.57544
#
# Compressibility (1/GPa) = 0.02000885
#
# Stress axis : x y z
#
# Youngs Moduli (GPa) = 123.10236 144.40749 85.49319
#
# Poissons Ratio (x) = 0.21844 0.06786
# Poissons Ratio (y) = 0.18621 0.09077
# Poissons Ratio (z) = 0.09771 0.15332
#
# Static dielectric constant tensor:
#      x y z
#    x 2.188050 0.000000 0.000000 
#    y 0.000000 2.018810 0.000000 
#    z 0.000000 0.000000 2.108140 
# 
# From -- ./inp_files/14196.got.cif
#   From: 2010.05.17/outbox.cif.g08.bks.cpg/sg73_8_cif.got.tgz:14196.got - 2010.06.03 17:35:07.
