data_PCOD9531698
_publ_section_title
;
Structure prediction by ZEFSAII (Michael W. Deem and Ramdas Pophale) SiO2 
 PCOD9531698
Probable space group: I B C A 
;
_chemical_formula_sum "Si O2"
_cell_formula_units_Z 120
_cell_length_a 24.200678
_cell_length_b 13.185525
_cell_length_c 17.248052
_cell_angle_alpha 90.000000
_cell_angle_beta 90.000000
_cell_angle_gamma 90.000000
_cell_volume 5503.830018
_symmetry_space_group_name_H-M "I B C A "
_symmetry_group_IT_number 73
_symmetry_cell_setting 'orthorhombic'
loop_
_space_group_symop_operation_xyz
x,y,z
-x,1/2-y,z
x,-y,1/2-z
1/2-x,y,-z
-x,-y,-z
x,1/2+y,-z
-x,y,1/2+z
1/2+x,-y,z
1/2+x,1/2+y,1/2+z
1/2-x,-y,1/2+z
1/2+x,1/2-y,-z
-x,1/2+y,1/2-z
1/2-x,1/2-y,1/2-z
1/2+x,y,1/2-z
1/2-x,1/2+y,z
x,1/2-y,1/2+z
loop_
_atom_site_type_symbol
_atom_site_label
_atom_site_fract_x
_atom_site_fract_y
_atom_site_fract_z
Si Si1 0.669662 0.524016 0.605972
Si Si2 0.678104 0.728466 0.692827
Si Si3 0.500000 0.250000 0.759685
Si Si4 0.437502 0.275820 0.551225
Si Si5 0.876966 0.481380 0.933656
Si Si6 0.928185 0.683041 0.891815
Si Si7 0.895688 0.357316 0.325026
Si Si8 0.774849 0.560049 0.829778
O O1 0.690612 0.629572 0.642100
O O2 0.649859 0.533524 0.518134
O O3 0.620423 0.474487 0.658521
O O4 0.722629 0.451918 0.614054
O O5 0.627433 0.780354 0.647774
O O6 0.652976 0.690700 0.773708
O O7 0.719576 0.822143 0.693959
O O8 0.470140 0.324824 0.820684
O O9 0.547400 0.316119 0.715494
O O10 0.500000 0.250000 0.574724
O O11 0.413202 0.381246 0.581971
O O12 0.438885 0.266106 0.458437
O O13 0.398435 0.191769 0.589713
O O14 0.918729 0.575980 0.932458
O O15 0.828607 0.510263 0.872249
O O16 0.765452 0.500000 0.750000
#
# Coordination Sequence:
#
# PCOD9531698 Si02
#       8
#    16  16   8  16  16  16  16  16
#     4  12  24  44  72 106 136 179 235 295 357 426
#     4  10  23  44  67  97 138 180 224 291 350 419
#     4  10  22  44  66  96 138 188 230 288 346 424
#     4  12  23  42  66  98 134 184 230 281 343 418
#     4  11  25  45  68 100 139 179 233 291 345 428
#     4  10  21  43  65  89 137 180 222 276 352 400
#     4  11  23  42  68  99 139 178 238 287 348 423
#     4  11  25  46  71 100 138 188 232 288 366 423
#
# _framework density 21.803000000000001
#
# number of rings (size 3 to 8) (size 9 to 14) (size 15 to 20)
#    0.000    1.067    4.000    2.400    0.000    3.733 
#    7.200    1.333    0.000    0.000    0.000    0.000 
#    0.000    0.000    0.000    0.000    0.000    0.000 
#
# Total GULP energy -334781.689752 kJ/mol
# GULP energy per Si atom -5579.694829 kJ/mol
# Density = 2.175338 g / cm^3
# Si number density = 21.803000 Si / 1000 Ang^3
#
#
#
# Elastic Constant Matrix: (Units=GPa)
#
#
# Indices 1 2 3 4 5 6 
#
# 1 64.1709 14.0037 7.6535 0.0000 0.0000 0.0000
# 2 14.0037 100.3902 10.3738 0.0000 0.0000 0.0000
# 3 7.6535 10.3738 70.7008 0.0000 0.0000 0.0000
# 4 0.0000 0.0000 0.0000 24.2668 0.0000 0.0000
# 5 0.0000 0.0000 0.0000 0.0000 14.1251 0.0000
# 6 0.0000 0.0000 0.0000 0.0000 0.0000 3.6202
#
#
#
# Elastic Compliance Matrix: (Units=1/GPa)
#
#
# Indices 1 2 3 4 5 6 
#
# 1 0.016217 -0.002113 -0.001446 0.000000 0.000000 0.000000
# 2 -0.002113 0.010390 -0.001296 0.000000 0.000000 0.000000
# 3 -0.001446 -0.001296 0.014491 0.000000 0.000000 0.000000
# 4 0.000000 0.000000 0.000000 0.041208 0.000000 0.000000
# 5 0.000000 0.000000 0.000000 0.000000 0.070796 0.000000
# 6 0.000000 0.000000 0.000000 0.000000 0.000000 0.276226
#
#
# Mechanical properties :
#
#
# Convention : Reuss Voigt Hill
#
# Bulk Modulus (GPa) = 31.85804 33.25822 32.55813
# Shear Modulus (GPa) = 11.12350 21.95118 16.53734
#
# Velocity S-wave (km/s) = 2.26117 3.17645 2.75706
# Velocity P-wave (km/s) = 4.63257 5.36099 5.01003
#
# Compressibility (1/GPa) = 0.03138925
#
# Stress axis : x y z
#
# Youngs Moduli (GPa) = 61.66429 96.24881 69.00975
#
# Poissons Ratio (x) = 0.20335 0.09975
# Poissons Ratio (y) = 0.13028 0.08942
# Poissons Ratio (z) = 0.08914 0.12471
#
# Static dielectric constant tensor:
#      x y z
#    x 1.860400 0.000000 0.000000 
#    y 0.000000 1.868180 0.000000 
#    z 0.000000 0.000000 1.791660 
# 
# From -- ./inp_files/23948.got.cif
#   From: 2010.05.17/outbox.cif.g08.bks.cpg/sg73_12_cif.got.tgz:23948.got - 2010.06.03 17:35:07.
