data_PCOD9531730
_publ_section_title
;
Structure prediction by ZEFSAII (Michael W. Deem and Ramdas Pophale) SiO2 
 PCOD9531730
Probable space group: I B C A 
;
_chemical_formula_sum "Si O2"
_cell_formula_units_Z 104
_cell_length_a 13.451352
_cell_length_b 20.557276
_cell_length_c 17.732168
_cell_angle_alpha 90.000000
_cell_angle_beta 90.000000
_cell_angle_gamma 90.000000
_cell_volume 4903.355052
_symmetry_space_group_name_H-M "I B C A "
_symmetry_group_IT_number 73
_symmetry_cell_setting 'orthorhombic'
loop_
_space_group_symop_operation_xyz
x,y,z
-x,1/2-y,z
x,-y,1/2-z
1/2-x,y,-z
-x,-y,-z
x,1/2+y,-z
-x,y,1/2+z
1/2+x,-y,z
1/2+x,1/2+y,1/2+z
1/2-x,-y,1/2+z
1/2+x,1/2-y,-z
-x,1/2+y,1/2-z
1/2-x,1/2-y,1/2-z
1/2+x,y,1/2-z
1/2-x,1/2+y,z
x,1/2-y,1/2+z
loop_
_atom_site_type_symbol
_atom_site_label
_atom_site_fract_x
_atom_site_fract_y
_atom_site_fract_z
Si Si1 0.500000 0.250000 0.916144
Si Si2 0.389131 0.673917 0.974999
Si Si3 0.228548 0.824456 0.228706
Si Si4 0.088577 0.489216 0.662011
Si Si5 0.555274 0.869824 0.692277
Si Si6 0.455430 0.864809 0.855783
Si Si7 0.297527 0.883969 0.610811
O O1 0.524060 0.189397 0.862343
O O2 0.593675 0.263252 0.971982
O O3 0.484389 0.666196 0.923374
O O4 0.296854 0.655862 0.920837
O O5 0.375360 0.622762 0.042550
O O6 0.250000 0.750000 0.250000
O O7 0.325867 0.864259 0.202914
O O8 0.184331 0.854678 0.306201
O O9 0.147800 0.830049 0.162997
O O10 0.109446 0.500000 0.750000
O O11 0.190187 0.460257 0.626926
O O12 0.997666 0.436257 0.662811
O O13 0.059274 0.558615 0.628911
O O14 0.516463 0.859173 0.777658
#
# Coordination Sequence:
#
# PCOD9531730 Si02
#       7
#     8  16  16  16  16  16  16
#     4  12  24  46  68  90 148 186 230 294 370 422
#     4  11  25  41  69 101 136 183 231 283 366 430
#     4  12  24  40  70 101 137 180 238 288 354 420
#     4  10  21  43  72 101 137 179 240 287 355 422
#     4  11  22  43  68  99 130 185 227 301 341 420
#     4  11  24  43  69 107 135 180 240 294 349 437
#     4  11  22  45  66 100 137 185 224 291 358 422
#
# _framework density 21.209968
#
# number of rings (size 3 to 8) (size 9 to 14) (size 15 to 20)
#    0.000    0.923    6.154    1.846    2.154    2.462 
#    2.769    0.000    0.000    0.000    0.000    0.000 
#    0.000    0.000    0.000    0.000    0.000    0.000 
#
# Total GULP energy -289659.848460 kJ/mol
# GULP energy per Si atom -5570.381701 kJ/mol
# Density = 2.116169 g / cm^3
# Si number density = 21.209968 Si / 1000 Ang^3
#
#
#
# Elastic Constant Matrix: (Units=GPa)
#
#
# Indices 1 2 3 4 5 6 
#
# 1 108.9151 26.5891 40.0835 0.0000 0.0000 0.0000
# 2 26.5891 109.5509 43.3448 0.0000 0.0000 0.0000
# 3 40.0835 43.3448 92.3429 0.0000 0.0000 0.0000
# 4 0.0000 0.0000 0.0000 33.1913 0.0000 0.0000
# 5 0.0000 0.0000 0.0000 0.0000 34.8424 0.0000
# 6 0.0000 0.0000 0.0000 0.0000 0.0000 22.1495
#
#
#
# Elastic Compliance Matrix: (Units=1/GPa)
#
#
# Indices 1 2 3 4 5 6 
#
# 1 0.011009 -0.000959 -0.004328 0.000000 0.000000 0.000000
# 2 -0.000959 0.011294 -0.004885 0.000000 0.000000 0.000000
# 3 -0.004328 -0.004885 0.015001 0.000000 0.000000 0.000000
# 4 0.000000 0.000000 0.000000 0.030128 0.000000 0.000000
# 5 0.000000 0.000000 0.000000 0.000000 0.028701 0.000000
# 6 0.000000 0.000000 0.000000 0.000000 0.000000 0.045148
#
#
# Mechanical properties :
#
#
# Convention : Reuss Voigt Hill
#
# Bulk Modulus (GPa) = 58.96757 58.98264 58.97511
# Shear Modulus (GPa) = 29.89049 31.42273 30.65661
#
# Velocity S-wave (km/s) = 3.75809 3.85321 3.80595
# Velocity P-wave (km/s) = 6.83324 6.90403 6.86873
#
# Compressibility (1/GPa) = 0.01695848
#
# Stress axis : x y z
#
# Youngs Moduli (GPa) = 90.83836 88.54484 66.66323
#
# Poissons Ratio (x) = 0.08495 0.28853
# Poissons Ratio (y) = 0.08715 0.32563
# Poissons Ratio (z) = 0.39316 0.43251
#
# Static dielectric constant tensor:
#      x y z
#    x 1.892520 0.000000 0.000000 
#    y 0.000000 1.818690 0.000000 
#    z 0.000000 0.000000 1.748980 
# 
# From -- ./inp_files/22056.got.cif
#   From: 2010.05.17/outbox.cif.g08.bks.cpg/sg73_12_cif.got.tgz:22056.got - 2010.06.03 17:35:07.
