data_PCOD9531370
_publ_section_title
;
Structure prediction by ZEFSAII (Michael W. Deem and Ramdas Pophale) SiO2 
 PCOD9531370
Probable space group: I B C A 
;
_chemical_formula_sum "Si O2"
_cell_formula_units_Z 64
_cell_length_a 11.488519
_cell_length_b 21.921491
_cell_length_c 12.374184
_cell_angle_alpha 90.000000
_cell_angle_beta 90.000000
_cell_angle_gamma 90.000000
_cell_volume 3116.382134
_symmetry_space_group_name_H-M "I B C A "
_symmetry_group_IT_number 73
_symmetry_cell_setting 'orthorhombic'
loop_
_space_group_symop_operation_xyz
x,y,z
-x,1/2-y,z
x,-y,1/2-z
1/2-x,y,-z
-x,-y,-z
x,1/2+y,-z
-x,y,1/2+z
1/2+x,-y,z
1/2+x,1/2+y,1/2+z
1/2-x,-y,1/2+z
1/2+x,1/2-y,-z
-x,1/2+y,1/2-z
1/2-x,1/2-y,1/2-z
1/2+x,y,1/2-z
1/2-x,1/2+y,z
x,1/2-y,1/2+z
loop_
_atom_site_type_symbol
_atom_site_label
_atom_site_fract_x
_atom_site_fract_y
_atom_site_fract_z
Si Si1 0.093352 0.654960 0.524089
Si Si2 0.857379 0.629557 0.780383
Si Si3 0.354130 0.789171 0.422219
Si Si4 0.892321 0.429316 0.280202
O O1 0.146299 0.645457 0.406647
O O2 0.141294 0.715956 0.581887
O O3 0.101763 0.594096 0.595444
O O4 0.960596 0.677227 0.517894
O O5 0.855258 0.686551 0.699359
O O6 0.738540 0.593468 0.748088
O O7 0.985575 0.598639 0.765472
O O8 0.250000 0.806034 0.500000
O O9 0.896600 0.500000 0.250000
#
# Coordination Sequence:
#
# PCOD9531370 Si02
#       4
#    16  16  16  16
#     4  10  23  39  62  95 126 163 207 254 314 377
#     4  11  23  42  66  92 126 164 206 260 314 369
#     4  10  21  38  63  96 128 160 203 256 317 378
#     4  11  24  42  63  89 123 166 213 257 306 366
#
# _framework density 20.536636000000001
#
# number of rings (size 3 to 8) (size 9 to 14) (size 15 to 20)
#    0.000    1.500    0.000    4.500    0.000   13.000 
#    0.000    7.500    0.000    0.000    0.000    0.000 
#    0.000    0.000    0.000    0.000    0.000    0.000 
#
# Total GULP energy -178220.977397 kJ/mol
# GULP energy per Si atom -5569.405544 kJ/mol
# Density = 2.048989 g / cm^3
# Si number density = 20.536636 Si / 1000 Ang^3
#
#
#
# Elastic Constant Matrix: (Units=GPa)
#
#
# Indices 1 2 3 4 5 6 
#
# 1 165.4752 66.2102 45.0017 0.0000 0.0001 0.0001
# 2 66.2102 155.3957 101.6060 -0.0005 -0.0004 -0.0003
# 3 45.0017 101.6060 103.4367 -0.0003 -0.0002 -0.0002
# 4 0.0000 -0.0005 -0.0003 12.6078 -0.0003 -0.0002
# 5 0.0001 -0.0004 -0.0002 -0.0003 -23.5443 -0.0005
# 6 0.0001 -0.0003 -0.0002 -0.0002 -0.0005 -42.6021
#
#
#
# Elastic Compliance Matrix: (Units=1/GPa)
#
#
# Indices 1 2 3 4 5 6 
#
# 1 0.007289 -0.002886 -0.000337 0.000000 0.000000 0.000000
# 2 -0.002886 0.019132 -0.017538 0.000000 0.000000 0.000000
# 3 -0.000337 -0.017538 0.027042 0.000000 0.000000 0.000000
# 4 0.000000 0.000000 0.000000 0.079316 -0.000001 0.000000
# 5 0.000000 0.000000 0.000000 -0.000001 -0.042473 0.000001
# 6 0.000000 0.000000 0.000000 0.000000 0.000001 -0.023473
#
#
# Mechanical properties :
#
#
# Convention : Reuss Voigt Hill
#
# Bulk Modulus (GPa) = 83.73487 94.43816 89.08651
# Shear Modulus (GPa) = 44.51027 3.39160 23.95094
#
# Velocity S-wave (km/s) = 4.66054 1.28650 3.41875
# Velocity P-wave (km/s) = 8.35600 6.94923 7.68487
#
# Compressibility (1/GPa) = 0.01194246
#
# Stress axis : x y z
#
# Youngs Moduli (GPa) = 137.18567 52.26910 36.97999
#
# Poissons Ratio (x) = 0.15083 0.01246
# Poissons Ratio (y) = 0.39586 0.64855
# Poissons Ratio (z) = 0.04621 0.91668
#
# Static dielectric constant tensor:
#      x y z
#    x 1.866040 0.000000 0.000000 
#    y 0.000000 1.704490 0.000000 
#    z 0.000000 0.000000 1.713100 
# 
# From -- ./inp_files/9436.got.cif
#   From: 2010.05.17/outbox.cif.g08.bks.cpg/sg73_5_cif.got.tgz:9436.got - 2010.06.03 17:35:07.
