data_PCOD9531285
_publ_section_title
;
Structure prediction by ZEFSAII (Michael W. Deem and Ramdas Pophale) SiO2 
 PCOD9531285
Probable space group: I B C A 
;
_chemical_formula_sum "Si O2"
_cell_formula_units_Z 104
_cell_length_a 19.740159
_cell_length_b 18.659349
_cell_length_c 14.228217
_cell_angle_alpha 90.000000
_cell_angle_beta 90.000000
_cell_angle_gamma 90.000000
_cell_volume 5240.800336
_symmetry_space_group_name_H-M "I B C A "
_symmetry_group_IT_number 73
_symmetry_cell_setting 'orthorhombic'
loop_
_space_group_symop_operation_xyz
x,y,z
-x,1/2-y,z
x,-y,1/2-z
1/2-x,y,-z
-x,-y,-z
x,1/2+y,-z
-x,y,1/2+z
1/2+x,-y,z
1/2+x,1/2+y,1/2+z
1/2-x,-y,1/2+z
1/2+x,1/2-y,-z
-x,1/2+y,1/2-z
1/2-x,1/2-y,1/2-z
1/2+x,y,1/2-z
1/2-x,1/2+y,z
x,1/2-y,1/2+z
loop_
_atom_site_type_symbol
_atom_site_label
_atom_site_fract_x
_atom_site_fract_y
_atom_site_fract_z
Si Si1 0.752642 0.175273 0.696257
Si Si2 0.898664 0.830324 0.857226
Si Si3 0.065209 0.284484 0.296435
Si Si4 0.975817 0.425088 0.700003
Si Si5 0.330455 0.733424 0.958907
Si Si6 0.323730 0.065494 0.322372
Si Si7 0.750000 0.625467 0.000000
O O1 0.750000 0.250000 0.750000
O O2 0.829065 0.144185 0.694454
O O3 0.733416 0.191849 0.588588
O O4 0.698689 0.129653 0.753856
O O5 0.922113 0.759332 0.800135
O O6 0.960104 0.887734 0.852099
O O7 0.873564 0.804419 0.959257
O O8 0.047051 0.366314 0.276930
O O9 0.123959 0.268087 0.366789
O O10 0.000000 0.250000 0.342987
O O11 0.993936 0.500000 0.750000
O O12 0.903144 0.435152 0.647183
O O13 0.309424 0.815609 0.980590
O O14 0.275526 0.076920 0.413048
O O15 0.313883 0.000000 0.250000
#
# Coordination Sequence:
#
# PCOD9531285 Si02
#       7
#    16  16  16  16  16  16   8
#     4  12  19  40  66  97 131 170 218 287 343 395
#     4  11  22  38  64  97 127 170 227 286 336 418
#     4  10  21  37  60  90 124 165 219 277 336 400
#     4  10  22  42  63  86 137 189 221 273 348 413
#     4  12  21  36  67  99 126 164 226 287 347 396
#     4  11  24  43  68  94 141 184 226 280 344 420
#     4  12  22  40  68 104 128 182 228 286 350 410
#
# _framework density 19.844297000000001
#
# number of rings (size 3 to 8) (size 9 to 14) (size 15 to 20)
#    0.000    0.923    6.154    0.923    0.000    3.692 
#    2.769    0.769    0.000    0.000    0.000    0.000 
#    0.000    0.000    0.000    0.000    0.000    0.000 
#
# Total GULP energy -289498.283963 kJ/mol
# GULP energy per Si atom -5567.274692 kJ/mol
# Density = 1.979913 g / cm^3
# Si number density = 19.844297 Si / 1000 Ang^3
#
#
#
# Elastic Constant Matrix: (Units=GPa)
#
#
# Indices 1 2 3 4 5 6 
#
# 1 126.7308 51.7741 57.4645 0.0000 0.0000 0.0000
# 2 51.7741 111.9709 45.9266 0.0000 0.0000 0.0000
# 3 57.4645 45.9266 127.0761 0.0000 0.0000 0.0000
# 4 0.0000 0.0000 0.0000 23.1412 0.0000 0.0000
# 5 0.0000 0.0000 0.0000 0.0000 32.2019 0.0000
# 6 0.0000 0.0000 0.0000 0.0000 0.0000 27.3073
#
#
#
# Elastic Compliance Matrix: (Units=1/GPa)
#
#
# Indices 1 2 3 4 5 6 
#
# 1 0.011030 -0.003586 -0.003692 0.000000 0.000000 0.000000
# 2 -0.003586 0.011651 -0.002589 0.000000 0.000000 0.000000
# 3 -0.003692 -0.002589 0.010475 0.000000 0.000000 0.000000
# 4 0.000000 0.000000 0.000000 0.043213 0.000000 0.000000
# 5 0.000000 0.000000 0.000000 0.000000 0.031054 0.000000
# 6 0.000000 0.000000 0.000000 0.000000 0.000000 0.036620
#
#
# Mechanical properties :
#
#
# Convention : Reuss Voigt Hill
#
# Bulk Modulus (GPa) = 74.50698 75.12314 74.81506
# Shear Modulus (GPa) = 29.71775 30.57093 30.14434
#
# Velocity S-wave (km/s) = 3.87401 3.92923 3.90172
# Velocity P-wave (km/s) = 7.59196 7.65007 7.62107
#
# Compressibility (1/GPa) = 0.01342156
#
# Stress axis : x y z
#
# Youngs Moduli (GPa) = 90.66502 85.83003 95.46983
#
# Poissons Ratio (x) = 0.30776 0.35245
# Poissons Ratio (y) = 0.32510 0.24720
# Poissons Ratio (z) = 0.33471 0.22224
#
# Static dielectric constant tensor:
#      x y z
#    x 2.054930 0.000000 0.000000 
#    y 0.000000 1.677430 0.000000 
#    z 0.000000 0.000000 1.735550 
# 
# From -- ./inp_files/18819.got.cif
#   From: 2010.05.17/outbox.cif.g08.bks.cpg/sg73_10_cif.got.tgz:18819.got - 2010.06.03 17:35:07.
