data_PCOD9531765
_publ_section_title
;
Structure prediction by ZEFSAII (Michael W. Deem and Ramdas Pophale) SiO2 
 PCOD9531765
Probable space group: I B C A 
;
_chemical_formula_sum "Si O2"
_cell_formula_units_Z 120
_cell_length_a 26.585454
_cell_length_b 15.290046
_cell_length_c 11.846091
_cell_angle_alpha 90.000000
_cell_angle_beta 90.000000
_cell_angle_gamma 90.000000
_cell_volume 4815.350872
_symmetry_space_group_name_H-M "I B C A "
_symmetry_group_IT_number 73
_symmetry_cell_setting 'orthorhombic'
loop_
_space_group_symop_operation_xyz
x,y,z
-x,1/2-y,z
x,-y,1/2-z
1/2-x,y,-z
-x,-y,-z
x,1/2+y,-z
-x,y,1/2+z
1/2+x,-y,z
1/2+x,1/2+y,1/2+z
1/2-x,-y,1/2+z
1/2+x,1/2-y,-z
-x,1/2+y,1/2-z
1/2-x,1/2-y,1/2-z
1/2+x,y,1/2-z
1/2-x,1/2+y,z
x,1/2-y,1/2+z
loop_
_atom_site_type_symbol
_atom_site_label
_atom_site_fract_x
_atom_site_fract_y
_atom_site_fract_z
Si Si1 0.445795 0.204483 0.071327
Si Si2 0.671531 0.488349 0.587549
Si Si3 0.783146 0.022988 0.133502
Si Si4 0.581899 0.500000 0.750000
Si Si5 0.481014 0.150873 0.839307
Si Si6 0.162776 0.219989 0.402837
Si Si7 0.080473 0.096076 0.711147
Si Si8 0.820879 0.294674 0.651809
O O1 0.500000 0.250000 0.073295
O O2 0.397038 0.263764 0.092668
O O3 0.440906 0.137540 0.173424
O O4 0.444936 0.163086 0.946751
O O5 0.678037 0.511850 0.457981
O O6 0.727183 0.516378 0.629017
O O7 0.621773 0.516730 0.649400
O O8 0.670794 0.383535 0.596183
O O9 0.780620 0.127973 0.131531
O O10 0.805574 0.000000 0.250000
O O11 0.547530 0.412771 0.750972
O O12 0.500000 0.250000 0.810767
O O13 0.532583 0.101030 0.872048
O O14 0.180549 0.254946 0.529068
O O15 0.183406 0.254205 0.279503
O O16 0.125487 0.154318 0.661346
O O17 0.092790 0.000000 0.750000
#
# Coordination Sequence:
#
# PCOD9531765 Si02
#       8
#    16  16  16   8  16  16  16  16
#     4  10  23  39  64  92 135 191 238 297 370 437
#     4  10  24  42  70 104 143 182 247 310 367 443
#     4  10  21  46  69  98 144 192 236 305 380 437
#     4  12  26  44  74 110 144 190 256 306 372 458
#     4  11  25  44  66  99 144 190 244 305 371 442
#     4  10  23  40  65  99 138 186 242 305 370 441
#     4  11  23  40  62 100 134 185 246 294 367 448
#     4  10  22  41  68  96 137 189 237 302 370 444
#
# _framework density 24.920302
#
# number of rings (size 3 to 8) (size 9 to 14) (size 15 to 20)
#    0.000    1.600    1.333    2.400    7.467    5.333 
#    0.000    0.000    0.000    0.000    0.000    0.000 
#    0.000    0.000    0.000    0.000    0.000    0.533 
#
# Total GULP energy -334639.536341 kJ/mol
# GULP energy per Si atom -5577.325606 kJ/mol
# Density = 2.486358 g / cm^3
# Si number density = 24.920302 Si / 1000 Ang^3
#
#
#
# Elastic Constant Matrix: (Units=GPa)
#
#
# Indices 1 2 3 4 5 6 
#
# 1 128.8752 33.6980 22.3690 0.0000 0.0000 0.0000
# 2 33.6980 48.6582 30.6279 0.0000 0.0000 0.0000
# 3 22.3690 30.6279 149.7983 0.0000 0.0000 0.0000
# 4 0.0000 0.0000 0.0000 27.5469 0.0000 0.0000
# 5 0.0000 0.0000 0.0000 0.0000 37.3846 0.0000
# 6 0.0000 0.0000 0.0000 0.0000 0.0000 26.8999
#
#
#
# Elastic Compliance Matrix: (Units=1/GPa)
#
#
# Indices 1 2 3 4 5 6 
#
# 1 0.009476 -0.006510 -0.000084 0.000000 0.000000 0.000000
# 2 -0.006510 0.028059 -0.004765 0.000000 0.000000 0.000000
# 3 -0.000084 -0.004765 0.007662 0.000000 0.000000 0.000000
# 4 0.000000 0.000000 0.000000 0.036302 0.000000 0.000000
# 5 0.000000 0.000000 0.000000 0.000000 0.026749 0.000000
# 6 0.000000 0.000000 0.000000 0.000000 0.000000 0.037175
#
#
# Mechanical properties :
#
#
# Convention : Reuss Voigt Hill
#
# Bulk Modulus (GPa) = 44.48352 55.63573 50.05963
# Shear Modulus (GPa) = 28.46827 34.40876 31.43851
#
# Velocity S-wave (km/s) = 3.38357 3.71988 3.55570
# Velocity P-wave (km/s) = 5.75793 6.38936 6.08185
#
# Compressibility (1/GPa) = 0.02248024
#
# Stress axis : x y z
#
# Youngs Moduli (GPa) = 105.52752 35.63903 130.50683
#
# Poissons Ratio (x) = 0.23200 0.01097
# Poissons Ratio (y) = 0.68696 0.62185
# Poissons Ratio (z) = 0.00887 0.16982
#
# Static dielectric constant tensor:
#      x y z
#    x 2.036650 0.000000 0.000000 
#    y 0.000000 2.085320 0.000000 
#    z 0.000000 0.000000 2.107390 
# 
# From -- ./inp_files/14352.got.cif
#   From: 2010.05.17/outbox.cif.g08.bks.cpg/sg73_8_cif.got.tgz:14352.got - 2010.06.03 17:35:07.
