data_PCOD9531789
_publ_section_title
;
Structure prediction by ZEFSAII (Michael W. Deem and Ramdas Pophale) SiO2 
 PCOD9531789
Probable space group: I B C A 
;
_chemical_formula_sum "Si O2"
_cell_formula_units_Z 104
_cell_length_a 20.626288
_cell_length_b 21.994640
_cell_length_c 9.244902
_cell_angle_alpha 90.000000
_cell_angle_beta 90.000000
_cell_angle_gamma 90.000000
_cell_volume 4194.114158
_symmetry_space_group_name_H-M "I B C A "
_symmetry_group_IT_number 73
_symmetry_cell_setting 'orthorhombic'
loop_
_space_group_symop_operation_xyz
x,y,z
-x,1/2-y,z
x,-y,1/2-z
1/2-x,y,-z
-x,-y,-z
x,1/2+y,-z
-x,y,1/2+z
1/2+x,-y,z
1/2+x,1/2+y,1/2+z
1/2-x,-y,1/2+z
1/2+x,1/2-y,-z
-x,1/2+y,1/2-z
1/2-x,1/2-y,1/2-z
1/2+x,y,1/2-z
1/2-x,1/2+y,z
x,1/2-y,1/2+z
loop_
_atom_site_type_symbol
_atom_site_label
_atom_site_fract_x
_atom_site_fract_y
_atom_site_fract_z
Si Si1 0.207212 0.366520 0.715869
Si Si2 0.250000 0.126305 0.500000
Si Si3 0.585013 0.079656 0.451546
Si Si4 0.807476 0.255645 0.601068
Si Si5 0.942132 0.203632 0.010816
Si Si6 0.304269 0.465205 0.602473
Si Si7 0.502196 0.873352 0.777693
O O1 0.145940 0.383430 0.615640
O O2 0.198079 0.293009 0.729103
O O3 0.271014 0.399592 0.645614
O O4 0.203166 0.396726 0.874879
O O5 0.206577 0.171845 0.601602
O O6 0.627346 0.026597 0.521577
O O7 0.549576 0.107296 0.592458
O O8 0.532970 0.076077 0.322841
O O9 0.750000 0.230727 0.500000
O O10 0.878268 0.256603 0.532995
O O11 0.000000 0.250000 0.988399
O O12 0.959322 0.167081 0.158770
O O13 0.946044 0.162330 0.867115
O O14 0.309526 0.500000 0.750000
O O15 0.250000 0.493304 0.500000
#
# Coordination Sequence:
#
# PCOD9531789 Si02
#       7
#    16   8  16  16  16  16  16
#     4  11  22  41  63  96 136 182 226 289 356 423
#     4  10  24  34  58  96 136 180 224 276 336 434
#     4  10  22  42  68  93 136 175 235 288 359 420
#     4  10  22  35  56  89 136 182 231 276 342 416
#     4  11  22  37  57  89 137 191 252 288 337 411
#     4  10  24  46  75 103 133 171 227 303 381 445
#     4  10  22  39  62  93 132 195 240 292 338 418
#
# _framework density 24.796655000000001
#
# number of rings (size 3 to 8) (size 9 to 14) (size 15 to 20)
#    0.462    1.231    0.000    5.077    3.231    2.462 
#    0.000    0.769    0.000    0.923    0.000    0.000 
#    0.000    0.000    0.000    0.000    0.000    0.000 
#
# Total GULP energy -289472.068108 kJ/mol
# GULP energy per Si atom -5566.770541 kJ/mol
# Density = 2.474022 g / cm^3
# Si number density = 24.796655 Si / 1000 Ang^3
#
#
#
# Elastic Constant Matrix: (Units=GPa)
#
#
# Indices 1 2 3 4 5 6 
#
# 1 125.7866 23.1523 56.1069 0.0000 0.0000 0.0000
# 2 23.1523 33.9612 26.4367 0.0000 0.0000 0.0000
# 3 56.1069 26.4367 195.2331 0.0000 0.0000 0.0000
# 4 0.0000 0.0000 0.0000 32.3682 0.0000 0.0000
# 5 0.0000 0.0000 0.0000 0.0000 48.7103 0.0000
# 6 0.0000 0.0000 0.0000 0.0000 0.0000 4.3265
#
#
#
# Elastic Compliance Matrix: (Units=1/GPa)
#
#
# Indices 1 2 3 4 5 6 
#
# 1 0.009833 -0.005034 -0.002144 0.000000 0.000000 0.000000
# 2 -0.005034 0.035492 -0.003359 0.000000 0.000000 0.000000
# 3 -0.002144 -0.003359 0.006193 0.000000 0.000000 0.000000
# 4 0.000000 0.000000 0.000000 0.030895 0.000000 0.000000
# 5 0.000000 0.000000 0.000000 0.000000 0.020530 0.000000
# 6 0.000000 0.000000 0.000000 0.000000 0.000000 0.231136
#
#
# Mechanical properties :
#
#
# Convention : Reuss Voigt Hill
#
# Bulk Modulus (GPa) = 32.84822 62.93031 47.88926
# Shear Modulus (GPa) = 13.68730 33.69997 23.69364
#
# Velocity S-wave (km/s) = 2.35198 3.69053 3.09450
# Velocity P-wave (km/s) = 4.54440 6.60255 5.66768
#
# Compressibility (1/GPa) = 0.03044305
#
# Stress axis : x y z
#
# Youngs Moduli (GPa) = 101.69850 28.17502 161.46859
#
# Poissons Ratio (x) = 0.14184 0.34621
# Poissons Ratio (y) = 0.51199 0.54242
# Poissons Ratio (z) = 0.21806 0.09465
#
# Static dielectric constant tensor:
#      x y z
#    x 2.078200 0.000000 0.000000 
#    y 0.000000 2.179870 0.000000 
#    z 0.000000 0.000000 4.142010 
# 
# From -- ./inp_files/6555.got.cif
#   From: 2010.05.17/outbox.cif.g08.bks.cpg/sg73_4_cif.got.tgz:6555.got - 2010.06.03 17:35:07.
