data_PCOD9531755
_publ_section_title
;
Structure prediction by ZEFSAII (Michael W. Deem and Ramdas Pophale) SiO2 
 PCOD9531755
Probable space group: I B C A 
;
_chemical_formula_sum "Si O2"
_cell_formula_units_Z 96
_cell_length_a 8.612455
_cell_length_b 22.931577
_cell_length_c 18.854092
_cell_angle_alpha 90.000000
_cell_angle_beta 90.000000
_cell_angle_gamma 90.000000
_cell_volume 3723.629907
_symmetry_space_group_name_H-M "I B C A "
_symmetry_group_IT_number 73
_symmetry_cell_setting 'orthorhombic'
loop_
_space_group_symop_operation_xyz
x,y,z
-x,1/2-y,z
x,-y,1/2-z
1/2-x,y,-z
-x,-y,-z
x,1/2+y,-z
-x,y,1/2+z
1/2+x,-y,z
1/2+x,1/2+y,1/2+z
1/2-x,-y,1/2+z
1/2+x,1/2-y,-z
-x,1/2+y,1/2-z
1/2-x,1/2-y,1/2-z
1/2+x,y,1/2-z
1/2-x,1/2+y,z
x,1/2-y,1/2+z
loop_
_atom_site_type_symbol
_atom_site_label
_atom_site_fract_x
_atom_site_fract_y
_atom_site_fract_z
Si Si1 0.173921 0.962202 0.366982
Si Si2 0.451302 0.374317 0.255794
Si Si3 0.345007 0.420204 0.874886
Si Si4 0.677928 0.688538 0.933136
Si Si5 0.839219 0.278656 0.147993
Si Si6 0.388016 0.130112 0.101333
O O1 0.151351 0.927558 0.291003
O O2 0.317107 0.933325 0.409343
O O3 0.005917 0.949454 0.400549
O O4 0.221212 0.029096 0.360077
O O5 0.604574 0.384802 0.304301
O O6 0.378768 0.312054 0.278572
O O7 0.512089 0.373699 0.175467
O O8 0.275733 0.370668 0.923720
O O9 0.708782 0.729943 0.865745
O O10 0.504409 0.666955 0.945998
O O11 0.750000 0.721057 0.000000
O O12 0.770304 0.333308 0.106284
O O13 0.000000 0.250000 0.124346
#
# Coordination Sequence:
#
# PCOD9531755 Si02
#       6
#    16  16  16  16  16  16
#     4   9  21  42  69 102 140 179 234 289 365 435
#     4   9  23  39  71 100 143 177 228 294 367 427
#     4  10  21  45  66 102 139 187 230 297 356 424
#     4  12  27  46  70 101 142 191 248 293 352 428
#     4  11  23  46  66 101 140 186 238 298 355 418
#     4  11  24  44  67 107 140 187 240 289 369 431
#
# _framework density 25.781293000000002
#
# number of rings (size 3 to 8) (size 9 to 14) (size 15 to 20)
#    1.000    0.667    1.667    1.500    4.667    4.667 
#    3.000    5.833    0.000    0.000    0.000    0.000 
#    0.000    0.000    0.000    0.000    0.000    0.000 
#
# Total GULP energy -267683.247952 kJ/mol
# GULP energy per Si atom -5576.734332 kJ/mol
# Density = 2.572261 g / cm^3
# Si number density = 25.781293 Si / 1000 Ang^3
#
#
#
# Elastic Constant Matrix: (Units=GPa)
#
#
# Indices 1 2 3 4 5 6 
#
# 1 79.0301 24.1869 3.5177 0.0000 0.0000 0.0000
# 2 24.1869 138.7770 25.7081 0.0000 0.0000 0.0000
# 3 3.5177 25.7081 35.3826 0.0000 0.0000 0.0000
# 4 0.0000 0.0000 0.0000 11.6086 0.0000 0.0000
# 5 0.0000 0.0000 0.0000 0.0000 28.0484 0.0000
# 6 0.0000 0.0000 0.0000 0.0000 0.0000 67.6407
#
#
#
# Elastic Compliance Matrix: (Units=1/GPa)
#
#
# Indices 1 2 3 4 5 6 
#
# 1 0.013372 -0.002408 0.000420 0.000000 0.000000 0.000000
# 2 -0.002408 0.008760 -0.006126 0.000000 0.000000 0.000000
# 3 0.000420 -0.006126 0.032671 0.000000 0.000000 0.000000
# 4 0.000000 0.000000 0.000000 0.086143 0.000000 0.000000
# 5 0.000000 0.000000 0.000000 0.000000 0.035653 0.000000
# 6 0.000000 0.000000 0.000000 0.000000 0.000000 0.014784
#
#
# Mechanical properties :
#
#
# Convention : Reuss Voigt Hill
#
# Bulk Modulus (GPa) = 25.92254 40.00166 32.96210
# Shear Modulus (GPa) = 22.67896 34.77799 28.72848
#
# Velocity S-wave (km/s) = 2.96914 3.67681 3.34176
# Velocity P-wave (km/s) = 4.67236 5.79436 5.26335
#
# Compressibility (1/GPa) = 0.03857646
#
# Stress axis : x y z
#
# Youngs Moduli (GPa) = 74.78434 114.15125 30.60782
#
# Poissons Ratio (x) = 0.27492 -0.01287
# Poissons Ratio (y) = 0.18011 0.18749
# Poissons Ratio (z) = -0.03145 0.69924
#
# Static dielectric constant tensor:
#      x y z
#    x 2.070630 0.000000 0.000000 
#    y 0.000000 1.976780 0.000000 
#    z 0.000000 0.000000 2.118890 
# 
# From -- ./inp_files/28418.got.cif
#   From: 2010.05.17/outbox.cif.g08.bks.cpg/sg73_15_cif.got.tgz:28418.got - 2010.06.03 17:35:07.
