data_PCOD9531898
_publ_section_title
;
Structure prediction by ZEFSAII (Michael W. Deem and Ramdas Pophale) SiO2 
 PCOD9531898
Probable space group: I B C A 
;
_chemical_formula_sum "Si O2"
_cell_formula_units_Z 80
_cell_length_a 19.228036
_cell_length_b 13.774431
_cell_length_c 14.128052
_cell_angle_alpha 90.000000
_cell_angle_beta 90.000000
_cell_angle_gamma 90.000000
_cell_volume 3741.888817
_symmetry_space_group_name_H-M "I B C A "
_symmetry_group_IT_number 73
_symmetry_cell_setting 'orthorhombic'
loop_
_space_group_symop_operation_xyz
x,y,z
-x,1/2-y,z
x,-y,1/2-z
1/2-x,y,-z
-x,-y,-z
x,1/2+y,-z
-x,y,1/2+z
1/2+x,-y,z
1/2+x,1/2+y,1/2+z
1/2-x,-y,1/2+z
1/2+x,1/2-y,-z
-x,1/2+y,1/2-z
1/2-x,1/2-y,1/2-z
1/2+x,y,1/2-z
1/2-x,1/2+y,z
x,1/2-y,1/2+z
loop_
_atom_site_type_symbol
_atom_site_label
_atom_site_fract_x
_atom_site_fract_y
_atom_site_fract_z
Si Si1 0.250000 0.992815 0.000000
Si Si2 0.500000 0.750000 0.149793
Si Si3 0.983502 0.387570 0.480782
Si Si4 0.359831 0.143469 0.015417
Si Si5 0.384432 0.610884 0.208601
Si Si6 0.662092 0.841038 0.391399
O O1 0.212787 0.923968 0.074044
O O2 0.190879 0.058414 0.950915
O O3 0.453121 0.678298 0.210798
O O4 0.464620 0.826122 0.075637
O O5 0.917404 0.375228 0.414228
O O6 0.000000 0.500000 0.500000
O O7 0.060143 0.352356 0.448458
O O8 0.364703 0.121583 0.902289
O O9 0.327226 0.243842 0.049264
O O10 0.391234 0.500000 0.250000
O O11 0.331973 0.665202 0.278873
#
# Coordination Sequence:
#
# PCOD9531898 Si02
#       6
#     8   8  16  16  16  16
#     4  12  24  44  66  92 140 186 228 274 364 422
#     4  10  22  38  68 106 142 168 232 300 354 422
#     4  11  19  40  70 101 134 174 229 291 352 416
#     4  11  24  44  68 101 137 180 234 292 353 426
#     4  11  22  44  71 103 141 183 234 297 359 419
#     4  12  23  42  73  97 135 189 231 290 358 421
#
# _framework density 21.379577000000001
#
# number of rings (size 3 to 8) (size 9 to 14) (size 15 to 20)
#    0.000    0.800    8.000    1.800    2.800    0.000 
#    0.000    6.000    0.000    0.000    0.000    0.000 
#    0.000    0.000    0.000    0.000    0.000    0.000 
#
# Total GULP energy -222973.987563 kJ/mol
# GULP energy per Si atom -5574.349689 kJ/mol
# Density = 2.133092 g / cm^3
# Si number density = 21.379577 Si / 1000 Ang^3
#
#
#
# Elastic Constant Matrix: (Units=GPa)
#
#
# Indices 1 2 3 4 5 6 
#
# 1 91.4024 20.6719 30.4849 0.0000 0.0000 0.0000
# 2 20.6719 155.2356 49.2909 0.0000 0.0000 0.0000
# 3 30.4849 49.2909 86.1167 0.0000 0.0000 0.0000
# 4 0.0000 0.0000 0.0000 25.1612 0.0000 0.0000
# 5 0.0000 0.0000 0.0000 0.0000 3.7613 0.0000
# 6 0.0000 0.0000 0.0000 0.0000 0.0000 38.1936
#
#
#
# Elastic Compliance Matrix: (Units=1/GPa)
#
#
# Indices 1 2 3 4 5 6 
#
# 1 0.012418 -0.000315 -0.004216 0.000000 0.000000 0.000000
# 2 -0.000315 0.007881 -0.004399 0.000000 0.000000 0.000000
# 3 -0.004216 -0.004399 0.015622 0.000000 0.000000 0.000000
# 4 0.000000 0.000000 0.000000 0.039744 0.000000 0.000000
# 5 0.000000 0.000000 0.000000 0.000000 0.265866 0.000000
# 6 0.000000 0.000000 0.000000 0.000000 0.000000 0.026182
#
#
# Mechanical properties :
#
#
# Convention : Reuss Voigt Hill
#
# Bulk Modulus (GPa) = 55.36672 59.29445 57.33059
# Shear Modulus (GPa) = 12.76838 28.91037 20.83937
#
# Velocity S-wave (km/s) = 2.44647 3.68127 3.12546
# Velocity P-wave (km/s) = 5.82525 6.77225 6.31652
#
# Compressibility (1/GPa) = 0.01806139
#
# Stress axis : x y z
#
# Youngs Moduli (GPa) = 80.52914 126.89392 64.01090
#
# Poissons Ratio (x) = 0.03998 0.26984
# Poissons Ratio (y) = 0.02538 0.28159
# Poissons Ratio (z) = 0.33947 0.55822
#
# Static dielectric constant tensor:
#      x y z
#    x 1.843900 0.000000 0.000000 
#    y 0.000000 1.828690 0.000000 
#    z 0.000000 0.000000 1.876450 
# 
# From -- ./inp_files/18522.got.cif
#   From: 2010.05.17/outbox.cif.g08.bks.cpg/sg73_10_cif.got.tgz:18522.got - 2010.06.03 17:35:07.
