data_PCOD9531105
_publ_section_title
;
Structure prediction by ZEFSAII (Michael W. Deem and Ramdas Pophale) SiO2 
 PCOD9531105
Probable space group: I B C A 
;
_chemical_formula_sum "Si O2"
_cell_formula_units_Z 120
_cell_length_a 11.442000
_cell_length_b 25.250938
_cell_length_c 18.788900
_cell_angle_alpha 90.000000
_cell_angle_beta 90.000000
_cell_angle_gamma 90.000000
_cell_volume 5428.512147
_symmetry_space_group_name_H-M "I B C A "
_symmetry_group_IT_number 73
_symmetry_cell_setting 'orthorhombic'
loop_
_space_group_symop_operation_xyz
x,y,z
-x,1/2-y,z
x,-y,1/2-z
1/2-x,y,-z
-x,-y,-z
x,1/2+y,-z
-x,y,1/2+z
1/2+x,-y,z
1/2+x,1/2+y,1/2+z
1/2-x,-y,1/2+z
1/2+x,1/2-y,-z
-x,1/2+y,1/2-z
1/2-x,1/2-y,1/2-z
1/2+x,y,1/2-z
1/2-x,1/2+y,z
x,1/2-y,1/2+z
loop_
_atom_site_type_symbol
_atom_site_label
_atom_site_fract_x
_atom_site_fract_y
_atom_site_fract_z
Si Si1 0.330635 0.048092 0.306579
Si Si2 0.424707 0.167407 0.131513
Si Si3 0.308338 0.502612 0.427622
Si Si4 0.750000 0.664949 0.000000
Si Si5 0.259918 0.645892 0.237856
Si Si6 0.681833 0.281100 0.637850
Si Si7 0.023882 0.092836 0.481394
Si Si8 0.571557 0.910552 0.141395
O O1 0.292652 0.034527 0.387198
O O2 0.236890 0.093071 0.285223
O O3 0.459912 0.072080 0.313513
O O4 0.330528 0.000000 0.250000
O O5 0.365916 0.142781 0.200534
O O6 0.343269 0.219478 0.123080
O O7 0.554750 0.190491 0.138480
O O8 0.434741 0.122237 0.072006
O O9 0.250000 0.481237 0.500000
O O10 0.421404 0.538282 0.449546
O O11 0.341315 0.459756 0.368374
O O12 0.758705 0.698670 0.928007
O O13 0.637967 0.629089 0.988980
O O14 0.266650 0.697203 0.288009
O O15 0.360377 0.638000 0.178427
O O16 0.967592 0.094336 0.559253
#
# Coordination Sequence:
#
# PCOD9531105 Si02
#       8
#    16  16  16   8  16  16  16  16
#     4  12  26  43  63  97 136 181 232 275 335 416
#     4  10  24  42  69  99 130 174 222 287 341 402
#     4  12  25  44  66  94 132 186 225 282 337 410
#     4  10  20  42  70  90 122 172 222 272 338 408
#     4  12  25  43  65  95 139 176 220 279 342 409
#     4  10  22  44  70  97 130 174 225 278 346 411
#     4  11  22  42  68  95 134 173 230 278 341 410
#     4  12  27  39  67  99 134 185 221 285 341 404
#
# _framework density 22.105505000000001
#
# number of rings (size 3 to 8) (size 9 to 14) (size 15 to 20)
#    0.000    0.800    3.333    4.000    5.600    1.067 
#    0.000    0.000    0.000    1.600    0.000    0.000 
#    0.000    0.000    0.000    0.000    0.000    0.000 
#
# Total GULP energy -334970.542820 kJ/mol
# GULP energy per Si atom -5582.842380 kJ/mol
# Density = 2.205519 g / cm^3
# Si number density = 22.105505 Si / 1000 Ang^3
#
#
#
# Elastic Constant Matrix: (Units=GPa)
#
#
# Indices 1 2 3 4 5 6 
#
# 1 42.7218 20.3505 26.0878 0.0000 0.0000 0.0000
# 2 20.3505 62.5330 37.0621 0.0000 0.0000 0.0000
# 3 26.0878 37.0621 108.4672 0.0000 0.0000 0.0000
# 4 0.0000 0.0000 0.0000 14.7369 0.0000 0.0000
# 5 0.0000 0.0000 0.0000 0.0000 45.0160 0.0000
# 6 0.0000 0.0000 0.0000 0.0000 0.0000 11.2792
#
#
#
# Elastic Compliance Matrix: (Units=1/GPa)
#
#
# Indices 1 2 3 4 5 6 
#
# 1 0.029564 -0.006780 -0.004794 0.000000 0.000000 0.000000
# 2 -0.006780 0.021607 -0.005752 0.000000 0.000000 0.000000
# 3 -0.004794 -0.005752 0.012338 0.000000 0.000000 0.000000
# 4 0.000000 0.000000 0.000000 0.067857 0.000000 0.000000
# 5 0.000000 0.000000 0.000000 0.000000 0.022214 0.000000
# 6 0.000000 0.000000 0.000000 0.000000 0.000000 0.088659
#
#
# Mechanical properties :
#
#
# Convention : Reuss Voigt Hill
#
# Bulk Modulus (GPa) = 34.65370 42.30253 38.47811
# Shear Modulus (GPa) = 17.45134 22.88785 20.16959
#
# Velocity S-wave (km/s) = 2.81278 3.22124 3.02391
# Velocity P-wave (km/s) = 5.12440 5.74573 5.44393
#
# Compressibility (1/GPa) = 0.02885695
#
# Stress axis : x y z
#
# Youngs Moduli (GPa) = 33.82461 46.28065 81.05121
#
# Poissons Ratio (x) = 0.31378 0.38856
# Poissons Ratio (y) = 0.22933 0.46623
# Poissons Ratio (z) = 0.16215 0.26622
#
# Static dielectric constant tensor:
#      x y z
#    x 1.847300 0.000000 0.000000 
#    y 0.000000 1.938610 0.000000 
#    z 0.000000 0.000000 1.824260 
# 
# From -- ./inp_files/21523.got.cif
#   From: 2010.05.17/outbox.cif.g08.bks.cpg/sg73_11_cif.got.tgz:21523.got - 2010.06.03 17:35:07.
