data_PCOD9531204
_publ_section_title
;
Structure prediction by ZEFSAII (Michael W. Deem and Ramdas Pophale) SiO2 
 PCOD9531204
Probable space group: I B C A 
;
_chemical_formula_sum "Si O2"
_cell_formula_units_Z 88
_cell_length_a 24.630786
_cell_length_b 22.309038
_cell_length_c 8.182943
_cell_angle_alpha 90.000000
_cell_angle_beta 90.000000
_cell_angle_gamma 90.000000
_cell_volume 4496.438319
_symmetry_space_group_name_H-M "I B C A "
_symmetry_group_IT_number 73
_symmetry_cell_setting 'orthorhombic'
loop_
_space_group_symop_operation_xyz
x,y,z
-x,1/2-y,z
x,-y,1/2-z
1/2-x,y,-z
-x,-y,-z
x,1/2+y,-z
-x,y,1/2+z
1/2+x,-y,z
1/2+x,1/2+y,1/2+z
1/2-x,-y,1/2+z
1/2+x,1/2-y,-z
-x,1/2+y,1/2-z
1/2-x,1/2-y,1/2-z
1/2+x,y,1/2-z
1/2-x,1/2+y,z
x,1/2-y,1/2+z
loop_
_atom_site_type_symbol
_atom_site_label
_atom_site_fract_x
_atom_site_fract_y
_atom_site_fract_z
Si Si1 0.354769 0.322716 0.913153
Si Si2 0.828088 0.803800 0.780945
Si Si3 0.148551 0.434817 0.326382
Si Si4 0.028489 0.313821 0.188030
Si Si5 0.929856 0.361398 0.028363
Si Si6 0.250000 0.380226 0.500000
O O1 0.330552 0.267617 0.808236
O O2 0.349847 0.384586 0.815963
O O3 0.419687 0.313682 0.930193
O O4 0.329021 0.319962 0.091126
O O5 0.882413 0.828792 0.870155
O O6 0.778363 0.836599 0.868826
O O7 0.145083 0.500000 0.250000
O O8 0.098335 0.419554 0.447874
O O9 0.203437 0.421973 0.425351
O O10 0.051841 0.323960 0.368853
O O11 0.000000 0.250000 0.179685
O O12 0.983773 0.363395 0.138532
#
# Coordination Sequence:
#
# PCOD9531204 Si02
#       6
#    16  16  16  16  16   8
#     4  11  23  37  62  92 131 158 198 260 312 379
#     4  11  22  39  58  95 124 156 203 262 328 365
#     4  10  24  45  63  90 123 165 216 262 309 373
#     4  11  19  31  58  93 122 164 198 241 311 376
#     4  10  21  35  58  91 128 161 208 256 301 370
#     4  10  24  42  66  86 120 162 208 266 320 384
#
# _framework density 19.571047
#
# number of rings (size 3 to 8) (size 9 to 14) (size 15 to 20)
#    0.000    1.455    1.818    4.909    0.000    5.091 
#    0.000    6.364    0.000    0.000    0.000    0.000 
#    0.000    0.000    0.000    0.000    0.000    0.000 
#
# Total GULP energy -245888.487534 kJ/mol
# GULP energy per Si atom -5588.374717 kJ/mol
# Density = 1.952650 g / cm^3
# Si number density = 19.571047 Si / 1000 Ang^3
#
#
#
# Elastic Constant Matrix: (Units=GPa)
#
#
# Indices 1 2 3 4 5 6 
#
# 1 50.6850 -1.6169 -2.0732 0.0000 0.0000 0.0000
# 2 -1.6169 110.1513 9.9889 0.0000 0.0000 0.0000
# 3 -2.0732 9.9889 76.6513 0.0000 0.0000 0.0000
# 4 0.0000 0.0000 0.0000 27.6512 0.0000 0.0000
# 5 0.0000 0.0000 0.0000 0.0000 33.8442 0.0000
# 6 0.0000 0.0000 0.0000 0.0000 0.0000 15.8494
#
#
#
# Elastic Compliance Matrix: (Units=1/GPa)
#
#
# Indices 1 2 3 4 5 6 
#
# 1 0.019758 0.000244 0.000503 0.000000 0.000000 0.000000
# 2 0.000244 0.009190 -0.001191 0.000000 0.000000 0.000000
# 3 0.000503 -0.001191 0.013215 0.000000 0.000000 0.000000
# 4 0.000000 0.000000 0.000000 0.036165 0.000000 0.000000
# 5 0.000000 0.000000 0.000000 0.000000 0.029547 0.000000
# 6 0.000000 0.000000 0.000000 0.000000 0.000000 0.063094
#
#
# Mechanical properties :
#
#
# Convention : Reuss Voigt Hill
#
# Bulk Modulus (GPa) = 24.22776 27.78726 26.00751
# Shear Modulus (GPa) = 26.93749 30.88156 28.90952
#
# Velocity S-wave (km/s) = 3.71400 3.97661 3.84755
# Velocity P-wave (km/s) = 5.54960 5.94252 5.74942
#
# Compressibility (1/GPa) = 0.04127497
#
# Stress axis : x y z
#
# Youngs Moduli (GPa) = 50.61223 108.81378 75.67224
#
# Poissons Ratio (x) = -0.02660 -0.03803
# Poissons Ratio (y) = -0.01237 0.09013
# Poissons Ratio (z) = -0.02544 0.12960
#
# Static dielectric constant tensor:
#      x y z
#    x 1.731560 0.000000 0.000000 
#    y 0.000000 1.648250 0.000000 
#    z 0.000000 0.000000 1.699470 
# 
# From -- ./inp_files/6299.got.cif
#   From: 2010.05.17/outbox.cif.g08.bks.cpg/sg73_4_cif.got.tgz:6299.got - 2010.06.03 17:35:07.
