data_PCOD9531245
_publ_section_title
;
Structure prediction by ZEFSAII (Michael W. Deem and Ramdas Pophale) SiO2 
 PCOD9531245
Probable space group: I B C A 
;
_chemical_formula_sum "Si O2"
_cell_formula_units_Z 120
_cell_length_a 21.569319
_cell_length_b 18.413356
_cell_length_c 13.517858
_cell_angle_alpha 90.000000
_cell_angle_beta 90.000000
_cell_angle_gamma 90.000000
_cell_volume 5368.800464
_symmetry_space_group_name_H-M "I B C A "
_symmetry_group_IT_number 73
_symmetry_cell_setting 'orthorhombic'
loop_
_space_group_symop_operation_xyz
x,y,z
-x,1/2-y,z
x,-y,1/2-z
1/2-x,y,-z
-x,-y,-z
x,1/2+y,-z
-x,y,1/2+z
1/2+x,-y,z
1/2+x,1/2+y,1/2+z
1/2-x,-y,1/2+z
1/2+x,1/2-y,-z
-x,1/2+y,1/2-z
1/2-x,1/2-y,1/2-z
1/2+x,y,1/2-z
1/2-x,1/2+y,z
x,1/2-y,1/2+z
loop_
_atom_site_type_symbol
_atom_site_label
_atom_site_fract_x
_atom_site_fract_y
_atom_site_fract_z
Si Si1 0.354682 0.715707 0.405953
Si Si2 0.617593 0.138619 0.673390
Si Si3 0.036138 0.643557 0.879760
Si Si4 0.093169 0.197044 0.606747
Si Si5 0.977533 0.865725 0.645061
Si Si6 0.682511 0.500000 0.250000
Si Si7 0.601800 0.498941 0.869852
Si Si8 0.276544 0.083151 0.607696
O O1 0.342343 0.799404 0.381590
O O2 0.355452 0.697406 0.522366
O O3 0.426045 0.696392 0.374821
O O4 0.309616 0.657364 0.354746
O O5 0.612848 0.167387 0.786974
O O6 0.549811 0.142735 0.621765
O O7 0.642202 0.056475 0.684145
O O8 0.070167 0.720306 0.884844
O O9 0.021745 0.628870 0.764514
O O10 0.079445 0.577673 0.910489
O O11 0.968292 0.652602 0.927282
O O12 0.949085 0.940421 0.605665
O O13 0.726158 0.550024 0.181436
O O14 0.606826 0.500000 0.750000
O O15 0.668115 0.525214 0.905599
O O16 0.250000 0.096127 0.500000
#
# Coordination Sequence:
#
# PCOD9531245 Si02
#       8
#    16  16  16  16  16   8  16  16
#     4  11  23  43  68  94 128 178 213 270 332 390
#     4  11  24  41  66 101 133 168 214 272 337 392
#     4   9  18  33  59  98 132 163 204 254 319 402
#     4  10  21  36  61  95 140 168 205 264 326 399
#     4   9  19  36  62  99 135 161 206 258 327 413
#     4  12  28  46  68  96 130 174 224 280 320 380
#     4   9  18  37  68  93 126 177 208 263 334 385
#     4  11  25  48  66  90 129 174 234 275 314 377
#
# _framework density 22.351361000000001
#
# number of rings (size 3 to 8) (size 9 to 14) (size 15 to 20)
#    0.000    1.867    2.000    1.200    8.400    1.600 
#    0.000    3.333    0.000    0.000    0.000    0.000 
#    0.000    0.000    0.000    0.000    0.000    0.000 
#
# Total GULP energy -335250.792266 kJ/mol
# GULP energy per Si atom -5587.513204 kJ/mol
# Density = 2.230049 g / cm^3
# Si number density = 22.351361 Si / 1000 Ang^3
#
#
#
# Elastic Constant Matrix: (Units=GPa)
#
#
# Indices 1 2 3 4 5 6 
#
# 1 66.6160 64.8513 26.7455 0.0000 0.0000 0.0000
# 2 64.8513 120.7281 3.7013 0.0000 0.0000 0.0000
# 3 26.7455 3.7013 44.0910 0.0000 0.0000 0.0000
# 4 0.0000 0.0000 0.0000 19.4721 0.0000 0.0000
# 5 0.0000 0.0000 0.0000 0.0000 14.9417 0.0000
# 6 0.0000 0.0000 0.0000 0.0000 0.0000 14.6987
#
#
#
# Elastic Compliance Matrix: (Units=1/GPa)
#
#
# Indices 1 2 3 4 5 6 
#
# 1 0.056045 -0.029138 -0.031551 0.000000 0.000000 0.000000
# 2 -0.029138 0.023454 0.015706 0.000000 0.000000 0.000000
# 3 -0.031551 0.015706 0.040500 0.000000 0.000000 0.000000
# 4 0.000000 0.000000 0.000000 0.051356 0.000000 0.000000
# 5 0.000000 0.000000 0.000000 0.000000 0.066927 0.000000
# 6 0.000000 0.000000 0.000000 0.000000 0.000000 0.068033
#
#
# Mechanical properties :
#
#
# Convention : Reuss Voigt Hill
#
# Bulk Modulus (GPa) = 33.29574 46.89237 40.09405
# Shear Modulus (GPa) = 12.30644 18.89830 15.60237
#
# Velocity S-wave (km/s) = 2.34901 2.91092 2.64493
# Velocity P-wave (km/s) = 4.72080 5.68534 5.22538
#
# Compressibility (1/GPa) = 0.03003387
#
# Stress axis : x y z
#
# Youngs Moduli (GPa) = 17.84280 42.63714 24.69110
#
# Poissons Ratio (x) = 1.24237 0.77902
# Poissons Ratio (y) = 0.51991 -0.38781
# Poissons Ratio (z) = 0.56295 -0.66967
#
# Static dielectric constant tensor:
#      x y z
#    x 1.846110 0.000000 0.000000 
#    y 0.000000 1.814550 0.000000 
#    z 0.000000 0.000000 1.883930 
# 
# From -- ./inp_files/19541.got.cif
#   From: 2010.05.17/outbox.cif.g08.bks.cpg/sg73_10_cif.got.tgz:19541.got - 2010.06.03 17:35:07.
