data_PCOD9531274
_publ_section_title
;
Structure prediction by ZEFSAII (Michael W. Deem and Ramdas Pophale) SiO2 
 PCOD9531274
Probable space group: I B C A 
;
_chemical_formula_sum "Si O2"
_cell_formula_units_Z 88
_cell_length_a 21.916707
_cell_length_b 8.619217
_cell_length_c 21.964336
_cell_angle_alpha 90.000000
_cell_angle_beta 90.000000
_cell_angle_gamma 90.000000
_cell_volume 4149.169676
_symmetry_space_group_name_H-M "I B C A "
_symmetry_group_IT_number 73
_symmetry_cell_setting 'orthorhombic'
loop_
_space_group_symop_operation_xyz
x,y,z
-x,1/2-y,z
x,-y,1/2-z
1/2-x,y,-z
-x,-y,-z
x,1/2+y,-z
-x,y,1/2+z
1/2+x,-y,z
1/2+x,1/2+y,1/2+z
1/2-x,-y,1/2+z
1/2+x,1/2-y,-z
-x,1/2+y,1/2-z
1/2-x,1/2-y,1/2-z
1/2+x,y,1/2-z
1/2-x,1/2+y,z
x,1/2-y,1/2+z
loop_
_atom_site_type_symbol
_atom_site_label
_atom_site_fract_x
_atom_site_fract_y
_atom_site_fract_z
Si Si1 0.334918 0.071985 0.183763
Si Si2 0.783225 0.080998 0.815743
Si Si3 0.028329 0.078086 0.440887
Si Si4 0.250000 0.774431 0.500000
Si Si5 0.525842 0.922844 0.817234
Si Si6 0.669012 0.526097 0.935067
O O1 0.302710 0.239915 0.188025
O O2 0.403458 0.084852 0.159567
O O3 0.344726 0.000000 0.250000
O O4 0.284279 0.955321 0.156998
O O5 0.828455 0.000813 0.862881
O O6 0.786278 0.000000 0.750000
O O7 0.100630 0.071257 0.450721
O O8 0.000000 0.250000 0.438178
O O9 0.011116 0.005655 0.374548
O O10 0.000000 0.000000 0.500000
O O11 0.286018 0.668065 0.452094
O O12 0.198597 0.881020 0.469137
O O13 0.500000 0.750000 0.808362
O O14 0.521325 0.000000 0.750000
#
# Coordination Sequence:
#
# PCOD9531274 Si02
#       6
#    16  16  16   8  16  16
#     4  10  21  37  58  88 124 158 194 243 300 359
#     4  11  21  36  60  92 123 154 193 246 306 358
#     4  11  24  42  63  89 123 163 203 247 298 358
#     4  10  24  42  62  88 118 156 204 250 298 354
#     4  10  23  42  63  88 122 162 204 248 297 355
#     4  11  23  41  64  89 120 158 200 249 301 354
#
# _framework density 21.209061999999999
#
# number of rings (size 3 to 8) (size 9 to 14) (size 15 to 20)
#    0.000    1.455    0.000    6.545    0.000    6.545 
#    0.000    7.273    0.000    0.000    0.000    0.000 
#    0.000    0.000    0.000    0.000    0.000    0.000 
#
# Total GULP energy -245501.993761 kJ/mol
# GULP energy per Si atom -5579.590767 kJ/mol
# Density = 2.116079 g / cm^3
# Si number density = 21.209062 Si / 1000 Ang^3
#
#
#
# Elastic Constant Matrix: (Units=GPa)
#
#
# Indices 1 2 3 4 5 6 
#
# 1 178.4419 45.6419 43.7654 0.0000 0.0000 0.0000
# 2 45.6419 69.6262 43.1775 0.0000 0.0000 0.0000
# 3 43.7654 43.1775 128.6300 0.0000 0.0000 0.0000
# 4 0.0000 0.0000 0.0000 18.3094 0.0000 0.0000
# 5 0.0000 0.0000 0.0000 0.0000 41.2256 0.0000
# 6 0.0000 0.0000 0.0000 0.0000 0.0000 -39.6234
#
#
#
# Elastic Compliance Matrix: (Units=1/GPa)
#
#
# Indices 1 2 3 4 5 6 
#
# 1 0.006841 -0.003841 -0.001038 0.000000 0.000000 0.000000
# 2 -0.003841 0.020294 -0.005505 0.000000 0.000000 0.000000
# 3 -0.001038 -0.005505 0.009976 0.000000 0.000000 0.000000
# 4 0.000000 0.000000 0.000000 0.054617 0.000000 0.000000
# 5 0.000000 0.000000 0.000000 0.000000 0.024257 0.000000
# 6 0.000000 0.000000 0.000000 0.000000 0.000000 -0.025238
#
#
# Mechanical properties :
#
#
# Convention : Reuss Voigt Hill
#
# Bulk Modulus (GPa) = 61.19252 71.31866 66.25559
# Shear Modulus (GPa) = 42.74858 20.25655 31.50256
#
# Velocity S-wave (km/s) = 4.49439 3.09380 3.85819
# Velocity P-wave (km/s) = 7.47312 6.81628 7.15224
#
# Compressibility (1/GPa) = 0.01634187
#
# Stress axis : x y z
#
# Youngs Moduli (GPa) = 146.17534 49.27544 100.24470
#
# Poissons Ratio (x) = 0.18924 0.10410
# Poissons Ratio (y) = 0.56139 0.55189
# Poissons Ratio (z) = 0.15180 0.27128
#
# Static dielectric constant tensor:
#      x y z
#    x 1.848560 0.000000 0.000000 
#    y 0.000000 1.769720 0.000000 
#    z 0.000000 0.000000 1.827460 
# 
# From -- ./inp_files/30055.got.cif
#   From: 2010.05.17/outbox.cif.g08.bks.cpg/sg73_16_cif.got.tgz:30055.got - 2010.06.03 17:35:07.
