data_PCOD9531029
_publ_section_title
;
Structure prediction by ZEFSAII (Michael W. Deem and Ramdas Pophale) SiO2 
 PCOD9531029
Probable space group: I B C A 
;
_chemical_formula_sum "Si O2"
_cell_formula_units_Z 72
_cell_length_a 13.750545
_cell_length_b 12.877375
_cell_length_c 18.328489
_cell_angle_alpha 90.000000
_cell_angle_beta 90.000000
_cell_angle_gamma 90.000000
_cell_volume 3245.442490
_symmetry_space_group_name_H-M "I B C A "
_symmetry_group_IT_number 73
_symmetry_cell_setting 'orthorhombic'
loop_
_space_group_symop_operation_xyz
x,y,z
-x,1/2-y,z
x,-y,1/2-z
1/2-x,y,-z
-x,-y,-z
x,1/2+y,-z
-x,y,1/2+z
1/2+x,-y,z
1/2+x,1/2+y,1/2+z
1/2-x,-y,1/2+z
1/2+x,1/2-y,-z
-x,1/2+y,1/2-z
1/2-x,1/2-y,1/2-z
1/2+x,y,1/2-z
1/2-x,1/2+y,z
x,1/2-y,1/2+z
loop_
_atom_site_type_symbol
_atom_site_label
_atom_site_fract_x
_atom_site_fract_y
_atom_site_fract_z
Si Si1 0.101406 0.298245 0.908918
Si Si2 0.715889 0.213495 0.328459
Si Si3 0.394053 0.370673 0.924779
Si Si4 0.397089 0.960192 0.614748
Si Si5 0.250000 0.520909 0.000000
O O1 0.190557 0.227251 0.881838
O O2 0.109348 0.415987 0.878913
O O3 0.000000 0.250000 0.884496
O O4 0.097506 0.314646 0.996520
O O5 0.750000 0.250000 0.250000
O O6 0.636655 0.290473 0.363258
O O7 0.661924 0.102947 0.324756
O O8 0.492504 0.427275 0.900598
O O9 0.306438 0.450975 0.940329
O O10 0.336555 0.924737 0.542413
#
# Coordination Sequence:
#
# PCOD9531029 Si02
#       5
#    16  16  16  16   8
#     4  11  24  43  72 106 135 180 240 302 362 420
#     4  12  27  45  65  98 150 193 231 282 360 439
#     4  11  22  44  72 105 138 177 239 308 362 420
#     4  11  25  41  74 103 141 177 239 297 367 423
#     4  10  20  40  74 110 130 176 234 304 376 406
#
# _framework density 22.184957000000001
#
# number of rings (size 3 to 8) (size 9 to 14) (size 15 to 20)
#    0.000    0.889    4.444    4.667    9.333    2.667 
#    0.000    0.000    0.000    0.000    0.000    0.000 
#    0.000    0.000    0.000    0.000    0.000    0.000 
#
# Total GULP energy -201270.711117 kJ/mol
# GULP energy per Si atom -5590.853087 kJ/mol
# Density = 2.213446 g / cm^3
# Si number density = 22.184957 Si / 1000 Ang^3
#
#
#
# Elastic Constant Matrix: (Units=GPa)
#
#
# Indices 1 2 3 4 5 6 
#
# 1 177.0587 65.7608 8.8007 0.0000 0.0000 0.0000
# 2 65.7608 112.1847 40.0891 0.0000 0.0000 0.0000
# 3 8.8007 40.0891 66.2752 0.0000 0.0000 0.0000
# 4 0.0000 0.0000 0.0000 16.2531 0.0000 0.0000
# 5 0.0000 0.0000 0.0000 0.0000 9.5964 0.0000
# 6 0.0000 0.0000 0.0000 0.0000 0.0000 47.9162
#
#
#
# Elastic Compliance Matrix: (Units=1/GPa)
#
#
# Indices 1 2 3 4 5 6 
#
# 1 0.007443 -0.005116 0.002106 0.000000 0.000000 0.000000
# 2 -0.005116 0.014888 -0.008326 0.000000 0.000000 0.000000
# 3 0.002106 -0.008326 0.019845 0.000000 0.000000 0.000000
# 4 0.000000 0.000000 0.000000 0.061527 0.000000 0.000000
# 5 0.000000 0.000000 0.000000 0.000000 0.104205 0.000000
# 6 0.000000 0.000000 0.000000 0.000000 0.000000 0.020870
#
#
# Mechanical properties :
#
#
# Convention : Reuss Voigt Hill
#
# Bulk Modulus (GPa) = 51.26955 64.97998 58.12476
# Shear Modulus (GPa) = 19.38348 30.81100 25.09724
#
# Velocity S-wave (km/s) = 2.95909 3.73074 3.36709
# Velocity P-wave (km/s) = 5.90213 6.92182 6.43221
#
# Compressibility (1/GPa) = 0.01950476
#
# Stress axis : x y z
#
# Youngs Moduli (GPa) = 134.35181 67.16852 50.38957
#
# Poissons Ratio (x) = 0.34361 -0.10612
# Poissons Ratio (y) = 0.68729 0.41955
# Poissons Ratio (z) = -0.28294 0.55926
#
# Static dielectric constant tensor:
#      x y z
#    x 1.806230 0.000000 0.000000 
#    y 0.000000 1.903820 0.000000 
#    z 0.000000 0.000000 1.833160 
# 
# From -- ./inp_files/21808.got.cif
#   From: 2010.05.17/outbox.cif.g08.bks.cpg/sg73_11_cif.got.tgz:21808.got - 2010.06.03 17:35:07.
