data_PCOD9531024
_publ_section_title
;
Structure prediction by ZEFSAII (Michael W. Deem and Ramdas Pophale) SiO2 
 PCOD9531024
Probable space group: I B C A 
;
_chemical_formula_sum "Si O2"
_cell_formula_units_Z 112
_cell_length_a 14.051925
_cell_length_b 23.681340
_cell_length_c 14.604927
_cell_angle_alpha 90.000000
_cell_angle_beta 90.000000
_cell_angle_gamma 90.000000
_cell_volume 4860.058388
_symmetry_space_group_name_H-M "I B C A "
_symmetry_group_IT_number 73
_symmetry_cell_setting 'orthorhombic'
loop_
_space_group_symop_operation_xyz
x,y,z
-x,1/2-y,z
x,-y,1/2-z
1/2-x,y,-z
-x,-y,-z
x,1/2+y,-z
-x,y,1/2+z
1/2+x,-y,z
1/2+x,1/2+y,1/2+z
1/2-x,-y,1/2+z
1/2+x,1/2-y,-z
-x,1/2+y,1/2-z
1/2-x,1/2-y,1/2-z
1/2+x,y,1/2-z
1/2-x,1/2+y,z
x,1/2-y,1/2+z
loop_
_atom_site_type_symbol
_atom_site_label
_atom_site_fract_x
_atom_site_fract_y
_atom_site_fract_z
Si Si1 0.145677 0.725637 0.772150
Si Si2 0.492959 0.925711 0.479395
Si Si3 0.591635 0.392379 0.828543
Si Si4 0.255940 0.059551 0.290138
Si Si5 0.984081 0.808779 0.597834
Si Si6 0.338815 0.001399 0.046292
Si Si7 0.599808 0.344005 0.255374
O O1 0.250000 0.750000 0.750000
O O2 0.138941 0.670303 0.835394
O O3 0.092373 0.704226 0.678774
O O4 0.097024 0.783649 0.807210
O O5 0.433291 0.919233 0.573857
O O6 0.535835 0.864653 0.457408
O O7 0.583708 0.966247 0.488271
O O8 0.413036 0.952552 0.411657
O O9 0.654790 0.430099 0.759503
O O10 0.489046 0.381606 0.784430
O O11 0.280353 0.044800 0.394693
O O12 0.309650 0.117640 0.269612
O O13 0.292940 0.000000 0.250000
O O14 0.000000 0.750000 0.546684
O O15 0.081187 0.824961 0.651480
O O16 0.250000 0.033043 0.000000
#
# Coordination Sequence:
#
# PCOD9531024 Si02
#       7
#    16  16  16  16  16  16  16
#     4  10  20  40  71 101 138 179 235 295 354 420
#     4  11  24  46  68  99 145 184 231 299 367 427
#     4  11  23  41  68 101 135 184 235 295 357 432
#     4  12  24  41  68  99 132 184 242 288 354 433
#     4   9  21  39  67  96 136 183 219 283 357 421
#     4  11  26  45  68 101 141 183 231 299 361 429
#     4  10  21  41  64  99 136 174 234 294 350 421
#
# _framework density 23.044989000000001
#
# number of rings (size 3 to 8) (size 9 to 14) (size 15 to 20)
#    0.000    1.429    2.857    3.000    4.000    1.714 
#    0.000    0.000    0.000    0.000    0.000    0.000 
#    0.000    0.000    0.000    0.000    0.000    0.000 
#
# Total GULP energy -311836.814602 kJ/mol
# GULP energy per Si atom -5568.514546 kJ/mol
# Density = 2.299254 g / cm^3
# Si number density = 23.044989 Si / 1000 Ang^3
#
#
#
# Elastic Constant Matrix: (Units=GPa)
#
#
# Indices 1 2 3 4 5 6 
#
# 1 122.6361 37.2956 34.8903 0.0000 0.0000 0.0000
# 2 37.2956 163.3488 28.8912 0.0002 0.0000 0.0000
# 3 34.8903 28.8912 36.1019 0.0002 0.0000 0.0000
# 4 0.0000 0.0002 0.0002 31.5108 0.0000 0.0000
# 5 0.0000 0.0000 0.0000 0.0000 16.1387 0.0000
# 6 0.0000 0.0000 0.0000 0.0000 0.0000 40.4901
#
#
#
# Elastic Compliance Matrix: (Units=1/GPa)
#
#
# Indices 1 2 3 4 5 6 
#
# 1 0.011326 -0.000757 -0.010340 0.000000 0.000000 0.000000
# 2 -0.000757 0.007182 -0.005016 0.000000 0.000000 0.000000
# 3 -0.010340 -0.005016 0.041706 0.000000 0.000000 0.000000
# 4 0.000000 0.000000 0.000000 0.031735 0.000000 0.000000
# 5 0.000000 0.000000 0.000000 0.000000 0.061963 0.000000
# 6 0.000000 0.000000 0.000000 0.000000 0.000000 0.024697
#
#
# Mechanical properties :
#
#
# Convention : Reuss Voigt Hill
#
# Bulk Modulus (GPa) = 35.72897 58.24899 46.98898
# Shear Modulus (GPa) = 22.71018 32.36189 27.53603
#
# Velocity S-wave (km/s) = 3.14263 3.75145 3.46046
# Velocity P-wave (km/s) = 5.35778 6.64045 6.03330
#
# Compressibility (1/GPa) = 0.02798849
#
# Stress axis : x y z
#
# Youngs Moduli (GPa) = 88.29015 139.23987 23.97709
#
# Poissons Ratio (x) = 0.10542 0.24793
# Poissons Ratio (y) = 0.06685 0.12026
# Poissons Ratio (z) = 0.91294 0.69838
#
# Static dielectric constant tensor:
#      x y z
#    x 1.887070 0.000000 0.000000 
#    y 0.000000 2.036650 0.000000 
#    z 0.000000 0.000000 2.097840 
# 
# From -- ./inp_files/17269.got.cif
#   From: 2010.05.17/outbox.cif.g08.bks.cpg/sg73_9_cif.got.tgz:17269.got - 2010.06.03 17:35:07.
