data_PCOD9531028
_publ_section_title
;
Structure prediction by ZEFSAII (Michael W. Deem and Ramdas Pophale) SiO2 
 PCOD9531028
Probable space group: I B C A 
;
_chemical_formula_sum "Si O2"
_cell_formula_units_Z 56
_cell_length_a 13.613987
_cell_length_b 17.473103
_cell_length_c 10.059547
_cell_angle_alpha 90.000000
_cell_angle_beta 90.000000
_cell_angle_gamma 90.000000
_cell_volume 2392.950928
_symmetry_space_group_name_H-M "I B C A "
_symmetry_group_IT_number 73
_symmetry_cell_setting 'orthorhombic'
loop_
_space_group_symop_operation_xyz
x,y,z
-x,1/2-y,z
x,-y,1/2-z
1/2-x,y,-z
-x,-y,-z
x,1/2+y,-z
-x,y,1/2+z
1/2+x,-y,z
1/2+x,1/2+y,1/2+z
1/2-x,-y,1/2+z
1/2+x,1/2-y,-z
-x,1/2+y,1/2-z
1/2-x,1/2-y,1/2-z
1/2+x,y,1/2-z
1/2-x,1/2+y,z
x,1/2-y,1/2+z
loop_
_atom_site_type_symbol
_atom_site_label
_atom_site_fract_x
_atom_site_fract_y
_atom_site_fract_z
Si Si1 0.420651 0.432706 0.010085
Si Si2 0.837646 0.705816 0.887872
Si Si3 0.750000 0.528477 0.500000
Si Si4 0.169076 0.634462 0.776964
O O1 0.328016 0.471651 0.936181
O O2 0.390432 0.409318 0.161254
O O3 0.500000 0.500000 0.000000
O O4 0.423372 0.349347 0.942014
O O5 0.874695 0.786045 0.831042
O O6 0.775760 0.662278 0.774897
O O7 0.750000 0.717921 0.000000
O O8 0.810428 0.578534 0.397945
#
# Coordination Sequence:
#
# PCOD9531028 Si02
#       4
#    16  16   8  16
#     4  11  24  43  69 109 146 184 243 306 373 436
#     4   9  18  40  73 100 134 187 244 293 366 438
#     4  12  22  42  68 104 144 188 246 298 374 434
#     4  10  20  40  73  98 135 192 235 297 370 436
#
# _framework density 23.402066999999999
#
# number of rings (size 3 to 8) (size 9 to 14) (size 15 to 20)
#    0.000    1.714    5.714    0.857    0.000    0.000 
#   10.286    1.429    6.286    0.000    0.000    0.000 
#    0.000    0.000    0.000    0.000    0.000    0.000 
#
# Total GULP energy -156184.071783 kJ/mol
# GULP energy per Si atom -5578.002564 kJ/mol
# Density = 2.334880 g / cm^3
# Si number density = 23.402067 Si / 1000 Ang^3
#
#
#
# Elastic Constant Matrix: (Units=GPa)
#
#
# Indices 1 2 3 4 5 6 
#
# 1 92.5457 68.6229 14.4215 0.0000 0.0000 0.0000
# 2 68.6229 233.0472 89.5184 0.0000 0.0000 0.0000
# 3 14.4215 89.5184 85.0384 0.0000 0.0000 0.0000
# 4 0.0000 0.0000 0.0000 26.1146 0.0000 0.0000
# 5 0.0000 0.0000 0.0000 0.0000 17.0338 0.0000
# 6 0.0000 0.0000 0.0000 0.0000 0.0000 8.4753
#
#
#
# Elastic Compliance Matrix: (Units=1/GPa)
#
#
# Indices 1 2 3 4 5 6 
#
# 1 0.014383 -0.005537 0.003390 0.000000 0.000000 0.000000
# 2 -0.005537 0.009336 -0.008889 0.000000 0.000000 0.000000
# 3 0.003390 -0.008889 0.020541 0.000000 0.000000 0.000000
# 4 0.000000 0.000000 0.000000 0.038293 0.000000 0.000000
# 5 0.000000 0.000000 0.000000 0.000000 0.058707 0.000000
# 6 0.000000 0.000000 0.000000 0.000000 0.000000 0.117990
#
#
# Mechanical properties :
#
#
# Convention : Reuss Voigt Hill
#
# Bulk Modulus (GPa) = 45.06893 83.97300 64.52097
# Shear Modulus (GPa) = 17.31796 26.19599 21.75698
#
# Velocity S-wave (km/s) = 2.72328 3.34936 3.05241
# Velocity P-wave (km/s) = 5.40265 7.13570 6.32878
#
# Compressibility (1/GPa) = 0.02218823
#
# Stress axis : x y z
#
# Youngs Moduli (GPa) = 69.52542 107.11462 48.68241
#
# Poissons Ratio (x) = 0.59314 -0.16503
# Poissons Ratio (y) = 0.38499 0.43272
# Poissons Ratio (z) = -0.23568 0.95209
#
# Static dielectric constant tensor:
#      x y z
#    x 2.098190 0.000000 0.000000 
#    y 0.000000 1.888900 0.000000 
#    z 0.000000 0.000000 2.046430 
# 
# From -- ./inp_files/10261.got.cif
#   From: 2010.05.17/outbox.cif.g08.bks.cpg/sg73_6_cif.got.tgz:10261.got - 2010.06.03 17:35:07.
