data_PCOD9531004
_publ_section_title
;
Structure prediction by ZEFSAII (Michael W. Deem and Ramdas Pophale) SiO2 
 PCOD9531004
Probable space group: I B C A 
;
_chemical_formula_sum "Si O2"
_cell_formula_units_Z 120
_cell_length_a 18.199202
_cell_length_b 26.024007
_cell_length_c 12.486596
_cell_angle_alpha 90.000000
_cell_angle_beta 90.000000
_cell_angle_gamma 90.000000
_cell_volume 5913.853652
_symmetry_space_group_name_H-M "I B C A "
_symmetry_group_IT_number 73
_symmetry_cell_setting 'orthorhombic'
loop_
_space_group_symop_operation_xyz
x,y,z
-x,1/2-y,z
x,-y,1/2-z
1/2-x,y,-z
-x,-y,-z
x,1/2+y,-z
-x,y,1/2+z
1/2+x,-y,z
1/2+x,1/2+y,1/2+z
1/2-x,-y,1/2+z
1/2+x,1/2-y,-z
-x,1/2+y,1/2-z
1/2-x,1/2-y,1/2-z
1/2+x,y,1/2-z
1/2-x,1/2+y,z
x,1/2-y,1/2+z
loop_
_atom_site_type_symbol
_atom_site_label
_atom_site_fract_x
_atom_site_fract_y
_atom_site_fract_z
Si Si1 0.241749 0.008638 0.619628
Si Si2 0.090108 0.941607 0.867174
Si Si3 0.463797 0.500000 0.250000
Si Si4 0.623473 0.919339 0.397030
Si Si5 0.176404 0.680795 0.708707
Si Si6 0.086803 0.750613 0.365842
Si Si7 0.342706 0.653606 0.750896
Si Si8 0.325152 0.779087 0.438170
O O1 0.250000 0.979124 0.500000
O O2 0.155004 0.016880 0.625210
O O3 0.294122 0.057425 0.595631
O O4 0.260298 0.000000 0.750000
O O5 0.015904 0.967243 0.828198
O O6 0.120451 0.898979 0.784813
O O7 0.086561 0.918735 0.986424
O O8 0.417826 0.540804 0.319306
O O9 0.630324 0.862140 0.352760
O O10 0.127436 0.702685 0.804818
O O11 0.254398 0.655410 0.738295
O O12 0.194536 0.731680 0.640033
O O13 0.122234 0.698154 0.322381
O O14 0.110699 0.758140 0.487272
O O15 0.000000 0.750000 0.348707
O O16 0.354121 0.672591 0.871618
O O17 0.250000 0.791590 0.500000
#
# Coordination Sequence:
#
# PCOD9531004 Si02
#       8
#    16  16   8  16  16  16  16  16
#     4  10  20  40  67  95 123 165 225 289 339 412
#     4  11  24  43  67  95 128 171 229 278 357 413
#     4  12  26  46  66  94 138 172 222 298 362 416
#     4  11  24  42  70  93 129 171 230 283 349 413
#     4  11  22  40  68  94 127 180 229 270 329 413
#     4  11  24  40  61  97 143 176 216 276 338 400
#     4  11  22  41  68  94 132 177 230 278 323 418
#     4  11  20  39  67  98 138 178 221 276 335 396
#
# _framework density 20.291338
#
# number of rings (size 3 to 8) (size 9 to 14) (size 15 to 20)
#    0.000    1.067    5.333    2.000    1.867    2.133 
#    2.400    3.333    0.000    0.000    0.000    0.000 
#    0.000    0.000    0.000    0.000    0.000    0.000 
#
# Total GULP energy -334424.142021 kJ/mol
# GULP energy per Si atom -5573.735700 kJ/mol
# Density = 2.024515 g / cm^3
# Si number density = 20.291338 Si / 1000 Ang^3
#
#
#
# Elastic Constant Matrix: (Units=GPa)
#
#
# Indices 1 2 3 4 5 6 
#
# 1 97.8095 14.1325 14.4323 0.0000 0.0000 0.0000
# 2 14.1325 40.4392 11.5496 0.0000 0.0000 0.0000
# 3 14.4323 11.5496 65.4119 0.0000 0.0000 0.0000
# 4 0.0000 0.0000 0.0000 17.9879 0.0000 0.0000
# 5 0.0000 0.0000 0.0000 0.0000 36.7980 0.0000
# 6 0.0000 0.0000 0.0000 0.0000 0.0000 5.7822
#
#
#
# Elastic Compliance Matrix: (Units=1/GPa)
#
#
# Indices 1 2 3 4 5 6 
#
# 1 0.010973 -0.003310 -0.001837 0.000000 0.000000 0.000000
# 2 -0.003310 0.027040 -0.004044 0.000000 0.000000 0.000000
# 3 -0.001837 -0.004044 0.016407 0.000000 0.000000 0.000000
# 4 0.000000 0.000000 0.000000 0.055593 0.000000 0.000000
# 5 0.000000 0.000000 0.000000 0.000000 0.027175 0.000000
# 6 0.000000 0.000000 0.000000 0.000000 0.000000 0.172945
#
#
# Mechanical properties :
#
#
# Convention : Reuss Voigt Hill
#
# Bulk Modulus (GPa) = 27.74800 31.54326 29.64563
# Shear Modulus (GPa) = 14.68307 23.01671 18.84989
#
# Velocity S-wave (km/s) = 2.69292 3.37161 3.05119
# Velocity P-wave (km/s) = 4.83463 5.54400 5.20142
#
# Compressibility (1/GPa) = 0.03603863
#
# Stress axis : x y z
#
# Youngs Moduli (GPa) = 91.13056 36.98171 60.94956
#
# Poissons Ratio (x) = 0.12242 0.11194
# Poissons Ratio (y) = 0.30167 0.24648
# Poissons Ratio (z) = 0.16737 0.14956
#
# Static dielectric constant tensor:
#      x y z
#    x 1.689630 0.000000 0.000000 
#    y 0.000000 1.708270 0.000000 
#    z 0.000000 0.000000 1.825510 
# 
# From -- ./inp_files/12234.got.cif
#   From: 2010.05.17/outbox.cif.g08.bks.cpg/sg73_7_cif.got.tgz:12234.got - 2010.06.03 17:35:07.
