data_PCOD9531135
_publ_section_title
;
Structure prediction by ZEFSAII (Michael W. Deem and Ramdas Pophale) SiO2 
 PCOD9531135
Probable space group: I B C A 
;
_chemical_formula_sum "Si O2"
_cell_formula_units_Z 80
_cell_length_a 14.471508
_cell_length_b 22.337039
_cell_length_c 10.916169
_cell_angle_alpha 90.000000
_cell_angle_beta 90.000000
_cell_angle_gamma 90.000000
_cell_volume 3528.658600
_symmetry_space_group_name_H-M "I B C A "
_symmetry_group_IT_number 73
_symmetry_cell_setting 'orthorhombic'
loop_
_space_group_symop_operation_xyz
x,y,z
-x,1/2-y,z
x,-y,1/2-z
1/2-x,y,-z
-x,-y,-z
x,1/2+y,-z
-x,y,1/2+z
1/2+x,-y,z
1/2+x,1/2+y,1/2+z
1/2-x,-y,1/2+z
1/2+x,1/2-y,-z
-x,1/2+y,1/2-z
1/2-x,1/2-y,1/2-z
1/2+x,y,1/2-z
1/2-x,1/2+y,z
x,1/2-y,1/2+z
loop_
_atom_site_type_symbol
_atom_site_label
_atom_site_fract_x
_atom_site_fract_y
_atom_site_fract_z
Si Si1 0.655035 0.092505 0.235119
Si Si2 0.104747 0.224708 0.200523
Si Si3 0.820223 0.902933 0.107507
Si Si4 0.395987 0.999125 0.545651
Si Si5 0.597829 0.214769 0.569799
O O1 0.607548 0.156137 0.255871
O O2 0.763722 0.099800 0.267102
O O3 0.617884 0.048522 0.343211
O O4 0.636106 0.061239 0.105542
O O5 0.150492 0.261628 0.310396
O O6 0.000000 0.250000 0.190800
O O7 0.141060 0.228001 0.062384
O O8 0.904824 0.856973 0.092052
O O9 0.750000 0.882414 0.000000
O O10 0.842609 0.970790 0.070003
O O11 0.500000 0.000000 0.500000
O O12 0.500000 0.250000 0.569082
#
# Coordination Sequence:
#
# PCOD9531135 Si02
#       5
#    16  16  16  16  16
#     4  10  22  43  67  97 142 184 231 301 364 428
#     4  10  21  36  67  97 142 179 238 285 354 425
#     4  10  20  43  69  91 142 185 219 301 367 408
#     4  10  22  39  72  97 131 186 242 292 365 435
#     4  10  21  38  66  97 135 188 235 288 355 424
#
# _framework density 22.671506000000001
#
# number of rings (size 3 to 8) (size 9 to 14) (size 15 to 20)
#    0.000    2.000    4.000    0.000    5.600    0.800 
#    0.000   12.000   26.400    0.000    0.000    0.000 
#    0.000    0.000    0.000    0.000    0.000    0.000 
#
# Total GULP energy -222971.599431 kJ/mol
# GULP energy per Si atom -5574.289986 kJ/mol
# Density = 2.261990 g / cm^3
# Si number density = 22.671506 Si / 1000 Ang^3
#
#
#
# Elastic Constant Matrix: (Units=GPa)
#
#
# Indices 1 2 3 4 5 6 
#
# 1 86.8603 34.1417 23.7737 0.0000 0.0000 0.0000
# 2 34.1417 98.9100 44.5283 0.0000 0.0000 0.0000
# 3 23.7737 44.5283 146.7839 0.0003 0.0000 0.0000
# 4 0.0000 0.0000 0.0003 32.6804 0.0000 0.0000
# 5 0.0000 0.0000 0.0000 0.0000 24.5021 0.0000
# 6 0.0000 0.0000 0.0000 0.0000 0.0000 42.7381
#
#
#
# Elastic Compliance Matrix: (Units=1/GPa)
#
#
# Indices 1 2 3 4 5 6 
#
# 1 0.013420 -0.004232 -0.000890 0.000000 0.000000 0.000000
# 2 -0.004232 0.013044 -0.003272 0.000000 0.000000 0.000000
# 3 -0.000890 -0.003272 0.007949 0.000000 0.000000 0.000000
# 4 0.000000 0.000000 0.000000 0.030599 0.000000 0.000000
# 5 0.000000 0.000000 0.000000 0.000000 0.040813 0.000000
# 6 0.000000 0.000000 0.000000 0.000000 0.000000 0.023398
#
#
# Mechanical properties :
#
#
# Convention : Reuss Voigt Hill
#
# Bulk Modulus (GPa) = 56.73219 59.71573 58.22396
# Shear Modulus (GPa) = 32.91977 35.32485 34.12231
#
# Velocity S-wave (km/s) = 3.81469 3.95158 3.88374
# Velocity P-wave (km/s) = 6.66936 6.87144 6.77116
#
# Compressibility (1/GPa) = 0.01762668
#
# Stress axis : x y z
#
# Youngs Moduli (GPa) = 74.51816 76.66555 125.79712
#
# Poissons Ratio (x) = 0.32442 0.11193
# Poissons Ratio (y) = 0.31533 0.41155
# Poissons Ratio (z) = 0.06631 0.25082
#
# Static dielectric constant tensor:
#      x y z
#    x 1.945090 0.000000 0.000000 
#    y 0.000000 2.442640 0.000000 
#    z 0.000000 0.000000 1.892790 
# 
# From -- ./inp_files/10824.got.cif
#   From: 2010.05.17/outbox.cif.g08.bks.cpg/sg73_6_cif.got.tgz:10824.got - 2010.06.03 17:35:07.
