data_PCOD9531786
_publ_section_title
;
Structure prediction by ZEFSAII (Michael W. Deem and Ramdas Pophale) SiO2 
 PCOD9531786
Probable space group: I B C A 
;
_chemical_formula_sum "Si O2"
_cell_formula_units_Z 120
_cell_length_a 9.606063
_cell_length_b 22.835978
_cell_length_c 25.690463
_cell_angle_alpha 90.000000
_cell_angle_beta 90.000000
_cell_angle_gamma 90.000000
_cell_volume 5635.558701
_symmetry_space_group_name_H-M "I B C A "
_symmetry_group_IT_number 73
_symmetry_cell_setting 'orthorhombic'
loop_
_space_group_symop_operation_xyz
x,y,z
-x,1/2-y,z
x,-y,1/2-z
1/2-x,y,-z
-x,-y,-z
x,1/2+y,-z
-x,y,1/2+z
1/2+x,-y,z
1/2+x,1/2+y,1/2+z
1/2-x,-y,1/2+z
1/2+x,1/2-y,-z
-x,1/2+y,1/2-z
1/2-x,1/2-y,1/2-z
1/2+x,y,1/2-z
1/2-x,1/2+y,z
x,1/2-y,1/2+z
loop_
_atom_site_type_symbol
_atom_site_label
_atom_site_fract_x
_atom_site_fract_y
_atom_site_fract_z
Si Si1 0.012776 0.570139 0.357399
Si Si2 0.265493 0.625429 0.717562
Si Si3 0.274939 0.875721 0.336612
Si Si4 0.000000 0.750000 0.479138
Si Si5 0.221633 0.208640 0.433431
Si Si6 0.241694 0.570262 0.441683
Si Si7 0.044315 0.941379 0.148169
Si Si8 0.657947 0.242493 0.180593
O O1 0.104001 0.609484 0.318448
O O2 0.095799 0.563088 0.411587
O O3 0.863346 0.599775 0.362907
O O4 0.000240 0.505484 0.333307
O O5 0.281192 0.603906 0.776341
O O6 0.135429 0.593068 0.690509
O O7 0.239105 0.695221 0.715439
O O8 0.410340 0.902130 0.364297
O O9 0.279330 0.805960 0.331596
O O10 0.118301 0.738007 0.525161
O O11 0.122627 0.735095 0.435913
O O12 0.233307 0.139788 0.445037
O O13 0.156235 0.212981 0.376350
O O14 0.250000 0.545617 0.500000
O O15 0.359386 0.547548 0.402275
O O16 0.500000 0.250000 0.200289
#
# Coordination Sequence:
#
# PCOD9531786 Si02
#       8
#    16  16  16   8  16  16  16  16
#     4  11  26  43  68 102 130 174 237 281 326 395
#     4  11  24  45  66  97 136 183 217 272 345 395
#     4  12  25  40  71 101 134 176 230 275 328 408
#     4  10  22  34  62  96 118 168 230 254 336 408
#     4  11  21  38  62  92 132 174 211 275 333 400
#     4  11  23  46  71  90 136 180 217 279 351 393
#     4  11  24  47  67  95 138 177 226 279 335 395
#     4  12  23  41  65  94 140 176 212 273 345 405
#
# _framework density 21.293364
#
# number of rings (size 3 to 8) (size 9 to 14) (size 15 to 20)
#    0.000    0.800    6.000    2.800    1.867    4.267 
#    0.000    0.667    0.000    0.000    0.000    0.000 
#    0.000    0.000    0.000    0.000    0.000    0.000 
#
# Total GULP energy -334366.584614 kJ/mol
# GULP energy per Si atom -5572.776410 kJ/mol
# Density = 2.124490 g / cm^3
# Si number density = 21.293364 Si / 1000 Ang^3
#
#
#
# Elastic Constant Matrix: (Units=GPa)
#
#
# Indices 1 2 3 4 5 6 
#
# 1 107.5554 20.8512 -6.9275 0.0000 0.0000 0.0000
# 2 20.8512 101.5010 -18.7436 0.0000 0.0000 0.0000
# 3 -6.9275 -18.7436 65.1186 0.0000 0.0000 0.0000
# 4 0.0000 0.0000 0.0000 193.9910 0.0000 0.0000
# 5 0.0000 0.0000 0.0000 0.0000 6.3834 0.0000
# 6 0.0000 0.0000 0.0000 0.0000 0.0000 44.0608
#
#
#
# Elastic Compliance Matrix: (Units=1/GPa)
#
#
# Indices 1 2 3 4 5 6 
#
# 1 0.009698 -0.001903 0.000484 0.000000 0.000000 0.000000
# 2 -0.001903 0.010779 0.002900 0.000000 0.000000 0.000000
# 3 0.000484 0.002900 0.016243 0.000000 0.000000 0.000000
# 4 0.000000 0.000000 0.000000 0.005155 0.000000 0.000000
# 5 0.000000 0.000000 0.000000 0.000000 0.156656 0.000000
# 6 0.000000 0.000000 0.000000 0.000000 0.000000 0.022696
#
#
# Mechanical properties :
#
#
# Convention : Reuss Voigt Hill
#
# Bulk Modulus (GPa) = 25.20072 29.39280 27.29676
# Shear Modulus (GPa) = 21.59914 67.48671 44.54293
#
# Velocity S-wave (km/s) = 3.18836 5.63583 4.57866
# Velocity P-wave (km/s) = 5.04132 7.49559 6.38744
#
# Compressibility (1/GPa) = 0.03968140
#
# Stress axis : x y z
#
# Youngs Moduli (GPa) = 103.11843 92.77688 61.56560
#
# Poissons Ratio (x) = 0.17654 -0.02979
# Poissons Ratio (y) = 0.19621 -0.17854
# Poissons Ratio (z) = -0.04990 -0.26906
#
# Static dielectric constant tensor:
#      x y z
#    x 1.785330 0.000000 0.000000 
#    y 0.000000 1.773290 0.000000 
#    z 0.000000 0.000000 1.790910 
# 
# From -- ./inp_files/31394.got.cif
#   From: 2010.05.17/outbox.cif.g08.bks.cpg/sg73_16_cif.got.tgz:31394.got - 2010.06.03 17:35:07.
