data_PCOD9531020
_publ_section_title
;
Structure prediction by ZEFSAII (Michael W. Deem and Ramdas Pophale) SiO2 
 PCOD9531020
Probable space group: I B C A 
;
_chemical_formula_sum "Si O2"
_cell_formula_units_Z 72
_cell_length_a 26.147053
_cell_length_b 12.527462
_cell_length_c 9.011149
_cell_angle_alpha 90.000000
_cell_angle_beta 90.000000
_cell_angle_gamma 90.000000
_cell_volume 2951.657840
_symmetry_space_group_name_H-M "I B C A "
_symmetry_group_IT_number 73
_symmetry_cell_setting 'orthorhombic'
loop_
_space_group_symop_operation_xyz
x,y,z
-x,1/2-y,z
x,-y,1/2-z
1/2-x,y,-z
-x,-y,-z
x,1/2+y,-z
-x,y,1/2+z
1/2+x,-y,z
1/2+x,1/2+y,1/2+z
1/2-x,-y,1/2+z
1/2+x,1/2-y,-z
-x,1/2+y,1/2-z
1/2-x,1/2-y,1/2-z
1/2+x,y,1/2-z
1/2-x,1/2+y,z
x,1/2-y,1/2+z
loop_
_atom_site_type_symbol
_atom_site_label
_atom_site_fract_x
_atom_site_fract_y
_atom_site_fract_z
Si Si1 0.127116 0.909649 0.334385
Si Si2 0.428965 0.686013 0.690581
Si Si3 0.837689 0.083910 0.350131
Si Si4 0.213483 0.193776 0.366721
Si Si5 0.500000 0.250000 0.549050
O O1 0.095076 0.801846 0.345068
O O2 0.142709 0.957720 0.492902
O O3 0.175387 0.881624 0.225851
O O4 0.095532 0.000000 0.250000
O O5 0.381170 0.612378 0.729283
O O6 0.461100 0.691556 0.841395
O O7 0.468048 0.669630 0.556001
O O8 0.817660 0.199160 0.411229
O O9 0.804502 0.000000 0.250000
O O10 0.250000 0.152545 0.500000
O O11 0.250000 0.250000 0.250000
#
# Coordination Sequence:
#
# PCOD9531020 Si02
#       5
#    16  16  16  16   8
#     4  11  25  42  66  96 131 176 216 266 330 393
#     4  10  22  43  66  91 133 170 221 265 331 382
#     4  11  25  42  66  96 132 176 215 266 331 396
#     4  11  24  46  67  92 130 171 221 274 323 382
#     4  10  20  40  70  92 124 176 214 276 320 388
#
# _framework density 24.393070999999999
#
# number of rings (size 3 to 8) (size 9 to 14) (size 15 to 20)
#    0.000    1.333    4.444    0.000    6.222    0.889 
#    0.000    6.667    0.000    0.000    0.000    0.000 
#    0.000    0.000    0.000    0.000    0.000    0.000 
#
# Total GULP energy -200828.623726 kJ/mol
# GULP energy per Si atom -5578.572881 kJ/mol
# Density = 2.433755 g / cm^3
# Si number density = 24.393071 Si / 1000 Ang^3
#
#
#
# Elastic Constant Matrix: (Units=GPa)
#
#
# Indices 1 2 3 4 5 6 
#
# 1 72.7492 -1.2332 32.3737 0.0000 0.0000 0.0000
# 2 -1.2332 73.4847 33.2826 0.0000 0.0000 0.0000
# 3 32.3737 33.2826 167.4334 0.0000 0.0000 0.0000
# 4 0.0000 0.0000 0.0000 24.2547 0.0000 0.0000
# 5 0.0000 0.0000 0.0000 0.0000 51.7317 0.0000
# 6 0.0000 0.0000 0.0000 0.0000 0.0000 -9.5900
#
#
#
# Elastic Compliance Matrix: (Units=1/GPa)
#
#
# Indices 1 2 3 4 5 6 
#
# 1 0.015242 0.001748 -0.003294 0.000000 0.000000 0.000000
# 2 0.001748 0.015155 -0.003351 0.000000 0.000000 0.000000
# 3 -0.003294 -0.003351 0.007276 0.000000 0.000000 0.000000
# 4 0.000000 0.000000 0.000000 0.041229 0.000000 0.000000
# 5 0.000000 0.000000 0.000000 0.000000 0.019330 0.000000
# 6 0.000000 0.000000 0.000000 0.000000 0.000000 -0.104275
#
#
# Mechanical properties :
#
#
# Convention : Reuss Voigt Hill
#
# Bulk Modulus (GPa) = 35.87052 49.16816 42.51934
# Shear Modulus (GPa) = 383.34663 29.89558 206.62110
#
# Velocity S-wave (km/s) = 12.54970 3.50462 9.21351
# Velocity P-wave (km/s) = 14.99102 6.04788 11.43039
#
# Compressibility (1/GPa) = 0.02787805
#
# Stress axis : x y z
#
# Youngs Moduli (GPa) = 65.61027 65.98432 137.44705
#
# Poissons Ratio (x) = -0.11533 0.45281
# Poissons Ratio (y) = -0.11468 0.46052
# Poissons Ratio (z) = 0.21615 0.22108
#
# Static dielectric constant tensor:
#      x y z
#    x -2.963060 0.000000 0.000000 
#    y 0.000000 2.116600 0.000000 
#    z 0.000000 0.000000 1.953650 
# 
# From -- ./inp_files/4801.got.cif
#   From: 2010.05.17/outbox.cif.g08.bks.cpg/sg73_3_cif.got.tgz:4801.got - 2010.06.03 17:35:07.
