data_PCOD9531412
_publ_section_title
;
Structure prediction by ZEFSAII (Michael W. Deem and Ramdas Pophale) SiO2 
 PCOD9531412
Probable space group: I B C A 
;
_chemical_formula_sum "Si O2"
_cell_formula_units_Z 72
_cell_length_a 23.416050
_cell_length_b 15.000162
_cell_length_c 9.703392
_cell_angle_alpha 90.000000
_cell_angle_beta 90.000000
_cell_angle_gamma 90.000000
_cell_volume 3408.263492
_symmetry_space_group_name_H-M "I B C A "
_symmetry_group_IT_number 73
_symmetry_cell_setting 'orthorhombic'
loop_
_space_group_symop_operation_xyz
x,y,z
-x,1/2-y,z
x,-y,1/2-z
1/2-x,y,-z
-x,-y,-z
x,1/2+y,-z
-x,y,1/2+z
1/2+x,-y,z
1/2+x,1/2+y,1/2+z
1/2-x,-y,1/2+z
1/2+x,1/2-y,-z
-x,1/2+y,1/2-z
1/2-x,1/2-y,1/2-z
1/2+x,y,1/2-z
1/2-x,1/2+y,z
x,1/2-y,1/2+z
loop_
_atom_site_type_symbol
_atom_site_label
_atom_site_fract_x
_atom_site_fract_y
_atom_site_fract_z
Si Si1 0.617227 0.792643 0.155544
Si Si2 0.218196 0.599365 0.704649
Si Si3 0.834126 0.617841 0.910690
Si Si4 0.051438 0.180705 0.894032
Si Si5 0.575879 0.000000 0.750000
O O1 0.670823 0.850582 0.205362
O O2 0.637925 0.712042 0.060364
O O3 0.589216 0.738720 0.283812
O O4 0.576098 0.841974 0.046791
O O5 0.228649 0.500000 0.750000
O O6 0.192876 0.588942 0.552609
O O7 0.282102 0.638880 0.695199
O O8 0.880460 0.548296 0.856011
O O9 0.042413 0.083567 0.820053
O O10 0.000000 0.250000 0.918198
#
# Coordination Sequence:
#
# PCOD9531412 Si02
#       5
#    16  16  16  16   8
#     4  11  22  43  65  94 138 173 224 280 338 398
#     4  11  21  37  63  98 136 173 221 269 335 416
#     4  10  21  39  61 101 131 179 219 265 343 416
#     4  11  24  45  69  97 130 182 234 288 340 398
#     4  10  22  44  68  96 140 174 218 290 348 400
#
# _framework density 21.125128
#
# number of rings (size 3 to 8) (size 9 to 14) (size 15 to 20)
#    0.000    1.333    3.333    2.667    0.000    0.000 
#    2.000    5.556    0.000    0.000    0.000    0.000 
#    0.000    0.000    0.000    0.000    0.000    0.000 
#
# Total GULP energy -200462.886720 kJ/mol
# GULP energy per Si atom -5568.413520 kJ/mol
# Density = 2.107705 g / cm^3
# Si number density = 21.125128 Si / 1000 Ang^3
#
#
#
# Elastic Constant Matrix: (Units=GPa)
#
#
# Indices 1 2 3 4 5 6 
#
# 1 41.6182 15.4237 11.3689 0.0000 0.0000 0.0000
# 2 15.4237 81.9324 14.5607 0.0000 0.0000 0.0000
# 3 11.3689 14.5607 79.5075 0.0000 0.0000 0.0000
# 4 0.0000 0.0000 0.0000 7.1084 0.0000 0.0000
# 5 0.0000 0.0000 0.0000 0.0000 20.2011 0.0000
# 6 0.0000 0.0000 0.0000 0.0000 0.0000 47.7422
#
#
#
# Elastic Compliance Matrix: (Units=1/GPa)
#
#
# Indices 1 2 3 4 5 6 
#
# 1 0.026492 -0.004459 -0.002972 0.000000 0.000000 0.000000
# 2 -0.004459 0.013366 -0.001810 0.000000 0.000000 0.000000
# 3 -0.002972 -0.001810 0.013334 0.000000 0.000000 0.000000
# 4 0.000000 0.000000 0.000000 0.140679 0.000000 0.000000
# 5 0.000000 0.000000 0.000000 0.000000 0.049502 0.000000
# 6 0.000000 0.000000 0.000000 0.000000 0.000000 0.020946
#
#
# Mechanical properties :
#
#
# Convention : Reuss Voigt Hill
#
# Bulk Modulus (GPa) = 28.80957 31.75163 30.28060
# Shear Modulus (GPa) = 16.98533 25.79065 21.38799
#
# Velocity S-wave (km/s) = 2.83863 3.49786 3.18534
# Velocity P-wave (km/s) = 4.94074 5.60145 5.28144
#
# Compressibility (1/GPa) = 0.03471069
#
# Stress axis : x y z
#
# Youngs Moduli (GPa) = 37.74697 74.81499 74.99706
#
# Poissons Ratio (x) = 0.33360 0.22286
# Poissons Ratio (y) = 0.16832 0.13576
# Poissons Ratio (z) = 0.11217 0.13543
#
# Static dielectric constant tensor:
#      x y z
#    x 1.911240 0.000000 0.000000 
#    y 0.000000 1.810290 0.000000 
#    z 0.000000 0.000000 1.798720 
# 
# From -- ./inp_files/4803.got.cif
#   From: 2010.05.17/outbox.cif.g08.bks.cpg/sg73_3_cif.got.tgz:4803.got - 2010.06.03 17:35:07.
