data_PCOD9531184
_publ_section_title
;
Structure prediction by ZEFSAII (Michael W. Deem and Ramdas Pophale) SiO2 
 PCOD9531184
Probable space group: I B C A 
;
_chemical_formula_sum "Si O2"
_cell_formula_units_Z 72
_cell_length_a 8.706445
_cell_length_b 20.941928
_cell_length_c 20.488284
_cell_angle_alpha 90.000000
_cell_angle_beta 90.000000
_cell_angle_gamma 90.000000
_cell_volume 3735.623583
_symmetry_space_group_name_H-M "I B C A "
_symmetry_group_IT_number 73
_symmetry_cell_setting 'orthorhombic'
loop_
_space_group_symop_operation_xyz
x,y,z
-x,1/2-y,z
x,-y,1/2-z
1/2-x,y,-z
-x,-y,-z
x,1/2+y,-z
-x,y,1/2+z
1/2+x,-y,z
1/2+x,1/2+y,1/2+z
1/2-x,-y,1/2+z
1/2+x,1/2-y,-z
-x,1/2+y,1/2-z
1/2-x,1/2-y,1/2-z
1/2+x,y,1/2-z
1/2-x,1/2+y,z
x,1/2-y,1/2+z
loop_
_atom_site_type_symbol
_atom_site_label
_atom_site_fract_x
_atom_site_fract_y
_atom_site_fract_z
Si Si1 0.077741 0.181456 0.968368
Si Si2 0.081987 0.819151 0.677230
Si Si3 0.482021 0.085447 0.432915
Si Si4 0.444621 0.823781 0.688356
Si Si5 0.750000 0.495595 0.000000
O O1 0.074456 0.152408 0.895488
O O2 0.000000 0.250000 0.965159
O O3 0.250000 0.184307 0.000000
O O4 0.969164 0.140871 0.014084
O O5 0.262174 0.815900 0.690714
O O6 0.000000 0.750000 0.673460
O O7 0.003886 0.847909 0.741305
O O8 0.504486 0.124124 0.365627
O O9 0.342179 0.037910 0.447007
O O10 0.632601 0.047099 0.457815
O O11 0.500000 0.750000 0.675196
#
# Coordination Sequence:
#
# PCOD9531184 Si02
#       5
#    16  16  16  16   8
#     4  11  22  37  61  96 128 152 194 250 306 371
#     4  10  21  34  56  90 135 160 188 237 310 378
#     4  11  22  41  63  85 119 157 211 251 303 362
#     4  11  21  37  60  91 125 160 194 244 314 374
#     4  10  24  40  62  88 112 164 214 262 298 340
#
# _framework density 19.273890000000002
#
# number of rings (size 3 to 8) (size 9 to 14) (size 15 to 20)
#    0.000    1.333    3.333    3.333    1.556    3.556 
#    0.000    0.000    0.000   22.667    0.000    0.000 
#    0.000    0.000    0.000    0.000    0.000    0.000 
#
# Total GULP energy -200590.721467 kJ/mol
# GULP energy per Si atom -5571.964485 kJ/mol
# Density = 1.923002 g / cm^3
# Si number density = 19.273890 Si / 1000 Ang^3
#
#
#
# Elastic Constant Matrix: (Units=GPa)
#
#
# Indices 1 2 3 4 5 6 
#
# 1 44.0503 1.3188 24.5261 0.0000 0.0000 0.0000
# 2 1.3188 54.0403 30.2337 0.0000 0.0000 0.0000
# 3 24.5261 30.2337 179.3004 0.0000 0.0000 0.0000
# 4 0.0000 0.0000 0.0000 42.8456 0.0000 0.0000
# 5 0.0000 0.0000 0.0000 0.0000 26.0897 0.0000
# 6 0.0000 0.0000 0.0000 0.0000 0.0000 23.3724
#
#
#
# Elastic Compliance Matrix: (Units=1/GPa)
#
#
# Indices 1 2 3 4 5 6 
#
# 1 0.024671 0.001420 -0.003614 0.000000 0.000000 0.000000
# 2 0.001420 0.020514 -0.003653 0.000000 0.000000 0.000000
# 3 -0.003614 -0.003653 0.006688 0.000000 0.000000 0.000000
# 4 0.000000 0.000000 0.000000 0.023340 0.000000 0.000000
# 5 0.000000 0.000000 0.000000 0.000000 0.038329 0.000000
# 6 0.000000 0.000000 0.000000 0.000000 0.000000 0.042786
#
#
# Mechanical properties :
#
#
# Convention : Reuss Voigt Hill
#
# Bulk Modulus (GPa) = 24.88947 43.28314 34.08631
# Shear Modulus (GPa) = 27.56117 33.21570 30.38843
#
# Velocity S-wave (km/s) = 3.78560 4.15583 3.97503
# Velocity P-wave (km/s) = 5.66121 6.74785 6.22828
#
# Compressibility (1/GPa) = 0.04017763
#
# Stress axis : x y z
#
# Youngs Moduli (GPa) = 40.53327 48.74731 149.52994
#
# Poissons Ratio (x) = -0.06922 0.54042
# Poissons Ratio (y) = -0.05755 0.54628
# Poissons Ratio (z) = 0.14649 0.17809
#
# Static dielectric constant tensor:
#      x y z
#    x 1.604910 0.000000 0.000000 
#    y 0.000000 1.936350 0.000000 
#    z 0.000000 0.000000 1.731090 
# 
# From -- ./inp_files/6125.got.cif
#   From: 2010.05.17/outbox.cif.g08.bks.cpg/sg73_4_cif.got.tgz:6125.got - 2010.06.03 17:35:07.
