data_PCOD9531072
_publ_section_title
;
Structure prediction by ZEFSAII (Michael W. Deem and Ramdas Pophale) SiO2 
 PCOD9531072
Probable space group: I B C A 
;
_chemical_formula_sum "Si O2"
_cell_formula_units_Z 96
_cell_length_a 9.125642
_cell_length_b 22.714186
_cell_length_c 20.444375
_cell_angle_alpha 90.000000
_cell_angle_beta 90.000000
_cell_angle_gamma 90.000000
_cell_volume 4237.741325
_symmetry_space_group_name_H-M "I B C A "
_symmetry_group_IT_number 73
_symmetry_cell_setting 'orthorhombic'
loop_
_space_group_symop_operation_xyz
x,y,z
-x,1/2-y,z
x,-y,1/2-z
1/2-x,y,-z
-x,-y,-z
x,1/2+y,-z
-x,y,1/2+z
1/2+x,-y,z
1/2+x,1/2+y,1/2+z
1/2-x,-y,1/2+z
1/2+x,1/2-y,-z
-x,1/2+y,1/2-z
1/2-x,1/2-y,1/2-z
1/2+x,y,1/2-z
1/2-x,1/2+y,z
x,1/2-y,1/2+z
loop_
_atom_site_type_symbol
_atom_site_label
_atom_site_fract_x
_atom_site_fract_y
_atom_site_fract_z
Si Si1 0.059519 0.628261 0.696321
Si Si2 0.463238 0.078648 0.558570
Si Si3 0.750000 0.833444 0.500000
Si Si4 0.000000 0.750000 0.263309
Si Si5 0.157302 0.181383 0.640628
Si Si6 0.292719 0.990947 0.400789
Si Si7 0.467725 0.425499 0.333511
O O1 0.993481 0.607641 0.628125
O O2 0.006337 0.691760 0.720500
O O3 0.228451 0.639446 0.678228
O O4 0.038855 0.582995 0.755346
O O5 0.396544 0.127262 0.511016
O O6 0.322080 0.038249 0.572135
O O7 0.606913 0.040735 0.544112
O O8 0.780501 0.802789 0.430642
O O9 0.868150 0.762193 0.314115
O O10 0.014991 0.138920 0.638680
O O11 0.411711 0.027079 0.357536
O O12 0.188577 0.947117 0.360241
#
# Coordination Sequence:
#
# PCOD9531072 Si02
#       7
#    16  16   8   8  16  16  16
#     4  10  21  37  61  89 123 155 202 254 314 369
#     4  10  22  37  59  91 125 165 207 244 299 360
#     4  10  20  42  64  80 130 156 216 254 298 366
#     4  10  22  38  68  88 122 150 206 262 336 368
#     4  10  21  43  61  92 115 169 199 265 311 369
#     4  10  21  37  56  94 124 171 198 244 306 361
#     4  10  21  36  58  88 131 155 207 247 305 362
#
# _framework density 22.653576999999999
#
# number of rings (size 3 to 8) (size 9 to 14) (size 15 to 20)
#    0.000    2.000    3.333    0.500    4.667    4.667 
#    0.000    3.333    0.000    0.000    0.000    0.000 
#    0.000    0.000    0.000    0.000    0.000    0.000 
#
# Total GULP energy -267995.566899 kJ/mol
# GULP energy per Si atom -5583.240977 kJ/mol
# Density = 2.260202 g / cm^3
# Si number density = 22.653577 Si / 1000 Ang^3
#
#
#
# Elastic Constant Matrix: (Units=GPa)
#
#
# Indices 1 2 3 4 5 6 
#
# 1 109.2150 22.8048 24.1832 0.0000 0.0000 0.0000
# 2 22.8048 58.0146 21.2594 0.0000 0.0000 0.0000
# 3 24.1832 21.2594 115.9938 0.0000 0.0000 0.0000
# 4 0.0000 0.0000 0.0000 11.8108 0.0000 0.0000
# 5 0.0000 0.0000 0.0000 0.0000 22.9905 0.0000
# 6 0.0000 0.0000 0.0000 0.0000 0.0000 24.1739
#
#
#
# Elastic Compliance Matrix: (Units=1/GPa)
#
#
# Indices 1 2 3 4 5 6 
#
# 1 0.010211 -0.003466 -0.001493 0.000000 0.000000 0.000000
# 2 -0.003466 0.019655 -0.002880 0.000000 0.000000 0.000000
# 3 -0.001493 -0.002880 0.009460 0.000000 0.000000 0.000000
# 4 0.000000 0.000000 0.000000 0.084668 0.000000 0.000000
# 5 0.000000 0.000000 0.000000 0.000000 0.043496 0.000000
# 6 0.000000 0.000000 0.000000 0.000000 0.000000 0.041367
#
#
# Mechanical properties :
#
#
# Convention : Reuss Voigt Hill
#
# Bulk Modulus (GPa) = 42.28897 46.63535 44.46216
# Shear Modulus (GPa) = 21.51287 26.12676 23.81982
#
# Velocity S-wave (km/s) = 3.08498 3.39974 3.24617
# Velocity P-wave (km/s) = 5.60336 6.00349 5.80687
#
# Compressibility (1/GPa) = 0.02364683
#
# Stress axis : x y z
#
# Youngs Moduli (GPa) = 97.93582 50.87791 105.70492
#
# Poissons Ratio (x) = 0.17637 0.15787
# Poissons Ratio (y) = 0.33949 0.30439
# Poissons Ratio (z) = 0.14626 0.14651
#
# Static dielectric constant tensor:
#      x y z
#    x 1.890910 0.000000 0.000000 
#    y 0.000000 1.893620 0.000000 
#    z 0.000000 0.000000 1.881760 
# 
# From -- ./inp_files/24923.got.cif
#   From: 2010.05.17/outbox.cif.g08.bks.cpg/sg73_13_cif.got.tgz:24923.got - 2010.06.03 17:35:07.
