data_PCOD9531867
_publ_section_title
;
Structure prediction by ZEFSAII (Michael W. Deem and Ramdas Pophale) SiO2 
 PCOD9531867
Probable space group: I B C A 
;
_chemical_formula_sum "Si O2"
_cell_formula_units_Z 120
_cell_length_a 22.478042
_cell_length_b 8.624305
_cell_length_c 29.475800
_cell_angle_alpha 90.000000
_cell_angle_beta 90.000000
_cell_angle_gamma 90.000000
_cell_volume 5714.104604
_symmetry_space_group_name_H-M "I B C A "
_symmetry_group_IT_number 73
_symmetry_cell_setting 'orthorhombic'
loop_
_space_group_symop_operation_xyz
x,y,z
-x,1/2-y,z
x,-y,1/2-z
1/2-x,y,-z
-x,-y,-z
x,1/2+y,-z
-x,y,1/2+z
1/2+x,-y,z
1/2+x,1/2+y,1/2+z
1/2-x,-y,1/2+z
1/2+x,1/2-y,-z
-x,1/2+y,1/2-z
1/2-x,1/2-y,1/2-z
1/2+x,y,1/2-z
1/2-x,1/2+y,z
x,1/2-y,1/2+z
loop_
_atom_site_type_symbol
_atom_site_label
_atom_site_fract_x
_atom_site_fract_y
_atom_site_fract_z
Si Si1 0.824719 0.145397 0.947391
Si Si2 0.560479 0.070045 0.705543
Si Si3 0.750000 0.395401 0.000000
Si Si4 0.966335 0.585607 0.041902
Si Si5 0.690245 0.959767 0.698478
Si Si6 0.022458 0.925242 0.363304
Si Si7 0.282009 0.223816 0.654281
Si Si8 0.610336 0.082380 0.202447
O O1 0.894677 0.119693 0.958859
O O2 0.805906 0.178318 0.895292
O O3 0.785788 0.000280 0.964415
O O4 0.798870 0.289950 0.975449
O O5 0.619442 0.964375 0.702814
O O6 0.576947 0.250799 0.707346
O O7 0.527871 0.000000 0.750000
O O8 0.524882 0.038060 0.660363
O O9 0.000000 0.750000 0.048950
O O10 0.972891 0.471556 0.084679
O O11 0.000000 0.500000 0.000000
O O12 0.706294 0.098021 0.664376
O O13 0.711541 0.000000 0.750000
O O14 0.716318 0.812216 0.672795
O O15 0.000000 0.750000 0.356958
O O16 0.081635 0.972544 0.335841
O O17 0.323378 0.126686 0.688359
O O18 0.609596 0.000000 0.250000
#
# Coordination Sequence:
#
# PCOD9531867 Si02
#       8
#    16  16   8  16  16  16  16  16
#     4  11  23  47  69 105 135 179 230 284 356 417
#     4  10  22  41  61  92 130 174 224 275 338 404
#     4  10  24  44  74  98 138 176 226 292 350 422
#     4  12  26  47  73 102 141 178 227 287 350 420
#     4  10  22  38  60  94 133 177 223 276 337 406
#     4  12  25  42  64  95 127 172 225 274 339 408
#     4  11  22  39  64  92 134 172 227 272 344 409
#     4  11  22  39  64  90 129 174 215 277 332 405
#
# _framework density 21.000664
#
# number of rings (size 3 to 8) (size 9 to 14) (size 15 to 20)
#    0.000    1.067    1.333    5.200    1.867    3.200 
#    7.200    0.000    0.000    0.000    0.000    0.000 
#    0.000    0.000    0.000    0.000    0.000    0.000 
#
# Total GULP energy -335117.707155 kJ/mol
# GULP energy per Si atom -5585.295119 kJ/mol
# Density = 2.095287 g / cm^3
# Si number density = 21.000664 Si / 1000 Ang^3
#
#
#
# Elastic Constant Matrix: (Units=GPa)
#
#
# Indices 1 2 3 4 5 6 
#
# 1 57.2082 7.8833 12.2432 0.0000 0.0000 0.0000
# 2 7.8833 72.0647 19.8218 0.0000 0.0000 0.0000
# 3 12.2432 19.8218 122.4334 0.0000 0.0000 0.0000
# 4 0.0000 0.0000 0.0000 222.9983 0.0000 0.0000
# 5 0.0000 0.0000 0.0000 0.0000 24.6331 0.0000
# 6 0.0000 0.0000 0.0000 0.0000 0.0000 12.5805
#
#
#
# Elastic Compliance Matrix: (Units=1/GPa)
#
#
# Indices 1 2 3 4 5 6 
#
# 1 0.018025 -0.001545 -0.001552 0.000000 0.000000 0.000000
# 2 -0.001545 0.014656 -0.002218 0.000000 0.000000 0.000000
# 3 -0.001552 -0.002218 0.008682 0.000000 0.000000 0.000000
# 4 0.000000 0.000000 0.000000 0.004484 0.000000 0.000000
# 5 0.000000 0.000000 0.000000 0.000000 0.040596 0.000000
# 6 0.000000 0.000000 0.000000 0.000000 0.000000 0.079488
#
#
# Mechanical properties :
#
#
# Convention : Reuss Voigt Hill
#
# Bulk Modulus (GPa) = 32.53953 36.84478 34.69215
# Shear Modulus (GPa) = 26.76574 66.15957 46.46265
#
# Velocity S-wave (km/s) = 3.57391 5.61889 4.70876
# Velocity P-wave (km/s) = 5.70602 7.72519 6.79107
#
# Compressibility (1/GPa) = 0.03073185
#
# Stress axis : x y z
#
# Youngs Moduli (GPa) = 55.47815 68.23357 115.17987
#
# Poissons Ratio (x) = 0.10541 0.17880
# Poissons Ratio (y) = 0.08570 0.25550
# Poissons Ratio (z) = 0.08612 0.15136
#
# Static dielectric constant tensor:
#      x y z
#    x 1.812620 0.000000 0.000000 
#    y 0.000000 1.730810 0.000000 
#    z 0.000000 0.000000 1.743480 
# 
# From -- ./inp_files/32894.got.cif
#   From: 2010.05.17/outbox.cif.g08.bks.cpg/sg73_17_cif.got.tgz:32894.got - 2010.06.03 17:35:07.
