data_PCOD9531012
_publ_section_title
;
Structure prediction by ZEFSAII (Michael W. Deem and Ramdas Pophale) SiO2 
 PCOD9531012
Probable space group: I B C A 
;
_chemical_formula_sum "Si O2"
_cell_formula_units_Z 120
_cell_length_a 15.313945
_cell_length_b 17.769268
_cell_length_c 23.325868
_cell_angle_alpha 90.000000
_cell_angle_beta 90.000000
_cell_angle_gamma 90.000000
_cell_volume 6347.379051
_symmetry_space_group_name_H-M "I B C A "
_symmetry_group_IT_number 73
_symmetry_cell_setting 'orthorhombic'
loop_
_space_group_symop_operation_xyz
x,y,z
-x,1/2-y,z
x,-y,1/2-z
1/2-x,y,-z
-x,-y,-z
x,1/2+y,-z
-x,y,1/2+z
1/2+x,-y,z
1/2+x,1/2+y,1/2+z
1/2-x,-y,1/2+z
1/2+x,1/2-y,-z
-x,1/2+y,1/2-z
1/2-x,1/2-y,1/2-z
1/2+x,y,1/2-z
1/2-x,1/2+y,z
x,1/2-y,1/2+z
loop_
_atom_site_type_symbol
_atom_site_label
_atom_site_fract_x
_atom_site_fract_y
_atom_site_fract_z
Si Si1 0.164111 0.163611 0.960025
Si Si2 0.776250 0.920932 0.651725
Si Si3 0.818466 0.184647 0.239061
Si Si4 0.667553 0.333467 0.538640
Si Si5 0.500000 0.250000 0.723550
Si Si6 0.970148 0.905674 0.657977
Si Si7 0.662176 0.929982 0.841895
Si Si8 0.493458 0.085639 0.520149
O O1 0.141250 0.249398 0.941970
O O2 0.170581 0.114647 0.902052
O O3 0.081923 0.129108 0.994035
O O4 0.250000 0.158554 0.000000
O O5 0.716368 0.860015 0.684010
O O6 0.799551 0.886636 0.589790
O O7 0.874575 0.934118 0.676710
O O8 0.722051 0.997334 0.653026
O O9 0.750000 0.250000 0.250000
O O10 0.811201 0.125792 0.291247
O O11 0.915802 0.220865 0.240586
O O12 0.750000 0.319977 0.500000
O O13 0.593199 0.372235 0.499919
O O14 0.476168 0.178734 0.683363
O O15 0.978285 0.906898 0.588834
O O16 0.060312 0.948212 0.673156
O O17 0.500000 0.000000 0.500000
#
# Coordination Sequence:
#
# PCOD9531012 Si02
#       8
#    16  16  16  16   8  16  16  16
#     4  10  22  39  61  87 120 166 209 253 306 383
#     4  11  22  39  64  90 122 161 203 266 320 380
#     4  11  21  40  65  91 121 159 212 254 315 375
#     4  10  23  39  63  86 120 163 209 252 314 381
#     4  10  20  40  68  94 114 168 214 270 290 392
#     4   9  21  37  62  87 117 159 210 246 316 365
#     4  10  23  38  61  90 125 156 207 258 313 381
#     4  10  22  33  61  90 121 155 204 256 307 363
#
# _framework density 18.905441
#
# number of rings (size 3 to 8) (size 9 to 14) (size 15 to 20)
#    0.000    1.867    1.333    1.600   16.800    0.000 
#    2.400    1.333    5.867    0.000    0.000    0.000 
#    0.000    0.000    0.000    0.000    0.000    0.000 
#
# Total GULP energy -334258.100246 kJ/mol
# GULP energy per Si atom -5570.968337 kJ/mol
# Density = 1.886241 g / cm^3
# Si number density = 18.905441 Si / 1000 Ang^3
#
#
#
# Elastic Constant Matrix: (Units=GPa)
#
#
# Indices 1 2 3 4 5 6 
#
# 1 162.9017 91.3305 27.6449 0.0000 0.0000 0.0000
# 2 91.3305 123.2095 -2.7654 0.0000 0.0000 0.0000
# 3 27.6449 -2.7654 19.6603 0.0000 0.0000 0.0000
# 4 0.0000 0.0000 0.0000 59.7829 0.0000 0.0000
# 5 0.0000 0.0000 0.0000 0.0000 25.5597 0.0000
# 6 0.0000 0.0000 0.0000 0.0000 0.0000 45.7564
#
#
#
# Elastic Compliance Matrix: (Units=1/GPa)
#
#
# Indices 1 2 3 4 5 6 
#
# 1 0.019917 -0.015441 -0.030177 0.000000 0.000000 0.000000
# 2 -0.015441 0.020113 0.024541 0.000000 0.000000 0.000000
# 3 -0.030177 0.024541 0.096749 0.000000 0.000000 0.000000
# 4 0.000000 0.000000 0.000000 0.016727 0.000000 0.000000
# 5 0.000000 0.000000 0.000000 0.000000 0.039124 0.000000
# 6 0.000000 0.000000 0.000000 0.000000 0.000000 0.021855
#
#
# Mechanical properties :
#
#
# Convention : Reuss Voigt Hill
#
# Bulk Modulus (GPa) = 10.56819 59.79904 35.18361
# Shear Modulus (GPa) = 17.35026 38.85724 28.10375
#
# Velocity S-wave (km/s) = 3.03271 4.53851 3.85975
# Velocity P-wave (km/s) = 4.22673 7.69177 6.20599
#
# Compressibility (1/GPa) = 0.09462356
#
# Stress axis : x y z
#
# Youngs Moduli (GPa) = 50.20918 49.71975 10.33605
#
# Poissons Ratio (x) = 0.76771 0.31191
# Poissons Ratio (y) = 0.77527 -0.25365
# Poissons Ratio (z) = 1.51517 -1.22016
#
# Static dielectric constant tensor:
#      x y z
#    x 0.761230 0.000000 0.000000 
#    y 0.000000 1.669850 0.000000 
#    z 0.000000 0.000000 1.610170 
# 
# From -- ./inp_files/29656.got.cif
#   From: 2010.05.17/outbox.cif.g08.bks.cpg/sg73_15_cif.got.tgz:29656.got - 2010.06.03 17:35:07.
