data_PCOD9531892
_publ_section_title
;
Structure prediction by ZEFSAII (Michael W. Deem and Ramdas Pophale) SiO2 
 PCOD9531892
Probable space group: I B C A 
;
_chemical_formula_sum "Si O2"
_cell_formula_units_Z 64
_cell_length_a 9.057809
_cell_length_b 18.001829
_cell_length_c 16.358585
_cell_angle_alpha 90.000000
_cell_angle_beta 90.000000
_cell_angle_gamma 90.000000
_cell_volume 2667.383900
_symmetry_space_group_name_H-M "I B C A "
_symmetry_group_IT_number 73
_symmetry_cell_setting 'orthorhombic'
loop_
_space_group_symop_operation_xyz
x,y,z
-x,1/2-y,z
x,-y,1/2-z
1/2-x,y,-z
-x,-y,-z
x,1/2+y,-z
-x,y,1/2+z
1/2+x,-y,z
1/2+x,1/2+y,1/2+z
1/2-x,-y,1/2+z
1/2+x,1/2-y,-z
-x,1/2+y,1/2-z
1/2-x,1/2-y,1/2-z
1/2+x,y,1/2-z
1/2-x,1/2+y,z
x,1/2-y,1/2+z
loop_
_atom_site_type_symbol
_atom_site_label
_atom_site_fract_x
_atom_site_fract_y
_atom_site_fract_z
Si Si1 0.750000 0.474450 0.500000
Si Si2 0.535689 0.598148 0.432859
Si Si3 0.274818 0.320394 0.193041
Si Si4 0.000000 0.250000 0.937235
Si Si5 0.466982 0.911068 0.248946
O O1 0.638695 0.529673 0.454768
O O2 0.635204 0.428210 0.555752
O O3 0.555215 0.675424 0.481830
O O4 0.581034 0.614612 0.339698
O O5 0.250000 0.250000 0.250000
O O6 0.367900 0.285321 0.118042
O O7 0.367722 0.380410 0.246176
O O8 0.123564 0.366396 0.180404
O O9 0.459118 0.000000 0.250000
#
# Coordination Sequence:
#
# PCOD9531892 Si02
#       5
#     8  16  16   8  16
#     4  10  24  44  62  84 120 166 214 260 298 356
#     4  10  23  42  63  86 121 161 210 258 305 366
#     4  11  19  38  56  92 125 159 189 248 315 379
#     4  10  22  38  66  88 126 158 202 256 312 380
#     4  11  24  35  63  95 127 160 202 252 324 383
#
# _framework density 23.993548000000001
#
# number of rings (size 3 to 8) (size 9 to 14) (size 15 to 20)
#    0.000    1.500    5.000    0.750   10.500    1.000 
#    0.000    0.000    0.000    0.000    0.000    0.000 
#    0.000    0.000    0.000    0.000    0.000    0.000 
#
# Total GULP energy -178227.801578 kJ/mol
# GULP energy per Si atom -5569.618799 kJ/mol
# Density = 2.393894 g / cm^3
# Si number density = 23.993548 Si / 1000 Ang^3
#
#
#
# Elastic Constant Matrix: (Units=GPa)
#
#
# Indices 1 2 3 4 5 6 
#
# 1 95.8573 21.0071 14.7182 0.0000 0.0000 0.0000
# 2 21.0071 196.4919 1.6318 0.0000 0.0000 0.0000
# 3 14.7182 1.6318 25.4987 0.0000 0.0000 0.0000
# 4 0.0000 0.0000 0.0000 61.0911 0.0000 0.0000
# 5 0.0000 0.0000 0.0000 0.0000 17.7738 0.0000
# 6 0.0000 0.0000 0.0000 0.0000 0.0000 46.7507
#
#
#
# Elastic Compliance Matrix: (Units=1/GPa)
#
#
# Indices 1 2 3 4 5 6 
#
# 1 0.011722 -0.001198 -0.006689 0.000000 0.000000 0.000000
# 2 -0.001198 0.005214 0.000358 0.000000 0.000000 0.000000
# 3 -0.006689 0.000358 0.043056 0.000000 0.000000 0.000000
# 4 0.000000 0.000000 0.000000 0.016369 0.000000 0.000000
# 5 0.000000 0.000000 0.000000 0.000000 0.056263 0.000000
# 6 0.000000 0.000000 0.000000 0.000000 0.000000 0.021390
#
#
# Mechanical properties :
#
#
# Convention : Reuss Voigt Hill
#
# Bulk Modulus (GPa) = 22.25514 43.61800 32.93657
# Shear Modulus (GPa) = 27.16650 43.82251 35.49450
#
# Velocity S-wave (km/s) = 3.36853 4.27831 3.85039
# Velocity P-wave (km/s) = 4.94216 6.52869 5.79002
#
# Compressibility (1/GPa) = 0.04493343
#
# Stress axis : x y z
#
# Youngs Moduli (GPa) = 85.31168 191.77885 23.22555
#
# Poissons Ratio (x) = 0.22968 0.15536
# Poissons Ratio (y) = 0.10217 -0.00831
# Poissons Ratio (z) = 0.57068 -0.06858
#
# Static dielectric constant tensor:
#      x y z
#    x 1.584170 0.000000 0.000000 
#    y 0.000000 2.034520 0.000000 
#    z 0.000000 0.000000 1.848890 
# 
# From -- ./inp_files/5248.got.cif
#   From: 2010.05.17/outbox.cif.g08.bks.cpg/sg73_3_cif.got.tgz:5248.got - 2010.06.03 17:35:07.
