data_PCOD9531414
_publ_section_title
;
Structure prediction by ZEFSAII (Michael W. Deem and Ramdas Pophale) SiO2 
 PCOD9531414
Probable space group: I B C A 
;
_chemical_formula_sum "Si O2"
_cell_formula_units_Z 112
_cell_length_a 17.235430
_cell_length_b 17.618766
_cell_length_c 19.850883
_cell_angle_alpha 90.000000
_cell_angle_beta 90.000000
_cell_angle_gamma 90.000000
_cell_volume 6028.058248
_symmetry_space_group_name_H-M "I B C A "
_symmetry_group_IT_number 73
_symmetry_cell_setting 'orthorhombic'
loop_
_space_group_symop_operation_xyz
x,y,z
-x,1/2-y,z
x,-y,1/2-z
1/2-x,y,-z
-x,-y,-z
x,1/2+y,-z
-x,y,1/2+z
1/2+x,-y,z
1/2+x,1/2+y,1/2+z
1/2-x,-y,1/2+z
1/2+x,1/2-y,-z
-x,1/2+y,1/2-z
1/2-x,1/2-y,1/2-z
1/2+x,y,1/2-z
1/2-x,1/2+y,z
x,1/2-y,1/2+z
loop_
_atom_site_type_symbol
_atom_site_label
_atom_site_fract_x
_atom_site_fract_y
_atom_site_fract_z
Si Si1 0.598641 0.062781 0.046011
Si Si2 0.180986 0.562804 0.136720
Si Si3 0.968565 0.334753 0.708278
Si Si4 0.672146 0.711466 0.276645
Si Si5 0.592303 0.867156 0.312568
Si Si6 0.250000 0.520480 0.000000
Si Si7 0.462213 0.454736 0.903925
Si Si8 0.201420 0.000000 0.250000
O O1 0.593933 0.120181 0.107743
O O2 0.684343 0.030013 0.035827
O O3 0.537894 0.998994 0.070701
O O4 0.573261 0.084677 0.970608
O O5 0.176131 0.647246 0.166707
O O6 0.211950 0.566850 0.060469
O O7 0.101970 0.512466 0.128444
O O8 0.242310 0.522803 0.187798
O O9 0.876320 0.328849 0.717277
O O10 0.987096 0.392833 0.649800
O O11 0.000000 0.250000 0.695017
O O12 0.008625 0.367222 0.776156
O O13 0.750000 0.750000 0.250000
O O14 0.622427 0.782887 0.299970
O O15 0.646789 0.930393 0.275713
#
# Coordination Sequence:
#
# PCOD9531414 Si02
#       8
#    16  16  16  16  16   8  16   8
#     4  10  21  39  61  90 122 164 206 267 313 388
#     4  11  22  38  61  90 119 166 207 263 315 387
#     4  10  23  40  61  91 124 162 205 265 322 389
#     4  11  23  39  58  89 129 160 208 269 322 381
#     4  11  22  38  62  90 121 161 210 258 323 383
#     4  10  22  38  60  88 128 156 214 256 320 382
#     4  10  22  40  63  89 124 161 215 259 323 385
#     4  12  20  34  70  90 112 164 216 260 324 380
#
# _framework density 18.579781000000001
#
# number of rings (size 3 to 8) (size 9 to 14) (size 15 to 20)
#    0.000    1.429    2.857    2.571    0.000    1.143 
#    0.000    8.571    0.000    0.000    0.000    0.000 
#    0.000    0.000    0.000    0.000    0.000    0.000 
#
# Total GULP energy -312259.594892 kJ/mol
# GULP energy per Si atom -5576.064194 kJ/mol
# Density = 1.853749 g / cm^3
# Si number density = 18.579781 Si / 1000 Ang^3
#
#
#
# Elastic Constant Matrix: (Units=GPa)
#
#
# Indices 1 2 3 4 5 6 
#
# 1 88.8488 14.8808 17.8991 0.0000 0.0000 0.0000
# 2 14.8808 69.6189 33.5497 0.0000 0.0000 0.0000
# 3 17.8991 33.5497 85.7614 0.0000 0.0000 0.0000
# 4 0.0000 0.0000 0.0000 20.9580 0.0000 0.0000
# 5 0.0000 0.0000 0.0000 0.0000 28.5194 0.0000
# 6 0.0000 0.0000 0.0000 0.0000 0.0000 21.1315
#
#
#
# Elastic Compliance Matrix: (Units=1/GPa)
#
#
# Indices 1 2 3 4 5 6 
#
# 1 0.011903 -0.001660 -0.001835 0.000000 0.000000 0.000000
# 2 -0.001660 0.017932 -0.006669 0.000000 0.000000 0.000000
# 3 -0.001835 -0.006669 0.014652 0.000000 0.000000 0.000000
# 4 0.000000 0.000000 0.000000 0.047714 0.000000 0.000000
# 5 0.000000 0.000000 0.000000 0.000000 0.035064 0.000000
# 6 0.000000 0.000000 0.000000 0.000000 0.000000 0.047323
#
#
# Mechanical properties :
#
#
# Convention : Reuss Voigt Hill
#
# Bulk Modulus (GPa) = 41.39041 41.87648 41.63344
# Shear Modulus (GPa) = 24.63437 25.98174 25.30806
#
# Velocity S-wave (km/s) = 3.64520 3.74356 3.69471
# Velocity P-wave (km/s) = 6.32788 6.42443 6.37634
#
# Compressibility (1/GPa) = 0.02416019
#
# Stress axis : x y z
#
# Youngs Moduli (GPa) = 84.01431 55.76495 68.25014
#
# Poissons Ratio (x) = 0.09257 0.12523
# Poissons Ratio (y) = 0.13946 0.45514
# Poissons Ratio (z) = 0.15415 0.37188
#
# Static dielectric constant tensor:
#      x y z
#    x 1.702010 0.000000 0.000000 
#    y 0.000000 1.614260 0.000000 
#    z 0.000000 0.000000 1.649300 
# 
# From -- ./inp_files/26628.got.cif
#   From: 2010.05.17/outbox.cif.g08.bks.cpg/sg73_14_cif.got.tgz:26628.got - 2010.06.03 17:35:07.
