data_PCOD9531199
_publ_section_title
;
Structure prediction by ZEFSAII (Michael W. Deem and Ramdas Pophale) SiO2 
 PCOD9531199
Probable space group: I B C A 
;
_chemical_formula_sum "Si O2"
_cell_formula_units_Z 88
_cell_length_a 14.264924
_cell_length_b 11.710456
_cell_length_c 21.745833
_cell_angle_alpha 90.000000
_cell_angle_beta 90.000000
_cell_angle_gamma 90.000000
_cell_volume 3632.614543
_symmetry_space_group_name_H-M "I B C A "
_symmetry_group_IT_number 73
_symmetry_cell_setting 'orthorhombic'
loop_
_space_group_symop_operation_xyz
x,y,z
-x,1/2-y,z
x,-y,1/2-z
1/2-x,y,-z
-x,-y,-z
x,1/2+y,-z
-x,y,1/2+z
1/2+x,-y,z
1/2+x,1/2+y,1/2+z
1/2-x,-y,1/2+z
1/2+x,1/2-y,-z
-x,1/2+y,1/2-z
1/2-x,1/2-y,1/2-z
1/2+x,y,1/2-z
1/2-x,1/2+y,z
x,1/2-y,1/2+z
loop_
_atom_site_type_symbol
_atom_site_label
_atom_site_fract_x
_atom_site_fract_y
_atom_site_fract_z
Si Si1 0.861663 0.452701 0.362796
Si Si2 0.594284 0.806358 0.469555
Si Si3 0.981042 0.618177 0.910696
Si Si4 0.324512 0.955040 0.368200
Si Si5 0.526232 0.372911 0.219852
Si Si6 0.250000 0.141482 0.000000
O O1 0.842565 0.363977 0.418058
O O2 0.769107 0.505511 0.334590
O O3 0.927258 0.548190 0.393735
O O4 0.929270 0.393803 0.315175
O O5 0.500000 0.750000 0.441498
O O6 0.549744 0.891994 0.518395
O O7 0.658958 0.721460 0.508850
O O8 0.894210 0.561645 0.875828
O O9 0.000000 0.750000 0.898385
O O10 0.387059 0.865578 0.329305
O O11 0.283983 0.920288 0.436539
O O12 0.500000 0.250000 0.252125
O O13 0.543153 0.500000 0.250000
#
# Coordination Sequence:
#
# PCOD9531199 Si02
#       6
#    16  16  16  16  16   8
#     4  11  22  40  66  97 132 178 232 293 355 424
#     4  11  20  34  58  94 141 188 224 276 344 429
#     4  10  21  35  56  92 139 186 227 272 338 428
#     4  11  23  41  67 102 139 181 232 295 362 438
#     4  11  27  51  75 100 136 186 249 312 363 417
#     4  12  22  36  64 102 144 186 228 282 360 450
#
# _framework density 24.224974
#
# number of rings (size 3 to 8) (size 9 to 14) (size 15 to 20)
#    0.000    1.091    0.000    8.727    0.000    5.091 
#    0.000    1.818    0.000    0.000    0.000    0.000 
#    0.000    0.000    0.000    0.000    0.000    0.000 
#
# Total GULP energy -245477.275197 kJ/mol
# GULP energy per Si atom -5579.028982 kJ/mol
# Density = 2.416984 g / cm^3
# Si number density = 24.224974 Si / 1000 Ang^3
#
#
#
# Elastic Constant Matrix: (Units=GPa)
#
#
# Indices 1 2 3 4 5 6 
#
# 1 169.7505 33.0970 18.1027 0.0000 0.0000 0.0000
# 2 33.0970 115.3863 35.8636 0.0000 0.0000 0.0000
# 3 18.1027 35.8636 70.0233 0.0000 0.0000 0.0000
# 4 0.0000 0.0000 0.0000 35.3709 0.0000 0.0000
# 5 0.0000 0.0000 0.0000 0.0000 13.9040 0.0000
# 6 0.0000 0.0000 0.0000 0.0000 0.0000 28.2585
#
#
#
# Elastic Compliance Matrix: (Units=1/GPa)
#
#
# Indices 1 2 3 4 5 6 
#
# 1 0.006281 -0.001542 -0.000834 0.000000 0.000000 0.000000
# 2 -0.001542 0.010686 -0.005074 0.000000 0.000000 0.000000
# 3 -0.000834 -0.005074 0.017095 0.000000 0.000000 0.000000
# 4 0.000000 0.000000 0.000000 0.028272 0.000000 0.000000
# 5 0.000000 0.000000 0.000000 0.000000 0.071922 0.000000
# 6 0.000000 0.000000 0.000000 0.000000 0.000000 0.035388
#
#
# Mechanical properties :
#
#
# Convention : Reuss Voigt Hill
#
# Bulk Modulus (GPa) = 52.18864 58.80963 55.49914
# Shear Modulus (GPa) = 26.18740 33.37980 29.78360
#
# Velocity S-wave (km/s) = 3.29144 3.71605 3.51017
# Velocity P-wave (km/s) = 6.00290 6.53767 6.27598
#
# Compressibility (1/GPa) = 0.01916126
#
# Stress axis : x y z
#
# Youngs Moduli (GPa) = 159.21956 93.57939 58.49530
#
# Poissons Ratio (x) = 0.14433 0.04877
# Poissons Ratio (y) = 0.24558 0.29682
# Poissons Ratio (z) = 0.13275 0.47485
#
# Static dielectric constant tensor:
#      x y z
#    x 1.897470 0.000000 0.000000 
#    y 0.000000 2.033940 0.000000 
#    z 0.000000 0.000000 2.044770 
# 
# From -- ./inp_files/29411.got.cif
#   From: 2010.05.17/outbox.cif.g08.bks.cpg/sg73_15_cif.got.tgz:29411.got - 2010.06.03 17:35:07.
