data_PCOD9531861
_publ_section_title
;
Structure prediction by ZEFSAII (Michael W. Deem and Ramdas Pophale) SiO2 
 PCOD9531861
Probable space group: I B C A 
;
_chemical_formula_sum "Si O2"
_cell_formula_units_Z 128
_cell_length_a 23.638177
_cell_length_b 24.472507
_cell_length_c 10.248238
_cell_angle_alpha 90.000000
_cell_angle_beta 90.000000
_cell_angle_gamma 90.000000
_cell_volume 5928.456593
_symmetry_space_group_name_H-M "I B C A "
_symmetry_group_IT_number 73
_symmetry_cell_setting 'orthorhombic'
loop_
_space_group_symop_operation_xyz
x,y,z
-x,1/2-y,z
x,-y,1/2-z
1/2-x,y,-z
-x,-y,-z
x,1/2+y,-z
-x,y,1/2+z
1/2+x,-y,z
1/2+x,1/2+y,1/2+z
1/2-x,-y,1/2+z
1/2+x,1/2-y,-z
-x,1/2+y,1/2-z
1/2-x,1/2-y,1/2-z
1/2+x,y,1/2-z
1/2-x,1/2+y,z
x,1/2-y,1/2+z
loop_
_atom_site_type_symbol
_atom_site_label
_atom_site_fract_x
_atom_site_fract_y
_atom_site_fract_z
Si Si1 0.965124 0.880262 0.592533
Si Si2 0.649636 0.940115 0.442983
Si Si3 0.581845 0.308670 0.366963
Si Si4 0.910224 0.120148 0.395679
Si Si5 0.202531 0.860753 0.272378
Si Si6 0.088440 0.184798 0.169818
Si Si7 0.313389 0.444467 0.494382
Si Si8 0.799604 0.649514 0.897941
O O1 0.915263 0.922726 0.565650
O O2 0.958553 0.836860 0.473593
O O3 0.949051 0.849533 0.727525
O O4 0.027132 0.905947 0.598498
O O5 0.682990 0.907485 0.330348
O O6 0.677660 0.912046 0.571929
O O7 0.654069 0.004508 0.432437
O O8 0.587213 0.342384 0.232655
O O9 0.567571 0.246281 0.341501
O O10 0.646140 0.313111 0.421426
O O11 0.908409 0.156358 0.528178
O O12 0.856913 0.078820 0.397026
O O13 0.152785 0.816296 0.272541
O O14 0.198896 0.891796 0.407373
O O15 0.266075 0.843992 0.237112
O O16 0.250000 0.468786 0.500000
O O17 0.750000 0.662853 0.000000
#
# Coordination Sequence:
#
# PCOD9531861 Si02
#       8
#    16  16  16  16  16  16  16  16
#     4  10  22  41  59  82 117 154 196 239 287 353
#     4   9  19  35  58  81 107 152 197 232 283 350
#     4  11  22  38  60  87 117 155 199 243 288 342
#     4  11  24  38  58  89 119 148 191 248 294 336
#     4   9  18  34  53  79 113 149 191 237 284 346
#     4  10  22  38  59  85 115 154 197 239 292 345
#     4  11  21  35  56  84 116 147 186 240 294 342
#     4   9  18  35  56  82 117 156 197 237 284 348
#
# _framework density 21.590779000000001
#
# number of rings (size 3 to 8) (size 9 to 14) (size 15 to 20)
#    0.000    2.000    0.000    4.500    0.000    4.000 
#    0.000    7.500    0.000    6.000    0.000    0.000 
#    0.000    0.000    0.000    0.000    0.000    0.000 
#
# Total GULP energy -356847.105232 kJ/mol
# GULP energy per Si atom -5575.736019 kJ/mol
# Density = 2.154164 g / cm^3
# Si number density = 21.590779 Si / 1000 Ang^3
#
#
#
# Elastic Constant Matrix: (Units=GPa)
#
#
# Indices 1 2 3 4 5 6 
#
# 1 124.0047 11.4863 3.5972 0.0000 0.0000 0.0000
# 2 11.4863 46.4322 1.9537 0.0000 0.0000 0.0000
# 3 3.5972 1.9537 81.9551 0.0000 0.0000 0.0000
# 4 0.0000 0.0000 0.0000 179.8619 0.0000 0.0000
# 5 0.0000 0.0000 0.0000 0.0000 26.8302 0.0000
# 6 0.0000 0.0000 0.0000 0.0000 0.0000 1.1573
#
#
#
# Elastic Compliance Matrix: (Units=1/GPa)
#
#
# Indices 1 2 3 4 5 6 
#
# 1 0.008261 -0.002030 -0.000314 0.000000 0.000000 0.000000
# 2 -0.002030 0.022057 -0.000437 0.000000 0.000000 0.000000
# 3 -0.000314 -0.000437 0.012226 0.000000 0.000000 0.000000
# 4 0.000000 0.000000 0.000000 0.005560 0.000000 0.000000
# 5 0.000000 0.000000 0.000000 0.000000 0.037271 0.000000
# 6 0.000000 0.000000 0.000000 0.000000 0.000000 0.864054
#
#
# Mechanical properties :
#
#
# Convention : Reuss Voigt Hill
#
# Bulk Modulus (GPa) = 27.04011 31.82961 29.43486
# Shear Modulus (GPa) = 5.16892 57.26020 31.21456
#
# Velocity S-wave (km/s) = 1.54895 5.15541 3.80641
# Velocity P-wave (km/s) = 3.96864 7.08603 5.74291
#
# Compressibility (1/GPa) = 0.03698210
#
# Stress axis : x y z
#
# Youngs Moduli (GPa) = 121.04475 45.33613 81.79288
#
# Poissons Ratio (x) = 0.09205 0.02570
# Poissons Ratio (y) = 0.24578 0.03572
# Poissons Ratio (z) = 0.03803 0.01980
#
# Static dielectric constant tensor:
#      x y z
#    x 1.908730 0.000000 0.000000 
#    y 0.000000 1.744250 0.000000 
#    z 0.000000 0.000000 1.894950 
# 
# From -- ./inp_files/13928.got.cif
#   From: 2010.05.17/outbox.cif.g08.bks.cpg/sg73_7_cif.got.tgz:13928.got - 2010.06.03 17:35:07.
