data_PCOD9531689
_publ_section_title
;
Structure prediction by ZEFSAII (Michael W. Deem and Ramdas Pophale) SiO2 
 PCOD9531689
Probable space group: I B C A 
;
_chemical_formula_sum "Si O2"
_cell_formula_units_Z 88
_cell_length_a 17.700002
_cell_length_b 17.691870
_cell_length_c 13.485793
_cell_angle_alpha 90.000000
_cell_angle_beta 90.000000
_cell_angle_gamma 90.000000
_cell_volume 4223.023947
_symmetry_space_group_name_H-M "I B C A "
_symmetry_group_IT_number 73
_symmetry_cell_setting 'orthorhombic'
loop_
_space_group_symop_operation_xyz
x,y,z
-x,1/2-y,z
x,-y,1/2-z
1/2-x,y,-z
-x,-y,-z
x,1/2+y,-z
-x,y,1/2+z
1/2+x,-y,z
1/2+x,1/2+y,1/2+z
1/2-x,-y,1/2+z
1/2+x,1/2-y,-z
-x,1/2+y,1/2-z
1/2-x,1/2-y,1/2-z
1/2+x,y,1/2-z
1/2-x,1/2+y,z
x,1/2-y,1/2+z
loop_
_atom_site_type_symbol
_atom_site_label
_atom_site_fract_x
_atom_site_fract_y
_atom_site_fract_z
Si Si1 0.500000 0.250000 0.449734
Si Si2 0.937099 0.609045 0.533654
Si Si3 0.334909 0.879124 0.987519
Si Si4 0.055064 0.988691 0.133422
Si Si5 0.687046 0.783352 0.884280
Si Si6 0.149706 0.272891 0.155163
O O1 0.496424 0.322272 0.520755
O O2 0.428485 0.261794 0.379523
O O3 0.937689 0.565556 0.429185
O O4 0.858052 0.647717 0.564878
O O5 0.973436 0.550017 0.611443
O O6 0.384794 0.934675 0.922538
O O7 0.333709 0.796952 0.933966
O O8 0.250000 0.909402 0.000000
O O9 0.354290 0.854276 0.099893
O O10 0.067749 0.000000 0.250000
O O11 0.778473 0.777417 0.881248
O O12 0.659501 0.782138 0.771202
#
# Coordination Sequence:
#
# PCOD9531689 Si02
#       6
#     8  16  16  16  16  16
#     4  12  22  40  70  96 130 174 220 290 342 394
#     4  11  24  42  66 100 136 178 229 291 344 411
#     4  10  21  43  62  91 138 175 218 285 342 407
#     4  11  26  43  64  99 140 188 235 279 349 424
#     4  10  22  41  69  99 130 177 228 285 350 410
#     4  10  22  39  68 101 132 167 228 288 348 408
#
# _framework density 20.838148
#
# number of rings (size 3 to 8) (size 9 to 14) (size 15 to 20)
#    0.000    1.455    3.636    0.000    5.091    0.727 
#    3.273    0.000    0.000    0.000    0.000    0.000 
#    0.000    0.000    0.000    0.000    0.000    0.000 
#
# Total GULP energy -245392.405052 kJ/mol
# GULP energy per Si atom -5577.100115 kJ/mol
# Density = 2.079072 g / cm^3
# Si number density = 20.838148 Si / 1000 Ang^3
#
#
#
# Elastic Constant Matrix: (Units=GPa)
#
#
# Indices 1 2 3 4 5 6 
#
# 1 108.4116 32.4321 29.6759 0.0000 0.0000 0.0000
# 2 32.4321 105.6214 43.1717 0.0000 0.0000 0.0000
# 3 29.6759 43.1717 128.4864 0.0000 0.0000 0.0000
# 4 0.0000 0.0000 0.0000 23.5234 0.0000 0.0000
# 5 0.0000 0.0000 0.0000 0.0000 29.8907 0.0000
# 6 0.0000 0.0000 0.0000 0.0000 0.0000 30.1552
#
#
#
# Elastic Compliance Matrix: (Units=1/GPa)
#
#
# Indices 1 2 3 4 5 6 
#
# 1 0.010414 -0.002567 -0.001543 0.000000 0.000000 0.000000
# 2 -0.002567 0.011608 -0.003307 0.000000 0.000000 0.000000
# 3 -0.001543 -0.003307 0.009251 0.000000 0.000000 0.000000
# 4 0.000000 0.000000 0.000000 0.042511 0.000000 0.000000
# 5 0.000000 0.000000 0.000000 0.000000 0.033455 0.000000
# 6 0.000000 0.000000 0.000000 0.000000 0.000000 0.033162
#
#
# Mechanical properties :
#
#
# Convention : Reuss Voigt Hill
#
# Bulk Modulus (GPa) = 60.83414 61.45321 61.14367
# Shear Modulus (GPa) = 31.11100 32.52985 31.82042
#
# Velocity S-wave (km/s) = 3.86811 3.95533 3.91196
# Velocity P-wave (km/s) = 7.01475 7.10030 7.05765
#
# Compressibility (1/GPa) = 0.01643814
#
# Stress axis : x y z
#
# Youngs Moduli (GPa) = 96.02065 86.14808 108.10203
#
# Poissons Ratio (x) = 0.22116 0.16678
# Poissons Ratio (y) = 0.24651 0.35753
# Poissons Ratio (z) = 0.14814 0.28492
#
# Static dielectric constant tensor:
#      x y z
#    x 1.844730 0.000000 0.000000 
#    y 0.000000 1.765840 0.000000 
#    z 0.000000 0.000000 1.748010 
# 
# From -- ./inp_files/17952.got.cif
#   From: 2010.05.17/outbox.cif.g08.bks.cpg/sg73_9_cif.got.tgz:17952.got - 2010.06.03 17:35:07.
