data_PCOD9531382
_publ_section_title
;
Structure prediction by ZEFSAII (Michael W. Deem and Ramdas Pophale) SiO2 
 PCOD9531382
Probable space group: I B C A 
;
_chemical_formula_sum "Si O2"
_cell_formula_units_Z 80
_cell_length_a 23.206326
_cell_length_b 7.764810
_cell_length_c 19.183071
_cell_angle_alpha 90.000000
_cell_angle_beta 90.000000
_cell_angle_gamma 90.000000
_cell_volume 3456.649592
_symmetry_space_group_name_H-M "I B C A "
_symmetry_group_IT_number 73
_symmetry_cell_setting 'orthorhombic'
loop_
_space_group_symop_operation_xyz
x,y,z
-x,1/2-y,z
x,-y,1/2-z
1/2-x,y,-z
-x,-y,-z
x,1/2+y,-z
-x,y,1/2+z
1/2+x,-y,z
1/2+x,1/2+y,1/2+z
1/2-x,-y,1/2+z
1/2+x,1/2-y,-z
-x,1/2+y,1/2-z
1/2-x,1/2-y,1/2-z
1/2+x,y,1/2-z
1/2-x,1/2+y,z
x,1/2-y,1/2+z
loop_
_atom_site_type_symbol
_atom_site_label
_atom_site_fract_x
_atom_site_fract_y
_atom_site_fract_z
Si Si1 0.674334 0.044805 0.628860
Si Si2 0.591435 0.500000 0.250000
Si Si3 0.920737 0.848204 0.041511
Si Si4 0.462883 0.516185 0.094190
Si Si5 0.716538 0.872053 0.304572
Si Si6 0.500000 0.750000 0.718505
O O1 0.631818 0.958360 0.684922
O O2 0.640247 0.058855 0.556807
O O3 0.678436 0.243147 0.652501
O O4 0.736935 0.962599 0.643817
O O5 0.549279 0.340567 0.236874
O O6 0.928826 0.661574 0.077564
O O7 0.971990 0.965183 0.072902
O O8 0.935102 0.847427 0.959710
O O9 0.469526 0.607922 0.168562
O O10 0.750000 0.750000 0.250000
O O11 0.686264 0.000000 0.250000
#
# Coordination Sequence:
#
# PCOD9531382 Si02
#       6
#    16   8  16  16  16   8
#     4  11  21  40  62  91 128 165 215 269 317 374
#     4  12  26  38  60  96 138 170 202 268 330 384
#     4  10  21  38  65  92 120 171 217 258 313 375
#     4  10  21  40  62  90 126 168 217 250 306 405
#     4   9  18  36  59  88 121 163 216 256 312 385
#     4  12  26  40  58 100 140 164 208 262 312 412
#
# _framework density 23.143799000000001
#
# number of rings (size 3 to 8) (size 9 to 14) (size 15 to 20)
#    0.000    1.600    5.000    2.400    2.800    1.600 
#    0.000    0.000    0.000    3.600    0.000    0.000 
#    0.000    0.000    0.000    0.000    0.000    0.000 
#
# Total GULP energy -223183.240385 kJ/mol
# GULP energy per Si atom -5579.581010 kJ/mol
# Density = 2.309112 g / cm^3
# Si number density = 23.143799 Si / 1000 Ang^3
#
#
#
# Elastic Constant Matrix: (Units=GPa)
#
#
# Indices 1 2 3 4 5 6 
#
# 1 62.3174 12.8217 7.8646 0.0000 0.0000 0.0000
# 2 12.8217 88.6346 2.1461 0.0000 0.0000 0.0000
# 3 7.8646 2.1461 54.6704 0.0000 0.0000 0.0000
# 4 0.0000 0.0000 0.0000 27.6720 0.0000 0.0000
# 5 0.0000 0.0000 0.0000 0.0000 32.0720 0.0000
# 6 0.0000 0.0000 0.0000 0.0000 0.0000 29.7743
#
#
#
# Elastic Compliance Matrix: (Units=1/GPa)
#
#
# Indices 1 2 3 4 5 6 
#
# 1 0.016830 -0.002378 -0.002328 0.000000 0.000000 0.000000
# 2 -0.002378 0.011629 -0.000114 0.000000 0.000000 0.000000
# 3 -0.002328 -0.000114 0.018631 0.000000 0.000000 0.000000
# 4 0.000000 0.000000 0.000000 0.036138 0.000000 0.000000
# 5 0.000000 0.000000 0.000000 0.000000 0.031180 0.000000
# 6 0.000000 0.000000 0.000000 0.000000 0.000000 0.033586
#
#
# Mechanical properties :
#
#
# Convention : Reuss Voigt Hill
#
# Bulk Modulus (GPa) = 26.70286 27.92080 27.31183
# Shear Modulus (GPa) = 29.39153 30.08965 29.74059
#
# Velocity S-wave (km/s) = 3.56751 3.60963 3.58863
# Velocity P-wave (km/s) = 5.34156 5.42796 5.38494
#
# Compressibility (1/GPa) = 0.03744917
#
# Stress axis : x y z
#
# Youngs Moduli (GPa) = 59.41783 85.99140 53.67457
#
# Poissons Ratio (x) = 0.20451 0.12494
# Poissons Ratio (y) = 0.14131 0.00614
# Poissons Ratio (z) = 0.13831 0.00984
#
# Static dielectric constant tensor:
#      x y z
#    x 1.911710 0.000000 0.000000 
#    y 0.000000 1.959240 0.000000 
#    z 0.000000 0.000000 1.949620 
# 
# From -- ./inp_files/27170.got.cif
#   From: 2010.05.17/outbox.cif.g08.bks.cpg/sg73_14_cif.got.tgz:27170.got - 2010.06.03 17:35:07.
