data_PCOD9531189
_publ_section_title
;
Structure prediction by ZEFSAII (Michael W. Deem and Ramdas Pophale) SiO2 
 PCOD9531189
Probable space group: I B C A 
;
_chemical_formula_sum "Si O2"
_cell_formula_units_Z 96
_cell_length_a 11.272913
_cell_length_b 20.044804
_cell_length_c 18.514586
_cell_angle_alpha 90.000000
_cell_angle_beta 90.000000
_cell_angle_gamma 90.000000
_cell_volume 4183.617536
_symmetry_space_group_name_H-M "I B C A "
_symmetry_group_IT_number 73
_symmetry_cell_setting 'orthorhombic'
loop_
_space_group_symop_operation_xyz
x,y,z
-x,1/2-y,z
x,-y,1/2-z
1/2-x,y,-z
-x,-y,-z
x,1/2+y,-z
-x,y,1/2+z
1/2+x,-y,z
1/2+x,1/2+y,1/2+z
1/2-x,-y,1/2+z
1/2+x,1/2-y,-z
-x,1/2+y,1/2-z
1/2-x,1/2-y,1/2-z
1/2+x,y,1/2-z
1/2-x,1/2+y,z
x,1/2-y,1/2+z
loop_
_atom_site_type_symbol
_atom_site_label
_atom_site_fract_x
_atom_site_fract_y
_atom_site_fract_z
Si Si1 0.736499 0.891412 0.345789
Si Si2 0.419016 0.975573 0.674533
Si Si3 0.417795 0.926857 0.044699
Si Si4 0.135317 0.755261 0.197911
Si Si5 0.368033 0.426562 0.537943
Si Si6 0.696928 0.613418 0.312516
O O1 0.811778 0.886912 0.418948
O O2 0.652335 0.827029 0.338523
O O3 0.823239 0.890597 0.274033
O O4 0.664202 0.960806 0.345300
O O5 0.503835 0.950753 0.612744
O O6 0.332729 0.911889 0.687205
O O7 0.475364 0.000000 0.750000
O O8 0.374257 0.996605 0.011515
O O9 0.510312 0.893842 0.989777
O O10 0.250000 0.750000 0.250000
O O11 0.160307 0.685963 0.157179
O O12 0.000000 0.750000 0.226837
O O13 0.250000 0.397741 0.500000
O O14 0.360986 0.430392 0.624538
#
# Coordination Sequence:
#
# PCOD9531189 Si02
#       6
#    16  16  16  16  16  16
#     4  10  22  38  63 103 128 175 232 289 343 412
#     4  10  21  34  63  97 128 164 222 289 335 398
#     4  11  22  36  64  95 130 179 221 287 342 414
#     4  10  24  43  69 100 137 179 222 285 349 408
#     4  11  22  39  59  91 137 178 221 275 353 406
#     4  10  21  40  63  92 133 172 221 280 345 401
#
# _framework density 22.946648
#
# number of rings (size 3 to 8) (size 9 to 14) (size 15 to 20)
#    0.000    1.667    3.333    0.000    4.667    6.667 
#    0.000    0.000    3.667    0.000    0.000    0.000 
#    0.000    0.000    0.000    0.000    0.000    0.000 
#
# Total GULP energy -267435.387626 kJ/mol
# GULP energy per Si atom -5571.570576 kJ/mol
# Density = 2.289442 g / cm^3
# Si number density = 22.946648 Si / 1000 Ang^3
#
#
#
# Elastic Constant Matrix: (Units=GPa)
#
#
# Indices 1 2 3 4 5 6 
#
# 1 105.4530 24.8597 23.6981 0.0000 0.0000 0.0000
# 2 24.8597 78.5912 -6.5647 0.0000 0.0000 0.0000
# 3 23.6981 -6.5647 96.8572 0.0000 0.0000 0.0000
# 4 0.0000 0.0000 0.0000 10.6187 0.0000 0.0000
# 5 0.0000 0.0000 0.0000 0.0000 42.6306 0.0000
# 6 0.0000 0.0000 0.0000 0.0000 0.0000 27.4562
#
#
#
# Elastic Compliance Matrix: (Units=1/GPa)
#
#
# Indices 1 2 3 4 5 6 
#
# 1 0.011026 -0.003734 -0.002951 0.000000 0.000000 0.000000
# 2 -0.003734 0.014061 0.001867 0.000000 0.000000 0.000000
# 3 -0.002951 0.001867 0.011173 0.000000 0.000000 0.000000
# 4 0.000000 0.000000 0.000000 0.094173 0.000000 0.000000
# 5 0.000000 0.000000 0.000000 0.000000 0.023457 0.000000
# 6 0.000000 0.000000 0.000000 0.000000 0.000000 0.036422
#
#
# Mechanical properties :
#
#
# Convention : Reuss Voigt Hill
#
# Bulk Modulus (GPa) = 37.56075 40.54306 39.05190
# Shear Modulus (GPa) = 23.94354 32.06833 28.00594
#
# Velocity S-wave (km/s) = 3.23374 3.74239 3.49733
# Velocity P-wave (km/s) = 5.50882 6.03165 5.77615
#
# Compressibility (1/GPa) = 0.02662353
#
# Stress axis : x y z
#
# Youngs Moduli (GPa) = 90.69157 71.11752 89.50141
#
# Poissons Ratio (x) = 0.26558 0.26411
# Poissons Ratio (y) = 0.33867 -0.16707
# Poissons Ratio (z) = 0.26762 -0.13276
#
# Static dielectric constant tensor:
#      x y z
#    x 2.018910 0.000000 0.000000 
#    y 0.000000 2.033830 0.000000 
#    z 0.000000 0.000000 1.943340 
# 
# From -- ./inp_files/25446.got.cif
#   From: 2010.05.17/outbox.cif.g08.bks.cpg/sg73_13_cif.got.tgz:25446.got - 2010.06.03 17:35:07.
