data_PCOD9531190
_publ_section_title
;
Structure prediction by ZEFSAII (Michael W. Deem and Ramdas Pophale) SiO2 
 PCOD9531190
Probable space group: I B C A 
;
_chemical_formula_sum "Si O2"
_cell_formula_units_Z 80
_cell_length_a 24.468431
_cell_length_b 30.585151
_cell_length_c 5.884889
_cell_angle_alpha 90.000000
_cell_angle_beta 90.000000
_cell_angle_gamma 90.000000
_cell_volume 4404.078247
_symmetry_space_group_name_H-M "I B C A "
_symmetry_group_IT_number 73
_symmetry_cell_setting 'orthorhombic'
loop_
_space_group_symop_operation_xyz
x,y,z
-x,1/2-y,z
x,-y,1/2-z
1/2-x,y,-z
-x,-y,-z
x,1/2+y,-z
-x,y,1/2+z
1/2+x,-y,z
1/2+x,1/2+y,1/2+z
1/2-x,-y,1/2+z
1/2+x,1/2-y,-z
-x,1/2+y,1/2-z
1/2-x,1/2-y,1/2-z
1/2+x,y,1/2-z
1/2-x,1/2+y,z
x,1/2-y,1/2+z
loop_
_atom_site_type_symbol
_atom_site_label
_atom_site_fract_x
_atom_site_fract_y
_atom_site_fract_z
Si Si1 0.220458 0.000000 0.750000
Si Si2 0.425787 0.367645 0.122463
Si Si3 0.567722 0.000000 0.250000
Si Si4 0.436594 0.234408 0.538826
Si Si5 0.539283 0.917282 0.991304
Si Si6 0.626120 0.559786 0.115367
O O1 0.250000 0.997271 0.500000
O O2 0.181171 0.957689 0.774982
O O3 0.432104 0.317901 0.056568
O O4 0.482596 0.392978 0.059162
O O5 0.424784 0.379360 0.387345
O O6 0.375808 0.393278 0.007724
O O7 0.532264 0.038990 0.356796
O O8 0.606267 0.976055 0.432059
O O9 0.500000 0.250000 0.535100
O O10 0.414563 0.248377 0.286576
O O11 0.578292 0.935140 0.797107
#
# Coordination Sequence:
#
# PCOD9531190 Si02
#       6
#     8  16   8  16  16  16
#     4  12  27  47  66  80 114 160 209 267 320 342
#     4  11  23  33  54  85 120 168 193 244 286 351
#     4  10  21  35  48  76 114 148 199 243 286 342
#     4  10  21  35  54  76 120 165 208 221 277 342
#     4  11  20  33  53  77 121 155 201 235 293 340
#     4  11  23  39  57  82 115 152 214 245 294 366
#
# _framework density 18.16498
#
# number of rings (size 3 to 8) (size 9 to 14) (size 15 to 20)
#    0.000    1.200    4.000    3.000    5.600    4.000 
#    0.000    0.000    0.000    0.000    0.000    0.000 
#    0.000    4.800    0.000    0.000    0.000    0.000 
#
# Total GULP energy -222719.424755 kJ/mol
# GULP energy per Si atom -5567.985619 kJ/mol
# Density = 1.812364 g / cm^3
# Si number density = 18.164980 Si / 1000 Ang^3
#
#
#
# Elastic Constant Matrix: (Units=GPa)
#
#
# Indices 1 2 3 4 5 6 
#
# 1 60.8443 28.1437 41.6980 0.0000 0.0000 0.0000
# 2 28.1437 136.3240 38.2394 0.0000 0.0000 0.0000
# 3 41.6980 38.2394 121.2472 0.0000 0.0000 0.0000
# 4 0.0000 0.0000 0.0000 23.2214 0.0000 0.0000
# 5 0.0000 0.0000 0.0000 0.0000 18.7866 0.0000
# 6 0.0000 0.0000 0.0000 0.0000 0.0000 11.5852
#
#
#
# Elastic Compliance Matrix: (Units=1/GPa)
#
#
# Indices 1 2 3 4 5 6 
#
# 1 0.022374 -0.002699 -0.006843 0.000000 0.000000 0.000000
# 2 -0.002699 0.008373 -0.001712 0.000000 0.000000 0.000000
# 3 -0.006843 -0.001712 0.011141 0.000000 0.000000 0.000000
# 4 0.000000 0.000000 0.000000 0.043064 0.000000 0.000000
# 5 0.000000 0.000000 0.000000 0.000000 0.053229 0.000000
# 6 0.000000 0.000000 0.000000 0.000000 0.000000 0.086317
#
#
# Mechanical properties :
#
#
# Convention : Reuss Voigt Hill
#
# Bulk Modulus (GPa) = 51.60499 59.39752 55.50125
# Shear Modulus (GPa) = 19.72638 24.74093 22.23365
#
# Velocity S-wave (km/s) = 3.29896 3.69455 3.50234
# Velocity P-wave (km/s) = 6.55603 7.13929 6.85387
#
# Compressibility (1/GPa) = 0.01937797
#
# Stress axis : x y z
#
# Youngs Moduli (GPa) = 44.69501 119.43025 89.75775
#
# Poissons Ratio (x) = 0.32240 0.61423
# Poissons Ratio (y) = 0.12065 0.15370
# Poissons Ratio (z) = 0.30586 0.20451
#
# Static dielectric constant tensor:
#      x y z
#    x 1.576960 0.000000 0.000000 
#    y 0.000000 1.622550 0.000000 
#    z 0.000000 0.000000 1.951700 
# 
# From -- ./inp_files/2230.got.cif
#   From: 2010.05.17/outbox.cif.g08.bks.cpg/sg73_2_cif.got.tgz:2230.got - 2010.06.03 17:35:07.
