data_PCOD9531472
_publ_section_title
;
Structure prediction by ZEFSAII (Michael W. Deem and Ramdas Pophale) SiO2 
 PCOD9531472
Probable space group: I B C A 
;
_chemical_formula_sum "Si O2"
_cell_formula_units_Z 96
_cell_length_a 17.920593
_cell_length_b 13.204914
_cell_length_c 18.169119
_cell_angle_alpha 90.000000
_cell_angle_beta 90.000000
_cell_angle_gamma 90.000000
_cell_volume 4299.538311
_symmetry_space_group_name_H-M "I B C A "
_symmetry_group_IT_number 73
_symmetry_cell_setting 'orthorhombic'
loop_
_space_group_symop_operation_xyz
x,y,z
-x,1/2-y,z
x,-y,1/2-z
1/2-x,y,-z
-x,-y,-z
x,1/2+y,-z
-x,y,1/2+z
1/2+x,-y,z
1/2+x,1/2+y,1/2+z
1/2-x,-y,1/2+z
1/2+x,1/2-y,-z
-x,1/2+y,1/2-z
1/2-x,1/2-y,1/2-z
1/2+x,y,1/2-z
1/2-x,1/2+y,z
x,1/2-y,1/2+z
loop_
_atom_site_type_symbol
_atom_site_label
_atom_site_fract_x
_atom_site_fract_y
_atom_site_fract_z
Si Si1 0.941192 0.812529 0.837070
Si Si2 0.389740 0.546939 0.949241
Si Si3 0.665023 0.106276 0.221892
Si Si4 0.050597 0.982139 0.104086
Si Si5 0.804479 0.751782 0.093842
Si Si6 0.357769 0.681142 0.550829
O O1 0.867498 0.841106 0.793824
O O2 0.979842 0.916187 0.858316
O O3 0.919634 0.745474 0.907448
O O4 0.000000 0.750000 0.789209
O O5 0.475635 0.570603 0.925842
O O6 0.335643 0.634520 0.918335
O O7 0.360549 0.435747 0.925048
O O8 0.398315 0.527959 0.037579
O O9 0.698532 0.196026 0.172517
O O10 0.702630 0.000000 0.250000
O O11 0.597638 0.069837 0.168296
O O12 0.719842 0.736307 0.068328
O O13 0.859243 0.688995 0.037946
#
# Coordination Sequence:
#
# PCOD9531472 Si02
#       6
#    16  16  16  16  16  16
#     4  11  22  41  65  94 133 177 219 277 338 399
#     4  11  22  39  68 102 131 164 229 286 333 398
#     4  10  24  43  66  96 139 179 221 268 344 408
#     4  10  21  39  66  98 131 173 220 282 337 388
#     4  11  25  42  69  99 131 183 222 278 336 406
#     4  11  24  43  67  99 133 174 227 283 332 399
#
# _framework density 22.327978000000002
#
# number of rings (size 3 to 8) (size 9 to 14) (size 15 to 20)
#    0.000    1.333    5.000    0.000    2.333    6.000 
#    0.000    0.833    0.000    0.000    0.000    0.000 
#    0.000    0.000    0.000    0.000    0.000    0.000 
#
# Total GULP energy -267284.166677 kJ/mol
# GULP energy per Si atom -5568.420139 kJ/mol
# Density = 2.227716 g / cm^3
# Si number density = 22.327978 Si / 1000 Ang^3
#
#
#
# Elastic Constant Matrix: (Units=GPa)
#
#
# Indices 1 2 3 4 5 6 
#
# 1 56.8087 27.6098 4.5506 0.0000 0.0000 0.0000
# 2 27.6098 125.7082 10.7602 0.0000 0.0000 0.0000
# 3 4.5506 10.7602 72.2373 0.0000 0.0000 0.0000
# 4 0.0000 0.0000 0.0000 38.8630 0.0000 0.0000
# 5 0.0000 0.0000 0.0000 0.0000 15.0938 0.0000
# 6 0.0000 0.0000 0.0000 0.0000 0.0000 20.2560
#
#
#
# Elastic Compliance Matrix: (Units=1/GPa)
#
#
# Indices 1 2 3 4 5 6 
#
# 1 0.019733 -0.004282 -0.000605 0.000000 0.000000 0.000000
# 2 -0.004282 0.008987 -0.001069 0.000000 0.000000 0.000000
# 3 -0.000605 -0.001069 0.014041 0.000000 0.000000 0.000000
# 4 0.000000 0.000000 0.000000 0.025731 0.000000 0.000000
# 5 0.000000 0.000000 0.000000 0.000000 0.066252 0.000000
# 6 0.000000 0.000000 0.000000 0.000000 0.000000 0.049368
#
#
# Mechanical properties :
#
#
# Convention : Reuss Voigt Hill
#
# Bulk Modulus (GPa) = 32.41739 37.84393 35.13066
# Shear Modulus (GPa) = 24.23569 28.96478 26.60024
#
# Velocity S-wave (km/s) = 3.29818 3.60563 3.45533
# Velocity P-wave (km/s) = 5.39020 5.85833 5.62913
#
# Compressibility (1/GPa) = 0.03084764
#
# Stress axis : x y z
#
# Youngs Moduli (GPa) = 50.67756 111.27271 71.22201
#
# Poissons Ratio (x) = 0.47649 0.04310
# Poissons Ratio (y) = 0.21701 0.07613
# Poissons Ratio (z) = 0.03067 0.11894
#
# Static dielectric constant tensor:
#      x y z
#    x 1.864930 0.000000 0.000000 
#    y 0.000000 1.876530 0.000000 
#    z 0.000000 0.000000 1.897700 
# 
# From -- ./inp_files/26904.got.cif
#   From: 2010.05.17/outbox.cif.g08.bks.cpg/sg73_14_cif.got.tgz:26904.got - 2010.06.03 17:35:07.
