data_PCOD9531351
_publ_section_title
;
Structure prediction by ZEFSAII (Michael W. Deem and Ramdas Pophale) SiO2 
 PCOD9531351
Probable space group: I B C A 
;
_chemical_formula_sum "Si O2"
_cell_formula_units_Z 120
_cell_length_a 11.332967
_cell_length_b 24.104259
_cell_length_c 19.451464
_cell_angle_alpha 90.000000
_cell_angle_beta 90.000000
_cell_angle_gamma 90.000000
_cell_volume 5313.610337
_symmetry_space_group_name_H-M "I B C A "
_symmetry_group_IT_number 73
_symmetry_cell_setting 'orthorhombic'
loop_
_space_group_symop_operation_xyz
x,y,z
-x,1/2-y,z
x,-y,1/2-z
1/2-x,y,-z
-x,-y,-z
x,1/2+y,-z
-x,y,1/2+z
1/2+x,-y,z
1/2+x,1/2+y,1/2+z
1/2-x,-y,1/2+z
1/2+x,1/2-y,-z
-x,1/2+y,1/2-z
1/2-x,1/2-y,1/2-z
1/2+x,y,1/2-z
1/2-x,1/2+y,z
x,1/2-y,1/2+z
loop_
_atom_site_type_symbol
_atom_site_label
_atom_site_fract_x
_atom_site_fract_y
_atom_site_fract_z
Si Si1 0.469068 0.643163 0.833820
Si Si2 0.494821 0.816912 0.979078
Si Si3 0.664166 0.699313 0.761811
Si Si4 0.959212 0.684423 0.370165
Si Si5 0.717240 0.476540 0.376022
Si Si6 0.836426 0.379331 0.703278
Si Si7 0.750000 0.613335 0.000000
Si Si8 0.032399 0.481118 0.830536
O O1 0.446106 0.657675 0.911830
O O2 0.536205 0.694156 0.796360
O O3 0.363460 0.631262 0.782346
O O4 0.540886 0.585614 0.830309
O O5 0.500000 0.750000 0.970617
O O6 0.364636 0.846450 0.987220
O O7 0.561628 0.827402 0.050608
O O8 0.750000 0.750000 0.750000
O O9 0.642526 0.678114 0.684861
O O10 0.734109 0.662244 0.816013
O O11 0.054961 0.640488 0.342480
O O12 0.000000 0.750000 0.364364
O O13 0.701920 0.441214 0.306537
O O14 0.725673 0.429855 0.436632
O O15 0.847189 0.504053 0.367073
O O16 0.589460 0.507127 0.373748
O O17 0.026135 0.500000 0.750000
#
# Coordination Sequence:
#
# PCOD9531351 Si02
#       8
#    16  16  16  16  16  16   8  16
#     4  11  25  43  66 104 143 187 244 314 379 455
#     4  11  25  44  71 100 148 196 246 298 386 472
#     4  11  22  37  70  99 140 183 245 304 382 451
#     4  10  21  38  62 100 136 186 239 294 361 460
#     4  12  26  46  79 106 146 199 251 322 389 465
#     4  11  21  41  65  99 137 182 236 307 369 441
#     4  12  24  50  76 100 150 206 248 316 396 462
#     4  12  25  47  76 109 145 195 259 324 397 455
#
# _framework density 22.583515999999999
#
# number of rings (size 3 to 8) (size 9 to 14) (size 15 to 20)
#    0.000    0.800    6.667    0.400    1.867    0.533 
#    0.000    0.000    0.000    0.000    0.000    0.000 
#    0.000    0.000    0.000    0.000    0.000    0.000 
#
# Total GULP energy -334098.226545 kJ/mol
# GULP energy per Si atom -5568.303776 kJ/mol
# Density = 2.253211 g / cm^3
# Si number density = 22.583516 Si / 1000 Ang^3
#
#
#
# Elastic Constant Matrix: (Units=GPa)
#
#
# Indices 1 2 3 4 5 6 
#
# 1 98.0523 34.7342 31.8021 0.0000 0.0000 0.0000
# 2 34.7342 70.5150 15.9781 0.0000 0.0000 0.0000
# 3 31.8021 15.9781 149.2279 0.0000 0.0000 0.0000
# 4 0.0000 0.0000 0.0000 37.4504 0.0000 0.0000
# 5 0.0000 0.0000 0.0000 0.0000 -116.9288 0.0000
# 6 0.0000 0.0000 0.0000 0.0000 0.0000 43.3584
#
#
#
# Elastic Compliance Matrix: (Units=1/GPa)
#
#
# Indices 1 2 3 4 5 6 
#
# 1 0.012985 -0.005913 -0.002134 0.000000 0.000000 0.000000
# 2 -0.005913 0.017226 -0.000584 0.000000 0.000000 0.000000
# 3 -0.002134 -0.000584 0.007219 0.000000 0.000000 0.000000
# 4 0.000000 0.000000 0.000000 0.026702 0.000000 0.000000
# 5 0.000000 0.000000 0.000000 0.000000 -0.008552 0.000000
# 6 0.000000 0.000000 0.000000 0.000000 0.000000 0.023064
#
#
# Mechanical properties :
#
#
# Convention : Reuss Voigt Hill
#
# Bulk Modulus (GPa) = 49.58466 53.64711 51.61588
# Shear Modulus (GPa) = 48.71925 8.46137 28.59031
#
# Velocity S-wave (km/s) = 4.64970 1.93774 3.56192
# Velocity P-wave (km/s) = 7.12953 5.36777 6.31043
#
# Compressibility (1/GPa) = 0.02016753
#
# Stress axis : x y z
#
# Youngs Moduli (GPa) = 77.00960 58.05085 138.53178
#
# Poissons Ratio (x) = 0.34324 0.29566
# Poissons Ratio (y) = 0.45534 0.08096
# Poissons Ratio (z) = 0.16436 0.03392
#
# Static dielectric constant tensor:
#      x y z
#    x 1.624540 0.000000 0.000000 
#    y 0.000000 1.943400 0.000000 
#    z 0.000000 0.000000 1.856990 
# 
# From -- ./inp_files/21507.got.cif
#   From: 2010.05.17/outbox.cif.g08.bks.cpg/sg73_11_cif.got.tgz:21507.got - 2010.06.03 17:35:07.
