data_PCOD9531429
_publ_section_title
;
Structure prediction by ZEFSAII (Michael W. Deem and Ramdas Pophale) SiO2 
 PCOD9531429
Probable space group: I B C A 
;
_chemical_formula_sum "Si O2"
_cell_formula_units_Z 80
_cell_length_a 9.165882
_cell_length_b 13.996779
_cell_length_c 27.241078
_cell_angle_alpha 90.000000
_cell_angle_beta 90.000000
_cell_angle_gamma 90.000000
_cell_volume 3494.834844
_symmetry_space_group_name_H-M "I B C A "
_symmetry_group_IT_number 73
_symmetry_cell_setting 'orthorhombic'
loop_
_space_group_symop_operation_xyz
x,y,z
-x,1/2-y,z
x,-y,1/2-z
1/2-x,y,-z
-x,-y,-z
x,1/2+y,-z
-x,y,1/2+z
1/2+x,-y,z
1/2+x,1/2+y,1/2+z
1/2-x,-y,1/2+z
1/2+x,1/2-y,-z
-x,1/2+y,1/2-z
1/2-x,1/2-y,1/2-z
1/2+x,y,1/2-z
1/2-x,1/2+y,z
x,1/2-y,1/2+z
loop_
_atom_site_type_symbol
_atom_site_label
_atom_site_fract_x
_atom_site_fract_y
_atom_site_fract_z
Si Si1 0.221754 0.615041 0.427806
Si Si2 0.063556 0.928105 0.558195
Si Si3 0.790280 0.500000 0.750000
Si Si4 0.789463 0.664893 0.177384
Si Si5 0.750000 0.714275 0.500000
Si Si6 0.373427 0.368259 0.664034
O O1 0.115183 0.535995 0.450347
O O2 0.390355 0.581267 0.434547
O O3 0.197523 0.629563 0.369525
O O4 0.208209 0.715108 0.455712
O O5 0.120374 0.853989 0.517995
O O6 0.152936 0.899958 0.608248
O O7 0.721748 0.593960 0.776421
O O8 0.867121 0.547534 0.703454
O O9 0.772704 0.779687 0.181878
O O10 0.957599 0.658851 0.162310
#
# Coordination Sequence:
#
# PCOD9531429 Si02
#       6
#    16  16   8  16   8  16
#     4  11  24  44  68  96 133 175 222 277 336 398
#     4  11  24  44  68  96 133 175 222 277 336 398
#     4  12  20  36  68  94 124 172 220 272 322 396
#     4  10  21  39  62  91 129 172 217 269 330 391
#     4  12  24  40  72  94 122 178 226 264 334 394
#     4  10  21  39  62  91 129 172 217 269 330 391
#
# _framework density 22.890923999999998
#
# number of rings (size 3 to 8) (size 9 to 14) (size 15 to 20)
#    0.000    1.200    4.000    2.400    0.000    4.800 
#    0.000    0.000    0.000    2.400    0.000    0.000 
#    0.000    0.000    0.000    0.000    0.000    0.000 
#
# Total GULP energy -223229.367272 kJ/mol
# GULP energy per Si atom -5580.734182 kJ/mol
# Density = 2.283882 g / cm^3
# Si number density = 22.890924 Si / 1000 Ang^3
#
#
#
# Elastic Constant Matrix: (Units=GPa)
#
#
# Indices 1 2 3 4 5 6 
#
# 1 28.9869 21.0237 15.6616 0.0000 0.0000 0.0000
# 2 21.0237 132.6907 49.4782 0.0000 0.0000 0.0000
# 3 15.6616 49.4782 118.2916 0.0000 0.0000 0.0000
# 4 0.0000 0.0000 0.0000 -104.8195 0.0000 0.0000
# 5 0.0000 0.0000 0.0000 0.0000 11.7364 0.0000
# 6 0.0000 0.0000 0.0000 0.0000 0.0000 12.6811
#
#
#
# Elastic Compliance Matrix: (Units=1/GPa)
#
#
# Indices 1 2 3 4 5 6 
#
# 1 0.039931 -0.005160 -0.003128 0.000000 0.000000 0.000000
# 2 -0.005160 0.009596 -0.003330 0.000000 0.000000 0.000000
# 3 -0.003128 -0.003330 0.010261 0.000000 0.000000 0.000000
# 4 0.000000 0.000000 0.000000 -0.009540 0.000000 0.000000
# 5 0.000000 0.000000 0.000000 0.000000 0.085205 0.000000
# 6 0.000000 0.000000 0.000000 0.000000 0.000000 0.078858
#
#
# Mechanical properties :
#
#
# Convention : Reuss Voigt Hill
#
# Bulk Modulus (GPa) = 27.35999 50.25512 38.80756
# Shear Modulus (GPa) = 20.02146 -3.16002 8.43072
#
# Velocity S-wave (km/s) = 2.96065 -1.17621 1.92120
# Velocity P-wave (km/s) = 4.86472 4.48968 4.68096
#
# Compressibility (1/GPa) = 0.03654972
#
# Stress axis : x y z
#
# Youngs Moduli (GPa) = 25.04306 104.21241 97.45712
#
# Poissons Ratio (x) = 0.53776 0.30489
# Poissons Ratio (y) = 0.12923 0.32458
# Poissons Ratio (z) = 0.07835 0.34707
#
# Static dielectric constant tensor:
#      x y z
#    x 1.812390 0.000000 0.000000 
#    y 0.000000 1.931210 0.000000 
#    z 0.000000 0.000000 1.909300 
# 
# From -- ./inp_files/11066.got.cif
#   From: 2010.05.17/outbox.cif.g08.bks.cpg/sg73_6_cif.got.tgz:11066.got - 2010.06.03 17:35:07.
