data_PCOD9531842
_publ_section_title
;
Structure prediction by ZEFSAII (Michael W. Deem and Ramdas Pophale) SiO2 
 PCOD9531842
Probable space group: I B C A 
;
_chemical_formula_sum "Si O2"
_cell_formula_units_Z 120
_cell_length_a 20.635272
_cell_length_b 10.444361
_cell_length_c 28.317352
_cell_angle_alpha 90.000000
_cell_angle_beta 90.000000
_cell_angle_gamma 90.000000
_cell_volume 6103.018854
_symmetry_space_group_name_H-M "I B C A "
_symmetry_group_IT_number 73
_symmetry_cell_setting 'orthorhombic'
loop_
_space_group_symop_operation_xyz
x,y,z
-x,1/2-y,z
x,-y,1/2-z
1/2-x,y,-z
-x,-y,-z
x,1/2+y,-z
-x,y,1/2+z
1/2+x,-y,z
1/2+x,1/2+y,1/2+z
1/2-x,-y,1/2+z
1/2+x,1/2-y,-z
-x,1/2+y,1/2-z
1/2-x,1/2-y,1/2-z
1/2+x,y,1/2-z
1/2-x,1/2+y,z
x,1/2-y,1/2+z
loop_
_atom_site_type_symbol
_atom_site_label
_atom_site_fract_x
_atom_site_fract_y
_atom_site_fract_z
Si Si1 0.021510 0.030340 0.444710
Si Si2 0.120493 0.795475 0.008219
Si Si3 0.309913 0.885302 0.430767
Si Si4 0.913182 0.980438 0.373058
Si Si5 0.267463 0.766377 0.643186
Si Si6 0.250000 0.542059 0.500000
Si Si7 0.593969 0.283205 0.905437
Si Si8 0.805178 0.000178 0.306200
O O1 0.060035 0.915242 0.418879
O O2 0.965189 0.054991 0.405679
O O3 0.071113 0.144922 0.454616
O O4 0.000000 0.000000 0.500000
O O5 0.143342 0.659560 0.027659
O O6 0.186165 0.874325 0.001587
O O7 0.091372 0.784934 0.956599
O O8 0.286739 0.767193 0.398685
O O9 0.346848 0.994494 0.402379
O O10 0.249211 0.950996 0.454792
O O11 0.933955 0.831730 0.372798
O O12 0.881084 0.017966 0.322921
O O13 0.335017 0.801004 0.617221
O O14 0.278938 0.635291 0.672002
O O15 0.239656 0.883216 0.674715
O O16 0.802013 0.000000 0.250000
#
# Coordination Sequence:
#
# PCOD9531842 Si02
#       8
#    16  16  16  16  16   8  16  16
#     4  12  23  36  56  82 121 168 214 246 284 352
#     4  12  23  32  56  79 124 167 203 243 295 343
#     4  11  22  34  50  84 119 158 196 245 299 364
#     4  10  22  39  55  84 116 156 208 249 304 364
#     4  10  22  37  65  91 126 151 199 255 326 389
#     4  12  20  36  50  82 126 160 204 244 292 354
#     4  11  21  37  53  85 120 163 209 245 290 362
#     4  10  22  42  68  95 119 153 199 267 337 392
#
# _framework density 19.662402
#
# number of rings (size 3 to 8) (size 9 to 14) (size 15 to 20)
#    0.000    1.067    2.667    5.200    5.600    1.600 
#    0.000    0.000    0.000    0.800   20.800    0.000 
#    0.000    0.000    0.000    0.000    0.000    0.000 
#
# Total GULP energy -334113.375347 kJ/mol
# GULP energy per Si atom -5568.556256 kJ/mol
# Density = 1.961765 g / cm^3
# Si number density = 19.662402 Si / 1000 Ang^3
#
#
#
# Elastic Constant Matrix: (Units=GPa)
#
#
# Indices 1 2 3 4 5 6 
#
# 1 75.1329 27.3809 31.0957 0.0000 0.0000 0.0000
# 2 27.3809 78.4215 31.1648 0.0000 0.0000 0.0000
# 3 31.0957 31.1648 74.5073 0.0000 0.0000 0.0000
# 4 0.0000 0.0000 0.0000 27.0442 0.0000 0.0000
# 5 0.0000 0.0000 0.0000 0.0000 27.2285 0.0000
# 6 0.0000 0.0000 0.0000 0.0000 0.0000 17.0090
#
#
#
# Elastic Compliance Matrix: (Units=1/GPa)
#
#
# Indices 1 2 3 4 5 6 
#
# 1 0.016951 -0.003726 -0.005516 0.000000 0.000000 0.000000
# 2 -0.003726 0.016113 -0.005185 0.000000 0.000000 0.000000
# 3 -0.005516 -0.005185 0.017892 0.000000 0.000000 0.000000
# 4 0.000000 0.000000 0.000000 0.036977 0.000000 0.000000
# 5 0.000000 0.000000 0.000000 0.000000 0.036726 0.000000
# 6 0.000000 0.000000 0.000000 0.000000 0.000000 0.058793
#
#
# Mechanical properties :
#
#
# Convention : Reuss Voigt Hill
#
# Bulk Modulus (GPa) = 45.24376 45.26051 45.25213
# Shear Modulus (GPa) = 22.76125 23.48434 23.12280
#
# Velocity S-wave (km/s) = 3.40605 3.45973 3.43299
# Velocity P-wave (km/s) = 6.20713 6.24727 6.22723
#
# Compressibility (1/GPa) = 0.02210249
#
# Stress axis : x y z
#
# Youngs Moduli (GPa) = 58.99509 62.06172 55.89077
#
# Poissons Ratio (x) = 0.23126 0.30828
# Poissons Ratio (y) = 0.21984 0.28977
# Poissons Ratio (z) = 0.32540 0.32176
#
# Static dielectric constant tensor:
#      x y z
#    x 1.782890 0.000000 0.000000 
#    y 0.000000 1.752930 0.000000 
#    z 0.000000 0.000000 1.729100 
# 
# From -- ./inp_files/32777.got.cif
#   From: 2010.05.17/outbox.cif.g08.bks.cpg/sg73_17_cif.got.tgz:32777.got - 2010.06.03 17:35:07.
