data_PCOD9531902
_publ_section_title
;
Structure prediction by ZEFSAII (Michael W. Deem and Ramdas Pophale) SiO2 
 PCOD9531902
Probable space group: I B C A 
;
_chemical_formula_sum "Si O2"
_cell_formula_units_Z 64
_cell_length_a 15.910805
_cell_length_b 18.733342
_cell_length_c 9.156070
_cell_angle_alpha 90.000000
_cell_angle_beta 90.000000
_cell_angle_gamma 90.000000
_cell_volume 2729.081586
_symmetry_space_group_name_H-M "I B C A "
_symmetry_group_IT_number 73
_symmetry_cell_setting 'orthorhombic'
loop_
_space_group_symop_operation_xyz
x,y,z
-x,1/2-y,z
x,-y,1/2-z
1/2-x,y,-z
-x,-y,-z
x,1/2+y,-z
-x,y,1/2+z
1/2+x,-y,z
1/2+x,1/2+y,1/2+z
1/2-x,-y,1/2+z
1/2+x,1/2-y,-z
-x,1/2+y,1/2-z
1/2-x,1/2-y,1/2-z
1/2+x,y,1/2-z
1/2-x,1/2+y,z
x,1/2-y,1/2+z
loop_
_atom_site_type_symbol
_atom_site_label
_atom_site_fract_x
_atom_site_fract_y
_atom_site_fract_z
Si Si1 0.142632 0.315667 0.374515
Si Si2 0.666818 0.828385 0.218329
Si Si3 0.927275 0.962993 0.094918
Si Si4 0.193256 0.958218 0.116404
O O1 0.129855 0.237205 0.310221
O O2 0.149715 0.312445 0.549559
O O3 0.230612 0.335981 0.291661
O O4 0.076037 0.379586 0.362894
O O5 0.636511 0.900863 0.297790
O O6 0.924986 0.000000 0.250000
O O7 0.848845 0.983164 0.989399
O O8 0.000000 0.000000 0.000000
O O9 0.235619 0.000000 0.250000
O O10 0.250000 0.916423 0.000000
#
# Coordination Sequence:
#
# PCOD9531902 Si02
#       4
#    16  16  16  16
#     4  10  22  42  65 102 137 177 226 286 365 424
#     4  10  22  38  69 102 137 174 225 293 357 431
#     4  12  27  46  69  95 138 186 238 294 358 441
#     4  12  23  40  68 101 135 179 235 296 358 430
#
# _framework density 23.451112999999999
#
# number of rings (size 3 to 8) (size 9 to 14) (size 15 to 20)
#    0.000    1.000    2.500    4.500   10.500    0.000 
#    0.000    1.250    0.000    0.000    0.000    0.000 
#    0.000    0.000    0.000    0.000    0.000    0.000 
#
# Total GULP energy -178309.936947 kJ/mol
# GULP energy per Si atom -5572.185530 kJ/mol
# Density = 2.339774 g / cm^3
# Si number density = 23.451113 Si / 1000 Ang^3
#
#
#
# Elastic Constant Matrix: (Units=GPa)
#
#
# Indices 1 2 3 4 5 6 
#
# 1 47.4869 10.5410 31.7775 0.0000 0.0000 0.0000
# 2 10.5410 170.6962 72.1467 0.0000 0.0000 0.0000
# 3 31.7775 72.1467 209.7848 0.0000 0.0000 0.0000
# 4 0.0000 0.0000 0.0000 54.5390 0.0000 0.0000
# 5 0.0000 0.0000 0.0000 0.0000 23.3303 0.0000
# 6 0.0000 0.0000 0.0000 0.0000 0.0000 22.5928
#
#
#
# Elastic Compliance Matrix: (Units=1/GPa)
#
#
# Indices 1 2 3 4 5 6 
#
# 1 0.023434 0.000062 -0.003571 0.000000 0.000000 0.000000
# 2 0.000062 0.006855 -0.002367 0.000000 0.000000 0.000000
# 3 -0.003571 -0.002367 0.006122 0.000000 0.000000 0.000000
# 4 0.000000 0.000000 0.000000 0.018336 0.000000 0.000000
# 5 0.000000 0.000000 0.000000 0.000000 0.042863 0.000000
# 6 0.000000 0.000000 0.000000 0.000000 0.000000 0.044262
#
#
# Mechanical properties :
#
#
# Convention : Reuss Voigt Hill
#
# Bulk Modulus (GPa) = 40.55246 72.98871 56.77059
# Shear Modulus (GPa) = 30.89423 40.99260 35.94342
#
# Velocity S-wave (km/s) = 3.63352 4.18545 3.91921
# Velocity P-wave (km/s) = 5.91043 7.38570 6.68887
#
# Compressibility (1/GPa) = 0.02465942
#
# Stress axis : x y z
#
# Youngs Moduli (GPa) = 42.67231 145.88091 163.35250
#
# Poissons Ratio (x) = -0.00908 0.58336
# Poissons Ratio (y) = -0.00266 0.38664
# Poissons Ratio (z) = 0.15239 0.34528
#
# Static dielectric constant tensor:
#      x y z
#    x 2.084880 0.000000 0.000000 
#    y 0.000000 1.944760 0.000000 
#    z 0.000000 0.000000 1.862140 
# 
# From -- ./inp_files/5963.got.cif
#   From: 2010.05.17/outbox.cif.g08.bks.cpg/sg73_3_cif.got.tgz:5963.got - 2010.06.03 17:35:07.
