data_PCOD9531705
_publ_section_title
;
Structure prediction by ZEFSAII (Michael W. Deem and Ramdas Pophale) SiO2 
 PCOD9531705
Probable space group: I B C A 
;
_chemical_formula_sum "Si O2"
_cell_formula_units_Z 96
_cell_length_a 21.316457
_cell_length_b 15.479902
_cell_length_c 13.939674
_cell_angle_alpha 90.000000
_cell_angle_beta 90.000000
_cell_angle_gamma 90.000000
_cell_volume 4599.767143
_symmetry_space_group_name_H-M "I B C A "
_symmetry_group_IT_number 73
_symmetry_cell_setting 'orthorhombic'
loop_
_space_group_symop_operation_xyz
x,y,z
-x,1/2-y,z
x,-y,1/2-z
1/2-x,y,-z
-x,-y,-z
x,1/2+y,-z
-x,y,1/2+z
1/2+x,-y,z
1/2+x,1/2+y,1/2+z
1/2-x,-y,1/2+z
1/2+x,1/2-y,-z
-x,1/2+y,1/2-z
1/2-x,1/2-y,1/2-z
1/2+x,y,1/2-z
1/2-x,1/2+y,z
x,1/2-y,1/2+z
loop_
_atom_site_type_symbol
_atom_site_label
_atom_site_fract_x
_atom_site_fract_y
_atom_site_fract_z
Si Si1 0.258579 0.629136 0.337949
Si Si2 0.182074 0.317790 0.327231
Si Si3 0.973910 0.097220 0.993288
Si Si4 0.373306 0.325656 0.873985
Si Si5 0.379612 0.978104 0.858422
Si Si6 0.609197 0.148953 0.485469
O O1 0.236612 0.627798 0.225978
O O2 0.289087 0.724109 0.350573
O O3 0.307132 0.626024 0.605156
O O4 0.309889 0.559315 0.359967
O O5 0.131275 0.310771 0.240516
O O6 0.151668 0.357706 0.420447
O O7 0.925772 0.093464 0.904788
O O8 0.035830 0.154848 0.985492
O O9 0.932512 0.122623 0.085779
O O10 0.000000 0.000000 0.000000
O O11 0.372876 0.234157 0.926885
O O12 0.398066 0.000000 0.750000
O O13 0.383163 0.064971 0.920105
#
# Coordination Sequence:
#
# PCOD9531705 Si02
#       6
#    16  16  16  16  16  16
#     4   9  21  45  65  97 135 165 219 282 353 401
#     4   9  21  42  69  96 130 171 229 273 336 418
#     4  10  24  43  61  96 131 176 229 263 341 407
#     4  10  21  43  66  94 130 173 223 290 330 407
#     4  11  24  44  63  99 138 171 217 289 348 405
#     4  11  23  41  70  97 126 180 231 269 339 425
#
# _framework density 20.870622000000001
#
# number of rings (size 3 to 8) (size 9 to 14) (size 15 to 20)
#    1.000    1.000    0.000    2.500    0.000    5.333 
#    9.000    5.833    0.000    0.000    0.000    0.000 
#    0.000    0.000    0.000    0.000    0.000    0.000 
#
# Total GULP energy -267927.667661 kJ/mol
# GULP energy per Si atom -5581.826410 kJ/mol
# Density = 2.082312 g / cm^3
# Si number density = 20.870622 Si / 1000 Ang^3
#
#
#
# Elastic Constant Matrix: (Units=GPa)
#
#
# Indices 1 2 3 4 5 6 
#
# 1 103.1697 37.1600 45.3628 0.0000 0.0000 0.0000
# 2 37.1600 46.7450 30.3032 0.0000 0.0000 0.0000
# 3 45.3628 30.3032 113.6778 0.0000 0.0000 0.0000
# 4 0.0000 0.0000 0.0000 21.1779 0.0000 0.0000
# 5 0.0000 0.0000 0.0000 0.0000 -5.9969 0.0000
# 6 0.0000 0.0000 0.0000 0.0000 0.0000 40.6632
#
#
#
# Elastic Compliance Matrix: (Units=1/GPa)
#
#
# Indices 1 2 3 4 5 6 
#
# 1 0.014531 -0.009421 -0.003287 0.000000 0.000000 0.000000
# 2 -0.009421 0.031969 -0.004763 0.000000 0.000000 0.000000
# 3 -0.003287 -0.004763 0.011378 0.000000 0.000000 0.000000
# 4 0.000000 0.000000 0.000000 0.047219 0.000000 0.000000
# 5 0.000000 0.000000 0.000000 0.000000 -0.166754 0.000000
# 6 0.000000 0.000000 0.000000 0.000000 0.000000 0.024592
#
#
# Mechanical properties :
#
#
# Convention : Reuss Voigt Hill
#
# Bulk Modulus (GPa) = 43.59744 54.36048 48.97896
# Shear Modulus (GPa) = 905.17998 21.21995 463.19996
#
# Velocity S-wave (km/s) = 20.84830 3.19209 14.91377
# Velocity P-wave (km/s) = 24.50449 6.29991 17.89077
#
# Compressibility (1/GPa) = 0.02293713
#
# Stress axis : x y z
#
# Youngs Moduli (GPa) = 68.81662 31.28020 87.88690
#
# Poissons Ratio (x) = 0.29468 0.28892
# Poissons Ratio (y) = 0.64829 0.41858
# Poissons Ratio (z) = 0.22623 0.14898
#
# Static dielectric constant tensor:
#      x y z
#    x 1.773640 0.000000 0.000000 
#    y 0.000000 1.742850 0.000000 
#    z 0.000000 0.000000 1.771520 
# 
# From -- ./inp_files/13652.got.cif
#   From: 2010.05.17/outbox.cif.g08.bks.cpg/sg73_7_cif.got.tgz:13652.got - 2010.06.03 17:35:07.
