data_PCOD9531932
_publ_section_title
;
Structure prediction by ZEFSAII (Michael W. Deem and Ramdas Pophale) SiO2 
 PCOD9531932
Probable space group: I B C A 
;
_chemical_formula_sum "Si O2"
_cell_formula_units_Z 120
_cell_length_a 27.821459
_cell_length_b 12.554390
_cell_length_c 14.377120
_cell_angle_alpha 90.000000
_cell_angle_beta 90.000000
_cell_angle_gamma 90.000000
_cell_volume 5021.661272
_symmetry_space_group_name_H-M "I B C A "
_symmetry_group_IT_number 73
_symmetry_cell_setting 'orthorhombic'
loop_
_space_group_symop_operation_xyz
x,y,z
-x,1/2-y,z
x,-y,1/2-z
1/2-x,y,-z
-x,-y,-z
x,1/2+y,-z
-x,y,1/2+z
1/2+x,-y,z
1/2+x,1/2+y,1/2+z
1/2-x,-y,1/2+z
1/2+x,1/2-y,-z
-x,1/2+y,1/2-z
1/2-x,1/2-y,1/2-z
1/2+x,y,1/2-z
1/2-x,1/2+y,z
x,1/2-y,1/2+z
loop_
_atom_site_type_symbol
_atom_site_label
_atom_site_fract_x
_atom_site_fract_y
_atom_site_fract_z
Si Si1 0.750000 0.536620 0.000000
Si Si2 0.683140 0.571620 0.170718
Si Si3 0.598489 0.930644 0.914510
Si Si4 0.030254 0.340440 0.687177
Si Si5 0.132346 0.227990 0.161335
Si Si6 0.157108 0.513689 0.904075
Si Si7 0.394174 0.806365 0.948548
Si Si8 0.486418 0.430446 0.113917
O O1 0.716771 0.589283 0.080153
O O2 0.789424 0.473637 0.057813
O O3 0.707527 0.500000 0.250000
O O4 0.633453 0.506664 0.145907
O O5 0.667439 0.686742 0.205523
O O6 0.604896 0.805890 0.896489
O O7 0.541296 0.949432 0.916989
O O8 0.620760 0.950019 0.015254
O O9 0.080228 0.283243 0.703973
O O10 0.008508 0.372474 0.786260
O O11 0.034544 0.451728 0.633877
O O12 0.000000 0.250000 0.635754
O O13 0.151070 0.106868 0.169572
O O14 0.122608 0.276343 0.054863
O O15 0.141850 0.390114 0.898288
O O16 0.447510 0.860342 0.942994
#
# Coordination Sequence:
#
# PCOD9531932 Si02
#       8
#     8  16  16  16  16  16  16  16
#     4  10  22  50  72 104 134 174 238 296 376 430
#     4  11  25  45  75 104 139 183 236 299 363 438
#     4  10  22  39  64  97 134 187 236 284 344 425
#     4  11  24  38  60  94 139 188 226 286 331 402
#     4  11  23  43  66 100 139 176 230 288 350 423
#     4  10  22  43  67  94 131 174 226 295 361 418
#     4  11  21  41  63  97 135 189 227 287 348 415
#     4  11  24  40  61  94 142 188 238 276 339 415
#
# _framework density 23.896476
#
# number of rings (size 3 to 8) (size 9 to 14) (size 15 to 20)
#    0.000    1.333    4.000    2.000    5.600    3.200 
#    2.400    2.000    0.000    0.000    0.000    0.000 
#    0.000    0.000    0.000    0.000    0.000    0.000 
#
# Total GULP energy -334833.499765 kJ/mol
# GULP energy per Si atom -5580.558329 kJ/mol
# Density = 2.384209 g / cm^3
# Si number density = 23.896476 Si / 1000 Ang^3
#
#
#
# Elastic Constant Matrix: (Units=GPa)
#
#
# Indices 1 2 3 4 5 6 
#
# 1 121.9054 1.3281 7.4726 0.0000 0.0000 0.0000
# 2 1.3281 121.9285 9.7140 0.0000 0.0000 0.0000
# 3 7.4726 9.7140 40.4412 0.0000 0.0000 0.0000
# 4 0.0000 0.0000 0.0000 27.4010 0.0000 0.0000
# 5 0.0000 0.0000 0.0000 0.0000 26.1185 0.0000
# 6 0.0000 0.0000 0.0000 0.0000 0.0000 7.7625
#
#
#
# Elastic Compliance Matrix: (Units=1/GPa)
#
#
# Indices 1 2 3 4 5 6 
#
# 1 0.008297 0.000032 -0.001541 0.000000 0.000000 0.000000
# 2 0.000032 0.008362 -0.002014 0.000000 0.000000 0.000000
# 3 -0.001541 -0.002014 0.025496 0.000000 0.000000 0.000000
# 4 0.000000 0.000000 0.000000 0.036495 0.000000 0.000000
# 5 0.000000 0.000000 0.000000 0.000000 0.038287 0.000000
# 6 0.000000 0.000000 0.000000 0.000000 0.000000 0.128825
#
#
# Mechanical properties :
#
#
# Convention : Reuss Voigt Hill
#
# Bulk Modulus (GPa) = 28.48293 35.70049 32.09171
# Shear Modulus (GPa) = 18.90285 29.97376 24.43830
#
# Velocity S-wave (km/s) = 2.81558 3.54548 3.20140
# Velocity P-wave (km/s) = 4.74501 5.63317 5.20806
#
# Compressibility (1/GPa) = 0.03510875
#
# Stress axis : x y z
#
# Youngs Moduli (GPa) = 120.52277 119.59334 39.22204
#
# Poissons Ratio (x) = -0.00387 0.06044
# Poissons Ratio (y) = -0.00390 0.07901
# Poissons Ratio (z) = 0.18572 0.24092
#
# Static dielectric constant tensor:
#      x y z
#    x 1.918910 0.000000 0.000000 
#    y 0.000000 1.940540 0.000000 
#    z 0.000000 0.000000 2.011910 
# 
# From -- ./inp_files/23979.got.cif
#   From: 2010.05.17/outbox.cif.g08.bks.cpg/sg73_12_cif.got.tgz:23979.got - 2010.06.03 17:35:07.
