data_PCOD9531952
_publ_section_title
;
Structure prediction by ZEFSAII (Michael W. Deem and Ramdas Pophale) SiO2 
 PCOD9531952
Probable space group: I B C A 
;
_chemical_formula_sum "Si O2"
_cell_formula_units_Z 120
_cell_length_a 12.623650
_cell_length_b 25.871077
_cell_length_c 17.521523
_cell_angle_alpha 90.000000
_cell_angle_beta 90.000000
_cell_angle_gamma 90.000000
_cell_volume 5722.309012
_symmetry_space_group_name_H-M "I B C A "
_symmetry_group_IT_number 73
_symmetry_cell_setting 'orthorhombic'
loop_
_space_group_symop_operation_xyz
x,y,z
-x,1/2-y,z
x,-y,1/2-z
1/2-x,y,-z
-x,-y,-z
x,1/2+y,-z
-x,y,1/2+z
1/2+x,-y,z
1/2+x,1/2+y,1/2+z
1/2-x,-y,1/2+z
1/2+x,1/2-y,-z
-x,1/2+y,1/2-z
1/2-x,1/2-y,1/2-z
1/2+x,y,1/2-z
1/2-x,1/2+y,z
x,1/2-y,1/2+z
loop_
_atom_site_type_symbol
_atom_site_label
_atom_site_fract_x
_atom_site_fract_y
_atom_site_fract_z
Si Si1 0.825850 0.229637 0.180211
Si Si2 0.535497 0.177964 0.369818
Si Si3 0.153727 0.459314 0.059112
Si Si4 0.785179 0.129137 0.871473
Si Si5 0.612198 0.934060 0.855503
Si Si6 0.838382 0.411644 0.207186
Si Si7 0.021908 0.117789 0.482121
Si Si8 0.035816 0.500000 0.750000
O O1 0.750000 0.250000 0.250000
O O2 0.872141 0.278789 0.134697
O O3 0.754617 0.187102 0.139007
O O4 0.938274 0.197189 0.184797
O O5 0.587041 0.126683 0.337524
O O6 0.501992 0.162122 0.455791
O O7 0.191667 0.411483 0.111687
O O8 0.139310 0.512715 0.101438
O O9 0.250000 0.466402 0.000000
O O10 0.046210 0.437432 0.022236
O O11 0.837812 0.107277 0.794647
O O12 0.867872 0.129165 0.940031
O O13 0.717801 0.910487 0.820046
O O14 0.561999 0.893897 0.915499
O O15 0.534174 0.956032 0.790038
O O16 0.885003 0.468891 0.195408
#
# Coordination Sequence:
#
# PCOD9531952 Si02
#       8
#    16  16  16  16  16  16  16   8
#     4  11  24  48  80 104 134 184 246 305 370 436
#     4  11  26  46  77 104 142 182 238 308 373 432
#     4  10  22  39  67  98 145 188 236 286 356 436
#     4  11  22  46  74 102 138 192 241 296 370 431
#     4  12  26  40  69 104 149 196 247 293 362 441
#     4  12  26  43  69 104 149 187 244 304 354 435
#     4  11  24  45  69 106 146 194 236 299 375 444
#     4  12  24  42  66 106 142 196 248 294 352 432
#
# _framework density 20.970555000000001
#
# number of rings (size 3 to 8) (size 9 to 14) (size 15 to 20)
#    0.000    0.800    4.000    3.200    5.600    0.000 
#    0.000    5.333    0.000    0.000    0.000    0.000 
#    0.000    0.000    0.000    0.000    0.000    0.000 
#
# Total GULP energy -334837.968834 kJ/mol
# GULP energy per Si atom -5580.632814 kJ/mol
# Density = 2.092283 g / cm^3
# Si number density = 20.970555 Si / 1000 Ang^3
#
#
#
# Elastic Constant Matrix: (Units=GPa)
#
#
# Indices 1 2 3 4 5 6 
#
# 1 104.1959 38.8445 44.7619 0.0000 0.0000 0.0000
# 2 38.8445 93.1055 13.7785 0.0000 0.0000 0.0000
# 3 44.7619 13.7785 66.8971 -0.0001 0.0000 0.0000
# 4 0.0000 0.0000 -0.0001 25.6018 0.0000 0.0000
# 5 0.0000 0.0000 0.0000 0.0000 42.1389 0.0000
# 6 0.0000 0.0000 0.0000 0.0000 0.0000 13.4690
#
#
#
# Elastic Compliance Matrix: (Units=1/GPa)
#
#
# Indices 1 2 3 4 5 6 
#
# 1 0.015499 -0.005086 -0.009323 0.000000 0.000000 0.000000
# 2 -0.005086 0.012748 0.000778 0.000000 0.000000 0.000000
# 3 -0.009323 0.000778 0.021026 0.000000 0.000000 0.000000
# 4 0.000000 0.000000 0.000000 0.039060 0.000000 0.000000
# 5 0.000000 0.000000 0.000000 0.000000 0.023731 0.000000
# 6 0.000000 0.000000 0.000000 0.000000 0.000000 0.074245
#
#
# Mechanical properties :
#
#
# Convention : Reuss Voigt Hill
#
# Bulk Modulus (GPa) = 45.43476 50.99648 48.21562
# Shear Modulus (GPa) = 22.63398 27.36283 24.99841
#
# Velocity S-wave (km/s) = 3.28887 3.61615 3.45638
# Velocity P-wave (km/s) = 6.01126 6.46578 6.24266
#
# Compressibility (1/GPa) = 0.02200958
#
# Stress axis : x y z
#
# Youngs Moduli (GPa) = 64.52228 78.44667 47.56005
#
# Poissons Ratio (x) = 0.39902 0.44339
# Poissons Ratio (y) = 0.32819 -0.03700
# Poissons Ratio (z) = 0.60152 -0.06102
#
# Static dielectric constant tensor:
#      x y z
#    x 1.836830 0.000000 0.000000 
#    y 0.000000 1.756610 0.000000 
#    z 0.000000 0.000000 1.893150 
# 
# From -- ./inp_files/21521.got.cif
#   From: 2010.05.17/outbox.cif.g08.bks.cpg/sg73_11_cif.got.tgz:21521.got - 2010.06.03 17:35:07.
