data_PCOD9531991
_publ_section_title
;
Structure prediction by ZEFSAII (Michael W. Deem and Ramdas Pophale) SiO2 
 PCOD9531991
Probable space group: I B C A 
;
_chemical_formula_sum "Si O2"
_cell_formula_units_Z 120
_cell_length_a 26.822427
_cell_length_b 11.371667
_cell_length_c 16.897206
_cell_angle_alpha 90.000000
_cell_angle_beta 90.000000
_cell_angle_gamma 90.000000
_cell_volume 5153.913251
_symmetry_space_group_name_H-M "I B C A "
_symmetry_group_IT_number 73
_symmetry_cell_setting 'orthorhombic'
loop_
_space_group_symop_operation_xyz
x,y,z
-x,1/2-y,z
x,-y,1/2-z
1/2-x,y,-z
-x,-y,-z
x,1/2+y,-z
-x,y,1/2+z
1/2+x,-y,z
1/2+x,1/2+y,1/2+z
1/2-x,-y,1/2+z
1/2+x,1/2-y,-z
-x,1/2+y,1/2-z
1/2-x,1/2-y,1/2-z
1/2+x,y,1/2-z
1/2-x,1/2+y,z
x,1/2-y,1/2+z
loop_
_atom_site_type_symbol
_atom_site_label
_atom_site_fract_x
_atom_site_fract_y
_atom_site_fract_z
Si Si1 0.315098 0.790302 0.632240
Si Si2 0.994964 0.882344 0.446727
Si Si3 0.794532 0.708290 0.637927
Si Si4 0.803057 0.465451 0.006725
Si Si5 0.864247 0.626636 0.217220
Si Si6 0.525367 0.875980 0.226755
Si Si7 0.330771 0.500000 0.750000
Si Si8 0.119789 0.403216 0.090481
O O1 0.260526 0.737601 0.645828
O O2 0.307903 0.917641 0.594626
O O3 0.345318 0.792592 0.712049
O O4 0.350740 0.717107 0.576172
O O5 0.938655 0.889769 0.414342
O O6 0.000000 0.750000 0.483843
O O7 0.030938 0.883664 0.369097
O O8 0.000000 0.000000 0.500000
O O9 0.795451 0.643637 0.553714
O O10 0.836610 0.809171 0.645175
O O11 0.800498 0.603053 0.703492
O O12 0.854780 0.517100 0.976347
O O13 0.750000 0.534387 0.000000
O O14 0.847917 0.500000 0.250000
O O15 0.923893 0.625360 0.221665
O O16 0.500000 0.750000 0.241569
O O17 0.499281 0.000000 0.250000
O O18 0.363620 0.451177 0.823268
#
# Coordination Sequence:
#
# PCOD9531991 Si02
#       8
#    16  16  16  16  16  16   8  16
#     4  11  22  40  65  95 139 179 226 281 352 413
#     4  11  27  48  74 104 144 188 245 304 365 434
#     4  10  22  40  63  98 136 176 232 279 345 419
#     4   9  23  41  62  98 136 182 231 280 347 422
#     4  11  24  39  63  98 133 179 223 289 350 417
#     4  10  24  45  71 100 140 180 236 304 368 427
#     4  10  22  40  66 104 130 176 240 280 352 420
#     4  11  24  40  74  95 137 189 232 294 354 426
#
# _framework density 23.283279
#
# number of rings (size 3 to 8) (size 9 to 14) (size 15 to 20)
#    0.000    1.600    1.333    2.000    5.600    6.400 
#    2.400    0.000    0.000    0.000    0.000    0.000 
#    0.000    0.000    0.000    0.000    0.000    0.000 
#
# Total GULP energy -334561.350403 kJ/mol
# GULP energy per Si atom -5576.022507 kJ/mol
# Density = 2.323029 g / cm^3
# Si number density = 23.283279 Si / 1000 Ang^3
#
#
#
# Elastic Constant Matrix: (Units=GPa)
#
#
# Indices 1 2 3 4 5 6 
#
# 1 75.8604 9.8581 13.9759 0.0000 0.0000 0.0000
# 2 9.8581 115.6543 21.2140 0.0000 0.0000 0.0000
# 3 13.9759 21.2140 62.9116 0.0000 0.0000 0.0000
# 4 0.0000 0.0000 0.0000 33.3946 0.0000 0.0000
# 5 0.0000 0.0000 0.0000 0.0000 24.5747 0.0000
# 6 0.0000 0.0000 0.0000 0.0000 0.0000 30.9233
#
#
#
# Elastic Compliance Matrix: (Units=1/GPa)
#
#
# Indices 1 2 3 4 5 6 
#
# 1 0.013791 -0.000654 -0.002843 0.000000 0.000000 0.000000
# 2 -0.000654 0.009248 -0.002973 0.000000 0.000000 0.000000
# 3 -0.002843 -0.002973 0.017529 0.000000 0.000000 0.000000
# 4 0.000000 0.000000 0.000000 0.029945 0.000000 0.000000
# 5 0.000000 0.000000 0.000000 0.000000 0.040692 0.000000
# 6 0.000000 0.000000 0.000000 0.000000 0.000000 0.032338
#
#
# Mechanical properties :
#
#
# Convention : Reuss Voigt Hill
#
# Bulk Modulus (GPa) = 36.19574 38.28026 37.23800
# Shear Modulus (GPa) = 30.17635 31.73707 30.95671
#
# Velocity S-wave (km/s) = 3.60398 3.69600 3.65028
# Velocity P-wave (km/s) = 5.73566 5.88988 5.81328
#
# Compressibility (1/GPa) = 0.02762756
#
# Stress axis : x y z
#
# Youngs Moduli (GPa) = 72.51167 108.13698 57.04689
#
# Poissons Ratio (x) = 0.07072 0.16219
# Poissons Ratio (y) = 0.04742 0.16960
# Poissons Ratio (z) = 0.20616 0.32149
#
# Static dielectric constant tensor:
#      x y z
#    x 1.997790 0.000000 0.000000 
#    y 0.000000 2.008310 0.000000 
#    z 0.000000 0.000000 2.011590 
# 
# From -- ./inp_files/23952.got.cif
#   From: 2010.05.17/outbox.cif.g08.bks.cpg/sg73_12_cif.got.tgz:23952.got - 2010.06.03 17:35:07.
