data_PCOD9531819
_publ_section_title
;
Structure prediction by ZEFSAII (Michael W. Deem and Ramdas Pophale) SiO2 
 PCOD9531819
Probable space group: I B C A 
;
_chemical_formula_sum "Si O2"
_cell_formula_units_Z 96
_cell_length_a 19.218527
_cell_length_b 10.918186
_cell_length_c 22.587477
_cell_angle_alpha 90.000000
_cell_angle_beta 90.000000
_cell_angle_gamma 90.000000
_cell_volume 4739.563106
_symmetry_space_group_name_H-M "I B C A "
_symmetry_group_IT_number 73
_symmetry_cell_setting 'orthorhombic'
loop_
_space_group_symop_operation_xyz
x,y,z
-x,1/2-y,z
x,-y,1/2-z
1/2-x,y,-z
-x,-y,-z
x,1/2+y,-z
-x,y,1/2+z
1/2+x,-y,z
1/2+x,1/2+y,1/2+z
1/2-x,-y,1/2+z
1/2+x,1/2-y,-z
-x,1/2+y,1/2-z
1/2-x,1/2-y,1/2-z
1/2+x,y,1/2-z
1/2-x,1/2+y,z
x,1/2-y,1/2+z
loop_
_atom_site_type_symbol
_atom_site_label
_atom_site_fract_x
_atom_site_fract_y
_atom_site_fract_z
Si Si1 0.457202 0.373380 0.065840
Si Si2 0.961126 0.622710 0.923593
Si Si3 0.852711 0.670299 0.717509
Si Si4 0.000000 0.750000 0.742613
Si Si5 0.921817 0.000000 0.750000
Si Si6 0.173162 0.893157 0.146246
Si Si7 0.172383 0.086716 0.656399
O O1 0.500000 0.250000 0.081006
O O2 0.495803 0.497253 0.088189
O O3 0.380432 0.372425 0.093397
O O4 0.452256 0.376367 0.994643
O O5 0.887523 0.616612 0.890316
O O6 0.000000 0.750000 0.906745
O O7 0.932930 0.704700 0.708410
O O8 0.810886 0.767325 0.680163
O O9 0.842696 0.539727 0.689468
O O10 0.835820 0.677712 0.787140
O O11 0.969326 0.880913 0.767599
O O12 0.870252 0.970614 0.695130
O O13 0.250721 0.933058 0.129798
#
# Coordination Sequence:
#
# PCOD9531819 Si02
#       7
#    16  16  16   8   8  16  16
#     4  10  23  45  65  89 121 167 210 255 314 365
#     4  10  24  42  66  93 122 156 212 272 303 353
#     4  10  23  37  61  89 131 165 201 251 315 375
#     4  10  22  38  56  92 118 172 208 252 292 366
#     4  10  22  36  60  92 126 164 210 252 308 364
#     4  11  24  39  64  88 131 171 202 248 316 387
#     4  11  23  40  61  94 129 162 205 262 312 367
#
# _framework density 20.255032
#
# number of rings (size 3 to 8) (size 9 to 14) (size 15 to 20)
#    0.000    1.667    0.000    3.500   12.833    4.667 
#    0.000    0.000    0.000    8.000    0.000    0.000 
#    0.000    0.000    0.000    0.000    0.000    0.000 
#
# Total GULP energy -267602.374253 kJ/mol
# GULP energy per Si atom -5575.049464 kJ/mol
# Density = 2.020893 g / cm^3
# Si number density = 20.255032 Si / 1000 Ang^3
#
#
#
# Elastic Constant Matrix: (Units=GPa)
#
#
# Indices 1 2 3 4 5 6 
#
# 1 173.7876 54.3727 59.1617 0.0000 0.0000 0.0000
# 2 54.3727 125.7178 34.7666 0.0000 0.0000 0.0000
# 3 59.1617 34.7666 63.6548 0.0000 0.0000 0.0000
# 4 0.0000 0.0000 0.0000 20.7757 0.0000 0.0000
# 5 0.0000 0.0000 0.0000 0.0000 -3.6300 0.0000
# 6 0.0000 0.0000 0.0000 0.0000 0.0000 -4.0646
#
#
#
# Elastic Compliance Matrix: (Units=1/GPa)
#
#
# Indices 1 2 3 4 5 6 
#
# 1 0.008753 -0.001809 -0.007147 0.000000 0.000000 0.000000
# 2 -0.001809 0.009743 -0.003640 0.000000 0.000000 0.000000
# 3 -0.007147 -0.003640 0.024341 0.000000 0.000000 0.000000
# 4 0.000000 0.000000 0.000000 0.048133 0.000000 0.000000
# 5 0.000000 0.000000 0.000000 0.000000 -0.275481 0.000000
# 6 0.000000 0.000000 0.000000 0.000000 0.000000 -0.246026
#
#
# Mechanical properties :
#
#
# Convention : Reuss Voigt Hill
#
# Bulk Modulus (GPa) = 56.67592 73.30692 64.99142
# Shear Modulus (GPa) = -12.51685 16.94016 2.21165
#
# Velocity S-wave (km/s) = -2.48858 2.89510 1.04607
# Velocity P-wave (km/s) = 4.44798 6.88810 5.79787
#
# Compressibility (1/GPa) = 0.01764418
#
# Stress axis : x y z
#
# Youngs Moduli (GPa) = 114.24213 102.63290 41.08351
#
# Poissons Ratio (x) = 0.18569 0.29364
# Poissons Ratio (y) = 0.20669 0.14955
# Poissons Ratio (z) = 0.81652 0.37359
#
# Static dielectric constant tensor:
#      x y z
#    x 1.735460 0.000000 0.000000 
#    y 0.000000 1.816790 0.000000 
#    z 0.000000 0.000000 1.734310 
# 
# From -- ./inp_files/29800.got.cif
#   From: 2010.05.17/outbox.cif.g08.bks.cpg/sg73_15_cif.got.tgz:29800.got - 2010.06.03 17:35:07.
