data_PCOD9531524
_publ_section_title
;
Structure prediction by ZEFSAII (Michael W. Deem and Ramdas Pophale) SiO2 
 PCOD9531524
Probable space group: I B C A 
;
_chemical_formula_sum "Si O2"
_cell_formula_units_Z 112
_cell_length_a 18.384685
_cell_length_b 10.630487
_cell_length_c 29.606917
_cell_angle_alpha 90.000000
_cell_angle_beta 90.000000
_cell_angle_gamma 90.000000
_cell_volume 5786.321231
_symmetry_space_group_name_H-M "I B C A "
_symmetry_group_IT_number 73
_symmetry_cell_setting 'orthorhombic'
loop_
_space_group_symop_operation_xyz
x,y,z
-x,1/2-y,z
x,-y,1/2-z
1/2-x,y,-z
-x,-y,-z
x,1/2+y,-z
-x,y,1/2+z
1/2+x,-y,z
1/2+x,1/2+y,1/2+z
1/2-x,-y,1/2+z
1/2+x,1/2-y,-z
-x,1/2+y,1/2-z
1/2-x,1/2-y,1/2-z
1/2+x,y,1/2-z
1/2-x,1/2+y,z
x,1/2-y,1/2+z
loop_
_atom_site_type_symbol
_atom_site_label
_atom_site_fract_x
_atom_site_fract_y
_atom_site_fract_z
Si Si1 0.601012 0.035023 0.358595
Si Si2 0.024618 0.928585 0.929231
Si Si3 0.250000 0.503616 0.000000
Si Si4 0.282906 0.863469 0.904759
Si Si5 0.500000 0.250000 0.507778
Si Si6 0.130342 0.186105 0.635982
Si Si7 0.479513 0.102612 0.288127
Si Si8 0.133443 0.847203 0.552385
O O1 0.544437 0.035878 0.399973
O O2 0.642381 0.167466 0.354975
O O3 0.547707 0.040047 0.315173
O O4 0.658772 0.930090 0.372194
O O5 0.071756 0.821017 0.904517
O O6 0.000208 0.873045 0.976682
O O7 0.081028 0.043510 0.929724
O O8 0.228708 0.424344 0.955034
O O9 0.317758 0.591467 0.986639
O O10 0.205333 0.870978 0.880506
O O11 0.311722 0.722248 0.913938
O O12 0.574653 0.253895 0.535224
O O13 0.088033 0.120674 0.677292
O O14 0.500000 0.250000 0.275474
O O15 0.461443 0.000000 0.250000
#
# Coordination Sequence:
#
# PCOD9531524 Si02
#       8
#    16  16   8  16   8  16  16  16
#     4  10  21  41  66  87 125 159 205 256 314 380
#     4  11  20  39  57  79 111 163 215 255 315 361
#     4  12  24  38  54  78 128 176 222 256 314 364
#     4  12  24  39  58  89 127 172 213 265 316 365
#     4  12  22  36  56  78 116 162 220 276 314 352
#     4  10  21  40  64  88 121 168 203 246 317 393
#     4   9  20  44  73 101 124 159 205 257 322 397
#     4  12  25  35  53  85 118 159 222 274 310 353
#
# _framework density 19.355995
#
# number of rings (size 3 to 8) (size 9 to 14) (size 15 to 20)
#    0.000    1.143    2.857    5.143    2.000    0.000 
#    5.143    0.714    0.000    3.429    0.000    0.000 
#    0.000    0.000    0.000    0.000    0.000    0.000 
#
# Total GULP energy -312409.732188 kJ/mol
# GULP energy per Si atom -5578.745218 kJ/mol
# Density = 1.931194 g / cm^3
# Si number density = 19.355995 Si / 1000 Ang^3
#
#
#
# Elastic Constant Matrix: (Units=GPa)
#
#
# Indices 1 2 3 4 5 6 
#
# 1 125.7610 35.4915 28.3844 0.0000 0.0000 0.0000
# 2 35.4915 72.8167 42.4891 0.0000 0.0000 0.0000
# 3 28.3844 42.4891 61.3307 0.0000 0.0000 0.0000
# 4 0.0000 0.0000 0.0000 19.5135 0.0000 0.0000
# 5 0.0000 0.0000 0.0000 0.0000 11.2437 0.0000
# 6 0.0000 0.0000 0.0000 0.0000 0.0000 29.3372
#
#
#
# Elastic Compliance Matrix: (Units=1/GPa)
#
#
# Indices 1 2 3 4 5 6 
#
# 1 0.009359 -0.003415 -0.001966 0.000000 0.000000 0.000000
# 2 -0.003415 0.024297 -0.015253 0.000000 0.000000 0.000000
# 3 -0.001966 -0.015253 0.027782 0.000000 0.000000 0.000000
# 4 0.000000 0.000000 0.000000 0.051247 0.000000 0.000000
# 5 0.000000 0.000000 0.000000 0.000000 0.088939 0.000000
# 6 0.000000 0.000000 0.000000 0.000000 0.000000 0.034086
#
#
# Mechanical properties :
#
#
# Convention : Reuss Voigt Hill
#
# Bulk Modulus (GPa) = 49.57375 52.51538 51.04457
# Shear Modulus (GPa) = 17.62425 22.25509 19.93967
#
# Velocity S-wave (km/s) = 3.02078 3.39452 3.21308
# Velocity P-wave (km/s) = 6.15093 6.52333 6.33987
#
# Compressibility (1/GPa) = 0.02017197
#
# Stress axis : x y z
#
# Youngs Moduli (GPa) = 106.85001 41.15656 35.99485
#
# Poissons Ratio (x) = 0.14053 0.07076
# Poissons Ratio (y) = 0.36484 0.54902
# Poissons Ratio (z) = 0.21005 0.62775
#
# Static dielectric constant tensor:
#      x y z
#    x 1.648640 0.000000 0.000000 
#    y 0.000000 1.762060 0.000000 
#    z 0.000000 0.000000 1.692940 
# 
# From -- ./inp_files/34355.got.cif
#   From: 2010.05.17/outbox.cif.g08.bks.cpg/sg73_18_cif.got.tgz:34355.got - 2010.06.03 17:35:07.
