data_PCOD9531292
_publ_section_title
;
Structure prediction by ZEFSAII (Michael W. Deem and Ramdas Pophale) SiO2 
 PCOD9531292
Probable space group: I B C A 
;
_chemical_formula_sum "Si O2"
_cell_formula_units_Z 80
_cell_length_a 30.525689
_cell_length_b 4.860729
_cell_length_c 23.010327
_cell_angle_alpha 90.000000
_cell_angle_beta 90.000000
_cell_angle_gamma 90.000000
_cell_volume 3414.205631
_symmetry_space_group_name_H-M "I B C A "
_symmetry_group_IT_number 73
_symmetry_cell_setting 'orthorhombic'
loop_
_space_group_symop_operation_xyz
x,y,z
-x,1/2-y,z
x,-y,1/2-z
1/2-x,y,-z
-x,-y,-z
x,1/2+y,-z
-x,y,1/2+z
1/2+x,-y,z
1/2+x,1/2+y,1/2+z
1/2-x,-y,1/2+z
1/2+x,1/2-y,-z
-x,1/2+y,1/2-z
1/2-x,1/2-y,1/2-z
1/2+x,y,1/2-z
1/2-x,1/2+y,z
x,1/2-y,1/2+z
loop_
_atom_site_type_symbol
_atom_site_label
_atom_site_fract_x
_atom_site_fract_y
_atom_site_fract_z
Si Si1 0.374910 0.632925 0.535870
Si Si2 0.830836 0.851428 0.812098
Si Si3 0.778668 0.282660 0.583455
Si Si4 0.971293 0.011714 0.819901
Si Si5 0.616090 0.336716 0.150725
O O1 0.385529 0.942804 0.519174
O O2 0.323251 0.631556 0.551602
O O3 0.396379 0.495219 0.591957
O O4 0.790592 0.718459 0.847355
O O5 0.866402 0.599165 0.811041
O O6 0.824490 0.000000 0.750000
O O7 0.845447 0.109251 0.852906
O O8 0.739271 0.484490 0.569182
O O9 0.922536 0.131841 0.829500
O O10 0.000000 0.250000 0.846273
O O11 0.973941 0.000000 0.750000
O O12 0.000000 0.750000 0.839509
#
# Coordination Sequence:
#
# PCOD9531292 Si02
#       5
#    16  16  16  16  16
#     4  11  23  40  62  86 114 158 212 268 329 381
#     4  11  23  38  60  89 124 170 213 255 319 394
#     4  11  23  39  58  86 120 155 206 266 324 387
#     4  10  21  37  61  94 128 163 202 248 311 380
#     4  11  22  40  62  89 126 164 213 266 315 387
#
# _framework density 23.431515000000001
#
# number of rings (size 3 to 8) (size 9 to 14) (size 15 to 20)
#    0.000    1.200    0.000    8.400    0.000    6.400 
#    0.000    0.000    0.000    3.600    0.000    0.000 
#    0.000    0.000    0.000    0.000    0.000    0.000 
#
# Total GULP energy -222914.290139 kJ/mol
# GULP energy per Si atom -5572.857253 kJ/mol
# Density = 2.337818 g / cm^3
# Si number density = 23.431515 Si / 1000 Ang^3
#
#
#
# Elastic Constant Matrix: (Units=GPa)
#
#
# Indices 1 2 3 4 5 6 
#
# 1 45.6779 35.3058 -10.2595 0.0000 0.0000 0.0000
# 2 35.3058 165.3927 26.0228 0.0000 0.0000 0.0000
# 3 -10.2595 26.0228 85.6579 0.0000 0.0000 0.0000
# 4 0.0000 0.0000 0.0000 45.4918 0.0000 0.0000
# 5 0.0000 0.0000 0.0000 0.0000 12.8936 0.0000
# 6 0.0000 0.0000 0.0000 0.0000 0.0000 28.7222
#
#
#
# Elastic Compliance Matrix: (Units=1/GPa)
#
#
# Indices 1 2 3 4 5 6 
#
# 1 0.028510 -0.006956 0.005528 0.000000 0.000000 0.000000
# 2 -0.006956 0.008047 -0.003278 0.000000 0.000000 0.000000
# 3 0.005528 -0.003278 0.013332 0.000000 0.000000 0.000000
# 4 0.000000 0.000000 0.000000 0.021982 0.000000 0.000000
# 5 0.000000 0.000000 0.000000 0.000000 0.077558 0.000000
# 6 0.000000 0.000000 0.000000 0.000000 0.000000 0.034816
#
#
# Mechanical properties :
#
#
# Convention : Reuss Voigt Hill
#
# Bulk Modulus (GPa) = 24.70469 44.31852 34.51160
# Shear Modulus (GPa) = 24.13723 33.79882 28.96802
#
# Velocity S-wave (km/s) = 3.21303 3.80208 3.51990
# Velocity P-wave (km/s) = 4.93264 6.18301 5.59288
#
# Compressibility (1/GPa) = 0.04047815
#
# Stress axis : x y z
#
# Youngs Moduli (GPa) = 35.07506 124.27384 75.00633
#
# Poissons Ratio (x) = 0.86442 -0.41463
# Poissons Ratio (y) = 0.24397 0.24585
# Poissons Ratio (z) = -0.19389 0.40733
#
# Static dielectric constant tensor:
#      x y z
#    x 1.674430 0.000000 0.000000 
#    y 0.000000 1.859420 0.000000 
#    z 0.000000 0.000000 1.978110 
# 
# From -- ./inp_files/30599.got.cif
#   From: 2010.05.17/outbox.cif.g08.bks.cpg/sg73_16_cif.got.tgz:30599.got - 2010.06.03 17:35:07.
