data_PCOD9531479
_publ_section_title
;
Structure prediction by ZEFSAII (Michael W. Deem and Ramdas Pophale) SiO2 
 PCOD9531479
Probable space group: I B C A 
;
_chemical_formula_sum "Si O2"
_cell_formula_units_Z 88
_cell_length_a 14.092928
_cell_length_b 10.947812
_cell_length_c 23.046802
_cell_angle_alpha 90.000000
_cell_angle_beta 90.000000
_cell_angle_gamma 90.000000
_cell_volume 3555.815632
_symmetry_space_group_name_H-M "I B C A "
_symmetry_group_IT_number 73
_symmetry_cell_setting 'orthorhombic'
loop_
_space_group_symop_operation_xyz
x,y,z
-x,1/2-y,z
x,-y,1/2-z
1/2-x,y,-z
-x,-y,-z
x,1/2+y,-z
-x,y,1/2+z
1/2+x,-y,z
1/2+x,1/2+y,1/2+z
1/2-x,-y,1/2+z
1/2+x,1/2-y,-z
-x,1/2+y,1/2-z
1/2-x,1/2-y,1/2-z
1/2+x,y,1/2-z
1/2-x,1/2+y,z
x,1/2-y,1/2+z
loop_
_atom_site_type_symbol
_atom_site_label
_atom_site_fract_x
_atom_site_fract_y
_atom_site_fract_z
Si Si1 0.500000 0.250000 0.623736
Si Si2 0.851174 0.580997 0.302034
Si Si3 0.601100 0.669670 0.154535
Si Si4 0.250000 0.935342 0.000000
Si Si5 0.167650 0.000000 0.750000
Si Si6 0.184135 0.861428 0.118449
Si Si7 0.063243 0.992113 0.556429
O O1 0.600567 0.287190 0.650178
O O2 0.529283 0.128889 0.588714
O O3 0.894966 0.500000 0.250000
O O4 0.743543 0.402554 0.223170
O O5 0.834211 0.498507 0.358877
O O6 0.913892 0.696808 0.318435
O O7 0.604832 0.563509 0.202002
O O8 0.712987 0.681685 0.137431
O O9 0.553651 0.611532 0.097473
O O10 0.310369 0.860194 0.951787
O O11 0.173294 0.011347 0.963247
O O12 0.000000 0.000000 0.500000
#
# Coordination Sequence:
#
# PCOD9531479 Si02
#       7
#     8  16  16   8   8  16  16
#     4  12  26  42  64  94 150 182 244 316 364 452
#     4   9  20  37  67 105 142 182 255 312 366 464
#     4  10  21  39  71 106 141 195 249 307 385 452
#     4  10  22  46  68  98 136 192 260 292 394 448
#     4   8  18  34  66 112 140 186 258 316 378 448
#     4  10  23  39  66  99 139 196 238 306 375 443
#     4  11  25  46  67 108 144 197 252 321 381 455
#
# _framework density 24.748190000000001
#
# number of rings (size 3 to 8) (size 9 to 14) (size 15 to 20)
#    0.545    1.455    1.818    0.545    7.636    2.182 
#    0.000    0.000    6.000    0.000    0.000    0.000 
#    0.000    0.000    0.000    0.000    0.000    0.000 
#
# Total GULP energy -245707.836425 kJ/mol
# GULP energy per Si atom -5584.269010 kJ/mol
# Density = 2.469186 g / cm^3
# Si number density = 24.748190 Si / 1000 Ang^3
#
#
#
# Elastic Constant Matrix: (Units=GPa)
#
#
# Indices 1 2 3 4 5 6 
#
# 1 97.9705 22.4048 20.8807 0.0000 0.0000 0.0000
# 2 22.4048 111.0661 50.5068 0.0000 0.0000 0.0000
# 3 20.8807 50.5068 126.3217 0.0000 0.0000 0.0000
# 4 0.0000 0.0000 0.0000 20.1260 0.0000 0.0000
# 5 0.0000 0.0000 0.0000 0.0000 34.5530 0.0000
# 6 0.0000 0.0000 0.0000 0.0000 0.0000 41.8258
#
#
#
# Elastic Compliance Matrix: (Units=1/GPa)
#
#
# Indices 1 2 3 4 5 6 
#
# 1 0.010829 -0.001675 -0.001120 0.000000 0.000000 0.000000
# 2 -0.001675 0.011264 -0.004227 0.000000 0.000000 0.000000
# 3 -0.001120 -0.004227 0.009791 0.000000 0.000000 0.000000
# 4 0.000000 0.000000 0.000000 0.049687 0.000000 0.000000
# 5 0.000000 0.000000 0.000000 0.000000 0.028941 0.000000
# 6 0.000000 0.000000 0.000000 0.000000 0.000000 0.023909
#
#
# Mechanical properties :
#
#
# Convention : Reuss Voigt Hill
#
# Bulk Modulus (GPa) = 56.05347 58.10477 57.07912
# Shear Modulus (GPa) = 32.38105 35.40533 33.89319
#
# Velocity S-wave (km/s) = 3.62113 3.78646 3.70472
# Velocity P-wave (km/s) = 6.33894 6.53037 6.43537
#
# Compressibility (1/GPa) = 0.01784011
#
# Stress axis : x y z
#
# Youngs Moduli (GPa) = 92.34471 88.78175 102.13053
#
# Poissons Ratio (x) = 0.14871 0.11442
# Poissons Ratio (y) = 0.15468 0.43167
# Poissons Ratio (z) = 0.10345 0.37525
#
# Static dielectric constant tensor:
#      x y z
#    x 2.149680 0.000000 0.000000 
#    y 0.000000 1.987600 0.000000 
#    z 0.000000 0.000000 1.961930 
# 
# From -- ./inp_files/31714.got.cif
#   From: 2010.05.17/outbox.cif.g08.bks.cpg/sg73_16_cif.got.tgz:31714.got - 2010.06.03 17:35:07.
