data_PCOD9531816
_publ_section_title
;
Structure prediction by ZEFSAII (Michael W. Deem and Ramdas Pophale) SiO2 
 PCOD9531816
Probable space group: I B C A 
;
_chemical_formula_sum "Si O2"
_cell_formula_units_Z 56
_cell_length_a 17.962118
_cell_length_b 5.151591
_cell_length_c 28.888515
_cell_angle_alpha 90.000000
_cell_angle_beta 90.000000
_cell_angle_gamma 90.000000
_cell_volume 2673.154982
_symmetry_space_group_name_H-M "I B C A "
_symmetry_group_IT_number 73
_symmetry_cell_setting 'orthorhombic'
loop_
_space_group_symop_operation_xyz
x,y,z
-x,1/2-y,z
x,-y,1/2-z
1/2-x,y,-z
-x,-y,-z
x,1/2+y,-z
-x,y,1/2+z
1/2+x,-y,z
1/2+x,1/2+y,1/2+z
1/2-x,-y,1/2+z
1/2+x,1/2-y,-z
-x,1/2+y,1/2-z
1/2-x,1/2-y,1/2-z
1/2+x,y,1/2-z
1/2-x,1/2+y,z
x,1/2-y,1/2+z
loop_
_atom_site_type_symbol
_atom_site_label
_atom_site_fract_x
_atom_site_fract_y
_atom_site_fract_z
Si Si1 0.442106 0.549034 0.391365
Si Si2 0.500000 0.750000 0.193468
Si Si3 0.797043 0.218499 0.840095
Si Si4 0.500000 0.750000 0.533042
Si Si5 0.875127 0.000000 0.750000
O O1 0.500000 0.750000 0.413065
O O2 0.485239 0.474419 0.343788
O O3 0.362885 0.655393 0.375907
O O4 0.435519 0.315409 0.428549
O O5 0.428808 0.714193 0.226061
O O6 0.770111 0.512633 0.845691
O O7 0.827976 0.145363 0.789129
O O8 0.500000 0.500000 0.500000
#
# Coordination Sequence:
#
# PCOD9531816 Si02
#       5
#    16   8  16   8   8
#     4  10  23  42  68  93 133 168 217 266 338 394
#     4   9  22  34  57  94 120 176 219 284 314 381
#     4  11  26  41  61  90 131 180 220 266 322 382
#     4  11  22  40  73 110 122 150 205 272 324 393
#     4  10  22  36  60  86 132 168 238 276 322 352
#
# _framework density 20.949028999999999
#
# number of rings (size 3 to 8) (size 9 to 14) (size 15 to 20)
#    0.000    1.714    1.429    0.857   20.000    0.000 
#    0.000    0.000    0.000    5.143    0.000    0.000 
#    0.000    0.000    0.000    0.000    0.000    0.000 
#
# Total GULP energy -155973.411406 kJ/mol
# GULP energy per Si atom -5570.478979 kJ/mol
# Density = 2.090135 g / cm^3
# Si number density = 20.949029 Si / 1000 Ang^3
#
#
#
# Elastic Constant Matrix: (Units=GPa)
#
#
# Indices 1 2 3 4 5 6 
#
# 1 57.4155 5.1284 33.5981 0.0000 0.0000 0.0000
# 2 5.1284 63.8325 23.4795 0.0000 0.0000 0.0000
# 3 33.5981 23.4795 123.1745 0.0000 0.0000 0.0000
# 4 0.0000 0.0000 0.0000 13.7168 0.0000 0.0000
# 5 0.0000 0.0000 0.0000 0.0000 -42.5307 0.0000
# 6 0.0000 0.0000 0.0000 0.0000 0.0000 41.8720
#
#
#
# Elastic Compliance Matrix: (Units=1/GPa)
#
#
# Indices 1 2 3 4 5 6 
#
# 1 0.020737 0.000446 -0.005741 0.000000 0.000000 0.000000
# 2 0.000446 0.016857 -0.003335 0.000000 0.000000 0.000000
# 3 -0.005741 -0.003335 0.010320 0.000000 0.000000 0.000000
# 4 0.000000 0.000000 0.000000 0.072903 0.000000 0.000000
# 5 0.000000 0.000000 0.000000 0.000000 -0.023512 0.000000
# 6 0.000000 0.000000 0.000000 0.000000 0.000000 0.023882
#
#
# Mechanical properties :
#
#
# Convention : Reuss Voigt Hill
#
# Bulk Modulus (GPa) = 32.62303 40.98160 36.80232
# Shear Modulus (GPa) = 33.63261 14.75941 24.19601
#
# Velocity S-wave (km/s) = 4.01115 2.65720 3.40221
# Velocity P-wave (km/s) = 6.08760 5.38695 5.74796
#
# Compressibility (1/GPa) = 0.03065319
#
# Stress axis : x y z
#
# Youngs Moduli (GPa) = 48.22361 59.32306 96.89642
#
# Poissons Ratio (x) = -0.02645 0.55631
# Poissons Ratio (y) = -0.02150 0.32314
# Poissons Ratio (z) = 0.27687 0.19783
#
# Static dielectric constant tensor:
#      x y z
#    x 1.755710 0.000000 0.000000 
#    y 0.000000 1.893160 0.000000 
#    z 0.000000 0.000000 1.816330 
# 
# From -- ./inp_files/737.got.cif
#   From: 2010.05.17/outbox.cif.g08.bks.cpg/sg73_1_cif.got.tgz:737.got - 2010.06.03 17:35:07.
