data_PCOD9531112
_publ_section_title
;
Structure prediction by ZEFSAII (Michael W. Deem and Ramdas Pophale) SiO2 
 PCOD9531112
Probable space group: I B C A 
;
_chemical_formula_sum "Si O2"
_cell_formula_units_Z 120
_cell_length_a 11.301664
_cell_length_b 32.183632
_cell_length_c 16.315083
_cell_angle_alpha 90.000000
_cell_angle_beta 90.000000
_cell_angle_gamma 90.000000
_cell_volume 5934.262220
_symmetry_space_group_name_H-M "I B C A "
_symmetry_group_IT_number 73
_symmetry_cell_setting 'orthorhombic'
loop_
_space_group_symop_operation_xyz
x,y,z
-x,1/2-y,z
x,-y,1/2-z
1/2-x,y,-z
-x,-y,-z
x,1/2+y,-z
-x,y,1/2+z
1/2+x,-y,z
1/2+x,1/2+y,1/2+z
1/2-x,-y,1/2+z
1/2+x,1/2-y,-z
-x,1/2+y,1/2-z
1/2-x,1/2-y,1/2-z
1/2+x,y,1/2-z
1/2-x,1/2+y,z
x,1/2-y,1/2+z
loop_
_atom_site_type_symbol
_atom_site_label
_atom_site_fract_x
_atom_site_fract_y
_atom_site_fract_z
Si Si1 0.920682 0.468411 0.904210
Si Si2 0.248373 0.428709 0.709876
Si Si3 0.113657 0.055377 0.516371
Si Si4 0.735501 0.818975 0.598404
Si Si5 0.417140 0.894428 0.167929
Si Si6 0.061010 0.500000 0.750000
Si Si7 0.123154 0.845144 0.255233
Si Si8 0.863825 0.257324 0.191557
O O1 0.809840 0.442111 0.873696
O O2 0.882499 0.506231 0.962657
O O3 0.979955 0.489566 0.826130
O O4 0.026840 0.440754 0.939859
O O5 0.342911 0.428894 0.783233
O O6 0.144191 0.460555 0.730118
O O7 0.212388 0.380775 0.715647
O O8 0.250000 0.069067 0.500000
O O9 0.044297 0.079582 0.588467
O O10 0.750000 0.820350 0.500000
O O11 0.655989 0.857455 0.626366
O O12 0.845891 0.826907 0.663826
O O13 0.667568 0.775894 0.620970
O O14 0.501578 0.870311 0.231524
O O15 0.133471 0.806896 0.318339
O O16 0.750000 0.250000 0.250000
O O17 0.000000 0.250000 0.221751
#
# Coordination Sequence:
#
# PCOD9531112 Si02
#       8
#    16  16  16  16  16   8  16  16
#     4  11  23  38  58  84 119 165 215 271 335 401
#     4  11  22  36  60  90 119 163 220 269 331 397
#     4  11  23  38  58  85 122 165 214 273 342 402
#     4  10  22  40  66  97 132 169 221 280 342 405
#     4  11  21  37  61  88 123 167 212 270 333 412
#     4  12  22  40  60  84 122 166 220 274 324 402
#     4  10  22  40  66  93 128 171 218 274 333 414
#     4  10  20  42  72 100 137 181 227 278 344 421
#
# _framework density 20.221554000000001
#
# number of rings (size 3 to 8) (size 9 to 14) (size 15 to 20)
#    0.000    1.333    1.333    5.600    0.000    4.267 
#    0.000    4.000    0.000    0.000    0.000    0.000 
#    0.000    0.000    0.000    0.000    0.000    0.000 
#
# Total GULP energy -334043.513838 kJ/mol
# GULP energy per Si atom -5567.391897 kJ/mol
# Density = 2.017553 g / cm^3
# Si number density = 20.221554 Si / 1000 Ang^3
#
#
#
# Elastic Constant Matrix: (Units=GPa)
#
#
# Indices 1 2 3 4 5 6 
#
# 1 89.5971 22.5747 26.9464 0.0000 0.0000 0.0004
# 2 22.5747 105.4111 17.5745 0.0000 0.0000 0.0004
# 3 26.9464 17.5745 67.2903 0.0002 -0.0001 0.0022
# 4 0.0000 0.0000 0.0002 24.6704 0.0000 0.0009
# 5 0.0000 0.0000 -0.0001 0.0000 27.8924 -0.0003
# 6 0.0004 0.0004 0.0022 0.0009 -0.0003 -133.7738
#
#
#
# Elastic Compliance Matrix: (Units=1/GPa)
#
#
# Indices 1 2 3 4 5 6 
#
# 1 0.013087 -0.002017 -0.004714 0.000000 0.000000 0.000000
# 2 -0.002017 0.010229 -0.001864 0.000000 0.000000 0.000000
# 3 -0.004714 -0.001864 0.017236 0.000000 0.000000 0.000000
# 4 0.000000 0.000000 0.000000 0.040534 0.000000 0.000000
# 5 0.000000 0.000000 0.000000 0.000000 0.035852 0.000000
# 6 0.000000 0.000000 0.000000 0.000000 0.000000 -0.007475
#
#
# Mechanical properties :
#
#
# Convention : Reuss Voigt Hill
#
# Bulk Modulus (GPa) = 42.80394 44.05443 43.42919
# Shear Modulus (GPa) = 37.19135 -3.22867 16.98134
#
# Velocity S-wave (km/s) = 4.29323 -1.26496 2.90101
# Velocity P-wave (km/s) = 6.76678 4.43843 5.72228
#
# Compressibility (1/GPa) = 0.02336233
#
# Stress axis : x y z
#
# Youngs Moduli (GPa) = 76.41204 97.75793 58.01975
#
# Poissons Ratio (x) = 0.19715 0.27350
# Poissons Ratio (y) = 0.15410 0.10815
# Poissons Ratio (z) = 0.36020 0.18222
#
# Static dielectric constant tensor:
#      x y z
#    x 1.851470 0.000000 0.000000 
#    y 0.000000 1.767730 0.000000 
#    z 0.000000 0.000000 1.750650 
# 
# From -- ./inp_files/21577.got.cif
#   From: 2010.05.17/outbox.cif.g08.bks.cpg/sg73_11_cif.got.tgz:21577.got - 2010.06.03 17:35:07.
