data_PCOD9531853
_publ_section_title
;
Structure prediction by ZEFSAII (Michael W. Deem and Ramdas Pophale) SiO2 
 PCOD9531853
Probable space group: I B C A 
;
_chemical_formula_sum "Si O2"
_cell_formula_units_Z 88
_cell_length_a 21.499444
_cell_length_b 14.711283
_cell_length_c 11.437647
_cell_angle_alpha 90.000000
_cell_angle_beta 90.000000
_cell_angle_gamma 90.000000
_cell_volume 3617.549376
_symmetry_space_group_name_H-M "I B C A "
_symmetry_group_IT_number 73
_symmetry_cell_setting 'orthorhombic'
loop_
_space_group_symop_operation_xyz
x,y,z
-x,1/2-y,z
x,-y,1/2-z
1/2-x,y,-z
-x,-y,-z
x,1/2+y,-z
-x,y,1/2+z
1/2+x,-y,z
1/2+x,1/2+y,1/2+z
1/2-x,-y,1/2+z
1/2+x,1/2-y,-z
-x,1/2+y,1/2-z
1/2-x,1/2-y,1/2-z
1/2+x,y,1/2-z
1/2-x,1/2+y,z
x,1/2-y,1/2+z
loop_
_atom_site_type_symbol
_atom_site_label
_atom_site_fract_x
_atom_site_fract_y
_atom_site_fract_z
Si Si1 0.382772 0.266915 0.040818
Si Si2 0.775369 0.000000 0.750000
Si Si3 0.375504 0.413575 0.392911
Si Si4 0.500000 0.750000 0.070753
Si Si5 0.172304 0.563208 0.427379
Si Si6 0.580134 0.359095 0.239412
Si Si7 0.486684 0.000000 0.750000
O O1 0.380957 0.210751 0.160216
O O2 0.382287 0.187012 0.942570
O O3 0.454206 0.296982 0.029542
O O4 0.334754 0.346186 0.008963
O O5 0.821839 0.921801 0.795700
O O6 0.735441 0.966683 0.638489
O O7 0.354220 0.480290 0.496726
O O8 0.439718 0.447813 0.336973
O O9 0.535500 0.691525 0.171537
O O10 0.128950 0.587795 0.318622
O O11 0.533375 0.432187 0.181411
#
# Coordination Sequence:
#
# PCOD9531853 Si02
#       7
#    16   8  16   8  16  16   8
#     4  11  24  42  68 105 140 190 234 293 369 440
#     4  11  25  50  70  96 137 187 252 318 362 433
#     4  11  25  44  70 100 141 188 247 300 374 437
#     4  10  22  38  58 100 142 184 222 280 346 440
#     4  11  26  46  72 105 142 195 249 307 369 435
#     4  11  23  38  66 100 146 181 231 289 367 445
#     4  11  23  38  66 102 143 189 234 296 366 455
#
# _framework density 24.325859999999999
#
# number of rings (size 3 to 8) (size 9 to 14) (size 15 to 20)
#    0.000    1.091    1.818    3.818    7.636    3.636 
#    0.000    5.455    0.000    0.000    0.000    0.000 
#    0.000    0.000    0.000    0.000    0.000    0.000 
#
# Total GULP energy -245061.370265 kJ/mol
# GULP energy per Si atom -5569.576597 kJ/mol
# Density = 2.427049 g / cm^3
# Si number density = 24.325860 Si / 1000 Ang^3
#
#
#
# Elastic Constant Matrix: (Units=GPa)
#
#
# Indices 1 2 3 4 5 6 
#
# 1 83.0714 23.6760 39.6419 0.0000 0.0000 0.0000
# 2 23.6760 108.4248 42.5398 0.0000 0.0000 0.0000
# 3 39.6419 42.5398 97.1303 0.0000 0.0000 0.0000
# 4 0.0000 0.0000 0.0000 38.3809 0.0000 0.0000
# 5 0.0000 0.0000 0.0000 0.0000 36.4526 0.0000
# 6 0.0000 0.0000 0.0000 0.0000 0.0000 44.5375
#
#
#
# Elastic Compliance Matrix: (Units=1/GPa)
#
#
# Indices 1 2 3 4 5 6 
#
# 1 0.015049 -0.001058 -0.005679 0.000000 0.000000 0.000000
# 2 -0.001058 0.011211 -0.004478 0.000000 0.000000 0.000000
# 3 -0.005679 -0.004478 0.014574 0.000000 0.000000 0.000000
# 4 0.000000 0.000000 0.000000 0.026055 0.000000 0.000000
# 5 0.000000 0.000000 0.000000 0.000000 0.027433 0.000000
# 6 0.000000 0.000000 0.000000 0.000000 0.000000 0.022453
#
#
# Mechanical properties :
#
#
# Convention : Reuss Voigt Hill
#
# Bulk Modulus (GPa) = 54.33405 55.59352 54.96379
# Shear Modulus (GPa) = 34.40207 36.05878 35.23042
#
# Velocity S-wave (km/s) = 3.76469 3.85427 3.80974
# Velocity P-wave (km/s) = 6.42507 6.53533 6.48044
#
# Compressibility (1/GPa) = 0.01840467
#
# Stress axis : x y z
#
# Youngs Moduli (GPa) = 66.44830 89.19777 68.61370
#
# Poissons Ratio (x) = 0.09439 0.38963
# Poissons Ratio (y) = 0.07032 0.30726
# Poissons Ratio (z) = 0.37733 0.39944
#
# Static dielectric constant tensor:
#      x y z
#    x 2.182190 0.000000 0.000000 
#    y 0.000000 1.699800 0.000000 
#    z 0.000000 0.000000 1.985210 
# 
# From -- ./inp_files/11932.got.cif
#   From: 2010.05.17/outbox.cif.g08.bks.cpg/sg73_6_cif.got.tgz:11932.got - 2010.06.03 17:35:07.
