data_PCOD9531963
_publ_section_title
;
Structure prediction by ZEFSAII (Michael W. Deem and Ramdas Pophale) SiO2 
 PCOD9531963
Probable space group: I B C A 
;
_chemical_formula_sum "Si O2"
_cell_formula_units_Z 56
_cell_length_a 9.290473
_cell_length_b 13.098948
_cell_length_c 17.915416
_cell_angle_alpha 90.000000
_cell_angle_beta 90.000000
_cell_angle_gamma 90.000000
_cell_volume 2180.224123
_symmetry_space_group_name_H-M "I B C A "
_symmetry_group_IT_number 73
_symmetry_cell_setting 'orthorhombic'
loop_
_space_group_symop_operation_xyz
x,y,z
-x,1/2-y,z
x,-y,1/2-z
1/2-x,y,-z
-x,-y,-z
x,1/2+y,-z
-x,y,1/2+z
1/2+x,-y,z
1/2+x,1/2+y,1/2+z
1/2-x,-y,1/2+z
1/2+x,1/2-y,-z
-x,1/2+y,1/2-z
1/2-x,1/2-y,1/2-z
1/2+x,y,1/2-z
1/2-x,1/2+y,z
x,1/2-y,1/2+z
loop_
_atom_site_type_symbol
_atom_site_label
_atom_site_fract_x
_atom_site_fract_y
_atom_site_fract_z
Si Si1 0.542893 0.004425 0.610302
Si Si2 0.718283 0.000000 0.750000
Si Si3 0.641886 0.817467 0.067368
Si Si4 0.698513 0.373088 0.616537
O O1 0.611354 0.043071 0.687267
O O2 0.453794 0.099568 0.579489
O O3 0.302406 0.084484 0.701908
O O4 0.421224 0.914943 0.611543
O O5 0.500000 0.750000 0.048154
O O6 0.321838 0.943374 0.077579
O O7 0.742948 0.740359 0.113996
O O8 0.750000 0.846822 0.000000
#
# Coordination Sequence:
#
# PCOD9531963 Si02
#       4
#    16   8  16  16
#     4   9  19  36  59  86 116 157 201 252 307 354
#     4   8  18  34  62  74 126 140 206 236 314 350
#     4  10  22  40  59  85 123 161 208 244 297 367
#     4   9  19  36  59  86 116 157 201 252 307 354
#
# _framework density 25.685433
#
# number of rings (size 3 to 8) (size 9 to 14) (size 15 to 20)
#    1.714    1.143    0.000    0.857    0.000    3.429 
#    0.000   14.286    0.000    0.000    0.000    0.000 
#    0.000    0.000    0.000    0.000    0.000    0.000 
#
# Total GULP energy -155868.309843 kJ/mol
# GULP energy per Si atom -5566.725352 kJ/mol
# Density = 2.562697 g / cm^3
# Si number density = 25.685433 Si / 1000 Ang^3
#
#
#
# Elastic Constant Matrix: (Units=GPa)
#
#
# Indices 1 2 3 4 5 6 
#
# 1 129.9329 28.6114 -0.7223 0.0000 0.0000 0.0000
# 2 28.6114 105.4732 31.7463 -0.0001 0.0000 0.0000
# 3 -0.7223 31.7463 94.2434 -0.0001 0.0000 0.0000
# 4 0.0000 -0.0001 -0.0001 867.0157 -0.0001 0.0000
# 5 0.0000 0.0000 0.0000 -0.0001 24.2031 0.0000
# 6 0.0000 0.0000 0.0000 0.0000 0.0000 53.8246
#
#
#
# Elastic Compliance Matrix: (Units=1/GPa)
#
#
# Indices 1 2 3 4 5 6 
#
# 1 0.008255 -0.002513 0.000910 0.000000 0.000000 0.000000
# 2 -0.002513 0.011316 -0.003831 0.000000 0.000000 0.000000
# 3 0.000910 -0.003831 0.011908 0.000000 0.000000 0.000000
# 4 0.000000 0.000000 0.000000 0.001153 0.000000 0.000000
# 5 0.000000 0.000000 0.000000 0.000000 0.041317 0.000000
# 6 0.000000 0.000000 0.000000 0.000000 0.000000 0.018579
#
#
# Mechanical properties :
#
#
# Convention : Reuss Voigt Hill
#
# Bulk Modulus (GPa) = 48.51956 49.88005 49.19980
# Shear Modulus (GPa) = 45.34447 207.00961 126.17704
#
# Velocity S-wave (km/s) = 4.20620 8.98716 7.01645
# Velocity P-wave (km/s) = 6.52077 11.27625 9.21071
#
# Compressibility (1/GPa) = 0.02061025
#
# Stress axis : x y z
#
# Youngs Moduli (GPa) = 121.14279 88.37114 83.97497
#
# Poissons Ratio (x) = 0.22208 -0.07640
# Poissons Ratio (y) = 0.30444 0.32171
# Poissons Ratio (z) = -0.11022 0.33856
#
# Static dielectric constant tensor:
#      x y z
#    x 2.058300 0.000000 0.000000 
#    y 0.000000 1.989810 0.000000 
#    z 0.000000 0.000000 2.126580 
# 
# From -- ./inp_files/5915.got.cif
#   From: 2010.05.17/outbox.cif.g08.bks.cpg/sg73_3_cif.got.tgz:5915.got - 2010.06.03 17:35:07.
