data_PCOD9531201
_publ_section_title
;
Structure prediction by ZEFSAII (Michael W. Deem and Ramdas Pophale) SiO2 
 PCOD9531201
Probable space group: I B C A 
;
_chemical_formula_sum "Si O2"
_cell_formula_units_Z 96
_cell_length_a 24.236262
_cell_length_b 8.684262
_cell_length_c 22.886675
_cell_angle_alpha 90.000000
_cell_angle_beta 90.000000
_cell_angle_gamma 90.000000
_cell_volume 4817.051158
_symmetry_space_group_name_H-M "I B C A "
_symmetry_group_IT_number 73
_symmetry_cell_setting 'orthorhombic'
loop_
_space_group_symop_operation_xyz
x,y,z
-x,1/2-y,z
x,-y,1/2-z
1/2-x,y,-z
-x,-y,-z
x,1/2+y,-z
-x,y,1/2+z
1/2+x,-y,z
1/2+x,1/2+y,1/2+z
1/2-x,-y,1/2+z
1/2+x,1/2-y,-z
-x,1/2+y,1/2-z
1/2-x,1/2-y,1/2-z
1/2+x,y,1/2-z
1/2-x,1/2+y,z
x,1/2-y,1/2+z
loop_
_atom_site_type_symbol
_atom_site_label
_atom_site_fract_x
_atom_site_fract_y
_atom_site_fract_z
Si Si1 0.493717 0.434619 0.935543
Si Si2 0.690324 0.629642 0.976094
Si Si3 0.873315 0.619346 0.903546
Si Si4 0.390964 0.966695 0.615210
Si Si5 0.785877 0.873059 0.126375
Si Si6 0.697772 0.431220 0.687436
O O1 0.500000 0.250000 0.938154
O O2 0.432006 0.462322 0.913333
O O3 0.545189 0.496303 0.898387
O O4 0.500000 0.500000 0.000000
O O5 0.646795 0.526233 0.939244
O O6 0.705555 0.774793 0.933652
O O7 0.750000 0.569126 0.000000
O O8 0.656145 0.662062 0.034971
O O9 0.882882 0.784546 0.874519
O O10 0.833253 0.501126 0.871338
O O11 0.366180 0.052476 0.670873
O O12 0.787114 0.744746 0.176647
O O13 0.730601 0.968868 0.138380
O O14 0.710533 0.500000 0.750000
#
# Coordination Sequence:
#
# PCOD9531201 Si02
#       6
#    16  16  16  16  16  16
#     4  10  21  35  57  84 120 160 192 233 286 357
#     4  11  21  33  53  83 119 157 187 230 298 363
#     4  11  21  35  56  85 124 154 188 233 296 370
#     4  10  21  37  56  84 114 153 196 241 292 356
#     4  11  24  37  58  88 115 155 198 247 300 363
#     4  11  23  42  63  83 112 153 205 262 308 345
#
# _framework density 19.929206000000001
#
# number of rings (size 3 to 8) (size 9 to 14) (size 15 to 20)
#    0.000    1.333    1.667    5.500    2.333    2.667 
#    0.000    0.000    0.000    7.000    0.000    0.000 
#    0.000    0.000    0.000    0.000    0.000    0.000 
#
# Total GULP energy -267833.805981 kJ/mol
# GULP energy per Si atom -5579.870958 kJ/mol
# Density = 1.988385 g / cm^3
# Si number density = 19.929206 Si / 1000 Ang^3
#
#
#
# Elastic Constant Matrix: (Units=GPa)
#
#
# Indices 1 2 3 4 5 6 
#
# 1 125.7839 -5.6630 12.1663 0.0000 0.0000 0.0000
# 2 -5.6630 26.3494 3.0333 0.0000 0.0000 0.0000
# 3 12.1663 3.0333 25.4713 0.0000 0.0000 0.0000
# 4 0.0000 0.0000 0.0000 17.6639 0.0000 0.0000
# 5 0.0000 0.0000 0.0000 0.0000 15.4585 0.0000
# 6 0.0000 0.0000 0.0000 0.0000 0.0000 28.9313
#
#
#
# Elastic Compliance Matrix: (Units=1/GPa)
#
#
# Indices 1 2 3 4 5 6 
#
# 1 0.008473 0.002319 -0.004323 0.000000 0.000000 0.000000
# 2 0.002319 0.039113 -0.005765 0.000000 0.000000 0.000000
# 3 -0.004323 -0.005765 0.042011 0.000000 0.000000 0.000000
# 4 0.000000 0.000000 0.000000 0.056613 0.000000 0.000000
# 5 0.000000 0.000000 0.000000 0.000000 0.064689 0.000000
# 6 0.000000 0.000000 0.000000 0.000000 0.000000 0.034565
#
#
# Mechanical properties :
#
#
# Convention : Reuss Voigt Hill
#
# Bulk Modulus (GPa) = 13.50295 21.85310 17.67802
# Shear Modulus (GPa) = 17.50150 23.61528 20.55839
#
# Velocity S-wave (km/s) = 2.96663 3.44606 3.21529
# Velocity P-wave (km/s) = 4.30403 5.17908 4.76170
#
# Compressibility (1/GPa) = 0.07405790
#
# Stress axis : x y z
#
# Youngs Moduli (GPa) = 118.02653 25.56664 23.80307
#
# Poissons Ratio (x) = -0.05928 0.10290
# Poissons Ratio (y) = -0.27365 0.13723
# Poissons Ratio (z) = 0.51024 0.14740
#
# Static dielectric constant tensor:
#      x y z
#    x 1.752710 0.000000 0.000000 
#    y 0.000000 1.735420 0.000000 
#    z 0.000000 0.000000 1.725840 
# 
# From -- ./inp_files/7191.got.cif
#   From: 2010.05.17/outbox.cif.g08.bks.cpg/sg73_4_cif.got.tgz:7191.got - 2010.06.03 17:35:07.
