data_PCOD9531115
_publ_section_title
;
Structure prediction by ZEFSAII (Michael W. Deem and Ramdas Pophale) SiO2 
 PCOD9531115
Probable space group: I B C A 
;
_chemical_formula_sum "Si O2"
_cell_formula_units_Z 72
_cell_length_a 15.227256
_cell_length_b 18.814946
_cell_length_c 9.143263
_cell_angle_alpha 90.000000
_cell_angle_beta 90.000000
_cell_angle_gamma 90.000000
_cell_volume 2619.544844
_symmetry_space_group_name_H-M "I B C A "
_symmetry_group_IT_number 73
_symmetry_cell_setting 'orthorhombic'
loop_
_space_group_symop_operation_xyz
x,y,z
-x,1/2-y,z
x,-y,1/2-z
1/2-x,y,-z
-x,-y,-z
x,1/2+y,-z
-x,y,1/2+z
1/2+x,-y,z
1/2+x,1/2+y,1/2+z
1/2-x,-y,1/2+z
1/2+x,1/2-y,-z
-x,1/2+y,1/2-z
1/2-x,1/2-y,1/2-z
1/2+x,y,1/2-z
1/2-x,1/2+y,z
x,1/2-y,1/2+z
loop_
_atom_site_type_symbol
_atom_site_label
_atom_site_fract_x
_atom_site_fract_y
_atom_site_fract_z
Si Si1 0.443165 0.840732 0.205733
Si Si2 0.750000 0.774564 0.000000
Si Si3 0.250000 0.980383 0.000000
Si Si4 0.500000 0.250000 0.029134
Si Si5 0.259056 0.352803 0.215878
Si Si6 0.072587 0.460535 0.595376
O O1 0.471395 0.811044 0.361348
O O2 0.345463 0.867384 0.224946
O O3 0.521546 0.888261 0.142377
O O4 0.429761 0.778878 0.085535
O O5 0.787070 0.715273 0.116598
O O6 0.711114 0.829845 0.121912
O O7 0.280787 0.924449 0.872460
O O8 0.337019 0.029903 0.997625
O O9 0.080668 0.500000 0.750000
O O10 0.000000 0.500000 0.500000
#
# Coordination Sequence:
#
# PCOD9531115 Si02
#       6
#    16   8   8   8  16  16
#     4  11  22  45  77 111 157 203 263 331 401 487
#     4   9  20  38  71 118 162 212 258 346 408 469
#     4  11  26  50  75 114 160 214 270 328 400 497
#     4  10  24  42  76 116 146 202 264 332 406 468
#     4  10  20  42  72 114 165 202 272 330 406 487
#     4  12  27  53  82 115 162 214 269 330 402 492
#
# _framework density 27.485690999999999
#
# number of rings (size 3 to 8) (size 9 to 14) (size 15 to 20)
#    0.000    1.333    2.222    2.667    0.000    0.889 
#   20.000    0.000    0.000    1.333    0.000    0.000 
#    0.000    0.000    0.000    0.000    0.000    0.000 
#
# Total GULP energy -200837.247529 kJ/mol
# GULP energy per Si atom -5578.812431 kJ/mol
# Density = 2.742313 g / cm^3
# Si number density = 27.485691 Si / 1000 Ang^3
#
#
#
# Elastic Constant Matrix: (Units=GPa)
#
#
# Indices 1 2 3 4 5 6 
#
# 1 174.3968 67.0414 37.5294 0.0000 0.0000 0.0000
# 2 67.0414 154.4203 75.4258 0.0000 0.0000 0.0000
# 3 37.5294 75.4258 238.7484 0.0000 0.0000 0.0000
# 4 0.0000 0.0000 0.0000 51.3752 0.0000 0.0000
# 5 0.0000 0.0000 0.0000 0.0000 59.5548 0.0000
# 6 0.0000 0.0000 0.0000 0.0000 0.0000 32.4206
#
#
#
# Elastic Compliance Matrix: (Units=1/GPa)
#
#
# Indices 1 2 3 4 5 6 
#
# 1 0.006888 -0.002911 -0.000163 0.000000 0.000000 0.000000
# 2 -0.002911 0.008887 -0.002350 0.000000 0.000000 0.000000
# 3 -0.000163 -0.002350 0.004957 0.000000 0.000000 0.000000
# 4 0.000000 0.000000 0.000000 0.019465 0.000000 0.000000
# 5 0.000000 0.000000 0.000000 0.000000 0.016791 0.000000
# 6 0.000000 0.000000 0.000000 0.000000 0.000000 0.030845
#
#
# Mechanical properties :
#
#
# Convention : Reuss Voigt Hill
#
# Bulk Modulus (GPa) = 101.17419 103.06209 102.11814
# Shear Modulus (GPa) = 49.03127 54.50802 51.76964
#
# Velocity S-wave (km/s) = 4.22819 4.45808 4.34465
# Velocity P-wave (km/s) = 7.79272 8.00483 7.89949
#
# Compressibility (1/GPa) = 0.00988394
#
# Stress axis : x y z
#
# Youngs Moduli (GPa) = 145.17748 112.51784 201.74960
#
# Poissons Ratio (x) = 0.32751 0.03292
# Poissons Ratio (y) = 0.42258 0.47415
# Poissons Ratio (z) = 0.02369 0.26444
#
# Static dielectric constant tensor:
#      x y z
#    x 2.042480 0.000000 0.000000 
#    y 0.000000 1.425680 0.000000 
#    z 0.000000 0.000000 2.118120 
# 
# From -- ./inp_files/5373.got.cif
#   From: 2010.05.17/outbox.cif.g08.bks.cpg/sg73_3_cif.got.tgz:5373.got - 2010.06.03 17:35:07.
