data_PCOD9531387
_publ_section_title
;
Structure prediction by ZEFSAII (Michael W. Deem and Ramdas Pophale) SiO2 
 PCOD9531387
Probable space group: I B C A 
;
_chemical_formula_sum "Si O2"
_cell_formula_units_Z 96
_cell_length_a 12.527788
_cell_length_b 16.903301
_cell_length_c 18.800658
_cell_angle_alpha 90.000000
_cell_angle_beta 90.000000
_cell_angle_gamma 90.000000
_cell_volume 3981.245602
_symmetry_space_group_name_H-M "I B C A "
_symmetry_group_IT_number 73
_symmetry_cell_setting 'orthorhombic'
loop_
_space_group_symop_operation_xyz
x,y,z
-x,1/2-y,z
x,-y,1/2-z
1/2-x,y,-z
-x,-y,-z
x,1/2+y,-z
-x,y,1/2+z
1/2+x,-y,z
1/2+x,1/2+y,1/2+z
1/2-x,-y,1/2+z
1/2+x,1/2-y,-z
-x,1/2+y,1/2-z
1/2-x,1/2-y,1/2-z
1/2+x,y,1/2-z
1/2-x,1/2+y,z
x,1/2-y,1/2+z
loop_
_atom_site_type_symbol
_atom_site_label
_atom_site_fract_x
_atom_site_fract_y
_atom_site_fract_z
Si Si1 0.388630 0.054036 0.383451
Si Si2 0.081647 0.650892 0.885454
Si Si3 0.241114 0.066892 0.792600
Si Si4 0.609355 0.705717 0.328152
Si Si5 0.126739 0.595741 0.032065
Si Si6 0.276873 0.793733 0.082936
O O1 0.481238 0.108200 0.350939
O O2 0.301588 0.114871 0.411940
O O3 0.341496 0.996234 0.324493
O O4 0.408093 0.991592 0.446216
O O5 0.180993 0.603801 0.851684
O O6 0.122349 0.740772 0.890232
O O7 0.060343 0.629931 0.967340
O O8 0.172803 0.146940 0.773544
O O9 0.309255 0.000000 0.750000
O O10 0.500000 0.750000 0.305106
O O11 0.601436 0.650105 0.399077
O O12 0.685086 0.773347 0.360675
O O13 0.250000 0.596220 0.000000
O O14 0.250000 0.772925 0.000000
#
# Coordination Sequence:
#
# PCOD9531387 Si02
#       6
#    16  16  16  16  16  16
#     4  11  24  34  64  95 124 167 216 261 333 397
#     4  11  21  40  59  91 130 169 209 270 330 394
#     4  10  24  47  65  86 128 174 228 281 317 372
#     4  10  21  38  65  96 132 177 213 263 334 400
#     4  11  18  40  56  93 139 163 200 270 325 408
#     4  11  21  36  57  93 137 163 201 254 327 408
#
# _framework density 24.113056
#
# number of rings (size 3 to 8) (size 9 to 14) (size 15 to 20)
#    0.000    1.333    6.667    1.500    2.333    3.333 
#    0.000    5.000    0.000    0.000    0.000    0.000 
#    0.000    0.000    0.000    0.000    0.000    0.000 
#
# Total GULP energy -267210.459966 kJ/mol
# GULP energy per Si atom -5566.884583 kJ/mol
# Density = 2.405817 g / cm^3
# Si number density = 24.113056 Si / 1000 Ang^3
#
#
#
# Elastic Constant Matrix: (Units=GPa)
#
#
# Indices 1 2 3 4 5 6 
#
# 1 61.8852 23.4686 -7.0658 0.0000 0.0000 0.0000
# 2 23.4686 155.0191 20.4869 0.0000 0.0000 0.0000
# 3 -7.0658 20.4869 43.1225 0.0000 0.0000 0.0000
# 4 0.0000 0.0000 0.0000 20.7813 0.0000 0.0000
# 5 0.0000 0.0000 0.0000 0.0000 21.1844 0.0000
# 6 0.0000 0.0000 0.0000 0.0000 0.0000 17.3691
#
#
#
# Elastic Compliance Matrix: (Units=1/GPa)
#
#
# Indices 1 2 3 4 5 6 
#
# 1 0.017929 -0.003310 0.004511 0.000000 0.000000 0.000000
# 2 -0.003310 0.007494 -0.004103 0.000000 0.000000 0.000000
# 3 0.004511 -0.004103 0.025878 0.000000 0.000000 0.000000
# 4 0.000000 0.000000 0.000000 0.048120 0.000000 0.000000
# 5 0.000000 0.000000 0.000000 0.000000 0.047204 0.000000
# 6 0.000000 0.000000 0.000000 0.000000 0.000000 0.057574
#
#
# Mechanical properties :
#
#
# Convention : Reuss Voigt Hill
#
# Bulk Modulus (GPa) = 21.97988 37.08956 29.53472
# Shear Modulus (GPa) = 22.20538 26.74277 24.47407
#
# Velocity S-wave (km/s) = 3.03790 3.33386 3.18932
# Velocity P-wave (km/s) = 4.63036 5.49859 5.08305
#
# Compressibility (1/GPa) = 0.04549615
#
# Stress axis : x y z
#
# Youngs Moduli (GPa) = 55.77438 133.43636 38.64284
#
# Poissons Ratio (x) = 0.44174 -0.17430
# Poissons Ratio (y) = 0.18464 0.15854
# Poissons Ratio (z) = -0.25157 0.54747
#
# Static dielectric constant tensor:
#      x y z
#    x 2.040890 0.000000 0.000000 
#    y 0.000000 1.961710 0.000000 
#    z 0.000000 0.000000 2.124800 
# 
# From -- ./inp_files/25995.got.cif
#   From: 2010.05.17/outbox.cif.g08.bks.cpg/sg73_13_cif.got.tgz:25995.got - 2010.06.03 17:35:07.
