data_PCOD9531886
_publ_section_title
;
Structure prediction by ZEFSAII (Michael W. Deem and Ramdas Pophale) SiO2 
 PCOD9531886
Probable space group: I B C A 
;
_chemical_formula_sum "Si O2"
_cell_formula_units_Z 88
_cell_length_a 8.654680
_cell_length_b 23.122549
_cell_length_c 21.096037
_cell_angle_alpha 90.000000
_cell_angle_beta 90.000000
_cell_angle_gamma 90.000000
_cell_volume 4221.702268
_symmetry_space_group_name_H-M "I B C A "
_symmetry_group_IT_number 73
_symmetry_cell_setting 'orthorhombic'
loop_
_space_group_symop_operation_xyz
x,y,z
-x,1/2-y,z
x,-y,1/2-z
1/2-x,y,-z
-x,-y,-z
x,1/2+y,-z
-x,y,1/2+z
1/2+x,-y,z
1/2+x,1/2+y,1/2+z
1/2-x,-y,1/2+z
1/2+x,1/2-y,-z
-x,1/2+y,1/2-z
1/2-x,1/2-y,1/2-z
1/2+x,y,1/2-z
1/2-x,1/2+y,z
x,1/2-y,1/2+z
loop_
_atom_site_type_symbol
_atom_site_label
_atom_site_fract_x
_atom_site_fract_y
_atom_site_fract_z
Si Si1 0.218124 0.643628 0.697293
Si Si2 0.719289 0.538401 0.570753
Si Si3 0.146014 0.125857 0.834097
Si Si4 0.750000 0.822794 0.500000
Si Si5 0.181280 0.249044 0.874794
Si Si6 0.376963 0.419130 0.917419
O O1 0.263287 0.626122 0.767750
O O2 0.253677 0.710846 0.679995
O O3 0.322970 0.608655 0.648135
O O4 0.037117 0.632460 0.680982
O O5 0.750000 0.561135 0.500000
O O6 0.823601 0.570368 0.622750
O O7 0.543001 0.552008 0.586160
O O8 0.756269 0.470507 0.569510
O O9 0.217203 0.181434 0.871561
O O10 0.705319 0.781747 0.441441
O O11 0.873020 0.868065 0.470176
O O12 0.000000 0.250000 0.862090
#
# Coordination Sequence:
#
# PCOD9531886 Si02
#       6
#    16  16  16   8  16  16
#     4  10  22  43  66  94 132 173 220 263 323 376
#     4  12  26  40  68  96 132 169 217 269 323 390
#     4  11  23  41  66  98 131 172 217 267 319 385
#     4  10  22  38  64  92 134 172 212 266 318 388
#     4   9  21  37  62  92 131 171 212 264 315 382
#     4  11  24  43  65  95 130 172 216 266 324 381
#
# _framework density 20.844671999999999
#
# number of rings (size 3 to 8) (size 9 to 14) (size 15 to 20)
#    0.000    1.455    0.909    3.273    8.909    0.727 
#    0.000   10.000    0.000    0.000    0.000    0.000 
#    0.000    0.000    0.000    0.000    0.000    0.000 
#
# Total GULP energy -245628.368725 kJ/mol
# GULP energy per Si atom -5582.462926 kJ/mol
# Density = 2.079723 g / cm^3
# Si number density = 20.844672 Si / 1000 Ang^3
#
#
#
# Elastic Constant Matrix: (Units=GPa)
#
#
# Indices 1 2 3 4 5 6 
#
# 1 79.9180 18.7306 8.4272 0.0000 0.0000 0.0000
# 2 18.7306 85.7062 49.3131 0.0000 0.0000 0.0000
# 3 8.4272 49.3131 119.1337 0.0000 0.0000 0.0000
# 4 0.0000 0.0000 0.0000 49.0008 0.0000 0.0000
# 5 0.0000 0.0000 0.0000 0.0000 19.2680 0.0000
# 6 0.0000 0.0000 0.0000 0.0000 0.0000 21.2996
#
#
#
# Elastic Compliance Matrix: (Units=1/GPa)
#
#
# Indices 1 2 3 4 5 6 
#
# 1 0.013199 -0.003081 0.000342 0.000000 0.000000 0.000000
# 2 -0.003081 0.016035 -0.006419 0.000000 0.000000 0.000000
# 3 0.000342 -0.006419 0.011027 0.000000 0.000000 0.000000
# 4 0.000000 0.000000 0.000000 0.020408 0.000000 0.000000
# 5 0.000000 0.000000 0.000000 0.000000 0.051900 0.000000
# 6 0.000000 0.000000 0.000000 0.000000 0.000000 0.046949
#
#
# Mechanical properties :
#
#
# Convention : Reuss Voigt Hill
#
# Bulk Modulus (GPa) = 45.57257 48.63331 47.10294
# Shear Modulus (GPa) = 27.00530 31.79947 29.40239
#
# Velocity S-wave (km/s) = 3.60328 3.91006 3.75980
# Velocity P-wave (km/s) = 6.26274 6.61564 6.44161
#
# Compressibility (1/GPa) = 0.02194302
#
# Stress axis : x y z
#
# Youngs Moduli (GPa) = 75.76371 62.36502 90.68739
#
# Poissons Ratio (x) = 0.19216 -0.03099
# Poissons Ratio (y) = 0.23344 0.58215
# Poissons Ratio (z) = -0.02589 0.40034
#
# Static dielectric constant tensor:
#      x y z
#    x 1.736030 0.000000 0.000000 
#    y 0.000000 1.772450 0.000000 
#    z 0.000000 0.000000 1.725490 
# 
# From -- ./inp_files/7062.got.cif
#   From: 2010.05.17/outbox.cif.g08.bks.cpg/sg73_4_cif.got.tgz:7062.got - 2010.06.03 17:35:07.
