data_PCOD9531209
_publ_section_title
;
Structure prediction by ZEFSAII (Michael W. Deem and Ramdas Pophale) SiO2 
 PCOD9531209
Probable space group: I B C A 
;
_chemical_formula_sum "Si O2"
_cell_formula_units_Z 104
_cell_length_a 26.738134
_cell_length_b 9.083844
_cell_length_c 19.997874
_cell_angle_alpha 90.000000
_cell_angle_beta 90.000000
_cell_angle_gamma 90.000000
_cell_volume 4857.184389
_symmetry_space_group_name_H-M "I B C A "
_symmetry_group_IT_number 73
_symmetry_cell_setting 'orthorhombic'
loop_
_space_group_symop_operation_xyz
x,y,z
-x,1/2-y,z
x,-y,1/2-z
1/2-x,y,-z
-x,-y,-z
x,1/2+y,-z
-x,y,1/2+z
1/2+x,-y,z
1/2+x,1/2+y,1/2+z
1/2-x,-y,1/2+z
1/2+x,1/2-y,-z
-x,1/2+y,1/2-z
1/2-x,1/2-y,1/2-z
1/2+x,y,1/2-z
1/2-x,1/2+y,z
x,1/2-y,1/2+z
loop_
_atom_site_type_symbol
_atom_site_label
_atom_site_fract_x
_atom_site_fract_y
_atom_site_fract_z
Si Si1 0.189610 0.694653 0.319103
Si Si2 0.784778 0.870332 0.163456
Si Si3 0.377418 0.800018 0.869298
Si Si4 0.062914 0.999592 0.450774
Si Si5 0.912680 0.000000 0.750000
Si Si6 0.073511 0.755373 0.347153
Si Si7 0.042139 0.549921 0.105185
O O1 0.198058 0.665651 0.240008
O O2 0.206310 0.540550 0.351176
O O3 0.227584 0.821601 0.341223
O O4 0.132386 0.729128 0.334601
O O5 0.823962 0.773755 0.122713
O O6 0.420414 0.672948 0.865642
O O7 0.390076 0.903925 0.931041
O O8 0.381433 0.908492 0.805102
O O9 0.065231 0.839097 0.417267
O O10 0.016303 0.078491 0.411604
O O11 0.059042 0.987981 0.529528
O O12 0.941973 0.873374 0.790382
O O13 0.047723 0.597508 0.350824
#
# Coordination Sequence:
#
# PCOD9531209 Si02
#       7
#    16  16  16  16   8  16  16
#     4  10  21  35  61  91 123 164 205 245 302 381
#     4  10  21  35  61  91 123 164 205 245 302 381
#     4  11  21  39  63  90 132 159 205 259 312 366
#     4  10  24  40  66  91 118 164 222 267 300 358
#     4  10  24  36  58  94 128 168 188 246 322 384
#     4  11  21  39  63  90 132 159 205 259 312 366
#     4  11  22  43  65  91 116 167 228 259 300 356
#
# _framework density 21.411581999999999
#
# number of rings (size 3 to 8) (size 9 to 14) (size 15 to 20)
#    0.000    1.538    3.077    1.846    4.308    3.077 
#    0.000   12.308    0.000    5.538    0.000    0.000 
#    0.000    0.000    0.000    0.000    0.000    0.000 
#
# Total GULP energy -290359.485383 kJ/mol
# GULP energy per Si atom -5583.836257 kJ/mol
# Density = 2.136285 g / cm^3
# Si number density = 21.411582 Si / 1000 Ang^3
#
#
#
# Elastic Constant Matrix: (Units=GPa)
#
#
# Indices 1 2 3 4 5 6 
#
# 1 105.1466 17.7605 17.6818 0.0000 0.0000 0.0000
# 2 17.7605 94.2924 11.3309 0.0000 0.0000 0.0000
# 3 17.6818 11.3309 35.6359 0.0000 0.0000 0.0000
# 4 0.0000 0.0000 0.0000 18.1797 0.0000 0.0000
# 5 0.0000 0.0000 0.0000 0.0000 11.8166 0.0000
# 6 0.0000 0.0000 0.0000 0.0000 0.0000 28.4290
#
#
#
# Elastic Compliance Matrix: (Units=1/GPa)
#
#
# Indices 1 2 3 4 5 6 
#
# 1 0.010554 -0.001413 -0.004788 0.000000 0.000000 0.000000
# 2 -0.001413 0.011216 -0.002865 0.000000 0.000000 0.000000
# 3 -0.004788 -0.002865 0.031348 0.000000 0.000000 0.000000
# 4 0.000000 0.000000 0.000000 0.055006 0.000000 0.000000
# 5 0.000000 0.000000 0.000000 0.000000 0.084627 0.000000
# 6 0.000000 0.000000 0.000000 0.000000 0.000000 0.035175
#
#
# Mechanical properties :
#
#
# Convention : Reuss Voigt Hill
#
# Bulk Modulus (GPa) = 28.58201 36.51348 32.54775
# Shear Modulus (GPa) = 19.40092 24.23852 21.81972
#
# Velocity S-wave (km/s) = 3.01341 3.36821 3.19574
# Velocity P-wave (km/s) = 5.04830 5.67597 5.37131
#
# Compressibility (1/GPa) = 0.03498704
#
# Stress axis : x y z
#
# Youngs Moduli (GPa) = 94.74861 89.16077 31.89982
#
# Poissons Ratio (x) = 0.12595 0.15272
# Poissons Ratio (y) = 0.13385 0.09140
# Poissons Ratio (z) = 0.45362 0.25547
#
# Static dielectric constant tensor:
#      x y z
#    x 1.777200 0.000000 0.000000 
#    y 0.000000 1.794580 0.000000 
#    z 0.000000 0.000000 1.775760 
# 
# From -- ./inp_files/7339.got.cif
#   From: 2010.05.17/outbox.cif.g08.bks.cpg/sg73_4_cif.got.tgz:7339.got - 2010.06.03 17:35:07.
