data_PCOD9531879
_publ_section_title
;
Structure prediction by ZEFSAII (Michael W. Deem and Ramdas Pophale) SiO2 
 PCOD9531879
Probable space group: I B C A 
;
_chemical_formula_sum "Si O2"
_cell_formula_units_Z 56
_cell_length_a 9.797550
_cell_length_b 25.615492
_cell_length_c 8.941541
_cell_angle_alpha 90.000000
_cell_angle_beta 90.000000
_cell_angle_gamma 90.000000
_cell_volume 2244.050172
_symmetry_space_group_name_H-M "I B C A "
_symmetry_group_IT_number 73
_symmetry_cell_setting 'orthorhombic'
loop_
_space_group_symop_operation_xyz
x,y,z
-x,1/2-y,z
x,-y,1/2-z
1/2-x,y,-z
-x,-y,-z
x,1/2+y,-z
-x,y,1/2+z
1/2+x,-y,z
1/2+x,1/2+y,1/2+z
1/2-x,-y,1/2+z
1/2+x,1/2-y,-z
-x,1/2+y,1/2-z
1/2-x,1/2-y,1/2-z
1/2+x,y,1/2-z
1/2-x,1/2+y,z
x,1/2-y,1/2+z
loop_
_atom_site_type_symbol
_atom_site_label
_atom_site_fract_x
_atom_site_fract_y
_atom_site_fract_z
Si Si1 0.593303 0.450123 0.553619
Si Si2 0.000000 0.250000 0.409234
Si Si3 0.162764 0.203836 0.177119
Si Si4 0.860951 0.089300 0.615583
O O1 0.750000 0.450942 0.500000
O O2 0.500000 0.500000 0.500000
O O3 0.503534 0.404748 0.473889
O O4 0.604465 0.441261 0.731737
O O5 0.040918 0.203571 0.298293
O O6 0.109337 0.274371 0.520900
O O7 0.250000 0.250000 0.250000
O O8 0.206016 0.144466 0.162242
O O9 0.750000 0.065436 0.500000
#
# Coordination Sequence:
#
# PCOD9531879 Si02
#       4
#    16   8  16  16
#     4  12  28  51  78 112 153 202 265 341 419 498
#     4  10  22  38  62  96 142 194 256 318 378 444
#     4  11  23  42  67 102 148 202 259 321 388 467
#     4  12  26  47  77 115 157 208 267 333 414 498
#
# _framework density 24.954877
#
# number of rings (size 3 to 8) (size 9 to 14) (size 15 to 20)
#    0.000    0.571    0.000    7.714    0.000   11.429 
#    0.000    0.000    0.000    0.000    0.000    0.000 
#    0.000    0.000    0.000    0.000    0.000    0.000 
#
# Total GULP energy -156414.289914 kJ/mol
# GULP energy per Si atom -5586.224640 kJ/mol
# Density = 2.489808 g / cm^3
# Si number density = 24.954877 Si / 1000 Ang^3
#
#
#
# Elastic Constant Matrix: (Units=GPa)
#
#
# Indices 1 2 3 4 5 6 
#
# 1 173.8604 28.1244 72.6809 0.0000 -0.0001 0.0000
# 2 28.1244 110.3514 37.2700 -0.0001 0.0000 0.0000
# 3 72.6809 37.2700 249.1596 0.0002 0.0004 0.0002
# 4 0.0000 -0.0001 0.0002 23.2526 -0.0001 0.0000
# 5 -0.0001 0.0000 0.0004 -0.0001 62.7172 0.0000
# 6 0.0000 0.0000 0.0002 0.0000 0.0000 33.7781
#
#
#
# Elastic Compliance Matrix: (Units=1/GPa)
#
#
# Indices 1 2 3 4 5 6 
#
# 1 0.006675 -0.001099 -0.001783 0.000000 0.000000 0.000000
# 2 -0.001099 0.009725 -0.001134 0.000000 0.000000 0.000000
# 3 -0.001783 -0.001134 0.004703 0.000000 0.000000 0.000000
# 4 0.000000 0.000000 0.000000 0.043006 0.000000 0.000000
# 5 0.000000 0.000000 0.000000 0.000000 0.015945 0.000000
# 6 0.000000 0.000000 0.000000 0.000000 0.000000 0.029605
#
#
# Mechanical properties :
#
#
# Convention : Reuss Voigt Hill
#
# Bulk Modulus (GPa) = 76.50323 89.94689 83.22506
# Shear Modulus (GPa) = 40.96772 50.30266 45.63519
#
# Velocity S-wave (km/s) = 4.05615 4.49458 4.28098
# Velocity P-wave (km/s) = 7.25670 7.94084 7.60647
#
# Compressibility (1/GPa) = 0.01307134
#
# Stress axis : x y z
#
# Youngs Moduli (GPa) = 149.81829 102.82662 212.62391
#
# Poissons Ratio (x) = 0.11301 0.37903
# Poissons Ratio (y) = 0.16466 0.24114
# Poissons Ratio (z) = 0.26707 0.11662
#
# Static dielectric constant tensor:
#      x y z
#    x 2.289730 0.000000 0.000000 
#    y 0.000000 2.122840 0.000000 
#    z 0.000000 0.000000 1.952440 
# 
# From -- ./inp_files/3855.got.cif
#   From: 2010.05.17/outbox.cif.g08.bks.cpg/sg73_2_cif.got.tgz:3855.got - 2010.06.03 17:35:07.
