data_PCOD9531885
_publ_section_title
;
Structure prediction by ZEFSAII (Michael W. Deem and Ramdas Pophale) SiO2 
 PCOD9531885
Probable space group: I B C A 
;
_chemical_formula_sum "Si O2"
_cell_formula_units_Z 104
_cell_length_a 18.189463
_cell_length_b 21.288438
_cell_length_c 13.531416
_cell_angle_alpha 90.000000
_cell_angle_beta 90.000000
_cell_angle_gamma 90.000000
_cell_volume 5239.706016
_symmetry_space_group_name_H-M "I B C A "
_symmetry_group_IT_number 73
_symmetry_cell_setting 'orthorhombic'
loop_
_space_group_symop_operation_xyz
x,y,z
-x,1/2-y,z
x,-y,1/2-z
1/2-x,y,-z
-x,-y,-z
x,1/2+y,-z
-x,y,1/2+z
1/2+x,-y,z
1/2+x,1/2+y,1/2+z
1/2-x,-y,1/2+z
1/2+x,1/2-y,-z
-x,1/2+y,1/2-z
1/2-x,1/2-y,1/2-z
1/2+x,y,1/2-z
1/2-x,1/2+y,z
x,1/2-y,1/2+z
loop_
_atom_site_type_symbol
_atom_site_label
_atom_site_fract_x
_atom_site_fract_y
_atom_site_fract_z
Si Si1 0.017284 0.505123 0.632304
Si Si2 0.304313 0.740119 0.409957
Si Si3 0.416710 0.770626 0.069541
Si Si4 0.750000 0.028864 0.000000
Si Si5 0.411225 0.416181 0.983790
Si Si6 0.187747 0.186654 0.203139
Si Si7 0.830495 0.543562 0.346143
O O1 0.010314 0.500000 0.750000
O O2 0.040144 0.572723 0.584716
O O3 0.091220 0.467495 0.601633
O O4 0.948564 0.468721 0.586252
O O5 0.250000 0.721350 0.500000
O O6 0.379585 0.753291 0.466894
O O7 0.265021 0.796118 0.349784
O O8 0.311477 0.690618 0.321727
O O9 0.500000 0.750000 0.079940
O O10 0.415356 0.846332 0.060886
O O11 0.368540 0.737818 0.156343
O O12 0.824771 0.068894 0.003348
O O13 0.737432 0.982380 0.091702
O O14 0.171343 0.116185 0.175679
O O15 0.832783 0.500000 0.250000
#
# Coordination Sequence:
#
# PCOD9531885 Si02
#       7
#    16  16  16   8  16  16  16
#     4   9  20  41  63  88 124 174 207 267 322 376
#     4   9  22  40  63  89 126 172 208 265 330 381
#     4  11  24  40  64  95 126 171 214 272 330 394
#     4  10  24  36  64  92 124 166 210 266 324 382
#     4  10  22  41  62  91 129 163 219 265 318 394
#     4  10  22  41  63  93 128 166 216 267 324 395
#     4  10  22  38  64  92 122 169 212 260 327 390
#
# _framework density 19.848441000000001
#
# number of rings (size 3 to 8) (size 9 to 14) (size 15 to 20)
#    0.000    2.154    0.000    0.923   12.923    2.462 
#    2.769    0.000    0.000    0.000    0.000    0.000 
#    0.000    0.000    0.000    0.000    0.000    0.000 
#
# Total GULP energy -289658.897867 kJ/mol
# GULP energy per Si atom -5570.363421 kJ/mol
# Density = 1.980327 g / cm^3
# Si number density = 19.848441 Si / 1000 Ang^3
#
#
#
# Elastic Constant Matrix: (Units=GPa)
#
#
# Indices 1 2 3 4 5 6 
#
# 1 86.5540 29.0400 27.1754 0.0000 0.0000 0.0000
# 2 29.0400 118.9047 24.0116 0.0000 0.0000 0.0000
# 3 27.1754 24.0116 118.6277 0.0000 0.0000 0.0000
# 4 0.0000 0.0000 0.0000 0.7591 0.0000 0.0000
# 5 0.0000 0.0000 0.0000 0.0000 20.2724 0.0000
# 6 0.0000 0.0000 0.0000 0.0000 0.0000 7.5178
#
#
#
# Elastic Compliance Matrix: (Units=1/GPa)
#
#
# Indices 1 2 3 4 5 6 
#
# 1 0.013250 -0.002735 -0.002482 0.000000 0.000000 0.000000
# 2 -0.002735 0.009333 -0.001263 0.000000 0.000000 0.000000
# 3 -0.002482 -0.001263 0.009254 0.000000 0.000000 0.000000
# 4 0.000000 0.000000 0.000000 1.317425 0.000000 0.000000
# 5 0.000000 0.000000 0.000000 0.000000 0.049328 0.000000
# 6 0.000000 0.000000 0.000000 0.000000 0.000000 0.133018
#
#
# Mechanical properties :
#
#
# Convention : Reuss Voigt Hill
#
# Bulk Modulus (GPa) = 52.97035 53.83781 53.40408
# Shear Modulus (GPa) = 3.22402 21.96715 12.59558
#
# Velocity S-wave (km/s) = 1.27587 3.33039 2.52184
# Velocity P-wave (km/s) = 5.37734 6.47858 5.95348
#
# Compressibility (1/GPa) = 0.01887848
#
# Stress axis : x y z
#
# Youngs Moduli (GPa) = 75.46996 107.14651 108.06329
#
# Poissons Ratio (x) = 0.29304 0.26819
# Poissons Ratio (y) = 0.20641 0.13644
# Poissons Ratio (z) = 0.18730 0.13528
#
# Static dielectric constant tensor:
#      x y z
#    x 1.735060 0.000000 0.000000 
#    y 0.000000 1.722250 0.000000 
#    z 0.000000 0.000000 1.829150 
# 
# From -- ./inp_files/18149.got.cif
#   From: 2010.05.17/outbox.cif.g08.bks.cpg/sg73_10_cif.got.tgz:18149.got - 2010.06.03 17:35:07.
