data_PCOD9531760
_publ_section_title
;
Structure prediction by ZEFSAII (Michael W. Deem and Ramdas Pophale) SiO2 
 PCOD9531760
Probable space group: I B C A 
;
_chemical_formula_sum "Si O2"
_cell_formula_units_Z 88
_cell_length_a 16.304077
_cell_length_b 13.422707
_cell_length_c 18.620404
_cell_angle_alpha 90.000000
_cell_angle_beta 90.000000
_cell_angle_gamma 90.000000
_cell_volume 4074.979492
_symmetry_space_group_name_H-M "I B C A "
_symmetry_group_IT_number 73
_symmetry_cell_setting 'orthorhombic'
loop_
_space_group_symop_operation_xyz
x,y,z
-x,1/2-y,z
x,-y,1/2-z
1/2-x,y,-z
-x,-y,-z
x,1/2+y,-z
-x,y,1/2+z
1/2+x,-y,z
1/2+x,1/2+y,1/2+z
1/2-x,-y,1/2+z
1/2+x,1/2-y,-z
-x,1/2+y,1/2-z
1/2-x,1/2-y,1/2-z
1/2+x,y,1/2-z
1/2-x,1/2+y,z
x,1/2-y,1/2+z
loop_
_atom_site_type_symbol
_atom_site_label
_atom_site_fract_x
_atom_site_fract_y
_atom_site_fract_z
Si Si1 0.144560 0.916180 0.613507
Si Si2 0.533254 0.110665 0.486291
Si Si3 0.113469 0.000000 0.250000
Si Si4 0.398721 0.643038 0.618134
Si Si5 0.474907 0.638610 0.770839
Si Si6 0.174260 0.355729 0.628937
O O1 0.078858 0.864473 0.560320
O O2 0.109201 0.892714 0.692069
O O3 0.234449 0.874158 0.601426
O O4 0.144383 0.036564 0.606222
O O5 0.453560 0.164446 0.452511
O O6 0.605221 0.109779 0.427261
O O7 0.500000 0.000000 0.500000
O O8 0.162951 0.076470 0.200182
O O9 0.049620 0.068320 0.294538
O O10 0.461041 0.630909 0.685183
O O11 0.343128 0.737740 0.638019
O O12 0.500000 0.750000 0.787460
#
# Coordination Sequence:
#
# PCOD9531760 Si02
#       6
#    16  16   8  16  16  16
#     4  11  26  42  68 103 142 171 234 297 346 408
#     4  10  21  45  70  93 129 186 226 271 340 425
#     4  12  22  38  68  98 130 186 236 270 340 430
#     4  11  22  45  71  90 139 190 224 277 358 417
#     4  12  22  41  65  98 131 180 237 279 332 424
#     4  12  25  42  69 104 139 183 226 292 360 402
#
# _framework density 21.595199999999998
#
# number of rings (size 3 to 8) (size 9 to 14) (size 15 to 20)
#    0.000    0.727    5.455    2.182    2.545    3.636 
#    0.000    9.091    0.000    0.000    0.000    0.000 
#    0.000    0.000    0.000    0.000    0.000    0.000 
#
# Total GULP energy -245755.011187 kJ/mol
# GULP energy per Si atom -5585.341163 kJ/mol
# Density = 2.154605 g / cm^3
# Si number density = 21.595200 Si / 1000 Ang^3
#
#
#
# Elastic Constant Matrix: (Units=GPa)
#
#
# Indices 1 2 3 4 5 6 
#
# 1 99.9341 39.6618 12.9629 0.0000 0.0000 0.0000
# 2 39.6618 138.5077 21.6307 0.0000 0.0000 0.0000
# 3 12.9629 21.6307 61.2712 0.0000 0.0000 0.0000
# 4 0.0000 0.0000 0.0000 29.2668 0.0000 0.0000
# 5 0.0000 0.0000 0.0000 0.0000 20.1044 0.0000
# 6 0.0000 0.0000 0.0000 0.0000 0.0000 31.2460
#
#
#
# Elastic Compliance Matrix: (Units=1/GPa)
#
#
# Indices 1 2 3 4 5 6 
#
# 1 0.011391 -0.003054 -0.001332 0.000000 0.000000 0.000000
# 2 -0.003054 0.008460 -0.002340 0.000000 0.000000 0.000000
# 3 -0.001332 -0.002340 0.017429 0.000000 0.000000 0.000000
# 4 0.000000 0.000000 0.000000 0.034168 0.000000 0.000000
# 5 0.000000 0.000000 0.000000 0.000000 0.049740 0.000000
# 6 0.000000 0.000000 0.000000 0.000000 0.000000 0.032004
#
#
# Mechanical properties :
#
#
# Convention : Reuss Voigt Hill
#
# Bulk Modulus (GPa) = 41.96823 49.80262 45.88543
# Shear Modulus (GPa) = 28.63883 31.15395 29.89639
#
# Velocity S-wave (km/s) = 3.64561 3.80232 3.72479
# Velocity P-wave (km/s) = 6.09892 6.51067 6.30816
#
# Compressibility (1/GPa) = 0.02382755
#
# Stress axis : x y z
#
# Youngs Moduli (GPa) = 87.78549 118.20581 57.37586
#
# Poissons Ratio (x) = 0.36099 0.07642
# Poissons Ratio (y) = 0.26809 0.13429
# Poissons Ratio (z) = 0.11692 0.27666
#
# Static dielectric constant tensor:
#      x y z
#    x 1.751240 0.000000 0.000000 
#    y 0.000000 1.845920 0.000000 
#    z 0.000000 0.000000 1.847320 
# 
# From -- ./inp_files/25925.got.cif
#   From: 2010.05.17/outbox.cif.g08.bks.cpg/sg73_13_cif.got.tgz:25925.got - 2010.06.03 17:35:07.
