data_PCOD9531547
_publ_section_title
;
Structure prediction by ZEFSAII (Michael W. Deem and Ramdas Pophale) SiO2 
 PCOD9531547
Probable space group: I B C A 
;
_chemical_formula_sum "Si O2"
_cell_formula_units_Z 64
_cell_length_a 12.185471
_cell_length_b 10.778192
_cell_length_c 21.114421
_cell_angle_alpha 90.000000
_cell_angle_beta 90.000000
_cell_angle_gamma 90.000000
_cell_volume 2773.112017
_symmetry_space_group_name_H-M "I B C A "
_symmetry_group_IT_number 73
_symmetry_cell_setting 'orthorhombic'
loop_
_space_group_symop_operation_xyz
x,y,z
-x,1/2-y,z
x,-y,1/2-z
1/2-x,y,-z
-x,-y,-z
x,1/2+y,-z
-x,y,1/2+z
1/2+x,-y,z
1/2+x,1/2+y,1/2+z
1/2-x,-y,1/2+z
1/2+x,1/2-y,-z
-x,1/2+y,1/2-z
1/2-x,1/2-y,1/2-z
1/2+x,y,1/2-z
1/2-x,1/2+y,z
x,1/2-y,1/2+z
loop_
_atom_site_type_symbol
_atom_site_label
_atom_site_fract_x
_atom_site_fract_y
_atom_site_fract_z
Si Si1 0.182365 0.590848 0.194644
Si Si2 0.568584 0.123294 0.019804
Si Si3 0.218114 0.905139 0.901324
Si Si4 0.877130 0.265193 0.205978
O O1 0.139951 0.500000 0.250000
O O2 0.169997 0.536847 0.124720
O O3 0.314151 0.605737 0.201978
O O4 0.129934 0.716023 0.221995
O O5 0.500000 0.250000 0.032019
O O6 0.656151 0.091801 0.075572
O O7 0.645588 0.145742 0.958563
O O8 0.500000 0.000000 0.000000
O O9 0.195776 0.817729 0.841623
O O10 0.000000 0.250000 0.183626
#
# Coordination Sequence:
#
# PCOD9531547 Si02
#       4
#    16  16  16  16
#     4   9  21  41  60  98 131 180 223 293 348 430
#     4  11  27  46  69 104 135 192 239 297 364 414
#     4  10  24  42  68  95 143 175 243 293 346 436
#     4  10  21  40  66  97 139 180 232 288 362 424
#
# _framework density 23.078765000000001
#
# number of rings (size 3 to 8) (size 9 to 14) (size 15 to 20)
#    0.000    2.000    0.000    0.750   10.500    5.000 
#    9.000    0.000    0.000    0.000    0.000    0.000 
#    0.000    0.000    0.000    0.000    0.000    0.000 
#
# Total GULP energy -178137.729963 kJ/mol
# GULP energy per Si atom -5566.804061 kJ/mol
# Density = 2.302624 g / cm^3
# Si number density = 23.078765 Si / 1000 Ang^3
#
#
#
# Elastic Constant Matrix: (Units=GPa)
#
#
# Indices 1 2 3 4 5 6 
#
# 1 98.5933 15.0846 28.9703 0.0000 0.0000 0.0000
# 2 15.0846 51.6909 24.0681 0.0000 0.0000 0.0000
# 3 28.9703 24.0681 100.5442 0.0000 0.0000 0.0000
# 4 0.0000 0.0000 0.0000 31.0424 0.0000 0.0000
# 5 0.0000 0.0000 0.0000 0.0000 30.1276 0.0000
# 6 0.0000 0.0000 0.0000 0.0000 0.0000 26.0132
#
#
#
# Elastic Compliance Matrix: (Units=1/GPa)
#
#
# Indices 1 2 3 4 5 6 
#
# 1 0.011261 -0.001998 -0.002766 0.000000 0.000000 0.000000
# 2 -0.001998 0.022127 -0.004721 0.000000 0.000000 0.000000
# 3 -0.002766 -0.004721 0.011873 0.000000 0.000000 0.000000
# 4 0.000000 0.000000 0.000000 0.032214 0.000000 0.000000
# 5 0.000000 0.000000 0.000000 0.000000 0.033192 0.000000
# 6 0.000000 0.000000 0.000000 0.000000 0.000000 0.038442
#
#
# Mechanical properties :
#
#
# Convention : Reuss Voigt Hill
#
# Bulk Modulus (GPa) = 38.03706 43.00828 40.52267
# Shear Modulus (GPa) = 28.27346 29.61700 28.94523
#
# Velocity S-wave (km/s) = 3.50392 3.58621 3.54530
# Velocity P-wave (km/s) = 5.73473 5.98529 5.86135
#
# Compressibility (1/GPa) = 0.02629015
#
# Stress axis : x y z
#
# Youngs Moduli (GPa) = 88.79988 45.19349 84.22410
#
# Poissons Ratio (x) = 0.09031 0.23300
# Poissons Ratio (y) = 0.17744 0.39762
# Poissons Ratio (z) = 0.24566 0.21336
#
# Static dielectric constant tensor:
#      x y z
#    x 1.904800 0.000000 0.000000 
#    y 0.000000 2.141640 0.000000 
#    z 0.000000 0.000000 1.847430 
# 
# From -- ./inp_files/9431.got.cif
#   From: 2010.05.17/outbox.cif.g08.bks.cpg/sg73_5_cif.got.tgz:9431.got - 2010.06.03 17:35:07.
