data_PCOD9531434
_publ_section_title
;
Structure prediction by ZEFSAII (Michael W. Deem and Ramdas Pophale) SiO2 
 PCOD9531434
Probable space group: I B C A 
;
_chemical_formula_sum "Si O2"
_cell_formula_units_Z 120
_cell_length_a 23.585367
_cell_length_b 13.231095
_cell_length_c 15.776519
_cell_angle_alpha 90.000000
_cell_angle_beta 90.000000
_cell_angle_gamma 90.000000
_cell_volume 4923.224170
_symmetry_space_group_name_H-M "I B C A "
_symmetry_group_IT_number 73
_symmetry_cell_setting 'orthorhombic'
loop_
_space_group_symop_operation_xyz
x,y,z
-x,1/2-y,z
x,-y,1/2-z
1/2-x,y,-z
-x,-y,-z
x,1/2+y,-z
-x,y,1/2+z
1/2+x,-y,z
1/2+x,1/2+y,1/2+z
1/2-x,-y,1/2+z
1/2+x,1/2-y,-z
-x,1/2+y,1/2-z
1/2-x,1/2-y,1/2-z
1/2+x,y,1/2-z
1/2-x,1/2+y,z
x,1/2-y,1/2+z
loop_
_atom_site_type_symbol
_atom_site_label
_atom_site_fract_x
_atom_site_fract_y
_atom_site_fract_z
Si Si1 0.063768 0.969834 0.467992
Si Si2 0.917801 0.614144 0.769608
Si Si3 0.855951 0.850911 0.518449
Si Si4 0.239144 0.629860 0.896482
Si Si5 0.702901 0.639554 0.139046
Si Si6 0.555695 0.733670 0.594790
Si Si7 0.138034 0.654221 0.106682
Si Si8 0.719109 0.000000 0.250000
O O1 0.061390 0.885525 0.394795
O O2 0.102729 0.912833 0.539300
O O3 0.100156 0.068065 0.446918
O O4 0.000000 0.000000 0.500000
O O5 0.937471 0.500000 0.750000
O O6 0.856440 0.611130 0.815306
O O7 0.953053 0.688225 0.828789
O O8 0.906114 0.667108 0.681413
O O9 0.807282 0.896015 0.458709
O O10 0.891748 0.779366 0.454603
O O11 0.838627 0.765481 0.583529
O O12 0.217294 0.741824 0.873014
O O13 0.303158 0.602455 0.865916
O O14 0.198477 0.559005 0.837303
O O15 0.250000 0.623296 0.000000
O O16 0.749755 0.589895 0.198394
O O17 0.500000 0.750000 0.537277
#
# Coordination Sequence:
#
# PCOD9531434 Si02
#       8
#    16  16  16  16  16  16  16   8
#     4  11  22  41  72 100 136 182 243 300 369 441
#     4  11  22  42  69  93 135 189 239 295 366 453
#     4  10  21  40  67  96 135 179 232 297 363 437
#     4  12  25  46  70 108 147 193 246 312 369 456
#     4  11  22  43  68  97 136 186 239 293 366 448
#     4  10  21  39  63 102 136 180 234 302 362 441
#     4  11  23  42  67 100 136 187 240 298 365 448
#     4  12  24  42  72 104 138 186 252 290 378 436
#
# _framework density 24.374269999999999
#
# number of rings (size 3 to 8) (size 9 to 14) (size 15 to 20)
#    0.000    1.067    4.667    2.800    0.000    0.533 
#    4.800    0.667    0.000    0.000    0.000    0.000 
#    0.000    0.000    0.000    0.000    0.000    0.000 
#
# Total GULP energy -334074.358042 kJ/mol
# GULP energy per Si atom -5567.905967 kJ/mol
# Density = 2.431879 g / cm^3
# Si number density = 24.374270 Si / 1000 Ang^3
#
#
#
# Elastic Constant Matrix: (Units=GPa)
#
#
# Indices 1 2 3 4 5 6 
#
# 1 88.6380 27.5405 1.9451 0.0000 0.0000 0.0000
# 2 27.5405 161.8391 48.0336 0.0000 0.0000 0.0000
# 3 1.9451 48.0336 74.1629 0.0000 0.0000 0.0000
# 4 0.0000 0.0000 0.0000 35.9740 0.0000 0.0000
# 5 0.0000 0.0000 0.0000 0.0000 16.0867 0.0000
# 6 0.0000 0.0000 0.0000 0.0000 0.0000 36.4844
#
#
#
# Elastic Compliance Matrix: (Units=1/GPa)
#
#
# Indices 1 2 3 4 5 6 
#
# 1 0.012004 -0.002413 0.001248 0.000000 0.000000 0.000000
# 2 -0.002413 0.008135 -0.005205 0.000000 0.000000 0.000000
# 3 0.001248 -0.005205 0.016822 0.000000 0.000000 0.000000
# 4 0.000000 0.000000 0.000000 0.027798 0.000000 0.000000
# 5 0.000000 0.000000 0.000000 0.000000 0.062163 0.000000
# 6 0.000000 0.000000 0.000000 0.000000 0.000000 0.027409
#
#
# Mechanical properties :
#
#
# Convention : Reuss Voigt Hill
#
# Bulk Modulus (GPa) = 41.28725 53.29758 47.29242
# Shear Modulus (GPa) = 28.54772 34.18375 31.36573
#
# Velocity S-wave (km/s) = 3.42603 3.74900 3.59114
# Velocity P-wave (km/s) = 5.71190 6.37603 6.05308
#
# Compressibility (1/GPa) = 0.02422055
#
# Stress axis : x y z
#
# Youngs Moduli (GPa) = 83.30368 122.93226 59.44448
#
# Poissons Ratio (x) = 0.29667 -0.07420
# Poissons Ratio (y) = 0.20103 0.30942
# Poissons Ratio (z) = -0.10398 0.63990
#
# Static dielectric constant tensor:
#      x y z
#    x 2.048350 0.000000 0.000000 
#    y 0.000000 2.357720 0.000000 
#    z 0.000000 0.000000 2.074540 
# 
# From -- ./inp_files/23966.got.cif
#   From: 2010.05.17/outbox.cif.g08.bks.cpg/sg73_12_cif.got.tgz:23966.got - 2010.06.03 17:35:07.
