data_PCOD9531752
_publ_section_title
;
Structure prediction by ZEFSAII (Michael W. Deem and Ramdas Pophale) SiO2 
 PCOD9531752
Probable space group: I B C A 
;
_chemical_formula_sum "Si O2"
_cell_formula_units_Z 72
_cell_length_a 14.845266
_cell_length_b 9.032330
_cell_length_c 24.670152
_cell_angle_alpha 90.000000
_cell_angle_beta 90.000000
_cell_angle_gamma 90.000000
_cell_volume 3307.955095
_symmetry_space_group_name_H-M "I B C A "
_symmetry_group_IT_number 73
_symmetry_cell_setting 'orthorhombic'
loop_
_space_group_symop_operation_xyz
x,y,z
-x,1/2-y,z
x,-y,1/2-z
1/2-x,y,-z
-x,-y,-z
x,1/2+y,-z
-x,y,1/2+z
1/2+x,-y,z
1/2+x,1/2+y,1/2+z
1/2-x,-y,1/2+z
1/2+x,1/2-y,-z
-x,1/2+y,1/2-z
1/2-x,1/2-y,1/2-z
1/2+x,y,1/2-z
1/2-x,1/2+y,z
x,1/2-y,1/2+z
loop_
_atom_site_type_symbol
_atom_site_label
_atom_site_fract_x
_atom_site_fract_y
_atom_site_fract_z
Si Si1 0.354049 0.176999 0.697728
Si Si2 0.862148 0.077150 0.458169
Si Si3 0.500000 0.750000 0.391011
Si Si4 0.672153 0.267618 0.934167
Si Si5 0.163214 0.831282 0.314354
O O1 0.423223 0.200340 0.650032
O O2 0.263410 0.267522 0.689412
O O3 0.387037 0.215791 0.758838
O O4 0.329436 0.005999 0.691805
O O5 0.872307 0.127644 0.520471
O O6 0.776654 0.175092 0.436124
O O7 0.952584 0.124786 0.427302
O O8 0.837431 0.904600 0.450944
O O9 0.631260 0.287830 0.874203
#
# Coordination Sequence:
#
# PCOD9531752 Si02
#       5
#    16  16   8  16  16
#     4  10  23  43  70 100 133 173 224 276 339 389
#     4  11  25  41  72  98 136 176 228 279 337 390
#     4  12  26  44  62 102 146 166 210 302 340 378
#     4  11  22  44  71  98 126 187 234 265 322 426
#     4  10  21  44  73  96 126 181 230 263 320 429
#
# _framework density 21.765713000000002
#
# number of rings (size 3 to 8) (size 9 to 14) (size 15 to 20)
#    0.000    1.333    2.222    4.000    3.111    0.889 
#    8.000    0.000    0.000    0.000    0.000    0.000 
#    0.000    0.000    0.000    0.000    0.000    0.000 
#
# Total GULP energy -200991.614018 kJ/mol
# GULP energy per Si atom -5583.100389 kJ/mol
# Density = 2.171617 g / cm^3
# Si number density = 21.765713 Si / 1000 Ang^3
#
#
#
# Elastic Constant Matrix: (Units=GPa)
#
#
# Indices 1 2 3 4 5 6 
#
# 1 48.9934 17.3964 35.2482 0.0000 0.0000 0.0000
# 2 17.3964 118.0605 64.5524 0.0000 0.0000 0.0000
# 3 35.2482 64.5524 221.0677 0.0000 0.0000 0.0000
# 4 0.0000 0.0000 0.0000 30.1613 0.0000 0.0000
# 5 0.0000 0.0000 0.0000 0.0000 43.5224 0.0000
# 6 0.0000 0.0000 0.0000 0.0000 0.0000 15.8109
#
#
#
# Elastic Compliance Matrix: (Units=1/GPa)
#
#
# Indices 1 2 3 4 5 6 
#
# 1 0.023329 -0.001670 -0.003232 0.000000 0.000000 0.000000
# 2 -0.001670 0.010199 -0.002712 0.000000 0.000000 0.000000
# 3 -0.003232 -0.002712 0.005831 0.000000 0.000000 0.000000
# 4 0.000000 0.000000 0.000000 0.033155 0.000000 0.000000
# 5 0.000000 0.000000 0.000000 0.000000 0.022977 0.000000
# 6 0.000000 0.000000 0.000000 0.000000 0.000000 0.063248
#
#
# Mechanical properties :
#
#
# Convention : Reuss Voigt Hill
#
# Bulk Modulus (GPa) = 41.44117 69.16841 55.30479
# Shear Modulus (GPa) = 27.47097 35.96058 31.71577
#
# Velocity S-wave (km/s) = 3.55649 4.06909 3.82140
# Velocity P-wave (km/s) = 5.99548 7.34332 6.70336
#
# Compressibility (1/GPa) = 0.02413059
#
# Stress axis : x y z
#
# Youngs Moduli (GPa) = 42.86461 98.04754 171.50642
#
# Poissons Ratio (x) = 0.16378 0.55430
# Poissons Ratio (y) = 0.07160 0.46510
# Poissons Ratio (z) = 0.13854 0.26589
#
# Static dielectric constant tensor:
#      x y z
#    x 1.813220 0.000000 0.000000 
#    y 0.000000 1.735730 0.000000 
#    z 0.000000 0.000000 1.911150 
# 
# From -- ./inp_files/31062.got.cif
#   From: 2010.05.17/outbox.cif.g08.bks.cpg/sg73_16_cif.got.tgz:31062.got - 2010.06.03 17:35:07.
