data_PCOD9531682
_publ_section_title
;
Structure prediction by ZEFSAII (Michael W. Deem and Ramdas Pophale) SiO2 
 PCOD9531682
Probable space group: I B C A 
;
_chemical_formula_sum "Si O2"
_cell_formula_units_Z 96
_cell_length_a 13.360475
_cell_length_b 14.182729
_cell_length_c 20.860999
_cell_angle_alpha 90.000000
_cell_angle_beta 90.000000
_cell_angle_gamma 90.000000
_cell_volume 3952.908900
_symmetry_space_group_name_H-M "I B C A "
_symmetry_group_IT_number 73
_symmetry_cell_setting 'orthorhombic'
loop_
_space_group_symop_operation_xyz
x,y,z
-x,1/2-y,z
x,-y,1/2-z
1/2-x,y,-z
-x,-y,-z
x,1/2+y,-z
-x,y,1/2+z
1/2+x,-y,z
1/2+x,1/2+y,1/2+z
1/2-x,-y,1/2+z
1/2+x,1/2-y,-z
-x,1/2+y,1/2-z
1/2-x,1/2-y,1/2-z
1/2+x,y,1/2-z
1/2-x,1/2+y,z
x,1/2-y,1/2+z
loop_
_atom_site_type_symbol
_atom_site_label
_atom_site_fract_x
_atom_site_fract_y
_atom_site_fract_z
Si Si1 0.863423 0.038640 0.506799
Si Si2 0.105920 0.567167 0.192346
Si Si3 0.816354 0.761497 0.059235
Si Si4 0.529009 0.927190 0.588166
Si Si5 0.289643 0.814616 0.691702
Si Si6 0.000000 0.250000 0.663108
Si Si7 0.000000 0.250000 0.860882
O O1 0.750000 0.010040 0.500000
O O2 0.862494 0.139733 0.469215
O O3 0.910539 0.060304 0.576165
O O4 0.924030 0.949018 0.480299
O O5 0.072613 0.500000 0.250000
O O6 0.079638 0.506102 0.130888
O O7 0.223694 0.590632 0.199185
O O8 0.048666 0.666449 0.181586
O O9 0.745270 0.780992 0.120691
O O10 0.911442 0.711863 0.092665
O O11 0.750000 0.723728 0.000000
O O12 0.550890 0.827855 0.618472
O O13 0.250000 0.750000 0.750000
O O14 0.409586 0.806142 0.696848
#
# Coordination Sequence:
#
# PCOD9531682 Si02
#       7
#    16  16  16  16  16   8   8
#     4  10  21  45  71 108 165 207 273 321 398 479
#     4  11  25  51  79 110 162 216 267 337 408 484
#     4  10  21  42  75 111 163 213 257 334 405 471
#     4  11  24  44  74 116 155 217 260 328 404 480
#     4  11  25  48  73 110 153 199 265 327 392 484
#     4  12  26  48  80 114 156 194 272 326 408 472
#     4  10  22  46  74 118 154 210 290 334 394 488
#
# _framework density 24.285912
#
# number of rings (size 3 to 8) (size 9 to 14) (size 15 to 20)
#    0.000    1.333    3.333    3.000    0.000    8.667 
#    6.000    6.667    0.000    0.000    0.000    0.000 
#    0.000    0.000    0.000    0.000    0.000    0.000 
#
# Total GULP energy -267873.581120 kJ/mol
# GULP energy per Si atom -5580.699607 kJ/mol
# Density = 2.423064 g / cm^3
# Si number density = 24.285912 Si / 1000 Ang^3
#
#
#
# Elastic Constant Matrix: (Units=GPa)
#
#
# Indices 1 2 3 4 5 6 
#
# 1 139.6340 46.5006 22.3166 0.0000 0.0000 0.0000
# 2 46.5006 117.7381 28.6592 0.0000 0.0000 0.0000
# 3 22.3166 28.6592 96.0489 0.0000 0.0000 0.0000
# 4 0.0000 0.0000 0.0000 427.1156 0.0000 0.0000
# 5 0.0000 0.0000 0.0000 0.0000 29.5627 0.0000
# 6 0.0000 0.0000 0.0000 0.0000 0.0000 40.6703
#
#
#
# Elastic Compliance Matrix: (Units=1/GPa)
#
#
# Indices 1 2 3 4 5 6 
#
# 1 0.008340 -0.003043 -0.001030 0.000000 0.000000 0.000000
# 2 -0.003043 0.010269 -0.002357 0.000000 0.000000 0.000000
# 3 -0.001030 -0.002357 0.011354 0.000000 0.000000 0.000000
# 4 0.000000 0.000000 0.000000 0.002341 0.000000 0.000000
# 5 0.000000 0.000000 0.000000 0.000000 0.033826 0.000000
# 6 0.000000 0.000000 0.000000 0.000000 0.000000 0.024588
#
#
# Mechanical properties :
#
#
# Convention : Reuss Voigt Hill
#
# Bulk Modulus (GPa) = 58.46953 60.93040 59.69996
# Shear Modulus (GPa) = 45.75462 116.53270 81.14366
#
# Velocity S-wave (km/s) = 4.34521 6.93454 5.78657
# Velocity P-wave (km/s) = 7.02156 9.44777 8.32354
#
# Compressibility (1/GPa) = 0.01710293
#
# Stress axis : x y z
#
# Youngs Moduli (GPa) = 119.91077 97.38028 88.07549
#
# Poissons Ratio (x) = 0.29633 0.09069
# Poissons Ratio (y) = 0.36490 0.20760
# Poissons Ratio (z) = 0.12347 0.22953
#
# Static dielectric constant tensor:
#      x y z
#    x 2.050670 0.000000 0.000000 
#    y 0.000000 1.902480 0.000000 
#    z 0.000000 0.000000 2.052710 
# 
# From -- ./inp_files/26042.got.cif
#   From: 2010.05.17/outbox.cif.g08.bks.cpg/sg73_14_cif.got.tgz:26042.got - 2010.06.03 17:35:07.
