data_PCOD9531988
_publ_section_title
;
Structure prediction by ZEFSAII (Michael W. Deem and Ramdas Pophale) SiO2 
 PCOD9531988
Probable space group: I B C A 
;
_chemical_formula_sum "Si O2"
_cell_formula_units_Z 48
_cell_length_a 16.025925
_cell_length_b 24.462450
_cell_length_c 5.255063
_cell_angle_alpha 90.000000
_cell_angle_beta 90.000000
_cell_angle_gamma 90.000000
_cell_volume 2060.160157
_symmetry_space_group_name_H-M "I B C A "
_symmetry_group_IT_number 73
_symmetry_cell_setting 'orthorhombic'
loop_
_space_group_symop_operation_xyz
x,y,z
-x,1/2-y,z
x,-y,1/2-z
1/2-x,y,-z
-x,-y,-z
x,1/2+y,-z
-x,y,1/2+z
1/2+x,-y,z
1/2+x,1/2+y,1/2+z
1/2-x,-y,1/2+z
1/2+x,1/2-y,-z
-x,1/2+y,1/2-z
1/2-x,1/2-y,1/2-z
1/2+x,y,1/2-z
1/2-x,1/2+y,z
x,1/2-y,1/2+z
loop_
_atom_site_type_symbol
_atom_site_label
_atom_site_fract_x
_atom_site_fract_y
_atom_site_fract_z
Si Si1 0.550134 0.149145 0.046043
Si Si2 0.649402 0.464673 0.502379
Si Si3 0.713313 0.188927 0.246462
O O1 0.474916 0.155371 0.249949
O O2 0.595409 0.090157 0.042148
O O3 0.616677 0.189830 0.178980
O O4 0.630606 0.500000 0.750000
O O5 0.750000 0.456166 0.500000
O O6 0.628047 0.500000 0.250000
O O7 0.750000 0.161849 0.500000
O O8 0.750000 0.250000 0.250000
O O9 0.750000 0.160387 0.000000
#
# Coordination Sequence:
#
# PCOD9531988 Si02
#       3
#    16  16  16
#     4  12  25  40  64  99 134 166 213 277 338 387
#     4  10  22  40  63  91 128 178 226 263 314 396
#     4  10  22  44  68  90 123 174 222 267 328 404
#
# _framework density 23.299159
#
# number of rings (size 3 to 8) (size 9 to 14) (size 15 to 20)
#    0.000    1.333    0.000    5.000    0.000    8.000 
#    0.000   20.000    0.000    0.000    0.000    0.000 
#    0.000    0.000    0.000    0.000    0.000    0.000 
#
# Total GULP energy -133842.100886 kJ/mol
# GULP energy per Si atom -5576.754204 kJ/mol
# Density = 2.324613 g / cm^3
# Si number density = 23.299159 Si / 1000 Ang^3
#
#
#
# Elastic Constant Matrix: (Units=GPa)
#
#
# Indices 1 2 3 4 5 6 
#
# 1 53.2246 14.4520 8.5892 0.0000 0.0000 0.0000
# 2 14.4520 88.6859 16.9769 0.0000 0.0000 0.0000
# 3 8.5892 16.9769 207.7819 0.0002 0.0000 0.0000
# 4 0.0000 0.0000 0.0002 -19.3211 0.0000 0.0000
# 5 0.0000 0.0000 0.0000 0.0000 -25.3656 0.0000
# 6 0.0000 0.0000 0.0000 0.0000 0.0000 27.2051
#
#
#
# Elastic Compliance Matrix: (Units=1/GPa)
#
#
# Indices 1 2 3 4 5 6 
#
# 1 0.019722 -0.003106 -0.000561 0.000000 0.000000 0.000000
# 2 -0.003106 0.011944 -0.000847 0.000000 0.000000 0.000000
# 3 -0.000561 -0.000847 0.004905 0.000000 0.000000 0.000000
# 4 0.000000 0.000000 0.000000 -0.051757 0.000000 0.000000
# 5 0.000000 0.000000 0.000000 0.000000 -0.039423 0.000000
# 6 0.000000 0.000000 0.000000 0.000000 0.000000 0.036758
#
#
# Mechanical properties :
#
#
# Convention : Reuss Voigt Hill
#
# Bulk Modulus (GPa) = 36.30947 47.74761 42.02854
# Shear Modulus (GPa) = 13875.71917 17.14864 6946.43390
#
# Velocity S-wave (km/s) = 77.25534 2.71591 54.66152
# Velocity P-wave (km/s) = 89.29428 5.51114 63.26073
#
# Compressibility (1/GPa) = 0.02754102
#
# Stress axis : x y z
#
# Youngs Moduli (GPa) = 50.70384 83.72270 203.86556
#
# Poissons Ratio (x) = 0.26008 0.11446
# Poissons Ratio (y) = 0.15751 0.17277
# Poissons Ratio (z) = 0.02847 0.07095
#
# Static dielectric constant tensor:
#      x y z
#    x 1.952300 0.000000 0.000000 
#    y 0.000000 1.355940 0.000000 
#    z 0.000000 0.000000 1.936150 
# 
# From -- ./inp_files/614.got.cif
#   From: 2010.05.17/outbox.cif.g08.bks.cpg/sg73_1_cif.got.tgz:614.got - 2010.06.03 17:35:07.
