data_PCOD9531145
_publ_section_title
;
Structure prediction by ZEFSAII (Michael W. Deem and Ramdas Pophale) SiO2 
 PCOD9531145
Probable space group: I B C A 
;
_chemical_formula_sum "Si O2"
_cell_formula_units_Z 104
_cell_length_a 21.231164
_cell_length_b 27.200275
_cell_length_c 8.523902
_cell_angle_alpha 90.000000
_cell_angle_beta 90.000000
_cell_angle_gamma 90.000000
_cell_volume 4922.497994
_symmetry_space_group_name_H-M "I B C A "
_symmetry_group_IT_number 73
_symmetry_cell_setting 'orthorhombic'
loop_
_space_group_symop_operation_xyz
x,y,z
-x,1/2-y,z
x,-y,1/2-z
1/2-x,y,-z
-x,-y,-z
x,1/2+y,-z
-x,y,1/2+z
1/2+x,-y,z
1/2+x,1/2+y,1/2+z
1/2-x,-y,1/2+z
1/2+x,1/2-y,-z
-x,1/2+y,1/2-z
1/2-x,1/2-y,1/2-z
1/2+x,y,1/2-z
1/2-x,1/2+y,z
x,1/2-y,1/2+z
loop_
_atom_site_type_symbol
_atom_site_label
_atom_site_fract_x
_atom_site_fract_y
_atom_site_fract_z
Si Si1 0.162978 0.614207 0.234326
Si Si2 0.922257 0.295544 0.780462
Si Si3 0.160335 0.802606 0.235331
Si Si4 0.044016 0.165149 0.110696
Si Si5 0.750000 0.826931 0.000000
Si Si6 0.538263 0.500000 0.750000
Si Si7 0.750000 0.360350 0.500000
Si Si8 0.441513 0.062076 0.041295
O O1 0.117776 0.658896 0.284793
O O2 0.204131 0.638178 0.096827
O O3 0.210092 0.606308 0.378593
O O4 0.117982 0.574383 0.152685
O O5 0.879781 0.247157 0.774571
O O6 0.989033 0.305342 0.697286
O O7 0.934783 0.302321 0.964136
O O8 0.105226 0.841354 0.279779
O O9 0.209007 0.796190 0.378647
O O10 0.202115 0.824926 0.096001
O O11 0.029896 0.112510 0.031901
O O12 0.493163 0.536857 0.847603
O O13 0.574039 0.528754 0.610848
#
# Coordination Sequence:
#
# PCOD9531145 Si02
#       8
#    16  16  16  16   8   8   8  16
#     4  10  22  41  65  93 133 179 228 278 329 395
#     4  11  25  39  62  90 135 179 228 280 335 383
#     4  11  24  42  62  91 128 182 242 279 321 378
#     4  11  24  44  62  94 136 175 211 285 342 411
#     4  10  20  45  64  87 124 190 230 285 310 372
#     4  10  22  40  78 106 136 162 204 288 344 454
#     4  10  26  41  64  97 124 198 238 283 314 386
#     4  10  20  44  67 106 133 169 215 266 362 420
#
# _framework density 21.127483999999999
#
# number of rings (size 3 to 8) (size 9 to 14) (size 15 to 20)
#    0.000    1.538    3.077    2.308    4.308    4.923 
#    5.538    0.000    0.000    1.846    0.000    0.000 
#    0.000    0.000    0.000    0.000    0.000    0.000 
#
# Total GULP energy -290280.584836 kJ/mol
# GULP energy per Si atom -5582.318939 kJ/mol
# Density = 2.107940 g / cm^3
# Si number density = 21.127484 Si / 1000 Ang^3
#
#
#
# Elastic Constant Matrix: (Units=GPa)
#
#
# Indices 1 2 3 4 5 6 
#
# 1 112.4731 40.4143 55.3193 0.0000 0.0000 0.0000
# 2 40.4143 83.0299 43.4434 0.0000 0.0000 0.0000
# 3 55.3193 43.4434 125.7818 0.0000 0.0000 0.0000
# 4 0.0000 0.0000 0.0000 35.8157 0.0000 0.0000
# 5 0.0000 0.0000 0.0000 0.0000 45.6886 0.0000
# 6 0.0000 0.0000 0.0000 0.0000 0.0000 23.8050
#
#
#
# Elastic Compliance Matrix: (Units=1/GPa)
#
#
# Indices 1 2 3 4 5 6 
#
# 1 0.012275 -0.003845 -0.004070 0.000000 0.000000 0.000000
# 2 -0.003845 0.015905 -0.003802 0.000000 0.000000 0.000000
# 3 -0.004070 -0.003802 0.011054 0.000000 0.000000 0.000000
# 4 0.000000 0.000000 0.000000 0.027921 0.000000 0.000000
# 5 0.000000 0.000000 0.000000 0.000000 0.021887 0.000000
# 6 0.000000 0.000000 0.000000 0.000000 0.000000 0.042008
#
#
# Mechanical properties :
#
#
# Convention : Reuss Voigt Hill
#
# Bulk Modulus (GPa) = 63.29958 66.62654 64.96306
# Shear Modulus (GPa) = 31.29885 33.20239 32.25062
#
# Velocity S-wave (km/s) = 3.85311 3.96855 3.91125
# Velocity P-wave (km/s) = 7.05840 7.25280 7.15626
#
# Compressibility (1/GPa) = 0.01579789
#
# Stress axis : x y z
#
# Youngs Moduli (GPa) = 81.46921 62.87423 90.46702
#
# Poissons Ratio (x) = 0.24174 0.36824
# Poissons Ratio (y) = 0.31323 0.34399
# Poissons Ratio (z) = 0.33162 0.23907
#
# Static dielectric constant tensor:
#      x y z
#    x 1.886920 0.000000 0.000000 
#    y 0.000000 1.787190 0.000000 
#    z 0.000000 0.000000 1.785060 
# 
# From -- ./inp_files/6592.got.cif
#   From: 2010.05.17/outbox.cif.g08.bks.cpg/sg73_4_cif.got.tgz:6592.got - 2010.06.03 17:35:07.
