data_PCOD9531247
_publ_section_title
;
Structure prediction by ZEFSAII (Michael W. Deem and Ramdas Pophale) SiO2 
 PCOD9531247
Probable space group: I B C A 
;
_chemical_formula_sum "Si O2"
_cell_formula_units_Z 112
_cell_length_a 11.727205
_cell_length_b 28.809111
_cell_length_c 15.899217
_cell_angle_alpha 90.000000
_cell_angle_beta 90.000000
_cell_angle_gamma 90.000000
_cell_volume 5371.556037
_symmetry_space_group_name_H-M "I B C A "
_symmetry_group_IT_number 73
_symmetry_cell_setting 'orthorhombic'
loop_
_space_group_symop_operation_xyz
x,y,z
-x,1/2-y,z
x,-y,1/2-z
1/2-x,y,-z
-x,-y,-z
x,1/2+y,-z
-x,y,1/2+z
1/2+x,-y,z
1/2+x,1/2+y,1/2+z
1/2-x,-y,1/2+z
1/2+x,1/2-y,-z
-x,1/2+y,1/2-z
1/2-x,1/2-y,1/2-z
1/2+x,y,1/2-z
1/2-x,1/2+y,z
x,1/2-y,1/2+z
loop_
_atom_site_type_symbol
_atom_site_label
_atom_site_fract_x
_atom_site_fract_y
_atom_site_fract_z
Si Si1 0.990930 0.584935 0.404101
Si Si2 0.109600 0.092617 0.273336
Si Si3 0.960972 0.514623 0.658866
Si Si4 0.500000 0.250000 0.058738
Si Si5 0.418716 0.168126 0.176167
Si Si6 0.750000 0.217247 0.000000
Si Si7 0.150045 0.405704 0.437646
Si Si8 0.812062 0.846599 0.343077
O O1 0.088003 0.621234 0.379257
O O2 0.898757 0.587765 0.327654
O O3 0.025532 0.530797 0.398043
O O4 0.954950 0.598746 0.497548
O O5 0.075690 0.044234 0.318795
O O6 0.222596 0.116596 0.305751
O O7 0.009475 0.128503 0.298936
O O8 0.916652 0.500000 0.750000
O O9 0.874560 0.550902 0.620253
O O10 0.478432 0.206921 0.120996
O O11 0.623660 0.242686 0.010321
O O12 0.332447 0.140915 0.114845
O O13 0.358982 0.182615 0.263053
O O14 0.737091 0.185679 0.916410
O O15 0.250000 0.416352 0.500000
#
# Coordination Sequence:
#
# PCOD9531247 Si02
#       8
#    16  16  16   8  16   8  16  16
#     4  10  21  36  62  98 130 176 234 282 333 411
#     4   9  19  41  63  89 133 183 223 281 351 422
#     4   9  20  38  59  88 132 177 229 283 335 413
#     4  12  26  50  74 112 144 184 238 306 360 448
#     4  10  23  43  66  93 138 180 225 286 362 426
#     4  12  28  48  76 110 144 182 238 306 368 430
#     4  11  22  38  60  92 132 174 223 282 344 408
#     4  11  23  44  70  98 138 185 231 282 361 432
#
# _framework density 20.850570000000001
#
# number of rings (size 3 to 8) (size 9 to 14) (size 15 to 20)
#    0.000    1.714    1.429    3.000    3.000    2.286 
#    6.429    8.571    0.000    0.000    0.000    0.000 
#    0.000    0.000    0.000    0.000    0.000    0.000 
#
# Total GULP energy -312373.140647 kJ/mol
# GULP energy per Si atom -5578.091797 kJ/mol
# Density = 2.080311 g / cm^3
# Si number density = 20.850570 Si / 1000 Ang^3
#
#
#
# Elastic Constant Matrix: (Units=GPa)
#
#
# Indices 1 2 3 4 5 6 
#
# 1 76.4628 16.6003 28.8590 0.0000 0.0000 0.0000
# 2 16.6003 69.2990 30.0550 0.0000 0.0000 0.0000
# 3 28.8590 30.0550 93.2216 0.0000 0.0002 0.0000
# 4 0.0000 0.0000 0.0000 25.8300 0.0001 0.0000
# 5 0.0000 0.0000 0.0002 0.0001 38.6252 0.0000
# 6 0.0000 0.0000 0.0000 0.0000 0.0000 21.2712
#
#
#
# Elastic Compliance Matrix: (Units=1/GPa)
#
#
# Indices 1 2 3 4 5 6 
#
# 1 0.015007 -0.001837 -0.004054 0.000000 0.000000 0.000000
# 2 -0.001837 0.017001 -0.004912 0.000000 0.000000 0.000000
# 3 -0.004054 -0.004912 0.013566 0.000000 0.000000 0.000000
# 4 0.000000 0.000000 0.000000 0.038715 0.000000 0.000000
# 5 0.000000 0.000000 0.000000 0.000000 0.025890 0.000000
# 6 0.000000 0.000000 0.000000 0.000000 0.000000 0.047012
#
#
# Mechanical properties :
#
#
# Convention : Reuss Voigt Hill
#
# Bulk Modulus (GPa) = 41.72265 43.33467 42.52866
# Shear Modulus (GPa) = 26.76877 28.04323 27.40600
#
# Velocity S-wave (km/s) = 3.58696 3.67135 3.62940
# Velocity P-wave (km/s) = 6.09990 6.22899 6.16478
#
# Compressibility (1/GPa) = 0.02396780
#
# Stress axis : x y z
#
# Youngs Moduli (GPa) = 66.63581 58.82088 73.71477
#
# Poissons Ratio (x) = 0.10804 0.29881
# Poissons Ratio (y) = 0.12240 0.36212
# Poissons Ratio (z) = 0.27011 0.28896
#
# Static dielectric constant tensor:
#      x y z
#    x 1.844430 0.000000 0.000000 
#    y 0.000000 1.752020 0.000000 
#    z 0.000000 0.000000 1.782880 
# 
# From -- ./inp_files/16403.got.cif
#   From: 2010.05.17/outbox.cif.g08.bks.cpg/sg73_9_cif.got.tgz:16403.got - 2010.06.03 17:35:07.
