data_PCOD9531426
_publ_section_title
;
Structure prediction by ZEFSAII (Michael W. Deem and Ramdas Pophale) SiO2 
 PCOD9531426
Probable space group: I B C A 
;
_chemical_formula_sum "Si O2"
_cell_formula_units_Z 88
_cell_length_a 21.944866
_cell_length_b 18.779309
_cell_length_c 10.117334
_cell_angle_alpha 90.000000
_cell_angle_beta 90.000000
_cell_angle_gamma 90.000000
_cell_volume 4169.448642
_symmetry_space_group_name_H-M "I B C A "
_symmetry_group_IT_number 73
_symmetry_cell_setting 'orthorhombic'
loop_
_space_group_symop_operation_xyz
x,y,z
-x,1/2-y,z
x,-y,1/2-z
1/2-x,y,-z
-x,-y,-z
x,1/2+y,-z
-x,y,1/2+z
1/2+x,-y,z
1/2+x,1/2+y,1/2+z
1/2-x,-y,1/2+z
1/2+x,1/2-y,-z
-x,1/2+y,1/2-z
1/2-x,1/2-y,1/2-z
1/2+x,y,1/2-z
1/2-x,1/2+y,z
x,1/2-y,1/2+z
loop_
_atom_site_type_symbol
_atom_site_label
_atom_site_fract_x
_atom_site_fract_y
_atom_site_fract_z
Si Si1 0.967398 0.326801 0.797159
Si Si2 0.113814 0.500000 0.750000
Si Si3 0.230331 0.423426 0.752910
Si Si4 0.176752 0.695012 0.238584
Si Si5 0.547209 0.890544 0.068511
Si Si6 0.176642 0.178273 0.063437
O O1 0.895576 0.319667 0.765259
O O2 0.000000 0.250000 0.827921
O O3 0.998754 0.358544 0.668292
O O4 0.975870 0.382812 0.918298
O O5 0.162943 0.442619 0.812546
O O6 0.073630 0.462483 0.636389
O O7 0.261661 0.500000 0.750000
O O8 0.280116 0.366676 0.799086
O O9 0.208466 0.394303 0.610788
O O10 0.187401 0.765049 0.322382
O O11 0.192758 0.702627 0.083197
O O12 0.605049 0.837780 0.065269
#
# Coordination Sequence:
#
# PCOD9531426 Si02
#       6
#    16   8  16  16  16  16
#     4  11  22  36  65  93 132 161 216 266 326 388
#     4   8  20  42  64  80 126 166 212 258 330 376
#     4   9  20  40  63  84 123 167 210 263 324 386
#     4  11  22  38  65  97 126 166 214 271 332 397
#     4  10  21  39  62  91 122 171 206 262 321 389
#     4  10  21  39  65  92 127 163 215 268 338 390
#
# _framework density 21.105906999999998
#
# number of rings (size 3 to 8) (size 9 to 14) (size 15 to 20)
#    0.545    1.455    1.818    1.636    2.545    0.727 
#    1.636    3.636    4.000    0.000    0.000    0.000 
#    0.000    0.000    0.000    0.000    0.000    0.000 
#
# Total GULP energy -244946.073378 kJ/mol
# GULP energy per Si atom -5566.956213 kJ/mol
# Density = 2.105787 g / cm^3
# Si number density = 21.105907 Si / 1000 Ang^3
#
#
#
# Elastic Constant Matrix: (Units=GPa)
#
#
# Indices 1 2 3 4 5 6 
#
# 1 108.8675 28.2614 39.2106 0.0000 0.0000 0.0000
# 2 28.2614 83.0924 45.1691 0.0000 0.0000 0.0000
# 3 39.2106 45.1691 97.5242 0.0000 0.0000 0.0000
# 4 0.0000 0.0000 0.0000 6.0115 0.0000 0.0000
# 5 0.0000 0.0000 0.0000 0.0000 33.4924 0.0000
# 6 0.0000 0.0000 0.0000 0.0000 0.0000 33.9865
#
#
#
# Elastic Compliance Matrix: (Units=1/GPa)
#
#
# Indices 1 2 3 4 5 6 
#
# 1 0.010934 -0.001776 -0.003573 0.000000 0.000000 0.000000
# 2 -0.001776 0.016373 -0.006869 0.000000 0.000000 0.000000
# 3 -0.003573 -0.006869 0.014872 0.000000 0.000000 0.000000
# 4 0.000000 0.000000 0.000000 0.166347 0.000000 0.000000
# 5 0.000000 0.000000 0.000000 0.000000 0.029857 0.000000
# 6 0.000000 0.000000 0.000000 0.000000 0.000000 0.029423
#
#
# Mechanical properties :
#
#
# Convention : Reuss Voigt Hill
#
# Bulk Modulus (GPa) = 56.36576 57.19625 56.78100
# Shear Modulus (GPa) = 16.76967 26.48762 21.62865
#
# Velocity S-wave (km/s) = 2.82183 3.54642 3.20467
# Velocity P-wave (km/s) = 6.11401 6.62782 6.37609
#
# Compressibility (1/GPa) = 0.01774127
#
# Stress axis : x y z
#
# Youngs Moduli (GPa) = 91.46151 61.07617 67.24040
#
# Poissons Ratio (x) = 0.10849 0.24027
# Poissons Ratio (y) = 0.16246 0.46188
# Poissons Ratio (z) = 0.32681 0.41954
#
# Static dielectric constant tensor:
#      x y z
#    x 1.838020 0.000000 0.000000 
#    y 0.000000 1.806910 0.000000 
#    z 0.000000 0.000000 1.745830 
# 
# From -- ./inp_files/7080.got.cif
#   From: 2010.05.17/outbox.cif.g08.bks.cpg/sg73_4_cif.got.tgz:7080.got - 2010.06.03 17:35:07.
