data_PCOD9531458
_publ_section_title
;
Structure prediction by ZEFSAII (Michael W. Deem and Ramdas Pophale) SiO2 
 PCOD9531458
Probable space group: I B C A 
;
_chemical_formula_sum "Si O2"
_cell_formula_units_Z 96
_cell_length_a 8.756273
_cell_length_b 22.025829
_cell_length_c 21.138990
_cell_angle_alpha 90.000000
_cell_angle_beta 90.000000
_cell_angle_gamma 90.000000
_cell_volume 4076.953799
_symmetry_space_group_name_H-M "I B C A "
_symmetry_group_IT_number 73
_symmetry_cell_setting 'orthorhombic'
loop_
_space_group_symop_operation_xyz
x,y,z
-x,1/2-y,z
x,-y,1/2-z
1/2-x,y,-z
-x,-y,-z
x,1/2+y,-z
-x,y,1/2+z
1/2+x,-y,z
1/2+x,1/2+y,1/2+z
1/2-x,-y,1/2+z
1/2+x,1/2-y,-z
-x,1/2+y,1/2-z
1/2-x,1/2-y,1/2-z
1/2+x,y,1/2-z
1/2-x,1/2+y,z
x,1/2-y,1/2+z
loop_
_atom_site_type_symbol
_atom_site_label
_atom_site_fract_x
_atom_site_fract_y
_atom_site_fract_z
Si Si1 0.383132 0.575061 0.778527
Si Si2 0.665209 0.831806 0.438091
Si Si3 0.847028 0.711871 0.698705
Si Si4 0.615901 0.512078 0.645239
Si Si5 0.673998 0.187127 0.564373
Si Si6 0.845130 0.420961 0.629304
O O1 0.407951 0.646930 0.778947
O O2 0.517571 0.537546 0.813585
O O3 0.226879 0.553854 0.812226
O O4 0.362228 0.564628 0.703926
O O5 0.750000 0.857160 0.500000
O O6 0.487946 0.847424 0.428776
O O7 0.658003 0.759594 0.446523
O O8 0.775181 0.855175 0.382506
O O9 0.750000 0.750000 0.750000
O O10 0.755082 0.691672 0.634961
O O11 0.000000 0.750000 0.681573
O O12 0.722556 0.468947 0.603592
O O13 0.509756 0.558011 0.606101
O O14 0.750000 0.163640 0.500000
#
# Coordination Sequence:
#
# PCOD9531458 Si02
#       6
#    16  16  16  16  16  16
#     4  11  22  38  65  95 137 171 227 272 345 412
#     4  10  21  39  65  87 120 167 222 281 330 395
#     4  12  27  45  65 105 146 178 214 288 357 402
#     4  10  22  37  62  96 123 179 223 272 329 420
#     4  10  22  45  66  92 128 179 234 266 332 419
#     4  11  20  37  61  90 128 166 217 275 343 392
#
# _framework density 23.546990999999998
#
# number of rings (size 3 to 8) (size 9 to 14) (size 15 to 20)
#    0.000    1.333    1.667    6.000    4.667    1.333 
#    6.000    0.833    0.000    4.000    0.000    0.000 
#    0.000    0.000    0.000    0.000    0.000    0.000 
#
# Total GULP energy -267450.497268 kJ/mol
# GULP energy per Si atom -5571.885360 kJ/mol
# Density = 2.349340 g / cm^3
# Si number density = 23.546991 Si / 1000 Ang^3
#
#
#
# Elastic Constant Matrix: (Units=GPa)
#
#
# Indices 1 2 3 4 5 6 
#
# 1 68.6489 25.4082 14.7494 0.0000 0.0000 0.0000
# 2 25.4082 105.0818 -0.2211 0.0000 0.0000 0.0000
# 3 14.7494 -0.2211 80.2091 0.0000 0.0000 0.0000
# 4 0.0000 0.0000 0.0000 11.8839 0.0000 0.0000
# 5 0.0000 0.0000 0.0000 0.0000 20.3012 0.0000
# 6 0.0000 0.0000 0.0000 0.0000 0.0000 34.5209
#
#
#
# Elastic Compliance Matrix: (Units=1/GPa)
#
#
# Indices 1 2 3 4 5 6 
#
# 1 0.016730 -0.004052 -0.003088 0.000000 0.000000 0.000000
# 2 -0.004052 0.010498 0.000774 0.000000 0.000000 0.000000
# 3 -0.003088 0.000774 0.013037 0.000000 0.000000 0.000000
# 4 0.000000 0.000000 0.000000 0.084147 0.000000 0.000000
# 5 0.000000 0.000000 0.000000 0.000000 0.049258 0.000000
# 6 0.000000 0.000000 0.000000 0.000000 0.000000 0.028968
#
#
# Mechanical properties :
#
#
# Convention : Reuss Voigt Hill
#
# Bulk Modulus (GPa) = 36.31828 37.09030 36.70429
# Shear Modulus (GPa) = 22.26707 27.60809 24.93758
#
# Velocity S-wave (km/s) = 3.07847 3.42785 3.25784
# Velocity P-wave (km/s) = 5.30030 5.60827 5.45646
#
# Compressibility (1/GPa) = 0.02753434
#
# Stress axis : x y z
#
# Youngs Moduli (GPa) = 59.77343 95.25902 76.70289
#
# Poissons Ratio (x) = 0.38596 0.23683
# Poissons Ratio (y) = 0.24218 -0.05937
# Poissons Ratio (z) = 0.18455 -0.07373
#
# Static dielectric constant tensor:
#      x y z
#    x 2.035180 0.000000 0.000000 
#    y 0.000000 1.936420 0.000000 
#    z 0.000000 0.000000 1.997150 
# 
# From -- ./inp_files/28416.got.cif
#   From: 2010.05.17/outbox.cif.g08.bks.cpg/sg73_15_cif.got.tgz:28416.got - 2010.06.03 17:35:07.
