data_PCOD9531981
_publ_section_title
;
Structure prediction by ZEFSAII (Michael W. Deem and Ramdas Pophale) SiO2 
 PCOD9531981
Probable space group: I B C A 
;
_chemical_formula_sum "Si O2"
_cell_formula_units_Z 88
_cell_length_a 10.930205
_cell_length_b 22.155715
_cell_length_c 18.230297
_cell_angle_alpha 90.000000
_cell_angle_beta 90.000000
_cell_angle_gamma 90.000000
_cell_volume 4414.767344
_symmetry_space_group_name_H-M "I B C A "
_symmetry_group_IT_number 73
_symmetry_cell_setting 'orthorhombic'
loop_
_space_group_symop_operation_xyz
x,y,z
-x,1/2-y,z
x,-y,1/2-z
1/2-x,y,-z
-x,-y,-z
x,1/2+y,-z
-x,y,1/2+z
1/2+x,-y,z
1/2+x,1/2+y,1/2+z
1/2-x,-y,1/2+z
1/2+x,1/2-y,-z
-x,1/2+y,1/2-z
1/2-x,1/2-y,1/2-z
1/2+x,y,1/2-z
1/2-x,1/2+y,z
x,1/2-y,1/2+z
loop_
_atom_site_type_symbol
_atom_site_label
_atom_site_fract_x
_atom_site_fract_y
_atom_site_fract_z
Si Si1 0.887351 0.897500 0.894438
Si Si2 0.129713 0.717025 0.283066
Si Si3 0.621961 0.473166 0.358623
Si Si4 0.172469 0.913004 0.720711
Si Si5 0.633940 0.259624 0.946093
Si Si6 0.750000 0.018415 0.500000
O O1 0.787665 0.905423 0.831326
O O2 0.877606 0.828178 0.917150
O O3 0.012276 0.926251 0.866304
O O4 0.849740 0.938186 0.963526
O O5 0.250000 0.750000 0.250000
O O6 0.122102 0.651970 0.244076
O O7 0.144615 0.718611 0.372214
O O8 0.000000 0.750000 0.269156
O O9 0.708479 0.445131 0.296580
O O10 0.587875 0.539272 0.324800
O O11 0.688440 0.480996 0.435448
O O12 0.500000 0.250000 0.982263
O O13 0.750000 0.252585 0.000000
#
# Coordination Sequence:
#
# PCOD9531981 Si02
#       6
#    16  16  16  16  16   8
#     4  11  21  44  67  88 136 174 211 283 339 390
#     4  11  23  44  69  98 133 176 224 277 337 398
#     4  10  22  40  66  96 127 169 220 272 336 396
#     4  10  23  41  64  97 129 168 218 275 338 393
#     4  11  24  45  69  97 136 179 228 276 336 402
#     4  10  22  40  62  92 126 170 220 260 336 398
#
# _framework density 19.9331
#
# number of rings (size 3 to 8) (size 9 to 14) (size 15 to 20)
#    0.000    1.455    2.727    2.727    0.000    6.545 
#    6.545    0.000    0.000    0.000    0.000    0.000 
#    0.000    0.000    0.000    0.000    0.000    0.000 
#
# Total GULP energy -245389.241968 kJ/mol
# GULP energy per Si atom -5577.028227 kJ/mol
# Density = 1.988773 g / cm^3
# Si number density = 19.933100 Si / 1000 Ang^3
#
#
#
# Elastic Constant Matrix: (Units=GPa)
#
#
# Indices 1 2 3 4 5 6 
#
# 1 89.2601 17.8877 44.4988 0.0000 0.0000 0.0000
# 2 17.8877 58.9662 30.7912 0.0000 0.0000 0.0000
# 3 44.4988 30.7912 114.6958 0.0000 0.0000 0.0000
# 4 0.0000 0.0000 0.0000 -51.1584 0.0000 0.0000
# 5 0.0000 0.0000 0.0000 0.0000 22.1430 0.0000
# 6 0.0000 0.0000 0.0000 0.0000 0.0000 18.9822
#
#
#
# Elastic Compliance Matrix: (Units=1/GPa)
#
#
# Indices 1 2 3 4 5 6 
#
# 1 0.014025 -0.001644 -0.005000 0.000000 0.000000 0.000000
# 2 -0.001644 0.019916 -0.004709 0.000000 0.000000 0.000000
# 3 -0.005000 -0.004709 0.011923 0.000000 0.000000 0.000000
# 4 0.000000 0.000000 0.000000 -0.019547 0.000000 0.000000
# 5 0.000000 0.000000 0.000000 0.000000 0.045161 0.000000
# 6 0.000000 0.000000 0.000000 0.000000 0.000000 0.052681
#
#
# Mechanical properties :
#
#
# Convention : Reuss Voigt Hill
#
# Bulk Modulus (GPa) = 43.18006 49.91972 46.54989
# Shear Modulus (GPa) = 32.34469 9.30966 20.82717
#
# Velocity S-wave (km/s) = 4.03260 2.16347 3.23593
# Velocity P-wave (km/s) = 6.58726 5.59811 6.11272
#
# Compressibility (1/GPa) = 0.02315884
#
# Stress axis : x y z
#
# Youngs Moduli (GPa) = 71.29949 50.20968 83.87261
#
# Poissons Ratio (x) = 0.08253 0.41938
# Poissons Ratio (y) = 0.11719 0.39496
# Poissons Ratio (z) = 0.35651 0.23644
#
# Static dielectric constant tensor:
#      x y z
#    x 1.714630 0.000000 0.000000 
#    y 0.000000 1.761180 0.000000 
#    z 0.000000 0.000000 1.733420 
# 
# From -- ./inp_files/11868.got.cif
#   From: 2010.05.17/outbox.cif.g08.bks.cpg/sg73_6_cif.got.tgz:11868.got - 2010.06.03 17:35:07.
