data_PCOD9531288
_publ_section_title
;
Structure prediction by ZEFSAII (Michael W. Deem and Ramdas Pophale) SiO2 
 PCOD9531288
Probable space group: I B C A 
;
_chemical_formula_sum "Si O2"
_cell_formula_units_Z 80
_cell_length_a 20.394163
_cell_length_b 5.578199
_cell_length_c 31.311320
_cell_angle_alpha 90.000000
_cell_angle_beta 90.000000
_cell_angle_gamma 90.000000
_cell_volume 3562.060293
_symmetry_space_group_name_H-M "I B C A "
_symmetry_group_IT_number 73
_symmetry_cell_setting 'orthorhombic'
loop_
_space_group_symop_operation_xyz
x,y,z
-x,1/2-y,z
x,-y,1/2-z
1/2-x,y,-z
-x,-y,-z
x,1/2+y,-z
-x,y,1/2+z
1/2+x,-y,z
1/2+x,1/2+y,1/2+z
1/2-x,-y,1/2+z
1/2+x,1/2-y,-z
-x,1/2+y,1/2-z
1/2-x,1/2-y,1/2-z
1/2+x,y,1/2-z
1/2-x,1/2+y,z
x,1/2-y,1/2+z
loop_
_atom_site_type_symbol
_atom_site_label
_atom_site_fract_x
_atom_site_fract_y
_atom_site_fract_z
Si Si1 0.070590 0.880167 0.884429
Si Si2 0.898039 0.598995 0.301693
Si Si3 0.500000 0.750000 0.835956
Si Si4 0.919898 0.732602 0.978879
Si Si5 0.739834 0.051571 0.171049
Si Si6 0.342022 0.000000 0.250000
O O1 0.104798 0.762436 0.844217
O O2 0.100231 0.838336 0.930651
O O3 0.000000 0.750000 0.887162
O O4 0.055031 0.147109 0.868168
O O5 0.831962 0.446885 0.307795
O O6 0.889731 0.775071 0.261305
O O7 0.965246 0.452508 0.307641
O O8 0.000000 0.750000 0.980839
O O9 0.899196 0.501710 0.007382
O O10 0.749742 0.800548 0.147048
O O11 0.791284 0.027464 0.210404
#
# Coordination Sequence:
#
# PCOD9531288 Si02
#       6
#    16  16   8  16  16   8
#     4   9  20  35  53  79 119 166 199 243 305 373
#     4  10  21  37  61  85 122 160 209 255 321 376
#     4  10  22  36  58  84 122 180 196 244 312 398
#     4   9  18  29  51  81 111 152 204 250 289 354
#     4  10  21  38  63  93 108 145 199 270 322 348
#     4  10  22  42  66  92 110 156 214 290 314 350
#
# _framework density 22.458911000000001
#
# number of rings (size 3 to 8) (size 9 to 14) (size 15 to 20)
#    0.000    2.400    0.000    2.400   15.400    0.000 
#    0.000    0.000    6.600    1.200    0.000    0.000 
#    0.000   19.200    0.000    0.000    0.000    0.000 
#
# Total GULP energy -222964.562025 kJ/mol
# GULP energy per Si atom -5574.114051 kJ/mol
# Density = 2.240779 g / cm^3
# Si number density = 22.458911 Si / 1000 Ang^3
#
#
#
# Elastic Constant Matrix: (Units=GPa)
#
#
# Indices 1 2 3 4 5 6 
#
# 1 46.1226 24.5281 24.7628 0.0000 0.0000 0.0000
# 2 24.5281 128.1434 30.0315 0.0000 0.0000 0.0000
# 3 24.7628 30.0315 100.4009 0.0000 0.0000 0.0000
# 4 0.0000 0.0000 0.0000 20.9367 0.0000 0.0000
# 5 0.0000 0.0000 0.0000 0.0000 1.1497 0.0000
# 6 0.0000 0.0000 0.0000 0.0000 0.0000 30.4864
#
#
#
# Elastic Compliance Matrix: (Units=1/GPa)
#
#
# Indices 1 2 3 4 5 6 
#
# 1 0.026628 -0.003826 -0.005423 0.000000 0.000000 0.000000
# 2 -0.003826 0.008942 -0.001731 0.000000 0.000000 0.000000
# 3 -0.005423 -0.001731 0.011815 0.000000 0.000000 0.000000
# 4 0.000000 0.000000 0.000000 0.047763 0.000000 0.000000
# 5 0.000000 0.000000 0.000000 0.000000 0.869759 0.000000
# 6 0.000000 0.000000 0.000000 0.000000 0.000000 0.032802
#
#
# Mechanical properties :
#
#
# Convention : Reuss Voigt Hill
#
# Bulk Modulus (GPa) = 39.33161 48.14575 43.73868
# Shear Modulus (GPa) = 4.86314 23.53754 14.20034
#
# Velocity S-wave (km/s) = 1.47311 3.24084 2.51725
# Velocity P-wave (km/s) = 4.52152 5.95717 5.28829
#
# Compressibility (1/GPa) = 0.02542484
#
# Stress axis : x y z
#
# Youngs Moduli (GPa) = 37.55513 111.83493 84.63558
#
# Poissons Ratio (x) = 0.42787 0.45898
# Poissons Ratio (y) = 0.14368 0.14650
# Poissons Ratio (z) = 0.20366 0.19359
#
# Static dielectric constant tensor:
#      x y z
#    x 1.888440 0.000000 0.000000 
#    y 0.000000 2.036320 0.000000 
#    z 0.000000 0.000000 1.826860 
# 
# From -- ./inp_files/34742.got.cif
#   From: 2010.05.17/outbox.cif.g08.bks.cpg/sg73_18_cif.got.tgz:34742.got - 2010.06.03 17:35:07.
