data_PCOD9531364
_publ_section_title
;
Structure prediction by ZEFSAII (Michael W. Deem and Ramdas Pophale) SiO2 
 PCOD9531364
Probable space group: I B C A 
;
_chemical_formula_sum "Si O2"
_cell_formula_units_Z 120
_cell_length_a 24.434267
_cell_length_b 9.094924
_cell_length_c 26.229829
_cell_angle_alpha 90.000000
_cell_angle_beta 90.000000
_cell_angle_gamma 90.000000
_cell_volume 5828.997229
_symmetry_space_group_name_H-M "I B C A "
_symmetry_group_IT_number 73
_symmetry_cell_setting 'orthorhombic'
loop_
_space_group_symop_operation_xyz
x,y,z
-x,1/2-y,z
x,-y,1/2-z
1/2-x,y,-z
-x,-y,-z
x,1/2+y,-z
-x,y,1/2+z
1/2+x,-y,z
1/2+x,1/2+y,1/2+z
1/2-x,-y,1/2+z
1/2+x,1/2-y,-z
-x,1/2+y,1/2-z
1/2-x,1/2-y,1/2-z
1/2+x,y,1/2-z
1/2-x,1/2+y,z
x,1/2-y,1/2+z
loop_
_atom_site_type_symbol
_atom_site_label
_atom_site_fract_x
_atom_site_fract_y
_atom_site_fract_z
Si Si1 0.712957 0.831114 0.047836
Si Si2 0.448116 0.668905 0.880217
Si Si3 0.603947 0.192792 0.944495
Si Si4 0.053503 0.091358 0.988345
Si Si5 0.241190 0.075251 0.379785
Si Si6 0.325700 0.169268 0.165219
Si Si7 0.053171 0.646788 0.342733
Si Si8 0.618713 0.500000 0.250000
O O1 0.656518 0.765018 0.029836
O O2 0.737639 0.696560 0.080332
O O3 0.704411 0.964950 0.086788
O O4 0.750000 0.874296 0.000000
O O5 0.500000 0.750000 0.855354
O O6 0.446691 0.700379 0.940090
O O7 0.386072 0.688203 0.860421
O O8 0.464902 0.499686 0.872468
O O9 0.600329 0.198844 0.882872
O O10 0.596532 0.032635 0.969031
O O11 0.559626 0.308835 0.962517
O O12 0.000000 0.000000 0.000000
O O13 0.289405 0.966398 0.358711
O O14 0.207993 0.178447 0.340177
O O15 0.342578 0.115562 0.221127
O O16 0.081075 0.588419 0.290668
O O17 0.000000 0.750000 0.335642
#
# Coordination Sequence:
#
# PCOD9531364 Si02
#       8
#    16  16  16  16  16  16  16   8
#     4  11  24  37  60  91 129 171 221 264 323 384
#     4  10  21  38  63  93 135 176 214 271 337 411
#     4  11  24  38  62  89 132 173 211 267 316 388
#     4  11  22  36  56  88 125 172 218 249 313 392
#     4  10  23  42  62  89 130 173 221 279 332 393
#     4  10  23  43  67  94 129 170 230 284 348 403
#     4  10  22  42  66  96 137 171 221 279 339 403
#     4  10  22  42  70  96 128 172 224 290 356 404
#
# _framework density 20.586732999999999
#
# number of rings (size 3 to 8) (size 9 to 14) (size 15 to 20)
#    0.000    1.600    0.000    5.600    7.467    4.800 
#    0.000    0.000    0.000    6.400    0.000    0.000 
#    0.000    0.000    0.000    0.000    0.000    0.000 
#
# Total GULP energy -334075.965268 kJ/mol
# GULP energy per Si atom -5567.932754 kJ/mol
# Density = 2.053988 g / cm^3
# Si number density = 20.586733 Si / 1000 Ang^3
#
#
#
# Elastic Constant Matrix: (Units=GPa)
#
#
# Indices 1 2 3 4 5 6 
#
# 1 90.1594 33.1699 17.6299 0.0000 0.0000 0.0000
# 2 33.1699 96.7154 19.7885 0.0000 0.0000 0.0000
# 3 17.6299 19.7885 95.4370 0.0000 0.0000 0.0000
# 4 0.0000 0.0000 0.0000 10.9865 0.0000 0.0000
# 5 0.0000 0.0000 0.0000 0.0000 10.9991 0.0000
# 6 0.0000 0.0000 0.0000 0.0000 0.0000 35.9157
#
#
#
# Elastic Compliance Matrix: (Units=1/GPa)
#
#
# Indices 1 2 3 4 5 6 
#
# 1 0.012904 -0.004112 -0.001531 0.000000 0.000000 0.000000
# 2 -0.004112 0.012108 -0.001751 0.000000 0.000000 0.000000
# 3 -0.001531 -0.001751 0.011124 0.000000 0.000000 0.000000
# 4 0.000000 0.000000 0.000000 0.091021 0.000000 0.000000
# 5 0.000000 0.000000 0.000000 0.000000 0.090916 0.000000
# 6 0.000000 0.000000 0.000000 0.000000 0.000000 0.027843
#
#
# Mechanical properties :
#
#
# Convention : Reuss Voigt Hill
#
# Bulk Modulus (GPa) = 46.84387 47.05426 46.94907
# Shear Modulus (GPa) = 18.66923 25.69516 22.18219
#
# Velocity S-wave (km/s) = 3.01467 3.53674 3.28609
# Velocity P-wave (km/s) = 5.90944 6.29160 6.10351
#
# Compressibility (1/GPa) = 0.02134751
#
# Stress axis : x y z
#
# Youngs Moduli (GPa) = 77.49682 82.58846 89.89574
#
# Poissons Ratio (x) = 0.33963 0.13763
# Poissons Ratio (y) = 0.31869 0.15740
# Poissons Ratio (z) = 0.11865 0.14461
#
# Static dielectric constant tensor:
#      x y z
#    x 2.647930 0.000000 0.000000 
#    y 0.000000 1.928570 0.000000 
#    z 0.000000 0.000000 1.764460 
# 
# From -- ./inp_files/32883.got.cif
#   From: 2010.05.17/outbox.cif.g08.bks.cpg/sg73_17_cif.got.tgz:32883.got - 2010.06.03 17:35:07.
