data_PCOD9531329
_publ_section_title
;
Structure prediction by ZEFSAII (Michael W. Deem and Ramdas Pophale) SiO2 
 PCOD9531329
Probable space group: I B C A 
;
_chemical_formula_sum "Si O2"
_cell_formula_units_Z 88
_cell_length_a 11.028987
_cell_length_b 16.312824
_cell_length_c 24.471782
_cell_angle_alpha 90.000000
_cell_angle_beta 90.000000
_cell_angle_gamma 90.000000
_cell_volume 4402.814323
_symmetry_space_group_name_H-M "I B C A "
_symmetry_group_IT_number 73
_symmetry_cell_setting 'orthorhombic'
loop_
_space_group_symop_operation_xyz
x,y,z
-x,1/2-y,z
x,-y,1/2-z
1/2-x,y,-z
-x,-y,-z
x,1/2+y,-z
-x,y,1/2+z
1/2+x,-y,z
1/2+x,1/2+y,1/2+z
1/2-x,-y,1/2+z
1/2+x,1/2-y,-z
-x,1/2+y,1/2-z
1/2-x,1/2-y,1/2-z
1/2+x,y,1/2-z
1/2-x,1/2+y,z
x,1/2-y,1/2+z
loop_
_atom_site_type_symbol
_atom_site_label
_atom_site_fract_x
_atom_site_fract_y
_atom_site_fract_z
Si Si1 0.992435 0.000000 0.750000
Si Si2 0.123938 0.102995 0.337788
Si Si3 0.000000 0.750000 0.204259
Si Si4 0.500000 0.250000 0.892972
Si Si5 0.388411 0.376891 0.478801
Si Si6 0.867584 0.927575 0.537477
Si Si7 0.628971 0.338996 0.293346
O O1 0.917466 0.975755 0.696101
O O2 0.066119 0.920578 0.769316
O O3 0.158528 0.091795 0.399916
O O4 0.235173 0.138360 0.304643
O O5 0.020563 0.171474 0.332814
O O6 0.894079 0.771400 0.247105
O O7 0.577763 0.311334 0.931619
O O8 0.424875 0.306913 0.850804
O O9 0.250000 0.358745 0.500000
O O10 0.384610 0.473516 0.462917
O O11 0.508719 0.380853 0.518413
O O12 0.750000 0.907881 0.500000
#
# Coordination Sequence:
#
# PCOD9531329 Si02
#       7
#     8  16   8   8  16  16  16
#     4  10  22  38  60  88 114 154 206 248 302 364
#     4  11  21  38  62  85 117 157 199 248 300 363
#     4   9  22  37  54  88 120 147 190 243 304 360
#     4  11  22  37  60  88 120 159 198 247 308 366
#     4  10  23  41  60  88 123 158 202 253 302 360
#     4  10  22  41  64  90 121 161 207 252 303 364
#     4  10  21  38  58  85 120 153 193 248 306 360
#
# _framework density 19.987216
#
# number of rings (size 3 to 8) (size 9 to 14) (size 15 to 20)
#    0.000    1.818    0.000    3.273    0.000    7.273 
#    0.000    5.455    0.000    0.000    0.000    0.000 
#    0.000    0.000    0.000    0.000    0.000    0.000 
#
# Total GULP energy -245104.518822 kJ/mol
# GULP energy per Si atom -5570.557246 kJ/mol
# Density = 1.994172 g / cm^3
# Si number density = 19.987216 Si / 1000 Ang^3
#
#
#
# Elastic Constant Matrix: (Units=GPa)
#
#
# Indices 1 2 3 4 5 6 
#
# 1 88.8970 34.0919 36.2414 0.0000 0.0000 0.0000
# 2 34.0919 69.8583 53.3894 0.0000 0.0000 0.0000
# 3 36.2414 53.3894 120.4671 0.0000 0.0000 0.0000
# 4 0.0000 0.0000 0.0000 30.6433 0.0000 0.0000
# 5 0.0000 0.0000 0.0000 0.0000 0.9794 0.0000
# 6 0.0000 0.0000 0.0000 0.0000 0.0000 72.7557
#
#
#
# Elastic Compliance Matrix: (Units=1/GPa)
#
#
# Indices 1 2 3 4 5 6 
#
# 1 0.014093 -0.005500 -0.001802 0.000000 0.000000 0.000000
# 2 -0.005500 0.023793 -0.008890 0.000000 0.000000 0.000000
# 3 -0.001802 -0.008890 0.012783 0.000000 0.000000 0.000000
# 4 0.000000 0.000000 0.000000 0.032634 0.000000 0.000000
# 5 0.000000 0.000000 0.000000 0.000000 1.021018 0.000000
# 6 0.000000 0.000000 0.000000 0.000000 0.000000 0.013745
#
#
# Mechanical properties :
#
#
# Convention : Reuss Voigt Hill
#
# Bulk Modulus (GPa) = 54.69173 58.51864 56.60519
# Shear Modulus (GPa) = 4.32322 31.24234 17.78278
#
# Velocity S-wave (km/s) = 1.47231 3.95792 2.98603
# Velocity P-wave (km/s) = 5.50573 7.08720 6.34592
#
# Compressibility (1/GPa) = 0.01828430
#
# Stress axis : x y z
#
# Youngs Moduli (GPa) = 70.95705 42.02877 78.22815
#
# Poissons Ratio (x) = 0.23117 0.14097
# Poissons Ratio (y) = 0.39029 0.69546
# Poissons Ratio (z) = 0.12787 0.37364
#
# Static dielectric constant tensor:
#      x y z
#    x 1.747620 0.000000 0.000000 
#    y 0.000000 1.828570 0.000000 
#    z 0.000000 0.000000 1.678430 
# 
# From -- ./inp_files/25380.got.cif
#   From: 2010.05.17/outbox.cif.g08.bks.cpg/sg73_13_cif.got.tgz:25380.got - 2010.06.03 17:35:07.
