data_PCOD9531579
_publ_section_title
;
Structure prediction by ZEFSAII (Michael W. Deem and Ramdas Pophale) SiO2 
 PCOD9531579
Probable space group: I B C A 
;
_chemical_formula_sum "Si O2"
_cell_formula_units_Z 112
_cell_length_a 10.186797
_cell_length_b 14.125286
_cell_length_c 32.503370
_cell_angle_alpha 90.000000
_cell_angle_beta 90.000000
_cell_angle_gamma 90.000000
_cell_volume 4676.956098
_symmetry_space_group_name_H-M "I B C A "
_symmetry_group_IT_number 73
_symmetry_cell_setting 'orthorhombic'
loop_
_space_group_symop_operation_xyz
x,y,z
-x,1/2-y,z
x,-y,1/2-z
1/2-x,y,-z
-x,-y,-z
x,1/2+y,-z
-x,y,1/2+z
1/2+x,-y,z
1/2+x,1/2+y,1/2+z
1/2-x,-y,1/2+z
1/2+x,1/2-y,-z
-x,1/2+y,1/2-z
1/2-x,1/2-y,1/2-z
1/2+x,y,1/2-z
1/2-x,1/2+y,z
x,1/2-y,1/2+z
loop_
_atom_site_type_symbol
_atom_site_label
_atom_site_fract_x
_atom_site_fract_y
_atom_site_fract_z
Si Si1 0.805447 0.054267 0.667059
Si Si2 0.281686 0.145737 0.307025
Si Si3 0.444562 0.024066 0.916362
Si Si4 0.711523 0.078936 0.953572
Si Si5 0.291025 0.202311 0.953694
Si Si6 0.576511 0.312035 0.764515
Si Si7 0.648467 0.777962 0.871504
O O1 0.913224 0.031641 0.631876
O O2 0.886473 0.107782 0.702090
O O3 0.697649 0.125743 0.649232
O O4 0.725015 0.963612 0.682149
O O5 0.407094 0.201870 0.287810
O O6 0.188282 0.155944 0.268070
O O7 0.239909 0.200513 0.348379
O O8 0.594567 0.019770 0.931857
O O9 0.386300 0.120727 0.936716
O O10 0.348973 0.939139 0.930459
O O11 0.663447 0.187886 0.954597
O O12 0.750000 0.050986 0.000000
O O13 0.176998 0.209066 0.919763
O O14 0.250000 0.178574 0.000000
O O15 0.500000 0.250000 0.728729
O O16 0.500000 0.750000 0.865727
#
# Coordination Sequence:
#
# PCOD9531579 Si02
#       7
#    16  16  16  16  16  16  16
#     4  10  23  39  62  93 129 175 218 267 333 403
#     4  10  21  41  62  92 130 165 216 269 329 401
#     4  11  24  42  64  95 131 171 222 278 336 406
#     4  11  24  42  65  92 126 171 221 280 344 406
#     4  10  23  41  64  92 127 172 220 272 335 402
#     4  10  22  40  64  92 127 168 212 270 328 392
#     4  10  22  39  62  94 131 170 219 278 333 396
#
# _framework density 23.947199999999999
#
# number of rings (size 3 to 8) (size 9 to 14) (size 15 to 20)
#    0.000    1.714    0.000    3.000    0.000   12.571 
#    0.000    4.286    0.000    0.000    0.000    0.000 
#    0.000    0.000    0.000    0.000    0.000    0.000 
#
# Total GULP energy -312100.186172 kJ/mol
# GULP energy per Si atom -5573.217610 kJ/mol
# Density = 2.389269 g / cm^3
# Si number density = 23.947200 Si / 1000 Ang^3
#
#
#
# Elastic Constant Matrix: (Units=GPa)
#
#
# Indices 1 2 3 4 5 6 
#
# 1 81.6857 26.3000 25.2257 0.0000 0.0000 0.0000
# 2 26.3000 139.4518 38.3272 0.0000 0.0000 -0.0001
# 3 25.2257 38.3272 124.2145 0.0000 0.0000 -0.0001
# 4 0.0000 0.0000 0.0000 14.2713 0.0000 -0.0001
# 5 0.0000 0.0000 0.0000 0.0000 13.6860 0.0000
# 6 0.0000 -0.0001 -0.0001 -0.0001 0.0000 501.3456
#
#
#
# Elastic Compliance Matrix: (Units=1/GPa)
#
#
# Indices 1 2 3 4 5 6 
#
# 1 0.013536 -0.001964 -0.002143 0.000000 0.000000 0.000000
# 2 -0.001964 0.008120 -0.002107 0.000000 0.000000 0.000000
# 3 -0.002143 -0.002107 0.009136 0.000000 0.000000 0.000000
# 4 0.000000 0.000000 0.000000 0.070071 0.000000 0.000000
# 5 0.000000 0.000000 0.000000 0.000000 0.073068 0.000000
# 6 0.000000 0.000000 0.000000 0.000000 0.000000 0.001995
#
#
# Mechanical properties :
#
#
# Convention : Reuss Voigt Hill
#
# Bulk Modulus (GPa) = 54.45109 58.33973 56.39541
# Shear Modulus (GPa) = 25.71036 122.89385 74.30210
#
# Velocity S-wave (km/s) = 3.28018 7.17148 5.57627
# Velocity P-wave (km/s) = 6.09372 9.64304 8.06603
#
# Compressibility (1/GPa) = 0.01836510
#
# Stress axis : x y z
#
# Youngs Moduli (GPa) = 73.87643 123.14752 109.45895
#
# Poissons Ratio (x) = 0.24185 0.23457
# Poissons Ratio (y) = 0.14508 0.23060
# Poissons Ratio (z) = 0.15831 0.25944
#
# Static dielectric constant tensor:
#      x y z
#    x 1.886640 0.000000 0.000000 
#    y 0.000000 1.956930 0.000000 
#    z 0.000000 0.000000 2.016880 
# 
# From -- ./inp_files/34024.got.cif
#   From: 2010.05.17/outbox.cif.g08.bks.cpg/sg73_18_cif.got.tgz:34024.got - 2010.06.03 17:35:07.
