data_PCOD9531882
_publ_section_title
;
Structure prediction by ZEFSAII (Michael W. Deem and Ramdas Pophale) SiO2 
 PCOD9531882
Probable space group: I B C A 
;
_chemical_formula_sum "Si O2"
_cell_formula_units_Z 80
_cell_length_a 8.770651
_cell_length_b 23.760493
_cell_length_c 16.871390
_cell_angle_alpha 90.000000
_cell_angle_beta 90.000000
_cell_angle_gamma 90.000000
_cell_volume 3515.913179
_symmetry_space_group_name_H-M "I B C A "
_symmetry_group_IT_number 73
_symmetry_cell_setting 'orthorhombic'
loop_
_space_group_symop_operation_xyz
x,y,z
-x,1/2-y,z
x,-y,1/2-z
1/2-x,y,-z
-x,-y,-z
x,1/2+y,-z
-x,y,1/2+z
1/2+x,-y,z
1/2+x,1/2+y,1/2+z
1/2-x,-y,1/2+z
1/2+x,1/2-y,-z
-x,1/2+y,1/2-z
1/2-x,1/2-y,1/2-z
1/2+x,y,1/2-z
1/2-x,1/2+y,z
x,1/2-y,1/2+z
loop_
_atom_site_type_symbol
_atom_site_label
_atom_site_fract_x
_atom_site_fract_y
_atom_site_fract_z
Si Si1 0.509178 0.315697 0.365841
Si Si2 0.467861 0.065907 0.164028
Si Si3 0.227510 0.500000 0.750000
Si Si4 0.709802 0.173403 0.730032
Si Si5 0.500000 0.250000 0.128611
Si Si6 0.425525 0.861089 0.974465
O O1 0.500000 0.250000 0.388156
O O2 0.381483 0.327609 0.299958
O O3 0.669928 0.326269 0.322616
O O4 0.484540 0.353142 0.442928
O O5 0.379117 0.119518 0.197753
O O6 0.341132 0.017706 0.178650
O O7 0.614674 0.047799 0.215851
O O8 0.521043 0.086037 0.077678
O O9 0.631635 0.226639 0.686452
O O10 0.546960 0.197005 0.074284
O O11 0.250000 0.865318 0.000000
#
# Coordination Sequence:
#
# PCOD9531882 Si02
#       6
#    16  16   8  16   8  16
#     4  12  24  40  67 100 150 190 228 276 331 408
#     4  10  24  45  78 102 134 177 231 297 354 419
#     4  10  22  50  80 102 130 174 238 302 358 408
#     4  11  24  40  69 103 134 186 239 272 335 418
#     4  10  22  38  62  98 146 178 234 264 338 414
#     4  11  25  42  65 102 148 183 223 282 354 412
#
# _framework density 22.753689999999999
#
# number of rings (size 3 to 8) (size 9 to 14) (size 15 to 20)
#    0.000    1.200    2.000    3.000    8.400    2.400 
#    0.000    1.000    0.000    0.000    0.000    0.000 
#    0.000    0.000    0.000    0.000    0.000    0.000 
#
# Total GULP energy -223733.775531 kJ/mol
# GULP energy per Si atom -5593.344388 kJ/mol
# Density = 2.270190 g / cm^3
# Si number density = 22.753690 Si / 1000 Ang^3
#
#
#
# Elastic Constant Matrix: (Units=GPa)
#
#
# Indices 1 2 3 4 5 6 
#
# 1 124.8025 40.8772 48.5902 0.0000 0.0000 0.0000
# 2 40.8772 67.5521 34.1320 0.0000 0.0000 0.0000
# 3 48.5902 34.1320 136.2853 0.0000 0.0000 0.0000
# 4 0.0000 0.0000 0.0000 39.9947 0.0000 0.0000
# 5 0.0000 0.0000 0.0000 0.0000 31.6617 0.0000
# 6 0.0000 0.0000 0.0000 0.0000 0.0000 34.0063
#
#
#
# Elastic Compliance Matrix: (Units=1/GPa)
#
#
# Indices 1 2 3 4 5 6 
#
# 1 0.010694 -0.005203 -0.002510 0.000000 0.000000 0.000000
# 2 -0.005203 0.019480 -0.003024 0.000000 0.000000 0.000000
# 3 -0.002510 -0.003024 0.008990 0.000000 0.000000 0.000000
# 4 0.000000 0.000000 0.000000 0.025003 0.000000 0.000000
# 5 0.000000 0.000000 0.000000 0.000000 0.031584 0.000000
# 6 0.000000 0.000000 0.000000 0.000000 0.000000 0.029406
#
#
# Mechanical properties :
#
#
# Convention : Reuss Voigt Hill
#
# Bulk Modulus (GPa) = 56.52722 63.98208 60.25465
# Shear Modulus (GPa) = 32.78130 34.80189 33.79160
#
# Velocity S-wave (km/s) = 3.79978 3.91513 3.85789
# Velocity P-wave (km/s) = 6.64440 6.97267 6.81052
#
# Compressibility (1/GPa) = 0.01769059
#
# Stress axis : x y z
#
# Youngs Moduli (GPa) = 93.51085 51.33584 111.24036
#
# Poissons Ratio (x) = 0.26710 0.27917
# Poissons Ratio (y) = 0.48654 0.33634
# Poissons Ratio (z) = 0.23468 0.15521
#
# Static dielectric constant tensor:
#      x y z
#    x 1.867220 0.000000 0.000000 
#    y 0.000000 1.884770 0.000000 
#    z 0.000000 0.000000 1.847490 
# 
# From -- ./inp_files/20764.got.cif
#   From: 2010.05.17/outbox.cif.g08.bks.cpg/sg73_11_cif.got.tgz:20764.got - 2010.06.03 17:35:07.
