data_PCOD9531202
_publ_section_title
;
Structure prediction by ZEFSAII (Michael W. Deem and Ramdas Pophale) SiO2 
 PCOD9531202
Probable space group: I B C A 
;
_chemical_formula_sum "Si O2"
_cell_formula_units_Z 120
_cell_length_a 26.270294
_cell_length_b 14.096709
_cell_length_c 12.744303
_cell_angle_alpha 90.000000
_cell_angle_beta 90.000000
_cell_angle_gamma 90.000000
_cell_volume 4719.530056
_symmetry_space_group_name_H-M "I B C A "
_symmetry_group_IT_number 73
_symmetry_cell_setting 'orthorhombic'
loop_
_space_group_symop_operation_xyz
x,y,z
-x,1/2-y,z
x,-y,1/2-z
1/2-x,y,-z
-x,-y,-z
x,1/2+y,-z
-x,y,1/2+z
1/2+x,-y,z
1/2+x,1/2+y,1/2+z
1/2-x,-y,1/2+z
1/2+x,1/2-y,-z
-x,1/2+y,1/2-z
1/2-x,1/2-y,1/2-z
1/2+x,y,1/2-z
1/2-x,1/2+y,z
x,1/2-y,1/2+z
loop_
_atom_site_type_symbol
_atom_site_label
_atom_site_fract_x
_atom_site_fract_y
_atom_site_fract_z
Si Si1 0.791399 0.259253 0.586758
Si Si2 0.450544 0.191015 0.303250
Si Si3 0.339213 0.449560 0.642799
Si Si4 0.616101 0.154536 0.377985
Si Si5 0.646835 0.500000 0.750000
Si Si6 0.888009 0.390358 0.517188
Si Si7 0.407398 0.216004 0.104692
Si Si8 0.757423 0.435474 0.374423
O O1 0.750000 0.232630 0.500000
O O2 0.822642 0.166875 0.618719
O O3 0.839412 0.322259 0.544747
O O4 0.765381 0.334504 0.664903
O O5 0.500000 0.250000 0.331446
O O6 0.404072 0.266516 0.298177
O O7 0.432167 0.120937 0.393835
O O8 0.449763 0.167714 0.179931
O O9 0.358905 0.500000 0.750000
O O10 0.364444 0.506331 0.544394
O O11 0.355098 0.340270 0.636685
O O12 0.279596 0.475212 0.645288
O O13 0.609097 0.054897 0.326316
O O14 0.587367 0.177095 0.485050
O O15 0.686694 0.446819 0.672050
O O16 0.907238 0.330365 0.415526
O O17 0.750000 0.424905 0.500000
#
# Coordination Sequence:
#
# PCOD9531202 Si02
#       8
#    16  16  16  16   8  16  16  16
#     4   8  17  36  56  84 116 162 209 253 294 359
#     4  10  21  41  67  91 119 162 212 272 332 398
#     4  11  19  37  65  92 127 173 223 269 307 387
#     4  10  25  40  59  88 132 169 208 265 334 391
#     4  12  24  38  52  88 128 174 200 256 338 394
#     4   9  21  38  60  97 130 164 212 266 327 378
#     4  10  21  38  66  93 121 163 214 264 329 385
#     4  10  21  35  57  87 125 167 222 260 305 375
#
# _framework density 25.426259999999999
#
# number of rings (size 3 to 8) (size 9 to 14) (size 15 to 20)
#    0.000    2.400    2.000    0.800    0.000   11.733 
#    0.000    1.333    0.000    4.800    0.000    0.000 
#    0.000    0.000    0.000    0.000    0.000    0.000 
#
# Total GULP energy -334119.610990 kJ/mol
# GULP energy per Si atom -5568.660183 kJ/mol
# Density = 2.536839 g / cm^3
# Si number density = 25.426260 Si / 1000 Ang^3
#
#
#
# Elastic Constant Matrix: (Units=GPa)
#
#
# Indices 1 2 3 4 5 6 
#
# 1 61.7465 9.3783 0.2712 0.0000 0.0000 0.0000
# 2 9.3783 43.7443 11.1436 0.0000 0.0000 0.0000
# 3 0.2712 11.1436 81.2607 0.0000 0.0000 0.0000
# 4 0.0000 0.0000 0.0000 28.7162 0.0000 0.0000
# 5 0.0000 0.0000 0.0000 0.0000 19.8120 0.0000
# 6 0.0000 0.0000 0.0000 0.0000 0.0000 24.1791
#
#
#
# Elastic Compliance Matrix: (Units=1/GPa)
#
#
# Indices 1 2 3 4 5 6 
#
# 1 0.016756 -0.003708 0.000453 0.000000 0.000000 0.000000
# 2 -0.003708 0.024508 -0.003348 0.000000 0.000000 0.000000
# 3 0.000453 -0.003348 0.012764 0.000000 0.000000 0.000000
# 4 0.000000 0.000000 0.000000 0.034824 0.000000 0.000000
# 5 0.000000 0.000000 0.000000 0.000000 0.050474 0.000000
# 6 0.000000 0.000000 0.000000 0.000000 0.000000 0.041358
#
#
# Mechanical properties :
#
#
# Convention : Reuss Voigt Hill
#
# Bulk Modulus (GPa) = 24.49730 25.37088 24.93409
# Shear Modulus (GPa) = 24.09658 25.60536 24.85097
#
# Velocity S-wave (km/s) = 3.08182 3.17684 3.12969
# Velocity P-wave (km/s) = 4.72430 4.84317 4.78411
#
# Compressibility (1/GPa) = 0.04082083
#
# Stress axis : x y z
#
# Youngs Moduli (GPa) = 59.67873 40.80300 78.34683
#
# Poissons Ratio (x) = 0.15128 -0.03545
# Poissons Ratio (y) = 0.22127 0.26234
# Poissons Ratio (z) = -0.02701 0.13663
#
# Static dielectric constant tensor:
#      x y z
#    x 2.002220 0.000000 0.000000 
#    y 0.000000 2.190340 0.000000 
#    z 0.000000 0.000000 2.255290 
# 
# From -- ./inp_files/14375.got.cif
#   From: 2010.05.17/outbox.cif.g08.bks.cpg/sg73_8_cif.got.tgz:14375.got - 2010.06.03 17:35:07.
