data_PCOD9531854
_publ_section_title
;
Structure prediction by ZEFSAII (Michael W. Deem and Ramdas Pophale) SiO2 
 PCOD9531854
Probable space group: I B C A 
;
_chemical_formula_sum "Si O2"
_cell_formula_units_Z 88
_cell_length_a 19.061853
_cell_length_b 23.298300
_cell_length_c 8.784605
_cell_angle_alpha 90.000000
_cell_angle_beta 90.000000
_cell_angle_gamma 90.000000
_cell_volume 3901.320119
_symmetry_space_group_name_H-M "I B C A "
_symmetry_group_IT_number 73
_symmetry_cell_setting 'orthorhombic'
loop_
_space_group_symop_operation_xyz
x,y,z
-x,1/2-y,z
x,-y,1/2-z
1/2-x,y,-z
-x,-y,-z
x,1/2+y,-z
-x,y,1/2+z
1/2+x,-y,z
1/2+x,1/2+y,1/2+z
1/2-x,-y,1/2+z
1/2+x,1/2-y,-z
-x,1/2+y,1/2-z
1/2-x,1/2-y,1/2-z
1/2+x,y,1/2-z
1/2-x,1/2+y,z
x,1/2-y,1/2+z
loop_
_atom_site_type_symbol
_atom_site_label
_atom_site_fract_x
_atom_site_fract_y
_atom_site_fract_z
Si Si1 0.968292 0.500000 0.250000
Si Si2 0.551750 0.669588 0.410807
Si Si3 0.193621 0.167118 0.771157
Si Si4 0.000000 0.750000 0.852511
Si Si5 0.060581 0.075860 0.519953
Si Si6 0.208807 0.442500 0.153239
Si Si7 0.250000 0.263071 0.000000
O O1 0.016267 0.540723 0.354709
O O2 0.925980 0.462407 0.370076
O O3 0.625706 0.643443 0.365170
O O4 0.530737 0.701905 0.256539
O O5 0.555633 0.718599 0.539352
O O6 0.490000 0.627117 0.463988
O O7 0.241643 0.110319 0.749639
O O8 0.198487 0.197090 0.602763
O O9 0.214765 0.219872 0.880005
O O10 0.135245 0.085342 0.596415
O O11 0.198176 0.500000 0.250000
O O12 0.250000 0.456100 0.000000
#
# Coordination Sequence:
#
# PCOD9531854 Si02
#       7
#     8  16  16   8  16  16   8
#     4  10  22  40  66  98 130 178 222 284 360 410
#     4  11  22  40  69  99 143 176 233 288 364 425
#     4  11  23  46  70 104 135 192 233 301 355 440
#     4  10  22  38  58 110 132 182 216 288 354 424
#     4  11  23  44  67 100 135 180 230 296 352 434
#     4  12  28  49  70 101 147 193 251 305 370 456
#     4  10  24  46  72 102 144 186 248 290 362 436
#
# _framework density 22.556466
#
# number of rings (size 3 to 8) (size 9 to 14) (size 15 to 20)
#    0.000    1.091    1.818    4.364    5.091    1.455 
#    6.545    0.000    0.000    0.000    0.000    0.000 
#    0.000    0.000    0.000    0.000    0.000    0.000 
#
# Total GULP energy -245363.831268 kJ/mol
# GULP energy per Si atom -5576.450711 kJ/mol
# Density = 2.250513 g / cm^3
# Si number density = 22.556466 Si / 1000 Ang^3
#
#
#
# Elastic Constant Matrix: (Units=GPa)
#
#
# Indices 1 2 3 4 5 6 
#
# 1 41.5397 29.0614 13.7566 0.0000 0.0000 0.0000
# 2 29.0614 137.1113 61.8310 0.0000 0.0000 0.0000
# 3 13.7566 61.8310 137.8130 0.0000 0.0000 0.0000
# 4 0.0000 0.0000 0.0000 57.4556 0.0000 0.0000
# 5 0.0000 0.0000 0.0000 0.0000 17.6722 0.0000
# 6 0.0000 0.0000 0.0000 0.0000 0.0000 11.1707
#
#
#
# Elastic Compliance Matrix: (Units=1/GPa)
#
#
# Indices 1 2 3 4 5 6 
#
# 1 0.028268 -0.005916 -0.000167 0.000000 0.000000 0.000000
# 2 -0.005916 0.010381 -0.004067 0.000000 0.000000 0.000000
# 3 -0.000167 -0.004067 0.009098 0.000000 0.000000 0.000000
# 4 0.000000 0.000000 0.000000 0.017405 0.000000 0.000000
# 5 0.000000 0.000000 0.000000 0.000000 0.056586 0.000000
# 6 0.000000 0.000000 0.000000 0.000000 0.000000 0.089520
#
#
# Mechanical properties :
#
#
# Convention : Reuss Voigt Hill
#
# Bulk Modulus (GPa) = 36.43574 58.41798 47.42686
# Shear Modulus (GPa) = 20.77217 31.38071 26.07644
#
# Velocity S-wave (km/s) = 3.03792 3.73393 3.40376
# Velocity P-wave (km/s) = 5.33793 6.67416 6.04309
#
# Compressibility (1/GPa) = 0.02744558
#
# Stress axis : x y z
#
# Youngs Moduli (GPa) = 35.37617 96.32649 109.91802
#
# Poissons Ratio (x) = 0.56986 0.01841
# Poissons Ratio (y) = 0.20928 0.44705
# Poissons Ratio (z) = 0.00592 0.39177
#
# Static dielectric constant tensor:
#      x y z
#    x 1.548860 0.000000 0.000000 
#    y 0.000000 1.925910 0.000000 
#    z 0.000000 0.000000 1.846670 
# 
# From -- ./inp_files/6341.got.cif
#   From: 2010.05.17/outbox.cif.g08.bks.cpg/sg73_4_cif.got.tgz:6341.got - 2010.06.03 17:35:07.
