data_PCOD9531252
_publ_section_title
;
Structure prediction by ZEFSAII (Michael W. Deem and Ramdas Pophale) SiO2 
 PCOD9531252
Probable space group: I B C A 
;
_chemical_formula_sum "Si O2"
_cell_formula_units_Z 120
_cell_length_a 26.242411
_cell_length_b 12.704649
_cell_length_c 17.357106
_cell_angle_alpha 90.000000
_cell_angle_beta 90.000000
_cell_angle_gamma 90.000000
_cell_volume 5786.869913
_symmetry_space_group_name_H-M "I B C A "
_symmetry_group_IT_number 73
_symmetry_cell_setting 'orthorhombic'
loop_
_space_group_symop_operation_xyz
x,y,z
-x,1/2-y,z
x,-y,1/2-z
1/2-x,y,-z
-x,-y,-z
x,1/2+y,-z
-x,y,1/2+z
1/2+x,-y,z
1/2+x,1/2+y,1/2+z
1/2-x,-y,1/2+z
1/2+x,1/2-y,-z
-x,1/2+y,1/2-z
1/2-x,1/2-y,1/2-z
1/2+x,y,1/2-z
1/2-x,1/2+y,z
x,1/2-y,1/2+z
loop_
_atom_site_type_symbol
_atom_site_label
_atom_site_fract_x
_atom_site_fract_y
_atom_site_fract_z
Si Si1 0.444901 0.228368 0.881732
Si Si2 0.780386 0.032354 0.079357
Si Si3 0.811113 0.940956 0.827291
Si Si4 0.367323 0.000000 0.250000
Si Si5 0.557184 0.779225 0.436675
Si Si6 0.909394 0.490924 0.075673
Si Si7 0.114026 0.072617 0.909211
Si Si8 0.834767 0.701809 0.825177
O O1 0.500000 0.250000 0.846617
O O2 0.441804 0.102430 0.888239
O O3 0.394132 0.270696 0.840871
O O4 0.442360 0.272840 0.969632
O O5 0.741169 0.991806 0.143537
O O6 0.826307 0.948529 0.076327
O O7 0.807310 0.142123 0.103602
O O8 0.750000 0.041434 0.000000
O O9 0.852804 0.965890 0.893355
O O10 0.809011 0.815228 0.812415
O O11 0.827791 0.000000 0.750000
O O12 0.397959 0.016773 0.171429
O O13 0.335369 0.108096 0.261885
O O14 0.500000 0.750000 0.412703
O O15 0.597025 0.692657 0.407570
O O16 0.572849 0.892728 0.406578
O O17 0.912683 0.477275 0.983527
#
# Coordination Sequence:
#
# PCOD9531252 Si02
#       8
#    16  16  16   8  16  16  16  16
#     4   9  20  39  68  94 125 167 210 272 328 389
#     4  11  23  42  65  98 128 172 217 272 318 381
#     4  11  26  43  65  95 132 177 216 264 330 389
#     4  10  22  40  66  88 132 174 206 274 320 376
#     4  10  21  36  66  99 123 166 215 268 326 387
#     4  10  21  41  64  93 130 165 216 268 322 382
#     4  10  22  40  62  92 129 166 213 264 320 382
#     4  10  24  44  63  96 133 170 218 267 327 384
#
# _framework density 20.736598000000001
#
# number of rings (size 3 to 8) (size 9 to 14) (size 15 to 20)
#    0.000    1.867    1.333    1.600    5.600    9.067 
#    0.000    0.667    7.333    0.800    0.000    0.000 
#    0.000    0.000    0.000    0.000    0.000    0.000 
#
# Total GULP energy -334876.841343 kJ/mol
# GULP energy per Si atom -5581.280689 kJ/mol
# Density = 2.068940 g / cm^3
# Si number density = 20.736598 Si / 1000 Ang^3
#
#
#
# Elastic Constant Matrix: (Units=GPa)
#
#
# Indices 1 2 3 4 5 6 
#
# 1 70.9827 52.9104 3.7492 0.0000 0.0000 0.0000
# 2 52.9104 191.3630 33.6739 0.0000 0.0000 0.0000
# 3 3.7492 33.6739 73.7341 0.0000 0.0000 0.0000
# 4 0.0000 0.0000 0.0000 16.7909 0.0000 0.0000
# 5 0.0000 0.0000 0.0000 0.0000 -1.0095 0.0000
# 6 0.0000 0.0000 0.0000 0.0000 0.0000 20.3553
#
#
#
# Elastic Compliance Matrix: (Units=1/GPa)
#
#
# Indices 1 2 3 4 5 6 
#
# 1 0.017890 -0.005205 0.001467 0.000000 0.000000 0.000000
# 2 -0.005205 0.007196 -0.003022 0.000000 0.000000 0.000000
# 3 0.001467 -0.003022 0.014868 0.000000 0.000000 0.000000
# 4 0.000000 0.000000 0.000000 0.059556 0.000000 0.000000
# 5 0.000000 0.000000 0.000000 0.000000 -0.990558 0.000000
# 6 0.000000 0.000000 0.000000 0.000000 0.000000 0.049127
#
#
# Mechanical properties :
#
#
# Convention : Reuss Voigt Hill
#
# Bulk Modulus (GPa) = 37.82785 57.41632 47.62208
# Shear Modulus (GPa) = -6.10061 23.61043 8.75491
#
# Velocity S-wave (km/s) = -1.71707 3.37796 2.05697
# Velocity P-wave (km/s) = 3.78821 6.55459 5.35319
#
# Compressibility (1/GPa) = 0.02643555
#
# Stress axis : x y z
#
# Youngs Moduli (GPa) = 55.89729 138.95683 67.25970
#
# Poissons Ratio (x) = 0.72322 -0.09869
# Poissons Ratio (y) = 0.29092 0.20326
# Poissons Ratio (z) = -0.08202 0.41992
#
# Static dielectric constant tensor:
#      x y z
#    x 1.740480 0.000000 0.000000 
#    y 0.000000 1.751100 0.000000 
#    z 0.000000 0.000000 1.771800 
# 
# From -- ./inp_files/23950.got.cif
#   From: 2010.05.17/outbox.cif.g08.bks.cpg/sg73_12_cif.got.tgz:23950.got - 2010.06.03 17:35:07.
