data_PCOD9531555
_publ_section_title
;
Structure prediction by ZEFSAII (Michael W. Deem and Ramdas Pophale) SiO2 
 PCOD9531555
Probable space group: I B C A 
;
_chemical_formula_sum "Si O2"
_cell_formula_units_Z 72
_cell_length_a 5.314190
_cell_length_b 19.534420
_cell_length_c 26.528822
_cell_angle_alpha 90.000000
_cell_angle_beta 90.000000
_cell_angle_gamma 90.000000
_cell_volume 2753.946915
_symmetry_space_group_name_H-M "I B C A "
_symmetry_group_IT_number 73
_symmetry_cell_setting 'orthorhombic'
loop_
_space_group_symop_operation_xyz
x,y,z
-x,1/2-y,z
x,-y,1/2-z
1/2-x,y,-z
-x,-y,-z
x,1/2+y,-z
-x,y,1/2+z
1/2+x,-y,z
1/2+x,1/2+y,1/2+z
1/2-x,-y,1/2+z
1/2+x,1/2-y,-z
-x,1/2+y,1/2-z
1/2-x,1/2-y,1/2-z
1/2+x,y,1/2-z
1/2-x,1/2+y,z
x,1/2-y,1/2+z
loop_
_atom_site_type_symbol
_atom_site_label
_atom_site_fract_x
_atom_site_fract_y
_atom_site_fract_z
Si Si1 0.500000 0.250000 0.134404
Si Si2 0.090086 0.971352 0.431576
Si Si3 0.164072 0.681584 0.941940
Si Si4 0.341465 0.524733 0.317747
Si Si5 0.799891 0.172128 0.216102
O O1 0.608056 0.308845 0.097690
O O2 0.719117 0.222819 0.171027
O O3 0.031500 0.890846 0.431723
O O4 0.365875 0.983993 0.453830
O O5 0.119338 0.000999 0.374973
O O6 0.000000 0.750000 0.935296
O O7 0.250000 0.680997 0.000000
O O8 0.626950 0.526723 0.297135
O O9 0.219961 0.598007 0.309532
O O10 0.570304 0.178228 0.256786
#
# Coordination Sequence:
#
# PCOD9531555 Si02
#       5
#     8  16  16  16  16
#     4  12  28  50  76 108 160 218 260 340 404 492
#     4  10  24  46  78 115 156 206 263 326 404 482
#     4  12  29  50  83 121 164 214 278 341 418 498
#     4  10  21  40  68 102 144 193 250 316 386 461
#     4  12  28  47  74 111 155 207 268 327 399 483
#
# _framework density 26.144296000000001
#
# number of rings (size 3 to 8) (size 9 to 14) (size 15 to 20)
#    0.000    0.889    1.111    4.667   12.444    3.556 
#    0.000    0.000    0.000    0.000    0.000    0.000 
#    0.000    0.000    0.000    0.000    0.000    0.000 
#
# Total GULP energy -201604.565549 kJ/mol
# GULP energy per Si atom -5600.126821 kJ/mol
# Density = 2.608479 g / cm^3
# Si number density = 26.144296 Si / 1000 Ang^3
#
#
#
# Elastic Constant Matrix: (Units=GPa)
#
#
# Indices 1 2 3 4 5 6 
#
# 1 164.2152 8.9535 31.4286 0.0000 0.0000 0.0000
# 2 8.9535 131.0405 22.7094 0.0000 0.0000 0.0000
# 3 31.4286 22.7094 169.6415 0.0000 0.0000 0.0000
# 4 0.0000 0.0000 0.0000 40.1726 0.0000 0.0000
# 5 0.0000 0.0000 0.0000 0.0000 156.0886 0.0000
# 6 0.0000 0.0000 0.0000 0.0000 0.0000 43.0135
#
#
#
# Elastic Compliance Matrix: (Units=1/GPa)
#
#
# Indices 1 2 3 4 5 6 
#
# 1 0.006320 -0.000234 -0.001140 0.000000 0.000000 0.000000
# 2 -0.000234 0.007821 -0.001004 0.000000 0.000000 0.000000
# 3 -0.001140 -0.001004 0.006240 0.000000 0.000000 0.000000
# 4 0.000000 0.000000 0.000000 0.024893 0.000000 0.000000
# 5 0.000000 0.000000 0.000000 0.000000 0.006407 0.000000
# 6 0.000000 0.000000 0.000000 0.000000 0.000000 0.023248
#
#
# Mechanical properties :
#
#
# Convention : Reuss Voigt Hill
#
# Bulk Modulus (GPa) = 63.99254 65.67558 64.83406
# Shear Modulus (GPa) = 58.89728 74.64199 66.76963
#
# Velocity S-wave (km/s) = 4.75149 5.34902 5.05908
# Velocity P-wave (km/s) = 7.39135 7.95766 7.67972
#
# Compressibility (1/GPa) = 0.01562682
#
# Stress axis : x y z
#
# Youngs Moduli (GPa) = 158.21657 127.85826 160.24992
#
# Poissons Ratio (x) = 0.02997 0.18262
# Poissons Ratio (y) = 0.03708 0.16082
# Poissons Ratio (z) = 0.18030 0.12832
#
# Static dielectric constant tensor:
#      x y z
#    x 2.200760 0.000000 0.000000 
#    y 0.000000 2.036630 0.000000 
#    z 0.000000 0.000000 1.754130 
# 
# From -- ./inp_files/30858.got.cif
#   From: 2010.05.17/outbox.cif.g08.bks.cpg/sg73_16_cif.got.tgz:30858.got - 2010.06.03 17:35:07.
