data_PCOD9531520
_publ_section_title
;
Structure prediction by ZEFSAII (Michael W. Deem and Ramdas Pophale) SiO2 
 PCOD9531520
Probable space group: I B C A 
;
_chemical_formula_sum "Si O2"
_cell_formula_units_Z 120
_cell_length_a 18.694596
_cell_length_b 18.047601
_cell_length_c 14.738647
_cell_angle_alpha 90.000000
_cell_angle_beta 90.000000
_cell_angle_gamma 90.000000
_cell_volume 4972.710571
_symmetry_space_group_name_H-M "I B C A "
_symmetry_group_IT_number 73
_symmetry_cell_setting 'orthorhombic'
loop_
_space_group_symop_operation_xyz
x,y,z
-x,1/2-y,z
x,-y,1/2-z
1/2-x,y,-z
-x,-y,-z
x,1/2+y,-z
-x,y,1/2+z
1/2+x,-y,z
1/2+x,1/2+y,1/2+z
1/2-x,-y,1/2+z
1/2+x,1/2-y,-z
-x,1/2+y,1/2-z
1/2-x,1/2-y,1/2-z
1/2+x,y,1/2-z
1/2-x,1/2+y,z
x,1/2-y,1/2+z
loop_
_atom_site_type_symbol
_atom_site_label
_atom_site_fract_x
_atom_site_fract_y
_atom_site_fract_z
Si Si1 0.427057 0.206261 0.809381
Si Si2 0.455791 0.912736 0.403182
Si Si3 0.213402 0.931314 0.596313
Si Si4 0.729564 0.213578 0.345553
Si Si5 0.321356 0.533852 0.350356
Si Si6 0.860699 0.296998 0.389983
Si Si7 0.545802 0.948058 0.107133
Si Si8 0.500000 0.250000 0.093795
O O1 0.500000 0.250000 0.828049
O O2 0.353996 0.222997 0.865063
O O3 0.398933 0.222130 0.707107
O O4 0.444917 0.119997 0.825204
O O5 0.370583 0.920019 0.397008
O O6 0.477621 0.916296 0.509707
O O7 0.479741 0.832680 0.367406
O O8 0.494652 0.984838 0.362200
O O9 0.250000 0.913256 0.500000
O O10 0.252282 0.873016 0.662607
O O11 0.240777 0.012638 0.622849
O O12 0.750000 0.250000 0.250000
O O13 0.790093 0.249734 0.408729
O O14 0.334416 0.500000 0.250000
O O15 0.339246 0.618050 0.374353
O O16 0.377224 0.485957 0.409143
O O17 0.925657 0.273404 0.455405
#
# Coordination Sequence:
#
# PCOD9531520 Si02
#       8
#    16  16  16  16  16  16  16   8
#     4  11  22  39  66  93 133 175 221 276 344 402
#     4  11  25  42  68  98 134 175 234 276 342 413
#     4  12  23  44  71  95 134 185 224 275 350 415
#     4  10  21  40  63  93 129 172 225 279 332 407
#     4  12  22  41  68  96 132 180 222 276 346 407
#     4  11  22  38  64  95 128 170 222 275 342 401
#     4  11  23  43  65  95 133 179 222 282 334 412
#     4  12  22  38  66  98 126 172 218 280 334 408
#
# _framework density 24.131708
#
# number of rings (size 3 to 8) (size 9 to 14) (size 15 to 20)
#    0.000    0.800    7.333    0.800    0.933    1.067 
#    0.000    2.667    0.000    0.000    0.000    0.000 
#    0.000    0.000    0.000    0.000    0.000    0.000 
#
# Total GULP energy -334952.987196 kJ/mol
# GULP energy per Si atom -5582.549787 kJ/mol
# Density = 2.407678 g / cm^3
# Si number density = 24.131708 Si / 1000 Ang^3
#
#
#
# Elastic Constant Matrix: (Units=GPa)
#
#
# Indices 1 2 3 4 5 6 
#
# 1 244.2651 100.4147 15.1799 0.0000 0.0000 0.0000
# 2 100.4147 173.6631 14.6016 0.0000 0.0000 0.0000
# 3 15.1799 14.6016 49.4605 0.0000 0.0000 0.0000
# 4 0.0000 0.0000 0.0000 20.3856 0.0000 0.0000
# 5 0.0000 0.0000 0.0000 0.0000 20.5884 0.0000
# 6 0.0000 0.0000 0.0000 0.0000 0.0000 58.3227
#
#
#
# Elastic Compliance Matrix: (Units=1/GPa)
#
#
# Indices 1 2 3 4 5 6 
#
# 1 0.005398 -0.003058 -0.000754 0.000000 0.000000 0.000000
# 2 -0.003058 0.007637 -0.001316 0.000000 0.000000 0.000000
# 3 -0.000754 -0.001316 0.020838 0.000000 0.000000 0.000000
# 4 0.000000 0.000000 0.000000 0.049054 0.000000 0.000000
# 5 0.000000 0.000000 0.000000 0.000000 0.048571 0.000000
# 6 0.000000 0.000000 0.000000 0.000000 0.000000 0.017146
#
#
# Mechanical properties :
#
#
# Convention : Reuss Voigt Hill
#
# Bulk Modulus (GPa) = 42.34186 80.86456 61.60321
# Shear Modulus (GPa) = 29.98105 42.33883 36.15994
#
# Velocity S-wave (km/s) = 3.52858 4.19321 3.87517
# Velocity P-wave (km/s) = 5.84683 7.55158 6.75322
#
# Compressibility (1/GPa) = 0.02361729
#
# Stress axis : x y z
#
# Youngs Moduli (GPa) = 185.26272 130.94270 47.98903
#
# Poissons Ratio (x) = 0.40038 0.03618
# Poissons Ratio (y) = 0.56647 0.06316
# Poissons Ratio (z) = 0.13968 0.17234
#
# Static dielectric constant tensor:
#      x y z
#    x 2.058120 0.000000 0.000000 
#    y 0.000000 1.903130 0.000000 
#    z 0.000000 0.000000 2.100220 
# 
# From -- ./inp_files/22695.got.cif
#   From: 2010.05.17/outbox.cif.g08.bks.cpg/sg73_12_cif.got.tgz:22695.got - 2010.06.03 17:35:07.
