data_PCOD9531216
_publ_section_title
;
Structure prediction by ZEFSAII (Michael W. Deem and Ramdas Pophale) SiO2 
 PCOD9531216
Probable space group: I B C A 
;
_chemical_formula_sum "Si O2"
_cell_formula_units_Z 104
_cell_length_a 28.849080
_cell_length_b 19.742094
_cell_length_c 9.366116
_cell_angle_alpha 90.000000
_cell_angle_beta 90.000000
_cell_angle_gamma 90.000000
_cell_volume 5334.389407
_symmetry_space_group_name_H-M "I B C A "
_symmetry_group_IT_number 73
_symmetry_cell_setting 'orthorhombic'
loop_
_space_group_symop_operation_xyz
x,y,z
-x,1/2-y,z
x,-y,1/2-z
1/2-x,y,-z
-x,-y,-z
x,1/2+y,-z
-x,y,1/2+z
1/2+x,-y,z
1/2+x,1/2+y,1/2+z
1/2-x,-y,1/2+z
1/2+x,1/2-y,-z
-x,1/2+y,1/2-z
1/2-x,1/2-y,1/2-z
1/2+x,y,1/2-z
1/2-x,1/2+y,z
x,1/2-y,1/2+z
loop_
_atom_site_type_symbol
_atom_site_label
_atom_site_fract_x
_atom_site_fract_y
_atom_site_fract_z
Si Si1 0.750000 0.750368 0.500000
Si Si2 0.097541 0.285459 0.259058
Si Si3 0.615467 0.920649 0.237510
Si Si4 0.464523 0.108524 0.343938
Si Si5 0.471658 0.552844 0.379532
Si Si6 0.057342 0.828255 0.440422
Si Si7 0.812580 0.199041 0.750593
O O1 0.780275 0.794036 0.610935
O O2 0.783239 0.707302 0.394891
O O3 0.083842 0.354210 0.175525
O O4 0.070511 0.225238 0.181441
O O5 0.076466 0.296196 0.415345
O O6 0.150475 0.261250 0.258514
O O7 0.576577 0.905620 0.358382
O O8 0.587188 0.896505 0.095275
O O9 0.658366 0.870157 0.250739
O O10 0.628789 0.000000 0.250000
O O11 0.469258 0.043435 0.449402
O O12 0.484660 0.092305 0.187092
O O13 0.503070 0.156235 0.419185
O O14 0.464015 0.500000 0.250000
#
# Coordination Sequence:
#
# PCOD9531216 Si02
#       7
#     8  16  16  16  16  16  16
#     4  10  22  40  64  92 116 138 186 252 326 392
#     4  11  22  35  58  87 122 155 206 251 311 355
#     4   9  20  38  62  85 119 160 206 238 294 360
#     4  11  21  34  53  81 121 162 209 254 283 341
#     4  10  21  36  54  79 119 172 210 240 288 341
#     4  10  22  35  55  87 122 165 205 254 294 342
#     4  10  21  39  63  89 115 150 188 248 317 379
#
# _framework density 19.496138999999999
#
# number of rings (size 3 to 8) (size 9 to 14) (size 15 to 20)
#    0.000    1.846    1.538    2.769    8.615    1.231 
#    0.000    0.769    0.000    0.000    0.000    0.000 
#    0.000    0.000    0.000    0.000    0.000    0.000 
#
# Total GULP energy -289522.234450 kJ/mol
# GULP energy per Si atom -5567.735278 kJ/mol
# Density = 1.945177 g / cm^3
# Si number density = 19.496139 Si / 1000 Ang^3
#
#
#
# Elastic Constant Matrix: (Units=GPa)
#
#
# Indices 1 2 3 4 5 6 
#
# 1 91.4166 33.7798 25.4573 0.0000 0.0000 0.0000
# 2 33.7798 87.9750 35.0994 0.0000 0.0000 0.0000
# 3 25.4573 35.0994 139.0939 0.0000 0.0000 0.0000
# 4 0.0000 0.0000 0.0000 27.7314 0.0000 0.0000
# 5 0.0000 0.0000 0.0000 0.0000 -47.3990 0.0000
# 6 0.0000 0.0000 0.0000 0.0000 0.0000 12.5498
#
#
#
# Elastic Compliance Matrix: (Units=1/GPa)
#
#
# Indices 1 2 3 4 5 6 
#
# 1 0.012937 -0.004473 -0.001239 0.000000 0.000000 0.000000
# 2 -0.004473 0.014186 -0.002761 0.000000 0.000000 0.000000
# 3 -0.001239 -0.002761 0.008113 0.000000 0.000000 0.000000
# 4 0.000000 0.000000 0.000000 0.036060 0.000000 0.000000
# 5 0.000000 0.000000 0.000000 0.000000 -0.021097 0.000000
# 6 0.000000 0.000000 0.000000 0.000000 0.000000 0.079683
#
#
# Mechanical properties :
#
#
# Convention : Reuss Voigt Hill
#
# Bulk Modulus (GPa) = 54.67621 56.35093 55.51357
# Shear Modulus (GPa) = 32.69604 13.51969 23.10787
#
# Velocity S-wave (km/s) = 4.09963 2.63621 3.44649
# Velocity P-wave (km/s) = 7.10737 6.18325 6.66135
#
# Compressibility (1/GPa) = 0.01828949
#
# Stress axis : x y z
#
# Youngs Moduli (GPa) = 77.29880 70.49223 123.26063
#
# Poissons Ratio (x) = 0.31531 0.15272
# Poissons Ratio (y) = 0.34576 0.34033
# Poissons Ratio (z) = 0.09577 0.19463
#
# Static dielectric constant tensor:
#      x y z
#    x 1.727080 0.000000 0.000000 
#    y 0.000000 1.848880 0.000000 
#    z 0.000000 0.000000 1.750040 
# 
# From -- ./inp_files/8479.got.cif
#   From: 2010.05.17/outbox.cif.g08.bks.cpg/sg73_5_cif.got.tgz:8479.got - 2010.06.03 17:35:07.
