data_PCOD9531891
_publ_section_title
;
Structure prediction by ZEFSAII (Michael W. Deem and Ramdas Pophale) SiO2 
 PCOD9531891
Probable space group: I B C A 
;
_chemical_formula_sum "Si O2"
_cell_formula_units_Z 48
_cell_length_a 17.300475
_cell_length_b 9.243298
_cell_length_c 12.424394
_cell_angle_alpha 90.000000
_cell_angle_beta 90.000000
_cell_angle_gamma 90.000000
_cell_volume 1986.827659
_symmetry_space_group_name_H-M "I B C A "
_symmetry_group_IT_number 73
_symmetry_cell_setting 'orthorhombic'
loop_
_space_group_symop_operation_xyz
x,y,z
-x,1/2-y,z
x,-y,1/2-z
1/2-x,y,-z
-x,-y,-z
x,1/2+y,-z
-x,y,1/2+z
1/2+x,-y,z
1/2+x,1/2+y,1/2+z
1/2-x,-y,1/2+z
1/2+x,1/2-y,-z
-x,1/2+y,1/2-z
1/2-x,1/2-y,1/2-z
1/2+x,y,1/2-z
1/2-x,1/2+y,z
x,1/2-y,1/2+z
loop_
_atom_site_type_symbol
_atom_site_label
_atom_site_fract_x
_atom_site_fract_y
_atom_site_fract_z
Si Si1 0.500000 0.750000 0.245498
Si Si2 0.113571 0.500000 0.750000
Si Si3 0.834432 0.142136 0.971837
Si Si4 0.930783 0.914692 0.060803
O O1 0.436506 0.636062 0.201138
O O2 0.544006 0.636290 0.322256
O O3 0.157835 0.428857 0.852096
O O4 0.899934 0.263225 0.984506
O O5 0.750000 0.198358 0.000000
O O6 0.857824 0.019212 0.056292
O O7 0.000000 0.000000 0.000000
#
# Coordination Sequence:
#
# PCOD9531891 Si02
#       4
#     8   8  16  16
#     4  10  22  38  66 104 128 184 250 292 336 404
#     4  10  22  42  68 100 144 178 242 286 348 412
#     4  11  24  41  66 101 145 185 230 285 358 424
#     4  11  19  41  68  93 129 182 240 282 345 408
#
# _framework density 24.159113999999999
#
# number of rings (size 3 to 8) (size 9 to 14) (size 15 to 20)
#    0.000    1.333    6.667    1.000    0.000    4.000 
#    0.000   16.667    0.000    0.000    0.000    0.000 
#    0.000    0.000    0.000    0.000    0.000    0.000 
#
# Total GULP energy -133832.904013 kJ/mol
# GULP energy per Si atom -5576.371001 kJ/mol
# Density = 2.410413 g / cm^3
# Si number density = 24.159114 Si / 1000 Ang^3
#
#
#
# Elastic Constant Matrix: (Units=GPa)
#
#
# Indices 1 2 3 4 5 6 
#
# 1 94.5542 37.4970 45.5809 0.0000 0.0000 0.0000
# 2 37.4970 146.8614 45.8985 0.0000 0.0000 0.0000
# 3 45.5809 45.8985 108.8760 0.0000 0.0000 0.0000
# 4 0.0000 0.0000 0.0000 44.9318 0.0000 0.0000
# 5 0.0000 0.0000 0.0000 0.0000 20.2220 0.0000
# 6 0.0000 0.0000 0.0000 0.0000 0.0000 40.9549
#
#
#
# Elastic Compliance Matrix: (Units=1/GPa)
#
#
# Indices 1 2 3 4 5 6 
#
# 1 0.013727 -0.001968 -0.004917 0.000000 0.000000 0.000000
# 2 -0.001968 0.008125 -0.002601 0.000000 0.000000 0.000000
# 3 -0.004917 -0.002601 0.012340 0.000000 0.000000 0.000000
# 4 0.000000 0.000000 0.000000 0.022256 0.000000 0.000000
# 5 0.000000 0.000000 0.000000 0.000000 0.049451 0.000000
# 6 0.000000 0.000000 0.000000 0.000000 0.000000 0.024417
#
#
# Mechanical properties :
#
#
# Convention : Reuss Voigt Hill
#
# Bulk Modulus (GPa) = 65.70854 67.58271 66.64563
# Shear Modulus (GPa) = 32.39170 35.97609 34.18389
#
# Velocity S-wave (km/s) = 3.66562 3.86311 3.76566
# Velocity P-wave (km/s) = 6.72108 6.92336 6.82297
#
# Compressibility (1/GPa) = 0.01521872
#
# Stress axis : x y z
#
# Youngs Moduli (GPa) = 72.85074 123.08383 81.03848
#
# Poissons Ratio (x) = 0.24223 0.39847
# Poissons Ratio (y) = 0.14337 0.21079
# Poissons Ratio (z) = 0.35821 0.32016
#
# Static dielectric constant tensor:
#      x y z
#    x 2.085140 0.000000 0.000000 
#    y 0.000000 6.329300 0.000000 
#    z 0.000000 0.000000 2.030610 
# 
# From -- ./inp_files/4340.got.cif
#   From: 2010.05.17/outbox.cif.g08.bks.cpg/sg73_3_cif.got.tgz:4340.got - 2010.06.03 17:35:07.
