data_PCOD9531363
_publ_section_title
;
Structure prediction by ZEFSAII (Michael W. Deem and Ramdas Pophale) SiO2 
 PCOD9531363
Probable space group: I B C A 
;
_chemical_formula_sum "Si O2"
_cell_formula_units_Z 80
_cell_length_a 23.484128
_cell_length_b 9.797831
_cell_length_c 13.367646
_cell_angle_alpha 90.000000
_cell_angle_beta 90.000000
_cell_angle_gamma 90.000000
_cell_volume 3075.808687
_symmetry_space_group_name_H-M "I B C A "
_symmetry_group_IT_number 73
_symmetry_cell_setting 'orthorhombic'
loop_
_space_group_symop_operation_xyz
x,y,z
-x,1/2-y,z
x,-y,1/2-z
1/2-x,y,-z
-x,-y,-z
x,1/2+y,-z
-x,y,1/2+z
1/2+x,-y,z
1/2+x,1/2+y,1/2+z
1/2-x,-y,1/2+z
1/2+x,1/2-y,-z
-x,1/2+y,1/2-z
1/2-x,1/2-y,1/2-z
1/2+x,y,1/2-z
1/2-x,1/2+y,z
x,1/2-y,1/2+z
loop_
_atom_site_type_symbol
_atom_site_label
_atom_site_fract_x
_atom_site_fract_y
_atom_site_fract_z
Si Si1 0.049476 0.160487 0.757372
Si Si2 0.557222 0.416221 0.028047
Si Si3 0.367741 0.168407 0.485850
Si Si4 0.769002 0.666050 0.396188
Si Si5 0.163295 0.195701 0.289331
O O1 0.044079 0.171697 0.875844
O O2 0.112653 0.215520 0.740601
O O3 0.000000 0.250000 0.707105
O O4 0.039606 0.000000 0.750000
O O5 0.591595 0.300779 0.966456
O O6 0.500000 0.500000 0.000000
O O7 0.603015 0.533106 0.055100
O O8 0.306601 0.208744 0.440928
O O9 0.361441 0.136551 0.605888
O O10 0.750000 0.591047 0.500000
O O11 0.712570 0.709200 0.336736
O O12 0.809103 0.615671 0.305070
#
# Coordination Sequence:
#
# PCOD9531363 Si02
#       5
#    16  16  16  16  16
#     4  11  24  42  66  96 134 178 228 293 361 434
#     4  11  22  40  62  91 132 180 231 286 349 417
#     4  10  21  38  63  93 130 177 228 288 350 414
#     4   9  18  37  65  93 127 173 221 278 351 424
#     4   9  19  39  61  93 132 169 221 284 346 417
#
# _framework density 26.009419000000001
#
# number of rings (size 3 to 8) (size 9 to 14) (size 15 to 20)
#    0.000    2.000    0.000    4.200    0.000    3.200 
#    0.000   22.000    0.000    6.000    0.000    0.000 
#    0.000    0.000    0.000    0.000    0.000    0.000 
#
# Total GULP energy -222908.880126 kJ/mol
# GULP energy per Si atom -5572.722003 kJ/mol
# Density = 2.595022 g / cm^3
# Si number density = 26.009419 Si / 1000 Ang^3
#
#
#
# Elastic Constant Matrix: (Units=GPa)
#
#
# Indices 1 2 3 4 5 6 
#
# 1 174.4311 78.7208 52.3744 0.0000 0.0000 0.0000
# 2 78.7208 121.5618 26.2554 0.0000 0.0000 0.0000
# 3 52.3744 26.2554 142.7078 0.0000 0.0000 0.0000
# 4 0.0000 0.0000 0.0000 29.9841 0.0000 0.0000
# 5 0.0000 0.0000 0.0000 0.0000 19.4478 0.0000
# 6 0.0000 0.0000 0.0000 0.0000 0.0000 3.3863
#
#
#
# Elastic Compliance Matrix: (Units=1/GPa)
#
#
# Indices 1 2 3 4 5 6 
#
# 1 0.008747 -0.005177 -0.002258 0.000000 0.000000 0.000000
# 2 -0.005177 0.011630 -0.000240 0.000000 0.000000 0.000000
# 3 -0.002258 -0.000240 0.007880 0.000000 0.000000 0.000000
# 4 0.000000 0.000000 0.000000 0.033351 0.000000 0.000000
# 5 0.000000 0.000000 0.000000 0.000000 0.051420 0.000000
# 6 0.000000 0.000000 0.000000 0.000000 0.000000 0.295305
#
#
# Mechanical properties :
#
#
# Convention : Reuss Voigt Hill
#
# Bulk Modulus (GPa) = 77.46698 83.71132 80.58915
# Shear Modulus (GPa) = 11.68265 29.32033 20.50149
#
# Velocity S-wave (km/s) = 2.12166 3.36117 2.81059
# Velocity P-wave (km/s) = 5.98755 6.87882 6.44860
#
# Compressibility (1/GPa) = 0.01290872
#
# Stress axis : x y z
#
# Youngs Moduli (GPa) = 114.32297 85.98107 126.90228
#
# Poissons Ratio (x) = 0.44511 0.28652
# Poissons Ratio (y) = 0.59183 0.03044
# Poissons Ratio (z) = 0.25812 0.02062
#
# Static dielectric constant tensor:
#      x y z
#    x 2.136780 0.000000 0.000000 
#    y 0.000000 2.184690 0.000000 
#    z 0.000000 0.000000 1.662050 
# 
# From -- ./inp_files/19175.got.cif
#   From: 2010.05.17/outbox.cif.g08.bks.cpg/sg73_10_cif.got.tgz:19175.got - 2010.06.03 17:35:07.
