data_PCOD9531138
_publ_section_title
;
Structure prediction by ZEFSAII (Michael W. Deem and Ramdas Pophale) SiO2 
 PCOD9531138
Probable space group: I B C A 
;
_chemical_formula_sum "Si O2"
_cell_formula_units_Z 112
_cell_length_a 28.309760
_cell_length_b 13.252104
_cell_length_c 12.877214
_cell_angle_alpha 90.000000
_cell_angle_beta 90.000000
_cell_angle_gamma 90.000000
_cell_volume 4831.065616
_symmetry_space_group_name_H-M "I B C A "
_symmetry_group_IT_number 73
_symmetry_cell_setting 'orthorhombic'
loop_
_space_group_symop_operation_xyz
x,y,z
-x,1/2-y,z
x,-y,1/2-z
1/2-x,y,-z
-x,-y,-z
x,1/2+y,-z
-x,y,1/2+z
1/2+x,-y,z
1/2+x,1/2+y,1/2+z
1/2-x,-y,1/2+z
1/2+x,1/2-y,-z
-x,1/2+y,1/2-z
1/2-x,1/2-y,1/2-z
1/2+x,y,1/2-z
1/2-x,1/2+y,z
x,1/2-y,1/2+z
loop_
_atom_site_type_symbol
_atom_site_label
_atom_site_fract_x
_atom_site_fract_y
_atom_site_fract_z
Si Si1 0.518432 0.099707 0.444922
Si Si2 0.848720 0.562748 0.588700
Si Si3 0.868638 0.203480 0.915244
Si Si4 0.583003 0.675626 0.725100
Si Si5 0.000000 0.750000 0.624328
Si Si6 0.705766 0.441848 0.571379
Si Si7 0.768592 0.500000 0.750000
Si Si8 0.916358 0.376040 0.611608
O O1 0.563256 0.107128 0.368575
O O2 0.523913 0.173122 0.543000
O O3 0.472672 0.124992 0.374366
O O4 0.500000 0.000000 0.500000
O O5 0.867786 0.676318 0.589744
O O6 0.831220 0.526046 0.473559
O O7 0.804795 0.554003 0.669568
O O8 0.888882 0.481240 0.623825
O O9 0.876781 0.145353 0.806026
O O10 0.818828 0.163484 0.955842
O O11 0.906775 0.159295 0.994422
O O12 0.538945 0.699358 0.801836
O O13 0.600915 0.782600 0.679870
O O14 0.750000 0.460615 0.500000
O O15 0.731012 0.436577 0.682559
#
# Coordination Sequence:
#
# PCOD9531138 Si02
#       8
#    16  16  16  16   8  16   8  16
#     4  12  26  44  66  95 133 184 226 287 343 399
#     4  10  23  41  67  99 133 179 217 282 353 408
#     4  11  24  43  68 100 137 181 229 288 341 413
#     4  12  23  44  67  93 134 178 232 282 336 402
#     4  12  22  48  62  94 132 174 236 278 330 408
#     4   9  22  43  69  99 139 173 218 281 343 422
#     4  10  20  44  64 100 136 166 230 270 342 434
#     4  11  23  43  61  96 136 172 230 284 338 406
#
# _framework density 23.18329
#
# number of rings (size 3 to 8) (size 9 to 14) (size 15 to 20)
#    0.000    1.143    4.286    0.857    4.000    4.000 
#    2.571    0.000    0.000    0.000    0.000    0.000 
#    0.000    0.000    0.000    0.000    0.000    0.000 
#
# Total GULP energy -312276.988515 kJ/mol
# GULP energy per Si atom -5576.374795 kJ/mol
# Density = 2.313052 g / cm^3
# Si number density = 23.183290 Si / 1000 Ang^3
#
#
#
# Elastic Constant Matrix: (Units=GPa)
#
#
# Indices 1 2 3 4 5 6 
#
# 1 85.7805 24.6273 6.8970 0.0000 0.0000 0.0000
# 2 24.6273 95.2163 32.8374 0.0000 0.0000 0.0000
# 3 6.8970 32.8374 93.2214 0.0000 0.0000 0.0000
# 4 0.0000 0.0000 0.0000 12.5915 0.0000 0.0000
# 5 0.0000 0.0000 0.0000 0.0000 4.1570 0.0000
# 6 0.0000 0.0000 0.0000 0.0000 0.0000 28.7141
#
#
#
# Elastic Compliance Matrix: (Units=1/GPa)
#
#
# Indices 1 2 3 4 5 6 
#
# 1 0.012598 -0.003343 0.000246 0.000000 0.000000 0.000000
# 2 -0.003343 0.012842 -0.004276 0.000000 0.000000 0.000000
# 3 0.000246 -0.004276 0.012215 0.000000 0.000000 0.000000
# 4 0.000000 0.000000 0.000000 0.079418 0.000000 0.000000
# 5 0.000000 0.000000 0.000000 0.000000 0.240556 0.000000
# 6 0.000000 0.000000 0.000000 0.000000 0.000000 0.034826
#
#
# Mechanical properties :
#
#
# Convention : Reuss Voigt Hill
#
# Bulk Modulus (GPa) = 43.65401 44.77128 44.21265
# Shear Modulus (GPa) = 12.05289 23.08295 17.56792
#
# Velocity S-wave (km/s) = 2.28260 3.15885 2.75577
# Velocity P-wave (km/s) = 5.08112 5.71474 5.40722
#
# Compressibility (1/GPa) = 0.02290740
#
# Stress axis : x y z
#
# Youngs Moduli (GPa) = 79.37960 77.87069 81.86465
#
# Poissons Ratio (x) = 0.26032 -0.02010
# Poissons Ratio (y) = 0.26537 0.35007
# Poissons Ratio (z) = -0.01949 0.33299
#
# Static dielectric constant tensor:
#      x y z
#    x 2.054800 0.000000 0.000000 
#    y 0.000000 1.878860 0.000000 
#    z 0.000000 0.000000 1.993320 
# 
# From -- ./inp_files/14850.got.cif
#   From: 2010.05.17/outbox.cif.g08.bks.cpg/sg73_8_cif.got.tgz:14850.got - 2010.06.03 17:35:07.
