data_PCOD9531464
_publ_section_title
;
Structure prediction by ZEFSAII (Michael W. Deem and Ramdas Pophale) SiO2 
 PCOD9531464
Probable space group: I B C A 
;
_chemical_formula_sum "Si O2"
_cell_formula_units_Z 40
_cell_length_a 5.245240
_cell_length_b 13.364469
_cell_length_c 25.397532
_cell_angle_alpha 90.000000
_cell_angle_beta 90.000000
_cell_angle_gamma 90.000000
_cell_volume 1780.363117
_symmetry_space_group_name_H-M "I B C A "
_symmetry_group_IT_number 73
_symmetry_cell_setting 'orthorhombic'
loop_
_space_group_symop_operation_xyz
x,y,z
-x,1/2-y,z
x,-y,1/2-z
1/2-x,y,-z
-x,-y,-z
x,1/2+y,-z
-x,y,1/2+z
1/2+x,-y,z
1/2+x,1/2+y,1/2+z
1/2-x,-y,1/2+z
1/2+x,1/2-y,-z
-x,1/2+y,1/2-z
1/2-x,1/2-y,1/2-z
1/2+x,y,1/2-z
1/2-x,1/2+y,z
x,1/2-y,1/2+z
loop_
_atom_site_type_symbol
_atom_site_label
_atom_site_fract_x
_atom_site_fract_y
_atom_site_fract_z
Si Si1 0.500000 0.250000 0.535072
Si Si2 0.555765 0.931134 0.384198
Si Si3 0.798742 0.862644 0.729503
O O1 0.250000 0.269036 0.500000
O O2 0.444493 0.153837 0.571400
O O3 0.584786 0.875397 0.327961
O O4 0.296460 0.994540 0.388115
O O5 0.750000 0.750000 0.750000
O O6 0.511907 0.905218 0.730725
#
# Coordination Sequence:
#
# PCOD9531464 Si02
#       3
#     8  16  16
#     4  12  28  50  76 102 136 184 238 306 372 422
#     4  12  27  46  72 107 144 186 239 294 354 426
#     4  10  21  39  65  97 141 183 222 272 330 405
#
# _framework density 22.467327000000001
#
# number of rings (size 3 to 8) (size 9 to 14) (size 15 to 20)
#    0.000    0.800    0.000    7.200    0.000   16.000 
#    0.000    0.000    0.000    0.000    0.000    0.000 
#    0.000    0.000    0.000    0.000    0.000    0.000 
#
# Total GULP energy -111858.958664 kJ/mol
# GULP energy per Si atom -5592.947933 kJ/mol
# Density = 2.241619 g / cm^3
# Si number density = 22.467327 Si / 1000 Ang^3
#
#
#
# Elastic Constant Matrix: (Units=GPa)
#
#
# Indices 1 2 3 4 5 6 
#
# 1 212.0030 35.0401 59.7402 0.0000 0.0000 0.0000
# 2 35.0401 154.4984 59.6396 0.0000 0.0000 0.0000
# 3 59.7402 59.6396 153.0858 0.0000 0.0000 0.0000
# 4 0.0000 0.0000 0.0000 18.1142 0.0000 0.0000
# 5 0.0000 0.0000 0.0000 0.0000 35.4962 0.0000
# 6 0.0000 0.0000 0.0000 0.0000 0.0000 33.7603
#
#
#
# Elastic Compliance Matrix: (Units=1/GPa)
#
#
# Indices 1 2 3 4 5 6 
#
# 1 0.005329 -0.000478 -0.001894 0.000000 0.000000 0.000000
# 2 -0.000478 0.007661 -0.002798 0.000000 0.000000 0.000000
# 3 -0.001894 -0.002798 0.008361 0.000000 0.000000 0.000000
# 4 0.000000 0.000000 0.000000 0.055205 0.000000 0.000000
# 5 0.000000 0.000000 0.000000 0.000000 0.028172 0.000000
# 6 0.000000 0.000000 0.000000 0.000000 0.000000 0.029621
#
#
# Mechanical properties :
#
#
# Convention : Reuss Voigt Hill
#
# Bulk Modulus (GPa) = 90.80358 92.04744 91.42551
# Shear Modulus (GPa) = 33.70185 41.81865 37.76025
#
# Velocity S-wave (km/s) = 3.87723 4.31897 4.10405
# Velocity P-wave (km/s) = 7.78123 8.11971 7.95227
#
# Compressibility (1/GPa) = 0.01101278
#
# Stress axis : x y z
#
# Youngs Moduli (GPa) = 187.63531 130.53007 119.59727
#
# Poissons Ratio (x) = 0.06236 0.22648
# Poissons Ratio (y) = 0.08964 0.33466
# Poissons Ratio (z) = 0.35532 0.36525
#
# Static dielectric constant tensor:
#      x y z
#    x 1.939300 0.000000 0.000000 
#    y 0.000000 2.112950 0.000000 
#    z 0.000000 0.000000 1.800520 
# 
# From -- ./inp_files/488.got.cif
#   From: 2010.05.17/outbox.cif.g08.bks.cpg/sg73_1_cif.got.tgz:488.got - 2010.06.03 17:35:07.
