data_PCOD9531002
_publ_section_title
;
Structure prediction by ZEFSAII (Michael W. Deem and Ramdas Pophale) SiO2 
 PCOD9531002
Probable space group: I B C A 
;
_chemical_formula_sum "Si O2"
_cell_formula_units_Z 112
_cell_length_a 14.623271
_cell_length_b 14.659291
_cell_length_c 26.042099
_cell_angle_alpha 90.000000
_cell_angle_beta 90.000000
_cell_angle_gamma 90.000000
_cell_volume 5582.561036
_symmetry_space_group_name_H-M "I B C A "
_symmetry_group_IT_number 73
_symmetry_cell_setting 'orthorhombic'
loop_
_space_group_symop_operation_xyz
x,y,z
-x,1/2-y,z
x,-y,1/2-z
1/2-x,y,-z
-x,-y,-z
x,1/2+y,-z
-x,y,1/2+z
1/2+x,-y,z
1/2+x,1/2+y,1/2+z
1/2-x,-y,1/2+z
1/2+x,1/2-y,-z
-x,1/2+y,1/2-z
1/2-x,1/2-y,1/2-z
1/2+x,y,1/2-z
1/2-x,1/2+y,z
x,1/2-y,1/2+z
loop_
_atom_site_type_symbol
_atom_site_label
_atom_site_fract_x
_atom_site_fract_y
_atom_site_fract_z
Si Si1 0.549101 0.043234 0.200350
Si Si2 0.245233 0.628493 0.598828
Si Si3 0.377423 0.871477 0.350363
Si Si4 0.392299 0.264403 0.430505
Si Si5 0.312519 0.700592 0.292912
Si Si6 0.606632 0.771130 0.950093
Si Si7 0.689395 0.436888 0.869104
O O1 0.470197 0.079727 0.163688
O O2 0.618099 0.120411 0.222354
O O3 0.503031 0.000000 0.250000
O O4 0.610075 0.974414 0.167355
O O5 0.340289 0.668473 0.578350
O O6 0.243293 0.657147 0.659213
O O7 0.167978 0.686896 0.569288
O O8 0.219343 0.522477 0.595105
O O9 0.375219 0.776985 0.319743
O O10 0.370506 0.852196 0.411037
O O11 0.281370 0.917959 0.336748
O O12 0.500000 0.250000 0.420237
O O13 0.378503 0.289988 0.490218
O O14 0.345825 0.344706 0.396752
O O15 0.250000 0.750000 0.250000
O O16 0.500000 0.750000 0.942712
#
# Coordination Sequence:
#
# PCOD9531002 Si02
#       7
#    16  16  16  16  16  16  16
#     4  11  25  40  62 100 131 170 230 276 332 409
#     4  10  22  41  63  97 132 172 220 274 335 400
#     4  11  22  42  68  90 131 179 221 267 343 396
#     4  11  24  44  67  98 135 178 224 281 341 396
#     4  10  20  40  67  91 127 173 216 270 340 392
#     4  10  20  42  67  91 129 172 222 276 329 409
#     4  11  24  43  66  95 137 173 221 286 332 402
#
# _framework density 20.062477999999999
#
# number of rings (size 3 to 8) (size 9 to 14) (size 15 to 20)
#    0.000    1.429    2.857    4.286    2.000    2.857 
#    5.143    2.143    0.000    0.000    0.000    0.000 
#    0.000    0.000    0.000    0.000    0.000    0.000 
#
# Total GULP energy -312453.697054 kJ/mol
# GULP energy per Si atom -5579.530305 kJ/mol
# Density = 2.001681 g / cm^3
# Si number density = 20.062478 Si / 1000 Ang^3
#
#
#
# Elastic Constant Matrix: (Units=GPa)
#
#
# Indices 1 2 3 4 5 6 
#
# 1 84.6141 19.8134 26.2597 0.0000 0.0000 0.0000
# 2 19.8134 68.3579 21.2024 0.0000 0.0000 0.0000
# 3 26.2597 21.2024 55.4438 0.0000 0.0000 0.0000
# 4 0.0000 0.0000 0.0000 18.2381 0.0000 0.0000
# 5 0.0000 0.0000 0.0000 0.0000 23.7284 0.0000
# 6 0.0000 0.0000 0.0000 0.0000 0.0000 28.1570
#
#
#
# Elastic Compliance Matrix: (Units=1/GPa)
#
#
# Indices 1 2 3 4 5 6 
#
# 1 0.014166 -0.002297 -0.005831 0.000000 0.000000 0.000000
# 2 -0.002297 0.016970 -0.005401 0.000000 0.000000 0.000000
# 3 -0.005831 -0.005401 0.022864 0.000000 0.000000 0.000000
# 4 0.000000 0.000000 0.000000 0.054830 0.000000 0.000000
# 5 0.000000 0.000000 0.000000 0.000000 0.042144 0.000000
# 6 0.000000 0.000000 0.000000 0.000000 0.000000 0.035515
#
#
# Mechanical properties :
#
#
# Convention : Reuss Voigt Hill
#
# Bulk Modulus (GPa) = 37.11934 38.10745 37.61340
# Shear Modulus (GPa) = 22.46907 23.43405 22.95156
#
# Velocity S-wave (km/s) = 3.35020 3.42139 3.38598
# Velocity P-wave (km/s) = 5.78854 5.88587 5.83741
#
# Compressibility (1/GPa) = 0.02694013
#
# Stress axis : x y z
#
# Youngs Moduli (GPa) = 70.59202 58.92696 43.73782
#
# Poissons Ratio (x) = 0.13538 0.25503
# Poissons Ratio (y) = 0.16218 0.23625
# Poissons Ratio (z) = 0.41161 0.31829
#
# Static dielectric constant tensor:
#      x y z
#    x 1.696380 0.000000 0.000000 
#    y 0.000000 1.753100 0.000000 
#    z 0.000000 0.000000 1.729620 
# 
# From -- ./inp_files/32178.got.cif
#   From: 2010.05.17/outbox.cif.g08.bks.cpg/sg73_17_cif.got.tgz:32178.got - 2010.06.03 17:35:07.
