data_PCOD9531053
_publ_section_title
;
Structure prediction by ZEFSAII (Michael W. Deem and Ramdas Pophale) SiO2 
 PCOD9531053
Probable space group: I B C A 
;
_chemical_formula_sum "Si O2"
_cell_formula_units_Z 120
_cell_length_a 21.503778
_cell_length_b 10.776885
_cell_length_c 21.926830
_cell_angle_alpha 90.000000
_cell_angle_beta 90.000000
_cell_angle_gamma 90.000000
_cell_volume 5081.405647
_symmetry_space_group_name_H-M "I B C A "
_symmetry_group_IT_number 73
_symmetry_cell_setting 'orthorhombic'
loop_
_space_group_symop_operation_xyz
x,y,z
-x,1/2-y,z
x,-y,1/2-z
1/2-x,y,-z
-x,-y,-z
x,1/2+y,-z
-x,y,1/2+z
1/2+x,-y,z
1/2+x,1/2+y,1/2+z
1/2-x,-y,1/2+z
1/2+x,1/2-y,-z
-x,1/2+y,1/2-z
1/2-x,1/2-y,1/2-z
1/2+x,y,1/2-z
1/2-x,1/2+y,z
x,1/2-y,1/2+z
loop_
_atom_site_type_symbol
_atom_site_label
_atom_site_fract_x
_atom_site_fract_y
_atom_site_fract_z
Si Si1 0.357882 0.744952 0.435384
Si Si2 0.540412 0.366829 0.261098
Si Si3 0.750000 0.867935 0.000000
Si Si4 0.333347 0.404062 0.394535
Si Si5 0.669549 0.193546 0.802057
Si Si6 0.306301 0.368383 0.186670
Si Si7 0.040979 0.631725 0.122773
Si Si8 0.051585 0.490145 0.947084
O O1 0.306903 0.779937 0.483364
O O2 0.322423 0.714587 0.372362
O O3 0.400028 0.865154 0.420596
O O4 0.402402 0.629730 0.453165
O O5 0.500000 0.250000 0.282857
O O6 0.507904 0.500000 0.250000
O O7 0.604413 0.379041 0.298287
O O8 0.559160 0.338262 0.191191
O O9 0.723241 0.939091 0.059374
O O10 0.325427 0.271871 0.363739
O O11 0.334733 0.502193 0.337936
O O12 0.397962 0.406334 0.431688
O O13 0.669999 0.292565 0.745713
O O14 0.732831 0.115030 0.800312
O O15 0.000000 0.750000 0.102846
O O16 0.993245 0.521511 0.112252
O O17 0.000000 0.500000 0.000000
#
# Coordination Sequence:
#
# PCOD9531053 Si02
#       8
#    16  16   8  16  16  16  16  16
#     4  10  20  41  67  93 134 186 228 290 367 441
#     4  11  26  43  70 105 142 192 238 304 374 447
#     4  12  24  42  64  98 144 184 240 302 370 438
#     4  11  25  42  70 104 140 190 243 307 377 440
#     4  11  23  44  69 103 142 177 241 307 372 457
#     4  10  22  41  69 101 137 184 235 301 379 448
#     4   9  19  40  65  90 130 181 230 277 357 436
#     4  10  22  41  66  97 130 187 243 293 361 433
#
# _framework density 23.615513
#
# number of rings (size 3 to 8) (size 9 to 14) (size 15 to 20)
#    0.000    1.600    2.667    1.200    3.733    5.333 
#    2.400    0.000    0.000    0.000    0.000    0.000 
#    0.000    0.000    0.000    0.000    0.000    0.000 
#
# Total GULP energy -334560.099749 kJ/mol
# GULP energy per Si atom -5576.001662 kJ/mol
# Density = 2.356176 g / cm^3
# Si number density = 23.615513 Si / 1000 Ang^3
#
#
#
# Elastic Constant Matrix: (Units=GPa)
#
#
# Indices 1 2 3 4 5 6 
#
# 1 130.1014 27.3877 33.8300 0.0000 0.0000 0.0000
# 2 27.3877 42.3387 1.1494 0.0000 0.0000 0.0000
# 3 33.8300 1.1494 76.5010 0.0000 0.0000 0.0000
# 4 0.0000 0.0000 0.0000 22.8718 0.0000 0.0000
# 5 0.0000 0.0000 0.0000 0.0000 45.3647 0.0000
# 6 0.0000 0.0000 0.0000 0.0000 0.0000 26.4580
#
#
#
# Elastic Compliance Matrix: (Units=1/GPa)
#
#
# Indices 1 2 3 4 5 6 
#
# 1 0.010197 -0.006476 -0.004412 0.000000 0.000000 0.000000
# 2 -0.006476 0.027742 0.002447 0.000000 0.000000 0.000000
# 3 -0.004412 0.002447 0.014986 0.000000 0.000000 0.000000
# 4 0.000000 0.000000 0.000000 0.043722 0.000000 0.000000
# 5 0.000000 0.000000 0.000000 0.000000 0.022044 0.000000
# 6 0.000000 0.000000 0.000000 0.000000 0.000000 0.037796
#
#
# Mechanical properties :
#
#
# Convention : Reuss Voigt Hill
#
# Bulk Modulus (GPa) = 27.74496 41.51948 34.63222
# Shear Modulus (GPa) = 26.97126 31.37715 29.17421
#
# Velocity S-wave (km/s) = 3.38316 3.64904 3.51861
# Velocity P-wave (km/s) = 5.19954 5.94757 5.58609
#
# Compressibility (1/GPa) = 0.03604258
#
# Stress axis : x y z
#
# Youngs Moduli (GPa) = 98.06942 36.04653 66.72902
#
# Poissons Ratio (x) = 0.23345 0.29440
# Poissons Ratio (y) = 0.63513 -0.16329
# Poissons Ratio (z) = 0.43267 -0.08821
#
# Static dielectric constant tensor:
#      x y z
#    x 1.903230 0.000000 0.000000 
#    y 0.000000 1.965780 0.000000 
#    z 0.000000 0.000000 1.958610 
# 
# From -- ./inp_files/30194.got.cif
#   From: 2010.05.17/outbox.cif.g08.bks.cpg/sg73_16_cif.got.tgz:30194.got - 2010.06.03 17:35:07.
