data_PCOD9531390
_publ_section_title
;
Structure prediction by ZEFSAII (Michael W. Deem and Ramdas Pophale) SiO2 
 PCOD9531390
Probable space group: I B C A 
;
_chemical_formula_sum "Si O2"
_cell_formula_units_Z 88
_cell_length_a 19.138987
_cell_length_b 22.293004
_cell_length_c 8.276885
_cell_angle_alpha 90.000000
_cell_angle_beta 90.000000
_cell_angle_gamma 90.000000
_cell_volume 3531.461391
_symmetry_space_group_name_H-M "I B C A "
_symmetry_group_IT_number 73
_symmetry_cell_setting 'orthorhombic'
loop_
_space_group_symop_operation_xyz
x,y,z
-x,1/2-y,z
x,-y,1/2-z
1/2-x,y,-z
-x,-y,-z
x,1/2+y,-z
-x,y,1/2+z
1/2+x,-y,z
1/2+x,1/2+y,1/2+z
1/2-x,-y,1/2+z
1/2+x,1/2-y,-z
-x,1/2+y,1/2-z
1/2-x,1/2-y,1/2-z
1/2+x,y,1/2-z
1/2-x,1/2+y,z
x,1/2-y,1/2+z
loop_
_atom_site_type_symbol
_atom_site_label
_atom_site_fract_x
_atom_site_fract_y
_atom_site_fract_z
Si Si1 0.895093 0.800339 0.565552
Si Si2 0.011572 0.500000 0.250000
Si Si3 0.207119 0.500000 0.750000
Si Si4 0.841492 0.668151 0.565561
Si Si5 0.500000 0.250000 0.823059
Si Si6 0.589253 0.942903 0.037154
Si Si7 0.729152 0.368985 0.723728
O O1 0.856019 0.737111 0.544141
O O2 0.832202 0.847180 0.603194
O O3 0.945257 0.789073 0.719903
O O4 0.952271 0.797439 0.422641
O O5 0.058215 0.485540 0.401795
O O6 0.960752 0.554127 0.306245
O O7 0.159304 0.474671 0.604027
O O8 0.245342 0.560859 0.700330
O O9 0.904041 0.620786 0.551069
O O10 0.803362 0.661980 0.739594
O O11 0.803197 0.646434 0.400461
#
# Coordination Sequence:
#
# PCOD9531390 Si02
#       7
#    16   8   8  16   8  16  16
#     4  11  21  44  62 100 123 171 209 271 340 393
#     4   9  18  37  58  88 128 167 213 262 310 389
#     4   9  20  41  62  90 124 169 217 262 322 373
#     4  10  21  38  66  91 129 169 211 268 325 387
#     4  10  24  40  66  94 134 160 212 272 332 408
#     4   9  19  37  57  90 120 167 211 260 317 373
#     4  10  21  41  67  92 132 173 219 270 323 395
#
# _framework density 24.918863000000002
#
# number of rings (size 3 to 8) (size 9 to 14) (size 15 to 20)
#    0.000    2.182    1.818    0.545    0.000    2.182 
#   19.636    0.000    0.000    0.000    0.000    0.000 
#    0.000    0.000    0.000    0.000    0.000    0.000 
#
# Total GULP energy -245204.589339 kJ/mol
# GULP energy per Si atom -5572.831576 kJ/mol
# Density = 2.486215 g / cm^3
# Si number density = 24.918863 Si / 1000 Ang^3
#
#
#
# Elastic Constant Matrix: (Units=GPa)
#
#
# Indices 1 2 3 4 5 6 
#
# 1 23.9386 14.4697 12.2824 0.0000 0.0000 0.0000
# 2 14.4697 110.9612 -2.2392 0.0000 0.0000 0.0000
# 3 12.2824 -2.2392 90.9736 0.0000 0.0000 0.0000
# 4 0.0000 0.0000 0.0000 19.9788 0.0000 0.0000
# 5 0.0000 0.0000 0.0000 0.0000 111.1940 0.0000
# 6 0.0000 0.0000 0.0000 0.0000 0.0000 8.8101
#
#
#
# Elastic Compliance Matrix: (Units=1/GPa)
#
#
# Indices 1 2 3 4 5 6 
#
# 1 0.049230 -0.006557 -0.006808 0.000000 0.000000 0.000000
# 2 -0.006557 0.009890 0.001129 0.000000 0.000000 0.000000
# 3 -0.006808 0.001129 0.011939 0.000000 0.000000 0.000000
# 4 0.000000 0.000000 0.000000 0.050053 0.000000 0.000000
# 5 0.000000 0.000000 0.000000 0.000000 0.008993 0.000000
# 6 0.000000 0.000000 0.000000 0.000000 0.000000 0.113506
#
#
# Mechanical properties :
#
#
# Convention : Reuss Voigt Hill
#
# Bulk Modulus (GPa) = 21.46551 30.54434 26.00493
# Shear Modulus (GPa) = 17.62967 41.42063 29.52515
#
# Velocity S-wave (km/s) = 2.66274 4.08146 3.44590
# Velocity P-wave (km/s) = 4.25282 5.87326 5.12746
#
# Compressibility (1/GPa) = 0.04658636
#
# Stress axis : x y z
#
# Youngs Moduli (GPa) = 20.31283 101.11218 83.75821
#
# Poissons Ratio (x) = 0.66300 0.57022
# Poissons Ratio (y) = 0.13319 -0.09454
# Poissons Ratio (z) = 0.13829 -0.11413
#
# Static dielectric constant tensor:
#      x y z
#    x 2.349320 0.000000 0.000000 
#    y 0.000000 2.003330 0.000000 
#    z 0.000000 0.000000 2.060630 
# 
# From -- ./inp_files/6356.got.cif
#   From: 2010.05.17/outbox.cif.g08.bks.cpg/sg73_4_cif.got.tgz:6356.got - 2010.06.03 17:35:07.
