data_PCOD9531976
_publ_section_title
;
Structure prediction by ZEFSAII (Michael W. Deem and Ramdas Pophale) SiO2 
 PCOD9531976
Probable space group: I B C A 
;
_chemical_formula_sum "Si O2"
_cell_formula_units_Z 56
_cell_length_a 5.117686
_cell_length_b 33.986998
_cell_length_c 15.109885
_cell_angle_alpha 90.000000
_cell_angle_beta 90.000000
_cell_angle_gamma 90.000000
_cell_volume 2628.134581
_symmetry_space_group_name_H-M "I B C A "
_symmetry_group_IT_number 73
_symmetry_cell_setting 'orthorhombic'
loop_
_space_group_symop_operation_xyz
x,y,z
-x,1/2-y,z
x,-y,1/2-z
1/2-x,y,-z
-x,-y,-z
x,1/2+y,-z
-x,y,1/2+z
1/2+x,-y,z
1/2+x,1/2+y,1/2+z
1/2-x,-y,1/2+z
1/2+x,1/2-y,-z
-x,1/2+y,1/2-z
1/2-x,1/2-y,1/2-z
1/2+x,y,1/2-z
1/2-x,1/2+y,z
x,1/2-y,1/2+z
loop_
_atom_site_type_symbol
_atom_site_label
_atom_site_fract_x
_atom_site_fract_y
_atom_site_fract_z
Si Si1 0.500000 0.250000 0.812252
Si Si2 0.745158 0.475085 0.106239
Si Si3 0.005692 0.824116 0.440040
Si Si4 0.179771 0.608752 0.807501
O O1 0.750000 0.250000 0.750000
O O2 0.469087 0.288563 0.872158
O O3 0.457219 0.491186 0.127028
O O4 0.822120 0.435892 0.157753
O O5 0.750000 0.467667 0.000000
O O6 0.250000 0.812453 0.500000
O O7 0.093246 0.862712 0.386343
O O8 0.750000 0.830647 0.500000
O O9 0.470423 0.615888 0.770590
#
# Coordination Sequence:
#
# PCOD9531976 Si02
#       4
#     8  16  16  16
#     4  12  24  44  70 100 134 164 206 262 318 370
#     4  10  22  40  62  88 122 165 211 259 316 381
#     4  12  25  44  68  95 129 171 215 255 310 381
#     4  12  25  41  63  94 129 166 212 267 323 372
#
# _framework density 21.30789
#
# number of rings (size 3 to 8) (size 9 to 14) (size 15 to 20)
#    0.000    0.571    0.000    8.571    0.000    6.857 
#    0.000    0.000    0.000    0.000    0.000    0.000 
#    0.000    0.000    0.000    0.000    0.000    0.000 
#
# Total GULP energy -156853.811874 kJ/mol
# GULP energy per Si atom -5601.921853 kJ/mol
# Density = 2.125939 g / cm^3
# Si number density = 21.307890 Si / 1000 Ang^3
#
#
#
# Elastic Constant Matrix: (Units=GPa)
#
#
# Indices 1 2 3 4 5 6 
#
# 1 125.6598 9.3885 40.1735 0.0000 0.0000 0.0000
# 2 9.3885 84.2793 42.4007 0.0000 0.0000 0.0000
# 3 40.1735 42.4007 93.5428 0.0000 0.0000 0.0000
# 4 0.0000 0.0000 0.0000 155.4617 0.0000 0.0000
# 5 0.0000 0.0000 0.0000 0.0000 47.7286 0.0000
# 6 0.0000 0.0000 0.0000 0.0000 0.0000 6.0125
#
#
#
# Elastic Compliance Matrix: (Units=1/GPa)
#
#
# Indices 1 2 3 4 5 6 
#
# 1 0.009327 0.001265 -0.004579 0.000000 0.000000 0.000000
# 2 0.001265 0.015542 -0.007588 0.000000 0.000000 0.000000
# 3 -0.004579 -0.007588 0.016096 0.000000 0.000000 0.000000
# 4 0.000000 0.000000 0.000000 0.006432 0.000000 0.000000
# 5 0.000000 0.000000 0.000000 0.000000 0.020952 0.000000
# 6 0.000000 0.000000 0.000000 0.000000 0.000000 0.166321
#
#
# Mechanical properties :
#
#
# Convention : Reuss Voigt Hill
#
# Bulk Modulus (GPa) = 52.18935 54.15635 53.17285
# Shear Modulus (GPa) = 19.02134 55.94184 37.48159
#
# Velocity S-wave (km/s) = 2.99103 5.12943 4.19865
# Velocity P-wave (km/s) = 6.03941 7.78156 6.96517
#
# Compressibility (1/GPa) = 0.01916100
#
# Stress axis : x y z
#
# Youngs Moduli (GPa) = 107.21060 64.34228 62.12627
#
# Poissons Ratio (x) = -0.08137 0.28448
# Poissons Ratio (y) = -0.13559 0.47141
# Poissons Ratio (z) = 0.49092 0.48822
#
# Static dielectric constant tensor:
#      x y z
#    x 1.722980 0.000000 0.000000 
#    y 0.000000 1.726620 0.000000 
#    z 0.000000 0.000000 1.583760 
# 
# From -- ./inp_files/708.got.cif
#   From: 2010.05.17/outbox.cif.g08.bks.cpg/sg73_1_cif.got.tgz:708.got - 2010.06.03 17:35:07.
