data_PCOD9531355
_publ_section_title
;
Structure prediction by ZEFSAII (Michael W. Deem and Ramdas Pophale) SiO2 
 PCOD9531355
Probable space group: I B C A 
;
_chemical_formula_sum "Si O2"
_cell_formula_units_Z 112
_cell_length_a 25.922574
_cell_length_b 14.989836
_cell_length_c 12.198030
_cell_angle_alpha 90.000000
_cell_angle_beta 90.000000
_cell_angle_gamma 90.000000
_cell_volume 4739.851129
_symmetry_space_group_name_H-M "I B C A "
_symmetry_group_IT_number 73
_symmetry_cell_setting 'orthorhombic'
loop_
_space_group_symop_operation_xyz
x,y,z
-x,1/2-y,z
x,-y,1/2-z
1/2-x,y,-z
-x,-y,-z
x,1/2+y,-z
-x,y,1/2+z
1/2+x,-y,z
1/2+x,1/2+y,1/2+z
1/2-x,-y,1/2+z
1/2+x,1/2-y,-z
-x,1/2+y,1/2-z
1/2-x,1/2-y,1/2-z
1/2+x,y,1/2-z
1/2-x,1/2+y,z
x,1/2-y,1/2+z
loop_
_atom_site_type_symbol
_atom_site_label
_atom_site_fract_x
_atom_site_fract_y
_atom_site_fract_z
Si Si1 0.726869 0.990616 0.623618
Si Si2 0.605373 0.540196 0.645458
Si Si3 0.667059 0.645032 0.476753
Si Si4 0.503822 0.855812 0.159360
Si Si5 0.154204 0.317509 0.106735
Si Si6 0.441293 0.134296 0.549017
Si Si7 0.419439 0.696516 0.809376
O O1 0.750000 0.969698 0.500000
O O2 0.686667 0.906607 0.632973
O O3 0.748526 0.000000 0.750000
O O4 0.705953 0.091319 0.599902
O O5 0.632517 0.500000 0.750000
O O6 0.649119 0.576036 0.568403
O O7 0.561687 0.612094 0.673554
O O8 0.571427 0.459072 0.602012
O O9 0.681974 0.736243 0.540629
O O10 0.614678 0.657812 0.407242
O O11 0.500000 0.750000 0.155371
O O12 0.460825 0.872349 0.254451
O O13 0.486906 0.880795 0.036760
O O14 0.123583 0.283491 0.215179
O O15 0.108372 0.343839 0.024792
O O16 0.445551 0.216446 0.634055
#
# Coordination Sequence:
#
# PCOD9531355 Si02
#       7
#    16  16  16  16  16  16  16
#     4  12  27  53  80 118 151 189 239 308 382 469
#     4  12  24  38  58  96 141 187 252 303 365 423
#     4  11  24  45  75 103 141 195 243 302 372 448
#     4  11  23  37  55  91 139 186 242 302 359 410
#     4  10  21  45  73 103 139 186 240 295 369 444
#     4  10  21  38  62  93 130 187 241 304 354 426
#     4  10  21  41  69  91 138 191 243 299 364 429
#
# _framework density 23.629435000000001
#
# number of rings (size 3 to 8) (size 9 to 14) (size 15 to 20)
#    0.000    1.143    2.857    4.714    0.000    6.286 
#    5.143    1.429    0.000    0.000    0.000    0.000 
#    0.000    0.000    0.000    0.000    0.000    0.000 
#
# Total GULP energy -312267.397617 kJ/mol
# GULP energy per Si atom -5576.203529 kJ/mol
# Density = 2.357565 g / cm^3
# Si number density = 23.629435 Si / 1000 Ang^3
#
#
#
# Elastic Constant Matrix: (Units=GPa)
#
#
# Indices 1 2 3 4 5 6 
#
# 1 45.9058 13.6231 30.9197 0.0000 0.0000 0.0000
# 2 13.6231 69.2963 15.5319 0.0000 0.0000 0.0000
# 3 30.9197 15.5319 138.3799 0.0000 0.0000 0.0000
# 4 0.0000 0.0000 0.0000 31.0198 0.0000 0.0000
# 5 0.0000 0.0000 0.0000 0.0000 23.1181 0.0000
# 6 0.0000 0.0000 0.0000 0.0000 0.0000 25.1317
#
#
#
# Elastic Compliance Matrix: (Units=1/GPa)
#
#
# Indices 1 2 3 4 5 6 
#
# 1 0.026687 -0.004011 -0.005513 0.000000 0.000000 0.000000
# 2 -0.004011 0.015406 -0.000833 0.000000 0.000000 0.000000
# 3 -0.005513 -0.000833 0.008552 0.000000 0.000000 0.000000
# 4 0.000000 0.000000 0.000000 0.032238 0.000000 0.000000
# 5 0.000000 0.000000 0.000000 0.000000 0.043256 0.000000
# 6 0.000000 0.000000 0.000000 0.000000 0.000000 0.039790
#
#
# Mechanical properties :
#
#
# Convention : Reuss Voigt Hill
#
# Bulk Modulus (GPa) = 33.40952 41.52571 37.46761
# Shear Modulus (GPa) = 25.42982 28.75439 27.09211
#
# Velocity S-wave (km/s) = 3.28410 3.49218 3.38973
# Velocity P-wave (km/s) = 5.34322 5.81999 5.58669
#
# Compressibility (1/GPa) = 0.02993159
#
# Stress axis : x y z
#
# Youngs Moduli (GPa) = 37.47118 64.90976 116.93486
#
# Poissons Ratio (x) = 0.26034 0.64464
# Poissons Ratio (y) = 0.15029 0.09741
# Poissons Ratio (z) = 0.20657 0.05407
#
# Static dielectric constant tensor:
#      x y z
#    x 1.939050 0.000000 0.000000 
#    y 0.000000 1.933940 0.000000 
#    z 0.000000 0.000000 2.054200 
# 
# From -- ./inp_files/11253.got.cif
#   From: 2010.05.17/outbox.cif.g08.bks.cpg/sg73_6_cif.got.tgz:11253.got - 2010.06.03 17:35:07.
