data_PCOD9531446
_publ_section_title
;
Structure prediction by ZEFSAII (Michael W. Deem and Ramdas Pophale) SiO2 
 PCOD9531446
Probable space group: I B C A 
;
_chemical_formula_sum "Si O2"
_cell_formula_units_Z 80
_cell_length_a 14.019865
_cell_length_b 10.978141
_cell_length_c 25.426839
_cell_angle_alpha 90.000000
_cell_angle_beta 90.000000
_cell_angle_gamma 90.000000
_cell_volume 3913.497037
_symmetry_space_group_name_H-M "I B C A "
_symmetry_group_IT_number 73
_symmetry_cell_setting 'orthorhombic'
loop_
_space_group_symop_operation_xyz
x,y,z
-x,1/2-y,z
x,-y,1/2-z
1/2-x,y,-z
-x,-y,-z
x,1/2+y,-z
-x,y,1/2+z
1/2+x,-y,z
1/2+x,1/2+y,1/2+z
1/2-x,-y,1/2+z
1/2+x,1/2-y,-z
-x,1/2+y,1/2-z
1/2-x,1/2-y,1/2-z
1/2+x,y,1/2-z
1/2-x,1/2+y,z
x,1/2-y,1/2+z
loop_
_atom_site_type_symbol
_atom_site_label
_atom_site_fract_x
_atom_site_fract_y
_atom_site_fract_z
Si Si1 0.602364 0.500763 0.529993
Si Si2 0.185229 0.984124 0.141828
Si Si3 0.429392 0.500000 0.250000
Si Si4 0.000000 0.250000 0.286220
Si Si5 0.824304 0.285468 0.866338
Si Si6 0.386982 0.742014 0.984242
O O1 0.500000 0.500000 0.500000
O O2 0.609187 0.488390 0.593200
O O3 0.649642 0.630438 0.518363
O O4 0.649600 0.378378 0.507292
O O5 0.259185 0.095308 0.138563
O O6 0.132953 0.998097 0.197248
O O7 0.228118 0.846723 0.138012
O O8 0.485946 0.627289 0.252658
O O9 0.908433 0.224200 0.323322
O O10 0.871167 0.290874 0.923746
O O11 0.500000 0.750000 0.994253
#
# Coordination Sequence:
#
# PCOD9531446 Si02
#       6
#    16  16   8   8  16  16
#     4   9  19  35  58  87 121 159 202 253 311 372
#     4  10  23  40  60  93 127 163 209 268 313 377
#     4  10  24  42  62  92 126 164 220 256 324 382
#     4  10  22  42  64  88 122 168 210 262 312 392
#     4  10  21  39  64  87 125 163 208 260 317 374
#     4   9  17  34  57  84 117 161 197 247 309 374
#
# _framework density 20.442076
#
# number of rings (size 3 to 8) (size 9 to 14) (size 15 to 20)
#    0.000    2.400    1.000    0.000    2.800    8.000 
#    5.400    4.000    0.000    0.000    0.000    0.000 
#    0.000    0.000    0.000    0.000    0.000    0.000 
#
# Total GULP energy -222822.224322 kJ/mol
# GULP energy per Si atom -5570.555608 kJ/mol
# Density = 2.039555 g / cm^3
# Si number density = 20.442076 Si / 1000 Ang^3
#
#
#
# Elastic Constant Matrix: (Units=GPa)
#
#
# Indices 1 2 3 4 5 6 
#
# 1 72.8528 12.3234 -0.4776 0.0000 0.0000 0.0000
# 2 12.3234 159.5004 15.3295 0.0000 0.0000 0.0000
# 3 -0.4776 15.3295 46.9915 0.0000 0.0000 0.0000
# 4 0.0000 0.0000 0.0000 36.4665 0.0000 0.0000
# 5 0.0000 0.0000 0.0000 0.0000 12.1381 0.0000
# 6 0.0000 0.0000 0.0000 0.0000 0.0000 -1.8468
#
#
#
# Elastic Compliance Matrix: (Units=1/GPa)
#
#
# Indices 1 2 3 4 5 6 
#
# 1 0.013920 -0.001124 0.000508 0.000000 0.000000 0.000000
# 2 -0.001124 0.006563 -0.002153 0.000000 0.000000 0.000000
# 3 0.000508 -0.002153 0.021988 0.000000 0.000000 0.000000
# 4 0.000000 0.000000 0.000000 0.027422 0.000000 0.000000
# 5 0.000000 0.000000 0.000000 0.000000 0.082385 0.000000
# 6 0.000000 0.000000 0.000000 0.000000 0.000000 -0.541463
#
#
# Mechanical properties :
#
#
# Convention : Reuss Voigt Hill
#
# Bulk Modulus (GPa) = 27.07550 37.07727 32.07638
# Shear Modulus (GPa) = -13.46490 26.16283 6.34897
#
# Velocity S-wave (km/s) = -2.56927 3.58138 1.76425
# Velocity P-wave (km/s) = 2.11476 5.93960 4.45820
#
# Compressibility (1/GPa) = 0.03693376
#
# Stress axis : x y z
#
# Youngs Moduli (GPa) = 71.83995 152.36191 45.47978
#
# Poissons Ratio (x) = 0.17131 -0.02311
# Poissons Ratio (y) = 0.08077 0.09790
# Poissons Ratio (z) = -0.03651 0.32796
#
# Static dielectric constant tensor:
#      x y z
#    x 1.729140 0.000000 0.000000 
#    y 0.000000 1.807810 0.000000 
#    z 0.000000 0.000000 1.692520 
# 
# From -- ./inp_files/16069.got.cif
#   From: 2010.05.17/outbox.cif.g08.bks.cpg/sg73_9_cif.got.tgz:16069.got - 2010.06.03 17:35:07.
