data_PCOD9531955
_publ_section_title
;
Structure prediction by ZEFSAII (Michael W. Deem and Ramdas Pophale) SiO2 
 PCOD9531955
Probable space group: I B C A 
;
_chemical_formula_sum "Si O2"
_cell_formula_units_Z 96
_cell_length_a 22.097651
_cell_length_b 9.260503
_cell_length_c 18.293088
_cell_angle_alpha 90.000000
_cell_angle_beta 90.000000
_cell_angle_gamma 90.000000
_cell_volume 3743.412710
_symmetry_space_group_name_H-M "I B C A "
_symmetry_group_IT_number 73
_symmetry_cell_setting 'orthorhombic'
loop_
_space_group_symop_operation_xyz
x,y,z
-x,1/2-y,z
x,-y,1/2-z
1/2-x,y,-z
-x,-y,-z
x,1/2+y,-z
-x,y,1/2+z
1/2+x,-y,z
1/2+x,1/2+y,1/2+z
1/2-x,-y,1/2+z
1/2+x,1/2-y,-z
-x,1/2+y,1/2-z
1/2-x,1/2-y,1/2-z
1/2+x,y,1/2-z
1/2-x,1/2+y,z
x,1/2-y,1/2+z
loop_
_atom_site_type_symbol
_atom_site_label
_atom_site_fract_x
_atom_site_fract_y
_atom_site_fract_z
Si Si1 0.418132 0.500000 0.250000
Si Si2 0.208635 0.320697 0.164038
Si Si3 0.000000 0.750000 0.405200
Si Si4 0.643613 0.552167 0.024507
Si Si5 0.185278 0.006620 0.135470
Si Si6 0.059682 0.304866 0.462128
Si Si7 0.921590 0.663629 0.775201
O O1 0.379162 0.490438 0.324344
O O2 0.440303 0.327455 0.245021
O O3 0.273969 0.387859 0.174694
O O4 0.151605 0.340568 0.218284
O O5 0.218382 0.153285 0.153803
O O6 0.186107 0.381791 0.085852
O O7 0.969203 0.638410 0.461103
O O8 0.950396 0.823088 0.355485
O O9 0.678123 0.500344 0.951719
O O10 0.605767 0.424329 0.063689
O O11 0.599107 0.671068 0.989850
O O12 0.000000 0.250000 0.419557
O O13 0.940803 0.500000 0.750000
#
# Coordination Sequence:
#
# PCOD9531955 Si02
#       7
#     8  16   8  16  16  16  16
#     4  10  26  50  66 104 146 184 242 292 350 440
#     4  11  25  44  66 103 142 178 236 297 354 425
#     4  10  22  48  64  98 142 180 234 302 348 410
#     4  12  21  43  64 100 135 179 227 287 358 412
#     4  11  26  42  71  98 140 190 229 299 352 428
#     4  10  22  39  68  90 138 180 218 290 347 414
#     4  11  25  45  75 101 140 191 237 297 355 427
#
# _framework density 25.645049
#
# number of rings (size 3 to 8) (size 9 to 14) (size 15 to 20)
#    0.500    0.667    3.333    2.000    7.000    2.667 
#    0.000    0.000    1.833    0.000    0.000    0.000 
#    0.000    0.000    0.000    0.000    0.000    0.000 
#
# Total GULP energy -267866.872857 kJ/mol
# GULP energy per Si atom -5580.559851 kJ/mol
# Density = 2.558668 g / cm^3
# Si number density = 25.645049 Si / 1000 Ang^3
#
#
#
# Elastic Constant Matrix: (Units=GPa)
#
#
# Indices 1 2 3 4 5 6 
#
# 1 51.1895 30.5732 1.9679 0.0000 0.0000 0.0000
# 2 30.5732 186.7761 27.2902 0.0000 0.0000 0.0000
# 3 1.9679 27.2902 75.3077 0.0000 0.0000 0.0000
# 4 0.0000 0.0000 0.0000 16.6431 0.0000 0.0000
# 5 0.0000 0.0000 0.0000 0.0000-1101.0094 0.0000
# 6 0.0000 0.0000 0.0000 0.0000 0.0000 43.1921
#
#
#
# Elastic Compliance Matrix: (Units=1/GPa)
#
#
# Indices 1 2 3 4 5 6 
#
# 1 0.021693 -0.003662 0.000760 0.000000 0.000000 0.000000
# 2 -0.003662 0.006272 -0.002177 0.000000 0.000000 0.000000
# 3 0.000760 -0.002177 0.014048 0.000000 0.000000 0.000000
# 4 0.000000 0.000000 0.000000 0.060085 0.000000 0.000000
# 5 0.000000 0.000000 0.000000 0.000000 -0.000908 0.000000
# 6 0.000000 0.000000 0.000000 0.000000 0.000000 0.023152
#
#
# Mechanical properties :
#
#
# Convention : Reuss Voigt Hill
#
# Bulk Modulus (GPa) = 31.39229 48.10399 39.74814
# Shear Modulus (GPa) = 34.45485 -191.33868 -78.44192
#
# Velocity S-wave (km/s) = 3.66939 -8.64710 -5.53660
# Velocity P-wave (km/s) = 5.49729 8.99434 5.03378
#
# Compressibility (1/GPa) = 0.03185495
#
# Stress axis : x y z
#
# Youngs Moduli (GPa) = 46.09746 159.45098 71.18497
#
# Poissons Ratio (x) = 0.58391 -0.05411
# Poissons Ratio (y) = 0.16881 0.15497
# Poissons Ratio (z) = -0.03504 0.34713
#
# Static dielectric constant tensor:
#      x y z
#    x 2.107790 0.000000 0.000000 
#    y 0.000000 2.062880 0.000000 
#    z 0.000000 0.000000 2.023930 
# 
# From -- ./inp_files/30307.got.cif
#   From: 2010.05.17/outbox.cif.g08.bks.cpg/sg73_16_cif.got.tgz:30307.got - 2010.06.03 17:35:07.
