data_PCOD9531977
_publ_section_title
;
Structure prediction by ZEFSAII (Michael W. Deem and Ramdas Pophale) SiO2 
 PCOD9531977
Probable space group: I B C A 
;
_chemical_formula_sum "Si O2"
_cell_formula_units_Z 80
_cell_length_a 14.324428
_cell_length_b 9.204894
_cell_length_c 26.149378
_cell_angle_alpha 90.000000
_cell_angle_beta 90.000000
_cell_angle_gamma 90.000000
_cell_volume 3447.922088
_symmetry_space_group_name_H-M "I B C A "
_symmetry_group_IT_number 73
_symmetry_cell_setting 'orthorhombic'
loop_
_space_group_symop_operation_xyz
x,y,z
-x,1/2-y,z
x,-y,1/2-z
1/2-x,y,-z
-x,-y,-z
x,1/2+y,-z
-x,y,1/2+z
1/2+x,-y,z
1/2+x,1/2+y,1/2+z
1/2-x,-y,1/2+z
1/2+x,1/2-y,-z
-x,1/2+y,1/2-z
1/2-x,1/2-y,1/2-z
1/2+x,y,1/2-z
1/2-x,1/2+y,z
x,1/2-y,1/2+z
loop_
_atom_site_type_symbol
_atom_site_label
_atom_site_fract_x
_atom_site_fract_y
_atom_site_fract_z
Si Si1 0.130317 0.328770 0.881692
Si Si2 0.750000 0.848949 0.000000
Si Si3 0.000000 0.750000 0.022702
Si Si4 0.628038 0.500000 0.250000
Si Si5 0.500000 0.250000 0.205404
Si Si6 0.202047 0.985463 0.641050
Si Si7 0.125294 0.398972 0.048139
O O1 0.058507 0.347813 0.835015
O O2 0.201419 0.461052 0.883285
O O3 0.079874 0.292144 0.935117
O O4 0.187323 0.185026 0.865761
O O5 0.691298 0.739544 0.035991
O O6 0.824241 0.958342 0.025220
O O7 0.028609 0.869721 0.979847
O O8 0.564345 0.358986 0.237605
O O9 0.690875 0.524978 0.200005
O O10 0.121996 0.066433 0.607954
#
# Coordination Sequence:
#
# PCOD9531977 Si02
#       7
#    16   8   8   8   8  16  16
#     4  10  23  43  64  90 127 169 213 263 322 388
#     4  10  22  40  62  88 124 170 214 256 312 394
#     4  11  24  39  62  94 132 167 206 267 326 378
#     4  10  24  42  66  98 126 164 218 272 328 380
#     4   9  22  43  64  92 128 161 206 273 334 378
#     4  11  23  41  65  92 124 169 220 262 318 394
#     4  11  22  39  62  90 126 167 211 260 318 384
#
# _framework density 23.202380999999999
#
# number of rings (size 3 to 8) (size 9 to 14) (size 15 to 20)
#    0.000    1.600    0.000    4.800    0.000    9.600 
#    0.000    6.000    0.000    0.000    0.000    0.000 
#    0.000    0.000    0.000    0.000    0.000    0.000 
#
# Total GULP energy -223320.576878 kJ/mol
# GULP energy per Si atom -5583.014422 kJ/mol
# Density = 2.314957 g / cm^3
# Si number density = 23.202381 Si / 1000 Ang^3
#
#
#
# Elastic Constant Matrix: (Units=GPa)
#
#
# Indices 1 2 3 4 5 6 
#
# 1 49.8937 10.8084 3.8312 0.0000 0.0000 0.0000
# 2 10.8084 74.6990 13.5373 0.0000 0.0000 0.0000
# 3 3.8312 13.5373 121.9502 0.0000 0.0000 0.0000
# 4 0.0000 0.0000 0.0000 28.0710 0.0000 0.0000
# 5 0.0000 0.0000 0.0000 0.0000 21.9812 0.0000
# 6 0.0000 0.0000 0.0000 0.0000 0.0000 21.7124
#
#
#
# Elastic Compliance Matrix: (Units=1/GPa)
#
#
# Indices 1 2 3 4 5 6 
#
# 1 0.020704 -0.002937 -0.000324 0.000000 0.000000 0.000000
# 2 -0.002937 0.014079 -0.001471 0.000000 0.000000 0.000000
# 3 -0.000324 -0.001471 0.008374 0.000000 0.000000 0.000000
# 4 0.000000 0.000000 0.000000 0.035624 0.000000 0.000000
# 5 0.000000 0.000000 0.000000 0.000000 0.045493 0.000000
# 6 0.000000 0.000000 0.000000 0.000000 0.000000 0.046057
#
#
# Mechanical properties :
#
#
# Convention : Reuss Voigt Hill
#
# Bulk Modulus (GPa) = 29.68062 33.65520 31.66791
# Shear Modulus (GPa) = 26.17472 28.91067 27.54270
#
# Velocity S-wave (km/s) = 3.36237 3.53373 3.44912
# Velocity P-wave (km/s) = 5.28147 5.58446 5.43508
#
# Compressibility (1/GPa) = 0.03369202
#
# Stress axis : x y z
#
# Youngs Moduli (GPa) = 48.30049 71.03027 119.42433
#
# Poissons Ratio (x) = 0.20861 0.03874
# Poissons Ratio (y) = 0.14185 0.17562
# Poissons Ratio (z) = 0.01567 0.10445
#
# Static dielectric constant tensor:
#      x y z
#    x 2.022270 0.000000 0.000000 
#    y 0.000000 1.875860 0.000000 
#    z 0.000000 0.000000 1.882150 
# 
# From -- ./inp_files/32344.got.cif
#   From: 2010.05.17/outbox.cif.g08.bks.cpg/sg73_17_cif.got.tgz:32344.got - 2010.06.03 17:35:07.
