data_PCOD9531947
_publ_section_title
;
Structure prediction by ZEFSAII (Michael W. Deem and Ramdas Pophale) SiO2 
 PCOD9531947
Probable space group: I B C A 
;
_chemical_formula_sum "Si O2"
_cell_formula_units_Z 72
_cell_length_a 24.422598
_cell_length_b 5.859031
_cell_length_c 21.190972
_cell_angle_alpha 90.000000
_cell_angle_beta 90.000000
_cell_angle_gamma 90.000000
_cell_volume 3032.274645
_symmetry_space_group_name_H-M "I B C A "
_symmetry_group_IT_number 73
_symmetry_cell_setting 'orthorhombic'
loop_
_space_group_symop_operation_xyz
x,y,z
-x,1/2-y,z
x,-y,1/2-z
1/2-x,y,-z
-x,-y,-z
x,1/2+y,-z
-x,y,1/2+z
1/2+x,-y,z
1/2+x,1/2+y,1/2+z
1/2-x,-y,1/2+z
1/2+x,1/2-y,-z
-x,1/2+y,1/2-z
1/2-x,1/2-y,1/2-z
1/2+x,y,1/2-z
1/2-x,1/2+y,z
x,1/2-y,1/2+z
loop_
_atom_site_type_symbol
_atom_site_label
_atom_site_fract_x
_atom_site_fract_y
_atom_site_fract_z
Si Si1 0.936518 0.741278 0.072995
Si Si2 0.165711 0.239820 0.018054
Si Si3 0.636679 0.884533 0.148358
Si Si4 0.779901 0.000000 0.750000
Si Si5 0.951850 0.596428 0.815793
O O1 0.893849 0.785769 0.016606
O O2 0.908641 0.529363 0.109846
O O3 0.000000 0.750000 0.050429
O O4 0.937254 0.922753 0.129614
O O5 0.189146 0.481157 0.992076
O O6 0.162518 0.267963 0.093152
O O7 0.602437 0.738522 0.198313
O O8 0.682743 0.011868 0.187045
O O9 0.750000 0.250000 0.750000
O O10 0.972988 0.500000 0.750000
O O11 0.000000 0.750000 0.842159
#
# Coordination Sequence:
#
# PCOD9531947 Si02
#       5
#    16  16  16   8  16
#     4  11  22  39  66 108 158 202 232 274 349 450
#     4  10  22  39  67 104 144 193 236 280 344 428
#     4  11  25  46  71 101 144 190 239 309 364 434
#     4  12  32  54  80 104 132 186 256 326 388 436
#     4  12  24  37  61 103 150 197 239 281 349 440
#
# _framework density 23.74455
#
# number of rings (size 3 to 8) (size 9 to 14) (size 15 to 20)
#    0.000    0.889    4.444    2.000    6.222    4.444 
#    0.000    0.000    0.000   16.000    0.000    0.000 
#    0.000    0.000    0.000    0.000    0.000    0.000 
#
# Total GULP energy -200739.466125 kJ/mol
# GULP energy per Si atom -5576.096281 kJ/mol
# Density = 2.369051 g / cm^3
# Si number density = 23.744550 Si / 1000 Ang^3
#
#
#
# Elastic Constant Matrix: (Units=GPa)
#
#
# Indices 1 2 3 4 5 6 
#
# 1 93.4492 17.1514 27.8335 0.0000 0.0000 0.0000
# 2 17.1514 111.0346 9.3792 0.0000 0.0000 0.0000
# 3 27.8335 9.3792 89.9161 0.0000 0.0000 0.0000
# 4 0.0000 0.0000 0.0000 43.3382 0.0000 0.0000
# 5 0.0000 0.0000 0.0000 0.0000 -31.1723 0.0000
# 6 0.0000 0.0000 0.0000 0.0000 0.0000 -20.5764
#
#
#
# Elastic Compliance Matrix: (Units=1/GPa)
#
#
# Indices 1 2 3 4 5 6 
#
# 1 0.012050 -0.001560 -0.003567 0.000000 0.000000 0.000000
# 2 -0.001560 0.009288 -0.000486 0.000000 0.000000 0.000000
# 3 -0.003567 -0.000486 0.012276 0.000000 0.000000 0.000000
# 4 0.000000 0.000000 0.000000 0.023074 0.000000 0.000000
# 5 0.000000 0.000000 0.000000 0.000000 -0.032080 0.000000
# 6 0.000000 0.000000 0.000000 0.000000 0.000000 -0.048599
#
#
# Mechanical properties :
#
#
# Convention : Reuss Voigt Hill
#
# Bulk Modulus (GPa) = 44.66686 44.79202 44.72944
# Shear Modulus (GPa) = -943.20397 14.32028 -464.44184
#
# Velocity S-wave (km/s) = -19.95224 2.45847 -14.00086
# Velocity P-wave (km/s) = 22.62603 5.19267 15.57198
#
# Compressibility (1/GPa) = 0.02238796
#
# Stress axis : x y z
#
# Youngs Moduli (GPa) = 82.98873 107.66323 81.45692
#
# Poissons Ratio (x) = 0.16795 0.29058
# Poissons Ratio (y) = 0.12946 0.03958
# Poissons Ratio (z) = 0.29605 0.05232
#
# Static dielectric constant tensor:
#      x y z
#    x 2.007240 0.000000 0.000000 
#    y 0.000000 1.986980 0.000000 
#    z 0.000000 0.000000 1.811470 
# 
# From -- ./inp_files/1704.got.cif
#   From: 2010.05.17/outbox.cif.g08.bks.cpg/sg73_1_cif.got.tgz:1704.got - 2010.06.03 17:35:07.
