data_PCOD9531450
_publ_section_title
;
Structure prediction by ZEFSAII (Michael W. Deem and Ramdas Pophale) SiO2 
 PCOD9531450
Probable space group: I B C A 
;
_chemical_formula_sum "Si O2"
_cell_formula_units_Z 72
_cell_length_a 28.134886
_cell_length_b 7.975028
_cell_length_c 15.703560
_cell_angle_alpha 90.000000
_cell_angle_beta 90.000000
_cell_angle_gamma 90.000000
_cell_volume 3523.509887
_symmetry_space_group_name_H-M "I B C A "
_symmetry_group_IT_number 73
_symmetry_cell_setting 'orthorhombic'
loop_
_space_group_symop_operation_xyz
x,y,z
-x,1/2-y,z
x,-y,1/2-z
1/2-x,y,-z
-x,-y,-z
x,1/2+y,-z
-x,y,1/2+z
1/2+x,-y,z
1/2+x,1/2+y,1/2+z
1/2-x,-y,1/2+z
1/2+x,1/2-y,-z
-x,1/2+y,1/2-z
1/2-x,1/2-y,1/2-z
1/2+x,y,1/2-z
1/2-x,1/2+y,z
x,1/2-y,1/2+z
loop_
_atom_site_type_symbol
_atom_site_label
_atom_site_fract_x
_atom_site_fract_y
_atom_site_fract_z
Si Si1 0.562436 0.500000 0.250000
Si Si2 0.365828 0.000000 0.750000
Si Si3 0.000000 0.250000 0.137279
Si Si4 0.367047 0.031751 0.099420
Si Si5 0.299855 0.315445 0.711383
Si Si6 0.098771 0.156133 0.082203
O O1 0.528355 0.624903 0.199303
O O2 0.596752 0.420202 0.177150
O O3 0.333622 0.162230 0.734859
O O4 0.394201 0.037230 0.836092
O O5 0.042404 0.184067 0.078682
O O6 0.317056 0.129125 0.116235
O O7 0.371673 0.828545 0.099999
O O8 0.384452 0.083000 0.006675
O O9 0.307771 0.500000 0.750000
O O10 0.250000 0.250000 0.750000
#
# Coordination Sequence:
#
# PCOD9531450 Si02
#       6
#     8   8   8  16  16  16
#     4  10  21  39  64  90 144 178 238 291 341 420
#     4  12  23  43  74 100 142 194 226 291 367 416
#     4  10  22  38  62 102 134 190 248 284 342 418
#     4  11  23  42  65  98 142 189 230 294 359 421
#     4  12  23  44  74 102 136 177 235 288 358 432
#     4  11  24  41  69 100 146 192 239 292 352 421
#
# _framework density 20.434169000000001
#
# number of rings (size 3 to 8) (size 9 to 14) (size 15 to 20)
#    0.000    0.889    4.444    3.333    0.000    6.222 
#    0.000    1.111    0.000    0.000    0.000    0.000 
#    0.000    0.000    0.000    0.000    0.000    0.000 
#
# Total GULP energy -200424.000173 kJ/mol
# GULP energy per Si atom -5567.333338 kJ/mol
# Density = 2.038766 g / cm^3
# Si number density = 20.434169 Si / 1000 Ang^3
#
#
#
# Elastic Constant Matrix: (Units=GPa)
#
#
# Indices 1 2 3 4 5 6 
#
# 1 107.7721 43.9383 51.9327 0.0000 0.0000 0.0000
# 2 43.9383 114.5660 34.4990 0.0000 0.0000 0.0000
# 3 51.9327 34.4990 153.4958 0.0000 0.0000 0.0000
# 4 0.0000 0.0000 0.0000 26.0260 0.0000 0.0000
# 5 0.0000 0.0000 0.0000 0.0000 -303.8118 0.0000
# 6 0.0000 0.0000 0.0000 0.0000 0.0000 33.2317
#
#
#
# Elastic Compliance Matrix: (Units=1/GPa)
#
#
# Indices 1 2 3 4 5 6 
#
# 1 0.012429 -0.003755 -0.003361 0.000000 0.000000 0.000000
# 2 -0.003755 0.010496 -0.001089 0.000000 0.000000 0.000000
# 3 -0.003361 -0.001089 0.007897 0.000000 0.000000 0.000000
# 4 0.000000 0.000000 0.000000 0.038423 0.000000 0.000000
# 5 0.000000 0.000000 0.000000 0.000000 -0.003292 0.000000
# 6 0.000000 0.000000 0.000000 0.000000 0.000000 0.030092
#
#
# Mechanical properties :
#
#
# Convention : Reuss Voigt Hill
#
# Bulk Modulus (GPa) = 69.38230 70.73044 70.05637
# Shear Modulus (GPa) = 42.64027 -32.54655 5.04686
#
# Velocity S-wave (km/s) = 4.57301 -3.99526 1.57327
# Velocity P-wave (km/s) = 7.86836 3.66144 6.13666
#
# Compressibility (1/GPa) = 0.01441290
#
# Stress axis : x y z
#
# Youngs Moduli (GPa) = 80.45448 95.27023 126.63328
#
# Poissons Ratio (x) = 0.35771 0.42566
# Poissons Ratio (y) = 0.30208 0.13788
# Poissons Ratio (z) = 0.27044 0.10373
#
# Static dielectric constant tensor:
#      x y z
#    x 1.828500 0.000000 0.000000 
#    y 0.000000 1.776310 0.000000 
#    z 0.000000 0.000000 1.792740 
# 
# From -- ./inp_files/4854.got.cif
#   From: 2010.05.17/outbox.cif.g08.bks.cpg/sg73_3_cif.got.tgz:4854.got - 2010.06.03 17:35:07.
