data_PCOD9531299
_publ_section_title
;
Structure prediction by ZEFSAII (Michael W. Deem and Ramdas Pophale) SiO2 
 PCOD9531299
Probable space group: I B C A 
;
_chemical_formula_sum "Si O2"
_cell_formula_units_Z 88
_cell_length_a 28.812437
_cell_length_b 8.982268
_cell_length_c 15.610705
_cell_angle_alpha 90.000000
_cell_angle_beta 90.000000
_cell_angle_gamma 90.000000
_cell_volume 4040.066547
_symmetry_space_group_name_H-M "I B C A "
_symmetry_group_IT_number 73
_symmetry_cell_setting 'orthorhombic'
loop_
_space_group_symop_operation_xyz
x,y,z
-x,1/2-y,z
x,-y,1/2-z
1/2-x,y,-z
-x,-y,-z
x,1/2+y,-z
-x,y,1/2+z
1/2+x,-y,z
1/2+x,1/2+y,1/2+z
1/2-x,-y,1/2+z
1/2+x,1/2-y,-z
-x,1/2+y,1/2-z
1/2-x,1/2-y,1/2-z
1/2+x,y,1/2-z
1/2-x,1/2+y,z
x,1/2-y,1/2+z
loop_
_atom_site_type_symbol
_atom_site_label
_atom_site_fract_x
_atom_site_fract_y
_atom_site_fract_z
Si Si1 0.005250 0.424772 0.407312
Si Si2 0.724098 0.187730 0.381722
Si Si3 0.063356 0.000000 0.250000
Si Si4 0.698815 0.515509 0.449919
Si Si5 0.388061 0.458653 0.630889
Si Si6 0.139689 0.255535 0.733986
O O1 0.969408 0.466622 0.331674
O O2 0.000000 0.250000 0.420740
O O3 0.000000 0.500000 0.500000
O O4 0.057296 0.458863 0.375871
O O5 0.716564 0.351864 0.422088
O O6 0.709665 0.070376 0.454894
O O7 0.777556 0.130783 0.379949
O O8 0.689909 0.185536 0.299402
O O9 0.098732 0.872022 0.280631
O O10 0.643073 0.521430 0.452171
O O11 0.370013 0.303709 0.670743
O O12 0.371254 0.603694 0.682896
#
# Coordination Sequence:
#
# PCOD9531299 Si02
#       6
#    16  16   8  16  16  16
#     4  12  29  46  72 107 140 189 241 293 362 438
#     4  10  21  38  63  95 132 181 224 281 355 418
#     4  12  26  46  72 100 144 184 232 306 354 418
#     4  10  21  37  62  94 134 176 223 289 338 419
#     4  10  23  44  65  93 135 176 229 288 351 413
#     4  10  23  42  67  94 130 182 224 286 352 416
#
# _framework density 21.78182
#
# number of rings (size 3 to 8) (size 9 to 14) (size 15 to 20)
#    0.000    1.455    1.818    3.273    5.091    5.091 
#    0.000    1.818    0.000    0.000    0.000    0.000 
#    0.000    0.000    0.000    0.000    0.000    0.000 
#
# Total GULP energy -244982.430967 kJ/mol
# GULP energy per Si atom -5567.782522 kJ/mol
# Density = 2.173224 g / cm^3
# Si number density = 21.781820 Si / 1000 Ang^3
#
#
#
# Elastic Constant Matrix: (Units=GPa)
#
#
# Indices 1 2 3 4 5 6 
#
# 1 80.5935 -5.7542 -10.6241 0.0000 0.0000 0.0000
# 2 -5.7542 73.9579 5.7309 0.0000 0.0000 0.0000
# 3 -10.6241 5.7309 52.3388 0.0000 0.0000 0.0000
# 4 0.0000 0.0000 0.0000 31.7110 0.0000 0.0000
# 5 0.0000 0.0000 0.0000 0.0000 36.2159 0.0000
# 6 0.0000 0.0000 0.0000 0.0000 0.0000 0.8960
#
#
#
# Elastic Compliance Matrix: (Units=1/GPa)
#
#
# Indices 1 2 3 4 5 6 
#
# 1 0.012796 0.000801 0.002510 0.000000 0.000000 0.000000
# 2 0.000801 0.013687 -0.001336 0.000000 0.000000 0.000000
# 3 0.002510 -0.001336 0.019762 0.000000 0.000000 0.000000
# 4 0.000000 0.000000 0.000000 0.031535 0.000000 0.000000
# 5 0.000000 0.000000 0.000000 0.000000 0.027612 0.000000
# 6 0.000000 0.000000 0.000000 0.000000 0.000000 1.116043
#
#
# Mechanical properties :
#
#
# Convention : Reuss Voigt Hill
#
# Bulk Modulus (GPa) = 19.92250 20.62172 20.27211
# Shear Modulus (GPa) = 4.05115 28.26709 16.15912
#
# Velocity S-wave (km/s) = 1.36525 3.60632 2.72667
# Velocity P-wave (km/s) = 3.41342 5.17964 4.38635
#
# Compressibility (1/GPa) = 0.05019449
#
# Stress axis : x y z
#
# Youngs Moduli (GPa) = 78.14951 73.06167 50.60216
#
# Poissons Ratio (x) = -0.05853 -0.12700
# Poissons Ratio (y) = -0.06261 0.06761
# Poissons Ratio (z) = -0.19613 0.09762
#
# Static dielectric constant tensor:
#      x y z
#    x 1.903400 0.000000 0.000000 
#    y 0.000000 1.768740 0.000000 
#    z 0.000000 0.000000 1.908590 
# 
# From -- ./inp_files/24120.got.cif
#   From: 2010.05.17/outbox.cif.g08.bks.cpg/sg73_13_cif.got.tgz:24120.got - 2010.06.03 17:35:07.
