data_PCOD9531972
_publ_section_title
;
Structure prediction by ZEFSAII (Michael W. Deem and Ramdas Pophale) SiO2 
 PCOD9531972
Probable space group: I B C A 
;
_chemical_formula_sum "Si O2"
_cell_formula_units_Z 120
_cell_length_a 27.824464
_cell_length_b 12.017589
_cell_length_c 17.983272
_cell_angle_alpha 90.000000
_cell_angle_beta 90.000000
_cell_angle_gamma 90.000000
_cell_volume 6013.299947
_symmetry_space_group_name_H-M "I B C A "
_symmetry_group_IT_number 73
_symmetry_cell_setting 'orthorhombic'
loop_
_space_group_symop_operation_xyz
x,y,z
-x,1/2-y,z
x,-y,1/2-z
1/2-x,y,-z
-x,-y,-z
x,1/2+y,-z
-x,y,1/2+z
1/2+x,-y,z
1/2+x,1/2+y,1/2+z
1/2-x,-y,1/2+z
1/2+x,1/2-y,-z
-x,1/2+y,1/2-z
1/2-x,1/2-y,1/2-z
1/2+x,y,1/2-z
1/2-x,1/2+y,z
x,1/2-y,1/2+z
loop_
_atom_site_type_symbol
_atom_site_label
_atom_site_fract_x
_atom_site_fract_y
_atom_site_fract_z
Si Si1 0.698712 0.346703 0.516010
Si Si2 0.346438 0.930129 0.137858
Si Si3 0.677128 0.055042 0.412364
Si Si4 0.699632 0.223943 0.286121
Si Si5 0.355931 0.649774 0.932421
Si Si6 0.449461 0.297416 0.648438
Si Si7 0.429231 0.500000 0.750000
Si Si8 0.117072 0.094521 0.304347
O O1 0.750000 0.290369 0.500000
O O2 0.664636 0.376871 0.444827
O O3 0.712647 0.460730 0.557548
O O4 0.669225 0.268243 0.571196
O O5 0.319270 0.844868 0.190257
O O6 0.396694 0.945575 0.183267
O O7 0.333023 0.058832 0.122958
O O8 0.700950 0.144413 0.358543
O O9 0.653870 0.113055 0.483525
O O10 0.636538 0.981863 0.371354
O O11 0.750000 0.250000 0.250000
O O12 0.662543 0.156286 0.234173
O O13 0.412139 0.657344 0.913348
O O14 0.500000 0.250000 0.621055
O O15 0.455439 0.396540 0.709162
O O16 0.420711 0.191296 0.680516
O O17 0.096362 0.000000 0.250000
#
# Coordination Sequence:
#
# PCOD9531972 Si02
#       8
#    16  16  16  16  16  16   8  16
#     4  11  23  39  62  91 126 175 224 264 320 386
#     4  10  22  40  61  89 125 173 214 261 328 378
#     4  10  22  42  62  89 127 174 216 273 330 376
#     4  11  23  40  63  96 134 174 224 268 327 392
#     4  10  22  42  66  88 129 171 218 276 321 394
#     4  11  23  42  71  99 128 167 219 273 341 397
#     4  10  22  44  68  94 128 170 214 272 336 400
#     4  10  22  41  63  91 131 169 212 276 330 386
#
# _framework density 19.955765
#
# number of rings (size 3 to 8) (size 9 to 14) (size 15 to 20)
#    0.000    1.600    4.000    0.000    2.800    3.200 
#    3.600    0.667    0.000    3.200    0.000    0.000 
#    0.000    0.000    0.000    0.000    0.000    0.000 
#
# Total GULP energy -334284.339935 kJ/mol
# GULP energy per Si atom -5571.405666 kJ/mol
# Density = 1.991034 g / cm^3
# Si number density = 19.955765 Si / 1000 Ang^3
#
#
#
# Elastic Constant Matrix: (Units=GPa)
#
#
# Indices 1 2 3 4 5 6 
#
# 1 64.3503 43.6576 14.1093 0.0000 0.0000 0.0000
# 2 43.6576 126.0391 42.3123 0.0000 0.0000 0.0000
# 3 14.1093 42.3123 74.3330 0.0000 0.0000 0.0000
# 4 0.0000 0.0000 0.0000 28.8580 0.0000 0.0000
# 5 0.0000 0.0000 0.0000 0.0000 10.2642 0.0000
# 6 0.0000 0.0000 0.0000 0.0000 0.0000 2.5045
#
#
#
# Elastic Compliance Matrix: (Units=1/GPa)
#
#
# Indices 1 2 3 4 5 6 
#
# 1 0.020316 -0.007099 0.000185 0.000000 0.000000 0.000000
# 2 -0.007099 0.012289 -0.005648 0.000000 0.000000 0.000000
# 3 0.000185 -0.005648 0.016633 0.000000 0.000000 0.000000
# 4 0.000000 0.000000 0.000000 0.034652 0.000000 0.000000
# 5 0.000000 0.000000 0.000000 0.000000 0.097426 0.000000
# 6 0.000000 0.000000 0.000000 0.000000 0.000000 0.399285
#
#
# Mechanical properties :
#
#
# Convention : Reuss Voigt Hill
#
# Bulk Modulus (GPa) = 41.47058 51.65340 46.56199
# Shear Modulus (GPa) = 8.14648 19.30156 13.72402
#
# Velocity S-wave (km/s) = 2.02265 3.11339 2.62529
# Velocity P-wave (km/s) = 5.12652 6.23413 5.70726
#
# Compressibility (1/GPa) = 0.02411348
#
# Stress axis : x y z
#
# Youngs Moduli (GPa) = 49.22311 81.37360 60.12239
#
# Poissons Ratio (x) = 0.57767 -0.01111
# Poissons Ratio (y) = 0.34943 0.33956
# Poissons Ratio (z) = -0.00910 0.45958
#
# Static dielectric constant tensor:
#      x y z
#    x 1.703910 0.000000 0.000000 
#    y 0.000000 1.743670 0.000000 
#    z 0.000000 0.000000 1.774870 
# 
# From -- ./inp_files/23959.got.cif
#   From: 2010.05.17/outbox.cif.g08.bks.cpg/sg73_12_cif.got.tgz:23959.got - 2010.06.03 17:35:07.
