data_PCOD9531630
_publ_section_title
;
Structure prediction by ZEFSAII (Michael W. Deem and Ramdas Pophale) SiO2 
 PCOD9531630
Probable space group: I B C A 
;
_chemical_formula_sum "Si O2"
_cell_formula_units_Z 112
_cell_length_a 29.751100
_cell_length_b 15.786243
_cell_length_c 10.384761
_cell_angle_alpha 90.000000
_cell_angle_beta 90.000000
_cell_angle_gamma 90.000000
_cell_volume 4877.287059
_symmetry_space_group_name_H-M "I B C A "
_symmetry_group_IT_number 73
_symmetry_cell_setting 'orthorhombic'
loop_
_space_group_symop_operation_xyz
x,y,z
-x,1/2-y,z
x,-y,1/2-z
1/2-x,y,-z
-x,-y,-z
x,1/2+y,-z
-x,y,1/2+z
1/2+x,-y,z
1/2+x,1/2+y,1/2+z
1/2-x,-y,1/2+z
1/2+x,1/2-y,-z
-x,1/2+y,1/2-z
1/2-x,1/2-y,1/2-z
1/2+x,y,1/2-z
1/2-x,1/2+y,z
x,1/2-y,1/2+z
loop_
_atom_site_type_symbol
_atom_site_label
_atom_site_fract_x
_atom_site_fract_y
_atom_site_fract_z
Si Si1 0.121698 0.736941 0.365107
Si Si2 0.614190 0.586798 0.333876
Si Si3 0.300685 0.950645 0.498787
Si Si4 0.644810 0.589647 0.742025
Si Si5 0.301805 0.145549 0.502557
Si Si6 0.031733 0.673629 0.458360
Si Si7 0.013698 0.411616 0.317315
O O1 0.116949 0.671480 0.248705
O O2 0.117473 0.833140 0.320249
O O3 0.169720 0.714243 0.425122
O O4 0.082518 0.706716 0.460120
O O5 0.616986 0.500000 0.250000
O O6 0.657861 0.589564 0.422625
O O7 0.563113 0.584925 0.385856
O O8 0.250000 0.917371 0.500000
O O9 0.316374 0.940275 0.644576
O O10 0.299978 0.048487 0.449338
O O11 0.618153 0.500000 0.750000
O O12 0.670284 0.628598 0.865857
O O13 0.250000 0.172810 0.500000
O O14 0.019194 0.647821 0.310767
O O15 0.000000 0.750000 0.497102
O O16 0.022181 0.607232 0.571598
O O17 0.004524 0.500000 0.250000
#
# Coordination Sequence:
#
# PCOD9531630 Si02
#       7
#    16  16  16  16  16  16  16
#     4  11  25  43  70 100 139 190 242 299 377 445
#     4  10  21  41  70 101 141 190 240 296 368 446
#     4  10  22  40  68 100 141 193 240 297 362 435
#     4  10  25  44  63 101 144 186 249 302 365 435
#     4  10  23  43  67 102 143 186 240 304 367 441
#     4  11  25  45  70 105 143 192 241 313 376 445
#     4  10  23  45  73 105 143 187 248 303 379 451
#
# _framework density 22.963587
#
# number of rings (size 3 to 8) (size 9 to 14) (size 15 to 20)
#    0.000    1.714    1.429    0.857    6.000    4.000 
#    0.000    1.429    0.000    0.000    0.000    0.000 
#    0.000    0.000    0.000    0.000    0.000    0.000 
#
# Total GULP energy -312484.746822 kJ/mol
# GULP energy per Si atom -5580.084765 kJ/mol
# Density = 2.291132 g / cm^3
# Si number density = 22.963587 Si / 1000 Ang^3
#
#
#
# Elastic Constant Matrix: (Units=GPa)
#
#
# Indices 1 2 3 4 5 6 
#
# 1 145.8987 48.2933 44.6707 0.0000 0.0000 0.0000
# 2 48.2933 124.5317 33.0780 0.0000 0.0000 0.0000
# 3 44.6707 33.0780 64.8146 0.0000 0.0000 0.0000
# 4 0.0000 0.0000 0.0000 51.9534 0.0000 0.0000
# 5 0.0000 0.0000 0.0000 0.0000 -14.5768 0.0000
# 6 0.0000 0.0000 0.0000 0.0000 0.0000 55.8088
#
#
#
# Elastic Compliance Matrix: (Units=1/GPa)
#
#
# Indices 1 2 3 4 5 6 
#
# 1 0.009168 -0.002171 -0.005211 0.000000 0.000000 0.000000
# 2 -0.002171 0.009804 -0.003507 0.000000 0.000000 0.000000
# 3 -0.005211 -0.003507 0.020809 0.000000 0.000000 0.000000
# 4 0.000000 0.000000 0.000000 0.019248 0.000000 0.000000
# 5 0.000000 0.000000 0.000000 0.000000 -0.068602 0.000000
# 6 0.000000 0.000000 0.000000 0.000000 0.000000 0.017918
#
#
# Mechanical properties :
#
#
# Convention : Reuss Voigt Hill
#
# Bulk Modulus (GPa) = 55.54379 65.25879 60.40129
# Shear Modulus (GPa) = 138.41180 32.58396 85.49788
#
# Velocity S-wave (km/s) = 7.77209 3.77097 6.10842
# Velocity P-wave (km/s) = 10.23624 6.88770 8.72413
#
# Compressibility (1/GPa) = 0.01800381
#
# Stress axis : x y z
#
# Youngs Moduli (GPa) = 109.07300 102.00347 48.05509
#
# Poissons Ratio (x) = 0.22149 0.25040
# Poissons Ratio (y) = 0.23684 0.16852
# Poissons Ratio (z) = 0.56834 0.35770
#
# Static dielectric constant tensor:
#      x y z
#    x 1.881900 0.000000 0.000000 
#    y 0.000000 1.946360 0.000000 
#    z 0.000000 0.000000 1.867410 
# 
# From -- ./inp_files/14808.got.cif
#   From: 2010.05.17/outbox.cif.g08.bks.cpg/sg73_8_cif.got.tgz:14808.got - 2010.06.03 17:35:07.
