data_PCOD9531121
_publ_section_title
;
Structure prediction by ZEFSAII (Michael W. Deem and Ramdas Pophale) SiO2 
 PCOD9531121
Probable space group: I B C A 
;
_chemical_formula_sum "Si O2"
_cell_formula_units_Z 88
_cell_length_a 21.697368
_cell_length_b 19.331073
_cell_length_c 8.172960
_cell_angle_alpha 90.000000
_cell_angle_beta 90.000000
_cell_angle_gamma 90.000000
_cell_volume 3428.012439
_symmetry_space_group_name_H-M "I B C A "
_symmetry_group_IT_number 73
_symmetry_cell_setting 'orthorhombic'
loop_
_space_group_symop_operation_xyz
x,y,z
-x,1/2-y,z
x,-y,1/2-z
1/2-x,y,-z
-x,-y,-z
x,1/2+y,-z
-x,y,1/2+z
1/2+x,-y,z
1/2+x,1/2+y,1/2+z
1/2-x,-y,1/2+z
1/2+x,1/2-y,-z
-x,1/2+y,1/2-z
1/2-x,1/2-y,1/2-z
1/2+x,y,1/2-z
1/2-x,1/2+y,z
x,1/2-y,1/2+z
loop_
_atom_site_type_symbol
_atom_site_label
_atom_site_fract_x
_atom_site_fract_y
_atom_site_fract_z
Si Si1 0.941787 0.365819 0.022884
Si Si2 0.891866 0.989417 0.572156
Si Si3 0.070625 0.833152 0.109570
Si Si4 0.308119 0.500000 0.750000
Si Si5 0.686562 0.736258 0.069342
Si Si6 0.814895 0.855724 0.128750
O O1 0.942136 0.448410 0.065236
O O2 0.926614 0.327579 0.194024
O O3 0.888279 0.369357 0.886477
O O4 0.000586 0.327240 0.950815
O O5 0.918528 0.913647 0.572096
O O6 0.859593 0.000000 0.750000
O O7 0.846700 0.989274 0.417052
O O8 0.124081 0.790987 0.016917
O O9 0.281603 0.423804 0.700141
O O10 0.688472 0.708856 0.251675
O O11 0.750000 0.704408 0.000000
O O12 0.694359 0.819570 0.049097
#
# Coordination Sequence:
#
# PCOD9531121 Si02
#       6
#    16  16  16   8  16  16
#     4  10  22  37  69 107 146 188 239 322 383 462
#     4   9  19  35  64 105 150 191 238 304 390 468
#     4  11  21  40  65 106 147 192 248 305 389 460
#     4  10  20  42  74 102 148 192 246 318 384 460
#     4  12  26  46  73  99 144 201 252 312 380 465
#     4  11  24  46  72 105 142 190 252 310 391 456
#
# _framework density 25.670853999999999
#
# number of rings (size 3 to 8) (size 9 to 14) (size 15 to 20)
#    0.000    1.455    1.818    3.273    2.545    0.727 
#    1.636    4.545    6.000    0.000    0.000    0.000 
#    0.000    0.000    0.000    0.000    0.000    0.000 
#
# Total GULP energy -245384.264353 kJ/mol
# GULP energy per Si atom -5576.915099 kJ/mol
# Density = 2.561243 g / cm^3
# Si number density = 25.670854 Si / 1000 Ang^3
#
#
#
# Elastic Constant Matrix: (Units=GPa)
#
#
# Indices 1 2 3 4 5 6 
#
# 1 73.1509 20.4242 8.9061 0.0000 0.0000 0.0000
# 2 20.4242 191.0552 42.1711 0.0000 0.0000 0.0000
# 3 8.9061 42.1711 116.4595 0.0000 0.0000 0.0000
# 4 0.0000 0.0000 0.0000 55.7162 0.0000 0.0000
# 5 0.0000 0.0000 0.0000 0.0000 43.4932 0.0000
# 6 0.0000 0.0000 0.0000 0.0000 0.0000 24.5544
#
#
#
# Elastic Compliance Matrix: (Units=1/GPa)
#
#
# Indices 1 2 3 4 5 6 
#
# 1 0.014127 -0.001382 -0.000580 0.000000 0.000000 0.000000
# 2 -0.001382 0.005824 -0.002003 0.000000 0.000000 0.000000
# 3 -0.000580 -0.002003 0.009356 0.000000 0.000000 0.000000
# 4 0.000000 0.000000 0.000000 0.017948 0.000000 0.000000
# 5 0.000000 0.000000 0.000000 0.000000 0.022992 0.000000
# 6 0.000000 0.000000 0.000000 0.000000 0.000000 0.040726
#
#
# Mechanical properties :
#
#
# Convention : Reuss Voigt Hill
#
# Bulk Modulus (GPa) = 46.77973 58.18537 52.48255
# Shear Modulus (GPa) = 39.67324 45.36370 42.51847
#
# Velocity S-wave (km/s) = 3.93550 4.20828 4.07417
# Velocity P-wave (km/s) = 6.23805 6.80647 6.52845
#
# Compressibility (1/GPa) = 0.02137678
#
# Stress axis : x y z
#
# Youngs Moduli (GPa) = 70.78700 171.70276 106.87867
#
# Poissons Ratio (x) = 0.23733 0.06197
# Poissons Ratio (y) = 0.09784 0.21410
# Poissons Ratio (z) = 0.04104 0.34396
#
# Static dielectric constant tensor:
#      x y z
#    x 2.231320 0.000000 0.000000 
#    y 0.000000 2.089430 0.000000 
#    z 0.000000 0.000000 2.056240 
# 
# From -- ./inp_files/7048.got.cif
#   From: 2010.05.17/outbox.cif.g08.bks.cpg/sg73_4_cif.got.tgz:7048.got - 2010.06.03 17:35:07.
