data_PCOD9531128
_publ_section_title
;
Structure prediction by ZEFSAII (Michael W. Deem and Ramdas Pophale) SiO2 
 PCOD9531128
Probable space group: I B C A 
;
_chemical_formula_sum "Si O2"
_cell_formula_units_Z 96
_cell_length_a 13.109166
_cell_length_b 14.797802
_cell_length_c 19.942687
_cell_angle_alpha 90.000000
_cell_angle_beta 90.000000
_cell_angle_gamma 90.000000
_cell_volume 3868.618889
_symmetry_space_group_name_H-M "I B C A "
_symmetry_group_IT_number 73
_symmetry_cell_setting 'orthorhombic'
loop_
_space_group_symop_operation_xyz
x,y,z
-x,1/2-y,z
x,-y,1/2-z
1/2-x,y,-z
-x,-y,-z
x,1/2+y,-z
-x,y,1/2+z
1/2+x,-y,z
1/2+x,1/2+y,1/2+z
1/2-x,-y,1/2+z
1/2+x,1/2-y,-z
-x,1/2+y,1/2-z
1/2-x,1/2-y,1/2-z
1/2+x,y,1/2-z
1/2-x,1/2+y,z
x,1/2-y,1/2+z
loop_
_atom_site_type_symbol
_atom_site_label
_atom_site_fract_x
_atom_site_fract_y
_atom_site_fract_z
Si Si1 0.560465 0.999109 0.612417
Si Si2 0.704796 0.758516 0.667673
Si Si3 0.061182 0.887742 0.012198
Si Si4 0.374599 0.147343 0.207727
Si Si5 0.645503 0.286761 0.978446
Si Si6 0.571370 0.903682 0.222559
O O1 0.606566 0.950678 0.546632
O O2 0.634939 0.059792 0.658985
O O3 0.501238 0.930730 0.660555
O O4 0.471963 0.060299 0.578410
O O5 0.676769 0.839965 0.717897
O O6 0.823359 0.730898 0.669060
O O7 0.658121 0.758195 0.594351
O O8 0.652192 0.668747 0.699220
O O9 0.871715 0.699789 0.025296
O O10 0.952986 0.849203 0.983555
O O11 0.494170 0.142108 0.224592
O O12 0.750000 0.334212 0.000000
O O13 0.611017 0.000000 0.250000
#
# Coordination Sequence:
#
# PCOD9531128 Si02
#       6
#    16  16  16  16  16  16
#     4  10  20  43  63  96 129 178 219 280 337 398
#     4  11  22  42  64  97 129 178 215 279 338 410
#     4  10  22  41  70  93 133 178 227 277 340 405
#     4  10  23  39  66  96 129 169 225 273 339 408
#     4  11  23  43  66  98 133 180 227 276 341 416
#     4  10  21  39  63  91 129 170 211 268 338 398
#
# _framework density 24.815056999999999
#
# number of rings (size 3 to 8) (size 9 to 14) (size 15 to 20)
#    0.000    1.667    1.667    2.500    2.333    2.000 
#   30.000    1.667    0.000    0.000    0.000    0.000 
#    0.000    0.000    0.000    0.000    0.000    0.000 
#
# Total GULP energy -267965.326640 kJ/mol
# GULP energy per Si atom -5582.610972 kJ/mol
# Density = 2.475858 g / cm^3
# Si number density = 24.815057 Si / 1000 Ang^3
#
#
#
# Elastic Constant Matrix: (Units=GPa)
#
#
# Indices 1 2 3 4 5 6 
#
# 1 71.6153 36.6655 29.2765 0.0000 0.0000 0.0000
# 2 36.6655 96.2777 41.7188 0.0000 0.0000 0.0000
# 3 29.2765 41.7188 122.0630 0.0000 0.0000 0.0000
# 4 0.0000 0.0000 0.0000 42.5751 0.0000 0.0000
# 5 0.0000 0.0000 0.0000 0.0000 19.7024 0.0000
# 6 0.0000 0.0000 0.0000 0.0000 0.0000 33.3745
#
#
#
# Elastic Compliance Matrix: (Units=1/GPa)
#
#
# Indices 1 2 3 4 5 6 
#
# 1 0.017880 -0.005812 -0.002302 0.000000 0.000000 0.000000
# 2 -0.005812 0.014081 -0.003419 0.000000 0.000000 0.000000
# 3 -0.002302 -0.003419 0.009913 0.000000 0.000000 0.000000
# 4 0.000000 0.000000 0.000000 0.023488 0.000000 0.000000
# 5 0.000000 0.000000 0.000000 0.000000 0.050755 0.000000
# 6 0.000000 0.000000 0.000000 0.000000 0.000000 0.029963
#
#
# Mechanical properties :
#
#
# Convention : Reuss Voigt Hill
#
# Bulk Modulus (GPa) = 53.16548 56.14195 54.65372
# Shear Modulus (GPa) = 28.50371 31.28342 29.89357
#
# Velocity S-wave (km/s) = 3.39284 3.55443 3.47458
# Velocity P-wave (km/s) = 6.06793 6.28638 6.17812
#
# Compressibility (1/GPa) = 0.01880920
#
# Stress axis : x y z
#
# Youngs Moduli (GPa) = 55.92813 71.01603 100.87620
#
# Poissons Ratio (x) = 0.41273 0.23223
# Poissons Ratio (y) = 0.32504 0.34488
# Poissons Ratio (z) = 0.12876 0.24279
#
# Static dielectric constant tensor:
#      x y z
#    x 2.024720 0.000000 0.000000 
#    y 0.000000 1.989950 0.000000 
#    z 0.000000 0.000000 1.970790 
# 
# From -- ./inp_files/26687.got.cif
#   From: 2010.05.17/outbox.cif.g08.bks.cpg/sg73_14_cif.got.tgz:26687.got - 2010.06.03 17:35:07.
