data_PCOD9531865
_publ_section_title
;
Structure prediction by ZEFSAII (Michael W. Deem and Ramdas Pophale) SiO2 
 PCOD9531865
Probable space group: I B C A 
;
_chemical_formula_sum "Si O2"
_cell_formula_units_Z 72
_cell_length_a 11.888906
_cell_length_b 19.331090
_cell_length_c 13.225790
_cell_angle_alpha 90.000000
_cell_angle_beta 90.000000
_cell_angle_gamma 90.000000
_cell_volume 3039.623957
_symmetry_space_group_name_H-M "I B C A "
_symmetry_group_IT_number 73
_symmetry_cell_setting 'orthorhombic'
loop_
_space_group_symop_operation_xyz
x,y,z
-x,1/2-y,z
x,-y,1/2-z
1/2-x,y,-z
-x,-y,-z
x,1/2+y,-z
-x,y,1/2+z
1/2+x,-y,z
1/2+x,1/2+y,1/2+z
1/2-x,-y,1/2+z
1/2+x,1/2-y,-z
-x,1/2+y,1/2-z
1/2-x,1/2-y,1/2-z
1/2+x,y,1/2-z
1/2-x,1/2+y,z
x,1/2-y,1/2+z
loop_
_atom_site_type_symbol
_atom_site_label
_atom_site_fract_x
_atom_site_fract_y
_atom_site_fract_z
Si Si1 0.830814 0.322968 0.371353
Si Si2 0.250000 0.579795 0.000000
Si Si3 0.937446 0.632529 0.639522
Si Si4 0.629252 0.972776 0.359719
Si Si5 0.881442 0.734588 0.821263
O O1 0.800290 0.403315 0.380697
O O2 0.849346 0.297541 0.254357
O O3 0.719419 0.281014 0.396373
O O4 0.959524 0.322785 0.408992
O O5 0.326873 0.624448 0.925880
O O6 0.162394 0.531075 0.939039
O O7 0.904320 0.669781 0.744535
O O8 0.001691 0.558137 0.647118
O O9 0.659499 0.000000 0.250000
O O10 0.000000 0.750000 0.870651
#
# Coordination Sequence:
#
# PCOD9531865 Si02
#       5
#    16   8  16  16  16
#     4   8  18  33  58  89 123 155 209 271 317 399
#     4  12  22  40  60  90 132 174 216 280 334 410
#     4   9  21  35  59  83 122 169 208 276 327 395
#     4  10  22  38  60  91 125 170 222 271 339 409
#     4   9  15  34  62  91 123 160 210 269 337 398
#
# _framework density 23.687141
#
# number of rings (size 3 to 8) (size 9 to 14) (size 15 to 20)
#    1.333    1.333    0.000    2.000    0.000    2.667 
#    0.000    1.111    0.000    0.000   11.556    0.000 
#    0.000    0.000    0.000    0.000    0.000    0.000 
#
# Total GULP energy -200454.863344 kJ/mol
# GULP energy per Si atom -5568.190648 kJ/mol
# Density = 2.363323 g / cm^3
# Si number density = 23.687141 Si / 1000 Ang^3
#
#
#
# Elastic Constant Matrix: (Units=GPa)
#
#
# Indices 1 2 3 4 5 6 
#
# 1 113.8499 61.5028 31.1070 0.0000 0.0000 0.0000
# 2 61.5028 76.2383 37.1999 0.0001 0.0000 0.0001
# 3 31.1070 37.1999 91.7872 0.0001 -0.0001 0.0001
# 4 0.0000 0.0001 0.0001 9.3969 0.0000 0.0001
# 5 0.0000 0.0000 -0.0001 0.0000 10.5732 0.0001
# 6 0.0000 0.0001 0.0001 0.0001 0.0001 -33.2912
#
#
#
# Elastic Compliance Matrix: (Units=1/GPa)
#
#
# Indices 1 2 3 4 5 6 
#
# 1 0.015572 -0.012449 -0.000232 0.000000 0.000000 0.000000
# 2 -0.012449 0.026302 -0.006441 0.000000 0.000000 0.000000
# 3 -0.000232 -0.006441 0.013584 0.000000 0.000000 0.000000
# 4 0.000000 0.000000 0.000000 0.106418 0.000000 0.000000
# 5 0.000000 0.000000 0.000000 0.000000 0.094579 0.000000
# 6 0.000000 0.000000 0.000000 0.000000 0.000000 -0.030038
#
#
# Mechanical properties :
#
#
# Convention : Reuss Voigt Hill
#
# Bulk Modulus (GPa) = 58.09129 60.16610 59.12869
# Shear Modulus (GPa) = 18.49119 7.47350 12.98235
#
# Velocity S-wave (km/s) = 2.79703 1.77818 2.34364
# Velocity P-wave (km/s) = 5.91682 5.44714 5.68683
#
# Compressibility (1/GPa) = 0.01721429
#
# Stress axis : x y z
#
# Youngs Moduli (GPa) = 64.21821 38.01943 73.61707
#
# Poissons Ratio (x) = 0.47330 0.01708
# Poissons Ratio (y) = 0.79945 0.47416
# Poissons Ratio (z) = 0.01490 0.24488
#
# Static dielectric constant tensor:
#      x y z
#    x 1.946520 0.000000 0.000000 
#    y 0.000000 2.047160 0.000000 
#    z 0.000000 0.000000 2.035300 
# 
# From -- ./inp_files/15935.got.cif
#   From: 2010.05.17/outbox.cif.g08.bks.cpg/sg73_8_cif.got.tgz:15935.got - 2010.06.03 17:35:07.
