data_PCOD9531832
_publ_section_title
;
Structure prediction by ZEFSAII (Michael W. Deem and Ramdas Pophale) SiO2 
 PCOD9531832
Probable space group: I B C A 
;
_chemical_formula_sum "Si O2"
_cell_formula_units_Z 120
_cell_length_a 23.764385
_cell_length_b 9.281561
_cell_length_c 25.271586
_cell_angle_alpha 90.000000
_cell_angle_beta 90.000000
_cell_angle_gamma 90.000000
_cell_volume 5574.168609
_symmetry_space_group_name_H-M "I B C A "
_symmetry_group_IT_number 73
_symmetry_cell_setting 'orthorhombic'
loop_
_space_group_symop_operation_xyz
x,y,z
-x,1/2-y,z
x,-y,1/2-z
1/2-x,y,-z
-x,-y,-z
x,1/2+y,-z
-x,y,1/2+z
1/2+x,-y,z
1/2+x,1/2+y,1/2+z
1/2-x,-y,1/2+z
1/2+x,1/2-y,-z
-x,1/2+y,1/2-z
1/2-x,1/2-y,1/2-z
1/2+x,y,1/2-z
1/2-x,1/2+y,z
x,1/2-y,1/2+z
loop_
_atom_site_type_symbol
_atom_site_label
_atom_site_fract_x
_atom_site_fract_y
_atom_site_fract_z
Si Si1 0.522889 0.409977 0.837698
Si Si2 0.435510 0.723242 0.982220
Si Si3 0.657569 0.359187 0.651432
Si Si4 0.674713 0.556775 0.191035
Si Si5 0.893757 0.000000 0.750000
Si Si6 0.741742 0.810071 0.190306
Si Si7 0.578367 0.901149 0.868753
Si Si8 0.394610 0.520078 0.067063
O O1 0.500000 0.250000 0.842551
O O2 0.563947 0.412582 0.787414
O O3 0.474068 0.531768 0.837025
O O4 0.558039 0.445618 0.889814
O O5 0.500000 0.750000 0.999975
O O6 0.436742 0.617920 0.930587
O O7 0.410871 0.876272 0.964779
O O8 0.396349 0.650337 0.026194
O O9 0.647134 0.422087 0.709202
O O10 0.712534 0.262748 0.651684
O O11 0.602136 0.257082 0.645506
O O12 0.657479 0.476053 0.604681
O O13 0.655064 0.500000 0.250000
O O14 0.682954 0.727690 0.180928
O O15 0.735582 0.473605 0.187334
O O16 0.630822 0.501036 0.147791
O O17 0.750000 0.750000 0.250000
#
# Coordination Sequence:
#
# PCOD9531832 Si02
#       8
#    16  16  16  16   8  16  16  16
#     4  11  24  36  51  83 118 154 198 237 287 362
#     4  11  20  36  61  78 112 158 192 252 278 353
#     4   9  21  39  56  83 117 150 192 244 300 358
#     4   9  19  35  56  84 109 148 188 242 291 359
#     4  10  24  34  54  76 114 162 182 238 292 360
#     4   9  18  34  59  81 112 146 188 239 293 352
#     4  10  22  37  55  79 115 155 196 233 299 353
#     4  10  22  37  57  85 114 150 201 242 300 334
#
# _framework density 21.527875000000002
#
# number of rings (size 3 to 8) (size 9 to 14) (size 15 to 20)
#    0.000    2.133    1.333    0.800    7.467    2.133 
#    2.400    0.000    0.000    0.800    0.000    5.600 
#    0.000    0.000    0.000    0.000    0.000    0.000 
#
# Total GULP energy -334446.733515 kJ/mol
# GULP energy per Si atom -5574.112225 kJ/mol
# Density = 2.147888 g / cm^3
# Si number density = 21.527875 Si / 1000 Ang^3
#
#
#
# Elastic Constant Matrix: (Units=GPa)
#
#
# Indices 1 2 3 4 5 6 
#
# 1 45.7358 3.8810 10.2718 0.0000 0.0000 0.0000
# 2 3.8810 64.6768 27.3145 0.0000 0.0000 0.0000
# 3 10.2718 27.3145 78.6808 0.0000 0.0000 0.0000
# 4 0.0000 0.0000 0.0000 24.1227 0.0000 0.0000
# 5 0.0000 0.0000 0.0000 0.0000 19.1860 0.0000
# 6 0.0000 0.0000 0.0000 0.0000 0.0000 35.5803
#
#
#
# Elastic Compliance Matrix: (Units=1/GPa)
#
#
# Indices 1 2 3 4 5 6 
#
# 1 0.022526 -0.000129 -0.002896 0.000000 0.000000 0.000000
# 2 -0.000129 0.018119 -0.006273 0.000000 0.000000 0.000000
# 3 -0.002896 -0.006273 0.015265 0.000000 0.000000 0.000000
# 4 0.000000 0.000000 0.000000 0.041455 0.000000 0.000000
# 5 0.000000 0.000000 0.000000 0.000000 0.052121 0.000000
# 6 0.000000 0.000000 0.000000 0.000000 0.000000 0.028105
#
#
# Mechanical properties :
#
#
# Convention : Reuss Voigt Hill
#
# Bulk Modulus (GPa) = 26.79943 30.22533 28.51238
# Shear Modulus (GPa) = 23.96640 25.61953 24.79297
#
# Velocity S-wave (km/s) = 3.34019 3.45347 3.39731
# Velocity P-wave (km/s) = 5.22988 5.47472 5.35370
#
# Compressibility (1/GPa) = 0.03731423
#
# Stress axis : x y z
#
# Youngs Moduli (GPa) = 44.39297 55.19216 65.50745
#
# Poissons Ratio (x) = 0.00710 0.18972
# Poissons Ratio (y) = 0.00571 0.41094
# Poissons Ratio (z) = 0.12857 0.34623
#
# Static dielectric constant tensor:
#      x y z
#    x 1.828240 0.000000 0.000000 
#    y 0.000000 1.903130 0.000000 
#    z 0.000000 0.000000 1.786060 
# 
# From -- ./inp_files/30540.got.cif
#   From: 2010.05.17/outbox.cif.g08.bks.cpg/sg73_16_cif.got.tgz:30540.got - 2010.06.03 17:35:07.
