data_PCOD9531616
_publ_section_title
;
Structure prediction by ZEFSAII (Michael W. Deem and Ramdas Pophale) SiO2 
 PCOD9531616
Probable space group: I B C A 
;
_chemical_formula_sum "Si O2"
_cell_formula_units_Z 88
_cell_length_a 22.093238
_cell_length_b 13.825894
_cell_length_c 14.688626
_cell_angle_alpha 90.000000
_cell_angle_beta 90.000000
_cell_angle_gamma 90.000000
_cell_volume 4486.769583
_symmetry_space_group_name_H-M "I B C A "
_symmetry_group_IT_number 73
_symmetry_cell_setting 'orthorhombic'
loop_
_space_group_symop_operation_xyz
x,y,z
-x,1/2-y,z
x,-y,1/2-z
1/2-x,y,-z
-x,-y,-z
x,1/2+y,-z
-x,y,1/2+z
1/2+x,-y,z
1/2+x,1/2+y,1/2+z
1/2-x,-y,1/2+z
1/2+x,1/2-y,-z
-x,1/2+y,1/2-z
1/2-x,1/2-y,1/2-z
1/2+x,y,1/2-z
1/2-x,1/2+y,z
x,1/2-y,1/2+z
loop_
_atom_site_type_symbol
_atom_site_label
_atom_site_fract_x
_atom_site_fract_y
_atom_site_fract_z
Si Si1 0.119677 0.352585 0.343186
Si Si2 0.229844 0.398769 0.210542
Si Si3 0.632238 0.447720 0.440561
Si Si4 0.528883 0.856235 0.672334
Si Si5 0.562694 0.000000 0.250000
Si Si6 0.145157 0.859189 0.133805
O O1 0.182505 0.362197 0.286260
O O2 0.117601 0.441138 0.413950
O O3 0.067177 0.361476 0.267058
O O4 0.118003 0.246511 0.386137
O O5 0.253502 0.500000 0.250000
O O6 0.188608 0.418110 0.122658
O O7 0.289289 0.343169 0.179640
O O8 0.575620 0.383346 0.407131
O O9 0.648715 0.423764 0.543431
O O10 0.500000 0.750000 0.663223
O O11 0.479086 0.940400 0.679942
O O12 0.602814 0.918515 0.298000
#
# Coordination Sequence:
#
# PCOD9531616 Si02
#       6
#    16  16  16  16   8  16
#     4  10  21  41  67  87 125 176 201 250 321 376
#     4   9  19  41  66  90 126 163 202 253 313 378
#     4  10  23  41  64  91 127 161 207 261 313 364
#     4  11  21  43  64  87 122 170 211 247 313 376
#     4  12  24  38  62  90 128 162 204 262 296 382
#     4  12  23  39  63 100 125 158 212 263 311 365
#
# _framework density 19.613219999999998
#
# number of rings (size 3 to 8) (size 9 to 14) (size 15 to 20)
#    0.000    1.455    4.545    2.182    0.000    2.182 
#    3.273    3.636    0.000    0.000    0.000    0.000 
#    0.000    0.000    0.000    0.000    0.000    0.000 
#
# Total GULP energy -245595.500067 kJ/mol
# GULP energy per Si atom -5581.715911 kJ/mol
# Density = 1.956858 g / cm^3
# Si number density = 19.613220 Si / 1000 Ang^3
#
#
#
# Elastic Constant Matrix: (Units=GPa)
#
#
# Indices 1 2 3 4 5 6 
#
# 1 76.1356 28.9040 -0.0684 0.0000 0.0000 0.0000
# 2 28.9040 123.4746 6.2233 0.0000 0.0000 0.0000
# 3 -0.0684 6.2233 48.8365 0.0000 0.0000 0.0000
# 4 0.0000 0.0000 0.0000 19.9837 0.0000 0.0000
# 5 0.0000 0.0000 0.0000 0.0000 3.4014 0.0000
# 6 0.0000 0.0000 0.0000 0.0000 0.0000 31.5930
#
#
#
# Elastic Compliance Matrix: (Units=1/GPa)
#
#
# Indices 1 2 3 4 5 6 
#
# 1 0.014426 -0.003400 0.000453 0.000000 0.000000 0.000000
# 2 -0.003400 0.008952 -0.001146 0.000000 0.000000 0.000000
# 3 0.000453 -0.001146 0.020623 0.000000 0.000000 0.000000
# 4 0.000000 0.000000 0.000000 0.050041 0.000000 0.000000
# 5 0.000000 0.000000 0.000000 0.000000 0.293993 0.000000
# 6 0.000000 0.000000 0.000000 0.000000 0.000000 0.031653
#
#
# Mechanical properties :
#
#
# Convention : Reuss Voigt Hill
#
# Bulk Modulus (GPa) = 27.91944 35.39605 31.65774
# Shear Modulus (GPa) = 11.36855 25.22148 18.29502
#
# Velocity S-wave (km/s) = 2.41018 3.58990 3.05747
# Velocity P-wave (km/s) = 4.69161 5.93880 5.35166
#
# Compressibility (1/GPa) = 0.03581734
#
# Stress axis : x y z
#
# Youngs Moduli (GPa) = 69.32157 111.70185 48.48933
#
# Poissons Ratio (x) = 0.37975 -0.02199
# Poissons Ratio (y) = 0.23567 0.05555
# Poissons Ratio (z) = -0.03143 0.12796
#
# Static dielectric constant tensor:
#      x y z
#    x 1.691470 0.000000 0.000000 
#    y 0.000000 1.678280 0.000000 
#    z 0.000000 0.000000 1.654440 
# 
# From -- ./inp_files/17177.got.cif
#   From: 2010.05.17/outbox.cif.g08.bks.cpg/sg73_9_cif.got.tgz:17177.got - 2010.06.03 17:35:07.
