data_PCOD9531404
_publ_section_title
;
Structure prediction by ZEFSAII (Michael W. Deem and Ramdas Pophale) SiO2 
 PCOD9531404
Probable space group: I B C A 
;
_chemical_formula_sum "Si O2"
_cell_formula_units_Z 96
_cell_length_a 8.605974
_cell_length_b 21.509839
_cell_length_c 21.561615
_cell_angle_alpha 90.000000
_cell_angle_beta 90.000000
_cell_angle_gamma 90.000000
_cell_volume 3991.337721
_symmetry_space_group_name_H-M "I B C A "
_symmetry_group_IT_number 73
_symmetry_cell_setting 'orthorhombic'
loop_
_space_group_symop_operation_xyz
x,y,z
-x,1/2-y,z
x,-y,1/2-z
1/2-x,y,-z
-x,-y,-z
x,1/2+y,-z
-x,y,1/2+z
1/2+x,-y,z
1/2+x,1/2+y,1/2+z
1/2-x,-y,1/2+z
1/2+x,1/2-y,-z
-x,1/2+y,1/2-z
1/2-x,1/2-y,1/2-z
1/2+x,y,1/2-z
1/2-x,1/2+y,z
x,1/2-y,1/2+z
loop_
_atom_site_type_symbol
_atom_site_label
_atom_site_fract_x
_atom_site_fract_y
_atom_site_fract_z
Si Si1 0.541538 0.485224 0.321597
Si Si2 0.250000 0.549853 0.000000
Si Si3 0.750000 0.658477 0.000000
Si Si4 0.883691 0.359110 0.169939
Si Si5 0.113094 0.796306 0.728709
Si Si6 0.411484 0.329939 0.473435
Si Si7 0.320880 0.054208 0.600836
O O1 0.554490 0.500000 0.250000
O O2 0.411598 0.432111 0.328963
O O3 0.485434 0.541587 0.365848
O O4 0.695661 0.451275 0.344766
O O5 0.394614 0.598173 0.000346
O O6 0.283285 0.503674 0.055949
O O7 0.717036 0.615018 0.939527
O O8 0.915680 0.691495 0.989676
O O9 0.708350 0.346739 0.191571
O O10 0.902041 0.333147 0.100805
O O11 0.009584 0.326443 0.216337
O O12 0.250000 0.750000 0.750000
O O13 0.000000 0.750000 0.691240
O O14 0.250000 0.303176 0.500000
#
# Coordination Sequence:
#
# PCOD9531404 Si02
#       7
#    16   8   8  16  16  16  16
#     4  12  25  34  52  90 146 179 215 271 325 395
#     4   9  18  36  58  74 129 184 235 274 294 372
#     4  11  20  38  64  82 133 200 245 266 308 380
#     4  11  22  42  68  96 135 167 222 281 343 404
#     4   9  22  46  72  96 116 163 222 284 350 411
#     4  10  21  39  59  98 132 170 233 281 325 395
#     4  11  21  37  53  81 129 196 235 257 309 377
#
# _framework density 24.052085999999999
#
# number of rings (size 3 to 8) (size 9 to 14) (size 15 to 20)
#    0.500    1.000    3.333    1.500    4.667    2.667 
#    6.000    0.000    0.000    3.000    0.000    0.000 
#    0.000    0.000    0.000    0.000    0.000    0.000 
#
# Total GULP energy -268173.450716 kJ/mol
# GULP energy per Si atom -5586.946890 kJ/mol
# Density = 2.399734 g / cm^3
# Si number density = 24.052086 Si / 1000 Ang^3
#
#
#
# Elastic Constant Matrix: (Units=GPa)
#
#
# Indices 1 2 3 4 5 6 
#
# 1 164.9553 43.6633 65.4362 0.0000 0.0000 0.0000
# 2 43.6633 62.4791 19.7010 0.0000 0.0000 0.0000
# 3 65.4362 19.7010 146.2342 0.0000 0.0000 0.0000
# 4 0.0000 0.0000 0.0000 70.6014 0.0000 0.0000
# 5 0.0000 0.0000 0.0000 0.0000 37.0345 0.0000
# 6 0.0000 0.0000 0.0000 0.0000 0.0000 51.5242
#
#
#
# Elastic Compliance Matrix: (Units=1/GPa)
#
#
# Indices 1 2 3 4 5 6 
#
# 1 0.008667 -0.005049 -0.003198 0.000000 0.000000 0.000000
# 2 -0.005049 0.019656 -0.000389 0.000000 0.000000 0.000000
# 3 -0.003198 -0.000389 0.008322 0.000000 0.000000 0.000000
# 4 0.000000 0.000000 0.000000 0.014164 0.000000 0.000000
# 5 0.000000 0.000000 0.000000 0.000000 0.027002 0.000000
# 6 0.000000 0.000000 0.000000 0.000000 0.000000 0.019408
#
#
# Mechanical properties :
#
#
# Convention : Reuss Voigt Hill
#
# Bulk Modulus (GPa) = 51.61643 70.14109 60.87876
# Shear Modulus (GPa) = 41.33961 48.15657 44.74809
#
# Velocity S-wave (km/s) = 4.15028 4.47943 4.31799
# Velocity P-wave (km/s) = 6.66883 7.48192 7.08705
#
# Compressibility (1/GPa) = 0.01937368
#
# Stress axis : x y z
#
# Youngs Moduli (GPa) = 115.37575 50.87442 120.16501
#
# Poissons Ratio (x) = 0.25685 0.38432
# Poissons Ratio (y) = 0.58249 0.04674
# Poissons Ratio (z) = 0.36900 0.01979
#
# Static dielectric constant tensor:
#      x y z
#    x 1.952090 0.000000 0.000000 
#    y 0.000000 1.983590 0.000000 
#    z 0.000000 0.000000 1.972470 
# 
# From -- ./inp_files/24909.got.cif
#   From: 2010.05.17/outbox.cif.g08.bks.cpg/sg73_13_cif.got.tgz:24909.got - 2010.06.03 17:35:07.
