data_PCOD9531995
_publ_section_title
;
Structure prediction by ZEFSAII (Michael W. Deem and Ramdas Pophale) SiO2 
 PCOD9531995
Probable space group: I B C A 
;
_chemical_formula_sum "Si O2"
_cell_formula_units_Z 88
_cell_length_a 20.181362
_cell_length_b 16.826356
_cell_length_c 10.744000
_cell_angle_alpha 90.000000
_cell_angle_beta 90.000000
_cell_angle_gamma 90.000000
_cell_volume 3648.434429
_symmetry_space_group_name_H-M "I B C A "
_symmetry_group_IT_number 73
_symmetry_cell_setting 'orthorhombic'
loop_
_space_group_symop_operation_xyz
x,y,z
-x,1/2-y,z
x,-y,1/2-z
1/2-x,y,-z
-x,-y,-z
x,1/2+y,-z
-x,y,1/2+z
1/2+x,-y,z
1/2+x,1/2+y,1/2+z
1/2-x,-y,1/2+z
1/2+x,1/2-y,-z
-x,1/2+y,1/2-z
1/2-x,1/2-y,1/2-z
1/2+x,y,1/2-z
1/2-x,1/2+y,z
x,1/2-y,1/2+z
loop_
_atom_site_type_symbol
_atom_site_label
_atom_site_fract_x
_atom_site_fract_y
_atom_site_fract_z
Si Si1 0.250000 0.079836 0.000000
Si Si2 0.040017 0.000000 0.750000
Si Si3 0.856351 0.298421 0.430346
Si Si4 0.047675 0.114336 0.155816
Si Si5 0.500000 0.750000 0.481162
Si Si6 0.686658 0.703769 0.672051
Si Si7 0.381685 0.020975 0.500025
O O1 0.234287 0.135941 0.117503
O O2 0.313506 0.025837 0.018229
O O3 0.083120 0.976807 0.867634
O O4 0.996066 0.079864 0.767724
O O5 0.806146 0.274655 0.317933
O O6 0.827464 0.266776 0.562194
O O7 0.866005 0.392885 0.444093
O O8 0.929101 0.257528 0.412902
O O9 0.005638 0.172560 0.068771
O O10 0.114238 0.160770 0.185744
O O11 0.072075 0.035350 0.084456
#
# Coordination Sequence:
#
# PCOD9531995 Si02
#       7
#     8   8  16  16   8  16  16
#     4  10  26  52  68 100 144 190 262 322 376 456
#     4  12  22  38  72 104 142 186 246 304 380 458
#     4  11  24  44  71 112 147 201 251 306 393 448
#     4  10  22  41  63 104 145 187 232 312 377 457
#     4  10  22  40  64 104 158 194 242 306 388 478
#     4  10  25  46  72 102 148 195 248 313 373 448
#     4  11  25  43  72 108 143 200 250 313 384 456
#
# _framework density 24.119934000000001
#
# number of rings (size 3 to 8) (size 9 to 14) (size 15 to 20)
#    0.000    1.455    1.818    1.636    2.545   12.364 
#    0.000    0.000    0.000    0.000    0.000    0.000 
#    0.000    0.000    0.000    0.000    0.000    0.000 
#
# Total GULP energy -246228.114213 kJ/mol
# GULP energy per Si atom -5596.093505 kJ/mol
# Density = 2.406504 g / cm^3
# Si number density = 24.119934 Si / 1000 Ang^3
#
#
#
# Elastic Constant Matrix: (Units=GPa)
#
#
# Indices 1 2 3 4 5 6 
#
# 1 85.3944 34.8170 30.6836 0.0000 0.0000 0.0000
# 2 34.8170 139.7993 54.6903 0.0000 0.0000 0.0000
# 3 30.6836 54.6903 131.9279 0.0000 0.0000 0.0000
# 4 0.0000 0.0000 0.0000 31.9654 0.0000 0.0000
# 5 0.0000 0.0000 0.0000 0.0000 39.7089 0.0000
# 6 0.0000 0.0000 0.0000 0.0000 0.0000 35.6984
#
#
#
# Elastic Compliance Matrix: (Units=1/GPa)
#
#
# Indices 1 2 3 4 5 6 
#
# 1 0.013497 -0.002546 -0.002084 0.000000 0.000000 0.000000
# 2 -0.002546 0.009018 -0.003146 0.000000 0.000000 0.000000
# 3 -0.002084 -0.003146 0.009369 0.000000 0.000000 0.000000
# 4 0.000000 0.000000 0.000000 0.031284 0.000000 0.000000
# 5 0.000000 0.000000 0.000000 0.000000 0.025183 0.000000
# 6 0.000000 0.000000 0.000000 0.000000 0.000000 0.028012
#
#
# Mechanical properties :
#
#
# Convention : Reuss Voigt Hill
#
# Bulk Modulus (GPa) = 61.23029 66.38925 63.80977
# Shear Modulus (GPa) = 36.40073 37.26991 36.83532
#
# Velocity S-wave (km/s) = 3.88900 3.93516 3.91215
# Velocity P-wave (km/s) = 6.75327 6.94490 6.84976
#
# Compressibility (1/GPa) = 0.01633179
#
# Stress axis : x y z
#
# Youngs Moduli (GPa) = 74.08919 110.88816 106.73808
#
# Poissons Ratio (x) = 0.28236 0.22240
# Poissons Ratio (y) = 0.18866 0.33582
# Poissons Ratio (z) = 0.15437 0.34887
#
# Static dielectric constant tensor:
#      x y z
#    x 2.015600 0.000000 0.000000 
#    y 0.000000 1.889870 0.000000 
#    z 0.000000 0.000000 2.033950 
# 
# From -- ./inp_files/12783.got.cif
#   From: 2010.05.17/outbox.cif.g08.bks.cpg/sg73_7_cif.got.tgz:12783.got - 2010.06.03 17:35:07.
