data_PCOD9531349
_publ_section_title
;
Structure prediction by ZEFSAII (Michael W. Deem and Ramdas Pophale) SiO2 
 PCOD9531349
Probable space group: I B C A 
;
_chemical_formula_sum "Si O2"
_cell_formula_units_Z 56
_cell_length_a 5.453406
_cell_length_b 28.130313
_cell_length_c 15.171665
_cell_angle_alpha 90.000000
_cell_angle_beta 90.000000
_cell_angle_gamma 90.000000
_cell_volume 2327.424709
_symmetry_space_group_name_H-M "I B C A "
_symmetry_group_IT_number 73
_symmetry_cell_setting 'orthorhombic'
loop_
_space_group_symop_operation_xyz
x,y,z
-x,1/2-y,z
x,-y,1/2-z
1/2-x,y,-z
-x,-y,-z
x,1/2+y,-z
-x,y,1/2+z
1/2+x,-y,z
1/2+x,1/2+y,1/2+z
1/2-x,-y,1/2+z
1/2+x,1/2-y,-z
-x,1/2+y,1/2-z
1/2-x,1/2-y,1/2-z
1/2+x,y,1/2-z
1/2-x,1/2+y,z
x,1/2-y,1/2+z
loop_
_atom_site_type_symbol
_atom_site_label
_atom_site_fract_x
_atom_site_fract_y
_atom_site_fract_z
Si Si1 0.828105 0.930652 0.698901
Si Si2 0.000895 0.694217 0.948917
Si Si3 0.250000 0.530846 0.500000
Si Si4 0.892036 0.825384 0.765505
O O1 0.593363 0.946795 0.759387
O O2 0.774626 0.942451 0.595828
O O3 0.861657 0.873791 0.711767
O O4 0.037811 0.662436 0.864474
O O5 0.000000 0.750000 0.921853
O O6 0.250000 0.687374 0.000000
O O7 0.750000 0.684932 0.000000
O O8 0.500000 0.500000 0.500000
O O9 0.632266 0.799501 0.769869
#
# Coordination Sequence:
#
# PCOD9531349 Si02
#       4
#    16  16   8  16
#     4  10  23  45  65 100 139 173 222 276 330 406
#     4  10  21  38  61  94 134 176 230 286 338 403
#     4  12  26  44  74 104 132 182 222 272 350 408
#     4  10  21  40  60  93 130 176 219 276 336 388
#
# _framework density 24.060929000000002
#
# number of rings (size 3 to 8) (size 9 to 14) (size 15 to 20)
#    0.000    1.714    0.000    3.429    0.000    4.571 
#   30.857    0.000    0.000    0.000    0.000    0.000 
#    0.000    0.000    0.000    0.000    0.000    0.000 
#
# Total GULP energy -156114.224018 kJ/mol
# GULP energy per Si atom -5575.508001 kJ/mol
# Density = 2.400617 g / cm^3
# Si number density = 24.060929 Si / 1000 Ang^3
#
#
#
# Elastic Constant Matrix: (Units=GPa)
#
#
# Indices 1 2 3 4 5 6 
#
# 1 283.4414 57.3011 84.6701 0.0000 0.0000 0.0000
# 2 57.3011 57.9541 57.7367 0.0000 0.0000 0.0000
# 3 84.6701 57.7367 198.6267 0.0000 0.0000 0.0000
# 4 0.0000 0.0000 0.0000 114.1130 0.0000 0.0000
# 5 0.0000 0.0000 0.0000 0.0000 48.3222 0.0000
# 6 0.0000 0.0000 0.0000 0.0000 0.0000 16.4058
#
#
#
# Elastic Compliance Matrix: (Units=1/GPa)
#
#
# Indices 1 2 3 4 5 6 
#
# 1 0.004517 -0.003586 -0.000883 0.000000 0.000000 0.000000
# 2 -0.003586 0.027136 -0.006359 0.000000 0.000000 0.000000
# 3 -0.000883 -0.006359 0.007259 0.000000 0.000000 0.000000
# 4 0.000000 0.000000 0.000000 0.008763 0.000000 0.000000
# 5 0.000000 0.000000 0.000000 0.000000 0.020694 0.000000
# 6 0.000000 0.000000 0.000000 0.000000 0.000000 0.060954
#
#
# Mechanical properties :
#
#
# Convention : Reuss Voigt Hill
#
# Bulk Modulus (GPa) = 57.95205 104.38201 81.16703
# Shear Modulus (GPa) = 31.90139 58.45583 45.17861
#
# Velocity S-wave (km/s) = 3.64518 4.93433 4.33792
# Velocity P-wave (km/s) = 6.46949 8.71436 7.67445
#
# Compressibility (1/GPa) = 0.01725565
#
# Stress axis : x y z
#
# Youngs Moduli (GPa) = 221.39371 36.85101 137.75141
#
# Poissons Ratio (x) = 0.13216 0.12163
# Poissons Ratio (y) = 0.79398 0.87599
# Poissons Ratio (z) = 0.19548 0.23434
#
# Static dielectric constant tensor:
#      x y z
#    x 2.190220 0.000000 0.000000 
#    y 0.000000 1.991620 0.000000 
#    z 0.000000 0.000000 1.899620 
# 
# From -- ./inp_files/15193.got.cif
#   From: 2010.05.17/outbox.cif.g08.bks.cpg/sg73_8_cif.got.tgz:15193.got - 2010.06.03 17:35:07.
