data_PCOD9531844
_publ_section_title
;
Structure prediction by ZEFSAII (Michael W. Deem and Ramdas Pophale) SiO2 
 PCOD9531844
Probable space group: I B C A 
;
_chemical_formula_sum "Si O2"
_cell_formula_units_Z 96
_cell_length_a 12.541222
_cell_length_b 19.901461
_cell_length_c 17.935601
_cell_angle_alpha 90.000000
_cell_angle_beta 90.000000
_cell_angle_gamma 90.000000
_cell_volume 4476.522271
_symmetry_space_group_name_H-M "I B C A "
_symmetry_group_IT_number 73
_symmetry_cell_setting 'orthorhombic'
loop_
_space_group_symop_operation_xyz
x,y,z
-x,1/2-y,z
x,-y,1/2-z
1/2-x,y,-z
-x,-y,-z
x,1/2+y,-z
-x,y,1/2+z
1/2+x,-y,z
1/2+x,1/2+y,1/2+z
1/2-x,-y,1/2+z
1/2+x,1/2-y,-z
-x,1/2+y,1/2-z
1/2-x,1/2-y,1/2-z
1/2+x,y,1/2-z
1/2-x,1/2+y,z
x,1/2-y,1/2+z
loop_
_atom_site_type_symbol
_atom_site_label
_atom_site_fract_x
_atom_site_fract_y
_atom_site_fract_z
Si Si1 0.916328 0.557261 0.517739
Si Si2 0.740160 0.523777 0.617918
Si Si3 0.294417 0.632544 0.354215
Si Si4 0.426661 0.313779 0.842873
Si Si5 0.062876 0.814241 0.018944
Si Si6 0.069502 0.074001 0.229266
O O1 0.857493 0.546942 0.596256
O O2 0.833027 0.549017 0.450543
O O3 0.000000 0.500000 0.500000
O O4 0.978874 0.625687 0.519173
O O5 0.741554 0.443094 0.623308
O O6 0.681116 0.555539 0.688267
O O7 0.195545 0.672679 0.317222
O O8 0.339138 0.668182 0.427955
O O9 0.394311 0.618192 0.299786
O O10 0.500000 0.250000 0.818131
O O11 0.493005 0.380831 0.821682
O O12 0.410609 0.304990 0.931868
O O13 0.000000 0.750000 0.047797
O O14 0.023920 0.000000 0.250000
#
# Coordination Sequence:
#
# PCOD9531844 Si02
#       6
#    16  16  16  16  16  16
#     4  11  20  37  68  96 126 174 222 278 326 386
#     4  10  22  37  65  99 132 168 224 278 333 387
#     4  11  24  42  67  98 131 177 227 276 337 406
#     4  11  25  44  67  93 137 179 217 277 338 408
#     4  11  24  42  66 100 136 173 221 276 336 400
#     4  10  24  44  65  98 133 174 226 279 339 396
#
# _framework density 21.445219000000002
#
# number of rings (size 3 to 8) (size 9 to 14) (size 15 to 20)
#    0.000    1.333    3.333    1.500    2.333    6.000 
#    3.000    0.000    0.000    0.000    0.000    0.000 
#    0.000    0.000    0.000    0.000    0.000    0.000 
#
# Total GULP energy -268031.424181 kJ/mol
# GULP energy per Si atom -5583.988004 kJ/mol
# Density = 2.139641 g / cm^3
# Si number density = 21.445219 Si / 1000 Ang^3
#
#
#
# Elastic Constant Matrix: (Units=GPa)
#
#
# Indices 1 2 3 4 5 6 
#
# 1 74.0913 33.5764 7.3166 0.0000 0.0000 0.0000
# 2 33.5764 113.9840 3.5805 0.0000 0.0000 0.0000
# 3 7.3166 3.5805 44.2394 0.0000 0.0000 0.0000
# 4 0.0000 0.0000 0.0000 18.8221 0.0000 0.0000
# 5 0.0000 0.0000 0.0000 0.0000 29.4640 0.0000
# 6 0.0000 0.0000 0.0000 0.0000 0.0000 15.4075
#
#
#
# Elastic Compliance Matrix: (Units=1/GPa)
#
#
# Indices 1 2 3 4 5 6 
#
# 1 0.015795 -0.004582 -0.002241 0.000000 0.000000 0.000000
# 2 -0.004582 0.010125 -0.000062 0.000000 0.000000 0.000000
# 3 -0.002241 -0.000062 0.022980 0.000000 0.000000 0.000000
# 4 0.000000 0.000000 0.000000 0.053129 0.000000 0.000000
# 5 0.000000 0.000000 0.000000 0.000000 0.033940 0.000000
# 6 0.000000 0.000000 0.000000 0.000000 0.000000 0.064904
#
#
# Mechanical properties :
#
#
# Convention : Reuss Voigt Hill
#
# Bulk Modulus (GPa) = 28.46642 35.69576 32.08109
# Shear Modulus (GPa) = 22.08945 25.26144 23.67544
#
# Velocity S-wave (km/s) = 3.21291 3.43585 3.32625
# Velocity P-wave (km/s) = 5.20255 5.69397 5.45380
#
# Compressibility (1/GPa) = 0.03512911
#
# Stress axis : x y z
#
# Youngs Moduli (GPa) = 63.31204 98.76637 43.51612
#
# Poissons Ratio (x) = 0.45258 0.09754
# Poissons Ratio (y) = 0.29011 0.00268
# Poissons Ratio (z) = 0.14191 0.00609
#
# Static dielectric constant tensor:
#      x y z
#    x 2.043630 0.000000 0.000000 
#    y 0.000000 1.736870 0.000000 
#    z 0.000000 0.000000 1.834830 
# 
# From -- ./inp_files/25442.got.cif
#   From: 2010.05.17/outbox.cif.g08.bks.cpg/sg73_13_cif.got.tgz:25442.got - 2010.06.03 17:35:07.
