data_PCOD9531569
_publ_section_title
;
Structure prediction by ZEFSAII (Michael W. Deem and Ramdas Pophale) SiO2 
 PCOD9531569
Probable space group: I B C A 
;
_chemical_formula_sum "Si O2"
_cell_formula_units_Z 120
_cell_length_a 8.439888
_cell_length_b 26.203198
_cell_length_c 23.949476
_cell_angle_alpha 90.000000
_cell_angle_beta 90.000000
_cell_angle_gamma 90.000000
_cell_volume 5296.475866
_symmetry_space_group_name_H-M "I B C A "
_symmetry_group_IT_number 73
_symmetry_cell_setting 'orthorhombic'
loop_
_space_group_symop_operation_xyz
x,y,z
-x,1/2-y,z
x,-y,1/2-z
1/2-x,y,-z
-x,-y,-z
x,1/2+y,-z
-x,y,1/2+z
1/2+x,-y,z
1/2+x,1/2+y,1/2+z
1/2-x,-y,1/2+z
1/2+x,1/2-y,-z
-x,1/2+y,1/2-z
1/2-x,1/2-y,1/2-z
1/2+x,y,1/2-z
1/2-x,1/2+y,z
x,1/2-y,1/2+z
loop_
_atom_site_type_symbol
_atom_site_label
_atom_site_fract_x
_atom_site_fract_y
_atom_site_fract_z
Si Si1 0.426992 0.342151 0.478600
Si Si2 0.168966 0.718928 0.877603
Si Si3 0.308813 0.957890 0.298324
Si Si4 0.500000 0.750000 0.941944
Si Si5 0.076637 0.804035 0.262161
Si Si6 0.570840 0.553386 0.981572
Si Si7 0.639745 0.540922 0.855312
Si Si8 0.711828 0.125475 0.789293
O O1 0.250000 0.340623 0.500000
O O2 0.397172 0.328003 0.414383
O O3 0.516854 0.298618 0.515590
O O4 0.493373 0.397526 0.490650
O O5 0.332530 0.741060 0.906891
O O6 0.199889 0.705888 0.812925
O O7 0.000000 0.750000 0.875822
O O8 0.492373 0.954656 0.313517
O O9 0.261896 0.905318 0.269070
O O10 0.289777 0.000000 0.250000
O O11 0.211910 0.983967 0.348842
O O12 0.155038 0.831086 0.209196
O O13 0.000000 0.750000 0.248816
O O14 0.949288 0.843807 0.286222
O O15 0.570550 0.554684 0.914897
O O16 0.750000 0.553675 0.000000
O O17 0.500000 0.500000 0.000000
O O18 0.768795 0.583128 0.836877
#
# Coordination Sequence:
#
# PCOD9531569 Si02
#       8
#    16  16  16   8  16  16  16  16
#     4  10  23  43  71 100 140 181 240 297 357 434
#     4  10  23  42  71 105 138 182 240 300 362 427
#     4  10  21  40  70  99 127 166 229 288 342 417
#     4  10  22  44  74 108 142 186 248 310 354 430
#     4  11  25  44  64  98 141 182 230 291 358 437
#     4  12  28  44  65  98 143 188 230 297 364 446
#     4  11  24  42  70  99 132 180 231 288 357 430
#     4  11  23  44  68  97 136 179 233 288 358 430
#
# _framework density 22.656573999999999
#
# number of rings (size 3 to 8) (size 9 to 14) (size 15 to 20)
#    0.000    1.333    2.000    2.800    5.600    4.267 
#    6.000    0.000    0.000    0.000    0.000    0.000 
#    0.000    0.000    0.000    0.000    0.000    0.000 
#
# Total GULP energy -334921.981258 kJ/mol
# GULP energy per Si atom -5582.033021 kJ/mol
# Density = 2.260501 g / cm^3
# Si number density = 22.656574 Si / 1000 Ang^3
#
#
#
# Elastic Constant Matrix: (Units=GPa)
#
#
# Indices 1 2 3 4 5 6 
#
# 1 49.1450 24.0880 21.3028 0.0000 0.0000 0.0000
# 2 24.0880 138.2259 32.2542 0.0000 0.0000 0.0000
# 3 21.3028 32.2542 41.1316 0.0000 0.0000 0.0000
# 4 0.0000 0.0000 0.0000 18.7673 0.0000 0.0000
# 5 0.0000 0.0000 0.0000 0.0000 18.1047 0.0000
# 6 0.0000 0.0000 0.0000 0.0000 0.0000 43.8043
#
#
#
# Elastic Compliance Matrix: (Units=1/GPa)
#
#
# Indices 1 2 3 4 5 6 
#
# 1 0.026575 -0.001737 -0.012401 0.000000 0.000000 0.000000
# 2 -0.001737 0.008968 -0.006133 0.000000 0.000000 0.000000
# 3 -0.012401 -0.006133 0.035544 0.000000 0.000000 0.000000
# 4 0.000000 0.000000 0.000000 0.053284 0.000000 0.000000
# 5 0.000000 0.000000 0.000000 0.000000 0.055234 0.000000
# 6 0.000000 0.000000 0.000000 0.000000 0.000000 0.022829
#
#
# Mechanical properties :
#
#
# Convention : Reuss Voigt Hill
#
# Bulk Modulus (GPa) = 32.73905 42.64361 37.69133
# Shear Modulus (GPa) = 19.75037 26.19243 22.97140
#
# Velocity S-wave (km/s) = 2.95571 3.40378 3.18763
# Velocity P-wave (km/s) = 5.11173 5.85749 5.49727
#
# Compressibility (1/GPa) = 0.03054457
#
# Stress axis : x y z
#
# Youngs Moduli (GPa) = 37.62928 111.50287 28.13390
#
# Poissons Ratio (x) = 0.19372 0.34890
# Poissons Ratio (y) = 0.06537 0.17254
# Poissons Ratio (z) = 0.46665 0.68384
#
# Static dielectric constant tensor:
#      x y z
#    x 1.805070 0.000000 0.000000 
#    y 0.000000 1.827030 0.000000 
#    z 0.000000 0.000000 1.850530 
# 
# From -- ./inp_files/31420.got.cif
#   From: 2010.05.17/outbox.cif.g08.bks.cpg/sg73_16_cif.got.tgz:31420.got - 2010.06.03 17:35:07.
