data_PCOD9531901
_publ_section_title
;
Structure prediction by ZEFSAII (Michael W. Deem and Ramdas Pophale) SiO2 
 PCOD9531901
Probable space group: I B C A 
;
_chemical_formula_sum "Si O2"
_cell_formula_units_Z 96
_cell_length_a 23.256058
_cell_length_b 9.596641
_cell_length_c 22.507416
_cell_angle_alpha 90.000000
_cell_angle_beta 90.000000
_cell_angle_gamma 90.000000
_cell_volume 5023.205996
_symmetry_space_group_name_H-M "I B C A "
_symmetry_group_IT_number 73
_symmetry_cell_setting 'orthorhombic'
loop_
_space_group_symop_operation_xyz
x,y,z
-x,1/2-y,z
x,-y,1/2-z
1/2-x,y,-z
-x,-y,-z
x,1/2+y,-z
-x,y,1/2+z
1/2+x,-y,z
1/2+x,1/2+y,1/2+z
1/2-x,-y,1/2+z
1/2+x,1/2-y,-z
-x,1/2+y,1/2-z
1/2-x,1/2-y,1/2-z
1/2+x,y,1/2-z
1/2-x,1/2+y,z
x,1/2-y,1/2+z
loop_
_atom_site_type_symbol
_atom_site_label
_atom_site_fract_x
_atom_site_fract_y
_atom_site_fract_z
Si Si1 0.186356 0.787671 0.115180
Si Si2 0.000000 0.500000 0.000000
Si Si3 0.873968 0.727664 0.366312
Si Si4 0.692707 0.159627 0.247013
Si Si5 0.134159 0.490782 0.964547
Si Si6 0.500000 0.750000 0.095052
Si Si7 0.299235 0.970291 0.084490
O O1 0.166219 0.814165 0.182228
O O2 0.138317 0.842459 0.069556
O O3 0.241466 0.884205 0.099170
O O4 0.203086 0.627020 0.108738
O O5 0.071014 0.510026 0.991072
O O6 0.991776 0.617825 0.947847
O O7 0.847786 0.690798 0.302593
O O8 0.855498 0.613297 0.416206
O O9 0.848745 0.876602 0.385622
O O10 0.942653 0.729720 0.366751
O O11 0.750000 0.250000 0.250000
O O12 0.710467 0.000000 0.250000
O O13 0.182047 0.486957 0.015893
#
# Coordination Sequence:
#
# PCOD9531901 Si02
#       7
#    16   8  16  16  16   8  16
#     4  12  25  40  65  96 133 175 225 271 336 403
#     4  10  22  38  68  92 132 172 214 260 326 404
#     4  11  23  42  70  95 133 177 223 274 330 394
#     4  12  24  44  67  91 131 179 224 270 330 401
#     4  11  23  42  63  99 131 172 217 271 335 396
#     4  10  22  42  70 100 130 178 220 270 330 392
#     4  12  24  41  64  99 133 172 214 279 334 405
#
# _framework density 19.1113
#
# number of rings (size 3 to 8) (size 9 to 14) (size 15 to 20)
#    0.000    0.667    5.000    3.500    2.333    1.333 
#    0.000    0.000    7.333    0.000    0.000    0.000 
#    0.000    0.000    0.000    0.000    0.000    0.000 
#
# Total GULP energy -267260.623676 kJ/mol
# GULP energy per Si atom -5567.929660 kJ/mol
# Density = 1.906780 g / cm^3
# Si number density = 19.111300 Si / 1000 Ang^3
#
#
#
# Elastic Constant Matrix: (Units=GPa)
#
#
# Indices 1 2 3 4 5 6 
#
# 1 95.1360 44.9162 61.0785 0.0000 0.0000 0.0000
# 2 44.9162 147.6107 53.4582 0.0000 0.0000 0.0000
# 3 61.0785 53.4582 144.7608 0.0000 0.0000 0.0000
# 4 0.0000 0.0000 0.0000 23.6783 0.0000 0.0000
# 5 0.0000 0.0000 0.0000 0.0000 29.5034 0.0000
# 6 0.0000 0.0000 0.0000 0.0000 0.0000 17.6927
#
#
#
# Elastic Compliance Matrix: (Units=1/GPa)
#
#
# Indices 1 2 3 4 5 6 
#
# 1 0.015278 -0.002672 -0.005459 0.000000 0.000000 0.000000
# 2 -0.002672 0.008288 -0.001933 0.000000 0.000000 0.000000
# 3 -0.005459 -0.001933 0.009925 0.000000 0.000000 0.000000
# 4 0.000000 0.000000 0.000000 0.042233 0.000000 0.000000
# 5 0.000000 0.000000 0.000000 0.000000 0.033894 0.000000
# 6 0.000000 0.000000 0.000000 0.000000 0.000000 0.056520
#
#
# Mechanical properties :
#
#
# Convention : Reuss Voigt Hill
#
# Bulk Modulus (GPa) = 74.83937 78.49035 76.66486
# Shear Modulus (GPa) = 26.21631 29.37853 27.79742
#
# Velocity S-wave (km/s) = 3.70776 3.92501 3.81793
# Velocity P-wave (km/s) = 7.58780 7.85495 7.72253
#
# Compressibility (1/GPa) = 0.01336195
#
# Stress axis : x y z
#
# Youngs Moduli (GPa) = 65.45506 120.66108 100.75183
#
# Poissons Ratio (x) = 0.32236 0.55005
# Poissons Ratio (y) = 0.17487 0.19478
# Poissons Ratio (z) = 0.35735 0.23327
#
# Static dielectric constant tensor:
#      x y z
#    x 1.698910 0.000000 0.000000 
#    y 0.000000 1.675880 0.000000 
#    z 0.000000 0.000000 1.699730 
# 
# From -- ./inp_files/30316.got.cif
#   From: 2010.05.17/outbox.cif.g08.bks.cpg/sg73_16_cif.got.tgz:30316.got - 2010.06.03 17:35:07.
