data_PCOD9531101
_publ_section_title
;
Structure prediction by ZEFSAII (Michael W. Deem and Ramdas Pophale) SiO2 
 PCOD9531101
Probable space group: I B C A 
;
_chemical_formula_sum "Si O2"
_cell_formula_units_Z 112
_cell_length_a 24.380940
_cell_length_b 12.513159
_cell_length_c 14.452997
_cell_angle_alpha 90.000000
_cell_angle_beta 90.000000
_cell_angle_gamma 90.000000
_cell_volume 4409.357596
_symmetry_space_group_name_H-M "I B C A "
_symmetry_group_IT_number 73
_symmetry_cell_setting 'orthorhombic'
loop_
_space_group_symop_operation_xyz
x,y,z
-x,1/2-y,z
x,-y,1/2-z
1/2-x,y,-z
-x,-y,-z
x,1/2+y,-z
-x,y,1/2+z
1/2+x,-y,z
1/2+x,1/2+y,1/2+z
1/2-x,-y,1/2+z
1/2+x,1/2-y,-z
-x,1/2+y,1/2-z
1/2-x,1/2-y,1/2-z
1/2+x,y,1/2-z
1/2-x,1/2+y,z
x,1/2-y,1/2+z
loop_
_atom_site_type_symbol
_atom_site_label
_atom_site_fract_x
_atom_site_fract_y
_atom_site_fract_z
Si Si1 0.528439 0.866778 0.217239
Si Si2 0.952478 0.451173 0.568587
Si Si3 0.649418 0.835844 0.183815
Si Si4 0.057372 0.803253 0.091428
Si Si5 0.826767 0.227270 0.887227
Si Si6 0.752845 0.935309 0.108878
Si Si7 0.334732 0.607909 0.584120
O O1 0.500000 0.750000 0.216174
O O2 0.482460 0.935547 0.165661
O O3 0.586330 0.865912 0.164612
O O4 0.551200 0.885016 0.322120
O O5 0.940546 0.343466 0.512180
O O6 0.887312 0.474497 0.581310
O O7 0.000000 0.500000 0.500000
O O8 0.668114 0.834531 0.290848
O O9 0.690988 0.918931 0.139756
O O10 0.655776 0.715671 0.143403
O O11 0.110236 0.730856 0.105235
O O12 0.000000 0.750000 0.096805
O O13 0.784568 0.323228 0.875163
O O14 0.819805 0.153919 0.979969
O O15 0.786750 0.040686 0.134859
O O16 0.750000 0.944772 0.000000
#
# Coordination Sequence:
#
# PCOD9531101 Si02
#       7
#    16  16  16  16  16  16  16
#     4  10  20  42  69 101 133 178 227 284 351 421
#     4  11  24  38  66 101 142 182 227 291 355 426
#     4  11  24  49  76 103 142 192 240 297 366 434
#     4   9  21  38  68  98 133 178 230 281 344 427
#     4  10  24  49  73 101 143 189 241 296 365 429
#     4  12  27  44  73 101 140 189 233 302 353 425
#     4  11  26  47  69 108 143 184 246 301 356 434
#
# _framework density 25.400524000000001
#
# number of rings (size 3 to 8) (size 9 to 14) (size 15 to 20)
#    0.000    1.429    2.857    0.857    8.000    1.143 
#    2.571    1.429    0.000    0.000    0.000    0.000 
#    0.000    0.000    0.000    0.000    0.000    0.000 
#
# Total GULP energy -312249.959777 kJ/mol
# GULP energy per Si atom -5575.892139 kJ/mol
# Density = 2.534271 g / cm^3
# Si number density = 25.400524 Si / 1000 Ang^3
#
#
#
# Elastic Constant Matrix: (Units=GPa)
#
#
# Indices 1 2 3 4 5 6 
#
# 1 130.6522 20.6773 31.3737 0.0000 0.0000 0.0000
# 2 20.6773 59.6007 32.2824 0.0000 0.0000 0.0000
# 3 31.3737 32.2824 97.5151 0.0000 0.0000 0.0000
# 4 0.0000 0.0000 0.0000 30.1827 0.0000 0.0000
# 5 0.0000 0.0000 0.0000 0.0000 43.2207 0.0000
# 6 0.0000 0.0000 0.0000 0.0000 0.0000 29.2362
#
#
#
# Elastic Compliance Matrix: (Units=1/GPa)
#
#
# Indices 1 2 3 4 5 6 
#
# 1 0.008446 -0.001777 -0.002129 0.000000 0.000000 0.000000
# 2 -0.001777 0.020818 -0.006320 0.000000 0.000000 0.000000
# 3 -0.002129 -0.006320 0.013032 0.000000 0.000000 0.000000
# 4 0.000000 0.000000 0.000000 0.033132 0.000000 0.000000
# 5 0.000000 0.000000 0.000000 0.000000 0.023137 0.000000
# 6 0.000000 0.000000 0.000000 0.000000 0.000000 0.034204
#
#
# Mechanical properties :
#
#
# Convention : Reuss Voigt Hill
#
# Bulk Modulus (GPa) = 45.77925 50.71496 48.24711
# Shear Modulus (GPa) = 31.15199 34.09024 32.62112
#
# Velocity S-wave (km/s) = 3.50584 3.66745 3.58756
# Velocity P-wave (km/s) = 5.86941 6.15979 6.01636
#
# Compressibility (1/GPa) = 0.02184396
#
# Stress axis : x y z
#
# Youngs Moduli (GPa) = 118.39320 48.03514 76.73348
#
# Poissons Ratio (x) = 0.08536 0.16338
# Poissons Ratio (y) = 0.21039 0.48496
# Poissons Ratio (z) = 0.25208 0.30359
#
# Static dielectric constant tensor:
#      x y z
#    x 2.776490 0.000000 0.000000 
#    y 0.000000 2.061840 0.000000 
#    z 0.000000 0.000000 2.083130 
# 
# From -- ./inp_files/19411.got.cif
#   From: 2010.05.17/outbox.cif.g08.bks.cpg/sg73_10_cif.got.tgz:19411.got - 2010.06.03 17:35:07.
