data_PCOD9531007
_publ_section_title
;
Structure prediction by ZEFSAII (Michael W. Deem and Ramdas Pophale) SiO2 
 PCOD9531007
Probable space group: I B C A 
;
_chemical_formula_sum "Si O2"
_cell_formula_units_Z 96
_cell_length_a 19.620108
_cell_length_b 11.917796
_cell_length_c 17.924430
_cell_angle_alpha 90.000000
_cell_angle_beta 90.000000
_cell_angle_gamma 90.000000
_cell_volume 4191.241588
_symmetry_space_group_name_H-M "I B C A "
_symmetry_group_IT_number 73
_symmetry_cell_setting 'orthorhombic'
loop_
_space_group_symop_operation_xyz
x,y,z
-x,1/2-y,z
x,-y,1/2-z
1/2-x,y,-z
-x,-y,-z
x,1/2+y,-z
-x,y,1/2+z
1/2+x,-y,z
1/2+x,1/2+y,1/2+z
1/2-x,-y,1/2+z
1/2+x,1/2-y,-z
-x,1/2+y,1/2-z
1/2-x,1/2-y,1/2-z
1/2+x,y,1/2-z
1/2-x,1/2+y,z
x,1/2-y,1/2+z
loop_
_atom_site_type_symbol
_atom_site_label
_atom_site_fract_x
_atom_site_fract_y
_atom_site_fract_z
Si Si1 0.988277 0.534515 0.895064
Si Si2 0.899188 0.500000 0.750000
Si Si3 0.363444 0.918314 0.629277
Si Si4 0.268966 0.966475 0.086487
Si Si5 0.317233 0.206002 0.291422
Si Si6 0.000000 0.250000 0.002650
Si Si7 0.882953 0.132448 0.461070
O O1 0.066421 0.513246 0.872496
O O2 0.945655 0.528942 0.819818
O O3 0.988460 0.650884 0.938139
O O4 0.945465 0.453350 0.948245
O O5 0.854209 0.612126 0.741266
O O6 0.360870 0.816087 0.687276
O O7 0.358820 0.864965 0.546355
O O8 0.297466 0.996501 0.632717
O O9 0.300714 0.862913 0.132053
O O10 0.320043 0.074058 0.081051
O O11 0.250000 0.937855 0.000000
O O12 0.250000 0.250000 0.250000
O O13 0.069855 0.243238 0.953329
#
# Coordination Sequence:
#
# PCOD9531007 Si02
#       7
#    16   8  16  16  16   8  16
#     4  11  23  42  68 101 140 185 225 287 347 412
#     4  12  24  44  68  96 142 180 224 288 342 410
#     4  10  23  45  68 101 131 185 229 280 351 411
#     4  10  23  45  69 102 142 178 232 290 343 406
#     4  12  26  45  70  99 140 186 229 285 351 420
#     4  10  20  40  68 100 136 178 232 274 358 410
#     4  10  21  41  70 100 137 177 224 290 345 403
#
# _framework density 22.904907000000001
#
# number of rings (size 3 to 8) (size 9 to 14) (size 15 to 20)
#    0.000    1.333    1.667    5.000    0.000    3.333 
#    6.000    2.500    0.000    0.000    0.000    0.000 
#    0.000    0.000    0.000    0.000    0.000    0.000 
#
# Total GULP energy -267644.865124 kJ/mol
# GULP energy per Si atom -5575.934690 kJ/mol
# Density = 2.285277 g / cm^3
# Si number density = 22.904907 Si / 1000 Ang^3
#
#
#
# Elastic Constant Matrix: (Units=GPa)
#
#
# Indices 1 2 3 4 5 6 
#
# 1 138.4860 32.8319 21.9200 0.0000 0.0000 0.0000
# 2 32.8319 55.2967 34.7882 0.0000 0.0000 0.0000
# 3 21.9200 34.7882 85.0367 0.0000 0.0000 0.0000
# 4 0.0000 0.0000 0.0000 36.7958 0.0000 0.0000
# 5 0.0000 0.0000 0.0000 0.0000 39.6894 0.0000
# 6 0.0000 0.0000 0.0000 0.0000 0.0000 25.0869
#
#
#
# Elastic Compliance Matrix: (Units=1/GPa)
#
#
# Indices 1 2 3 4 5 6 
#
# 1 0.008406 -0.004885 -0.000168 0.000000 0.000000 0.000000
# 2 -0.004885 0.027190 -0.009864 0.000000 0.000000 0.000000
# 3 -0.000168 -0.009864 0.015838 0.000000 0.000000 0.000000
# 4 0.000000 0.000000 0.000000 0.027177 0.000000 0.000000
# 5 0.000000 0.000000 0.000000 0.000000 0.025196 0.000000
# 6 0.000000 0.000000 0.000000 0.000000 0.000000 0.039861
#
#
# Mechanical properties :
#
#
# Convention : Reuss Voigt Hill
#
# Bulk Modulus (GPa) = 46.29739 50.87774 48.58756
# Shear Modulus (GPa) = 27.66960 32.93303 30.30132
#
# Velocity S-wave (km/s) = 3.47943 3.79597 3.64114
# Velocity P-wave (km/s) = 6.03313 6.43998 6.23987
#
# Compressibility (1/GPa) = 0.02159949
#
# Stress axis : x y z
#
# Youngs Moduli (GPa) = 118.96700 36.77762 63.13740
#
# Poissons Ratio (x) = 0.17965 0.01063
# Poissons Ratio (y) = 0.58114 0.62281
# Poissons Ratio (z) = 0.02003 0.36279
#
# Static dielectric constant tensor:
#      x y z
#    x 1.916670 0.000000 0.000000 
#    y 0.000000 1.934080 0.000000 
#    z 0.000000 0.000000 1.897780 
# 
# From -- ./inp_files/26932.got.cif
#   From: 2010.05.17/outbox.cif.g08.bks.cpg/sg73_14_cif.got.tgz:26932.got - 2010.06.03 17:35:07.
