data_PCOD9531030
_publ_section_title
;
Structure prediction by ZEFSAII (Michael W. Deem and Ramdas Pophale) SiO2 
 PCOD9531030
Probable space group: I B C A 
;
_chemical_formula_sum "Si O2"
_cell_formula_units_Z 96
_cell_length_a 14.269022
_cell_length_b 19.212075
_cell_length_c 13.962303
_cell_angle_alpha 90.000000
_cell_angle_beta 90.000000
_cell_angle_gamma 90.000000
_cell_volume 3827.591130
_symmetry_space_group_name_H-M "I B C A "
_symmetry_group_IT_number 73
_symmetry_cell_setting 'orthorhombic'
loop_
_space_group_symop_operation_xyz
x,y,z
-x,1/2-y,z
x,-y,1/2-z
1/2-x,y,-z
-x,-y,-z
x,1/2+y,-z
-x,y,1/2+z
1/2+x,-y,z
1/2+x,1/2+y,1/2+z
1/2-x,-y,1/2+z
1/2+x,1/2-y,-z
-x,1/2+y,1/2-z
1/2-x,1/2-y,1/2-z
1/2+x,y,1/2-z
1/2-x,1/2+y,z
x,1/2-y,1/2+z
loop_
_atom_site_type_symbol
_atom_site_label
_atom_site_fract_x
_atom_site_fract_y
_atom_site_fract_z
Si Si1 0.034946 0.362770 0.292274
Si Si2 0.655440 0.184772 0.157769
Si Si3 0.301703 0.423240 0.793137
Si Si4 0.000000 0.250000 0.130098
Si Si5 0.750000 0.584152 0.500000
Si Si6 0.808399 0.788552 0.881804
Si Si7 0.929353 0.508040 0.586653
O O1 0.955259 0.325772 0.359696
O O2 0.149043 0.368594 0.281122
O O3 0.011848 0.319084 0.196329
O O4 0.024596 0.442082 0.332165
O O5 0.713468 0.112204 0.156751
O O6 0.717401 0.241063 0.102324
O O7 0.667573 0.208294 0.268926
O O8 0.278833 0.500000 0.750000
O O9 0.388980 0.439232 0.863554
O O10 0.096460 0.242694 0.073898
O O11 0.704283 0.634928 0.577726
O O12 0.834316 0.541110 0.544474
O O13 0.000000 0.500000 0.500000
#
# Coordination Sequence:
#
# PCOD9531030 Si02
#       7
#    16  16  16   8   8  16  16
#     4  10  22  41  69  97 125 170 225 277 321 394
#     4  10  21  39  72  94 126 165 231 267 325 384
#     4  10  21  41  65  94 125 172 223 267 320 398
#     4  10  20  40  74  96 130 164 230 278 324 402
#     4  12  28  46  64  96 144 178 216 280 356 394
#     4  10  22  42  67 101 129 173 211 282 337 402
#     4  11  28  45  63  94 138 178 223 272 343 408
#
# _framework density 25.081050000000001
#
# number of rings (size 3 to 8) (size 9 to 14) (size 15 to 20)
#    0.000    1.667    1.667    2.000   11.667    2.000 
#    6.000    0.000    0.000    0.000    0.000    0.000 
#    0.000    0.000    0.000    0.000    0.000    0.000 
#
# Total GULP energy -267275.578533 kJ/mol
# GULP energy per Si atom -5568.241219 kJ/mol
# Density = 2.502396 g / cm^3
# Si number density = 25.081050 Si / 1000 Ang^3
#
#
#
# Elastic Constant Matrix: (Units=GPa)
#
#
# Indices 1 2 3 4 5 6 
#
# 1 146.8440 64.9646 29.0619 0.0000 0.0000 0.0000
# 2 64.9646 132.9274 27.0537 0.0000 0.0000 0.0000
# 3 29.0619 27.0537 71.6758 -0.0001 0.0000 0.0000
# 4 0.0000 0.0000 -0.0001 4.9099 0.0000 0.0000
# 5 0.0000 0.0000 0.0000 0.0000 29.2264 0.0000
# 6 0.0000 0.0000 0.0000 0.0000 0.0000 54.0363
#
#
#
# Elastic Compliance Matrix: (Units=1/GPa)
#
#
# Indices 1 2 3 4 5 6 
#
# 1 0.008985 -0.003953 -0.002151 0.000000 0.000000 0.000000
# 2 -0.003953 0.009888 -0.002129 0.000000 0.000000 0.000000
# 3 -0.002151 -0.002129 0.015628 0.000000 0.000000 0.000000
# 4 0.000000 0.000000 0.000000 0.203671 0.000000 0.000000
# 5 0.000000 0.000000 0.000000 0.000000 0.034216 0.000000
# 6 0.000000 0.000000 0.000000 0.000000 0.000000 0.018506
#
#
# Mechanical properties :
#
#
# Convention : Reuss Voigt Hill
#
# Bulk Modulus (GPa) = 55.45220 65.95640 60.70430
# Shear Modulus (GPa) = 15.95555 32.99231 24.47393
#
# Velocity S-wave (km/s) = 2.52496 3.63082 3.12716
# Velocity P-wave (km/s) = 5.53694 6.62808 6.10693
#
# Compressibility (1/GPa) = 0.01803355
#
# Stress axis : x y z
#
# Youngs Moduli (GPa) = 111.30240 101.12952 63.98969
#
# Poissons Ratio (x) = 0.39979 0.13763
# Poissons Ratio (y) = 0.44000 0.13626
# Poissons Ratio (z) = 0.23939 0.21535
#
# Static dielectric constant tensor:
#      x y z
#    x 2.019550 0.000000 0.000000 
#    y 0.000000 2.004230 0.000000 
#    z 0.000000 0.000000 2.111530 
# 
# From -- ./inp_files/17088.got.cif
#   From: 2010.05.17/outbox.cif.g08.bks.cpg/sg73_9_cif.got.tgz:17088.got - 2010.06.03 17:35:07.
