data_PCOD9531158
_publ_section_title
;
Structure prediction by ZEFSAII (Michael W. Deem and Ramdas Pophale) SiO2 
 PCOD9531158
Probable space group: I B C A 
;
_chemical_formula_sum "Si O2"
_cell_formula_units_Z 56
_cell_length_a 13.798047
_cell_length_b 16.896009
_cell_length_c 10.258498
_cell_angle_alpha 90.000000
_cell_angle_beta 90.000000
_cell_angle_gamma 90.000000
_cell_volume 2391.583400
_symmetry_space_group_name_H-M "I B C A "
_symmetry_group_IT_number 73
_symmetry_cell_setting 'orthorhombic'
loop_
_space_group_symop_operation_xyz
x,y,z
-x,1/2-y,z
x,-y,1/2-z
1/2-x,y,-z
-x,-y,-z
x,1/2+y,-z
-x,y,1/2+z
1/2+x,-y,z
1/2+x,1/2+y,1/2+z
1/2-x,-y,1/2+z
1/2+x,1/2-y,-z
-x,1/2+y,1/2-z
1/2-x,1/2-y,1/2-z
1/2+x,y,1/2-z
1/2-x,1/2+y,z
x,1/2-y,1/2+z
loop_
_atom_site_type_symbol
_atom_site_label
_atom_site_fract_x
_atom_site_fract_y
_atom_site_fract_z
Si Si1 0.611495 0.005158 0.962049
Si Si2 0.675387 0.144713 0.108980
Si Si3 0.656822 0.625934 0.273947
Si Si4 0.500000 0.750000 0.837148
O O1 0.627584 0.065289 0.841316
O O2 0.647220 0.920764 0.909864
O O3 0.661629 0.050888 0.081667
O O4 0.500000 0.000000 0.000000
O O5 0.733692 0.152878 0.243553
O O6 0.572927 0.187923 0.094196
O O7 0.750000 0.176079 0.000000
O O8 0.578552 0.695503 0.265372
#
# Coordination Sequence:
#
# PCOD9531158 Si02
#       4
#    16  16  16   8
#     4  10  20  45  66  95 134 178 231 278 327 394
#     4  10  23  43  68 103 135 176 231 273 341 402
#     4  10  23  42  68 103 135 172 231 277 337 398
#     4  12  22  44  70  96 148 176 214 286 338 414
#
# _framework density 23.415448999999999
#
# number of rings (size 3 to 8) (size 9 to 14) (size 15 to 20)
#    0.000    1.714    2.857    0.857    0.000    4.571 
#   25.714    7.143    0.000    0.000    0.000    0.000 
#    0.000    0.000    0.000    0.000    0.000    0.000 
#
# Total GULP energy -156257.842658 kJ/mol
# GULP energy per Si atom -5580.637238 kJ/mol
# Density = 2.336215 g / cm^3
# Si number density = 23.415449 Si / 1000 Ang^3
#
#
#
# Elastic Constant Matrix: (Units=GPa)
#
#
# Indices 1 2 3 4 5 6 
#
# 1 180.3618 50.7231 44.4454 0.0000 0.0000 0.0000
# 2 50.7231 100.7453 26.0915 0.0000 0.0000 0.0000
# 3 44.4454 26.0915 44.1666 0.0000 0.0000 0.0000
# 4 0.0000 0.0000 0.0000 -3.9948 0.0000 0.0000
# 5 0.0000 0.0000 0.0000 0.0000 38.3499 0.0000
# 6 0.0000 0.0000 0.0000 0.0000 0.0000 51.9908
#
#
#
# Elastic Compliance Matrix: (Units=1/GPa)
#
#
# Indices 1 2 3 4 5 6 
#
# 1 0.007775 -0.002229 -0.006507 0.000000 0.000000 0.000000
# 2 -0.002229 0.012358 -0.005057 0.000000 0.000000 0.000000
# 3 -0.006507 -0.005057 0.032177 0.000000 0.000000 0.000000
# 4 0.000000 0.000000 0.000000 -0.250327 0.000000 0.000000
# 5 0.000000 0.000000 0.000000 0.000000 0.026076 0.000000
# 6 0.000000 0.000000 0.000000 0.000000 0.000000 0.019234
#
#
# Mechanical properties :
#
#
# Convention : Reuss Voigt Hill
#
# Bulk Modulus (GPa) = 40.44792 63.08821 51.76806
# Shear Modulus (GPa) = -42.77924 30.87009 -5.95458
#
# Velocity S-wave (km/s) = -4.27894 3.63487 -1.59641
# Velocity P-wave (km/s) = 2.66475 6.67966 4.33110
#
# Compressibility (1/GPa) = 0.02472315
#
# Stress axis : x y z
#
# Youngs Moduli (GPa) = 128.62053 80.91819 31.07797
#
# Poissons Ratio (x) = 0.18039 0.20222
# Poissons Ratio (y) = 0.28673 0.15717
# Poissons Ratio (z) = 0.83693 0.40923
#
# Static dielectric constant tensor:
#      x y z
#    x 1.899430 0.000000 0.000000 
#    y 0.000000 1.959420 0.000000 
#    z 0.000000 0.000000 1.962780 
# 
# From -- ./inp_files/10226.got.cif
#   From: 2010.05.17/outbox.cif.g08.bks.cpg/sg73_6_cif.got.tgz:10226.got - 2010.06.03 17:35:07.
