data_PCOD9531580
_publ_section_title
;
Structure prediction by ZEFSAII (Michael W. Deem and Ramdas Pophale) SiO2 
 PCOD9531580
Probable space group: I B C A 
;
_chemical_formula_sum "Si O2"
_cell_formula_units_Z 120
_cell_length_a 11.366478
_cell_length_b 26.747276
_cell_length_c 19.433826
_cell_angle_alpha 90.000000
_cell_angle_beta 90.000000
_cell_angle_gamma 90.000000
_cell_volume 5908.316949
_symmetry_space_group_name_H-M "I B C A "
_symmetry_group_IT_number 73
_symmetry_cell_setting 'orthorhombic'
loop_
_space_group_symop_operation_xyz
x,y,z
-x,1/2-y,z
x,-y,1/2-z
1/2-x,y,-z
-x,-y,-z
x,1/2+y,-z
-x,y,1/2+z
1/2+x,-y,z
1/2+x,1/2+y,1/2+z
1/2-x,-y,1/2+z
1/2+x,1/2-y,-z
-x,1/2+y,1/2-z
1/2-x,1/2-y,1/2-z
1/2+x,y,1/2-z
1/2-x,1/2+y,z
x,1/2-y,1/2+z
loop_
_atom_site_type_symbol
_atom_site_label
_atom_site_fract_x
_atom_site_fract_y
_atom_site_fract_z
Si Si1 0.974567 0.509833 0.606732
Si Si2 0.839688 0.302842 0.829869
Si Si3 0.387929 0.936228 0.997998
Si Si4 0.500000 0.250000 0.055925
Si Si5 0.875789 0.728281 0.826687
Si Si6 0.654245 0.584049 0.295985
Si Si7 0.373618 0.169214 0.461094
Si Si8 0.422230 0.554704 0.215725
O O1 0.909624 0.485032 0.543264
O O2 0.881140 0.536262 0.657122
O O3 0.060009 0.552788 0.577301
O O4 0.047984 0.463772 0.638931
O O5 0.913068 0.278271 0.891370
O O6 0.882534 0.290767 0.751850
O O7 0.715580 0.273962 0.831960
O O8 0.842824 0.362757 0.834594
O O9 0.250000 0.930506 0.000000
O O10 0.434600 0.884719 0.030506
O O11 0.555727 0.209789 0.004781
O O12 0.849866 0.685247 0.882383
O O13 0.000000 0.750000 0.847038
O O14 0.539839 0.583378 0.243912
O O15 0.791509 0.577375 0.272152
O O16 0.250000 0.168277 0.500000
O O17 0.419458 0.500000 0.250000
#
# Coordination Sequence:
#
# PCOD9531580 Si02
#       8
#    16  16  16   8  16  16  16  16
#     4  10  21  41  62  93 132 168 218 273 330 395
#     4  11  26  41  67  97 135 173 220 284 339 397
#     4  10  22  38  63  92 127 172 217 266 326 404
#     4  12  22  44  66  92 138 168 220 288 338 394
#     4  11  24  44  64  93 131 172 220 275 331 393
#     4  11  24  40  67  97 130 176 223 273 345 406
#     4  11  23  41  65  94 125 174 219 264 331 404
#     4  10  22  41  63  94 134 173 216 273 330 402
#
# _framework density 20.310352999999999
#
# number of rings (size 3 to 8) (size 9 to 14) (size 15 to 20)
#    0.000    1.333    2.667    2.800    3.733    1.067 
#    4.800    0.000    2.933    0.000    0.000    0.000 
#    0.000    0.000    0.000    0.000    0.000    0.000 
#
# Total GULP energy -334144.190557 kJ/mol
# GULP energy per Si atom -5569.069843 kJ/mol
# Density = 2.026413 g / cm^3
# Si number density = 20.310353 Si / 1000 Ang^3
#
#
#
# Elastic Constant Matrix: (Units=GPa)
#
#
# Indices 1 2 3 4 5 6 
#
# 1 83.5788 30.4982 19.0118 0.0000 0.0000 0.0000
# 2 30.4982 99.7527 13.4714 0.0000 0.0000 0.0000
# 3 19.0118 13.4714 75.7402 0.0000 0.0000 0.0000
# 4 0.0000 0.0000 0.0000 38.9737 0.0000 0.0000
# 5 0.0000 0.0000 0.0000 0.0000 15.7155 0.0000
# 6 0.0000 0.0000 0.0000 0.0000 0.0000 32.5075
#
#
#
# Elastic Compliance Matrix: (Units=1/GPa)
#
#
# Indices 1 2 3 4 5 6 
#
# 1 0.014034 -0.003909 -0.002828 0.000000 0.000000 0.000000
# 2 -0.003909 0.011360 -0.001039 0.000000 0.000000 0.000000
# 3 -0.002828 -0.001039 0.014098 0.000000 0.000000 0.000000
# 4 0.000000 0.000000 0.000000 0.025658 0.000000 0.000000
# 5 0.000000 0.000000 0.000000 0.000000 0.063631 0.000000
# 6 0.000000 0.000000 0.000000 0.000000 0.000000 0.030762
#
#
# Mechanical properties :
#
#
# Convention : Reuss Voigt Hill
#
# Bulk Modulus (GPa) = 41.77028 42.78163 42.27596
# Shear Modulus (GPa) = 27.31107 30.51204 28.91155
#
# Velocity S-wave (km/s) = 3.67098 3.88014 3.77701
# Velocity P-wave (km/s) = 6.21118 6.41745 6.31516
#
# Compressibility (1/GPa) = 0.02394047
#
# Stress axis : x y z
#
# Youngs Moduli (GPa) = 71.25377 88.02603 70.93385
#
# Poissons Ratio (x) = 0.34409 0.20057
# Poissons Ratio (y) = 0.27853 0.07373
# Poissons Ratio (z) = 0.20147 0.09149
#
# Static dielectric constant tensor:
#      x y z
#    x 1.726400 0.000000 0.000000 
#    y 0.000000 1.851930 0.000000 
#    z 0.000000 0.000000 1.842990 
# 
# From -- ./inp_files/25649.got.cif
#   From: 2010.05.17/outbox.cif.g08.bks.cpg/sg73_13_cif.got.tgz:25649.got - 2010.06.03 17:35:07.
