data_PCOD9531881
_publ_section_title
;
Structure prediction by ZEFSAII (Michael W. Deem and Ramdas Pophale) SiO2 
 PCOD9531881
Probable space group: I B C A 
;
_chemical_formula_sum "Si O2"
_cell_formula_units_Z 96
_cell_length_a 29.764525
_cell_length_b 10.526725
_cell_length_c 13.156358
_cell_angle_alpha 90.000000
_cell_angle_beta 90.000000
_cell_angle_gamma 90.000000
_cell_volume 4122.189155
_symmetry_space_group_name_H-M "I B C A "
_symmetry_group_IT_number 73
_symmetry_cell_setting 'orthorhombic'
loop_
_space_group_symop_operation_xyz
x,y,z
-x,1/2-y,z
x,-y,1/2-z
1/2-x,y,-z
-x,-y,-z
x,1/2+y,-z
-x,y,1/2+z
1/2+x,-y,z
1/2+x,1/2+y,1/2+z
1/2-x,-y,1/2+z
1/2+x,1/2-y,-z
-x,1/2+y,1/2-z
1/2-x,1/2-y,1/2-z
1/2+x,y,1/2-z
1/2-x,1/2+y,z
x,1/2-y,1/2+z
loop_
_atom_site_type_symbol
_atom_site_label
_atom_site_fract_x
_atom_site_fract_y
_atom_site_fract_z
Si Si1 0.230771 0.000000 0.750000
Si Si2 0.787883 0.441749 0.423808
Si Si3 0.845220 0.520749 0.887887
Si Si4 0.077409 0.398792 0.989326
Si Si5 0.139073 0.736213 0.673238
Si Si6 0.580613 0.390845 0.830586
Si Si7 0.000000 0.250000 0.083307
O O1 0.264505 0.035332 0.841818
O O2 0.141913 0.113380 0.838790
O O3 0.750000 0.388137 0.500000
O O4 0.822348 0.505380 0.502219
O O5 0.815249 0.333375 0.363756
O O6 0.805050 0.579904 0.818420
O O7 0.889777 0.598897 0.912976
O O8 0.100662 0.306995 0.907075
O O9 0.082581 0.537579 0.938693
O O10 0.027419 0.352784 0.015610
O O11 0.123639 0.677238 0.780855
O O12 0.569561 0.500000 0.750000
O O13 0.538583 0.301534 0.844092
#
# Coordination Sequence:
#
# PCOD9531881 Si02
#       7
#     8  16  16  16  16  16   8
#     4  10  22  38  62  98 134 174 220 294 336 412
#     4   9  21  40  61  94 137 175 227 282 340 413
#     4  10  22  40  63  96 135 172 227 288 341 413
#     4  10  23  43  64  93 134 175 225 285 345 410
#     4  10  22  40  68  92 128 183 223 274 354 410
#     4  10  24  41  63 100 127 172 224 283 337 411
#     4  12  24  40  70  94 130 182 226 278 358 418
#
# _framework density 23.288595999999998
#
# number of rings (size 3 to 8) (size 9 to 14) (size 15 to 20)
#    0.000    2.000    0.000    1.500    8.167    6.667 
#    3.000    0.000    0.000    0.000    0.000    0.000 
#    0.000    0.000    0.000    0.000    0.000    0.000 
#
# Total GULP energy -267344.808118 kJ/mol
# GULP energy per Si atom -5569.683502 kJ/mol
# Density = 2.323559 g / cm^3
# Si number density = 23.288596 Si / 1000 Ang^3
#
#
#
# Elastic Constant Matrix: (Units=GPa)
#
#
# Indices 1 2 3 4 5 6 
#
# 1 151.4512 29.9704 57.8360 0.0000 0.0000 0.0000
# 2 29.9704 53.4503 30.2008 0.0000 0.0000 0.0000
# 3 57.8360 30.2008 107.9594 0.0000 0.0000 0.0000
# 4 0.0000 0.0000 0.0000 28.4733 0.0000 0.0000
# 5 0.0000 0.0000 0.0000 0.0000 28.5060 0.0000
# 6 0.0000 0.0000 0.0000 0.0000 0.0000 16.8761
#
#
#
# Elastic Compliance Matrix: (Units=1/GPa)
#
#
# Indices 1 2 3 4 5 6 
#
# 1 0.008603 -0.002636 -0.003871 0.000000 0.000000 0.000000
# 2 -0.002636 0.023029 -0.005030 0.000000 0.000000 0.000000
# 3 -0.003871 -0.005030 0.012744 0.000000 0.000000 0.000000
# 4 0.000000 0.000000 0.000000 0.035121 0.000000 0.000000
# 5 0.000000 0.000000 0.000000 0.000000 0.035080 0.000000
# 6 0.000000 0.000000 0.000000 0.000000 0.000000 0.059255
#
#
# Mechanical properties :
#
#
# Convention : Reuss Voigt Hill
#
# Bulk Modulus (GPa) = 46.94658 60.98613 53.96636
# Shear Modulus (GPa) = 24.50893 27.76132 26.13512
#
# Velocity S-wave (km/s) = 3.24759 3.45636 3.35360
# Velocity P-wave (km/s) = 5.85362 6.49404 6.18213
#
# Compressibility (1/GPa) = 0.02130081
#
# Stress axis : x y z
#
# Youngs Moduli (GPa) = 116.24079 43.42305 78.47023
#
# Poissons Ratio (x) = 0.11448 0.30377
# Poissons Ratio (y) = 0.30646 0.39469
# Poissons Ratio (z) = 0.44999 0.21841
#
# Static dielectric constant tensor:
#      x y z
#    x 1.914970 0.000000 0.000000 
#    y 0.000000 1.916590 0.000000 
#    z 0.000000 0.000000 1.943630 
# 
# From -- ./inp_files/14769.got.cif
#   From: 2010.05.17/outbox.cif.g08.bks.cpg/sg73_8_cif.got.tgz:14769.got - 2010.06.03 17:35:07.
