data_PCOD9531654
_publ_section_title
;
Structure prediction by ZEFSAII (Michael W. Deem and Ramdas Pophale) SiO2 
 PCOD9531654
Probable space group: I B C A 
;
_chemical_formula_sum "Si O2"
_cell_formula_units_Z 120
_cell_length_a 24.990244
_cell_length_b 8.820557
_cell_length_c 23.955767
_cell_angle_alpha 90.000000
_cell_angle_beta 90.000000
_cell_angle_gamma 90.000000
_cell_volume 5280.518733
_symmetry_space_group_name_H-M "I B C A "
_symmetry_group_IT_number 73
_symmetry_cell_setting 'orthorhombic'
loop_
_space_group_symop_operation_xyz
x,y,z
-x,1/2-y,z
x,-y,1/2-z
1/2-x,y,-z
-x,-y,-z
x,1/2+y,-z
-x,y,1/2+z
1/2+x,-y,z
1/2+x,1/2+y,1/2+z
1/2-x,-y,1/2+z
1/2+x,1/2-y,-z
-x,1/2+y,1/2-z
1/2-x,1/2-y,1/2-z
1/2+x,y,1/2-z
1/2-x,1/2+y,z
x,1/2-y,1/2+z
loop_
_atom_site_type_symbol
_atom_site_label
_atom_site_fract_x
_atom_site_fract_y
_atom_site_fract_z
Si Si1 0.849872 0.662221 0.274024
Si Si2 0.539669 0.118840 0.210860
Si Si3 0.207922 0.987687 0.622199
Si Si4 0.300983 0.500000 0.750000
Si Si5 0.314153 0.168387 0.901296
Si Si6 0.911540 0.288219 0.027794
Si Si7 0.014027 0.414017 0.622053
Si Si8 0.408053 0.954136 0.420128
O O1 0.827441 0.500000 0.250000
O O2 0.908900 0.666411 0.246449
O O3 0.826783 0.829163 0.258117
O O4 0.842913 0.648383 0.340809
O O5 0.500000 0.250000 0.196585
O O6 0.508481 0.000000 0.250000
O O7 0.553402 0.021302 0.156450
O O8 0.222366 0.980094 0.687816
O O9 0.202086 0.156957 0.600878
O O10 0.147829 0.923899 0.611545
O O11 0.258646 0.917135 0.592171
O O12 0.356468 0.138491 0.949940
O O13 0.906258 0.111667 0.044125
O O14 0.958635 0.366866 0.063774
O O15 0.919508 0.320037 0.963155
O O16 0.958930 0.507088 0.617769
O O17 0.000000 0.250000 0.648984
#
# Coordination Sequence:
#
# PCOD9531654 Si02
#       8
#    16  16  16   8  16  16  16  16
#     4  10  23  41  63  94 130 171 221 264 334 398
#     4  11  24  37  59  94 127 170 218 265 333 392
#     4  10  24  41  64  97 125 177 216 270 332 392
#     4  10  24  42  66  90 134 172 212 276 332 388
#     4  10  23  42  64  92 131 166 223 271 328 391
#     4  10  21  42  66  93 130 169 210 280 326 389
#     4  10  22  43  67  92 131 171 214 273 332 398
#     4  10  23  41  65  97 129 169 221 265 338 392
#
# _framework density 22.725041000000001
#
# number of rings (size 3 to 8) (size 9 to 14) (size 15 to 20)
#    0.000    1.867    0.000    2.400    5.600    8.000 
#    0.000    2.667    0.000    0.000    0.000    0.000 
#    0.000    0.000    0.000    0.000    0.000    0.000 
#
# Total GULP energy -334584.605276 kJ/mol
# GULP energy per Si atom -5576.410088 kJ/mol
# Density = 2.267332 g / cm^3
# Si number density = 22.725041 Si / 1000 Ang^3
#
#
#
# Elastic Constant Matrix: (Units=GPa)
#
#
# Indices 1 2 3 4 5 6 
#
# 1 99.3411 10.4028 3.8397 0.0000 0.0000 0.0000
# 2 10.4028 67.8007 10.9691 0.0000 0.0000 0.0000
# 3 3.8397 10.9691 29.3840 0.0000 0.0000 0.0000
# 4 0.0000 0.0000 0.0000 32.5284 0.0000 0.0000
# 5 0.0000 0.0000 0.0000 0.0000 20.6411 0.0000
# 6 0.0000 0.0000 0.0000 0.0000 0.0000 3.2885
#
#
#
# Elastic Compliance Matrix: (Units=1/GPa)
#
#
# Indices 1 2 3 4 5 6 
#
# 1 0.010248 -0.001443 -0.000801 0.000000 0.000000 0.000000
# 2 -0.001443 0.015900 -0.005747 0.000000 0.000000 0.000000
# 3 -0.000801 -0.005747 0.036282 0.000000 0.000000 0.000000
# 4 0.000000 0.000000 0.000000 0.030742 0.000000 0.000000
# 5 0.000000 0.000000 0.000000 0.000000 0.048447 0.000000
# 6 0.000000 0.000000 0.000000 0.000000 0.000000 0.304087
#
#
# Mechanical properties :
#
#
# Convention : Reuss Voigt Hill
#
# Bulk Modulus (GPa) = 21.52865 27.43878 24.48371
# Shear Modulus (GPa) = 10.47840 22.71255 16.59548
#
# Velocity S-wave (km/s) = 2.14964 3.16484 2.70529
# Velocity P-wave (km/s) = 3.95669 5.04533 4.53381
#
# Compressibility (1/GPa) = 0.04644974
#
# Stress axis : x y z
#
# Youngs Moduli (GPa) = 97.57648 62.89190 27.56175
#
# Poissons Ratio (x) = 0.09075 0.02206
# Poissons Ratio (y) = 0.14079 0.15840
# Poissons Ratio (z) = 0.07812 0.36144
#
# Static dielectric constant tensor:
#      x y z
#    x 1.913750 0.000000 0.000000 
#    y 0.000000 1.944700 0.000000 
#    z 0.000000 0.000000 1.864300 
# 
# From -- ./inp_files/32888.got.cif
#   From: 2010.05.17/outbox.cif.g08.bks.cpg/sg73_17_cif.got.tgz:32888.got - 2010.06.03 17:35:07.
