data_PCOD9531482
_publ_section_title
;
Structure prediction by ZEFSAII (Michael W. Deem and Ramdas Pophale) SiO2 
 PCOD9531482
Probable space group: I B C A 
;
_chemical_formula_sum "Si O2"
_cell_formula_units_Z 96
_cell_length_a 16.047655
_cell_length_b 18.137042
_cell_length_c 14.436764
_cell_angle_alpha 90.000000
_cell_angle_beta 90.000000
_cell_angle_gamma 90.000000
_cell_volume 4201.921115
_symmetry_space_group_name_H-M "I B C A "
_symmetry_group_IT_number 73
_symmetry_cell_setting 'orthorhombic'
loop_
_space_group_symop_operation_xyz
x,y,z
-x,1/2-y,z
x,-y,1/2-z
1/2-x,y,-z
-x,-y,-z
x,1/2+y,-z
-x,y,1/2+z
1/2+x,-y,z
1/2+x,1/2+y,1/2+z
1/2-x,-y,1/2+z
1/2+x,1/2-y,-z
-x,1/2+y,1/2-z
1/2-x,1/2-y,1/2-z
1/2+x,y,1/2-z
1/2-x,1/2+y,z
x,1/2-y,1/2+z
loop_
_atom_site_type_symbol
_atom_site_label
_atom_site_fract_x
_atom_site_fract_y
_atom_site_fract_z
Si Si1 0.070312 0.465174 0.564384
Si Si2 0.250000 0.472417 0.500000
Si Si3 0.703203 0.825929 0.276419
Si Si4 0.162853 0.250328 0.448926
Si Si5 0.019978 0.000000 0.750000
Si Si6 0.071947 0.300250 0.616513
Si Si7 0.659339 0.892580 0.828838
O O1 0.161003 0.499885 0.541840
O O2 0.065740 0.375860 0.557200
O O3 0.000000 0.500000 0.500000
O O4 0.039934 0.477468 0.667789
O O5 0.210697 0.430564 0.411590
O O6 0.750000 0.750000 0.250000
O O7 0.675139 0.819643 0.382281
O O8 0.631105 0.826122 0.200179
O O9 0.774383 0.884901 0.254678
O O10 0.250000 0.270646 0.500000
O O11 0.104489 0.243588 0.537411
O O12 0.136534 0.314188 0.376255
O O13 0.080698 0.936599 0.709499
O O14 0.000000 0.250000 0.660511
#
# Coordination Sequence:
#
# PCOD9531482 Si02
#       7
#    16   8  16  16   8  16  16
#     4  12  26  51  77 110 152 205 257 311 386 470
#     4  12  20  48  80  94 148 206 252 294 398 442
#     4  10  21  39  72 100 134 186 248 286 383 459
#     4  11  19  40  70  97 136 188 234 291 371 453
#     4  12  28  42  78 110 150 184 266 324 372 460
#     4  12  25  43  69 107 149 186 242 319 378 439
#     4  11  20  44  73 101 138 195 237 310 375 447
#
# _framework density 22.846692000000001
#
# number of rings (size 3 to 8) (size 9 to 14) (size 15 to 20)
#    0.000    0.667    9.167    0.000    4.667    1.333 
#    3.000    0.000    3.667    0.000    0.000    0.000 
#    0.000    0.000    0.000    0.000    0.000    0.000 
#
# Total GULP energy -267510.579056 kJ/mol
# GULP energy per Si atom -5573.137064 kJ/mol
# Density = 2.279469 g / cm^3
# Si number density = 22.846692 Si / 1000 Ang^3
#
#
#
# Elastic Constant Matrix: (Units=GPa)
#
#
# Indices 1 2 3 4 5 6 
#
# 1 126.0846 33.5944 37.3926 0.0000 0.0000 0.0000
# 2 33.5944 43.4563 22.6719 0.0000 0.0000 0.0000
# 3 37.3926 22.6719 126.5644 0.0000 0.0000 0.0000
# 4 0.0000 0.0000 0.0000 23.1276 0.0000 0.0000
# 5 0.0000 0.0000 0.0000 0.0000 27.5878 0.0000
# 6 0.0000 0.0000 0.0000 0.0000 0.0000 26.0246
#
#
#
# Elastic Compliance Matrix: (Units=1/GPa)
#
#
# Indices 1 2 3 4 5 6 
#
# 1 0.010344 -0.007062 -0.001791 0.000000 0.000000 0.000000
# 2 -0.007062 0.030205 -0.003324 0.000000 0.000000 0.000000
# 3 -0.001791 -0.003324 0.009026 0.000000 0.000000 0.000000
# 4 0.000000 0.000000 0.000000 0.043238 0.000000 0.000000
# 5 0.000000 0.000000 0.000000 0.000000 0.036248 0.000000
# 6 0.000000 0.000000 0.000000 0.000000 0.000000 0.038425
#
#
# Mechanical properties :
#
#
# Convention : Reuss Voigt Hill
#
# Bulk Modulus (GPa) = 39.65066 53.71366 46.68216
# Shear Modulus (GPa) = 24.96899 28.84444 26.90672
#
# Velocity S-wave (km/s) = 3.30948 3.55705 3.43550
# Velocity P-wave (km/s) = 5.65653 6.35859 6.01781
#
# Compressibility (1/GPa) = 0.02522026
#
# Stress axis : x y z
#
# Youngs Moduli (GPa) = 96.67448 33.10656 110.79407
#
# Poissons Ratio (x) = 0.23380 0.19843
# Poissons Ratio (y) = 0.68273 0.36832
# Poissons Ratio (z) = 0.17314 0.11006
#
# Static dielectric constant tensor:
#      x y z
#    x 2.041590 0.000000 0.000000 
#    y 0.000000 2.037800 0.000000 
#    z 0.000000 0.000000 2.109530 
# 
# From -- ./inp_files/17120.got.cif
#   From: 2010.05.17/outbox.cif.g08.bks.cpg/sg73_9_cif.got.tgz:17120.got - 2010.06.03 17:35:07.
