data_PCOD9531134
_publ_section_title
;
Structure prediction by ZEFSAII (Michael W. Deem and Ramdas Pophale) SiO2 
 PCOD9531134
Probable space group: I B C A 
;
_chemical_formula_sum "Si O2"
_cell_formula_units_Z 104
_cell_length_a 19.447204
_cell_length_b 15.817080
_cell_length_c 13.988285
_cell_angle_alpha 90.000000
_cell_angle_beta 90.000000
_cell_angle_gamma 90.000000
_cell_volume 4302.768230
_symmetry_space_group_name_H-M "I B C A "
_symmetry_group_IT_number 73
_symmetry_cell_setting 'orthorhombic'
loop_
_space_group_symop_operation_xyz
x,y,z
-x,1/2-y,z
x,-y,1/2-z
1/2-x,y,-z
-x,-y,-z
x,1/2+y,-z
-x,y,1/2+z
1/2+x,-y,z
1/2+x,1/2+y,1/2+z
1/2-x,-y,1/2+z
1/2+x,1/2-y,-z
-x,1/2+y,1/2-z
1/2-x,1/2-y,1/2-z
1/2+x,y,1/2-z
1/2-x,1/2+y,z
x,1/2-y,1/2+z
loop_
_atom_site_type_symbol
_atom_site_label
_atom_site_fract_x
_atom_site_fract_y
_atom_site_fract_z
Si Si1 0.416294 0.672991 0.547728
Si Si2 0.906746 0.066691 0.409852
Si Si3 0.532936 0.960054 0.109482
Si Si4 0.300570 0.000000 0.250000
Si Si5 0.356762 0.244463 0.625687
Si Si6 0.933586 0.197283 0.700994
Si Si7 0.734338 0.373316 0.396983
O O1 0.474679 0.607894 0.575219
O O2 0.404457 0.681167 0.435807
O O3 0.427421 0.764323 0.594877
O O4 0.345835 0.645002 0.596327
O O5 0.913371 0.034508 0.520722
O O6 0.851079 0.028243 0.336311
O O7 0.882854 0.163819 0.405582
O O8 0.983718 0.040831 0.372730
O O9 0.564184 0.904073 0.194828
O O10 0.254906 0.928389 0.198170
O O11 0.371347 0.229427 0.735708
O O12 0.280124 0.211948 0.604143
O O13 0.000000 0.250000 0.740201
O O14 0.750000 0.416724 0.500000
#
# Coordination Sequence:
#
# PCOD9531134 Si02
#       7
#    16  16  16   8  16  16  16
#     4  10  20  43  68  92 144 189 232 301 364 431
#     4  11  24  40  69 106 140 188 238 309 373 443
#     4  10  22  43  65 103 149 183 234 306 383 439
#     4  12  24  46  70 104 150 204 246 304 388 434
#     4  11  24  41  72 102 133 192 248 296 359 443
#     4  10  22  37  65 104 135 179 235 293 363 449
#     4  10  24  48  71  99 145 200 250 306 361 438
#
# _framework density 24.170484999999999
#
# number of rings (size 3 to 8) (size 9 to 14) (size 15 to 20)
#    0.000    1.538    3.077    0.923    4.308    2.462 
#    2.769    2.308    0.000    0.000    0.000    0.000 
#    0.000    0.000    0.000    0.000    0.000    0.000 
#
# Total GULP energy -289943.282087 kJ/mol
# GULP energy per Si atom -5575.832348 kJ/mol
# Density = 2.411547 g / cm^3
# Si number density = 24.170485 Si / 1000 Ang^3
#
#
#
# Elastic Constant Matrix: (Units=GPa)
#
#
# Indices 1 2 3 4 5 6 
#
# 1 59.7973 39.6913 23.2463 0.0000 0.0000 0.0000
# 2 39.6913 116.0804 29.2397 0.0000 0.0000 0.0000
# 3 23.2463 29.2397 92.8980 0.0000 0.0000 0.0000
# 4 0.0000 0.0000 0.0000 26.5525 0.0000 0.0000
# 5 0.0000 0.0000 0.0000 0.0000 28.1661 0.0000
# 6 0.0000 0.0000 0.0000 0.0000 0.0000 31.8991
#
#
#
# Elastic Compliance Matrix: (Units=1/GPa)
#
#
# Indices 1 2 3 4 5 6 
#
# 1 0.022638 -0.006857 -0.003506 0.000000 0.000000 0.000000
# 2 -0.006857 0.011434 -0.001883 0.000000 0.000000 0.000000
# 3 -0.003506 -0.001883 0.012235 0.000000 0.000000 0.000000
# 4 0.000000 0.000000 0.000000 0.037661 0.000000 0.000000
# 5 0.000000 0.000000 0.000000 0.000000 0.035504 0.000000
# 6 0.000000 0.000000 0.000000 0.000000 0.000000 0.031349
#
#
# Mechanical properties :
#
#
# Convention : Reuss Voigt Hill
#
# Bulk Modulus (GPa) = 45.84422 50.34780 48.09601
# Shear Modulus (GPa) = 27.38461 29.09675 28.24068
#
# Velocity S-wave (km/s) = 3.36962 3.47337 3.42189
# Velocity P-wave (km/s) = 5.84357 6.07957 5.96274
#
# Compressibility (1/GPa) = 0.02181300
#
# Stress axis : x y z
#
# Youngs Moduli (GPa) = 44.17355 87.46065 81.73570
#
# Poissons Ratio (x) = 0.59975 0.28660
# Poissons Ratio (y) = 0.30291 0.15389
# Poissons Ratio (z) = 0.15489 0.16467
#
# Static dielectric constant tensor:
#      x y z
#    x 1.935430 0.000000 0.000000 
#    y 0.000000 2.049990 0.000000 
#    z 0.000000 0.000000 1.981840 
# 
# From -- ./inp_files/18823.got.cif
#   From: 2010.05.17/outbox.cif.g08.bks.cpg/sg73_10_cif.got.tgz:18823.got - 2010.06.03 17:35:07.
