data_PCOD9531931
_publ_section_title
;
Structure prediction by ZEFSAII (Michael W. Deem and Ramdas Pophale) SiO2 
 PCOD9531931
Probable space group: I B C A 
;
_chemical_formula_sum "Si O2"
_cell_formula_units_Z 56
_cell_length_a 7.781271
_cell_length_b 23.374847
_cell_length_c 13.490346
_cell_angle_alpha 90.000000
_cell_angle_beta 90.000000
_cell_angle_gamma 90.000000
_cell_volume 2453.705330
_symmetry_space_group_name_H-M "I B C A "
_symmetry_group_IT_number 73
_symmetry_cell_setting 'orthorhombic'
loop_
_space_group_symop_operation_xyz
x,y,z
-x,1/2-y,z
x,-y,1/2-z
1/2-x,y,-z
-x,-y,-z
x,1/2+y,-z
-x,y,1/2+z
1/2+x,-y,z
1/2+x,1/2+y,1/2+z
1/2-x,-y,1/2+z
1/2+x,1/2-y,-z
-x,1/2+y,1/2-z
1/2-x,1/2-y,1/2-z
1/2+x,y,1/2-z
1/2-x,1/2+y,z
x,1/2-y,1/2+z
loop_
_atom_site_type_symbol
_atom_site_label
_atom_site_fract_x
_atom_site_fract_y
_atom_site_fract_z
Si Si1 0.746698 0.719284 0.617116
Si Si2 0.114670 0.929827 0.919201
Si Si3 0.599683 0.170810 0.791307
Si Si4 0.750000 0.540848 0.500000
O O1 0.750000 0.717570 0.500000
O O2 0.728143 0.784130 0.655833
O O3 0.578795 0.687289 0.658157
O O4 0.895698 0.686465 0.675881
O O5 0.137293 0.894087 0.819574
O O6 0.916960 0.927227 0.957398
O O7 0.250000 0.904942 0.000000
O O8 0.170842 0.996466 0.918453
#
# Coordination Sequence:
#
# PCOD9531931 Si02
#       4
#    16  16  16   8
#     4  10  23  41  61  98 138 172 224 281 324 432
#     4   9  17  35  62 101 131 172 216 289 343 407
#     4  10  22  39  64  95 128 181 222 262 355 403
#     4   8  18  34  62 104 134 160 232 290 342 400
#
# _framework density 22.822624999999999
#
# number of rings (size 3 to 8) (size 9 to 14) (size 15 to 20)
#    0.857    1.714    0.000    0.857    2.000   11.429 
#    0.000    0.000    0.000    5.143    0.000    0.000 
#    0.000    0.000    0.000    0.000    0.000    0.000 
#
# Total GULP energy -156139.891504 kJ/mol
# GULP energy per Si atom -5576.424697 kJ/mol
# Density = 2.277068 g / cm^3
# Si number density = 22.822625 Si / 1000 Ang^3
#
#
#
# Elastic Constant Matrix: (Units=GPa)
#
#
# Indices 1 2 3 4 5 6 
#
# 1 143.9095 17.3091 34.7559 0.0000 0.0000 0.0000
# 2 17.3091 94.7293 37.3565 0.0000 0.0000 0.0000
# 3 34.7559 37.3565 137.7349 0.0000 0.0000 0.0000
# 4 0.0000 0.0000 0.0000 34.3253 0.0000 0.0000
# 5 0.0000 0.0000 0.0000 0.0000 17.2292 0.0000
# 6 0.0000 0.0000 0.0000 0.0000 0.0000 -4.6858
#
#
#
# Elastic Compliance Matrix: (Units=1/GPa)
#
#
# Indices 1 2 3 4 5 6 
#
# 1 0.007440 -0.000693 -0.001689 0.000000 0.000000 0.000000
# 2 -0.000693 0.011885 -0.003049 0.000000 0.000000 0.000000
# 3 -0.001689 -0.003049 0.008513 0.000000 0.000000 0.000000
# 4 0.000000 0.000000 0.000000 0.029133 0.000000 0.000000
# 5 0.000000 0.000000 0.000000 0.000000 0.058041 0.000000
# 6 0.000000 0.000000 0.000000 0.000000 0.000000 -0.213409
#
#
# Mechanical properties :
#
#
# Convention : Reuss Voigt Hill
#
# Bulk Modulus (GPa) = 58.90528 61.69074 60.29801
# Shear Modulus (GPa) = -61.06867 28.50390 -16.28238
#
# Velocity S-wave (km/s) = -5.17842 3.53786 -2.67391
# Velocity P-wave (km/s) = 3.14462 6.61648 4.11638
#
# Compressibility (1/GPa) = 0.01697641
#
# Stress axis : x y z
#
# Youngs Moduli (GPa) = 134.40478 84.13766 117.46089
#
# Poissons Ratio (x) = 0.05833 0.19844
# Poissons Ratio (y) = 0.09318 0.35809
# Poissons Ratio (z) = 0.22707 0.25650
#
# Static dielectric constant tensor:
#      x y z
#    x 1.991080 0.000000 0.000000 
#    y 0.000000 1.856890 0.000000 
#    z 0.000000 0.000000 1.836890 
# 
# From -- ./inp_files/9000.got.cif
#   From: 2010.05.17/outbox.cif.g08.bks.cpg/sg73_5_cif.got.tgz:9000.got - 2010.06.03 17:35:07.
