data_PCOD9531506
_publ_section_title
;
Structure prediction by ZEFSAII (Michael W. Deem and Ramdas Pophale) SiO2 
 PCOD9531506
Probable space group: I B C A 
;
_chemical_formula_sum "Si O2"
_cell_formula_units_Z 112
_cell_length_a 27.379356
_cell_length_b 14.520440
_cell_length_c 14.127012
_cell_angle_alpha 90.000000
_cell_angle_beta 90.000000
_cell_angle_gamma 90.000000
_cell_volume 5616.339073
_symmetry_space_group_name_H-M "I B C A "
_symmetry_group_IT_number 73
_symmetry_cell_setting 'orthorhombic'
loop_
_space_group_symop_operation_xyz
x,y,z
-x,1/2-y,z
x,-y,1/2-z
1/2-x,y,-z
-x,-y,-z
x,1/2+y,-z
-x,y,1/2+z
1/2+x,-y,z
1/2+x,1/2+y,1/2+z
1/2-x,-y,1/2+z
1/2+x,1/2-y,-z
-x,1/2+y,1/2-z
1/2-x,1/2-y,1/2-z
1/2+x,y,1/2-z
1/2-x,1/2+y,z
x,1/2-y,1/2+z
loop_
_atom_site_type_symbol
_atom_site_label
_atom_site_fract_x
_atom_site_fract_y
_atom_site_fract_z
Si Si1 0.871718 0.064305 0.659940
Si Si2 0.460229 0.170286 0.374226
Si Si3 0.473632 0.511795 0.101166
Si Si4 0.727503 0.648832 0.260166
Si Si5 0.451076 0.809802 0.902382
Si Si6 0.875233 0.261030 0.754880
Si Si7 0.766421 0.001838 0.894044
O O1 0.921069 0.062889 0.597619
O O2 0.860854 0.166138 0.700293
O O3 0.824467 0.017658 0.612302
O O4 0.882140 0.000000 0.750000
O O5 0.500000 0.250000 0.360759
O O6 0.487893 0.076726 0.347482
O O7 0.444581 0.175712 0.484843
O O8 0.414842 0.189127 0.309327
O O9 0.462590 0.410567 0.139054
O O10 0.500000 0.500000 0.000000
O O11 0.750000 0.750000 0.250000
O O12 0.670181 0.670875 0.264523
O O13 0.747947 0.584032 0.175014
O O14 0.742712 0.591775 0.352919
O O15 0.500000 0.750000 0.888955
O O16 0.403881 0.767796 0.850780
O O17 0.750000 0.020703 0.000000
#
# Coordination Sequence:
#
# PCOD9531506 Si02
#       7
#    16  16  16  16  16  16  16
#     4  12  21  41  73  94 128 190 233 272 355 436
#     4  10  21  40  62  95 136 171 229 281 332 421
#     4  10  22  40  65  94 131 172 226 280 328 407
#     4  11  24  49  69 106 140 173 240 307 336 432
#     4  10  23  40  60  94 132 177 228 280 336 421
#     4  12  23  40  69  94 136 186 225 283 366 404
#     4  11  26  48  74 101 142 179 236 303 364 421
#
# _framework density 19.941815999999999
#
# number of rings (size 3 to 8) (size 9 to 14) (size 15 to 20)
#    0.000    1.143    5.714    0.429    0.000    4.000 
#    5.143    0.000    0.000    0.000    0.000    0.000 
#    0.000    0.000    0.000    0.000    0.000    0.000 
#
# Total GULP energy -312706.370621 kJ/mol
# GULP energy per Si atom -5584.042333 kJ/mol
# Density = 1.989643 g / cm^3
# Si number density = 19.941816 Si / 1000 Ang^3
#
#
#
# Elastic Constant Matrix: (Units=GPa)
#
#
# Indices 1 2 3 4 5 6 
#
# 1 143.8928 32.1883 51.7029 0.0000 0.0000 0.0000
# 2 32.1883 94.2858 5.9899 0.0000 0.0000 0.0000
# 3 51.7029 5.9899 74.2142 0.0000 0.0000 0.0000
# 4 0.0000 0.0000 0.0000 14.9535 0.0000 0.0000
# 5 0.0000 0.0000 0.0000 0.0000 41.6651 0.0000
# 6 0.0000 0.0000 0.0000 0.0000 0.0000 38.1780
#
#
#
# Elastic Compliance Matrix: (Units=1/GPa)
#
#
# Indices 1 2 3 4 5 6 
#
# 1 0.010050 -0.003001 -0.006759 0.000000 0.000000 0.000000
# 2 -0.003001 0.011557 0.001158 0.000000 0.000000 0.000000
# 3 -0.006759 0.001158 0.018090 0.000000 0.000000 0.000000
# 4 0.000000 0.000000 0.000000 0.066874 0.000000 0.000000
# 5 0.000000 0.000000 0.000000 0.000000 0.024001 0.000000
# 6 0.000000 0.000000 0.000000 0.000000 0.000000 0.026193
#
#
# Mechanical properties :
#
#
# Convention : Reuss Voigt Hill
#
# Bulk Modulus (GPa) = 44.46003 54.68388 49.57195
# Shear Modulus (GPa) = 27.55330 33.79344 30.67337
#
# Velocity S-wave (km/s) = 3.72113 4.12102 3.92617
# Velocity P-wave (km/s) = 6.38794 7.07990 6.74280
#
# Compressibility (1/GPa) = 0.02249211
#
# Stress axis : x y z
#
# Youngs Moduli (GPa) = 99.50579 86.52662 55.27956
#
# Poissons Ratio (x) = 0.25971 0.37364
# Poissons Ratio (y) = 0.29866 -0.06403
# Poissons Ratio (z) = 0.67257 -0.10022
#
# Static dielectric constant tensor:
#      x y z
#    x -5.187850 0.000000 0.000000 
#    y 0.000000 1.679580 0.000000 
#    z 0.000000 0.000000 1.727350 
# 
# From -- ./inp_files/19410.got.cif
#   From: 2010.05.17/outbox.cif.g08.bks.cpg/sg73_10_cif.got.tgz:19410.got - 2010.06.03 17:35:07.
