data_PCOD9531777
_publ_section_title
;
Structure prediction by ZEFSAII (Michael W. Deem and Ramdas Pophale) SiO2 
 PCOD9531777
Probable space group: I B C A 
;
_chemical_formula_sum "Si O2"
_cell_formula_units_Z 88
_cell_length_a 13.846695
_cell_length_b 15.653987
_cell_length_c 20.364877
_cell_angle_alpha 90.000000
_cell_angle_beta 90.000000
_cell_angle_gamma 90.000000
_cell_volume 4414.208943
_symmetry_space_group_name_H-M "I B C A "
_symmetry_group_IT_number 73
_symmetry_cell_setting 'orthorhombic'
loop_
_space_group_symop_operation_xyz
x,y,z
-x,1/2-y,z
x,-y,1/2-z
1/2-x,y,-z
-x,-y,-z
x,1/2+y,-z
-x,y,1/2+z
1/2+x,-y,z
1/2+x,1/2+y,1/2+z
1/2-x,-y,1/2+z
1/2+x,1/2-y,-z
-x,1/2+y,1/2-z
1/2-x,1/2-y,1/2-z
1/2+x,y,1/2-z
1/2-x,1/2+y,z
x,1/2-y,1/2+z
loop_
_atom_site_type_symbol
_atom_site_label
_atom_site_fract_x
_atom_site_fract_y
_atom_site_fract_z
Si Si1 0.482659 0.154326 0.464911
Si Si2 0.674963 0.677447 0.918080
Si Si3 0.143341 0.637445 0.067643
Si Si4 0.486548 0.158521 0.684993
Si Si5 0.079920 0.000000 0.750000
Si Si6 0.658914 0.545684 0.111060
O O1 0.500000 0.250000 0.436920
O O2 0.401435 0.161631 0.522906
O O3 0.582388 0.131430 0.500907
O O4 0.443323 0.081790 0.416481
O O5 0.705521 0.776438 0.927383
O O6 0.615943 0.660906 0.850970
O O7 0.764510 0.615019 0.912909
O O8 0.188027 0.545930 0.081497
O O9 0.064029 0.653456 0.125241
O O10 0.500000 0.250000 0.719330
O O11 0.512033 0.078252 0.728684
O O12 0.144607 0.969368 0.811444
#
# Coordination Sequence:
#
# PCOD9531777 Si02
#       6
#    16  16  16  16   8  16
#     4   9  18  35  58  81 109 144 180 225 287 352
#     4   9  18  35  57  79 104 139 187 237 284 330
#     4   8  17  35  56  76 105 145 179 216 282 348
#     4   8  16  35  55  68  97 145 183 220 274 335
#     4  10  22  34  50  80 114 148 192 226 268 342
#     4  11  20  34  54  83 114 144 184 237 276 324
#
# _framework density 19.935621999999999
#
# number of rings (size 3 to 8) (size 9 to 14) (size 15 to 20)
#    0.000    2.909    0.000    3.273    0.000    1.455 
#    0.000   22.727    0.000    0.000    0.000    0.000 
#    0.000    0.000    0.000    0.000    0.000    0.000 
#
# Total GULP energy -245303.755650 kJ/mol
# GULP energy per Si atom -5575.085356 kJ/mol
# Density = 1.989025 g / cm^3
# Si number density = 19.935622 Si / 1000 Ang^3
#
#
#
# Elastic Constant Matrix: (Units=GPa)
#
#
# Indices 1 2 3 4 5 6 
#
# 1 52.6164 55.8758 13.1388 0.0000 0.0000 0.0000
# 2 55.8758 162.3511 41.0974 0.0000 0.0000 0.0000
# 3 13.1388 41.0974 57.8431 0.0000 0.0000 0.0000
# 4 0.0000 0.0000 0.0000 14.2226 0.0000 0.0000
# 5 0.0000 0.0000 0.0000 0.0000 17.1378 0.0000
# 6 0.0000 0.0000 0.0000 0.0000 0.0000 29.9667
#
#
#
# Elastic Compliance Matrix: (Units=1/GPa)
#
#
# Indices 1 2 3 4 5 6 
#
# 1 0.029972 -0.010476 0.000635 0.000000 0.000000 0.000000
# 2 -0.010476 0.011172 -0.005558 0.000000 0.000000 0.000000
# 3 0.000635 -0.005558 0.021093 0.000000 0.000000 0.000000
# 4 0.000000 0.000000 0.000000 0.070311 0.000000 0.000000
# 5 0.000000 0.000000 0.000000 0.000000 0.058350 0.000000
# 6 0.000000 0.000000 0.000000 0.000000 0.000000 0.033370
#
#
# Mechanical properties :
#
#
# Convention : Reuss Voigt Hill
#
# Bulk Modulus (GPa) = 31.80770 54.78161 43.29465
# Shear Modulus (GPa) = 18.82915 23.11200 20.97057
#
# Velocity S-wave (km/s) = 3.07660 3.40859 3.24684
# Velocity P-wave (km/s) = 5.34888 6.55974 5.98501
#
# Compressibility (1/GPa) = 0.03143893
#
# Stress axis : x y z
#
# Youngs Moduli (GPa) = 33.36449 89.50948 47.40944
#
# Poissons Ratio (x) = 0.93772 -0.03012
# Poissons Ratio (y) = 0.34953 0.26350
# Poissons Ratio (z) = -0.02120 0.49750
#
# Static dielectric constant tensor:
#      x y z
#    x 1.713940 0.000000 0.000000 
#    y 0.000000 1.731360 0.000000 
#    z 0.000000 0.000000 1.711940 
# 
# From -- ./inp_files/16975.got.cif
#   From: 2010.05.17/outbox.cif.g08.bks.cpg/sg73_9_cif.got.tgz:16975.got - 2010.06.03 17:35:07.
