data_PCOD9531593
_publ_section_title
;
Structure prediction by ZEFSAII (Michael W. Deem and Ramdas Pophale) SiO2 
 PCOD9531593
Probable space group: I B C A 
;
_chemical_formula_sum "Si O2"
_cell_formula_units_Z 120
_cell_length_a 13.669715
_cell_length_b 23.833450
_cell_length_c 18.039173
_cell_angle_alpha 90.000000
_cell_angle_beta 90.000000
_cell_angle_gamma 90.000000
_cell_volume 5877.098866
_symmetry_space_group_name_H-M "I B C A "
_symmetry_group_IT_number 73
_symmetry_cell_setting 'orthorhombic'
loop_
_space_group_symop_operation_xyz
x,y,z
-x,1/2-y,z
x,-y,1/2-z
1/2-x,y,-z
-x,-y,-z
x,1/2+y,-z
-x,y,1/2+z
1/2+x,-y,z
1/2+x,1/2+y,1/2+z
1/2-x,-y,1/2+z
1/2+x,1/2-y,-z
-x,1/2+y,1/2-z
1/2-x,1/2-y,1/2-z
1/2+x,y,1/2-z
1/2-x,1/2+y,z
x,1/2-y,1/2+z
loop_
_atom_site_type_symbol
_atom_site_label
_atom_site_fract_x
_atom_site_fract_y
_atom_site_fract_z
Si Si1 0.181888 0.386404 0.181868
Si Si2 0.000393 0.313890 0.668865
Si Si3 0.592851 0.855804 0.307712
Si Si4 0.637564 0.081686 0.981351
Si Si5 0.927834 0.549930 0.694535
Si Si6 0.000000 0.750000 0.609427
Si Si7 0.361700 0.539666 0.972965
Si Si8 0.033753 0.343279 0.500433
O O1 0.296113 0.372954 0.174884
O O2 0.137940 0.415084 0.107890
O O3 0.156114 0.421692 0.254711
O O4 0.109973 0.333460 0.186085
O O5 0.075872 0.347504 0.719799
O O6 0.029288 0.321120 0.583719
O O7 0.000000 0.250000 0.689166
O O8 0.514302 0.905459 0.323996
O O9 0.561840 0.795730 0.343753
O O10 0.601028 0.020208 0.005826
O O11 0.750000 0.088212 0.000000
O O12 0.575349 0.132349 0.014744
O O13 0.964218 0.500000 0.750000
O O14 0.880574 0.535387 0.615333
O O15 0.059456 0.792863 0.555244
O O16 0.404979 0.599446 0.996935
O O17 0.250000 0.540298 0.000000
#
# Coordination Sequence:
#
# PCOD9531593 Si02
#       8
#    16  16  16  16  16   8  16  16
#     4  10  23  41  65  96 127 173 225 268 335 405
#     4  10  22  43  63  91 131 172 218 272 328 398
#     4  11  24  43  68  96 132 176 223 279 339 394
#     4  10  21  41  65  90 126 170 217 270 329 395
#     4  11  23  45  66  99 136 172 225 281 337 405
#     4  12  22  42  68  94 132 170 222 278 322 408
#     4  11  24  42  64  99 135 171 222 279 337 395
#     4  11  23  42  64  92 132 172 217 269 333 397
#
# _framework density 20.418237999999999
#
# number of rings (size 3 to 8) (size 9 to 14) (size 15 to 20)
#    0.000    1.333    4.000    1.200    1.867    1.067 
#    2.400    0.667    0.000    0.000    0.000    0.000 
#    0.000    0.000    0.000    0.000    0.000    0.000 
#
# Total GULP energy -334401.533543 kJ/mol
# GULP energy per Si atom -5573.358892 kJ/mol
# Density = 2.037177 g / cm^3
# Si number density = 20.418238 Si / 1000 Ang^3
#
#
#
# Elastic Constant Matrix: (Units=GPa)
#
#
# Indices 1 2 3 4 5 6 
#
# 1 77.2067 42.8739 6.1120 0.0000 0.0000 0.0000
# 2 42.8739 125.1740 21.9035 0.0001 0.0000 0.0000
# 3 6.1120 21.9035 70.4032 0.0001 0.0000 0.0000
# 4 0.0000 0.0001 0.0001 39.2636 0.0000 0.0000
# 5 0.0000 0.0000 0.0000 0.0000 17.8690 0.0000
# 6 0.0000 0.0000 0.0000 0.0000 0.0000 6.0224
#
#
#
# Elastic Compliance Matrix: (Units=1/GPa)
#
#
# Indices 1 2 3 4 5 6 
#
# 1 0.016002 -0.005539 0.000334 0.000000 0.000000 0.000000
# 2 -0.005539 0.010366 -0.002744 0.000000 0.000000 0.000000
# 3 0.000334 -0.002744 0.015029 0.000000 0.000000 0.000000
# 4 0.000000 0.000000 0.000000 0.025469 0.000000 0.000000
# 5 0.000000 0.000000 0.000000 0.000000 0.055963 0.000000
# 6 0.000000 0.000000 0.000000 0.000000 0.000000 0.166047
#
#
# Mechanical properties :
#
#
# Convention : Reuss Voigt Hill
#
# Bulk Modulus (GPa) = 39.21861 46.06251 42.64056
# Shear Modulus (GPa) = 15.96049 26.09063 21.02556
#
# Velocity S-wave (km/s) = 2.79888 3.57853 3.21244
# Velocity P-wave (km/s) = 5.44925 6.29944 5.88971
#
# Compressibility (1/GPa) = 0.02549810
#
# Stress axis : x y z
#
# Youngs Moduli (GPa) = 62.49277 96.46565 66.53955
#
# Poissons Ratio (x) = 0.53436 -0.02224
# Poissons Ratio (y) = 0.34617 0.18260
# Poissons Ratio (z) = -0.02088 0.26472
#
# Static dielectric constant tensor:
#      x y z
#    x 1.702510 0.000000 0.000000 
#    y 0.000000 1.758610 0.000000 
#    z 0.000000 0.000000 1.823840 
# 
# From -- ./inp_files/25627.got.cif
#   From: 2010.05.17/outbox.cif.g08.bks.cpg/sg73_13_cif.got.tgz:25627.got - 2010.06.03 17:35:07.
