data_PCOD9531994
_publ_section_title
;
Structure prediction by ZEFSAII (Michael W. Deem and Ramdas Pophale) SiO2 
 PCOD9531994
Probable space group: I B C A 
;
_chemical_formula_sum "Si O2"
_cell_formula_units_Z 80
_cell_length_a 17.924480
_cell_length_b 13.686444
_cell_length_c 12.233984
_cell_angle_alpha 90.000000
_cell_angle_beta 90.000000
_cell_angle_gamma 90.000000
_cell_volume 3001.270216
_symmetry_space_group_name_H-M "I B C A "
_symmetry_group_IT_number 73
_symmetry_cell_setting 'orthorhombic'
loop_
_space_group_symop_operation_xyz
x,y,z
-x,1/2-y,z
x,-y,1/2-z
1/2-x,y,-z
-x,-y,-z
x,1/2+y,-z
-x,y,1/2+z
1/2+x,-y,z
1/2+x,1/2+y,1/2+z
1/2-x,-y,1/2+z
1/2+x,1/2-y,-z
-x,1/2+y,1/2-z
1/2-x,1/2-y,1/2-z
1/2+x,y,1/2-z
1/2-x,1/2+y,z
x,1/2-y,1/2+z
loop_
_atom_site_type_symbol
_atom_site_label
_atom_site_fract_x
_atom_site_fract_y
_atom_site_fract_z
Si Si1 0.100784 0.114003 0.045253
Si Si2 0.084720 0.239564 0.250807
Si Si3 0.310044 0.616767 0.840709
Si Si4 0.069888 0.883873 0.031792
Si Si5 0.205279 0.611972 0.388780
O O1 0.117128 0.168991 0.157368
O O2 0.093875 0.996229 0.057234
O O3 0.168652 0.146283 0.965084
O O4 0.017114 0.132560 0.997611
O O5 0.112429 0.347706 0.285702
O O6 0.089212 0.179123 0.363355
O O7 0.000000 0.250000 0.218138
O O8 0.265110 0.650033 0.729524
O O9 0.295009 0.503625 0.863227
O O10 0.122124 0.858156 0.928759
O O11 0.250000 0.631780 0.500000
#
# Coordination Sequence:
#
# PCOD9531994 Si02
#       5
#    16  16  16  16  16
#     4  10  22  40  64 103 140 180 221 291 363 439
#     4  12  23  36  66 106 147 173 220 294 368 426
#     4  10  23  42  70  99 132 178 230 291 357 412
#     4  10  22  40  67  98 138 185 235 276 358 427
#     4  10  23  48  71  91 135 192 244 286 336 418
#
# _framework density 26.655380999999998
#
# number of rings (size 3 to 8) (size 9 to 14) (size 15 to 20)
#    0.000    1.600    2.000    1.800    5.600    1.600 
#   14.400    2.000    0.000    0.000    0.000    0.000 
#    0.000    0.000    0.000    0.000    0.000    0.000 
#
# Total GULP energy -222732.486904 kJ/mol
# GULP energy per Si atom -5568.312173 kJ/mol
# Density = 2.659471 g / cm^3
# Si number density = 26.655381 Si / 1000 Ang^3
#
#
#
# Elastic Constant Matrix: (Units=GPa)
#
#
# Indices 1 2 3 4 5 6 
#
# 1 113.4797 14.7499 61.1305 0.0000 0.0000 0.0000
# 2 14.7499 126.4623 27.5291 0.0000 0.0000 0.0000
# 3 61.1305 27.5291 195.7752 0.0000 0.0000 0.0000
# 4 0.0000 0.0000 0.0000 27.9581 0.0000 0.0000
# 5 0.0000 0.0000 0.0000 0.0000 -1.8874 0.0000
# 6 0.0000 0.0000 0.0000 0.0000 0.0000 7.4872
#
#
#
# Elastic Compliance Matrix: (Units=1/GPa)
#
#
# Indices 1 2 3 4 5 6 
#
# 1 0.010629 -0.000534 -0.003244 0.000000 0.000000 0.000000
# 2 -0.000534 0.008184 -0.000984 0.000000 0.000000 0.000000
# 3 -0.003244 -0.000984 0.006259 0.000000 0.000000 0.000000
# 4 0.000000 0.000000 0.000000 0.035768 0.000000 0.000000
# 5 0.000000 0.000000 0.000000 0.000000 -0.529823 0.000000
# 6 0.000000 0.000000 0.000000 0.000000 0.000000 0.133561
#
#
# Mechanical properties :
#
#
# Convention : Reuss Voigt Hill
#
# Bulk Modulus (GPa) = 64.31326 71.39289 67.85307
# Shear Modulus (GPa) = -15.59012 28.86543 6.63765
#
# Velocity S-wave (km/s) = -2.42105 3.29433 1.57974
# Velocity P-wave (km/s) = 4.04534 6.42744 5.37014
#
# Compressibility (1/GPa) = 0.01554889
#
# Stress axis : x y z
#
# Youngs Moduli (GPa) = 94.08285 122.19006 159.76545
#
# Poissons Ratio (x) = 0.06520 0.51825
# Poissons Ratio (y) = 0.05020 0.15724
# Poissons Ratio (z) = 0.30519 0.12026
#
# Static dielectric constant tensor:
#      x y z
#    x 2.204980 0.000000 0.000000 
#    y 0.000000 2.131980 0.000000 
#    z 0.000000 0.000000 2.159370 
# 
# From -- ./inp_files/13437.got.cif
#   From: 2010.05.17/outbox.cif.g08.bks.cpg/sg73_7_cif.got.tgz:13437.got - 2010.06.03 17:35:07.
