data_PCOD9531815
_publ_section_title
;
Structure prediction by ZEFSAII (Michael W. Deem and Ramdas Pophale) SiO2 
 PCOD9531815
Probable space group: I B C A 
;
_chemical_formula_sum "Si O2"
_cell_formula_units_Z 88
_cell_length_a 8.678774
_cell_length_b 17.358470
_cell_length_c 27.624806
_cell_angle_alpha 90.000000
_cell_angle_beta 90.000000
_cell_angle_gamma 90.000000
_cell_volume 4161.683602
_symmetry_space_group_name_H-M "I B C A "
_symmetry_group_IT_number 73
_symmetry_cell_setting 'orthorhombic'
loop_
_space_group_symop_operation_xyz
x,y,z
-x,1/2-y,z
x,-y,1/2-z
1/2-x,y,-z
-x,-y,-z
x,1/2+y,-z
-x,y,1/2+z
1/2+x,-y,z
1/2+x,1/2+y,1/2+z
1/2-x,-y,1/2+z
1/2+x,1/2-y,-z
-x,1/2+y,1/2-z
1/2-x,1/2-y,1/2-z
1/2+x,y,1/2-z
1/2-x,1/2+y,z
x,1/2-y,1/2+z
loop_
_atom_site_type_symbol
_atom_site_label
_atom_site_fract_x
_atom_site_fract_y
_atom_site_fract_z
Si Si1 0.750000 0.253541 0.000000
Si Si2 0.000000 0.750000 0.757835
Si Si3 0.778265 0.174458 0.315072
Si Si4 0.473463 0.084063 0.567930
Si Si5 0.500000 0.250000 0.112074
Si Si6 0.308846 0.056240 0.893688
Si Si7 0.477391 0.137545 0.469935
O O1 0.669128 0.193156 0.962520
O O2 0.608920 0.313574 0.998747
O O3 0.914772 0.684808 0.724788
O O4 0.871148 0.789947 0.790331
O O5 0.732773 0.094782 0.341905
O O6 0.849633 0.227457 0.357238
O O7 0.460740 0.172676 0.583877
O O8 0.650346 0.060541 0.576651
O O9 0.431473 0.076800 0.511452
O O10 0.370778 0.030399 0.602639
O O11 0.440157 0.105093 0.922469
#
# Coordination Sequence:
#
# PCOD9531815 Si02
#       7
#     8   8  16  16   8  16  16
#     4  10  22  36  60  86 128 168 238 262 320 380
#     4   9  18  40  69  96 132 160 207 268 362 397
#     4   9  20  38  67  98 121 163 209 271 326 419
#     4  11  23  40  60  88 137 177 218 277 321 394
#     4   9  20  40  65  90 128 170 223 268 322 393
#     4  11  24  39  60  93 130 167 232 264 339 391
#     4  11  22  39  58  90 130 184 221 275 322 393
#
# _framework density 21.145289999999999
#
# number of rings (size 3 to 8) (size 9 to 14) (size 15 to 20)
#    0.000    1.818    1.818    1.636    5.091    2.909 
#    0.000    0.000    0.000   37.091    0.000    0.000 
#    0.000    0.000    0.000    0.000    0.000    0.000 
#
# Total GULP energy -244940.655956 kJ/mol
# GULP energy per Si atom -5566.833090 kJ/mol
# Density = 2.109716 g / cm^3
# Si number density = 21.145290 Si / 1000 Ang^3
#
#
#
# Elastic Constant Matrix: (Units=GPa)
#
#
# Indices 1 2 3 4 5 6 
#
# 1 116.2337 37.0337 41.3473 0.0000 0.0000 0.0000
# 2 37.0337 129.4216 43.1917 0.0000 0.0000 0.0000
# 3 41.3473 43.1917 86.4877 0.0000 0.0000 0.0000
# 4 0.0000 0.0000 0.0000 9.7435 0.0000 0.0000
# 5 0.0000 0.0000 0.0000 0.0000 23.7593 0.0000
# 6 0.0000 0.0000 0.0000 0.0000 0.0000 37.3922
#
#
#
# Elastic Compliance Matrix: (Units=1/GPa)
#
#
# Indices 1 2 3 4 5 6 
#
# 1 0.010641 -0.001617 -0.004280 0.000000 0.000000 0.000000
# 2 -0.001617 0.009518 -0.003980 0.000000 0.000000 0.000000
# 3 -0.004280 -0.003980 0.015596 0.000000 0.000000 0.000000
# 4 0.000000 0.000000 0.000000 0.102632 0.000000 0.000000
# 5 0.000000 0.000000 0.000000 0.000000 0.042089 0.000000
# 6 0.000000 0.000000 0.000000 0.000000 0.000000 0.026744
#
#
# Mechanical properties :
#
#
# Convention : Reuss Voigt Hill
#
# Bulk Modulus (GPa) = 62.49459 63.92094 63.20777
# Shear Modulus (GPa) = 21.52334 28.21703 24.87019
#
# Velocity S-wave (km/s) = 3.19388 3.65696 3.43324
# Velocity P-wave (km/s) = 6.57421 6.93730 6.75819
#
# Compressibility (1/GPa) = 0.01600138
#
# Stress axis : x y z
#
# Youngs Moduli (GPa) = 93.97747 105.06878 64.11871
#
# Poissons Ratio (x) = 0.16985 0.27441
# Poissons Ratio (y) = 0.15192 0.25521
# Poissons Ratio (z) = 0.40220 0.41820
#
# Static dielectric constant tensor:
#      x y z
#    x 1.783170 0.000000 0.000000 
#    y 0.000000 1.824240 0.000000 
#    z 0.000000 0.000000 1.807030 
# 
# From -- ./inp_files/5761.got.cif
#   From: 2010.05.17/outbox.cif.g08.bks.cpg/sg73_3_cif.got.tgz:5761.got - 2010.06.03 17:35:07.
