data_PCOD9531918
_publ_section_title
;
Structure prediction by ZEFSAII (Michael W. Deem and Ramdas Pophale) SiO2 
 PCOD9531918
Probable space group: I B C A 
;
_chemical_formula_sum "Si O2"
_cell_formula_units_Z 72
_cell_length_a 18.584887
_cell_length_b 8.315476
_cell_length_c 22.324790
_cell_angle_alpha 90.000000
_cell_angle_beta 90.000000
_cell_angle_gamma 90.000000
_cell_volume 3450.121755
_symmetry_space_group_name_H-M "I B C A "
_symmetry_group_IT_number 73
_symmetry_cell_setting 'orthorhombic'
loop_
_space_group_symop_operation_xyz
x,y,z
-x,1/2-y,z
x,-y,1/2-z
1/2-x,y,-z
-x,-y,-z
x,1/2+y,-z
-x,y,1/2+z
1/2+x,-y,z
1/2+x,1/2+y,1/2+z
1/2-x,-y,1/2+z
1/2+x,1/2-y,-z
-x,1/2+y,1/2-z
1/2-x,1/2-y,1/2-z
1/2+x,y,1/2-z
1/2-x,1/2+y,z
x,1/2-y,1/2+z
loop_
_atom_site_type_symbol
_atom_site_label
_atom_site_fract_x
_atom_site_fract_y
_atom_site_fract_z
Si Si1 0.527262 0.936795 0.683406
Si Si2 0.922650 0.412332 0.491123
Si Si3 0.783493 0.406452 0.060032
Si Si4 0.656977 0.623479 0.111551
Si Si5 0.500000 0.250000 0.103355
O O1 0.500000 0.750000 0.674911
O O2 0.612254 0.930987 0.668270
O O3 0.512344 0.000000 0.750000
O O4 0.499789 0.083855 0.640678
O O5 0.855380 0.508412 0.463991
O O6 0.900255 0.358703 0.557157
O O7 0.933873 0.269330 0.442952
O O8 0.000000 0.500000 0.500000
O O9 0.720037 0.513607 0.086121
O O10 0.807117 0.295957 0.114836
O O11 0.750000 0.321784 0.000000
#
# Coordination Sequence:
#
# PCOD9531918 Si02
#       5
#    16  16  16  16   8
#     4  12  27  49  72 104 137 190 248 311 369 434
#     4  11  21  36  68 109 141 179 224 291 359 424
#     4  10  22  39  60  98 149 185 218 282 359 438
#     4  11  24  40  66 100 142 182 235 281 366 438
#     4  12  24  42  76 102 146 172 236 310 358 426
#
# _framework density 20.868829999999999
#
# number of rings (size 3 to 8) (size 9 to 14) (size 15 to 20)
#    0.000    0.889    3.333    4.667    7.778    0.000 
#    0.000    1.111    0.000    0.000    0.000    0.000 
#    0.000    0.000    0.000    0.000    0.000    0.000 
#
# Total GULP energy -200660.545649 kJ/mol
# GULP energy per Si atom -5573.904046 kJ/mol
# Density = 2.082133 g / cm^3
# Si number density = 20.868830 Si / 1000 Ang^3
#
#
#
# Elastic Constant Matrix: (Units=GPa)
#
#
# Indices 1 2 3 4 5 6 
#
# 1 109.2459 40.6097 22.0834 0.0000 0.0000 0.0000
# 2 40.6097 112.9311 38.0876 0.0000 0.0000 0.0000
# 3 22.0834 38.0876 67.1867 0.0000 0.0000 0.0000
# 4 0.0000 0.0000 0.0000 34.1920 0.0000 0.0000
# 5 0.0000 0.0000 0.0000 0.0000 19.0479 0.0000
# 6 0.0000 0.0000 0.0000 0.0000 0.0000 28.8029
#
#
#
# Elastic Compliance Matrix: (Units=1/GPa)
#
#
# Indices 1 2 3 4 5 6 
#
# 1 0.010713 -0.003295 -0.001653 0.000000 0.000000 0.000000
# 2 -0.003295 0.011961 -0.005698 0.000000 0.000000 0.000000
# 3 -0.001653 -0.005698 0.018657 0.000000 0.000000 0.000000
# 4 0.000000 0.000000 0.000000 0.029247 0.000000 0.000000
# 5 0.000000 0.000000 0.000000 0.000000 0.052499 0.000000
# 6 0.000000 0.000000 0.000000 0.000000 0.000000 0.034719
#
#
# Mechanical properties :
#
#
# Convention : Reuss Voigt Hill
#
# Bulk Modulus (GPa) = 49.90123 54.54723 52.22423
# Shear Modulus (GPa) = 26.91533 28.98075 27.94804
#
# Velocity S-wave (km/s) = 3.59519 3.73058 3.66351
# Velocity P-wave (km/s) = 6.41854 6.68963 6.55549
#
# Compressibility (1/GPa) = 0.02003959
#
# Stress axis : x y z
#
# Youngs Moduli (GPa) = 93.34818 83.60241 53.59783
#
# Poissons Ratio (x) = 0.27543 0.08862
# Poissons Ratio (y) = 0.30754 0.30540
# Poissons Ratio (z) = 0.15434 0.47636
#
# Static dielectric constant tensor:
#      x y z
#    x 1.773050 0.000000 0.000000 
#    y 0.000000 1.937480 0.000000 
#    z 0.000000 0.000000 1.733030 
# 
# From -- ./inp_files/5363.got.cif
#   From: 2010.05.17/outbox.cif.g08.bks.cpg/sg73_3_cif.got.tgz:5363.got - 2010.06.03 17:35:07.
