data_PCOD9531529
_publ_section_title
;
Structure prediction by ZEFSAII (Michael W. Deem and Ramdas Pophale) SiO2 
 PCOD9531529
Probable space group: I B C A 
;
_chemical_formula_sum "Si O2"
_cell_formula_units_Z 72
_cell_length_a 9.261779
_cell_length_b 12.632394
_cell_length_c 26.058148
_cell_angle_alpha 90.000000
_cell_angle_beta 90.000000
_cell_angle_gamma 90.000000
_cell_volume 3048.762704
_symmetry_space_group_name_H-M "I B C A "
_symmetry_group_IT_number 73
_symmetry_cell_setting 'orthorhombic'
loop_
_space_group_symop_operation_xyz
x,y,z
-x,1/2-y,z
x,-y,1/2-z
1/2-x,y,-z
-x,-y,-z
x,1/2+y,-z
-x,y,1/2+z
1/2+x,-y,z
1/2+x,1/2+y,1/2+z
1/2-x,-y,1/2+z
1/2+x,1/2-y,-z
-x,1/2+y,1/2-z
1/2-x,1/2-y,1/2-z
1/2+x,y,1/2-z
1/2-x,1/2+y,z
x,1/2-y,1/2+z
loop_
_atom_site_type_symbol
_atom_site_label
_atom_site_fract_x
_atom_site_fract_y
_atom_site_fract_z
Si Si1 0.000000 0.750000 0.745440
Si Si2 0.452027 0.633608 0.547570
Si Si3 0.353644 0.577797 0.201872
Si Si4 0.126915 0.575799 0.566038
Si Si5 0.932497 0.076834 0.339103
O O1 0.877914 0.803425 0.779918
O O2 0.950488 0.656265 0.708517
O O3 0.500000 0.750000 0.564852
O O4 0.298403 0.595555 0.571394
O O5 0.421145 0.633647 0.486430
O O6 0.575318 0.545792 0.557276
O O7 0.313969 0.500000 0.250000
O O8 0.237867 0.568206 0.156836
O O9 0.503255 0.534090 0.179925
O O10 0.029790 0.613551 0.613753
#
# Coordination Sequence:
#
# PCOD9531529 Si02
#       5
#     8  16  16  16  16
#     4  10  22  38  64  98 132 184 224 272 350 402
#     4  10  23  45  72  98 147 186 227 293 369 426
#     4  10  21  40  64  92 135 180 221 282 346 403
#     4  10  23  43  68 107 136 183 236 292 349 425
#     4  11  22  40  65  95 136 172 232 284 330 421
#
# _framework density 23.616137999999999
#
# number of rings (size 3 to 8) (size 9 to 14) (size 15 to 20)
#    0.000    1.778    0.000    4.000    1.556    8.889 
#    6.000    0.000    4.889    0.000    0.000    0.000 
#    0.000    0.000    0.000    0.000    0.000    0.000 
#
# Total GULP energy -201300.942279 kJ/mol
# GULP energy per Si atom -5591.692841 kJ/mol
# Density = 2.356239 g / cm^3
# Si number density = 23.616138 Si / 1000 Ang^3
#
#
#
# Elastic Constant Matrix: (Units=GPa)
#
#
# Indices 1 2 3 4 5 6 
#
# 1 160.0866 77.7540 54.9965 0.0000 0.0000 0.0000
# 2 77.7540 127.7685 16.0433 0.0000 0.0000 0.0000
# 3 54.9965 16.0433 112.4897 0.0000 0.0000 0.0000
# 4 0.0000 0.0000 0.0000 7.4066 0.0000 0.0000
# 5 0.0000 0.0000 0.0000 0.0000 39.1172 0.0000
# 6 0.0000 0.0000 0.0000 0.0000 0.0000 20.8967
#
#
#
# Elastic Compliance Matrix: (Units=1/GPa)
#
#
# Indices 1 2 3 4 5 6 
#
# 1 0.010610 -0.005911 -0.004344 0.000000 0.000000 0.000000
# 2 -0.005911 0.011263 0.001284 0.000000 0.000000 0.000000
# 3 -0.004344 0.001284 0.010831 0.000000 0.000000 0.000000
# 4 0.000000 0.000000 0.000000 0.135015 0.000000 0.000000
# 5 0.000000 0.000000 0.000000 0.000000 0.025564 0.000000
# 6 0.000000 0.000000 0.000000 0.000000 0.000000 0.047855
#
#
# Mechanical properties :
#
#
# Convention : Reuss Voigt Hill
#
# Bulk Modulus (GPa) = 67.75143 77.54804 72.64974
# Shear Modulus (GPa) = 18.93930 30.25414 24.59672
#
# Velocity S-wave (km/s) = 2.83497 3.58310 3.23076
# Velocity P-wave (km/s) = 6.28227 7.07293 6.68929
#
# Compressibility (1/GPa) = 0.01475984
#
# Stress axis : x y z
#
# Youngs Moduli (GPa) = 94.24864 88.78733 92.33152
#
# Poissons Ratio (x) = 0.52486 0.40111
# Poissons Ratio (y) = 0.55714 -0.11853
# Poissons Ratio (z) = 0.40944 -0.11398
#
# Static dielectric constant tensor:
#      x y z
#    x 1.933700 0.000000 0.000000 
#    y 0.000000 1.855820 0.000000 
#    z 0.000000 0.000000 1.934260 
# 
# From -- ./inp_files/33503.got.cif
#   From: 2010.05.17/outbox.cif.g08.bks.cpg/sg73_17_cif.got.tgz:33503.got - 2010.06.03 17:35:07.
