data_PCOD9531749
_publ_section_title
;
Structure prediction by ZEFSAII (Michael W. Deem and Ramdas Pophale) SiO2 
 PCOD9531749
Probable space group: I B C A 
;
_chemical_formula_sum "Si O2"
_cell_formula_units_Z 96
_cell_length_a 27.836641
_cell_length_b 15.773109
_cell_length_c 8.637724
_cell_angle_alpha 90.000000
_cell_angle_beta 90.000000
_cell_angle_gamma 90.000000
_cell_volume 3792.568696
_symmetry_space_group_name_H-M "I B C A "
_symmetry_group_IT_number 73
_symmetry_cell_setting 'orthorhombic'
loop_
_space_group_symop_operation_xyz
x,y,z
-x,1/2-y,z
x,-y,1/2-z
1/2-x,y,-z
-x,-y,-z
x,1/2+y,-z
-x,y,1/2+z
1/2+x,-y,z
1/2+x,1/2+y,1/2+z
1/2-x,-y,1/2+z
1/2+x,1/2-y,-z
-x,1/2+y,1/2-z
1/2-x,1/2-y,1/2-z
1/2+x,y,1/2-z
1/2-x,1/2+y,z
x,1/2-y,1/2+z
loop_
_atom_site_type_symbol
_atom_site_label
_atom_site_fract_x
_atom_site_fract_y
_atom_site_fract_z
Si Si1 0.376435 0.260643 0.386536
Si Si2 0.556589 0.239230 0.613729
Si Si3 0.436208 0.077795 0.460073
Si Si4 0.010730 0.500000 0.750000
Si Si5 0.855966 0.000000 0.250000
Si Si6 0.693481 0.186777 0.136272
Si Si7 0.270893 0.121324 0.165085
O O1 0.415719 0.315551 0.483947
O O2 0.411468 0.218090 0.260513
O O3 0.342647 0.319181 0.281506
O O4 0.339065 0.200693 0.482304
O O5 0.500000 0.250000 0.635547
O O6 0.569700 0.330951 0.540334
O O7 0.458117 0.026403 0.604056
O O8 0.475579 0.072872 0.319939
O O9 0.389734 0.033977 0.387635
O O10 0.820089 0.073500 0.303465
O O11 0.717151 0.279783 0.142576
O O12 0.734928 0.120139 0.185228
O O13 0.250000 0.091131 0.000000
#
# Coordination Sequence:
#
# PCOD9531749 Si02
#       7
#    16  16  16   8   8  16  16
#     4  10  22  40  64 105 138 189 235 297 370 444
#     4  11  24  39  67 108 148 188 240 309 371 444
#     4  10  23  46  72 102 146 192 246 297 362 452
#     4   9  22  44  73  98 134 206 239 288 363 442
#     4  11  26  50  73 106 148 194 251 306 383 458
#     4  10  21  44  72  99 137 186 242 306 376 443
#     4  11  23  45  72 101 138 185 246 311 375 448
#
# _framework density 25.312660000000001
#
# number of rings (size 3 to 8) (size 9 to 14) (size 15 to 20)
#    0.000    1.667    1.667    1.500    4.667    1.333 
#   15.000    0.000    0.000    0.000    0.000    0.000 
#    0.000    0.000    0.000    0.000    0.000    0.000 
#
# Total GULP energy -267801.493107 kJ/mol
# GULP energy per Si atom -5579.197773 kJ/mol
# Density = 2.525505 g / cm^3
# Si number density = 25.312660 Si / 1000 Ang^3
#
#
#
# Elastic Constant Matrix: (Units=GPa)
#
#
# Indices 1 2 3 4 5 6 
#
# 1 209.9680 45.5693 92.4587 0.0000 0.0000 0.0000
# 2 45.5693 68.8629 26.3834 0.0000 0.0000 0.0000
# 3 92.4587 26.3834 149.0122 0.0000 0.0000 0.0000
# 4 0.0000 0.0000 0.0000 11.5273 0.0000 0.0000
# 5 0.0000 0.0000 0.0000 0.0000 50.6173 0.0000
# 6 0.0000 0.0000 0.0000 0.0000 0.0000 9.4942
#
#
#
# Elastic Compliance Matrix: (Units=1/GPa)
#
#
# Indices 1 2 3 4 5 6 
#
# 1 0.007178 -0.003265 -0.003876 0.000000 0.000000 0.000000
# 2 -0.003265 0.017064 -0.000995 0.000000 0.000000 0.000000
# 3 -0.003876 -0.000995 0.009292 0.000000 0.000000 0.000000
# 4 0.000000 0.000000 0.000000 0.086751 0.000000 0.000000
# 5 0.000000 0.000000 0.000000 0.000000 0.019756 0.000000
# 6 0.000000 0.000000 0.000000 0.000000 0.000000 0.105327
#
#
# Mechanical properties :
#
#
# Convention : Reuss Voigt Hill
#
# Bulk Modulus (GPa) = 57.93301 84.07399 71.00350
# Shear Modulus (GPa) = 18.69910 31.88988 25.29449
#
# Velocity S-wave (km/s) = 2.72090 3.55327 3.16457
# Velocity P-wave (km/s) = 5.72780 7.07959 6.43927
#
# Compressibility (1/GPa) = 0.01726132
#
# Stress axis : x y z
#
# Youngs Moduli (GPa) = 139.31770 58.60452 107.62168
#
# Poissons Ratio (x) = 0.19134 0.41710
# Poissons Ratio (y) = 0.45487 0.10712
# Poissons Ratio (z) = 0.53994 0.05833
#
# Static dielectric constant tensor:
#      x y z
#    x 2.259050 0.000000 0.000000 
#    y 0.000000 2.224620 0.000000 
#    z 0.000000 0.000000 2.269020 
# 
# From -- ./inp_files/7846.got.cif
#   From: 2010.05.17/outbox.cif.g08.bks.cpg/sg73_4_cif.got.tgz:7846.got - 2010.06.03 17:35:07.
