data_PCOD9531326
_publ_section_title
;
Structure prediction by ZEFSAII (Michael W. Deem and Ramdas Pophale) SiO2 
 PCOD9531326
Probable space group: I B C A 
;
_chemical_formula_sum "Si O2"
_cell_formula_units_Z 48
_cell_length_a 5.347543
_cell_length_b 18.597202
_cell_length_c 18.849352
_cell_angle_alpha 90.000000
_cell_angle_beta 90.000000
_cell_angle_gamma 90.000000
_cell_volume 1874.555566
_symmetry_space_group_name_H-M "I B C A "
_symmetry_group_IT_number 73
_symmetry_cell_setting 'orthorhombic'
loop_
_space_group_symop_operation_xyz
x,y,z
-x,1/2-y,z
x,-y,1/2-z
1/2-x,y,-z
-x,-y,-z
x,1/2+y,-z
-x,y,1/2+z
1/2+x,-y,z
1/2+x,1/2+y,1/2+z
1/2-x,-y,1/2+z
1/2+x,1/2-y,-z
-x,1/2+y,1/2-z
1/2-x,1/2-y,1/2-z
1/2+x,y,1/2-z
1/2-x,1/2+y,z
x,1/2-y,1/2+z
loop_
_atom_site_type_symbol
_atom_site_label
_atom_site_fract_x
_atom_site_fract_y
_atom_site_fract_z
Si Si1 0.930544 0.831579 0.936837
Si Si2 0.738203 0.032721 0.917633
Si Si3 0.917389 0.832799 0.777241
O O1 0.817014 0.831536 0.857782
O O2 0.000000 0.750000 0.953333
O O3 0.166478 0.883822 0.925536
O O4 0.750000 0.856140 0.000000
O O5 0.499829 0.991453 0.885036
O O6 0.750000 0.008314 0.000000
O O7 0.693766 0.866655 0.731653
O O8 0.000000 0.750000 0.758349
#
# Coordination Sequence:
#
# PCOD9531326 Si02
#       3
#    16  16  16
#     4  11  23  37  63  98 126 152 204 270 308 340
#     4  10  21  38  58  84 123 166 199 236 303 378
#     4   9  20  38  58  82 119 164 199 235 301 377
#
# _framework density 25.606071
#
# number of rings (size 3 to 8) (size 9 to 14) (size 15 to 20)
#    0.000    2.000    0.000    4.000    0.000   12.000 
#    0.000    0.000    0.000    6.000    0.000    0.000 
#    0.000    0.000    0.000    0.000    0.000    0.000 
#
# Total GULP energy -133951.340616 kJ/mol
# GULP energy per Si atom -5581.305859 kJ/mol
# Density = 2.554779 g / cm^3
# Si number density = 25.606071 Si / 1000 Ang^3
#
#
#
# Elastic Constant Matrix: (Units=GPa)
#
#
# Indices 1 2 3 4 5 6 
#
# 1 187.6530 30.3826 42.1494 0.0000 0.0000 0.0000
# 2 30.3826 157.5743 -13.0880 0.0000 0.0000 0.0000
# 3 42.1494 -13.0880 128.3626 0.0000 0.0000 0.0000
# 4 0.0000 0.0000 0.0000 -9.8442 0.0000 0.0000
# 5 0.0000 0.0000 0.0000 0.0000 32.9748 0.0000
# 6 0.0000 0.0000 0.0000 0.0000 0.0000 31.4785
#
#
#
# Elastic Compliance Matrix: (Units=1/GPa)
#
#
# Indices 1 2 3 4 5 6 
#
# 1 0.006020 -0.001336 -0.002113 0.000000 0.000000 0.000000
# 2 -0.001336 0.006697 0.001122 0.000000 0.000000 0.000000
# 3 -0.002113 0.001122 0.008599 0.000000 0.000000 0.000000
# 4 0.000000 0.000000 0.000000 -0.101582 0.000000 0.000000
# 5 0.000000 0.000000 0.000000 0.000000 0.030326 0.000000
# 6 0.000000 0.000000 0.000000 0.000000 0.000000 0.031768
#
#
# Mechanical properties :
#
#
# Convention : Reuss Voigt Hill
#
# Bulk Modulus (GPa) = 60.02261 65.83084 62.92672
# Shear Modulus (GPa) = -627.79754 38.53156 -294.63299
#
# Velocity S-wave (km/s) = -15.67506 3.88336 -10.73841
# Velocity P-wave (km/s) = 17.43899 6.77290 11.36323
#
# Compressibility (1/GPa) = 0.01666039
#
# Stress axis : x y z
#
# Youngs Moduli (GPa) = 166.11488 149.32018 116.29790
#
# Poissons Ratio (x) = 0.19953 0.24573
# Poissons Ratio (y) = 0.22197 -0.13044
# Poissons Ratio (z) = 0.35099 -0.16748
#
# Static dielectric constant tensor:
#      x y z
#    x 2.195830 0.000000 0.000000 
#    y 0.000000 2.058010 0.000000 
#    z 0.000000 0.000000 2.064580 
# 
# From -- ./inp_files/24298.got.cif
#   From: 2010.05.17/outbox.cif.g08.bks.cpg/sg73_13_cif.got.tgz:24298.got - 2010.06.03 17:35:07.
