data_PCOD9531100
_publ_section_title
;
Structure prediction by ZEFSAII (Michael W. Deem and Ramdas Pophale) SiO2 
 PCOD9531100
Probable space group: I B C A 
;
_chemical_formula_sum "Si O2"
_cell_formula_units_Z 104
_cell_length_a 24.230232
_cell_length_b 18.371211
_cell_length_c 9.819610
_cell_angle_alpha 90.000000
_cell_angle_beta 90.000000
_cell_angle_gamma 90.000000
_cell_volume 4371.088476
_symmetry_space_group_name_H-M "I B C A "
_symmetry_group_IT_number 73
_symmetry_cell_setting 'orthorhombic'
loop_
_space_group_symop_operation_xyz
x,y,z
-x,1/2-y,z
x,-y,1/2-z
1/2-x,y,-z
-x,-y,-z
x,1/2+y,-z
-x,y,1/2+z
1/2+x,-y,z
1/2+x,1/2+y,1/2+z
1/2-x,-y,1/2+z
1/2+x,1/2-y,-z
-x,1/2+y,1/2-z
1/2-x,1/2-y,1/2-z
1/2+x,y,1/2-z
1/2-x,1/2+y,z
x,1/2-y,1/2+z
loop_
_atom_site_type_symbol
_atom_site_label
_atom_site_fract_x
_atom_site_fract_y
_atom_site_fract_z
Si Si1 0.250000 0.142224 0.500000
Si Si2 0.750000 0.608045 0.500000
Si Si3 0.810042 0.225799 0.362628
Si Si4 0.559456 0.399584 0.460808
Si Si5 0.364781 0.000000 0.750000
Si Si6 0.547607 0.888303 0.217211
Si Si7 0.670206 0.973930 0.523277
Si Si8 0.113929 0.754426 0.391079
O O1 0.214217 0.196895 0.409304
O O2 0.289814 0.087372 0.417220
O O3 0.761893 0.665828 0.621023
O O4 0.699029 0.552215 0.477519
O O5 0.856406 0.209395 0.478576
O O6 0.839949 0.233498 0.219669
O O7 0.542565 0.400643 0.620331
O O8 0.507476 0.407444 0.362999
O O9 0.608123 0.457738 0.430041
O O10 0.585023 0.319718 0.437494
O O11 0.403770 0.056876 0.826069
O O12 0.330984 0.043086 0.639032
O O13 0.569862 0.808559 0.178277
#
# Coordination Sequence:
#
# PCOD9531100 Si02
#       8
#     8   8  16  16   8  16  16  16
#     4  10  20  42  68  98 142 184 236 290 364 422
#     4  10  24  42  68 108 140 184 244 292 354 436
#     4  11  24  41  71 104 139 184 237 294 353 430
#     4  11  25  46  71 102 140 191 236 303 358 438
#     4  10  22  44  70  94 140 190 234 298 358 442
#     4  11  25  43  73 102 139 187 240 297 370 426
#     4  10  21  44  67 100 141 190 232 295 361 430
#     4  12  23  45  69 104 141 185 237 302 355 432
#
# _framework density 23.792701000000001
#
# number of rings (size 3 to 8) (size 9 to 14) (size 15 to 20)
#    0.000    1.231    3.077    2.308    2.154    7.385 
#    2.769    0.000    0.000    0.000    0.000    0.000 
#    0.000    0.000    0.000    0.000    0.000    0.000 
#
# Total GULP energy -290705.001364 kJ/mol
# GULP energy per Si atom -5590.480795 kJ/mol
# Density = 2.373855 g / cm^3
# Si number density = 23.792701 Si / 1000 Ang^3
#
#
#
# Elastic Constant Matrix: (Units=GPa)
#
#
# Indices 1 2 3 4 5 6 
#
# 1 109.7345 34.6309 48.2676 0.0000 0.0000 0.0000
# 2 34.6309 121.3514 16.6651 0.0000 0.0000 0.0000
# 3 48.2676 16.6651 90.6172 0.0000 0.0000 0.0000
# 4 0.0000 0.0000 0.0000 26.4356 0.0000 0.0000
# 5 0.0000 0.0000 0.0000 0.0000 43.6359 0.0000
# 6 0.0000 0.0000 0.0000 0.0000 0.0000 25.4061
#
#
#
# Elastic Compliance Matrix: (Units=1/GPa)
#
#
# Indices 1 2 3 4 5 6 
#
# 1 0.012752 -0.002777 -0.006282 0.000000 0.000000 0.000000
# 2 -0.002777 0.009059 -0.000187 0.000000 0.000000 0.000000
# 3 -0.006282 -0.000187 0.014416 0.000000 0.000000 0.000000
# 4 0.000000 0.000000 0.000000 0.037828 0.000000 0.000000
# 5 0.000000 0.000000 0.000000 0.000000 0.022917 0.000000
# 6 0.000000 0.000000 0.000000 0.000000 0.000000 0.039361
#
#
# Mechanical properties :
#
#
# Convention : Reuss Voigt Hill
#
# Bulk Modulus (GPa) = 56.38294 57.87002 57.12648
# Shear Modulus (GPa) = 31.10710 33.90483 32.50597
#
# Velocity S-wave (km/s) = 3.61975 3.77903 3.70025
# Velocity P-wave (km/s) = 6.42022 6.58914 6.50523
#
# Compressibility (1/GPa) = 0.01773586
#
# Stress axis : x y z
#
# Youngs Moduli (GPa) = 78.41726 110.39279 69.36778
#
# Poissons Ratio (x) = 0.30651 0.43576
# Poissons Ratio (y) = 0.21773 0.01297
# Poissons Ratio (z) = 0.49261 0.02064
#
# Static dielectric constant tensor:
#      x y z
#    x 1.948510 0.000000 0.000000 
#    y 0.000000 1.913910 0.000000 
#    z 0.000000 0.000000 1.919020 
# 
# From -- ./inp_files/7936.got.cif
#   From: 2010.05.17/outbox.cif.g08.bks.cpg/sg73_4_cif.got.tgz:7936.got - 2010.06.03 17:35:07.
