data_PCOD9531031
_publ_section_title
;
Structure prediction by ZEFSAII (Michael W. Deem and Ramdas Pophale) SiO2 
 PCOD9531031
Probable space group: I B C A 
;
_chemical_formula_sum "Si O2"
_cell_formula_units_Z 88
_cell_length_a 9.180694
_cell_length_b 28.472636
_cell_length_c 16.558188
_cell_angle_alpha 90.000000
_cell_angle_beta 90.000000
_cell_angle_gamma 90.000000
_cell_volume 4328.286474
_symmetry_space_group_name_H-M "I B C A "
_symmetry_group_IT_number 73
_symmetry_cell_setting 'orthorhombic'
loop_
_space_group_symop_operation_xyz
x,y,z
-x,1/2-y,z
x,-y,1/2-z
1/2-x,y,-z
-x,-y,-z
x,1/2+y,-z
-x,y,1/2+z
1/2+x,-y,z
1/2+x,1/2+y,1/2+z
1/2-x,-y,1/2+z
1/2+x,1/2-y,-z
-x,1/2+y,1/2-z
1/2-x,1/2-y,1/2-z
1/2+x,y,1/2-z
1/2-x,1/2+y,z
x,1/2-y,1/2+z
loop_
_atom_site_type_symbol
_atom_site_label
_atom_site_fract_x
_atom_site_fract_y
_atom_site_fract_z
Si Si1 0.115709 0.565908 0.294412
Si Si2 0.783984 0.295470 0.696566
Si Si3 0.802240 0.636780 0.664273
Si Si4 0.362091 0.000000 0.750000
Si Si5 0.509014 0.850318 0.603518
Si Si6 0.539416 0.196499 0.065864
O O1 0.129977 0.589986 0.204593
O O2 0.254583 0.532298 0.302844
O O3 0.099799 0.606064 0.361209
O O4 0.970031 0.534915 0.296422
O O5 0.750000 0.250000 0.750000
O O6 0.742662 0.337665 0.755791
O O7 0.946293 0.307233 0.664003
O O8 0.684290 0.297792 0.618070
O O9 0.660206 0.634842 0.608251
O O10 0.920325 0.670775 0.622868
O O11 0.549057 0.834328 0.514248
O O12 0.500000 0.250000 0.043029
#
# Coordination Sequence:
#
# PCOD9531031 Si02
#       6
#    16  16  16   8  16  16
#     4  10  21  42  70 107 129 170 222 279 342 403
#     4  11  23  41  62  90 126 178 238 278 316 385
#     4  11  23  41  67  94 134 177 227 280 332 394
#     4  10  20  40  78 104 128 164 232 280 332 426
#     4  11  25  40  63  96 141 177 218 283 340 393
#     4  12  26  42  63  96 136 191 232 278 331 391
#
# _framework density 20.331371000000001
#
# number of rings (size 3 to 8) (size 9 to 14) (size 15 to 20)
#    0.000    1.091    3.636    3.273    5.091    1.455 
#    0.000    0.000    0.000    6.545    0.000    0.000 
#    0.000    0.000    0.000    0.000    0.000    0.000 
#
# Total GULP energy -245515.047440 kJ/mol
# GULP energy per Si atom -5579.887442 kJ/mol
# Density = 2.028510 g / cm^3
# Si number density = 20.331371 Si / 1000 Ang^3
#
#
#
# Elastic Constant Matrix: (Units=GPa)
#
#
# Indices 1 2 3 4 5 6 
#
# 1 113.8170 45.3060 32.4769 0.0000 0.0000 0.0000
# 2 45.3060 120.5220 41.7790 0.0000 0.0000 0.0000
# 3 32.4769 41.7790 93.8725 0.0003 0.0000 0.0000
# 4 0.0000 0.0000 0.0003 23.8892 0.0000 0.0000
# 5 0.0000 0.0000 0.0000 0.0000 12.7243 0.0000
# 6 0.0000 0.0000 0.0000 0.0000 0.0000 29.1919
#
#
#
# Elastic Compliance Matrix: (Units=1/GPa)
#
#
# Indices 1 2 3 4 5 6 
#
# 1 0.010725 -0.003246 -0.002266 0.000000 0.000000 0.000000
# 2 -0.003246 0.010793 -0.003681 0.000000 0.000000 0.000000
# 3 -0.002266 -0.003681 0.013075 0.000000 0.000000 0.000000
# 4 0.000000 0.000000 0.000000 0.041860 0.000000 0.000000
# 5 0.000000 0.000000 0.000000 0.000000 0.078590 0.000000
# 6 0.000000 0.000000 0.000000 0.000000 0.000000 0.034256
#
#
# Mechanical properties :
#
#
# Convention : Reuss Voigt Hill
#
# Bulk Modulus (GPa) = 61.69850 63.03723 62.36786
# Shear Modulus (GPa) = 23.46466 27.07104 25.26785
#
# Velocity S-wave (km/s) = 3.40091 3.65292 3.52916
# Velocity P-wave (km/s) = 6.77007 6.99028 6.88106
#
# Compressibility (1/GPa) = 0.01620785
#
# Stress axis : x y z
#
# Youngs Moduli (GPa) = 93.24267 92.64896 76.48350
#
# Poissons Ratio (x) = 0.30076 0.17329
# Poissons Ratio (y) = 0.30268 0.28151
# Poissons Ratio (z) = 0.21126 0.34101
#
# Static dielectric constant tensor:
#      x y z
#    x 1.797520 0.000000 0.000000 
#    y 0.000000 1.779140 0.000000 
#    z 0.000000 0.000000 1.704910 
# 
# From -- ./inp_files/20829.got.cif
#   From: 2010.05.17/outbox.cif.g08.bks.cpg/sg73_11_cif.got.tgz:20829.got - 2010.06.03 17:35:07.
