data_PCOD9531125
_publ_section_title
;
Structure prediction by ZEFSAII (Michael W. Deem and Ramdas Pophale) SiO2 
 PCOD9531125
Probable space group: I B C A 
;
_chemical_formula_sum "Si O2"
_cell_formula_units_Z 88
_cell_length_a 9.259391
_cell_length_b 15.274375
_cell_length_c 30.018687
_cell_angle_alpha 90.000000
_cell_angle_beta 90.000000
_cell_angle_gamma 90.000000
_cell_volume 4245.585241
_symmetry_space_group_name_H-M "I B C A "
_symmetry_group_IT_number 73
_symmetry_cell_setting 'orthorhombic'
loop_
_space_group_symop_operation_xyz
x,y,z
-x,1/2-y,z
x,-y,1/2-z
1/2-x,y,-z
-x,-y,-z
x,1/2+y,-z
-x,y,1/2+z
1/2+x,-y,z
1/2+x,1/2+y,1/2+z
1/2-x,-y,1/2+z
1/2+x,1/2-y,-z
-x,1/2+y,1/2-z
1/2-x,1/2-y,1/2-z
1/2+x,y,1/2-z
1/2-x,1/2+y,z
x,1/2-y,1/2+z
loop_
_atom_site_type_symbol
_atom_site_label
_atom_site_fract_x
_atom_site_fract_y
_atom_site_fract_z
Si Si1 0.000000 0.250000 0.062082
Si Si2 0.287056 0.000000 0.750000
Si Si3 0.750000 0.806979 0.000000
Si Si4 0.958374 0.452176 0.812807
Si Si5 0.389646 0.902524 0.116015
Si Si6 0.939929 0.546071 0.543962
Si Si7 0.922617 0.839550 0.611191
O O1 0.999025 0.334996 0.093535
O O2 0.139347 0.248806 0.029774
O O3 0.178531 0.943246 0.719589
O O4 0.396518 0.952907 0.783608
O O5 0.835510 0.874587 0.031279
O O6 0.939876 0.543716 0.840320
O O7 0.978604 0.377945 0.849328
O O8 0.244866 0.846010 0.124866
O O9 0.370577 0.976916 0.078020
O O10 0.000000 0.500000 0.500000
O O11 0.067410 0.592894 0.570603
O O12 0.000000 0.750000 0.598092
#
# Coordination Sequence:
#
# PCOD9531125 Si02
#       7
#     8   8   8  16  16  16  16
#     4  12  28  40  66  92 146 176 230 290 340 394
#     4  10  20  42  76  98 126 168 220 266 330 416
#     4  12  26  42  60 100 126 192 232 288 332 390
#     4  10  22  42  72  99 131 171 216 268 335 416
#     4  11  24  42  64  99 132 178 224 276 337 394
#     4  11  23  41  66  91 132 181 237 277 326 386
#     4  11  24  41  65  98 139 176 219 279 336 396
#
# _framework density 20.727412999999999
#
# number of rings (size 3 to 8) (size 9 to 14) (size 15 to 20)
#    0.000    1.091    3.636    2.182    6.364    2.182 
#    0.000    0.909    8.000    0.000    0.000    0.000 
#    0.000    0.000    0.000    0.000    0.000    0.000 
#
# Total GULP energy -245649.108627 kJ/mol
# GULP energy per Si atom -5582.934287 kJ/mol
# Density = 2.068024 g / cm^3
# Si number density = 20.727413 Si / 1000 Ang^3
#
#
#
# Elastic Constant Matrix: (Units=GPa)
#
#
# Indices 1 2 3 4 5 6 
#
# 1 98.3227 17.1672 37.2893 0.0000 0.0000 0.0000
# 2 17.1672 68.5735 34.9467 0.0000 0.0000 0.0000
# 3 37.2893 34.9467 111.0475 0.0000 0.0000 0.0000
# 4 0.0000 0.0000 0.0000 10.8856 0.0000 0.0000
# 5 0.0000 0.0000 0.0000 0.0000 28.0150 0.0000
# 6 0.0000 0.0000 0.0000 0.0000 0.0000 21.8354
#
#
#
# Elastic Compliance Matrix: (Units=1/GPa)
#
#
# Indices 1 2 3 4 5 6 
#
# 1 0.011725 -0.001106 -0.003589 0.000000 0.000000 0.000000
# 2 -0.001106 0.017473 -0.005127 0.000000 0.000000 0.000000
# 3 -0.003589 -0.005127 0.011824 0.000000 0.000000 0.000000
# 4 0.000000 0.000000 0.000000 0.091865 0.000000 0.000000
# 5 0.000000 0.000000 0.000000 0.000000 0.035695 0.000000
# 6 0.000000 0.000000 0.000000 0.000000 0.000000 0.045797
#
#
# Mechanical properties :
#
#
# Convention : Reuss Voigt Hill
#
# Bulk Modulus (GPa) = 46.78020 50.75003 48.76511
# Shear Modulus (GPa) = 20.73404 24.71655 22.72530
#
# Velocity S-wave (km/s) = 3.16621 3.45694 3.31477
# Velocity P-wave (km/s) = 5.99873 6.36173 6.18290
#
# Compressibility (1/GPa) = 0.02137657
#
# Stress axis : x y z
#
# Youngs Moduli (GPa) = 85.28855 57.23176 84.57452
#
# Poissons Ratio (x) = 0.06331 0.30354
# Poissons Ratio (y) = 0.09435 0.43363
# Poissons Ratio (z) = 0.30610 0.29344
#
# Static dielectric constant tensor:
#      x y z
#    x 1.734670 0.000000 0.000000 
#    y 0.000000 1.786420 0.000000 
#    z 0.000000 0.000000 1.757700 
# 
# From -- ./inp_files/8402.got.cif
#   From: 2010.05.17/outbox.cif.g08.bks.cpg/sg73_5_cif.got.tgz:8402.got - 2010.06.03 17:35:07.
