data_PCOD9531084
_publ_section_title
;
Structure prediction by ZEFSAII (Michael W. Deem and Ramdas Pophale) SiO2 
 PCOD9531084
Probable space group: I B C A 
;
_chemical_formula_sum "Si O2"
_cell_formula_units_Z 96
_cell_length_a 14.676960
_cell_length_b 19.076564
_cell_length_c 14.716317
_cell_angle_alpha 90.000000
_cell_angle_beta 90.000000
_cell_angle_gamma 90.000000
_cell_volume 4120.362242
_symmetry_space_group_name_H-M "I B C A "
_symmetry_group_IT_number 73
_symmetry_cell_setting 'orthorhombic'
loop_
_space_group_symop_operation_xyz
x,y,z
-x,1/2-y,z
x,-y,1/2-z
1/2-x,y,-z
-x,-y,-z
x,1/2+y,-z
-x,y,1/2+z
1/2+x,-y,z
1/2+x,1/2+y,1/2+z
1/2-x,-y,1/2+z
1/2+x,1/2-y,-z
-x,1/2+y,1/2-z
1/2-x,1/2-y,1/2-z
1/2+x,y,1/2-z
1/2-x,1/2+y,z
x,1/2-y,1/2+z
loop_
_atom_site_type_symbol
_atom_site_label
_atom_site_fract_x
_atom_site_fract_y
_atom_site_fract_z
Si Si1 0.463776 0.529857 0.652859
Si Si2 0.184681 0.623415 0.298455
Si Si3 0.750000 0.572606 0.500000
Si Si4 0.666343 0.585877 0.670851
Si Si5 0.000000 0.250000 0.984924
Si Si6 0.685564 0.741831 0.588207
Si Si7 0.922166 0.119051 0.391922
O O1 0.432470 0.500000 0.750000
O O2 0.381121 0.582017 0.630807
O O3 0.560221 0.566999 0.670096
O O4 0.469226 0.457271 0.598261
O O5 0.274406 0.582843 0.262277
O O6 0.212071 0.697045 0.342030
O O7 0.121648 0.633705 0.207354
O O8 0.712439 0.538520 0.591708
O O9 0.837718 0.613599 0.538688
O O10 0.680654 0.666656 0.638520
O O11 0.985539 0.318030 0.922541
O O12 0.913907 0.242240 0.049510
O O13 0.750000 0.743706 0.500000
#
# Coordination Sequence:
#
# PCOD9531084 Si02
#       7
#    16  16   8  16   8  16  16
#     4  10  24  43  67 100 138 174 235 285 344 419
#     4  10  24  43  68  99 137 182 235 279 342 419
#     4  10  20  42  66  96 134 180 222 282 346 400
#     4  11  21  43  72  95 138 184 225 289 347 401
#     4  12  24  42  72  98 140 174 230 296 338 416
#     4  12  24  44  66 103 140 182 235 288 339 412
#     4  10  23  45  69  98 137 180 228 286 346 418
#
# _framework density 23.298922000000001
#
# number of rings (size 3 to 8) (size 9 to 14) (size 15 to 20)
#    0.000    1.333    2.500    2.500    0.000   10.000 
#    1.500    0.000    0.000    0.000    0.000    0.000 
#    0.000    0.000    0.000    0.000    0.000    0.000 
#
# Total GULP energy -267977.224128 kJ/mol
# GULP energy per Si atom -5582.858836 kJ/mol
# Density = 2.324589 g / cm^3
# Si number density = 23.298922 Si / 1000 Ang^3
#
#
#
# Elastic Constant Matrix: (Units=GPa)
#
#
# Indices 1 2 3 4 5 6 
#
# 1 136.7430 51.6899 14.6495 0.0000 0.0000 0.0000
# 2 51.6899 139.3573 48.7104 0.0000 0.0000 0.0000
# 3 14.6495 48.7104 67.8908 -0.0001 0.0000 0.0000
# 4 0.0000 0.0000 -0.0001 29.9986 0.0000 0.0000
# 5 0.0000 0.0000 0.0000 0.0000 32.0450 0.0000
# 6 0.0000 0.0000 0.0000 0.0000 0.0000 27.5261
#
#
#
# Elastic Compliance Matrix: (Units=1/GPa)
#
#
# Indices 1 2 3 4 5 6 
#
# 1 0.008522 -0.003361 0.000573 0.000000 0.000000 0.000000
# 2 -0.003361 0.010903 -0.007098 0.000000 0.000000 0.000000
# 3 0.000573 -0.007098 0.019698 0.000000 0.000000 0.000000
# 4 0.000000 0.000000 0.000000 0.033335 0.000000 0.000000
# 5 0.000000 0.000000 0.000000 0.000000 0.031206 0.000000
# 6 0.000000 0.000000 0.000000 0.000000 0.000000 0.036329
#
#
# Mechanical properties :
#
#
# Convention : Reuss Voigt Hill
#
# Bulk Modulus (GPa) = 51.67539 63.78787 57.73163
# Shear Modulus (GPa) = 30.08111 33.17669 31.62890
#
# Velocity S-wave (km/s) = 3.59708 3.77763 3.68846
# Velocity P-wave (km/s) = 6.28326 6.81651 6.55531
#
# Compressibility (1/GPa) = 0.01935157
#
# Stress axis : x y z
#
# Youngs Moduli (GPa) = 117.34070 91.71422 50.76541
#
# Poissons Ratio (x) = 0.30827 -0.02907
# Poissons Ratio (y) = 0.39440 0.36032
# Poissons Ratio (z) = -0.06720 0.65096
#
# Static dielectric constant tensor:
#      x y z
#    x 1.825550 0.000000 0.000000 
#    y 0.000000 1.975810 0.000000 
#    z 0.000000 0.000000 1.943220 
# 
# From -- ./inp_files/17102.got.cif
#   From: 2010.05.17/outbox.cif.g08.bks.cpg/sg73_9_cif.got.tgz:17102.got - 2010.06.03 17:35:07.
