data_PCOD9531352
_publ_section_title
;
Structure prediction by ZEFSAII (Michael W. Deem and Ramdas Pophale) SiO2 
 PCOD9531352
Probable space group: I B C A 
;
_chemical_formula_sum "Si O2"
_cell_formula_units_Z 104
_cell_length_a 13.844234
_cell_length_b 22.627080
_cell_length_c 18.185920
_cell_angle_alpha 90.000000
_cell_angle_beta 90.000000
_cell_angle_gamma 90.000000
_cell_volume 5696.822918
_symmetry_space_group_name_H-M "I B C A "
_symmetry_group_IT_number 73
_symmetry_cell_setting 'orthorhombic'
loop_
_space_group_symop_operation_xyz
x,y,z
-x,1/2-y,z
x,-y,1/2-z
1/2-x,y,-z
-x,-y,-z
x,1/2+y,-z
-x,y,1/2+z
1/2+x,-y,z
1/2+x,1/2+y,1/2+z
1/2-x,-y,1/2+z
1/2+x,1/2-y,-z
-x,1/2+y,1/2-z
1/2-x,1/2-y,1/2-z
1/2+x,y,1/2-z
1/2-x,1/2+y,z
x,1/2-y,1/2+z
loop_
_atom_site_type_symbol
_atom_site_label
_atom_site_fract_x
_atom_site_fract_y
_atom_site_fract_z
Si Si1 0.357283 0.054387 0.306782
Si Si2 0.639333 0.548990 0.814077
Si Si3 0.962189 0.834562 0.914159
Si Si4 0.000000 0.250000 0.870100
Si Si5 0.997475 0.148891 0.253134
Si Si6 0.522393 0.029986 0.423573
Si Si7 0.135803 0.272785 0.005631
O O1 0.248577 0.066820 0.330249
O O2 0.403896 0.110403 0.266731
O O3 0.426780 0.037675 0.373876
O O4 0.358793 0.000000 0.250000
O O5 0.639763 0.500000 0.750000
O O6 0.576415 0.603404 0.785171
O O7 0.592139 0.514892 0.881545
O O8 0.888299 0.788834 0.951914
O O9 0.967288 0.826046 0.825929
O O10 0.937736 0.903057 0.929217
O O11 0.067469 0.819405 0.950162
O O12 0.977007 0.303576 0.815502
O O13 0.912188 0.233632 0.924899
O O14 0.500000 0.000000 0.500000
O O15 0.250000 0.284881 0.000000
#
# Coordination Sequence:
#
# PCOD9531352 Si02
#       7
#    16  16  16   8  16  16  16
#     4  10  21  38  62  89 120 161 199 246 302 366
#     4  11  21  39  62  90 121 161 201 250 309 366
#     4   9  21  41  61  86 119 165 196 252 308 355
#     4  10  24  36  66  90 110 164 206 256 300 366
#     4  11  20  42  63  88 122 155 208 257 304 358
#     4  11  22  39  61  89 129 160 198 252 308 365
#     4  10  23  43  60  86 126 159 204 250 307 362
#
# _framework density 18.255789
#
# number of rings (size 3 to 8) (size 9 to 14) (size 15 to 20)
#    0.000    1.846    4.615    0.923    4.308    4.308 
#    2.769    2.308    0.000    0.000    0.000    0.000 
#    0.000    0.000    0.000    0.000    0.000    0.000 
#
# Total GULP energy -290165.375202 kJ/mol
# GULP energy per Si atom -5580.103369 kJ/mol
# Density = 1.821424 g / cm^3
# Si number density = 18.255789 Si / 1000 Ang^3
#
#
#
# Elastic Constant Matrix: (Units=GPa)
#
#
# Indices 1 2 3 4 5 6 
#
# 1 125.9671 39.3939 32.0634 0.0000 0.0000 0.0000
# 2 39.3939 74.0138 62.9831 0.0000 0.0000 0.0000
# 3 32.0634 62.9831 121.5896 0.0000 0.0000 0.0000
# 4 0.0000 0.0000 0.0000 42.7814 0.0000 0.0000
# 5 0.0000 0.0000 0.0000 0.0000 -5.9430 0.0000
# 6 0.0000 0.0000 0.0000 0.0000 0.0000 1.7033
#
#
#
# Elastic Compliance Matrix: (Units=1/GPa)
#
#
# Indices 1 2 3 4 5 6 
#
# 1 0.009527 -0.005245 0.000204 0.000000 0.000000 0.000000
# 2 -0.005245 0.027048 -0.012628 0.000000 0.000000 0.000000
# 3 0.000204 -0.012628 0.014712 0.000000 0.000000 0.000000
# 4 0.000000 0.000000 0.000000 0.023375 0.000000 0.000000
# 5 0.000000 0.000000 0.000000 0.000000 -0.168264 0.000000
# 6 0.000000 0.000000 0.000000 0.000000 0.000000 0.587093
#
#
# Mechanical properties :
#
#
# Convention : Reuss Voigt Hill
#
# Bulk Modulus (GPa) = 62.69350 65.60569 64.14959
# Shear Modulus (GPa) = 9.36079 20.18368 14.77224
#
# Velocity S-wave (km/s) = 2.26687 3.32867 2.84770
# Velocity P-wave (km/s) = 6.42401 7.12659 6.78440
#
# Compressibility (1/GPa) = 0.01595062
#
# Stress axis : x y z
#
# Youngs Moduli (GPa) = 104.96841 36.97082 67.97303
#
# Poissons Ratio (x) = 0.19390 -0.01390
# Poissons Ratio (y) = 0.55051 0.85836
# Poissons Ratio (z) = -0.02146 0.46687
#
# Static dielectric constant tensor:
#      x y z
#    x 1.623530 0.000000 0.000000 
#    y 0.000000 1.640540 0.000000 
#    z 0.000000 0.000000 1.602300 
# 
# From -- ./inp_files/18223.got.cif
#   From: 2010.05.17/outbox.cif.g08.bks.cpg/sg73_10_cif.got.tgz:18223.got - 2010.06.03 17:35:07.
