data_PCOD9531171
_publ_section_title
;
Structure prediction by ZEFSAII (Michael W. Deem and Ramdas Pophale) SiO2 
 PCOD9531171
Probable space group: I B C A 
;
_chemical_formula_sum "Si O2"
_cell_formula_units_Z 120
_cell_length_a 8.676526
_cell_length_b 19.956570
_cell_length_c 31.274624
_cell_angle_alpha 90.000000
_cell_angle_beta 90.000000
_cell_angle_gamma 90.000000
_cell_volume 5415.316814
_symmetry_space_group_name_H-M "I B C A "
_symmetry_group_IT_number 73
_symmetry_cell_setting 'orthorhombic'
loop_
_space_group_symop_operation_xyz
x,y,z
-x,1/2-y,z
x,-y,1/2-z
1/2-x,y,-z
-x,-y,-z
x,1/2+y,-z
-x,y,1/2+z
1/2+x,-y,z
1/2+x,1/2+y,1/2+z
1/2-x,-y,1/2+z
1/2+x,1/2-y,-z
-x,1/2+y,1/2-z
1/2-x,1/2-y,1/2-z
1/2+x,y,1/2-z
1/2-x,1/2+y,z
x,1/2-y,1/2+z
loop_
_atom_site_type_symbol
_atom_site_label
_atom_site_fract_x
_atom_site_fract_y
_atom_site_fract_z
Si Si1 0.849517 0.467935 0.043688
Si Si2 0.274538 0.341613 0.596330
Si Si3 0.639377 0.378760 0.461370
Si Si4 0.588730 0.103216 0.758800
Si Si5 0.326238 0.626366 0.190186
Si Si6 0.500000 0.750000 0.056606
Si Si7 0.390267 0.396795 0.098870
Si Si8 0.356199 0.035343 0.691231
O O1 0.771864 0.412604 0.074577
O O2 0.019642 0.438441 0.038360
O O3 0.750000 0.467444 0.000000
O O4 0.119862 0.462283 0.932032
O O5 0.232053 0.345673 0.646039
O O6 0.463040 0.347160 0.592188
O O7 0.153687 0.284498 0.579036
O O8 0.750000 0.389943 0.500000
O O9 0.553705 0.310827 0.471972
O O10 0.726404 0.366136 0.416291
O O11 0.488944 0.148576 0.790514
O O12 0.702982 0.140301 0.726995
O O13 0.476254 0.062622 0.726604
O O14 0.692440 0.056394 0.788985
O O15 0.349063 0.544910 0.185390
O O16 0.389117 0.426355 0.146820
#
# Coordination Sequence:
#
# PCOD9531171 Si02
#       8
#    16  16  16  16  16   8  16  16
#     4  11  24  43  66 102 146 178 208 258 344 427
#     4  11  24  42  66  94 130 180 224 278 335 395
#     4  11  26  46  70  98 129 176 225 280 331 391
#     4  10  21  32  54  92 140 178 210 259 326 414
#     4  11  19  34  57  90 134 175 216 260 327 400
#     4  10  28  50  68  90 120 178 236 290 330 384
#     4  12  24  38  67 105 140 174 215 272 343 415
#     4  11  20  33  54  97 139 175 209 256 329 409
#
# _framework density 22.159369000000002
#
# number of rings (size 3 to 8) (size 9 to 14) (size 15 to 20)
#    0.000    1.067    2.667    5.200    3.733    5.333 
#    0.000    0.000    0.000    0.800    0.000    0.000 
#    0.000    0.000    0.000    0.000    0.000    0.000 
#
# Total GULP energy -334614.379858 kJ/mol
# GULP energy per Si atom -5576.906331 kJ/mol
# Density = 2.210893 g / cm^3
# Si number density = 22.159369 Si / 1000 Ang^3
#
#
#
# Elastic Constant Matrix: (Units=GPa)
#
#
# Indices 1 2 3 4 5 6 
#
# 1 121.9190 4.2014 29.8193 0.0000 0.0000 0.0000
# 2 4.2014 54.5927 3.1632 0.0000 0.0000 0.0000
# 3 29.8193 3.1632 100.9016 0.0000 0.0000 0.0000
# 4 0.0000 0.0000 0.0000 3.4410 0.0000 0.0000
# 5 0.0000 0.0000 0.0000 0.0000 32.6658 0.0000
# 6 0.0000 0.0000 0.0000 0.0000 0.0000 57.6100
#
#
#
# Elastic Compliance Matrix: (Units=1/GPa)
#
#
# Indices 1 2 3 4 5 6 
#
# 1 0.008857 -0.000531 -0.002601 0.000000 0.000000 0.000000
# 2 -0.000531 0.018383 -0.000419 0.000000 0.000000 0.000000
# 3 -0.002601 -0.000419 0.010692 0.000000 0.000000 0.000000
# 4 0.000000 0.000000 0.000000 0.290611 0.000000 0.000000
# 5 0.000000 0.000000 0.000000 0.000000 0.030613 0.000000
# 6 0.000000 0.000000 0.000000 0.000000 0.000000 0.017358
#
#
# Mechanical properties :
#
#
# Convention : Reuss Voigt Hill
#
# Bulk Modulus (GPa) = 32.43640 39.08678 35.76159
# Shear Modulus (GPa) = 12.69382 34.75867 23.72624
#
# Velocity S-wave (km/s) = 2.39601 3.96482 3.27572
# Velocity P-wave (km/s) = 4.72483 6.21587 5.52092
#
# Compressibility (1/GPa) = 0.03082956
#
# Stress axis : x y z
#
# Youngs Moduli (GPa) = 112.91076 54.39919 93.52452
#
# Poissons Ratio (x) = 0.02888 0.24323
# Poissons Ratio (y) = 0.05994 0.03922
# Poissons Ratio (z) = 0.29365 0.02281
#
# Static dielectric constant tensor:
#      x y z
#    x 2.044190 0.000000 0.000000 
#    y 0.000000 1.816160 0.000000 
#    z 0.000000 0.000000 1.804090 
# 
# From -- ./inp_files/33656.got.cif
#   From: 2010.05.17/outbox.cif.g08.bks.cpg/sg73_17_cif.got.tgz:33656.got - 2010.06.03 17:35:07.
