data_PCOD9531486
_publ_section_title
;
Structure prediction by ZEFSAII (Michael W. Deem and Ramdas Pophale) SiO2 
 PCOD9531486
Probable space group: I B C A 
;
_chemical_formula_sum "Si O2"
_cell_formula_units_Z 64
_cell_length_a 9.422921
_cell_length_b 19.299507
_cell_length_c 13.120658
_cell_angle_alpha 90.000000
_cell_angle_beta 90.000000
_cell_angle_gamma 90.000000
_cell_volume 2386.093077
_symmetry_space_group_name_H-M "I B C A "
_symmetry_group_IT_number 73
_symmetry_cell_setting 'orthorhombic'
loop_
_space_group_symop_operation_xyz
x,y,z
-x,1/2-y,z
x,-y,1/2-z
1/2-x,y,-z
-x,-y,-z
x,1/2+y,-z
-x,y,1/2+z
1/2+x,-y,z
1/2+x,1/2+y,1/2+z
1/2-x,-y,1/2+z
1/2+x,1/2-y,-z
-x,1/2+y,1/2-z
1/2-x,1/2-y,1/2-z
1/2+x,y,1/2-z
1/2-x,1/2+y,z
x,1/2-y,1/2+z
loop_
_atom_site_type_symbol
_atom_site_label
_atom_site_fract_x
_atom_site_fract_y
_atom_site_fract_z
Si Si1 0.500000 0.250000 0.245554
Si Si2 0.902747 0.808639 0.542730
Si Si3 0.681595 0.500000 0.750000
Si Si4 0.577292 0.404053 0.283172
Si Si5 0.090784 0.436532 0.459036
O O1 0.395254 0.287555 0.162835
O O2 0.564828 0.320596 0.295541
O O3 0.750000 0.809881 0.500000
O O4 0.000000 0.750000 0.496033
O O5 0.987355 0.875182 0.509487
O O6 0.783600 0.449071 0.680581
O O7 0.571107 0.554561 0.697268
O O8 0.598377 0.419204 0.161783
O O9 0.250000 0.434874 0.500000
O O10 0.000000 0.500000 0.500000
#
# Coordination Sequence:
#
# PCOD9531486 Si02
#       5
#     8  16   8  16  16
#     4   8  20  34  60  76 116 140 194 240 278 336
#     4   9  18  33  52  77 115 153 179 223 283 344
#     4  10  22  38  62  76 114 150 196 238 278 338
#     4  10  21  40  57  85 110 152 191 236 286 334
#     4  11  21  34  58  86 117 146 184 235 287 348
#
# _framework density 26.822089999999999
#
# number of rings (size 3 to 8) (size 9 to 14) (size 15 to 20)
#    0.750    1.500    0.000    3.000    0.000    3.000 
#    0.000    0.000    0.000    0.000    0.000    0.000 
#    0.000    0.000    0.000    0.000    0.000    0.000 
#
# Total GULP energy -178590.037542 kJ/mol
# GULP energy per Si atom -5580.938673 kJ/mol
# Density = 2.676104 g / cm^3
# Si number density = 26.822090 Si / 1000 Ang^3
#
#
#
# Elastic Constant Matrix: (Units=GPa)
#
#
# Indices 1 2 3 4 5 6 
#
# 1 253.3859 94.0687 39.1714 0.0000 0.0000 0.0000
# 2 94.0687 295.4463 26.4133 -0.0001 0.0000 0.0000
# 3 39.1714 26.4133 86.3978 -0.0001 0.0000 0.0000
# 4 0.0000 -0.0001 -0.0001 32.5081 0.0000 0.0000
# 5 0.0000 0.0000 0.0000 0.0000 35.0338 0.0000
# 6 0.0000 0.0000 0.0000 0.0000 0.0000 35.7541
#
#
#
# Elastic Compliance Matrix: (Units=1/GPa)
#
#
# Indices 1 2 3 4 5 6 
#
# 1 0.004713 -0.001346 -0.001725 0.000000 0.000000 0.000000
# 2 -0.001346 0.003864 -0.000571 0.000000 0.000000 0.000000
# 3 -0.001725 -0.000571 0.012531 0.000000 0.000000 0.000000
# 4 0.000000 0.000000 0.000000 0.030762 0.000000 0.000000
# 5 0.000000 0.000000 0.000000 0.000000 0.028544 0.000000
# 6 0.000000 0.000000 0.000000 0.000000 0.000000 0.027969
#
#
# Mechanical properties :
#
#
# Convention : Reuss Voigt Hill
#
# Bulk Modulus (GPa) = 72.34091 106.05963 89.20027
# Shear Modulus (GPa) = 41.57109 52.36432 46.96770
#
# Velocity S-wave (km/s) = 3.94113 4.42326 4.18913
# Velocity P-wave (km/s) = 6.90935 8.10646 7.53173
#
# Compressibility (1/GPa) = 0.01382344
#
# Stress axis : x y z
#
# Youngs Moduli (GPa) = 212.17463 258.76964 79.80132
#
# Poissons Ratio (x) = 0.34840 0.13768
# Poissons Ratio (y) = 0.28567 0.04557
# Poissons Ratio (z) = 0.36605 0.14776
#
# Static dielectric constant tensor:
#      x y z
#    x 2.114350 0.000000 0.000000 
#    y 0.000000 2.131580 0.000000 
#    z 0.000000 0.000000 2.294470 
# 
# From -- ./inp_files/5260.got.cif
#   From: 2010.05.17/outbox.cif.g08.bks.cpg/sg73_3_cif.got.tgz:5260.got - 2010.06.03 17:35:07.
