data_PCOD9531473
_publ_section_title
;
Structure prediction by ZEFSAII (Michael W. Deem and Ramdas Pophale) SiO2 
 PCOD9531473
Probable space group: I B C A 
;
_chemical_formula_sum "Si O2"
_cell_formula_units_Z 120
_cell_length_a 26.974365
_cell_length_b 8.598945
_cell_length_c 23.912391
_cell_angle_alpha 90.000000
_cell_angle_beta 90.000000
_cell_angle_gamma 90.000000
_cell_volume 5546.504943
_symmetry_space_group_name_H-M "I B C A "
_symmetry_group_IT_number 73
_symmetry_cell_setting 'orthorhombic'
loop_
_space_group_symop_operation_xyz
x,y,z
-x,1/2-y,z
x,-y,1/2-z
1/2-x,y,-z
-x,-y,-z
x,1/2+y,-z
-x,y,1/2+z
1/2+x,-y,z
1/2+x,1/2+y,1/2+z
1/2-x,-y,1/2+z
1/2+x,1/2-y,-z
-x,1/2+y,1/2-z
1/2-x,1/2-y,1/2-z
1/2+x,y,1/2-z
1/2-x,1/2+y,z
x,1/2-y,1/2+z
loop_
_atom_site_type_symbol
_atom_site_label
_atom_site_fract_x
_atom_site_fract_y
_atom_site_fract_z
Si Si1 0.029841 0.396049 0.642256
Si Si2 0.307110 0.198505 0.395253
Si Si3 0.032644 0.500000 0.250000
Si Si4 0.621246 0.798420 0.009118
Si Si5 0.450594 0.558936 0.468197
Si Si6 0.781211 0.109254 0.446993
Si Si7 0.300570 0.822920 0.729846
Si Si8 0.907314 0.812539 0.762741
O O1 0.039328 0.526809 0.596848
O O2 0.078203 0.321592 0.671529
O O3 0.000000 0.250000 0.616530
O O4 0.998489 0.463608 0.694117
O O5 0.355077 0.229413 0.434225
O O6 0.258566 0.271998 0.423630
O O7 0.308348 0.280077 0.335193
O O8 0.296475 0.015164 0.399897
O O9 0.059898 0.332763 0.259414
O O10 0.569621 0.725282 0.986929
O O11 0.668193 0.810182 0.967941
O O12 0.601440 0.970049 0.020733
O O13 0.500000 0.500000 0.500000
O O14 0.750000 0.036838 0.500000
O O15 0.250000 0.750000 0.750000
O O16 0.352351 0.764525 0.755053
O O17 0.297917 0.000000 0.750000
O O18 0.911444 0.000000 0.750000
#
# Coordination Sequence:
#
# PCOD9531473 Si02
#       8
#    16  16   8  16  16  16  16  16
#     4  10  21  43  71  98 135 180 230 292 354 412
#     4  11  22  42  70  95 132 176 218 280 351 407
#     4  10  22  44  76 100 130 184 238 296 346 426
#     4  11  23  43  66  95 137 178 229 280 340 414
#     4  12  25  44  64  97 142 185 229 286 345 414
#     4  10  21  39  67 101 126 168 232 281 331 413
#     4  11  25  44  65  98 139 176 221 284 347 421
#     4  10  22  44  69 101 135 178 231 287 349 422
#
# _framework density 21.635245000000001
#
# number of rings (size 3 to 8) (size 9 to 14) (size 15 to 20)
#    0.000    1.333    2.000    4.000    2.800    1.067 
#    9.600    0.000    0.000    0.000    0.000    0.000 
#    0.000    0.000    0.000    0.000    0.000    0.000 
#
# Total GULP energy -334016.822302 kJ/mol
# GULP energy per Si atom -5566.947038 kJ/mol
# Density = 2.158600 g / cm^3
# Si number density = 21.635245 Si / 1000 Ang^3
#
#
#
# Elastic Constant Matrix: (Units=GPa)
#
#
# Indices 1 2 3 4 5 6 
#
# 1 132.1425 35.6063 31.3013 0.0000 0.0000 0.0000
# 2 35.6063 67.8662 31.4746 0.0000 0.0000 0.0000
# 3 31.3013 31.4746 83.1537 0.0000 0.0000 0.0000
# 4 0.0000 0.0000 0.0000 17.3019 0.0000 0.0000
# 5 0.0000 0.0000 0.0000 0.0000 21.7238 0.0000
# 6 0.0000 0.0000 0.0000 0.0000 0.0000 13.1426
#
#
#
# Elastic Compliance Matrix: (Units=1/GPa)
#
#
# Indices 1 2 3 4 5 6 
#
# 1 0.009069 -0.003851 -0.001956 0.000000 0.000000 0.000000
# 2 -0.003851 0.019507 -0.005934 0.000000 0.000000 0.000000
# 3 -0.001956 -0.005934 0.015008 0.000000 0.000000 0.000000
# 4 0.000000 0.000000 0.000000 0.057797 0.000000 0.000000
# 5 0.000000 0.000000 0.000000 0.000000 0.046032 0.000000
# 6 0.000000 0.000000 0.000000 0.000000 0.000000 0.076088
#
#
# Mechanical properties :
#
#
# Convention : Reuss Voigt Hill
#
# Bulk Modulus (GPa) = 49.74573 53.32520 51.53546
# Shear Modulus (GPa) = 19.70950 22.75235 21.23092
#
# Velocity S-wave (km/s) = 3.02154 3.24641 3.13599
# Velocity P-wave (km/s) = 5.93428 6.22520 6.08148
#
# Compressibility (1/GPa) = 0.02010223
#
# Stress axis : x y z
#
# Youngs Moduli (GPa) = 110.27163 51.26289 66.62914
#
# Poissons Ratio (x) = 0.19740 0.13033
# Poissons Ratio (y) = 0.42462 0.39539
# Poissons Ratio (z) = 0.21570 0.30421
#
# Static dielectric constant tensor:
#      x y z
#    x 1.801820 0.000000 0.000000 
#    y 0.000000 1.328520 0.000000 
#    z 0.000000 0.000000 1.685800 
# 
# From -- ./inp_files/30529.got.cif
#   From: 2010.05.17/outbox.cif.g08.bks.cpg/sg73_16_cif.got.tgz:30529.got - 2010.06.03 17:35:07.
