data_PCOD9531546
_publ_section_title
;
Structure prediction by ZEFSAII (Michael W. Deem and Ramdas Pophale) SiO2 
 PCOD9531546
Probable space group: I B C A 
;
_chemical_formula_sum "Si O2"
_cell_formula_units_Z 56
_cell_length_a 17.431779
_cell_length_b 5.293768
_cell_length_c 22.690256
_cell_angle_alpha 90.000000
_cell_angle_beta 90.000000
_cell_angle_gamma 90.000000
_cell_volume 2093.852146
_symmetry_space_group_name_H-M "I B C A "
_symmetry_group_IT_number 73
_symmetry_cell_setting 'orthorhombic'
loop_
_space_group_symop_operation_xyz
x,y,z
-x,1/2-y,z
x,-y,1/2-z
1/2-x,y,-z
-x,-y,-z
x,1/2+y,-z
-x,y,1/2+z
1/2+x,-y,z
1/2+x,1/2+y,1/2+z
1/2-x,-y,1/2+z
1/2+x,1/2-y,-z
-x,1/2+y,1/2-z
1/2-x,1/2-y,1/2-z
1/2+x,y,1/2-z
1/2-x,1/2+y,z
x,1/2-y,1/2+z
loop_
_atom_site_type_symbol
_atom_site_label
_atom_site_fract_x
_atom_site_fract_y
_atom_site_fract_z
Si Si1 0.000000 0.250000 0.039623
Si Si2 0.223113 0.127481 0.844814
Si Si3 0.168028 0.809601 0.458731
Si Si4 0.949571 0.996014 0.179626
O O1 0.083085 0.216851 0.068405
O O2 0.000000 0.500000 0.000000
O O3 0.232551 0.397636 0.814908
O O4 0.269591 0.174188 0.906654
O O5 0.134250 0.055456 0.848372
O O6 0.172070 0.565238 0.501924
O O7 0.000000 0.250000 0.169386
O O8 0.935250 0.000000 0.250000
O O9 0.000000 0.750000 0.163349
#
# Coordination Sequence:
#
# PCOD9531546 Si02
#       4
#     8  16  16  16
#     4   8  16  34  60  88 124 176 240 288 332 402
#     4  12  26  43  68 112 144 187 240 310 366 428
#     4  10  21  40  66  96 140 196 245 293 351 420
#     4  10  23  48  79 105 141 191 238 297 375 452
#
# _framework density 26.744966000000002
#
# number of rings (size 3 to 8) (size 9 to 14) (size 15 to 20)
#    0.000    1.714    0.000    3.429    0.000    4.571 
#    7.714    0.000    0.000    5.143    0.000    0.000 
#    0.000    0.000    0.000    0.000    0.000    0.000 
#
# Total GULP energy -156567.107466 kJ/mol
# GULP energy per Si atom -5591.682409 kJ/mol
# Density = 2.668409 g / cm^3
# Si number density = 26.744966 Si / 1000 Ang^3
#
#
#
# Elastic Constant Matrix: (Units=GPa)
#
#
# Indices 1 2 3 4 5 6 
#
# 1 309.4294 87.4290 94.9502 0.0000 0.0000 0.0000
# 2 87.4290 282.5734 54.5155 0.0000 0.0000 0.0000
# 3 94.9502 54.5155 127.5030 0.0000 0.0000 0.0000
# 4 0.0000 0.0000 0.0000 11.4745 0.0000 0.0000
# 5 0.0000 0.0000 0.0000 0.0000 -10.6619 0.0000
# 6 0.0000 0.0000 0.0000 0.0000 0.0000 43.5981
#
#
#
# Elastic Compliance Matrix: (Units=1/GPa)
#
#
# Indices 1 2 3 4 5 6 
#
# 1 0.004343 -0.000784 -0.002899 0.000000 0.000000 0.000000
# 2 -0.000784 0.003999 -0.001126 0.000000 0.000000 0.000000
# 3 -0.002899 -0.001126 0.010483 0.000000 0.000000 0.000000
# 4 0.000000 0.000000 0.000000 0.087150 0.000000 0.000000
# 5 0.000000 0.000000 0.000000 0.000000 -0.093792 0.000000
# 6 0.000000 0.000000 0.000000 0.000000 0.000000 0.022937
#
#
# Mechanical properties :
#
#
# Convention : Reuss Voigt Hill
#
# Bulk Modulus (GPa) = 108.61220 132.58838 120.60029
# Shear Modulus (GPa) = 104.59007 41.05620 72.82314
#
# Velocity S-wave (km/s) = 6.26030 3.92229 5.22378
# Velocity P-wave (km/s) = 9.64125 8.37825 9.03185
#
# Compressibility (1/GPa) = 0.00920707
#
# Stress axis : x y z
#
# Youngs Moduli (GPa) = 230.26156 250.07728 95.39419
#
# Poissons Ratio (x) = 0.19618 0.27652
# Poissons Ratio (y) = 0.18063 0.10737
# Poissons Ratio (z) = 0.66746 0.28147
#
# Static dielectric constant tensor:
#      x y z
#    x 2.100100 0.000000 0.000000 
#    y 0.000000 1.847290 0.000000 
#    z 0.000000 0.000000 2.357480 
# 
# From -- ./inp_files/26782.got.cif
#   From: 2010.05.17/outbox.cif.g08.bks.cpg/sg73_14_cif.got.tgz:26782.got - 2010.06.03 17:35:07.
