data_PCOD9531498
_publ_section_title
;
Structure prediction by ZEFSAII (Michael W. Deem and Ramdas Pophale) SiO2 
 PCOD9531498
Probable space group: I B C A 
;
_chemical_formula_sum "Si O2"
_cell_formula_units_Z 56
_cell_length_a 18.202323
_cell_length_b 21.935140
_cell_length_c 5.061546
_cell_angle_alpha 90.000000
_cell_angle_beta 90.000000
_cell_angle_gamma 90.000000
_cell_volume 2020.926019
_symmetry_space_group_name_H-M "I B C A "
_symmetry_group_IT_number 73
_symmetry_cell_setting 'orthorhombic'
loop_
_space_group_symop_operation_xyz
x,y,z
-x,1/2-y,z
x,-y,1/2-z
1/2-x,y,-z
-x,-y,-z
x,1/2+y,-z
-x,y,1/2+z
1/2+x,-y,z
1/2+x,1/2+y,1/2+z
1/2-x,-y,1/2+z
1/2+x,1/2-y,-z
-x,1/2+y,1/2-z
1/2-x,1/2-y,1/2-z
1/2+x,y,1/2-z
1/2-x,1/2+y,z
x,1/2-y,1/2+z
loop_
_atom_site_type_symbol
_atom_site_label
_atom_site_fract_x
_atom_site_fract_y
_atom_site_fract_z
Si Si1 0.750000 0.455343 0.500000
Si Si2 0.090601 0.043929 0.501098
Si Si3 0.531132 0.836498 0.689044
Si Si4 0.176236 0.794289 0.584290
O O1 0.748388 0.500000 0.250000
O O2 0.829063 0.422854 0.479268
O O3 0.030939 0.094595 0.573795
O O4 0.094438 0.000000 0.750000
O O5 0.080328 0.000000 0.250000
O O6 0.528864 0.808478 0.392307
O O7 0.602994 0.833083 0.875452
O O8 0.250000 0.831023 0.500000
O O9 0.177015 0.742638 0.358921
#
# Coordination Sequence:
#
# PCOD9531498 Si02
#       4
#     8  16  16  16
#     4   8  16  34  56  82 114 160 228 278 326 378
#     4  10  21  40  61  91 134 182 228 284 338 409
#     4  12  26  42  64 104 138 180 233 279 353 423
#     4  10  23  47  72  99 133 176 229 290 358 423
#
# _framework density 27.710070999999999
#
# number of rings (size 3 to 8) (size 9 to 14) (size 15 to 20)
#    0.000    1.714    0.000    3.429    0.000    6.857 
#   28.286    0.000    0.000    0.000    0.000    0.000 
#    0.000    0.000    0.000    0.000    0.000    0.000 
#
# Total GULP energy -156247.557747 kJ/mol
# GULP energy per Si atom -5580.269920 kJ/mol
# Density = 2.764700 g / cm^3
# Si number density = 27.710071 Si / 1000 Ang^3
#
#
#
# Elastic Constant Matrix: (Units=GPa)
#
#
# Indices 1 2 3 4 5 6 
#
# 1 135.1853 18.9537 46.0821 0.0000 0.0000 0.0000
# 2 18.9537 68.5080 24.9695 0.0000 0.0000 0.0000
# 3 46.0821 24.9695 278.6432 0.0000 0.0000 0.0000
# 4 0.0000 0.0000 0.0000 30.9881 0.0000 0.0000
# 5 0.0000 0.0000 0.0000 0.0000 45.7351 0.0000
# 6 0.0000 0.0000 0.0000 0.0000 0.0000 39.5115
#
#
#
# Elastic Compliance Matrix: (Units=1/GPa)
#
#
# Indices 1 2 3 4 5 6 
#
# 1 0.008048 -0.001800 -0.001170 0.000000 0.000000 0.000000
# 2 -0.001800 0.015492 -0.001091 0.000000 0.000000 0.000000
# 3 -0.001170 -0.001091 0.003880 0.000000 0.000000 0.000000
# 4 0.000000 0.000000 0.000000 0.032270 0.000000 0.000000
# 5 0.000000 0.000000 0.000000 0.000000 0.021865 0.000000
# 6 0.000000 0.000000 0.000000 0.000000 0.000000 0.025309
#
#
# Mechanical properties :
#
#
# Convention : Reuss Voigt Hill
#
# Bulk Modulus (GPa) = 51.81467 73.59411 62.70439
# Shear Modulus (GPa) = 41.17945 49.40237 45.29091
#
# Velocity S-wave (km/s) = 3.85916 4.22694 4.04723
# Velocity P-wave (km/s) = 6.21264 7.10204 6.67218
#
# Compressibility (1/GPa) = 0.01929955
#
# Stress axis : x y z
#
# Youngs Moduli (GPa) = 124.24820 64.54773 257.73250
#
# Poissons Ratio (x) = 0.11621 0.30147
# Poissons Ratio (y) = 0.22369 0.28107
# Poissons Ratio (z) = 0.14534 0.07039
#
# Static dielectric constant tensor:
#      x y z
#    x 2.579400 0.000000 0.000000 
#    y 0.000000 2.418460 0.000000 
#    z 0.000000 0.000000 2.160770 
# 
# From -- ./inp_files/1449.got.cif
#   From: 2010.05.17/outbox.cif.g08.bks.cpg/sg73_1_cif.got.tgz:1449.got - 2010.06.03 17:35:07.
