data_PCOD9531182
_publ_section_title
;
Structure prediction by ZEFSAII (Michael W. Deem and Ramdas Pophale) SiO2 
 PCOD9531182
Probable space group: I B C A 
;
_chemical_formula_sum "Si O2"
_cell_formula_units_Z 112
_cell_length_a 12.102035
_cell_length_b 23.258408
_cell_length_c 22.781627
_cell_angle_alpha 90.000000
_cell_angle_beta 90.000000
_cell_angle_gamma 90.000000
_cell_volume 6412.437220
_symmetry_space_group_name_H-M "I B C A "
_symmetry_group_IT_number 73
_symmetry_cell_setting 'orthorhombic'
loop_
_space_group_symop_operation_xyz
x,y,z
-x,1/2-y,z
x,-y,1/2-z
1/2-x,y,-z
-x,-y,-z
x,1/2+y,-z
-x,y,1/2+z
1/2+x,-y,z
1/2+x,1/2+y,1/2+z
1/2-x,-y,1/2+z
1/2+x,1/2-y,-z
-x,1/2+y,1/2-z
1/2-x,1/2-y,1/2-z
1/2+x,y,1/2-z
1/2-x,1/2+y,z
x,1/2-y,1/2+z
loop_
_atom_site_type_symbol
_atom_site_label
_atom_site_fract_x
_atom_site_fract_y
_atom_site_fract_z
Si Si1 0.370875 0.580128 0.650642
Si Si2 0.210417 0.522986 0.843874
Si Si3 0.485396 0.498257 0.069279
Si Si4 0.058483 0.913025 0.255223
Si Si5 0.890898 0.783733 0.199300
Si Si6 0.733554 0.673893 0.804071
Si Si7 0.579212 0.404214 0.144665
O O1 0.286080 0.531220 0.673440
O O2 0.433613 0.546706 0.598359
O O3 0.464495 0.600176 0.696494
O O4 0.291564 0.635363 0.646140
O O5 0.134098 0.509283 0.900506
O O6 0.134125 0.543724 0.791246
O O7 0.295231 0.574601 0.855824
O O8 0.522271 0.434479 0.089787
O O9 0.500000 0.500000 0.000000
O O10 0.137903 0.863251 0.229013
O O11 0.986962 0.932960 0.199390
O O12 0.816086 0.733270 0.172191
O O13 0.821473 0.809711 0.253315
O O14 0.922698 0.836324 0.156671
O O15 0.000000 0.750000 0.219988
#
# Coordination Sequence:
#
# PCOD9531182 Si02
#       7
#    16  16  16  16  16  16  16
#     4  10  21  34  55  85 115 149 189 230 289 361
#     4  10  22  35  55  83 118 149 180 240 297 351
#     4  10  24  41  59  82 106 149 195 252 300 341
#     4  11  19  34  51  85 124 149 183 218 293 354
#     4  11  21  34  52  84 120 158 192 224 279 346
#     4  11  20  33  54  81 122 158 187 230 274 355
#     4  11  21  35  55  85 116 148 190 233 284 360
#
# _framework density 17.466058
#
# number of rings (size 3 to 8) (size 9 to 14) (size 15 to 20)
#    0.000    1.429    4.286    0.857    0.000   14.857 
#    0.000    0.000    0.000    0.000    7.429    0.000 
#    0.000    0.000    0.000    0.000    0.000    0.000 
#
# Total GULP energy -311968.112561 kJ/mol
# GULP energy per Si atom -5570.859153 kJ/mol
# Density = 1.742630 g / cm^3
# Si number density = 17.466058 Si / 1000 Ang^3
#
#
#
# Elastic Constant Matrix: (Units=GPa)
#
#
# Indices 1 2 3 4 5 6 
#
# 1 115.8193 53.7107 38.3259 0.0000 0.0000 0.0000
# 2 53.7107 91.2080 33.8746 0.0000 0.0000 0.0000
# 3 38.3259 33.8746 85.8137 0.0000 0.0000 0.0000
# 4 0.0000 0.0000 0.0000 13.6881 0.0000 0.0000
# 5 0.0000 0.0000 0.0000 0.0000 8.0221 0.0000
# 6 0.0000 0.0000 0.0000 0.0000 0.0000 42.2507
#
#
#
# Elastic Compliance Matrix: (Units=1/GPa)
#
#
# Indices 1 2 3 4 5 6 
#
# 1 0.012566 -0.006229 -0.003154 0.000000 0.000000 0.000000
# 2 -0.006229 0.015935 -0.003508 0.000000 0.000000 0.000000
# 3 -0.003154 -0.003508 0.014446 0.000000 0.000000 0.000000
# 4 0.000000 0.000000 0.000000 0.073056 0.000000 0.000000
# 5 0.000000 0.000000 0.000000 0.000000 0.124655 0.000000
# 6 0.000000 0.000000 0.000000 0.000000 0.000000 0.023668
#
#
# Mechanical properties :
#
#
# Convention : Reuss Voigt Hill
#
# Bulk Modulus (GPa) = 58.25359 60.51817 59.38588
# Shear Modulus (GPa) = 16.90154 23.92083 20.41119
#
# Velocity S-wave (km/s) = 3.11413 3.70477 3.42222
# Velocity P-wave (km/s) = 6.80847 7.28181 7.04911
#
# Compressibility (1/GPa) = 0.01716632
#
# Stress axis : x y z
#
# Youngs Moduli (GPa) = 79.57805 62.75493 69.22099
#
# Poissons Ratio (x) = 0.39089 0.21829
# Poissons Ratio (y) = 0.49568 0.24285
# Poissons Ratio (z) = 0.25095 0.22017
#
# Static dielectric constant tensor:
#      x y z
#    x 1.662890 0.000000 0.000000 
#    y 0.000000 1.659030 0.000000 
#    z 0.000000 0.000000 1.553180 
# 
# From -- ./inp_files/13040.got.cif
#   From: 2010.05.17/outbox.cif.g08.bks.cpg/sg73_7_cif.got.tgz:13040.got - 2010.06.03 17:35:07.
