data_PCOD9531090
_publ_section_title
;
Structure prediction by ZEFSAII (Michael W. Deem and Ramdas Pophale) SiO2 
 PCOD9531090
Probable space group: I B C A 
;
_chemical_formula_sum "Si O2"
_cell_formula_units_Z 64
_cell_length_a 9.258661
_cell_length_b 14.848704
_cell_length_c 21.175205
_cell_angle_alpha 90.000000
_cell_angle_beta 90.000000
_cell_angle_gamma 90.000000
_cell_volume 2911.148478
_symmetry_space_group_name_H-M "I B C A "
_symmetry_group_IT_number 73
_symmetry_cell_setting 'orthorhombic'
loop_
_space_group_symop_operation_xyz
x,y,z
-x,1/2-y,z
x,-y,1/2-z
1/2-x,y,-z
-x,-y,-z
x,1/2+y,-z
-x,y,1/2+z
1/2+x,-y,z
1/2+x,1/2+y,1/2+z
1/2-x,-y,1/2+z
1/2+x,1/2-y,-z
-x,1/2+y,1/2-z
1/2-x,1/2-y,1/2-z
1/2+x,y,1/2-z
1/2-x,1/2+y,z
x,1/2-y,1/2+z
loop_
_atom_site_type_symbol
_atom_site_label
_atom_site_fract_x
_atom_site_fract_y
_atom_site_fract_z
Si Si1 0.642238 0.580697 0.445480
Si Si2 0.547435 0.000000 0.750000
Si Si3 0.396076 0.868935 0.028503
Si Si4 0.796483 0.106284 0.687204
Si Si5 0.000000 0.250000 0.144397
O O1 0.750000 0.608410 0.500000
O O2 0.618058 0.473915 0.452951
O O3 0.499843 0.631831 0.467325
O O4 0.719720 0.597829 0.380156
O O5 0.661922 0.079353 0.732686
O O6 0.431477 0.036744 0.801677
O O7 0.440250 0.821924 0.093453
O O8 0.250000 0.831135 0.000000
O O9 0.876350 0.202730 0.686498
#
# Coordination Sequence:
#
# PCOD9531090 Si02
#       5
#    16   8  16  16   8
#     4  10  20  42  67  97 132 177 220 275 346 430
#     4  10  26  48  72  96 128 196 250 268 328 410
#     4  10  23  36  62 103 138 171 216 267 357 423
#     4  11  24  45  72  97 138 178 236 290 332 404
#     4  12  24  40  66 102 142 166 220 296 350 396
#
# _framework density 21.984451
#
# number of rings (size 3 to 8) (size 9 to 14) (size 15 to 20)
#    0.000    1.500    2.500    1.500   10.500    1.000 
#    0.000    0.000    0.000    0.000    0.000    0.000 
#    0.000    0.000    0.000    0.000    0.000    0.000 
#
# Total GULP energy -178354.079482 kJ/mol
# GULP energy per Si atom -5573.564984 kJ/mol
# Density = 2.193441 g / cm^3
# Si number density = 21.984451 Si / 1000 Ang^3
#
#
#
# Elastic Constant Matrix: (Units=GPa)
#
#
# Indices 1 2 3 4 5 6 
#
# 1 168.6978 42.2013 48.9384 0.0000 0.0000 0.0000
# 2 42.2013 66.0435 8.2029 0.0000 0.0000 0.0000
# 3 48.9384 8.2029 58.5241 0.0000 0.0000 0.0000
# 4 0.0000 0.0000 0.0000 13.0137 0.0000 0.0000
# 5 0.0000 0.0000 0.0000 0.0000 32.5263 0.0000
# 6 0.0000 0.0000 0.0000 0.0000 0.0000 19.7719
#
#
#
# Elastic Compliance Matrix: (Units=1/GPa)
#
#
# Indices 1 2 3 4 5 6 
#
# 1 0.009214 -0.005018 -0.007002 0.000000 0.000000 0.000000
# 2 -0.005018 0.018143 0.001653 0.000000 0.000000 0.000000
# 3 -0.007002 0.001653 0.022710 0.000000 0.000000 0.000000
# 4 0.000000 0.000000 0.000000 0.076842 0.000000 0.000000
# 5 0.000000 0.000000 0.000000 0.000000 0.030744 0.000000
# 6 0.000000 0.000000 0.000000 0.000000 0.000000 0.050577
#
#
# Mechanical properties :
#
#
# Convention : Reuss Voigt Hill
#
# Bulk Modulus (GPa) = 34.09011 54.66118 44.37565
# Shear Modulus (GPa) = 20.94318 25.99058 23.46688
#
# Velocity S-wave (km/s) = 3.08983 3.44208 3.27070
# Velocity P-wave (km/s) = 5.31691 6.38081 5.87300
#
# Compressibility (1/GPa) = 0.02933402
#
# Stress axis : x y z
#
# Youngs Moduli (GPa) = 108.52748 55.11834 44.03329
#
# Poissons Ratio (x) = 0.27659 0.30831
# Poissons Ratio (y) = 0.54461 -0.07280
# Poissons Ratio (z) = 0.75987 -0.09113
#
# Static dielectric constant tensor:
#      x y z
#    x 1.798710 0.000000 0.000000 
#    y 0.000000 1.857780 0.000000 
#    z 0.000000 0.000000 1.841140 
# 
# From -- ./inp_files/5259.got.cif
#   From: 2010.05.17/outbox.cif.g08.bks.cpg/sg73_3_cif.got.tgz:5259.got - 2010.06.03 17:35:07.
