data_PCOD9531852
_publ_section_title
;
Structure prediction by ZEFSAII (Michael W. Deem and Ramdas Pophale) SiO2 
 PCOD9531852
Probable space group: I B C A 
;
_chemical_formula_sum "Si O2"
_cell_formula_units_Z 104
_cell_length_a 20.036877
_cell_length_b 20.891790
_cell_length_c 9.850933
_cell_angle_alpha 90.000000
_cell_angle_beta 90.000000
_cell_angle_gamma 90.000000
_cell_volume 4123.661891
_symmetry_space_group_name_H-M "I B C A "
_symmetry_group_IT_number 73
_symmetry_cell_setting 'orthorhombic'
loop_
_space_group_symop_operation_xyz
x,y,z
-x,1/2-y,z
x,-y,1/2-z
1/2-x,y,-z
-x,-y,-z
x,1/2+y,-z
-x,y,1/2+z
1/2+x,-y,z
1/2+x,1/2+y,1/2+z
1/2-x,-y,1/2+z
1/2+x,1/2-y,-z
-x,1/2+y,1/2-z
1/2-x,1/2-y,1/2-z
1/2+x,y,1/2-z
1/2-x,1/2+y,z
x,1/2-y,1/2+z
loop_
_atom_site_type_symbol
_atom_site_label
_atom_site_fract_x
_atom_site_fract_y
_atom_site_fract_z
Si Si1 0.974535 0.320985 0.610205
Si Si2 0.502517 0.900025 0.869752
Si Si3 0.163921 0.887261 0.913917
Si Si4 0.832460 0.307854 0.124305
Si Si5 0.849830 0.570873 0.201045
Si Si6 0.103462 0.500000 0.250000
Si Si7 0.819425 0.792066 0.177536
O O1 0.012497 0.373918 0.520253
O O2 0.899452 0.338878 0.564108
O O3 0.000000 0.250000 0.584127
O O4 0.984934 0.341997 0.764935
O O5 0.428102 0.927178 0.842377
O O6 0.556117 0.953353 0.834799
O O7 0.191528 0.850933 0.781099
O O8 0.143965 0.956074 0.853687
O O9 0.188425 0.901615 0.067041
O O10 0.837964 0.379304 0.178175
O O11 0.861634 0.262388 0.243255
O O12 0.757197 0.279287 0.133791
O O13 0.853180 0.304652 0.968062
O O14 0.831068 0.500000 0.250000
#
# Coordination Sequence:
#
# PCOD9531852 Si02
#       7
#    16  16  16  16  16   8  16
#     4  10  22  38  57  91 123 165 211 267 316 368
#     4  10  22  38  62  82 127 168 213 257 316 375
#     4  10  24  39  63  94 129 172 218 265 324 371
#     4  10  23  43  73  95 129 164 208 262 333 386
#     4  11  24  39  61  98 128 174 217 263 314 384
#     4  10  22  42  62  88 120 180 216 262 312 378
#     4  10  22  46  69 100 125 165 209 265 329 394
#
# _framework density 25.220303000000001
#
# number of rings (size 3 to 8) (size 9 to 14) (size 15 to 20)
#    0.000    1.846    0.769    1.385    6.462    4.923 
#    4.154    0.000    0.000    0.000    0.000    0.000 
#    0.000    0.000    0.000    0.000    0.000    0.000 
#
# Total GULP energy -290551.144767 kJ/mol
# GULP energy per Si atom -5587.522015 kJ/mol
# Density = 2.516290 g / cm^3
# Si number density = 25.220303 Si / 1000 Ang^3
#
#
#
# Elastic Constant Matrix: (Units=GPa)
#
#
# Indices 1 2 3 4 5 6 
#
# 1 18.3744 -10.3640 14.0584 0.0000 0.0000 0.0000
# 2 -10.3640 161.8203 77.8342 0.0000 0.0000 0.0000
# 3 14.0584 77.8342 203.5447 0.0000 0.0000 0.0000
# 4 0.0000 0.0000 0.0000 27.4047 0.0000 0.0000
# 5 0.0000 0.0000 0.0000 0.0000 23.1864 0.0000
# 6 0.0000 0.0000 0.0000 0.0000 0.0000 22.5105
#
#
#
# Elastic Compliance Matrix: (Units=1/GPa)
#
#
# Indices 1 2 3 4 5 6 
#
# 1 0.064402 0.007676 -0.007383 0.000000 0.000000 0.000000
# 2 0.007676 0.008487 -0.003776 0.000000 0.000000 0.000000
# 3 -0.007383 -0.003776 0.006867 0.000000 0.000000 0.000000
# 4 0.000000 0.000000 0.000000 0.036490 0.000000 0.000000
# 5 0.000000 0.000000 0.000000 0.000000 0.043129 0.000000
# 6 0.000000 0.000000 0.000000 0.000000 0.000000 0.044424
#
#
# Mechanical properties :
#
#
# Convention : Reuss Voigt Hill
#
# Bulk Modulus (GPa) = 13.73808 60.75517 37.24662
# Shear Modulus (GPa) = 21.27403 34.76771 28.02087
#
# Velocity S-wave (km/s) = 2.90751 3.71693 3.33685
# Velocity P-wave (km/s) = 4.09029 6.52402 5.44487
#
# Compressibility (1/GPa) = 0.07279037
#
# Stress axis : x y z
#
# Youngs Moduli (GPa) = 15.52739 117.82168 145.63065
#
# Poissons Ratio (x) = -0.90441 1.07525
# Poissons Ratio (y) = -0.11919 0.54986
# Poissons Ratio (z) = 0.11465 0.44486
#
# Static dielectric constant tensor:
#      x y z
#    x 2.196720 0.000000 0.000000 
#    y 0.000000 1.946890 0.000000 
#    z 0.000000 0.000000 2.036660 
# 
# From -- ./inp_files/7878.got.cif
#   From: 2010.05.17/outbox.cif.g08.bks.cpg/sg73_4_cif.got.tgz:7878.got - 2010.06.03 17:35:07.
