data_PCOD9531946
_publ_section_title
;
Structure prediction by ZEFSAII (Michael W. Deem and Ramdas Pophale) SiO2 
 PCOD9531946
Probable space group: I B C A 
;
_chemical_formula_sum "Si O2"
_cell_formula_units_Z 64
_cell_length_a 9.390888
_cell_length_b 18.065118
_cell_length_c 18.943579
_cell_angle_alpha 90.000000
_cell_angle_beta 90.000000
_cell_angle_gamma 90.000000
_cell_volume 3213.730815
_symmetry_space_group_name_H-M "I B C A "
_symmetry_group_IT_number 73
_symmetry_cell_setting 'orthorhombic'
loop_
_space_group_symop_operation_xyz
x,y,z
-x,1/2-y,z
x,-y,1/2-z
1/2-x,y,-z
-x,-y,-z
x,1/2+y,-z
-x,y,1/2+z
1/2+x,-y,z
1/2+x,1/2+y,1/2+z
1/2-x,-y,1/2+z
1/2+x,1/2-y,-z
-x,1/2+y,1/2-z
1/2-x,1/2-y,1/2-z
1/2+x,y,1/2-z
1/2-x,1/2+y,z
x,1/2-y,1/2+z
loop_
_atom_site_type_symbol
_atom_site_label
_atom_site_fract_x
_atom_site_fract_y
_atom_site_fract_z
Si Si1 0.647794 0.295654 0.940301
Si Si2 0.048413 0.457081 0.569247
Si Si3 0.746817 0.911227 0.412337
Si Si4 0.830728 0.763045 0.676273
O O1 0.500000 0.250000 0.933433
O O2 0.614834 0.380358 0.956063
O O3 0.747110 0.295009 0.872390
O O4 0.750000 0.262895 0.000000
O O5 0.152324 0.516400 0.604255
O O6 0.000000 0.500000 0.500000
O O7 0.907513 0.431523 0.609860
O O8 0.750000 0.900954 0.500000
O O9 0.695836 0.840441 0.366898
O O10 0.750000 0.750000 0.750000
O O11 0.000000 0.750000 0.682043
#
# Coordination Sequence:
#
# PCOD9531946 Si02
#       4
#    16  16  16  16
#     4  12  24  41  71 104 139 178 231 286 351 414
#     4  10  22  39  67 104 143 170 220 286 346 411
#     4  10  22  43  71 105 137 176 227 283 357 413
#     4  12  28  46  70  96 140 186 238 290 347 415
#
# _framework density 19.914549000000001
#
# number of rings (size 3 to 8) (size 9 to 14) (size 15 to 20)
#    0.000    1.000    2.500    4.500   14.000    0.000 
#    0.000    1.250    0.000    0.000    0.000    0.000 
#    0.000    0.000    0.000    0.000    0.000    0.000 
#
# Total GULP energy -178306.235729 kJ/mol
# GULP energy per Si atom -5572.069867 kJ/mol
# Density = 1.986922 g / cm^3
# Si number density = 19.914549 Si / 1000 Ang^3
#
#
#
# Elastic Constant Matrix: (Units=GPa)
#
#
# Indices 1 2 3 4 5 6 
#
# 1 191.1598 58.5245 49.3840 0.0000 0.0000 0.0000
# 2 58.5245 149.6856 15.6671 0.0000 0.0000 0.0000
# 3 49.3840 15.6671 103.2495 0.0000 0.0000 0.0000
# 4 0.0000 0.0000 0.0000 8.5333 0.0000 0.0000
# 5 0.0000 0.0000 0.0000 0.0000 14.2830 0.0000
# 6 0.0000 0.0000 0.0000 0.0000 0.0000 38.1160
#
#
#
# Elastic Compliance Matrix: (Units=1/GPa)
#
#
# Indices 1 2 3 4 5 6 
#
# 1 0.006673 -0.002312 -0.002841 0.000000 0.000000 0.000000
# 2 -0.002312 0.007589 -0.000046 0.000000 0.000000 0.000000
# 3 -0.002841 -0.000046 0.011051 0.000000 0.000000 0.000000
# 4 0.000000 0.000000 0.000000 0.117188 0.000000 0.000000
# 5 0.000000 0.000000 0.000000 0.000000 0.070013 0.000000
# 6 0.000000 0.000000 0.000000 0.000000 0.000000 0.026236
#
#
# Mechanical properties :
#
#
# Convention : Reuss Voigt Hill
#
# Bulk Modulus (GPa) = 67.04075 76.80514 71.92295
# Shear Modulus (GPa) = 19.67579 33.55441 26.61510
#
# Velocity S-wave (km/s) = 3.14667 4.10923 3.65974
# Velocity P-wave (km/s) = 6.85123 7.82083 7.35203
#
# Compressibility (1/GPa) = 0.01491630
#
# Stress axis : x y z
#
# Youngs Moduli (GPa) = 149.86121 131.76476 90.48943
#
# Poissons Ratio (x) = 0.30459 0.25707
# Poissons Ratio (y) = 0.34642 0.00416
# Poissons Ratio (z) = 0.42573 0.00606
#
# Static dielectric constant tensor:
#      x y z
#    x 1.764130 0.000000 0.000000 
#    y 0.000000 1.756110 0.000000 
#    z 0.000000 0.000000 1.550480 
# 
# From -- ./inp_files/20575.got.cif
#   From: 2010.05.17/outbox.cif.g08.bks.cpg/sg73_11_cif.got.tgz:20575.got - 2010.06.03 17:35:07.
