data_PCOD9531154
_publ_section_title
;
Structure prediction by ZEFSAII (Michael W. Deem and Ramdas Pophale) SiO2 
 PCOD9531154
Probable space group: I B C A 
;
_chemical_formula_sum "Si O2"
_cell_formula_units_Z 80
_cell_length_a 10.188507
_cell_length_b 14.352351
_cell_length_c 21.089724
_cell_angle_alpha 90.000000
_cell_angle_beta 90.000000
_cell_angle_gamma 90.000000
_cell_volume 3083.929855
_symmetry_space_group_name_H-M "I B C A "
_symmetry_group_IT_number 73
_symmetry_cell_setting 'orthorhombic'
loop_
_space_group_symop_operation_xyz
x,y,z
-x,1/2-y,z
x,-y,1/2-z
1/2-x,y,-z
-x,-y,-z
x,1/2+y,-z
-x,y,1/2+z
1/2+x,-y,z
1/2+x,1/2+y,1/2+z
1/2-x,-y,1/2+z
1/2+x,1/2-y,-z
-x,1/2+y,1/2-z
1/2-x,1/2-y,1/2-z
1/2+x,y,1/2-z
1/2-x,1/2+y,z
x,1/2-y,1/2+z
loop_
_atom_site_type_symbol
_atom_site_label
_atom_site_fract_x
_atom_site_fract_y
_atom_site_fract_z
Si Si1 0.383169 0.479368 0.124022
Si Si2 0.000000 0.750000 0.900250
Si Si3 0.709967 0.174874 0.802824
Si Si4 0.500000 0.750000 0.386074
Si Si5 0.855006 0.089559 0.321029
Si Si6 0.598814 0.117981 0.006152
O O1 0.314898 0.388516 0.158997
O O2 0.532041 0.477390 0.149370
O O3 0.386284 0.479613 0.046054
O O4 0.285919 0.558891 0.150929
O O5 0.881163 0.728146 0.852647
O O6 0.982937 0.659565 0.946939
O O7 0.750000 0.250000 0.750000
O O8 0.642332 0.099926 0.754750
O O9 0.395893 0.807390 0.345844
O O10 0.542952 0.827124 0.435163
O O11 0.750000 0.147826 0.000000
#
# Coordination Sequence:
#
# PCOD9531154 Si02
#       6
#    16   8  16   8  16  16
#     4  11  25  47  72 108 161 208 261 346 425 498
#     4  11  23  40  80 110 151 211 268 342 400 487
#     4  12  24  42  76 115 151 208 276 337 423 502
#     4   9  21  44  70 104 139 205 268 334 400 499
#     4  11  25  47  74 110 162 206 274 345 424 512
#     4  10  20  44  72 102 151 194 260 332 395 499
#
# _framework density 25.940926999999999
#
# number of rings (size 3 to 8) (size 9 to 14) (size 15 to 20)
#    0.000    1.200    2.000    4.800    0.000    4.800 
#    0.000    5.000    0.000    0.000    0.000    0.000 
#    0.000    0.000    0.000    0.000    0.000    0.000 
#
# Total GULP energy -222889.801770 kJ/mol
# GULP energy per Si atom -5572.245044 kJ/mol
# Density = 2.588188 g / cm^3
# Si number density = 25.940927 Si / 1000 Ang^3
#
#
#
# Elastic Constant Matrix: (Units=GPa)
#
#
# Indices 1 2 3 4 5 6 
#
# 1 71.3565 18.5073 65.3678 0.0000 0.0000 0.0000
# 2 18.5073 128.7571 41.2744 0.0000 0.0000 0.0000
# 3 65.3678 41.2744 228.9686 0.0000 0.0000 0.0000
# 4 0.0000 0.0000 0.0000 -7.0564 0.0000 0.0000
# 5 0.0000 0.0000 0.0000 0.0000 79.1376 0.0000
# 6 0.0000 0.0000 0.0000 0.0000 0.0000 40.6642
#
#
#
# Elastic Compliance Matrix: (Units=1/GPa)
#
#
# Indices 1 2 3 4 5 6 
#
# 1 0.019112 -0.001059 -0.005265 0.000000 0.000000 0.000000
# 2 -0.001059 0.008302 -0.001194 0.000000 0.000000 0.000000
# 3 -0.005265 -0.001194 0.006086 0.000000 0.000000 0.000000
# 4 0.000000 0.000000 0.000000 -0.141716 0.000000 0.000000
# 5 0.000000 0.000000 0.000000 0.000000 0.012636 0.000000
# 6 0.000000 0.000000 0.000000 0.000000 0.000000 0.024592
#
#
# Mechanical properties :
#
#
# Convention : Reuss Voigt Hill
#
# Bulk Modulus (GPa) = 54.16432 75.48677 64.82555
# Shear Modulus (GPa) = -100.40818 42.81127 -28.79846
#
# Velocity S-wave (km/s) = -6.22820 4.06684 -3.33551
# Velocity P-wave (km/s) = 5.54937 7.15646 3.19527
#
# Compressibility (1/GPa) = 0.01846234
#
# Stress axis : x y z
#
# Youngs Moduli (GPa) = 52.32213 120.45889 164.31528
#
# Poissons Ratio (x) = 0.12760 0.86519
# Poissons Ratio (y) = 0.05542 0.19620
# Poissons Ratio (z) = 0.27550 0.14383
#
# Static dielectric constant tensor:
#      x y z
#    x 2.147950 0.000000 0.000000 
#    y 0.000000 2.547680 0.000000 
#    z 0.000000 0.000000 2.091530 
# 
# From -- ./inp_files/28804.got.cif
#   From: 2010.05.17/outbox.cif.g08.bks.cpg/sg73_15_cif.got.tgz:28804.got - 2010.06.03 17:35:07.
