data_PCOD9531243
_publ_section_title
;
Structure prediction by ZEFSAII (Michael W. Deem and Ramdas Pophale) SiO2 
 PCOD9531243
Probable space group: I B C A 
;
_chemical_formula_sum "Si O2"
_cell_formula_units_Z 96
_cell_length_a 13.288050
_cell_length_b 16.535887
_cell_length_c 18.816593
_cell_angle_alpha 90.000000
_cell_angle_beta 90.000000
_cell_angle_gamma 90.000000
_cell_volume 4134.564208
_symmetry_space_group_name_H-M "I B C A "
_symmetry_group_IT_number 73
_symmetry_cell_setting 'orthorhombic'
loop_
_space_group_symop_operation_xyz
x,y,z
-x,1/2-y,z
x,-y,1/2-z
1/2-x,y,-z
-x,-y,-z
x,1/2+y,-z
-x,y,1/2+z
1/2+x,-y,z
1/2+x,1/2+y,1/2+z
1/2-x,-y,1/2+z
1/2+x,1/2-y,-z
-x,1/2+y,1/2-z
1/2-x,1/2-y,1/2-z
1/2+x,y,1/2-z
1/2-x,1/2+y,z
x,1/2-y,1/2+z
loop_
_atom_site_type_symbol
_atom_site_label
_atom_site_fract_x
_atom_site_fract_y
_atom_site_fract_z
Si Si1 0.432972 0.866284 0.015071
Si Si2 0.310234 0.261153 0.820504
Si Si3 0.421778 0.000000 0.250000
Si Si4 0.427408 0.902305 0.850000
Si Si5 0.713100 0.573271 0.128493
Si Si6 0.000000 0.250000 0.760740
Si Si7 0.849342 0.817125 0.954058
O O1 0.357060 0.927015 0.057827
O O2 0.547773 0.867810 0.042788
O O3 0.387158 0.774788 0.024728
O O4 0.446392 0.884343 0.932419
O O5 0.250000 0.250000 0.750000
O O6 0.261273 0.331487 0.866086
O O7 0.420048 0.287147 0.794118
O O8 0.316460 0.185390 0.871855
O O9 0.491589 0.048000 0.195053
O O10 0.350344 0.049097 0.303185
O O11 0.325760 0.957352 0.857324
O O12 0.441464 0.815642 0.808478
O O13 0.750000 0.838516 0.000000
#
# Coordination Sequence:
#
# PCOD9531243 Si02
#       7
#    16  16   8  16  16   8  16
#     4  10  22  40  65  92 133 176 221 277 337 400
#     4  11  21  36  65  98 138 174 210 274 339 386
#     4  12  28  44  66  96 134 176 234 278 338 422
#     4  12  25  42  71  98 129 179 224 277 345 410
#     4  11  23  45  64  92 134 176 221 274 340 402
#     4  12  22  38  68 106 130 170 226 278 336 400
#     4  10  21  36  61 102 139 174 216 272 337 407
#
# _framework density 23.218892
#
# number of rings (size 3 to 8) (size 9 to 14) (size 15 to 20)
#    0.000    1.000    3.333    6.000    2.333    0.667 
#    0.000    1.667    0.000    0.000    0.000    0.000 
#    0.000    0.000    0.000    0.000    0.000    0.000 
#
# Total GULP energy -267397.307618 kJ/mol
# GULP energy per Si atom -5570.777242 kJ/mol
# Density = 2.316604 g / cm^3
# Si number density = 23.218892 Si / 1000 Ang^3
#
#
#
# Elastic Constant Matrix: (Units=GPa)
#
#
# Indices 1 2 3 4 5 6 
#
# 1 116.4386 -0.7325 13.7523 0.0000 0.0000 0.0000
# 2 -0.7325 14.8376 -13.2320 0.0000 0.0000 0.0000
# 3 13.7523 -13.2320 103.0225 0.0000 0.0000 0.0000
# 4 0.0000 0.0000 0.0000 7.4924 0.0000 0.0000
# 5 0.0000 0.0000 0.0000 0.0000 50.6827 0.0000
# 6 0.0000 0.0000 0.0000 0.0000 0.0000 -14.9154
#
#
#
# Elastic Compliance Matrix: (Units=1/GPa)
#
#
# Indices 1 2 3 4 5 6 
#
# 1 0.008732 -0.000687 -0.001254 0.000000 0.000000 0.000000
# 2 -0.000687 0.076168 0.009875 0.000000 0.000000 0.000000
# 3 -0.001254 0.009875 0.011142 0.000000 0.000000 0.000000
# 4 0.000000 0.000000 0.000000 0.133469 0.000000 0.000000
# 5 0.000000 0.000000 0.000000 0.000000 0.019731 0.000000
# 6 0.000000 0.000000 0.000000 0.000000 0.000000 -0.067045
#
#
# Mechanical properties :
#
#
# Convention : Reuss Voigt Hill
#
# Bulk Modulus (GPa) = 8.93576 25.98605 17.46090
# Shear Modulus (GPa) = 24.55387 24.28598 24.41993
#
# Velocity S-wave (km/s) = 3.25544 3.23764 3.24655
# Velocity P-wave (km/s) = 4.24115 5.01921 4.64650
#
# Compressibility (1/GPa) = 0.11190993
#
# Stress axis : x y z
#
# Youngs Moduli (GPa) = 114.52141 13.12880 89.74827
#
# Poissons Ratio (x) = 0.00902 0.11253
# Poissons Ratio (y) = 0.07869 -0.88623
# Poissons Ratio (z) = 0.14360 -0.12964
#
# Static dielectric constant tensor:
#      x y z
#    x 1.791330 0.000000 0.000000 
#    y 0.000000 2.128440 0.000000 
#    z 0.000000 0.000000 1.853730 
# 
# From -- ./inp_files/17093.got.cif
#   From: 2010.05.17/outbox.cif.g08.bks.cpg/sg73_9_cif.got.tgz:17093.got - 2010.06.03 17:35:07.
