data_PCOD9531746
_publ_section_title
;
Structure prediction by ZEFSAII (Michael W. Deem and Ramdas Pophale) SiO2 
 PCOD9531746
Probable space group: I B C A 
;
_chemical_formula_sum "Si O2"
_cell_formula_units_Z 112
_cell_length_a 11.384224
_cell_length_b 14.731645
_cell_length_c 26.980084
_cell_angle_alpha 90.000000
_cell_angle_beta 90.000000
_cell_angle_gamma 90.000000
_cell_volume 4524.785278
_symmetry_space_group_name_H-M "I B C A "
_symmetry_group_IT_number 73
_symmetry_cell_setting 'orthorhombic'
loop_
_space_group_symop_operation_xyz
x,y,z
-x,1/2-y,z
x,-y,1/2-z
1/2-x,y,-z
-x,-y,-z
x,1/2+y,-z
-x,y,1/2+z
1/2+x,-y,z
1/2+x,1/2+y,1/2+z
1/2-x,-y,1/2+z
1/2+x,1/2-y,-z
-x,1/2+y,1/2-z
1/2-x,1/2-y,1/2-z
1/2+x,y,1/2-z
1/2-x,1/2+y,z
x,1/2-y,1/2+z
loop_
_atom_site_type_symbol
_atom_site_label
_atom_site_fract_x
_atom_site_fract_y
_atom_site_fract_z
Si Si1 0.322345 0.785182 0.096247
Si Si2 0.753869 0.325681 0.705342
Si Si3 0.962524 0.104871 0.601675
Si Si4 0.992855 0.647375 0.159037
Si Si5 0.133076 0.977890 0.486815
Si Si6 0.599224 0.195474 0.552197
Si Si7 0.455620 0.969661 0.200552
O O1 0.299679 0.778288 0.155154
O O2 0.399533 0.696946 0.086896
O O3 0.400313 0.875557 0.087313
O O4 0.201420 0.765078 0.068186
O O5 0.750000 0.250000 0.750000
O O6 0.636192 0.372750 0.681720
O O7 0.848394 0.404798 0.715959
O O8 0.884558 0.032750 0.572124
O O9 0.968640 0.082146 0.659424
O O10 0.000000 0.750000 0.179596
O O11 0.030412 0.658969 0.101371
O O12 0.076837 0.566084 0.175954
O O13 0.250000 0.033365 0.500000
O O14 0.146542 0.887799 0.521052
O O15 0.000000 0.000000 0.500000
O O16 0.500000 0.250000 0.522503
O O17 0.520914 0.000000 0.250000
#
# Coordination Sequence:
#
# PCOD9531746 Si02
#       7
#    16  16  16  16  16  16  16
#     4  10  21  44  72 107 143 197 245 326 399 468
#     4  11  24  45  73 104 155 203 266 335 406 485
#     4  10  24  46  73 105 154 191 258 328 393 479
#     4  11  23  45  69 105 150 199 258 322 402 481
#     4  12  27  48  72 110 150 205 258 331 403 482
#     4  11  23  42  76 106 145 196 255 316 402 490
#     4  11  26  44  69 111 147 205 267 325 412 486
#
# _framework density 24.752555999999998
#
# number of rings (size 3 to 8) (size 9 to 14) (size 15 to 20)
#    0.000    1.143    4.286    1.714    4.000    2.857 
#    7.714    0.000    0.000    0.000    0.000    0.000 
#    0.000    0.000    0.000    0.000    0.000    0.000 
#
# Total GULP energy -311935.864152 kJ/mol
# GULP energy per Si atom -5570.283288 kJ/mol
# Density = 2.469622 g / cm^3
# Si number density = 24.752556 Si / 1000 Ang^3
#
#
#
# Elastic Constant Matrix: (Units=GPa)
#
#
# Indices 1 2 3 4 5 6 
#
# 1 151.0556 25.8113 58.0758 0.0000 0.0000 0.0000
# 2 25.8113 73.2682 17.6384 0.0000 0.0000 0.0000
# 3 58.0758 17.6384 113.8337 0.0000 0.0000 0.0000
# 4 0.0000 0.0000 0.0000 37.8998 0.0000 0.0000
# 5 0.0000 0.0000 0.0000 0.0000 24.2038 0.0000
# 6 0.0000 0.0000 0.0000 0.0000 0.0000 31.7169
#
#
#
# Elastic Compliance Matrix: (Units=1/GPa)
#
#
# Indices 1 2 3 4 5 6 
#
# 1 0.008517 -0.002030 -0.004030 0.000000 0.000000 0.000000
# 2 -0.002030 0.014661 -0.001236 0.000000 0.000000 0.000000
# 3 -0.004030 -0.001236 0.011033 0.000000 0.000000 0.000000
# 4 0.000000 0.000000 0.000000 0.026385 0.000000 0.000000
# 5 0.000000 0.000000 0.000000 0.000000 0.041316 0.000000
# 6 0.000000 0.000000 0.000000 0.000000 0.000000 0.031529
#
#
# Mechanical properties :
#
#
# Convention : Reuss Voigt Hill
#
# Bulk Modulus (GPa) = 50.97551 60.13431 55.55491
# Shear Modulus (GPa) = 32.34731 34.53956 33.44343
#
# Velocity S-wave (km/s) = 3.61893 3.73955 3.67973
# Velocity P-wave (km/s) = 6.17260 6.55687 6.36763
#
# Compressibility (1/GPa) = 0.01961726
#
# Stress axis : x y z
#
# Youngs Moduli (GPa) = 117.41907 68.20728 90.64117
#
# Poissons Ratio (x) = 0.13846 0.36532
# Poissons Ratio (y) = 0.23836 0.11204
# Poissons Ratio (z) = 0.47325 0.08431
#
# Static dielectric constant tensor:
#      x y z
#    x 2.319470 0.000000 0.000000 
#    y 0.000000 1.361210 0.000000 
#    z 0.000000 0.000000 2.008910 
# 
# From -- ./inp_files/34017.got.cif
#   From: 2010.05.17/outbox.cif.g08.bks.cpg/sg73_18_cif.got.tgz:34017.got - 2010.06.03 17:35:07.
