data_PCOD9531430
_publ_section_title
;
Structure prediction by ZEFSAII (Michael W. Deem and Ramdas Pophale) SiO2 
 PCOD9531430
Probable space group: I B C A 
;
_chemical_formula_sum "Si O2"
_cell_formula_units_Z 72
_cell_length_a 9.120068
_cell_length_b 27.085628
_cell_length_c 12.772791
_cell_angle_alpha 90.000000
_cell_angle_beta 90.000000
_cell_angle_gamma 90.000000
_cell_volume 3155.170203
_symmetry_space_group_name_H-M "I B C A "
_symmetry_group_IT_number 73
_symmetry_cell_setting 'orthorhombic'
loop_
_space_group_symop_operation_xyz
x,y,z
-x,1/2-y,z
x,-y,1/2-z
1/2-x,y,-z
-x,-y,-z
x,1/2+y,-z
-x,y,1/2+z
1/2+x,-y,z
1/2+x,1/2+y,1/2+z
1/2-x,-y,1/2+z
1/2+x,1/2-y,-z
-x,1/2+y,1/2-z
1/2-x,1/2-y,1/2-z
1/2+x,y,1/2-z
1/2-x,1/2+y,z
x,1/2-y,1/2+z
loop_
_atom_site_type_symbol
_atom_site_label
_atom_site_fract_x
_atom_site_fract_y
_atom_site_fract_z
Si Si1 0.599061 0.201735 0.945527
Si Si2 0.722787 0.192184 0.244424
Si Si3 0.250000 0.006594 0.500000
Si Si4 0.451507 0.349754 0.635563
Si Si5 0.002742 0.037374 0.849909
O O1 0.500000 0.250000 0.923038
O O2 0.669657 0.173296 0.847815
O O3 0.750000 0.220447 0.000000
O O4 0.511173 0.164648 0.020987
O O5 0.750000 0.250000 0.250000
O O6 0.784105 0.166505 0.347619
O O7 0.559327 0.182739 0.208521
O O8 0.353062 0.034652 0.582785
O O9 0.135859 0.976947 0.572479
O O10 0.473216 0.405362 0.673610
O O11 0.998136 0.000000 0.750000
#
# Coordination Sequence:
#
# PCOD9531430 Si02
#       5
#    16  16   8  16  16
#     4  10  21  39  62  91 134 177 217 280 333 403
#     4  11  23  42  65  99 139 181 227 280 337 416
#     4  10  26  48  72 102 146 174 238 302 358 428
#     4  11  25  40  69  98 133 181 232 276 353 413
#     4  11  26  47  75 103 144 183 237 297 367 429
#
# _framework density 22.819687999999999
#
# number of rings (size 3 to 8) (size 9 to 14) (size 15 to 20)
#    0.000    1.333    0.000    5.333   10.889    1.778 
#    6.000    0.000    0.000    0.000    0.000    0.000 
#    0.000    0.000    0.000    0.000    0.000    0.000 
#
# Total GULP energy -201063.663920 kJ/mol
# GULP energy per Si atom -5585.101776 kJ/mol
# Density = 2.276775 g / cm^3
# Si number density = 22.819688 Si / 1000 Ang^3
#
#
#
# Elastic Constant Matrix: (Units=GPa)
#
#
# Indices 1 2 3 4 5 6 
#
# 1 77.8915 -10.7902 23.1641 0.0000 0.0000 0.0000
# 2 -10.7902 113.7146 2.6031 0.0000 0.0000 0.0000
# 3 23.1641 2.6031 68.7752 -0.0006 -0.0002 0.0001
# 4 0.0000 0.0000 -0.0006 21.1251 -0.0001 0.0001
# 5 0.0000 0.0000 -0.0002 -0.0001 49.1883 0.0000
# 6 0.0000 0.0000 0.0001 0.0001 0.0000 8.4826
#
#
#
# Elastic Compliance Matrix: (Units=1/GPa)
#
#
# Indices 1 2 3 4 5 6 
#
# 1 0.014516 0.001491 -0.004945 0.000000 0.000000 0.000000
# 2 0.001491 0.008955 -0.000841 0.000000 0.000000 0.000000
# 3 -0.004945 -0.000841 0.016238 0.000000 0.000000 0.000000
# 4 0.000000 0.000000 0.000000 0.047337 0.000000 0.000000
# 5 0.000000 0.000000 0.000000 0.000000 0.020330 0.000000
# 6 0.000000 0.000000 0.000000 0.000000 0.000000 0.117889
#
#
# Mechanical properties :
#
#
# Convention : Reuss Voigt Hill
#
# Bulk Modulus (GPa) = 32.13757 32.25948 32.19852
# Shear Modulus (GPa) = 20.47271 32.11949 26.29610
#
# Velocity S-wave (km/s) = 2.99850 3.75578 3.39830
# Velocity P-wave (km/s) = 5.10899 5.74241 5.43494
#
# Compressibility (1/GPa) = 0.03111623
#
# Stress axis : x y z
#
# Youngs Moduli (GPa) = 68.89159 111.67403 61.58541
#
# Poissons Ratio (x) = -0.16646 0.30456
# Poissons Ratio (y) = -0.10269 0.05179
# Poissons Ratio (z) = 0.34070 0.09391
#
# Static dielectric constant tensor:
#      x y z
#    x 1.874930 0.000000 0.000000 
#    y 0.000000 1.802810 0.000010 
#    z 0.000000 0.000010 4.364180 
# 
# From -- ./inp_files/15531.got.cif
#   From: 2010.05.17/outbox.cif.g08.bks.cpg/sg73_8_cif.got.tgz:15531.got - 2010.06.03 17:35:07.
