data_PCOD9531183
_publ_section_title
;
Structure prediction by ZEFSAII (Michael W. Deem and Ramdas Pophale) SiO2 
 PCOD9531183
Probable space group: I B C A 
;
_chemical_formula_sum "Si O2"
_cell_formula_units_Z 104
_cell_length_a 27.265129
_cell_length_b 18.990686
_cell_length_c 9.368743
_cell_angle_alpha 90.000000
_cell_angle_beta 90.000000
_cell_angle_gamma 90.000000
_cell_volume 4850.980575
_symmetry_space_group_name_H-M "I B C A "
_symmetry_group_IT_number 73
_symmetry_cell_setting 'orthorhombic'
loop_
_space_group_symop_operation_xyz
x,y,z
-x,1/2-y,z
x,-y,1/2-z
1/2-x,y,-z
-x,-y,-z
x,1/2+y,-z
-x,y,1/2+z
1/2+x,-y,z
1/2+x,1/2+y,1/2+z
1/2-x,-y,1/2+z
1/2+x,1/2-y,-z
-x,1/2+y,1/2-z
1/2-x,1/2-y,1/2-z
1/2+x,y,1/2-z
1/2-x,1/2+y,z
x,1/2-y,1/2+z
loop_
_atom_site_type_symbol
_atom_site_label
_atom_site_fract_x
_atom_site_fract_y
_atom_site_fract_z
Si Si1 0.831796 0.858290 0.551693
Si Si2 0.440973 0.292315 0.458120
Si Si3 0.796249 0.511219 0.416981
Si Si4 0.498432 0.630587 0.296156
Si Si5 0.338582 0.152825 0.881354
Si Si6 0.750000 0.760277 0.000000
Si Si7 0.937274 0.125909 0.051797
O O1 0.850346 0.851162 0.713960
O O2 0.792939 0.794989 0.542260
O O3 0.879019 0.866753 0.451044
O O4 0.806803 0.933551 0.528623
O O5 0.463024 0.327824 0.314607
O O6 0.465372 0.324593 0.600456
O O7 0.382508 0.306395 0.458531
O O8 0.450550 0.209387 0.451681
O O9 0.786271 0.500000 0.250000
O O10 0.750000 0.539661 0.500000
O O11 0.836805 0.571734 0.432547
O O12 0.461762 0.593733 0.408803
O O13 0.536081 0.592518 0.188286
O O14 0.284518 0.188567 0.902188
#
# Coordination Sequence:
#
# PCOD9531183 Si02
#       7
#    16  16  16  16  16   8  16
#     4  11  23  39  62  90 125 162 202 250 310 364
#     4  11  19  34  57  87 121 155 198 248 306 359
#     4  10  22  44  64  83 121 172 206 245 301 371
#     4  10  21  34  56  87 122 157 194 251 308 359
#     4  11  23  39  62  90 125 162 202 250 310 364
#     4  12  22  38  60  92 128 152 204 260 306 358
#     4  11  19  34  57  87 121 155 198 248 306 359
#
# _framework density 21.438963999999999
#
# number of rings (size 3 to 8) (size 9 to 14) (size 15 to 20)
#    0.000    1.231    4.615    4.154    0.000    0.000 
#    5.538    0.000    0.000    5.538    0.000    0.000 
#    0.000    0.000    0.000    0.000    0.000    0.000 
#
# Total GULP energy -289493.564166 kJ/mol
# GULP energy per Si atom -5567.183926 kJ/mol
# Density = 2.139017 g / cm^3
# Si number density = 21.438964 Si / 1000 Ang^3
#
#
#
# Elastic Constant Matrix: (Units=GPa)
#
#
# Indices 1 2 3 4 5 6 
#
# 1 127.2659 7.8682 32.5725 0.0000 0.0000 0.0000
# 2 7.8682 54.7795 9.8046 0.0000 0.0000 0.0000
# 3 32.5725 9.8046 66.9340 0.0000 0.0000 0.0000
# 4 0.0000 0.0000 0.0000 15.5264 0.0000 0.0000
# 5 0.0000 0.0000 0.0000 0.0000 23.4489 0.0000
# 6 0.0000 0.0000 0.0000 0.0000 0.0000 3.9745
#
#
#
# Elastic Compliance Matrix: (Units=1/GPa)
#
#
# Indices 1 2 3 4 5 6 
#
# 1 0.008990 -0.000522 -0.004298 0.000000 0.000000 0.000000
# 2 -0.000522 0.018777 -0.002496 0.000000 0.000000 0.000000
# 3 -0.004298 -0.002496 0.017398 0.000000 0.000000 0.000000
# 4 0.000000 0.000000 0.000000 0.064406 0.000000 0.000000
# 5 0.000000 0.000000 0.000000 0.000000 0.042646 0.000000
# 6 0.000000 0.000000 0.000000 0.000000 0.000000 0.251601
#
#
# Mechanical properties :
#
#
# Convention : Reuss Voigt Hill
#
# Bulk Modulus (GPa) = 32.75391 38.83001 35.79196
# Shear Modulus (GPa) = 11.66512 21.83891 16.75201
#
# Velocity S-wave (km/s) = 2.33514 3.19510 2.79835
# Velocity P-wave (km/s) = 4.75199 5.63585 5.21269
#
# Compressibility (1/GPa) = 0.03053071
#
# Stress axis : x y z
#
# Youngs Moduli (GPa) = 111.23510 53.25724 57.47940
#
# Poissons Ratio (x) = 0.02780 0.24707
# Poissons Ratio (y) = 0.05806 0.14350
# Poissons Ratio (z) = 0.47813 0.13296
#
# Static dielectric constant tensor:
#      x y z
#    x 1.828650 0.000000 0.000000 
#    y 0.000000 1.769630 0.000000 
#    z 0.000000 0.000000 1.794370 
# 
# From -- ./inp_files/7900.got.cif
#   From: 2010.05.17/outbox.cif.g08.bks.cpg/sg73_4_cif.got.tgz:7900.got - 2010.06.03 17:35:07.
