data_PCOD9531109
_publ_section_title
;
Structure prediction by ZEFSAII (Michael W. Deem and Ramdas Pophale) SiO2 
 PCOD9531109
Probable space group: I B C A 
;
_chemical_formula_sum "Si O2"
_cell_formula_units_Z 88
_cell_length_a 20.792022
_cell_length_b 13.297006
_cell_length_c 13.834144
_cell_angle_alpha 90.000000
_cell_angle_beta 90.000000
_cell_angle_gamma 90.000000
_cell_volume 3824.748497
_symmetry_space_group_name_H-M "I B C A "
_symmetry_group_IT_number 73
_symmetry_cell_setting 'orthorhombic'
loop_
_space_group_symop_operation_xyz
x,y,z
-x,1/2-y,z
x,-y,1/2-z
1/2-x,y,-z
-x,-y,-z
x,1/2+y,-z
-x,y,1/2+z
1/2+x,-y,z
1/2+x,1/2+y,1/2+z
1/2-x,-y,1/2+z
1/2+x,1/2-y,-z
-x,1/2+y,1/2-z
1/2-x,1/2-y,1/2-z
1/2+x,y,1/2-z
1/2-x,1/2+y,z
x,1/2-y,1/2+z
loop_
_atom_site_type_symbol
_atom_site_label
_atom_site_fract_x
_atom_site_fract_y
_atom_site_fract_z
Si Si1 0.949057 0.084833 0.965924
Si Si2 0.000000 0.750000 0.895518
Si Si3 0.079126 0.306974 0.776420
Si Si4 0.145384 0.392835 0.301931
Si Si5 0.713181 0.384714 0.782404
Si Si6 0.180010 0.462053 0.514832
O O1 0.956650 0.177480 0.039584
O O2 0.957173 0.133594 0.860309
O O3 0.878338 0.036638 0.964989
O O4 0.000000 0.000000 0.000000
O O5 0.043957 0.681904 0.825738
O O6 0.089123 0.187399 0.790005
O O7 0.152137 0.344078 0.773413
O O8 0.132236 0.500000 0.250000
O O9 0.213962 0.349234 0.262931
O O10 0.159444 0.410180 0.414900
O O11 0.717940 0.500000 0.750000
O O12 0.693561 0.386680 0.895969
O O13 0.250000 0.513288 0.500000
#
# Coordination Sequence:
#
# PCOD9531109 Si02
#       6
#    16   8  16  16  16  16
#     4  12  28  49  76 102 149 196 251 307 375 454
#     4  12  30  46  68 104 142 188 256 306 366 456
#     4  12  26  46  71 103 141 195 246 299 378 445
#     4  10  23  43  72 105 145 183 239 303 374 447
#     4  10  20  42  71 106 140 183 237 305 373 445
#     4  10  22  44  73 104 139 184 237 304 372 433
#
# _framework density 23.008049
#
# number of rings (size 3 to 8) (size 9 to 14) (size 15 to 20)
#    0.000    1.091    1.818    3.273    7.636    0.000 
#    3.273    0.000    0.000    0.000    0.000    0.000 
#    0.000    0.000    0.000    0.000    0.000    0.000 
#
# Total GULP energy -245898.113755 kJ/mol
# GULP energy per Si atom -5588.593494 kJ/mol
# Density = 2.295568 g / cm^3
# Si number density = 23.008049 Si / 1000 Ang^3
#
#
#
# Elastic Constant Matrix: (Units=GPa)
#
#
# Indices 1 2 3 4 5 6 
#
# 1 132.8232 34.4289 3.4982 0.0000 0.0000 0.0000
# 2 34.4289 47.4477 9.3161 0.0000 0.0000 0.0000
# 3 3.4982 9.3161 88.3269 0.0000 0.0000 0.0000
# 4 0.0000 0.0000 0.0000 19.4528 0.0000 0.0000
# 5 0.0000 0.0000 0.0000 0.0000 34.2731 0.0000
# 6 0.0000 0.0000 0.0000 0.0000 0.0000 32.4561
#
#
#
# Elastic Compliance Matrix: (Units=1/GPa)
#
#
# Indices 1 2 3 4 5 6 
#
# 1 0.009283 -0.006805 0.000350 0.000000 0.000000 0.000000
# 2 -0.006805 0.026510 -0.002527 0.000000 0.000000 0.000000
# 3 0.000350 -0.002527 0.011574 0.000000 0.000000 0.000000
# 4 0.000000 0.000000 0.000000 0.051407 0.000000 0.000000
# 5 0.000000 0.000000 0.000000 0.000000 0.029177 0.000000
# 6 0.000000 0.000000 0.000000 0.000000 0.000000 0.030811
#
#
# Mechanical properties :
#
#
# Convention : Reuss Voigt Hill
#
# Bulk Modulus (GPa) = 34.00845 40.34269 37.17557
# Shear Modulus (GPa) = 26.80582 31.99337 29.39959
#
# Velocity S-wave (km/s) = 3.41700 3.73303 3.57851
# Velocity P-wave (km/s) = 5.51190 6.01273 5.76775
#
# Compressibility (1/GPa) = 0.02940446
#
# Stress axis : x y z
#
# Youngs Moduli (GPa) = 107.71805 37.72200 86.39905
#
# Poissons Ratio (x) = 0.25670 -0.03025
# Poissons Ratio (y) = 0.73302 0.21829
# Poissons Ratio (z) = -0.03771 0.09531
#
# Static dielectric constant tensor:
#      x y z
#    x 1.897640 0.000000 0.000000 
#    y 0.000000 1.847430 0.000000 
#    z 0.000000 0.000000 2.397760 
# 
# From -- ./inp_files/18552.got.cif
#   From: 2010.05.17/outbox.cif.g08.bks.cpg/sg73_10_cif.got.tgz:18552.got - 2010.06.03 17:35:07.
