data_PCOD9531253
_publ_section_title
;
Structure prediction by ZEFSAII (Michael W. Deem and Ramdas Pophale) SiO2 
 PCOD9531253
Probable space group: I B C A 
;
_chemical_formula_sum "Si O2"
_cell_formula_units_Z 80
_cell_length_a 14.778027
_cell_length_b 18.130787
_cell_length_c 14.868673
_cell_angle_alpha 90.000000
_cell_angle_beta 90.000000
_cell_angle_gamma 90.000000
_cell_volume 3983.871501
_symmetry_space_group_name_H-M "I B C A "
_symmetry_group_IT_number 73
_symmetry_cell_setting 'orthorhombic'
loop_
_space_group_symop_operation_xyz
x,y,z
-x,1/2-y,z
x,-y,1/2-z
1/2-x,y,-z
-x,-y,-z
x,1/2+y,-z
-x,y,1/2+z
1/2+x,-y,z
1/2+x,1/2+y,1/2+z
1/2-x,-y,1/2+z
1/2+x,1/2-y,-z
-x,1/2+y,1/2-z
1/2-x,1/2-y,1/2-z
1/2+x,y,1/2-z
1/2-x,1/2+y,z
x,1/2-y,1/2+z
loop_
_atom_site_type_symbol
_atom_site_label
_atom_site_fract_x
_atom_site_fract_y
_atom_site_fract_z
Si Si1 0.237483 0.663956 0.764456
Si Si2 0.558625 0.083074 0.231514
Si Si3 0.120622 0.081124 0.646199
Si Si4 0.986610 0.586497 0.023520
Si Si5 0.323477 0.078517 0.073664
O O1 0.250000 0.750000 0.750000
O O2 0.133112 0.640063 0.764837
O O3 0.292231 0.621178 0.685976
O O4 0.281640 0.635239 0.856421
O O5 0.463173 0.087965 0.283955
O O6 0.547303 0.093369 0.125004
O O7 0.593194 0.000000 0.250000
O O8 0.081968 0.113742 0.552423
O O9 0.145484 0.995367 0.627187
O O10 0.089601 0.614277 0.024660
O O11 0.000000 0.500000 0.000000
O O12 0.250000 0.055724 0.000000
#
# Coordination Sequence:
#
# PCOD9531253 Si02
#       5
#    16  16  16  16  16
#     4  12  28  44  65  97 143 189 220 268 341 422
#     4  12  21  42  72  98 132 172 226 288 339 387
#     4  11  23  44  71 102 132 169 231 286 341 396
#     4  10  21  36  68 103 127 162 220 290 343 385
#     4  11  22  43  71 105 133 172 231 291 340 398
#
# _framework density 20.080969
#
# number of rings (size 3 to 8) (size 9 to 14) (size 15 to 20)
#    0.000    0.800    6.000    3.000    8.400    0.800 
#    3.600    0.000    0.000    0.000    0.000    0.000 
#    0.000    0.000    0.000    0.000    0.000    0.000 
#
# Total GULP energy -223510.205538 kJ/mol
# GULP energy per Si atom -5587.755138 kJ/mol
# Density = 2.003526 g / cm^3
# Si number density = 20.080969 Si / 1000 Ang^3
#
#
#
# Elastic Constant Matrix: (Units=GPa)
#
#
# Indices 1 2 3 4 5 6 
#
# 1 98.7431 32.8075 37.9729 0.0000 0.0000 0.0000
# 2 32.8075 73.6619 12.9066 0.0000 0.0000 0.0000
# 3 37.9729 12.9066 122.1894 0.0000 0.0000 0.0000
# 4 0.0000 0.0000 0.0000 8.3662 0.0000 0.0000
# 5 0.0000 0.0000 0.0000 0.0000 56.7020 0.0000
# 6 0.0000 0.0000 0.0000 0.0000 0.0000 -3.4648
#
#
#
# Elastic Compliance Matrix: (Units=1/GPa)
#
#
# Indices 1 2 3 4 5 6 
#
# 1 0.013250 -0.005277 -0.003560 0.000000 0.000000 0.000000
# 2 -0.005277 0.015934 -0.000043 0.000000 0.000000 0.000000
# 3 -0.003560 -0.000043 0.009295 0.000000 0.000000 0.000000
# 4 0.000000 0.000000 0.000000 0.119529 0.000000 0.000000
# 5 0.000000 0.000000 0.000000 0.000000 0.017636 0.000000
# 6 0.000000 0.000000 0.000000 0.000000 0.000000 -0.288620
#
#
# Mechanical properties :
#
#
# Convention : Reuss Voigt Hill
#
# Bulk Modulus (GPa) = 48.26919 51.32981 49.79950
# Shear Modulus (GPa) = -56.61886 26.38115 -15.11885
#
# Velocity S-wave (km/s) = -5.31568 3.62849 -2.74687
# Velocity P-wave (km/s) = 3.68590 6.57050 3.84614
#
# Compressibility (1/GPa) = 0.02071715
#
# Stress axis : x y z
#
# Youngs Moduli (GPa) = 75.47256 62.76074 107.58507
#
# Poissons Ratio (x) = 0.33121 0.38303
# Poissons Ratio (y) = 0.39830 0.00462
# Poissons Ratio (z) = 0.26870 0.00270
#
# Static dielectric constant tensor:
#      x y z
#    x 1.749940 0.000000 0.000000 
#    y 0.000000 1.657820 0.000000 
#    z 0.000000 0.000000 1.740570 
# 
# From -- ./inp_files/16849.got.cif
#   From: 2010.05.17/outbox.cif.g08.bks.cpg/sg73_9_cif.got.tgz:16849.got - 2010.06.03 17:35:07.
