data_PCOD9531855
_publ_section_title
;
Structure prediction by ZEFSAII (Michael W. Deem and Ramdas Pophale) SiO2 
 PCOD9531855
Probable space group: I B C A 
;
_chemical_formula_sum "Si O2"
_cell_formula_units_Z 120
_cell_length_a 24.494355
_cell_length_b 9.353927
_cell_length_c 28.671571
_cell_angle_alpha 90.000000
_cell_angle_beta 90.000000
_cell_angle_gamma 90.000000
_cell_volume 6569.184719
_symmetry_space_group_name_H-M "I B C A "
_symmetry_group_IT_number 73
_symmetry_cell_setting 'orthorhombic'
loop_
_space_group_symop_operation_xyz
x,y,z
-x,1/2-y,z
x,-y,1/2-z
1/2-x,y,-z
-x,-y,-z
x,1/2+y,-z
-x,y,1/2+z
1/2+x,-y,z
1/2+x,1/2+y,1/2+z
1/2-x,-y,1/2+z
1/2+x,1/2-y,-z
-x,1/2+y,1/2-z
1/2-x,1/2-y,1/2-z
1/2+x,y,1/2-z
1/2-x,1/2+y,z
x,1/2-y,1/2+z
loop_
_atom_site_type_symbol
_atom_site_label
_atom_site_fract_x
_atom_site_fract_y
_atom_site_fract_z
Si Si1 0.620787 0.893160 0.685488
Si Si2 0.063500 0.773743 0.901673
Si Si3 0.589126 0.943785 0.401440
Si Si4 0.727361 0.702781 0.698619
Si Si5 0.819940 0.109406 0.826642
Si Si6 0.457839 0.871004 0.995178
Si Si7 0.401623 0.308276 0.717628
Si Si8 0.000000 0.750000 0.650339
O O1 0.591706 0.874348 0.636223
O O2 0.674231 0.796819 0.687974
O O3 0.584289 0.833969 0.728519
O O4 0.633293 0.055846 0.699603
O O5 0.086929 0.614543 0.898860
O O6 0.000000 0.750000 0.890774
O O7 0.066231 0.832844 0.954316
O O8 0.642746 0.903358 0.372551
O O9 0.586328 0.899163 0.455442
O O10 0.534964 0.867352 0.378877
O O11 0.750000 0.750000 0.750000
O O12 0.775172 0.766980 0.666556
O O13 0.709881 0.537593 0.689910
O O14 0.864796 0.167492 0.789166
O O15 0.500000 0.750000 0.979634
O O16 0.500000 0.000000 0.000000
O O17 0.454075 0.312760 0.684674
#
# Coordination Sequence:
#
# PCOD9531855 Si02
#       8
#    16  16  16  16  16  16  16   8
#     4  11  23  40  60  91 126 163 216 258 311 372
#     4  11  22  37  63  95 130 164 208 254 315 375
#     4  11  21  40  61  97 125 168 207 262 318 386
#     4  12  23  39  64  90 122 162 211 268 305 362
#     4  11  24  40  64  91 124 163 215 263 316 371
#     4  11  21  36  63  95 127 165 206 256 315 375
#     4  10  23  39  57  92 125 175 205 248 313 373
#     4  10  22  38  58  84 140 170 208 242 316 382
#
# _framework density 18.267108
#
# number of rings (size 3 to 8) (size 9 to 14) (size 15 to 20)
#    0.000    1.067    6.000    2.000    2.800    0.000 
#    0.000    0.000    0.000    0.800    0.000    0.000 
#    0.000    0.000    0.000    0.000    0.000    0.000 
#
# Total GULP energy -334550.786774 kJ/mol
# GULP energy per Si atom -5575.846446 kJ/mol
# Density = 1.822553 g / cm^3
# Si number density = 18.267108 Si / 1000 Ang^3
#
#
#
# Elastic Constant Matrix: (Units=GPa)
#
#
# Indices 1 2 3 4 5 6 
#
# 1 77.1796 37.2736 49.5678 0.0000 0.0000 0.0000
# 2 37.2736 108.0648 30.9804 0.0000 0.0000 0.0000
# 3 49.5678 30.9804 118.5197 0.0000 0.0000 0.0000
# 4 0.0000 0.0000 0.0000 26.8154 0.0000 0.0000
# 5 0.0000 0.0000 0.0000 0.0000 27.2362 0.0000
# 6 0.0000 0.0000 0.0000 0.0000 0.0000 36.8462
#
#
#
# Elastic Compliance Matrix: (Units=1/GPa)
#
#
# Indices 1 2 3 4 5 6 
#
# 1 0.019789 -0.004814 -0.007018 0.000000 0.000000 0.000000
# 2 -0.004814 0.011174 -0.000908 0.000000 0.000000 0.000000
# 3 -0.007018 -0.000908 0.011610 0.000000 0.000000 0.000000
# 4 0.000000 0.000000 0.000000 0.037292 0.000000 0.000000
# 5 0.000000 0.000000 0.000000 0.000000 0.036716 0.000000
# 6 0.000000 0.000000 0.000000 0.000000 0.000000 0.027140
#
#
# Mechanical properties :
#
#
# Convention : Reuss Voigt Hill
#
# Bulk Modulus (GPa) = 58.49907 59.93420 59.21664
# Shear Modulus (GPa) = 28.58833 30.57572 29.58202
#
# Velocity S-wave (km/s) = 3.96032 4.09566 4.02856
# Velocity P-wave (km/s) = 7.28052 7.43284 7.35707
#
# Compressibility (1/GPa) = 0.01709429
#
# Stress axis : x y z
#
# Youngs Moduli (GPa) = 50.53414 89.49166 86.13479
#
# Poissons Ratio (x) = 0.43077 0.60448
# Poissons Ratio (y) = 0.24325 0.07819
# Poissons Ratio (z) = 0.35464 0.08123
#
# Static dielectric constant tensor:
#      x y z
#    x 1.624560 0.000000 0.000000 
#    y 0.000000 1.668480 0.000000 
#    z 0.000000 0.000000 1.640340 
# 
# From -- ./inp_files/31414.got.cif
#   From: 2010.05.17/outbox.cif.g08.bks.cpg/sg73_16_cif.got.tgz:31414.got - 2010.06.03 17:35:07.
