data_PCOD9532926
_publ_section_title
;
Structure prediction by ZEFSAII (Michael W. Deem and Ramdas Pophale) SiO2 
 PCOD9532926
Probable space group: I B C A 
;
_chemical_formula_sum "Si O2"
_cell_formula_units_Z 88
_cell_length_a 18.774508
_cell_length_b 21.996002
_cell_length_c 9.679653
_cell_angle_alpha 90.000000
_cell_angle_beta 90.000000
_cell_angle_gamma 90.000000
_cell_volume 3997.349340
_symmetry_space_group_name_H-M "I B C A "
_symmetry_group_IT_number 73
_symmetry_cell_setting 'orthorhombic'
loop_
_space_group_symop_operation_xyz
x,y,z
-x,1/2-y,z
x,-y,1/2-z
1/2-x,y,-z
-x,-y,-z
x,1/2+y,-z
-x,y,1/2+z
1/2+x,-y,z
1/2+x,1/2+y,1/2+z
1/2-x,-y,1/2+z
1/2+x,1/2-y,-z
-x,1/2+y,1/2-z
1/2-x,1/2-y,1/2-z
1/2+x,y,1/2-z
1/2-x,1/2+y,z
x,1/2-y,1/2+z
loop_
_atom_site_type_symbol
_atom_site_label
_atom_site_fract_x
_atom_site_fract_y
_atom_site_fract_z
Si Si1 0.149307 0.379888 0.550404
Si Si2 0.451768 0.805630 0.165853
Si Si3 0.502270 0.125574 0.078426
Si Si4 0.700655 0.755375 0.616783
Si Si5 0.634410 0.055301 0.168287
Si Si6 0.250000 0.519989 0.000000
O O1 0.068260 0.390589 0.506505
O O2 0.173289 0.309255 0.549888
O O3 0.158321 0.398610 0.711357
O O4 0.192255 0.428279 0.454992
O O5 0.500000 0.750000 0.214047
O O6 0.475716 0.859760 0.267231
O O7 0.368857 0.790940 0.167391
O O8 0.470245 0.816653 0.006606
O O9 0.571778 0.083223 0.077266
O O10 0.750000 0.785978 0.500000
O O11 0.750000 0.750000 0.750000
O O12 0.598608 0.000000 0.250000
O O13 0.702590 0.024773 0.094317
#
# Coordination Sequence:
#
# PCOD9532926 Si02
#       6
#    16  16  16  16  16   8
#     4  11  23  47  70 103 142 184 241 300 360 436
#     4  12  26  43  75 107 148 194 241 300 364 446
#     4  12  24  47  73 105 144 190 244 303 362 442
#     4  12  27  44  71 107 149 191 236 292 372 443
#     4  10  24  46  71 103 136 188 246 303 363 430
#     4  10  24  46  70  94 142 182 236 304 358 420
#
# _framework density 22.014589000000001
#
# number of rings (size 3 to 8) (size 9 to 14) (size 15 to 20)
#    0.000    0.727    4.545    1.636    5.091    4.364 
#    6.545    0.000    0.000    0.000    0.000    0.000 
#    0.000    0.000    0.000    0.000    0.000    0.000 
#
# Total GULP energy -245195.044454 kJ/mol
# GULP energy per Si atom -5572.614647 kJ/mol
# Density = 2.196448 g / cm^3
# Si number density = 22.014589 Si / 1000 Ang^3
#
#
#
# Elastic Constant Matrix: (Units=GPa)
#
#
# Indices 1 2 3 4 5 6 
#
# 1 174.5353 28.4252 47.1563 0.0000 0.0000 0.0000
# 2 28.4252 51.9755 9.2599 0.0000 0.0000 0.0000
# 3 47.1563 9.2599 84.9372 0.0000 0.0000 0.0000
# 4 0.0000 0.0000 0.0000 36.8716 0.0000 0.0000
# 5 0.0000 0.0000 0.0000 0.0000 -74.9587 0.0000
# 6 0.0000 0.0000 0.0000 0.0000 0.0000 33.3926
#
#
#
# Elastic Compliance Matrix: (Units=1/GPa)
#
#
# Indices 1 2 3 4 5 6 
#
# 1 0.007261 -0.003317 -0.003670 0.000000 0.000000 0.000000
# 2 -0.003317 0.021136 -0.000463 0.000000 0.000000 0.000000
# 3 -0.003670 -0.000463 0.013861 0.000000 0.000000 0.000000
# 4 0.000000 0.000000 0.000000 0.027121 0.000000 0.000000
# 5 0.000000 0.000000 0.000000 0.000000 -0.013341 0.000000
# 6 0.000000 0.000000 0.000000 0.000000 0.000000 0.029947
#
#
# Mechanical properties :
#
#
# Convention : Reuss Voigt Hill
#
# Bulk Modulus (GPa) = 36.55007 53.45897 45.00452
# Shear Modulus (GPa) = 45.45232 14.16821 29.81027
#
# Velocity S-wave (km/s) = 4.54877 2.53965 3.68382
# Velocity P-wave (km/s) = 6.65034 5.73898 6.21140
#
# Compressibility (1/GPa) = 0.02735973
#
# Stress axis : x y z
#
# Youngs Moduli (GPa) = 137.71705 47.31154 72.14373
#
# Poissons Ratio (x) = 0.15695 0.26475
# Poissons Ratio (y) = 0.45686 0.03337
# Poissons Ratio (z) = 0.50538 0.02188
#
# Static dielectric constant tensor:
#      x y z
#    x 1.726590 0.000000 0.000000 
#    y 0.000000 1.871410 0.000000 
#    z 0.000000 0.000000 1.828820 
# 
# From -- ./inp_files/6304.got.cif
#   From: 2010.05.17/outbox.cif.g08.bks.cpg/sg73_4_cif.got.tgz:6304.got - 2010.06.03 17:35:07.
