data_PCOD9532998
_publ_section_title
;
Structure prediction by ZEFSAII (Michael W. Deem and Ramdas Pophale) SiO2 
 PCOD9532998
Probable space group: I B C A 
;
_chemical_formula_sum "Si O2"
_cell_formula_units_Z 64
_cell_length_a 8.168706
_cell_length_b 13.996010
_cell_length_c 21.818016
_cell_angle_alpha 90.000000
_cell_angle_beta 90.000000
_cell_angle_gamma 90.000000
_cell_volume 2494.438297
_symmetry_space_group_name_H-M "I B C A "
_symmetry_group_IT_number 73
_symmetry_cell_setting 'orthorhombic'
loop_
_space_group_symop_operation_xyz
x,y,z
-x,1/2-y,z
x,-y,1/2-z
1/2-x,y,-z
-x,-y,-z
x,1/2+y,-z
-x,y,1/2+z
1/2+x,-y,z
1/2+x,1/2+y,1/2+z
1/2-x,-y,1/2+z
1/2+x,1/2-y,-z
-x,1/2+y,1/2-z
1/2-x,1/2-y,1/2-z
1/2+x,y,1/2-z
1/2-x,1/2+y,z
x,1/2-y,1/2+z
loop_
_atom_site_type_symbol
_atom_site_label
_atom_site_fract_x
_atom_site_fract_y
_atom_site_fract_z
Si Si1 0.348988 0.457715 0.918146
Si Si2 0.359326 0.310442 0.703734
Si Si3 0.929902 0.428417 0.200079
Si Si4 0.482711 0.364712 0.039454
O O1 0.443812 0.454133 0.853605
O O2 0.366332 0.566596 0.942147
O O3 0.168054 0.410164 0.919576
O O4 0.439554 0.393898 0.969678
O O5 0.500000 0.250000 0.669499
O O6 0.250000 0.250000 0.750000
O O7 0.464070 0.371690 0.750646
O O8 0.220272 0.370580 0.670145
O O9 0.849244 0.500000 0.250000
O O10 0.500000 0.250000 0.042118
#
# Coordination Sequence:
#
# PCOD9532998 Si02
#       4
#    16  16  16  16
#     4  10  25  46  77 113 157 201 269 325 406 490
#     4   9  21  42  62  98 150 193 258 310 373 470
#     4  11  23  41  71 106 154 205 246 319 397 471
#     4  10  24  50  78 113 154 205 263 341 404 469
#
# _framework density 25.657079
#
# number of rings (size 3 to 8) (size 9 to 14) (size 15 to 20)
#    0.000    2.000    0.000    0.750    7.000   11.000 
#    4.500    0.000    0.000    0.000    0.000    0.000 
#    0.000    0.000    0.000    0.000    0.000    0.000 
#
# Total GULP energy -178557.313559 kJ/mol
# GULP energy per Si atom -5579.916049 kJ/mol
# Density = 2.559868 g / cm^3
# Si number density = 25.657079 Si / 1000 Ang^3
#
#
#
# Elastic Constant Matrix: (Units=GPa)
#
#
# Indices 1 2 3 4 5 6 
#
# 1 140.1160 67.1764 28.9626 0.0000 0.0000 0.0000
# 2 67.1764 182.4874 30.8274 0.0000 0.0000 0.0000
# 3 28.9626 30.8274 144.3560 0.0000 0.0000 0.0000
# 4 0.0000 0.0000 0.0000 -5.1435 0.0000 0.0000
# 5 0.0000 0.0000 0.0000 0.0000 37.8292 0.0000
# 6 0.0000 0.0000 0.0000 0.0000 0.0000 56.6798
#
#
#
# Elastic Compliance Matrix: (Units=1/GPa)
#
#
# Indices 1 2 3 4 5 6 
#
# 1 0.008837 -0.003064 -0.001119 0.000000 0.000000 0.000000
# 2 -0.003064 0.006747 -0.000826 0.000000 0.000000 0.000000
# 3 -0.001119 -0.000826 0.007328 0.000000 0.000000 0.000000
# 4 0.000000 0.000000 0.000000 -0.194419 0.000000 0.000000
# 5 0.000000 0.000000 0.000000 0.000000 0.026435 0.000000
# 6 0.000000 0.000000 0.000000 0.000000 0.000000 0.017643
#
#
# Mechanical properties :
#
#
# Convention : Reuss Voigt Hill
#
# Bulk Modulus (GPa) = 77.55046 80.09914 78.82480
# Shear Modulus (GPa) = -44.20373 40.53930 -1.83222
#
# Velocity S-wave (km/s) = -4.15525 3.97929 -0.84597
# Velocity P-wave (km/s) = 2.69628 7.23878 5.46213
#
# Compressibility (1/GPa) = 0.01289483
#
# Stress axis : x y z
#
# Youngs Moduli (GPa) = 113.15754 148.20643 136.45943
#
# Poissons Ratio (x) = 0.45413 0.15266
# Poissons Ratio (y) = 0.34673 0.11273
# Poissons Ratio (z) = 0.12659 0.12244
#
# Static dielectric constant tensor:
#      x y z
#    x 1.993990 0.000000 0.000000 
#    y 0.000000 2.124380 0.000000 
#    z 0.000000 0.000000 1.940250 
# 
# From -- ./inp_files/28181.got.cif
#   From: 2010.05.17/outbox.cif.g08.bks.cpg/sg73_15_cif.got.tgz:28181.got - 2010.06.03 17:35:07.
