data_PCOD9532458
_publ_section_title
;
Structure prediction by ZEFSAII (Michael W. Deem and Ramdas Pophale) SiO2 
 PCOD9532458
Probable space group: I B C A 
;
_chemical_formula_sum "Si O2"
_cell_formula_units_Z 96
_cell_length_a 16.012366
_cell_length_b 21.901051
_cell_length_c 13.999786
_cell_angle_alpha 90.000000
_cell_angle_beta 90.000000
_cell_angle_gamma 90.000000
_cell_volume 4909.551974
_symmetry_space_group_name_H-M "I B C A "
_symmetry_group_IT_number 73
_symmetry_cell_setting 'orthorhombic'
loop_
_space_group_symop_operation_xyz
x,y,z
-x,1/2-y,z
x,-y,1/2-z
1/2-x,y,-z
-x,-y,-z
x,1/2+y,-z
-x,y,1/2+z
1/2+x,-y,z
1/2+x,1/2+y,1/2+z
1/2-x,-y,1/2+z
1/2+x,1/2-y,-z
-x,1/2+y,1/2-z
1/2-x,1/2-y,1/2-z
1/2+x,y,1/2-z
1/2-x,1/2+y,z
x,1/2-y,1/2+z
loop_
_atom_site_type_symbol
_atom_site_label
_atom_site_fract_x
_atom_site_fract_y
_atom_site_fract_z
Si Si1 0.250000 0.299590 0.500000
Si Si2 0.478241 0.685612 0.691909
Si Si3 0.384618 0.883531 0.566687
Si Si4 0.621095 0.695163 0.000796
Si Si5 0.135497 0.981410 0.140980
Si Si6 0.493421 0.622964 0.878963
Si Si7 0.750000 0.588680 0.000000
O O1 0.298409 0.345720 0.430009
O O2 0.177787 0.251950 0.467868
O O3 0.500000 0.750000 0.738805
O O4 0.553069 0.649591 0.639922
O O5 0.420246 0.706442 0.603549
O O6 0.452634 0.641483 0.778351
O O7 0.424094 0.881940 0.460803
O O8 0.378973 0.954330 0.590119
O O9 0.555030 0.675480 0.920904
O O10 0.675384 0.634946 0.022973
O O11 0.054860 0.936078 0.132540
O O12 0.151251 0.000000 0.250000
O O13 0.214206 0.950145 0.088012
#
# Coordination Sequence:
#
# PCOD9532458 Si02
#       7
#     8  16  16  16  16  16   8
#     4  11  21  40  60  92 129 167 196 260 326 377
#     4  11  21  38  62  96 121 159 211 261 305 381
#     4  11  23  40  63  90 125 163 211 263 313 377
#     4   9  21  41  61  86 129 162 206 252 320 386
#     4  11  21  43  66  91 125 164 214 260 312 372
#     4  10  23  40  66  87 120 166 209 261 318 364
#     4   9  21  42  60  86 127 171 194 256 322 375
#
# _framework density 19.553719999999998
#
# number of rings (size 3 to 8) (size 9 to 14) (size 15 to 20)
#    0.000    1.667    3.333    1.000    2.333    0.000 
#    6.000    1.667    0.000    0.000    0.000    0.000 
#    0.000    0.000    0.000    0.000    0.000    0.000 
#
# Total GULP energy -267421.848396 kJ/mol
# GULP energy per Si atom -5571.288508 kJ/mol
# Density = 1.950921 g / cm^3
# Si number density = 19.553720 Si / 1000 Ang^3
#
#
#
# Elastic Constant Matrix: (Units=GPa)
#
#
# Indices 1 2 3 4 5 6 
#
# 1 44.8520 16.3167 36.7138 0.0000 0.0000 0.0000
# 2 16.3167 107.6642 53.8466 0.0000 0.0000 0.0000
# 3 36.7138 53.8466 99.8355 0.0000 0.0000 0.0000
# 4 0.0000 0.0000 0.0000 38.7546 0.0000 0.0000
# 5 0.0000 0.0000 0.0000 0.0000 4.6510 0.0000
# 6 0.0000 0.0000 0.0000 0.0000 0.0000 26.1088
#
#
#
# Elastic Compliance Matrix: (Units=1/GPa)
#
#
# Indices 1 2 3 4 5 6 
#
# 1 0.032055 0.001421 -0.012554 0.000000 0.000000 0.000000
# 2 0.001421 0.012782 -0.007417 0.000000 0.000000 0.000000
# 3 -0.012554 -0.007417 0.018633 0.000000 0.000000 0.000000
# 4 0.000000 0.000000 0.000000 0.025803 0.000000 0.000000
# 5 0.000000 0.000000 0.000000 0.000000 0.215008 0.000000
# 6 0.000000 0.000000 0.000000 0.000000 0.000000 0.038301
#
#
# Mechanical properties :
#
#
# Convention : Reuss Voigt Hill
#
# Bulk Modulus (GPa) = 37.92127 51.78955 44.85541
# Shear Modulus (GPa) = 12.87090 23.60119 18.23604
#
# Velocity S-wave (km/s) = 2.56839 3.47795 3.05718
# Velocity P-wave (km/s) = 5.31328 6.53234 5.95409
#
# Compressibility (1/GPa) = 0.02637043
#
# Stress axis : x y z
#
# Youngs Moduli (GPa) = 31.19626 78.23454 53.66705
#
# Poissons Ratio (x) = -0.11116 0.67376
# Poissons Ratio (y) = -0.04433 0.39803
# Poissons Ratio (z) = 0.39165 0.58023
#
# Static dielectric constant tensor:
#      x y z
#    x 1.721090 0.000000 0.000000 
#    y 0.000000 1.694010 0.000000 
#    z 0.000000 0.000000 1.690080 
# 
# From -- ./inp_files/12066.got.cif
#   From: 2010.05.17/outbox.cif.g08.bks.cpg/sg73_7_cif.got.tgz:12066.got - 2010.06.03 17:35:07.
