data_PCOD9532153
_publ_section_title
;
Structure prediction by ZEFSAII (Michael W. Deem and Ramdas Pophale) SiO2 
 PCOD9532153
Probable space group: I B C A 
;
_chemical_formula_sum "Si O2"
_cell_formula_units_Z 64
_cell_length_a 24.757880
_cell_length_b 18.662623
_cell_length_c 5.862008
_cell_angle_alpha 90.000000
_cell_angle_beta 90.000000
_cell_angle_gamma 90.000000
_cell_volume 2708.523097
_symmetry_space_group_name_H-M "I B C A "
_symmetry_group_IT_number 73
_symmetry_cell_setting 'orthorhombic'
loop_
_space_group_symop_operation_xyz
x,y,z
-x,1/2-y,z
x,-y,1/2-z
1/2-x,y,-z
-x,-y,-z
x,1/2+y,-z
-x,y,1/2+z
1/2+x,-y,z
1/2+x,1/2+y,1/2+z
1/2-x,-y,1/2+z
1/2+x,1/2-y,-z
-x,1/2+y,1/2-z
1/2-x,1/2-y,1/2-z
1/2+x,y,1/2-z
1/2-x,1/2+y,z
x,1/2-y,1/2+z
loop_
_atom_site_type_symbol
_atom_site_label
_atom_site_fract_x
_atom_site_fract_y
_atom_site_fract_z
Si Si1 0.528940 0.500000 0.250000
Si Si2 0.377994 0.089686 0.378091
Si Si3 0.308577 0.856676 0.508824
Si Si4 0.669278 0.000000 0.250000
Si Si5 0.907577 0.242755 0.002622
O O1 0.500000 0.500000 0.500000
O O2 0.567193 0.429757 0.247654
O O3 0.326361 0.103997 0.223173
O O4 0.367391 0.022802 0.539346
O O5 0.387099 0.161647 0.516169
O O6 0.250000 0.820947 0.500000
O O7 0.356539 0.797745 0.527275
O O8 0.303198 0.924353 0.683576
O O9 0.934614 0.243693 0.255424
#
# Coordination Sequence:
#
# PCOD9532153 Si02
#       5
#     8  16  16   8  16
#     4  12  27  45  78 110 136 180 241 305 376 432
#     4  11  24  44  69 101 141 185 237 301 364 427
#     4  11  25  40  67 104 147 196 241 287 356 439
#     4  12  21  41  64 102 140 194 231 301 356 426
#     4  10  22  42  66  96 137 194 232 284 350 424
#
# _framework density 23.629111000000002
#
# number of rings (size 3 to 8) (size 9 to 14) (size 15 to 20)
#    0.000    1.000    5.000    0.750    3.500    4.000 
#    0.000    0.000    0.000   18.000    0.000    0.000 
#    0.000    0.000    0.000    0.000    0.000    0.000 
#
# Total GULP energy -178176.030227 kJ/mol
# GULP energy per Si atom -5568.000945 kJ/mol
# Density = 2.357533 g / cm^3
# Si number density = 23.629111 Si / 1000 Ang^3
#
#
#
# Elastic Constant Matrix: (Units=GPa)
#
#
# Indices 1 2 3 4 5 6 
#
# 1 88.6024 12.7353 45.7023 0.0000 0.0000 0.0000
# 2 12.7353 117.0626 3.7208 0.0000 0.0000 0.0000
# 3 45.7023 3.7208 151.5556 0.0000 0.0000 0.0000
# 4 0.0000 0.0000 0.0000 50.7456 0.0000 0.0000
# 5 0.0000 0.0000 0.0000 0.0000 12.5081 0.0000
# 6 0.0000 0.0000 0.0000 0.0000 0.0000 7.5919
#
#
#
# Elastic Compliance Matrix: (Units=1/GPa)
#
#
# Indices 1 2 3 4 5 6 
#
# 1 0.013574 -0.001348 -0.004060 0.000000 0.000000 0.000000
# 2 -0.001348 0.008683 0.000193 0.000000 0.000000 0.000000
# 3 -0.004060 0.000193 0.007818 0.000000 0.000000 0.000000
# 4 0.000000 0.000000 0.000000 0.019706 0.000000 0.000000
# 5 0.000000 0.000000 0.000000 0.000000 0.079948 0.000000
# 6 0.000000 0.000000 0.000000 0.000000 0.000000 0.131720
#
#
# Mechanical properties :
#
#
# Convention : Reuss Voigt Hill
#
# Bulk Modulus (GPa) = 50.90191 53.50416 52.20304
# Shear Modulus (GPa) = 17.95795 33.83992 25.89894
#
# Velocity S-wave (km/s) = 2.75979 3.78845 3.31427
# Velocity P-wave (km/s) = 5.63418 6.46753 6.06519
#
# Compressibility (1/GPa) = 0.01964563
#
# Stress axis : x y z
#
# Youngs Moduli (GPa) = 73.66764 115.16867 127.91126
#
# Poissons Ratio (x) = 0.15522 0.51937
# Poissons Ratio (y) = 0.09928 -0.02472
# Poissons Ratio (z) = 0.29912 -0.02226
#
# Static dielectric constant tensor:
#      x y z
#    x 1.886070 0.000000 0.000000 
#    y 0.000000 1.910190 0.000000 
#    z 0.000000 0.000000 2.042120 
# 
# From -- ./inp_files/1648.got.cif
#   From: 2010.05.17/outbox.cif.g08.bks.cpg/sg73_1_cif.got.tgz:1648.got - 2010.06.03 17:35:07.
