data_PCOD9532742
_publ_section_title
;
Structure prediction by ZEFSAII (Michael W. Deem and Ramdas Pophale) SiO2 
 PCOD9532742
Probable space group: I B C A 
;
_chemical_formula_sum "Si O2"
_cell_formula_units_Z 104
_cell_length_a 8.564810
_cell_length_b 23.963951
_cell_length_c 26.294793
_cell_angle_alpha 90.000000
_cell_angle_beta 90.000000
_cell_angle_gamma 90.000000
_cell_volume 5396.919153
_symmetry_space_group_name_H-M "I B C A "
_symmetry_group_IT_number 73
_symmetry_cell_setting 'orthorhombic'
loop_
_space_group_symop_operation_xyz
x,y,z
-x,1/2-y,z
x,-y,1/2-z
1/2-x,y,-z
-x,-y,-z
x,1/2+y,-z
-x,y,1/2+z
1/2+x,-y,z
1/2+x,1/2+y,1/2+z
1/2-x,-y,1/2+z
1/2+x,1/2-y,-z
-x,1/2+y,1/2-z
1/2-x,1/2-y,1/2-z
1/2+x,y,1/2-z
1/2-x,1/2+y,z
x,1/2-y,1/2+z
loop_
_atom_site_type_symbol
_atom_site_label
_atom_site_fract_x
_atom_site_fract_y
_atom_site_fract_z
Si Si1 0.994421 0.082164 0.140111
Si Si2 0.371595 0.899038 0.837789
Si Si3 0.587694 0.802996 0.178395
Si Si4 0.790079 0.556903 0.267244
Si Si5 0.250000 0.004867 0.000000
Si Si6 0.504366 0.972660 0.926252
Si Si7 0.590547 0.830926 0.784391
O O1 0.812245 0.096381 0.150243
O O2 0.075110 0.143278 0.141282
O O3 0.092011 0.052133 0.185489
O O4 0.994911 0.036444 0.095112
O O5 0.384280 0.928247 0.783219
O O6 0.466748 0.931934 0.880364
O O7 0.453786 0.840099 0.825763
O O8 0.500000 0.750000 0.155553
O O9 0.766773 0.792846 0.195785
O O10 0.489440 0.816088 0.230642
O O11 0.706863 0.500000 0.250000
O O12 0.682681 0.610246 0.277665
O O13 0.335477 0.038637 0.044447
O O14 0.125207 0.968358 0.030146
#
# Coordination Sequence:
#
# PCOD9532742 Si02
#       7
#    16  16  16  16   8  16  16
#     4  11  22  36  53  81 112 154 189 227 273 335
#     4  12  21  34  54  83 115 153 182 224 265 352
#     4  11  22  37  54  77 113 155 196 237 274 320
#     4  11  21  32  49  81 119 151 187 214 260 332
#     4  10  24  42  54  82 116 148 188 232 290 346
#     4  11  23  38  59  82 118 149 188 230 285 345
#     4  11  22  34  51  76 115 157 195 220 271 319
#
# _framework density 19.270253
#
# number of rings (size 3 to 8) (size 9 to 14) (size 15 to 20)
#    0.000    0.923    7.692    0.462    6.462    1.231 
#    0.000    0.000    0.000    0.000    0.000    1.077 
#    0.000    0.000    0.000    0.000    0.000    0.000 
#
# Total GULP energy -289858.330404 kJ/mol
# GULP energy per Si atom -5574.198662 kJ/mol
# Density = 1.922639 g / cm^3
# Si number density = 19.270253 Si / 1000 Ang^3
#
#
#
# Elastic Constant Matrix: (Units=GPa)
#
#
# Indices 1 2 3 4 5 6 
#
# 1 72.7767 7.7247 16.5582 0.0000 0.0000 0.0000
# 2 7.7247 57.2390 5.6550 0.0000 0.0000 0.0000
# 3 16.5582 5.6550 67.8575 0.0000 0.0000 0.0000
# 4 0.0000 0.0000 0.0000 10.2516 0.0000 0.0000
# 5 0.0000 0.0000 0.0000 0.0000 35.6356 0.0000
# 6 0.0000 0.0000 0.0000 0.0000 0.0000 21.0757
#
#
#
# Elastic Compliance Matrix: (Units=1/GPa)
#
#
# Indices 1 2 3 4 5 6 
#
# 1 0.014700 -0.001643 -0.003450 0.000000 0.000000 0.000000
# 2 -0.001643 0.017799 -0.001082 0.000000 0.000000 0.000000
# 3 -0.003450 -0.001082 0.015669 0.000000 0.000000 0.000000
# 4 0.000000 0.000000 0.000000 0.097546 0.000000 0.000000
# 5 0.000000 0.000000 0.000000 0.000000 0.028062 0.000000
# 6 0.000000 0.000000 0.000000 0.000000 0.000000 0.047448
#
#
# Mechanical properties :
#
#
# Convention : Reuss Voigt Hill
#
# Bulk Modulus (GPa) = 27.91959 28.63878 28.27919
# Shear Modulus (GPa) = 20.36545 24.58827 22.47686
#
# Velocity S-wave (km/s) = 3.25442 3.57595 3.41897
# Velocity P-wave (km/s) = 5.35178 5.65188 5.50388
#
# Compressibility (1/GPa) = 0.03581714
#
# Stress axis : x y z
#
# Youngs Moduli (GPa) = 68.02715 56.18206 63.82092
#
# Poissons Ratio (x) = 0.09231 0.22019
# Poissons Ratio (y) = 0.11177 0.06908
# Poissons Ratio (z) = 0.23470 0.06081
#
# Static dielectric constant tensor:
#      x y z
#    x 1.791240 0.000000 0.000000 
#    y 0.000000 1.771790 0.000000 
#    z 0.000000 0.000000 1.652960 
# 
# From -- ./inp_files/28503.got.cif
#   From: 2010.05.17/outbox.cif.g08.bks.cpg/sg73_15_cif.got.tgz:28503.got - 2010.06.03 17:35:07.
