data_PCOD9532263
_publ_section_title
;
Structure prediction by ZEFSAII (Michael W. Deem and Ramdas Pophale) SiO2 
 PCOD9532263
Probable space group: I B C A 
;
_chemical_formula_sum "Si O2"
_cell_formula_units_Z 64
_cell_length_a 9.457045
_cell_length_b 10.288812
_cell_length_c 28.843529
_cell_angle_alpha 90.000000
_cell_angle_beta 90.000000
_cell_angle_gamma 90.000000
_cell_volume 2806.526081
_symmetry_space_group_name_H-M "I B C A "
_symmetry_group_IT_number 73
_symmetry_cell_setting 'orthorhombic'
loop_
_space_group_symop_operation_xyz
x,y,z
-x,1/2-y,z
x,-y,1/2-z
1/2-x,y,-z
-x,-y,-z
x,1/2+y,-z
-x,y,1/2+z
1/2+x,-y,z
1/2+x,1/2+y,1/2+z
1/2-x,-y,1/2+z
1/2+x,1/2-y,-z
-x,1/2+y,1/2-z
1/2-x,1/2-y,1/2-z
1/2+x,y,1/2-z
1/2-x,1/2+y,z
x,1/2-y,1/2+z
loop_
_atom_site_type_symbol
_atom_site_label
_atom_site_fract_x
_atom_site_fract_y
_atom_site_fract_z
Si Si1 0.558794 0.105152 0.844781
Si Si2 0.068707 0.000000 0.750000
Si Si3 0.500000 0.750000 0.304644
Si Si4 0.913666 0.126584 0.984930
Si Si5 0.651811 0.884832 0.378595
O O1 0.500000 0.250000 0.840447
O O2 0.681425 0.094568 0.882418
O O3 0.634834 0.058450 0.796791
O O4 0.432208 0.007228 0.857015
O O5 0.992533 0.126114 0.771256
O O6 0.627037 0.766186 0.341930
O O7 0.909401 0.136186 0.929190
O O8 0.000000 0.250000 0.003954
O O9 0.750000 0.123746 0.000000
O O10 0.000000 0.000000 0.000000
#
# Coordination Sequence:
#
# PCOD9532263 Si02
#       5
#    16   8   8  16  16
#     4  11  26  43  70 102 144 190 241 294 349 430
#     4  10  22  44  64 104 138 194 238 290 350 416
#     4  10  22  44  72  96 146 186 238 296 344 428
#     4  12  27  49  77 109 145 189 242 306 371 446
#     4  11  26  46  71 102 141 188 236 296 363 418
#
# _framework density 22.803992000000001
#
# number of rings (size 3 to 8) (size 9 to 14) (size 15 to 20)
#    0.000    1.000    2.500    2.250    7.000   11.000 
#    0.000    0.000    0.000    0.000    0.000    0.000 
#    0.000    0.000    0.000    0.000    0.000    0.000 
#
# Total GULP energy -178567.784969 kJ/mol
# GULP energy per Si atom -5580.243280 kJ/mol
# Density = 2.275209 g / cm^3
# Si number density = 22.803992 Si / 1000 Ang^3
#
#
#
# Elastic Constant Matrix: (Units=GPa)
#
#
# Indices 1 2 3 4 5 6 
#
# 1 139.6943 75.0286 20.4223 0.0000 0.0000 0.0000
# 2 75.0286 158.3938 45.1082 0.0000 0.0000 0.0000
# 3 20.4223 45.1082 105.2713 0.0000 0.0000 0.0000
# 4 0.0000 0.0000 0.0000 18.7998 0.0000 0.0000
# 5 0.0000 0.0000 0.0000 0.0000 -206.6959 0.0000
# 6 0.0000 0.0000 0.0000 0.0000 0.0000 25.0468
#
#
#
# Elastic Compliance Matrix: (Units=1/GPa)
#
#
# Indices 1 2 3 4 5 6 
#
# 1 0.009602 -0.004576 0.000098 0.000000 0.000000 0.000000
# 2 -0.004576 0.009372 -0.003128 0.000000 0.000000 0.000000
# 3 0.000098 -0.003128 0.010821 0.000000 0.000000 0.000000
# 4 0.000000 0.000000 0.000000 0.053192 0.000000 0.000000
# 5 0.000000 0.000000 0.000000 0.000000 -0.004838 0.000000
# 6 0.000000 0.000000 0.000000 0.000000 0.000000 0.039925
#
#
# Mechanical properties :
#
#
# Convention : Reuss Voigt Hill
#
# Bulk Modulus (GPa) = 68.57684 76.05306 72.31495
# Shear Modulus (GPa) = 36.19337 -15.04983 10.57177
#
# Velocity S-wave (km/s) = 3.98823 -2.57177 2.15546
# Velocity P-wave (km/s) = 7.16558 4.96030 6.16239
#
# Compressibility (1/GPa) = 0.01458218
#
# Stress axis : x y z
#
# Youngs Moduli (GPa) = 104.14481 106.70194 92.41659
#
# Poissons Ratio (x) = 0.48830 -0.00907
# Poissons Ratio (y) = 0.47659 0.28908
# Poissons Ratio (z) = -0.01022 0.33377
#
# Static dielectric constant tensor:
#      x y z
#    x 1.844930 0.000000 0.000000 
#    y 0.000000 1.881920 0.000000 
#    z 0.000000 0.000000 1.851360 
# 
# From -- ./inp_files/9072.got.cif
#   From: 2010.05.17/outbox.cif.g08.bks.cpg/sg73_5_cif.got.tgz:9072.got - 2010.06.03 17:35:07.
