data_PCOD9532679
_publ_section_title
;
Structure prediction by ZEFSAII (Michael W. Deem and Ramdas Pophale) SiO2 
 PCOD9532679
Probable space group: I B C A 
;
_chemical_formula_sum "Si O2"
_cell_formula_units_Z 64
_cell_length_a 18.624350
_cell_length_b 12.665590
_cell_length_c 10.153008
_cell_angle_alpha 90.000000
_cell_angle_beta 90.000000
_cell_angle_gamma 90.000000
_cell_volume 2394.976621
_symmetry_space_group_name_H-M "I B C A "
_symmetry_group_IT_number 73
_symmetry_cell_setting 'orthorhombic'
loop_
_space_group_symop_operation_xyz
x,y,z
-x,1/2-y,z
x,-y,1/2-z
1/2-x,y,-z
-x,-y,-z
x,1/2+y,-z
-x,y,1/2+z
1/2+x,-y,z
1/2+x,1/2+y,1/2+z
1/2-x,-y,1/2+z
1/2+x,1/2-y,-z
-x,1/2+y,1/2-z
1/2-x,1/2-y,1/2-z
1/2+x,y,1/2-z
1/2-x,1/2+y,z
x,1/2-y,1/2+z
loop_
_atom_site_type_symbol
_atom_site_label
_atom_site_fract_x
_atom_site_fract_y
_atom_site_fract_z
Si Si1 0.206436 0.686379 0.136831
Si Si2 0.826658 0.454536 0.553885
Si Si3 0.580462 0.737883 0.023447
Si Si4 0.553970 0.540016 0.614145
O O1 0.250000 0.750000 0.250000
O O2 0.187615 0.560230 0.141136
O O3 0.367499 0.741903 0.901363
O O4 0.250000 0.689892 0.000000
O O5 0.750000 0.416155 0.500000
O O6 0.881117 0.360451 0.598470
O O7 0.869792 0.491603 0.424263
O O8 0.500000 0.750000 0.966639
O O9 0.427379 0.662728 0.119819
O O10 0.524191 0.500000 0.750000
O O11 0.500000 0.500000 0.500000
#
# Coordination Sequence:
#
# PCOD9532679 Si02
#       4
#    16  16  16  16
#     4  10  24  49  78 121 172 231 294 370 461 559
#     4  10  23  48  82 120 172 235 299 378 457 559
#     4  11  23  48  81 127 173 235 305 373 470 554
#     4  11  25  52  80 123 176 235 303 384 467 564
#
# _framework density 26.7226
#
# number of rings (size 3 to 8) (size 9 to 14) (size 15 to 20)
#    0.000    1.500    2.500    0.750    0.000    7.000 
#   13.500    8.750    0.000    0.000    0.000    0.000 
#    0.000    0.000    0.000    0.000    0.000    0.000 
#
# Total GULP energy -178611.561052 kJ/mol
# GULP energy per Si atom -5581.611283 kJ/mol
# Density = 2.666178 g / cm^3
# Si number density = 26.722600 Si / 1000 Ang^3
#
#
#
# Elastic Constant Matrix: (Units=GPa)
#
#
# Indices 1 2 3 4 5 6 
#
# 1 243.6146 82.1394 68.7071 0.0000 0.0000 0.0000
# 2 82.1394 247.0469 89.3006 0.0000 0.0000 0.0000
# 3 68.7071 89.3006 183.3604 0.0000 0.0000 0.0000
# 4 0.0000 0.0000 0.0000 42.7842 0.0000 0.0000
# 5 0.0000 0.0000 0.0000 0.0000 3.6772 0.0000
# 6 0.0000 0.0000 0.0000 0.0000 0.0000 58.6335
#
#
#
# Elastic Compliance Matrix: (Units=1/GPa)
#
#
# Indices 1 2 3 4 5 6 
#
# 1 0.004849 -0.001160 -0.001252 0.000000 0.000000 0.000000
# 2 -0.001160 0.005190 -0.002093 0.000000 0.000000 0.000000
# 3 -0.001252 -0.002093 0.006942 0.000000 0.000000 0.000000
# 4 0.000000 0.000000 0.000000 0.023373 0.000000 0.000000
# 5 0.000000 0.000000 0.000000 0.000000 0.271945 0.000000
# 6 0.000000 0.000000 0.000000 0.000000 0.000000 0.017055
#
#
# Mechanical properties :
#
#
# Convention : Reuss Voigt Hill
#
# Bulk Modulus (GPa) = 125.44751 128.25734 126.85243
# Shear Modulus (GPa) = 14.66184 49.94397 32.30290
#
# Velocity S-wave (km/s) = 2.34491 4.32786 3.48059
# Velocity P-wave (km/s) = 7.37412 8.54832 7.98284
#
# Compressibility (1/GPa) = 0.00797146
#
# Stress axis : x y z
#
# Youngs Moduli (GPa) = 206.22872 192.67978 144.04323
#
# Poissons Ratio (x) = 0.22343 0.18038
# Poissons Ratio (y) = 0.23914 0.30150
# Poissons Ratio (z) = 0.25825 0.40330
#
# Static dielectric constant tensor:
#      x y z
#    x 2.136730 0.000000 0.000000 
#    y 0.000000 2.314250 0.000000 
#    z 0.000000 0.000000 2.150470 
# 
# From -- ./inp_files/11495.got.cif
#   From: 2010.05.17/outbox.cif.g08.bks.cpg/sg73_6_cif.got.tgz:11495.got - 2010.06.03 17:35:07.
