data_PCOD9532228
_publ_section_title
;
Structure prediction by ZEFSAII (Michael W. Deem and Ramdas Pophale) SiO2 
 PCOD9532228
Probable space group: I B C A 
;
_chemical_formula_sum "Si O2"
_cell_formula_units_Z 72
_cell_length_a 10.058177
_cell_length_b 29.307870
_cell_length_c 10.395202
_cell_angle_alpha 90.000000
_cell_angle_beta 90.000000
_cell_angle_gamma 90.000000
_cell_volume 3064.336565
_symmetry_space_group_name_H-M "I B C A "
_symmetry_group_IT_number 73
_symmetry_cell_setting 'orthorhombic'
loop_
_space_group_symop_operation_xyz
x,y,z
-x,1/2-y,z
x,-y,1/2-z
1/2-x,y,-z
-x,-y,-z
x,1/2+y,-z
-x,y,1/2+z
1/2+x,-y,z
1/2+x,1/2+y,1/2+z
1/2-x,-y,1/2+z
1/2+x,1/2-y,-z
-x,1/2+y,1/2-z
1/2-x,1/2-y,1/2-z
1/2+x,y,1/2-z
1/2-x,1/2+y,z
x,1/2-y,1/2+z
loop_
_atom_site_type_symbol
_atom_site_label
_atom_site_fract_x
_atom_site_fract_y
_atom_site_fract_z
Si Si1 0.586856 0.000000 0.250000
Si Si2 0.902361 0.579937 0.808355
Si Si3 0.250000 0.021054 0.500000
Si Si4 0.871803 0.231418 0.832207
Si Si5 0.152736 0.639267 0.770888
Si Si6 0.750000 0.297741 0.000000
O O1 0.485817 0.957827 0.271345
O O2 0.680436 0.004516 0.377926
O O3 0.762518 0.600689 0.759695
O O4 0.010800 0.619763 0.813635
O O5 0.862895 0.553371 0.937957
O O6 0.750000 0.250000 0.750000
O O7 0.866558 0.176878 0.842333
O O8 0.000000 0.250000 0.760018
O O9 0.863925 0.262630 0.958288
O O10 0.209539 0.669157 0.886168
#
# Coordination Sequence:
#
# PCOD9532228 Si02
#       6
#     8  16   8  16  16   8
#     4  12  28  56  84 122 166 216 268 338 432 490
#     4  12  27  49  77 114 162 204 269 339 404 486
#     4  12  28  52  86 118 158 220 266 340 416 508
#     4  10  22  43  66 100 146 197 253 321 399 463
#     4  11  25  44  72 112 152 204 272 328 392 485
#     4  10  24  40  72 102 150 204 256 332 396 474
#
# _framework density 23.496113999999999
#
# number of rings (size 3 to 8) (size 9 to 14) (size 15 to 20)
#    0.000    0.889    2.222    4.000    3.111    8.889 
#    0.000    0.000    0.000    0.000    0.000    0.000 
#    0.000    0.000    0.000    0.000    0.000    0.000 
#
# Total GULP energy -200887.269653 kJ/mol
# GULP energy per Si atom -5580.201935 kJ/mol
# Density = 2.344264 g / cm^3
# Si number density = 23.496114 Si / 1000 Ang^3
#
#
#
# Elastic Constant Matrix: (Units=GPa)
#
#
# Indices 1 2 3 4 5 6 
#
# 1 164.5902 32.2162 27.1447 -0.0003 0.0000 -0.0001
# 2 32.2162 110.6395 23.7280 -0.0003 -0.0002 -0.0001
# 3 27.1447 23.7280 84.0539 -0.0021 -0.0013 -0.0008
# 4 -0.0003 -0.0003 -0.0021 26.8867 -0.0004 -0.0005
# 5 0.0000 -0.0002 -0.0013 -0.0004 33.5503 -0.0003
# 6 -0.0001 -0.0001 -0.0008 -0.0005 -0.0003 19.3867
#
#
#
# Elastic Compliance Matrix: (Units=1/GPa)
#
#
# Indices 1 2 3 4 5 6 
#
# 1 0.006666 -0.001575 -0.001708 0.000000 0.000000 0.000000
# 2 -0.001575 0.009993 -0.002312 0.000000 0.000000 0.000000
# 3 -0.001708 -0.002312 0.013102 0.000001 0.000001 0.000001
# 4 0.000000 0.000000 0.000001 0.037193 0.000000 0.000001
# 5 0.000000 0.000000 0.000001 0.000000 0.029806 0.000000
# 6 0.000000 0.000000 0.000001 0.000001 0.000000 0.051582
#
#
# Mechanical properties :
#
#
# Convention : Reuss Voigt Hill
#
# Bulk Modulus (GPa) = 53.85116 58.38461 56.11788
# Shear Modulus (GPa) = 30.17123 34.37773 32.27448
#
# Velocity S-wave (km/s) = 3.58731 3.82923 3.71024
# Velocity P-wave (km/s) = 6.33462 6.66733 6.50310
#
# Compressibility (1/GPa) = 0.01856970
#
# Stress axis : x y z
#
# Youngs Moduli (GPa) = 150.02395 100.07235 76.32689
#
# Poissons Ratio (x) = 0.15757 0.13038
# Poissons Ratio (y) = 0.23622 0.17650
# Poissons Ratio (z) = 0.25626 0.23141
#
# Static dielectric constant tensor:
#      x y z
#    x 2.181050 0.000000 0.000000 
#    y 0.000000 1.928380 0.000000 
#    z 0.000000 0.000000 2.134800 
# 
# From -- ./inp_files/9735.got.cif
#   From: 2010.05.17/outbox.cif.g08.bks.cpg/sg73_5_cif.got.tgz:9735.got - 2010.06.03 17:35:07.
