data_PCOD9532616
_publ_section_title
;
Structure prediction by ZEFSAII (Michael W. Deem and Ramdas Pophale) SiO2 
 PCOD9532616
Probable space group: I B C A 
;
_chemical_formula_sum "Si O2"
_cell_formula_units_Z 96
_cell_length_a 14.029262
_cell_length_b 13.611714
_cell_length_c 21.024601
_cell_angle_alpha 90.000000
_cell_angle_beta 90.000000
_cell_angle_gamma 90.000000
_cell_volume 4014.906205
_symmetry_space_group_name_H-M "I B C A "
_symmetry_group_IT_number 73
_symmetry_cell_setting 'orthorhombic'
loop_
_space_group_symop_operation_xyz
x,y,z
-x,1/2-y,z
x,-y,1/2-z
1/2-x,y,-z
-x,-y,-z
x,1/2+y,-z
-x,y,1/2+z
1/2+x,-y,z
1/2+x,1/2+y,1/2+z
1/2-x,-y,1/2+z
1/2+x,1/2-y,-z
-x,1/2+y,1/2-z
1/2-x,1/2-y,1/2-z
1/2+x,y,1/2-z
1/2-x,1/2+y,z
x,1/2-y,1/2+z
loop_
_atom_site_type_symbol
_atom_site_label
_atom_site_fract_x
_atom_site_fract_y
_atom_site_fract_z
Si Si1 0.668298 0.821325 0.812183
Si Si2 0.213420 0.000000 0.250000
Si Si3 0.000000 0.750000 0.979102
Si Si4 0.250000 0.957974 0.000000
Si Si5 0.080745 0.421325 0.435227
Si Si6 0.268064 0.117254 0.637249
Si Si7 0.052536 0.108574 0.621430
Si Si8 0.500000 0.250000 0.777339
O O1 0.614282 0.871314 0.870465
O O2 0.725403 0.729847 0.841511
O O3 0.591067 0.774161 0.764809
O O4 0.729989 0.905253 0.778109
O O5 0.169872 0.949991 0.185870
O O6 0.929676 0.693625 0.930927
O O7 0.959608 0.835559 0.022008
O O8 0.213017 0.897972 0.062018
O O9 0.333197 0.026501 0.027487
O O10 0.014045 0.512446 0.413953
O O11 0.157722 0.084506 0.647101
O O12 0.988745 0.155865 0.676224
#
# Coordination Sequence:
#
# PCOD9532616 Si02
#       8
#    16   8   8   8  16  16  16   8
#     4  12  24  43  73 100 138 185 236 285 365 421
#     4  12  22  48  68  98 142 182 228 308 352 408
#     4  11  25  40  70 100 139 179 230 286 360 432
#     4  10  24  46  70 106 140 186 236 304 354 414
#     4  11  24  45  69 101 143 183 231 298 353 423
#     4  11  25  45  74 100 137 186 241 294 352 427
#     4  10  23  45  69  95 139 185 227 292 356 410
#     4  11  23  44  68 104 135 185 232 288 358 430
#
# _framework density 23.910893999999999
#
# number of rings (size 3 to 8) (size 9 to 14) (size 15 to 20)
#    0.000    1.000    5.000    1.500    7.000    0.000 
#    6.000    0.833    0.000    0.000    0.000    0.000 
#    0.000    0.000    0.000    0.000    0.000    0.000 
#
# Total GULP energy -268301.095317 kJ/mol
# GULP energy per Si atom -5589.606152 kJ/mol
# Density = 2.385647 g / cm^3
# Si number density = 23.910894 Si / 1000 Ang^3
#
#
#
# Elastic Constant Matrix: (Units=GPa)
#
#
# Indices 1 2 3 4 5 6 
#
# 1 28.2638 35.7600 27.2282 0.0000 0.0000 0.0000
# 2 35.7600 183.1068 82.3842 0.0000 0.0000 0.0000
# 3 27.2282 82.3842 186.2988 0.0000 0.0000 0.0000
# 4 0.0000 0.0000 0.0000 7.3585 0.0000 0.0000
# 5 0.0000 0.0000 0.0000 0.0000 29.3010 0.0000
# 6 0.0000 0.0000 0.0000 0.0000 0.0000 35.0476
#
#
#
# Elastic Compliance Matrix: (Units=1/GPa)
#
#
# Indices 1 2 3 4 5 6 
#
# 1 0.048903 -0.007908 -0.003650 0.000000 0.000000 0.000000
# 2 -0.007908 0.008097 -0.002425 0.000000 0.000000 0.000000
# 3 -0.003650 -0.002425 0.006973 0.000000 0.000000 0.000000
# 4 0.000000 0.000000 0.000000 0.135896 0.000000 0.000000
# 5 0.000000 0.000000 0.000000 0.000000 0.034128 0.000000
# 6 0.000000 0.000000 0.000000 0.000000 0.000000 0.028533
#
#
# Mechanical properties :
#
#
# Convention : Reuss Voigt Hill
#
# Bulk Modulus (GPa) = 27.77243 76.49047 52.13145
# Shear Modulus (GPa) = 16.52898 31.16124 23.84511
#
# Velocity S-wave (km/s) = 2.63206 3.61394 3.16135
# Velocity P-wave (km/s) = 4.56916 7.03372 5.93087
#
# Compressibility (1/GPa) = 0.03600693
#
# Stress axis : x y z
#
# Youngs Moduli (GPa) = 20.44864 123.50793 143.40162
#
# Poissons Ratio (x) = 0.97673 0.52344
# Poissons Ratio (y) = 0.16171 0.34770
# Poissons Ratio (z) = 0.07464 0.29946
#
# Static dielectric constant tensor:
#      x y z
#    x 1.944680 0.000000 0.000000 
#    y 0.000000 1.907520 0.000000 
#    z 0.000000 0.000000 1.972150 
# 
# From -- ./inp_files/26940.got.cif
#   From: 2010.05.17/outbox.cif.g08.bks.cpg/sg73_14_cif.got.tgz:26940.got - 2010.06.03 17:35:07.
