data_PCOD9532358
_publ_section_title
;
Structure prediction by ZEFSAII (Michael W. Deem and Ramdas Pophale) SiO2 
 PCOD9532358
Probable space group: I B C A 
;
_chemical_formula_sum "Si O2"
_cell_formula_units_Z 64
_cell_length_a 14.235274
_cell_length_b 14.682035
_cell_length_c 13.046547
_cell_angle_alpha 90.000000
_cell_angle_beta 90.000000
_cell_angle_gamma 90.000000
_cell_volume 2726.764737
_symmetry_space_group_name_H-M "I B C A "
_symmetry_group_IT_number 73
_symmetry_cell_setting 'orthorhombic'
loop_
_space_group_symop_operation_xyz
x,y,z
-x,1/2-y,z
x,-y,1/2-z
1/2-x,y,-z
-x,-y,-z
x,1/2+y,-z
-x,y,1/2+z
1/2+x,-y,z
1/2+x,1/2+y,1/2+z
1/2-x,-y,1/2+z
1/2+x,1/2-y,-z
-x,1/2+y,1/2-z
1/2-x,1/2-y,1/2-z
1/2+x,y,1/2-z
1/2-x,1/2+y,z
x,1/2-y,1/2+z
loop_
_atom_site_type_symbol
_atom_site_label
_atom_site_fract_x
_atom_site_fract_y
_atom_site_fract_z
Si Si1 0.913481 0.500000 0.250000
Si Si2 0.433550 0.386202 0.706382
Si Si3 0.154205 0.255445 0.461412
Si Si4 0.765174 0.645113 0.213239
Si Si5 0.500000 0.750000 0.131658
O O1 0.839782 0.581468 0.270963
O O2 0.993345 0.463712 0.330341
O O3 0.403964 0.320282 0.614276
O O4 0.335575 0.401588 0.767288
O O5 0.495137 0.333029 0.790007
O O6 0.250000 0.301945 0.500000
O O7 0.189961 0.166009 0.398893
O O8 0.089589 0.239678 0.559007
O O9 0.750000 0.750000 0.250000
#
# Coordination Sequence:
#
# PCOD9532358 Si02
#       5
#     8  16  16  16   8
#     4  12  24  42  74 102 150 190 244 310 374 450
#     4  11  24  42  68 107 137 194 247 302 380 430
#     4  11  23  44  76 105 143 196 258 301 366 454
#     4  10  22  45  73 101 143 199 241 299 373 448
#     4  12  22  42  76 102 138 188 252 310 354 450
#
# _framework density 23.471039000000001
#
# number of rings (size 3 to 8) (size 9 to 14) (size 15 to 20)
#    0.000    1.000    2.500    6.000    3.500    0.000 
#    0.000    5.000    5.500    0.000    0.000    0.000 
#    0.000    0.000    0.000    0.000    0.000    0.000 
#
# Total GULP energy -178196.088042 kJ/mol
# GULP energy per Si atom -5568.627751 kJ/mol
# Density = 2.341762 g / cm^3
# Si number density = 23.471039 Si / 1000 Ang^3
#
#
#
# Elastic Constant Matrix: (Units=GPa)
#
#
# Indices 1 2 3 4 5 6 
#
# 1 190.4505 67.6896 14.2820 0.0000 0.0000 0.0000
# 2 67.6896 113.1655 23.7274 0.0000 0.0000 0.0000
# 3 14.2820 23.7274 88.5188 0.0000 0.0000 0.0000
# 4 0.0000 0.0000 0.0000 11.4578 0.0000 0.0000
# 5 0.0000 0.0000 0.0000 0.0000 19.3252 0.0000
# 6 0.0000 0.0000 0.0000 0.0000 0.0000 49.0104
#
#
#
# Elastic Compliance Matrix: (Units=1/GPa)
#
#
# Indices 1 2 3 4 5 6 
#
# 1 0.006668 -0.003987 -0.000007 0.000000 0.000000 0.000000
# 2 -0.003987 0.011747 -0.002505 0.000000 0.000000 0.000000
# 3 -0.000007 -0.002505 0.011970 0.000000 0.000000 0.000000
# 4 0.000000 0.000000 0.000000 0.087277 0.000000 0.000000
# 5 0.000000 0.000000 0.000000 0.000000 0.051746 0.000000
# 6 0.000000 0.000000 0.000000 0.000000 0.000000 0.020404
#
#
# Mechanical properties :
#
#
# Convention : Reuss Voigt Hill
#
# Bulk Modulus (GPa) = 57.51921 67.05921 62.28921
# Shear Modulus (GPa) = 23.96864 35.05440 29.51152
#
# Velocity S-wave (km/s) = 3.19909 3.86880 3.54977
# Velocity P-wave (km/s) = 6.18104 6.97064 6.58768
#
# Compressibility (1/GPa) = 0.01738549
#
# Stress axis : x y z
#
# Youngs Moduli (GPa) = 149.96202 85.12924 83.54378
#
# Poissons Ratio (x) = 0.33942 0.00060
# Poissons Ratio (y) = 0.59792 0.20931
# Poissons Ratio (z) = 0.00107 0.21329
#
# Static dielectric constant tensor:
#      x y z
#    x 1.940550 0.000000 0.000000 
#    y 0.000000 2.130360 0.000000 
#    z 0.000000 0.000000 1.919590 
# 
# From -- ./inp_files/16626.got.cif
#   From: 2010.05.17/outbox.cif.g08.bks.cpg/sg73_9_cif.got.tgz:16626.got - 2010.06.03 17:35:07.
