data_PCOD9532207
_publ_section_title
;
Structure prediction by ZEFSAII (Michael W. Deem and Ramdas Pophale) SiO2 
 PCOD9532207
Probable space group: I B C A 
;
_chemical_formula_sum "Si O2"
_cell_formula_units_Z 88
_cell_length_a 14.552838
_cell_length_b 21.111097
_cell_length_c 11.547506
_cell_angle_alpha 90.000000
_cell_angle_beta 90.000000
_cell_angle_gamma 90.000000
_cell_volume 3547.698405
_symmetry_space_group_name_H-M "I B C A "
_symmetry_group_IT_number 73
_symmetry_cell_setting 'orthorhombic'
loop_
_space_group_symop_operation_xyz
x,y,z
-x,1/2-y,z
x,-y,1/2-z
1/2-x,y,-z
-x,-y,-z
x,1/2+y,-z
-x,y,1/2+z
1/2+x,-y,z
1/2+x,1/2+y,1/2+z
1/2-x,-y,1/2+z
1/2+x,1/2-y,-z
-x,1/2+y,1/2-z
1/2-x,1/2-y,1/2-z
1/2+x,y,1/2-z
1/2-x,1/2+y,z
x,1/2-y,1/2+z
loop_
_atom_site_type_symbol
_atom_site_label
_atom_site_fract_x
_atom_site_fract_y
_atom_site_fract_z
Si Si1 0.310487 0.334329 0.116289
Si Si2 0.500000 0.250000 0.372061
Si Si3 0.605832 0.516081 0.125517
Si Si4 0.398009 0.032304 0.630842
Si Si5 0.373235 0.853070 0.234376
Si Si6 0.354832 0.804794 0.459595
O O1 0.378242 0.392723 0.135488
O O2 0.233494 0.336351 0.214935
O O3 0.353580 0.265373 0.100308
O O4 0.250000 0.345206 0.000000
O O5 0.434767 0.205575 0.299789
O O6 0.567912 0.204671 0.444571
O O7 0.654253 0.500000 0.250000
O O8 0.505984 0.483855 0.127447
O O9 0.597204 0.591116 0.149351
O O10 0.641762 0.508619 0.993880
O O11 0.363435 0.000000 0.750000
O O12 0.381922 0.860382 0.371588
O O13 0.250000 0.814293 0.500000
#
# Coordination Sequence:
#
# PCOD9532207 Si02
#       6
#    16   8  16  16  16  16
#     4  11  21  46  72  98 151 195 239 315 388 452
#     4  12  24  42  76 108 148 194 246 316 394 460
#     4  10  23  44  66 101 144 180 246 313 367 446
#     4  10  22  42  72  97 132 199 244 300 378 440
#     4  12  25  45  74 103 150 195 242 321 392 454
#     4  11  25  47  72 114 151 197 257 307 388 487
#
# _framework density 24.804815999999999
#
# number of rings (size 3 to 8) (size 9 to 14) (size 15 to 20)
#    0.000    1.091    5.455    1.091    0.000   10.909 
#    3.273    0.000    0.000    0.000    0.000    0.000 
#    0.000    0.000    0.000    0.000    0.000    0.000 
#
# Total GULP energy -245933.065418 kJ/mol
# GULP energy per Si atom -5589.387850 kJ/mol
# Density = 2.474836 g / cm^3
# Si number density = 24.804816 Si / 1000 Ang^3
#
#
#
# Elastic Constant Matrix: (Units=GPa)
#
#
# Indices 1 2 3 4 5 6 
#
# 1 106.1912 12.4932 39.2922 0.0000 0.0000 0.0000
# 2 12.4932 55.2354 38.3194 0.0000 0.0000 0.0000
# 3 39.2922 38.3194 187.9526 -0.0001 -0.0001 0.0000
# 4 0.0000 0.0000 -0.0001 38.4116 0.0000 0.0000
# 5 0.0000 0.0000 -0.0001 0.0000 69.6416 0.0000
# 6 0.0000 0.0000 0.0000 0.0000 0.0000 55.7834
#
#
#
# Elastic Compliance Matrix: (Units=1/GPa)
#
#
# Indices 1 2 3 4 5 6 
#
# 1 0.010251 -0.000969 -0.001945 0.000000 0.000000 0.000000
# 2 -0.000969 0.021178 -0.004115 0.000000 0.000000 0.000000
# 3 -0.001945 -0.004115 0.006566 0.000000 0.000000 0.000000
# 4 0.000000 0.000000 0.000000 0.026034 0.000000 0.000000
# 5 0.000000 0.000000 0.000000 0.000000 0.014359 0.000000
# 6 0.000000 0.000000 0.000000 0.000000 0.000000 0.017926
#
#
# Mechanical properties :
#
#
# Convention : Reuss Voigt Hill
#
# Bulk Modulus (GPa) = 41.77765 58.84320 50.31042
# Shear Modulus (GPa) = 42.24654 50.05227 46.14941
#
# Velocity S-wave (km/s) = 4.13141 4.49692 4.31803
# Velocity P-wave (km/s) = 6.29581 7.12299 6.72213
#
# Compressibility (1/GPa) = 0.02393625
#
# Stress axis : x y z
#
# Youngs Moduli (GPa) = 97.55336 47.21787 152.29502
#
# Poissons Ratio (x) = 0.04575 0.29628
# Poissons Ratio (y) = 0.09452 0.62673
# Poissons Ratio (z) = 0.18978 0.19431
#
# Static dielectric constant tensor:
#      x y z
#    x 1.905050 0.000000 0.000000 
#    y 0.000000 1.839510 0.000000 
#    z 0.000000 0.000000 2.114800 
# 
# From -- ./inp_files/10931.got.cif
#   From: 2010.05.17/outbox.cif.g08.bks.cpg/sg73_6_cif.got.tgz:10931.got - 2010.06.03 17:35:07.
