data_PCOD9532905
_publ_section_title
;
Structure prediction by ZEFSAII (Michael W. Deem and Ramdas Pophale) SiO2 
 PCOD9532905
Probable space group: I B C A 
;
_chemical_formula_sum "Si O2"
_cell_formula_units_Z 72
_cell_length_a 8.493765
_cell_length_b 24.226175
_cell_length_c 13.333025
_cell_angle_alpha 90.000000
_cell_angle_beta 90.000000
_cell_angle_gamma 90.000000
_cell_volume 2743.555718
_symmetry_space_group_name_H-M "I B C A "
_symmetry_group_IT_number 73
_symmetry_cell_setting 'orthorhombic'
loop_
_space_group_symop_operation_xyz
x,y,z
-x,1/2-y,z
x,-y,1/2-z
1/2-x,y,-z
-x,-y,-z
x,1/2+y,-z
-x,y,1/2+z
1/2+x,-y,z
1/2+x,1/2+y,1/2+z
1/2-x,-y,1/2+z
1/2+x,1/2-y,-z
-x,1/2+y,1/2-z
1/2-x,1/2-y,1/2-z
1/2+x,y,1/2-z
1/2-x,1/2+y,z
x,1/2-y,1/2+z
loop_
_atom_site_type_symbol
_atom_site_label
_atom_site_fract_x
_atom_site_fract_y
_atom_site_fract_z
Si Si1 0.845281 0.622710 0.814411
Si Si2 0.302310 0.841130 0.619352
Si Si3 0.448643 0.500000 0.250000
Si Si4 0.702966 0.995133 0.887284
Si Si5 0.678777 0.273443 0.610102
O O1 0.825537 0.631434 0.694490
O O2 0.812876 0.560584 0.858184
O O3 0.710211 0.665685 0.848442
O O4 0.016635 0.640831 0.858163
O O5 0.250000 0.847724 0.500000
O O6 0.287860 0.776464 0.649806
O O7 0.545418 0.472124 0.161849
O O8 0.334892 0.466209 0.320276
O O9 0.750000 0.987995 0.000000
O O10 0.500000 0.250000 0.611752
O O11 0.750000 0.279050 0.500000
#
# Coordination Sequence:
#
# PCOD9532905 Si02
#       5
#    16  16   8  16  16
#     4  12  24  42  67  98 130 173 226 273 323 387
#     4  11  25  43  64  95 137 181 221 269 321 380
#     4  10  24  46  68 100 132 166 212 264 340 406
#     4  11  24  44  72  99 131 169 213 271 330 395
#     4  11  22  39  63  93 134 182 225 271 324 381
#
# _framework density 26.243316
#
# number of rings (size 3 to 8) (size 9 to 14) (size 15 to 20)
#    0.000    0.889    0.000    8.000    0.000    3.556 
#    0.000    5.556    0.000    1.333    0.000    0.000 
#    0.000    0.000    0.000    0.000    0.000    0.000 
#
# Total GULP energy -200650.283316 kJ/mol
# GULP energy per Si atom -5573.618981 kJ/mol
# Density = 2.618358 g / cm^3
# Si number density = 26.243316 Si / 1000 Ang^3
#
#
#
# Elastic Constant Matrix: (Units=GPa)
#
#
# Indices 1 2 3 4 5 6 
#
# 1 182.6386 23.3574 61.5054 0.0000 0.0000 0.0000
# 2 23.3574 158.1723 7.6522 0.0000 0.0000 0.0000
# 3 61.5054 7.6522 197.8061 0.0002 0.0001 -0.0001
# 4 0.0000 0.0000 0.0002 8.0452 0.0000 0.0000
# 5 0.0000 0.0000 0.0001 0.0000 44.4932 0.0000
# 6 0.0000 0.0000 -0.0001 0.0000 0.0000 48.0821
#
#
#
# Elastic Compliance Matrix: (Units=1/GPa)
#
#
# Indices 1 2 3 4 5 6 
#
# 1 0.006222 -0.000827 -0.001903 0.000000 0.000000 0.000000
# 2 -0.000827 0.006444 0.000008 0.000000 0.000000 0.000000
# 3 -0.001903 0.000008 0.005647 0.000000 0.000000 0.000000
# 4 0.000000 0.000000 0.000000 0.124297 0.000000 0.000000
# 5 0.000000 0.000000 0.000000 0.000000 0.022475 0.000000
# 6 0.000000 0.000000 0.000000 0.000000 0.000000 0.020798
#
#
# Mechanical properties :
#
#
# Convention : Reuss Voigt Hill
#
# Bulk Modulus (GPa) = 77.70414 80.40522 79.05468
# Shear Modulus (GPa) = 25.56031 49.86423 37.71227
#
# Velocity S-wave (km/s) = 3.12424 4.36371 3.79492
# Velocity P-wave (km/s) = 6.53360 7.48961 7.02788
#
# Compressibility (1/GPa) = 0.01286933
#
# Stress axis : x y z
#
# Youngs Moduli (GPa) = 160.72668 155.18485 177.09319
#
# Poissons Ratio (x) = 0.12829 0.33694
# Poissons Ratio (y) = 0.13288 -0.00138
# Poissons Ratio (z) = 0.30580 -0.00121
#
# Static dielectric constant tensor:
#      x y z
#    x 2.199110 0.000000 0.000000 
#    y 0.000000 2.164070 0.000000 
#    z 0.000000 0.000000 2.594430 
# 
# From -- ./inp_files/15516.got.cif
#   From: 2010.05.17/outbox.cif.g08.bks.cpg/sg73_8_cif.got.tgz:15516.got - 2010.06.03 17:35:07.
