data_PCOD9532929
_publ_section_title
;
Structure prediction by ZEFSAII (Michael W. Deem and Ramdas Pophale) SiO2 
 PCOD9532929
Probable space group: I B C A 
;
_chemical_formula_sum "Si O2"
_cell_formula_units_Z 104
_cell_length_a 8.531362
_cell_length_b 27.280344
_cell_length_c 17.646535
_cell_angle_alpha 90.000000
_cell_angle_beta 90.000000
_cell_angle_gamma 90.000000
_cell_volume 4107.027912
_symmetry_space_group_name_H-M "I B C A "
_symmetry_group_IT_number 73
_symmetry_cell_setting 'orthorhombic'
loop_
_space_group_symop_operation_xyz
x,y,z
-x,1/2-y,z
x,-y,1/2-z
1/2-x,y,-z
-x,-y,-z
x,1/2+y,-z
-x,y,1/2+z
1/2+x,-y,z
1/2+x,1/2+y,1/2+z
1/2-x,-y,1/2+z
1/2+x,1/2-y,-z
-x,1/2+y,1/2-z
1/2-x,1/2-y,1/2-z
1/2+x,y,1/2-z
1/2-x,1/2+y,z
x,1/2-y,1/2+z
loop_
_atom_site_type_symbol
_atom_site_label
_atom_site_fract_x
_atom_site_fract_y
_atom_site_fract_z
Si Si1 0.626892 0.474331 0.053178
Si Si2 0.847958 0.772907 0.141838
Si Si3 0.250000 0.292265 0.000000
Si Si4 0.441727 0.000000 0.750000
Si Si5 0.500000 0.250000 0.291185
Si Si6 0.202655 0.052870 0.658421
Si Si7 0.291364 0.875034 0.414291
Si Si8 0.443978 0.151706 0.375058
O O1 0.732091 0.517472 0.088014
O O2 0.603745 0.424618 0.102233
O O3 0.750000 0.446398 0.000000
O O4 0.500000 0.500000 0.000000
O O5 0.830597 0.740826 0.065394
O O6 0.682191 0.768329 0.181628
O O7 0.880848 0.828924 0.122990
O O8 0.000000 0.750000 0.191071
O O9 0.382612 0.322801 0.953541
O O10 0.331778 0.957409 0.780022
O O11 0.546958 0.975730 0.686244
O O12 0.440438 0.191505 0.309214
O O13 0.176391 0.108067 0.639695
O O14 0.250000 0.856910 0.500000
O O15 0.114194 0.874649 0.380564
#
# Coordination Sequence:
#
# PCOD9532929 Si02
#       8
#    16  16   8   8   8  16  16  16
#     4  11  24  44  72 110 148 184 245 311 373 446
#     4  10  24  46  72 107 147 199 242 313 372 454
#     4  12  26  44  76 106 156 190 270 306 384 452
#     4  10  24  46  72 100 148 198 248 298 372 466
#     4  10  28  46  68 112 156 196 260 306 382 456
#     4  11  24  46  71 104 144 195 244 304 371 446
#     4  11  22  43  76 101 147 192 244 300 395 437
#     4  12  27  46  73 108 147 204 251 322 374 462
#
# _framework density 25.322447
#
# number of rings (size 3 to 8) (size 9 to 14) (size 15 to 20)
#    0.462    0.615    0.769    5.538    2.154    7.385 
#    8.308    0.000    0.000    0.000    0.000    0.000 
#    0.000    0.000    0.000    0.000    0.000    0.000 
#
# Total GULP energy -289709.463478 kJ/mol
# GULP energy per Si atom -5571.335836 kJ/mol
# Density = 2.526481 g / cm^3
# Si number density = 25.322447 Si / 1000 Ang^3
#
#
#
# Elastic Constant Matrix: (Units=GPa)
#
#
# Indices 1 2 3 4 5 6 
#
# 1 99.8017 51.8139 23.1347 0.0000 0.0000 0.0000
# 2 51.8139 185.4891 53.0420 0.0000 0.0000 0.0000
# 3 23.1347 53.0420 93.6622 -0.0002 0.0000 0.0000
# 4 0.0000 0.0000 -0.0002 12.3189 0.0000 0.0000
# 5 0.0000 0.0000 0.0000 0.0000 53.5126 0.0000
# 6 0.0000 0.0000 0.0000 0.0000 0.0000 39.2796
#
#
#
# Elastic Compliance Matrix: (Units=1/GPa)
#
#
# Indices 1 2 3 4 5 6 
#
# 1 0.011842 -0.002949 -0.001255 0.000000 0.000000 0.000000
# 2 -0.002949 0.007167 -0.003331 0.000000 0.000000 0.000000
# 3 -0.001255 -0.003331 0.012873 0.000000 0.000000 0.000000
# 4 0.000000 0.000000 0.000000 0.081176 0.000000 0.000000
# 5 0.000000 0.000000 0.000000 0.000000 0.018687 0.000000
# 6 0.000000 0.000000 0.000000 0.000000 0.000000 0.025459
#
#
# Mechanical properties :
#
#
# Convention : Reuss Voigt Hill
#
# Bulk Modulus (GPa) = 59.47771 70.54823 65.01297
# Shear Modulus (GPa) = 28.10934 37.75304 32.93119
#
# Velocity S-wave (km/s) = 3.33536 3.86540 3.61012
# Velocity P-wave (km/s) = 6.19451 6.91680 6.56560
#
# Compressibility (1/GPa) = 0.01681302
#
# Stress axis : x y z
#
# Youngs Moduli (GPa) = 84.44673 139.52243 77.68357
#
# Poissons Ratio (x) = 0.41145 0.09748
# Poissons Ratio (y) = 0.24903 0.25873
# Poissons Ratio (z) = 0.10597 0.46468
#
# Static dielectric constant tensor:
#      x y z
#    x 2.029060 0.000000 0.000000 
#    y 0.000000 1.960570 0.000000 
#    z 0.000000 0.000000 1.753640 
# 
# From -- ./inp_files/28517.got.cif
#   From: 2010.05.17/outbox.cif.g08.bks.cpg/sg73_15_cif.got.tgz:28517.got - 2010.06.03 17:35:07.
