data_PCOD9532949
_publ_section_title
;
Structure prediction by ZEFSAII (Michael W. Deem and Ramdas Pophale) SiO2 
 PCOD9532949
Probable space group: I B C A 
;
_chemical_formula_sum "Si O2"
_cell_formula_units_Z 56
_cell_length_a 13.641865
_cell_length_b 8.031828
_cell_length_c 23.431664
_cell_angle_alpha 90.000000
_cell_angle_beta 90.000000
_cell_angle_gamma 90.000000
_cell_volume 2567.386647
_symmetry_space_group_name_H-M "I B C A "
_symmetry_group_IT_number 73
_symmetry_cell_setting 'orthorhombic'
loop_
_space_group_symop_operation_xyz
x,y,z
-x,1/2-y,z
x,-y,1/2-z
1/2-x,y,-z
-x,-y,-z
x,1/2+y,-z
-x,y,1/2+z
1/2+x,-y,z
1/2+x,1/2+y,1/2+z
1/2-x,-y,1/2+z
1/2+x,1/2-y,-z
-x,1/2+y,1/2-z
1/2-x,1/2-y,1/2-z
1/2+x,y,1/2-z
1/2-x,1/2+y,z
x,1/2-y,1/2+z
loop_
_atom_site_type_symbol
_atom_site_label
_atom_site_fract_x
_atom_site_fract_y
_atom_site_fract_z
Si Si1 0.500987 0.452461 0.065885
Si Si2 0.137847 0.857184 0.662928
Si Si3 0.000000 0.250000 0.240208
Si Si4 0.861834 0.543100 0.344699
O O1 0.500000 0.250000 0.065522
O O2 0.409723 0.032290 0.111931
O O3 0.413407 0.562822 0.093705
O O4 0.500000 0.500000 0.000000
O O5 0.068182 0.860698 0.717931
O O6 0.136259 0.657407 0.655648
O O7 0.250556 0.906430 0.666764
O O8 0.927578 0.358798 0.200946
#
# Coordination Sequence:
#
# PCOD9532949 Si02
#       4
#    16  16   8  16
#     4  10  24  47  69  99 138 180 237 293 350 418
#     4  11  25  45  69 103 144 180 241 289 356 425
#     4  12  24  44  70 104 150 188 234 290 360 428
#     4  11  26  43  71 105 138 191 232 295 354 426
#
# _framework density 21.812062999999998
#
# number of rings (size 3 to 8) (size 9 to 14) (size 15 to 20)
#    0.000    1.143    4.286    1.714    6.000    1.143 
#    0.000    5.714    0.000    0.000    0.000    0.000 
#    0.000    0.000    0.000    0.000    0.000    0.000 
#
# Total GULP energy -155953.856319 kJ/mol
# GULP energy per Si atom -5569.780583 kJ/mol
# Density = 2.176242 g / cm^3
# Si number density = 21.812063 Si / 1000 Ang^3
#
#
#
# Elastic Constant Matrix: (Units=GPa)
#
#
# Indices 1 2 3 4 5 6 
#
# 1 175.2328 63.4542 125.1893 0.0000 0.0000 0.0000
# 2 63.4542 51.2979 47.5396 0.0000 0.0000 0.0000
# 3 125.1893 47.5396 203.1156 0.0000 0.0000 0.0000
# 4 0.0000 0.0000 0.0000 41.3018 0.0000 0.0000
# 5 0.0000 0.0000 0.0000 0.0000 7.2289 0.0000
# 6 0.0000 0.0000 0.0000 0.0000 0.0000 48.0376
#
#
#
# Elastic Compliance Matrix: (Units=1/GPa)
#
#
# Indices 1 2 3 4 5 6 
#
# 1 0.014485 -0.012315 -0.006045 0.000000 0.000000 0.000000
# 2 -0.012315 0.035364 -0.000687 0.000000 0.000000 0.000000
# 3 -0.006045 -0.000687 0.008810 0.000000 0.000000 0.000000
# 4 0.000000 0.000000 0.000000 0.024212 0.000000 0.000000
# 5 0.000000 0.000000 0.000000 0.000000 0.138334 0.000000
# 6 0.000000 0.000000 0.000000 0.000000 0.000000 0.020817
#
#
# Mechanical properties :
#
#
# Convention : Reuss Voigt Hill
#
# Bulk Modulus (GPa) = 48.62724 100.22358 74.42541
# Shear Modulus (GPa) = 17.42332 32.21122 24.81727
#
# Velocity S-wave (km/s) = 2.82936 3.84703 3.37675
# Velocity P-wave (km/s) = 5.74594 8.11057 7.02841
#
# Compressibility (1/GPa) = 0.02056461
#
# Stress axis : x y z
#
# Youngs Moduli (GPa) = 69.03593 28.27749 113.50626
#
# Poissons Ratio (x) = 0.34824 0.68620
# Poissons Ratio (y) = 0.85020 0.07792
# Poissons Ratio (z) = 0.41736 0.01941
#
# Static dielectric constant tensor:
#      x y z
#    x 1.864780 0.000000 0.000000 
#    y 0.000000 1.920170 0.000000 
#    z 0.000000 0.000000 1.859300 
# 
# From -- ./inp_files/29713.got.cif
#   From: 2010.05.17/outbox.cif.g08.bks.cpg/sg73_15_cif.got.tgz:29713.got - 2010.06.03 17:35:07.
