data_PCOD9532289
_publ_section_title
;
Structure prediction by ZEFSAII (Michael W. Deem and Ramdas Pophale) SiO2 
 PCOD9532289
Probable space group: I B C A 
;
_chemical_formula_sum "Si O2"
_cell_formula_units_Z 112
_cell_length_a 14.352242
_cell_length_b 12.845120
_cell_length_c 28.424151
_cell_angle_alpha 90.000000
_cell_angle_beta 90.000000
_cell_angle_gamma 90.000000
_cell_volume 5240.170478
_symmetry_space_group_name_H-M "I B C A "
_symmetry_group_IT_number 73
_symmetry_cell_setting 'orthorhombic'
loop_
_space_group_symop_operation_xyz
x,y,z
-x,1/2-y,z
x,-y,1/2-z
1/2-x,y,-z
-x,-y,-z
x,1/2+y,-z
-x,y,1/2+z
1/2+x,-y,z
1/2+x,1/2+y,1/2+z
1/2-x,-y,1/2+z
1/2+x,1/2-y,-z
-x,1/2+y,1/2-z
1/2-x,1/2-y,1/2-z
1/2+x,y,1/2-z
1/2-x,1/2+y,z
x,1/2-y,1/2+z
loop_
_atom_site_type_symbol
_atom_site_label
_atom_site_fract_x
_atom_site_fract_y
_atom_site_fract_z
Si Si1 0.159351 0.844964 0.658400
Si Si2 0.132245 0.411798 0.143646
Si Si3 0.668136 0.769389 0.212724
Si Si4 0.620821 0.529242 0.983215
Si Si5 0.004474 0.126312 0.064718
Si Si6 0.250000 0.639897 0.000000
Si Si7 0.778906 0.203809 0.922573
Si Si8 0.500000 0.250000 0.727602
O O1 0.268520 0.831747 0.675049
O O2 0.155189 0.770610 0.612294
O O3 0.075968 0.809438 0.694281
O O4 0.146468 0.966711 0.650473
O O5 0.138528 0.340697 0.189844
O O6 0.037348 0.394579 0.115695
O O7 0.209695 0.362959 0.109103
O O8 0.750000 0.750000 0.250000
O O9 0.574133 0.810968 0.238073
O O10 0.590360 0.452355 0.941075
O O11 0.672473 0.443022 0.015453
O O12 0.672693 0.623411 0.957826
O O13 0.552201 0.584201 0.019436
O O14 0.000000 0.250000 0.059385
O O15 0.272801 0.713986 0.043574
#
# Coordination Sequence:
#
# PCOD9532289 Si02
#       8
#    16  16  16  16  16   8  16   8
#     4  10  23  42  68  98 134 170 224 284 336 422
#     4  11  23  41  66  95 129 173 218 283 343 407
#     4   9  22  45  67  95 130 165 219 283 344 413
#     4  11  23  38  62  93 130 183 229 267 335 402
#     4  11  24  39  58  94 138 175 222 282 330 396
#     4  12  22  42  66  90 130 188 232 268 334 398
#     4  11  22  39  64  94 131 175 224 277 329 394
#     4  10  22  44  68  94 128 174 210 280 358 408
#
# _framework density 21.373351
#
# number of rings (size 3 to 8) (size 9 to 14) (size 15 to 20)
#    0.000    1.429    0.000    5.571    3.000    4.571 
#    0.000    4.286    0.000    0.000    0.000    0.000 
#    0.000    0.000    0.000    0.000    0.000    0.000 
#
# Total GULP energy -311739.065046 kJ/mol
# GULP energy per Si atom -5566.769019 kJ/mol
# Density = 2.132470 g / cm^3
# Si number density = 21.373351 Si / 1000 Ang^3
#
#
#
# Elastic Constant Matrix: (Units=GPa)
#
#
# Indices 1 2 3 4 5 6 
#
# 1 70.7481 40.6563 22.4977 0.0000 0.0000 0.0000
# 2 40.6563 180.2245 46.4194 0.0000 0.0000 0.0000
# 3 22.4977 46.4194 76.8299 0.0000 0.0000 0.0000
# 4 0.0000 0.0000 0.0000 5.5958 0.0000 0.0000
# 5 0.0000 0.0000 0.0000 0.0000 39.6051 0.0000
# 6 0.0000 0.0000 0.0000 0.0000 0.0000 21.5869
#
#
#
# Elastic Compliance Matrix: (Units=1/GPa)
#
#
# Indices 1 2 3 4 5 6 
#
# 1 0.016850 -0.002997 -0.003124 0.000000 0.000000 0.000000
# 2 -0.002997 0.007104 -0.003415 0.000000 0.000000 0.000000
# 3 -0.003124 -0.003415 0.015994 0.000000 0.000000 0.000000
# 4 0.000000 0.000000 0.000000 0.178704 0.000000 0.000000
# 5 0.000000 0.000000 0.000000 0.000000 0.025249 0.000000
# 6 0.000000 0.000000 0.000000 0.000000 0.000000 0.046324
#
#
# Mechanical properties :
#
#
# Convention : Reuss Voigt Hill
#
# Bulk Modulus (GPa) = 47.89768 60.77214 54.33491
# Shear Modulus (GPa) = 15.81004 27.90617 21.85810
#
# Velocity S-wave (km/s) = 2.72271 3.61730 3.20141
# Velocity P-wave (km/s) = 5.68708 6.77804 6.25638
#
# Compressibility (1/GPa) = 0.02087784
#
# Stress axis : x y z
#
# Youngs Moduli (GPa) = 59.34721 140.76277 62.52514
#
# Poissons Ratio (x) = 0.42181 0.19530
# Poissons Ratio (y) = 0.17784 0.21351
# Poissons Ratio (z) = 0.18538 0.48067
#
# Static dielectric constant tensor:
#      x y z
#    x 2.018810 0.000000 0.000000 
#    y 0.000000 1.755340 0.000000 
#    z 0.000000 0.000000 1.828750 
# 
# From -- ./inp_files/34356.got.cif
#   From: 2010.05.17/outbox.cif.g08.bks.cpg/sg73_18_cif.got.tgz:34356.got - 2010.06.03 17:35:07.
