data_PCOD9532173
_publ_section_title
;
Structure prediction by ZEFSAII (Michael W. Deem and Ramdas Pophale) SiO2 
 PCOD9532173
Probable space group: I B C A 
;
_chemical_formula_sum "Si O2"
_cell_formula_units_Z 80
_cell_length_a 17.456959
_cell_length_b 8.957466
_cell_length_c 21.981570
_cell_angle_alpha 90.000000
_cell_angle_beta 90.000000
_cell_angle_gamma 90.000000
_cell_volume 3437.260666
_symmetry_space_group_name_H-M "I B C A "
_symmetry_group_IT_number 73
_symmetry_cell_setting 'orthorhombic'
loop_
_space_group_symop_operation_xyz
x,y,z
-x,1/2-y,z
x,-y,1/2-z
1/2-x,y,-z
-x,-y,-z
x,1/2+y,-z
-x,y,1/2+z
1/2+x,-y,z
1/2+x,1/2+y,1/2+z
1/2-x,-y,1/2+z
1/2+x,1/2-y,-z
-x,1/2+y,1/2-z
1/2-x,1/2-y,1/2-z
1/2+x,y,1/2-z
1/2-x,1/2+y,z
x,1/2-y,1/2+z
loop_
_atom_site_type_symbol
_atom_site_label
_atom_site_fract_x
_atom_site_fract_y
_atom_site_fract_z
Si Si1 0.518370 0.993202 0.583053
Si Si2 0.761999 0.227583 0.677206
Si Si3 0.750000 0.709202 0.000000
Si Si4 0.638379 0.512275 0.322250
Si Si5 0.000000 0.250000 0.497641
Si Si6 0.835455 0.541289 0.420464
O O1 0.426746 0.983246 0.581078
O O2 0.546940 0.855192 0.542762
O O3 0.556448 0.992300 0.647790
O O4 0.544035 0.139618 0.546833
O O5 0.750000 0.250000 0.750000
O O6 0.806484 0.376293 0.657562
O O7 0.677690 0.168479 0.658218
O O8 0.812717 0.092392 0.648637
O O9 0.795644 0.601504 0.047197
O O10 0.695815 0.820418 0.038883
O O11 0.633116 0.500000 0.250000
#
# Coordination Sequence:
#
# PCOD9532173 Si02
#       6
#    16  16   8  16   8  16
#     4  11  23  43  69  99 134 172 220 275 334 394
#     4  10  22  42  68  92 126 174 222 273 335 400
#     4  10  24  40  66 104 138 176 226 270 326 402
#     4  10  23  45  69  96 129 171 226 281 333 396
#     4  10  24  40  64  96 134 174 206 256 330 400
#     4  11  22  41  68  98 133 174 219 275 331 393
#
# _framework density 23.274348
#
# number of rings (size 3 to 8) (size 9 to 14) (size 15 to 20)
#    0.000    1.600    0.000    3.600    0.000   11.200 
#    0.000   10.000    0.000    0.000    0.000    0.000 
#    0.000    0.000    0.000    0.000    0.000    0.000 
#
# Total GULP energy -223225.791510 kJ/mol
# GULP energy per Si atom -5580.644788 kJ/mol
# Density = 2.322137 g / cm^3
# Si number density = 23.274348 Si / 1000 Ang^3
#
#
#
# Elastic Constant Matrix: (Units=GPa)
#
#
# Indices 1 2 3 4 5 6 
#
# 1 166.9097 58.8534 72.1954 0.0000 0.0000 0.0000
# 2 58.8534 139.7665 40.7381 0.0000 0.0000 0.0000
# 3 72.1954 40.7381 104.3463 0.0000 0.0000 0.0000
# 4 0.0000 0.0000 0.0000 33.8002 0.0000 0.0000
# 5 0.0000 0.0000 0.0000 0.0000 50.0297 0.0000
# 6 0.0000 0.0000 0.0000 0.0000 0.0000 17.0836
#
#
#
# Elastic Compliance Matrix: (Units=1/GPa)
#
#
# Indices 1 2 3 4 5 6 
#
# 1 0.009144 -0.002264 -0.005442 0.000000 0.000000 0.000000
# 2 -0.002264 0.008634 -0.001804 0.000000 0.000000 0.000000
# 3 -0.005442 -0.001804 0.014054 0.000000 0.000000 0.000000
# 4 0.000000 0.000000 0.000000 0.029586 0.000000 0.000000
# 5 0.000000 0.000000 0.000000 0.000000 0.019988 0.000000
# 6 0.000000 0.000000 0.000000 0.000000 0.000000 0.058536
#
#
# Mechanical properties :
#
#
# Convention : Reuss Voigt Hill
#
# Bulk Modulus (GPa) = 78.06712 83.84401 80.95557
# Shear Modulus (GPa) = 30.63121 36.13173 33.38147
#
# Velocity S-wave (km/s) = 3.63174 3.94436 3.79127
# Velocity P-wave (km/s) = 7.15548 7.53965 7.35008
#
# Compressibility (1/GPa) = 0.01280949
#
# Stress axis : x y z
#
# Youngs Moduli (GPa) = 109.36592 115.82066 71.15662
#
# Poissons Ratio (x) = 0.26221 0.38727
# Poissons Ratio (y) = 0.24759 0.12840
# Poissons Ratio (z) = 0.59522 0.20900
#
# Static dielectric constant tensor:
#      x y z
#    x 1.881780 0.000000 0.000000 
#    y 0.000000 1.945720 0.000000 
#    z 0.000000 0.000000 1.913010 
# 
# From -- ./inp_files/30039.got.cif
#   From: 2010.05.17/outbox.cif.g08.bks.cpg/sg73_16_cif.got.tgz:30039.got - 2010.06.03 17:35:07.
