data_PCOD9532589
_publ_section_title
;
Structure prediction by ZEFSAII (Michael W. Deem and Ramdas Pophale) SiO2 
 PCOD9532589
Probable space group: I B C A 
;
_chemical_formula_sum "Si O2"
_cell_formula_units_Z 112
_cell_length_a 33.372365
_cell_length_b 10.222187
_cell_length_c 14.901810
_cell_angle_alpha 90.000000
_cell_angle_beta 90.000000
_cell_angle_gamma 90.000000
_cell_volume 5083.581940
_symmetry_space_group_name_H-M "I B C A "
_symmetry_group_IT_number 73
_symmetry_cell_setting 'orthorhombic'
loop_
_space_group_symop_operation_xyz
x,y,z
-x,1/2-y,z
x,-y,1/2-z
1/2-x,y,-z
-x,-y,-z
x,1/2+y,-z
-x,y,1/2+z
1/2+x,-y,z
1/2+x,1/2+y,1/2+z
1/2-x,-y,1/2+z
1/2+x,1/2-y,-z
-x,1/2+y,1/2-z
1/2-x,1/2-y,1/2-z
1/2+x,y,1/2-z
1/2-x,1/2+y,z
x,1/2-y,1/2+z
loop_
_atom_site_type_symbol
_atom_site_label
_atom_site_fract_x
_atom_site_fract_y
_atom_site_fract_z
Si Si1 0.721276 0.403472 0.139722
Si Si2 0.046746 0.220765 0.089213
Si Si3 0.418575 0.060691 0.534712
Si Si4 0.284432 0.500000 0.250000
Si Si5 0.168178 0.919047 0.964249
Si Si6 0.332504 0.760177 0.218169
Si Si7 0.750000 0.287597 0.500000
Si Si8 0.086047 0.150955 0.273496
O O1 0.752532 0.516164 0.168606
O O2 0.685200 0.446811 0.076082
O O3 0.698422 0.346466 0.225093
O O4 0.749137 0.302890 0.087531
O O5 0.056926 0.199190 0.194372
O O6 0.000000 0.250000 0.076656
O O7 0.062852 0.085724 0.042050
O O8 0.067791 0.349046 0.047835
O O9 0.370150 0.057403 0.525971
O O10 0.430098 0.138470 0.625742
O O11 0.311963 0.618928 0.221489
O O12 0.159636 0.823954 0.878965
O O13 0.208163 0.862073 0.007919
O O14 0.374886 0.741530 0.267557
O O15 0.097168 0.000000 0.250000
#
# Coordination Sequence:
#
# PCOD9532589 Si02
#       8
#    16  16  16   8  16  16   8  16
#     4  12  25  40  62  93 135 186 251 310 365 428
#     4  11  25  50  78 112 146 185 235 302 375 461
#     4  11  26  46  78 110 150 193 243 301 370 454
#     4  12  22  40  64  90 130 190 244 308 364 422
#     4  12  25  43  63 101 142 188 247 310 366 432
#     4  12  22  41  66  90 133 187 241 302 362 434
#     4  12  26  40  62  96 140 194 254 310 370 426
#     4  10  23  44  71 101 139 187 233 287 362 450
#
# _framework density 22.03171
#
# number of rings (size 3 to 8) (size 9 to 14) (size 15 to 20)
#    0.000    0.571    5.000    3.000    4.000    1.714 
#    0.000    2.143    0.000    0.000    0.000    0.000 
#    0.000    0.000    0.000    0.000    0.000    0.000 
#
# Total GULP energy -312786.791249 kJ/mol
# GULP energy per Si atom -5585.478415 kJ/mol
# Density = 2.198157 g / cm^3
# Si number density = 22.031710 Si / 1000 Ang^3
#
#
#
# Elastic Constant Matrix: (Units=GPa)
#
#
# Indices 1 2 3 4 5 6 
#
# 1 130.6285 42.9724 20.5923 0.0000 0.0000 0.0000
# 2 42.9724 85.7608 26.4300 0.0000 0.0000 0.0000
# 3 20.5923 26.4300 73.0021 0.0000 0.0000 0.0000
# 4 0.0000 0.0000 0.0000 32.0601 0.0000 0.0000
# 5 0.0000 0.0000 0.0000 0.0000 30.1536 0.0000
# 6 0.0000 0.0000 0.0000 0.0000 0.0000 39.8311
#
#
#
# Elastic Compliance Matrix: (Units=1/GPa)
#
#
# Indices 1 2 3 4 5 6 
#
# 1 0.009237 -0.004306 -0.001047 0.000000 0.000000 0.000000
# 2 -0.004306 0.015132 -0.004264 0.000000 0.000000 0.000000
# 3 -0.001047 -0.004264 0.015537 0.000000 0.000000 0.000000
# 4 0.000000 0.000000 0.000000 0.031191 0.000000 0.000000
# 5 0.000000 0.000000 0.000000 0.000000 0.033164 0.000000
# 6 0.000000 0.000000 0.000000 0.000000 0.000000 0.025106
#
#
# Mechanical properties :
#
#
# Convention : Reuss Voigt Hill
#
# Bulk Modulus (GPa) = 48.37140 52.15341 50.26241
# Shear Modulus (GPa) = 32.15638 33.70210 32.92924
#
# Velocity S-wave (km/s) = 3.82455 3.91539 3.87024
# Velocity P-wave (km/s) = 6.44251 6.64558 6.54483
#
# Compressibility (1/GPa) = 0.02067337
#
# Stress axis : x y z
#
# Youngs Moduli (GPa) = 108.26352 66.08575 64.36180
#
# Poissons Ratio (x) = 0.28455 0.06736
# Poissons Ratio (y) = 0.46615 0.27443
# Poissons Ratio (z) = 0.11331 0.28178
#
# Static dielectric constant tensor:
#      x y z
#    x 1.783990 0.000000 0.000000 
#    y 0.000000 1.774610 0.000000 
#    z 0.000000 0.000000 1.895600 
# 
# From -- ./inp_files/20083.got.cif
#   From: 2010.05.17/outbox.cif.g08.bks.cpg/sg73_11_cif.got.tgz:20083.got - 2010.06.03 17:35:07.
