data_PCOD9532609
_publ_section_title
;
Structure prediction by ZEFSAII (Michael W. Deem and Ramdas Pophale) SiO2 
 PCOD9532609
Probable space group: I B C A 
;
_chemical_formula_sum "Si O2"
_cell_formula_units_Z 80
_cell_length_a 9.483607
_cell_length_b 26.862327
_cell_length_c 14.796502
_cell_angle_alpha 90.000000
_cell_angle_beta 90.000000
_cell_angle_gamma 90.000000
_cell_volume 3769.434813
_symmetry_space_group_name_H-M "I B C A "
_symmetry_group_IT_number 73
_symmetry_cell_setting 'orthorhombic'
loop_
_space_group_symop_operation_xyz
x,y,z
-x,1/2-y,z
x,-y,1/2-z
1/2-x,y,-z
-x,-y,-z
x,1/2+y,-z
-x,y,1/2+z
1/2+x,-y,z
1/2+x,1/2+y,1/2+z
1/2-x,-y,1/2+z
1/2+x,1/2-y,-z
-x,1/2+y,1/2-z
1/2-x,1/2-y,1/2-z
1/2+x,y,1/2-z
1/2-x,1/2+y,z
x,1/2-y,1/2+z
loop_
_atom_site_type_symbol
_atom_site_label
_atom_site_fract_x
_atom_site_fract_y
_atom_site_fract_z
Si Si1 0.500000 0.250000 0.758210
Si Si2 0.332906 0.000000 0.250000
Si Si3 0.750000 0.062797 0.500000
Si Si4 0.746841 0.685432 0.823855
Si Si5 0.289649 0.899656 0.682818
Si Si6 0.520438 0.050336 0.909583
Si Si7 0.750000 0.882892 0.500000
O O1 0.609786 0.280591 0.695798
O O2 0.392860 0.283455 0.818677
O O3 0.244873 0.050033 0.237128
O O4 0.419108 0.009611 0.341695
O O5 0.789044 0.096324 0.413728
O O6 0.617786 0.032048 0.463695
O O7 0.748645 0.647549 0.739536
O O8 0.728266 0.652669 0.913670
O O9 0.453000 0.906285 0.655353
O O10 0.624067 0.079635 0.974372
#
# Coordination Sequence:
#
# PCOD9532609 Si02
#       7
#     8   8   8  16  16  16   8
#     4  10  26  46  72 106 138 188 244 298 380 424
#     4  12  22  42  72 106 142 200 236 300 352 436
#     4   8  24  43  63 102 134 192 234 299 345 426
#     4  11  24  46  73 104 146 186 237 307 361 439
#     4  10  23  45  67 102 147 186 234 301 356 425
#     4  10  24  44  66 107 141 189 248 288 354 432
#     4  12  24  43  77 108 138 200 238 295 365 442
#
# _framework density 21.223341999999999
#
# number of rings (size 3 to 8) (size 9 to 14) (size 15 to 20)
#    1.200    0.400    2.000    1.800    2.800    2.400 
#    3.600    4.000    0.000    1.200    0.000    0.000 
#    0.000    0.000    0.000    0.000    0.000    0.000 
#
# Total GULP energy -223205.192212 kJ/mol
# GULP energy per Si atom -5580.129805 kJ/mol
# Density = 2.117504 g / cm^3
# Si number density = 21.223342 Si / 1000 Ang^3
#
#
#
# Elastic Constant Matrix: (Units=GPa)
#
#
# Indices 1 2 3 4 5 6 
#
# 1 147.7938 62.8629 46.7022 0.0000 0.0000 0.0000
# 2 62.8629 113.1150 49.3712 0.0000 0.0000 0.0000
# 3 46.7022 49.3712 117.0116 0.0001 -0.0001 0.0000
# 4 0.0000 0.0000 0.0001 37.6513 0.0000 0.0000
# 5 0.0000 0.0000 -0.0001 0.0000 32.0576 0.0000
# 6 0.0000 0.0000 0.0000 0.0000 0.0000 21.7498
#
#
#
# Elastic Compliance Matrix: (Units=1/GPa)
#
#
# Indices 1 2 3 4 5 6 
#
# 1 0.009177 -0.004292 -0.001852 0.000000 0.000000 0.000000
# 2 -0.004292 0.012843 -0.003706 0.000000 0.000000 0.000000
# 3 -0.001852 -0.003706 0.010849 0.000000 0.000000 0.000000
# 4 0.000000 0.000000 0.000000 0.026559 0.000000 0.000000
# 5 0.000000 0.000000 0.000000 0.000000 0.031194 0.000000
# 6 0.000000 0.000000 0.000000 0.000000 0.000000 0.045977
#
#
# Mechanical properties :
#
#
# Convention : Reuss Voigt Hill
#
# Bulk Modulus (GPa) = 75.93147 77.31034 76.62090
# Shear Modulus (GPa) = 31.11603 32.89070 32.00337
#
# Velocity S-wave (km/s) = 3.83315 3.94095 3.88742
# Velocity P-wave (km/s) = 7.44619 7.56401 7.50533
#
# Compressibility (1/GPa) = 0.01316977
#
# Stress axis : x y z
#
# Youngs Moduli (GPa) = 108.97061 77.86214 92.17420
#
# Poissons Ratio (x) = 0.33416 0.17070
# Poissons Ratio (y) = 0.46766 0.34161
# Poissons Ratio (z) = 0.20180 0.28856
#
# Static dielectric constant tensor:
#      x y z
#    x 1.832020 0.000000 0.000000 
#    y 0.000000 1.782440 0.000000 
#    z 0.000000 0.000000 1.815070 
# 
# From -- ./inp_files/16211.got.cif
#   From: 2010.05.17/outbox.cif.g08.bks.cpg/sg73_9_cif.got.tgz:16211.got - 2010.06.03 17:35:07.
