data_PCOD9532403
_publ_section_title
;
Structure prediction by ZEFSAII (Michael W. Deem and Ramdas Pophale) SiO2 
 PCOD9532403
Probable space group: I B C A 
;
_chemical_formula_sum "Si O2"
_cell_formula_units_Z 104
_cell_length_a 10.007529
_cell_length_b 18.371576
_cell_length_c 27.074389
_cell_angle_alpha 90.000000
_cell_angle_beta 90.000000
_cell_angle_gamma 90.000000
_cell_volume 4977.736870
_symmetry_space_group_name_H-M "I B C A "
_symmetry_group_IT_number 73
_symmetry_cell_setting 'orthorhombic'
loop_
_space_group_symop_operation_xyz
x,y,z
-x,1/2-y,z
x,-y,1/2-z
1/2-x,y,-z
-x,-y,-z
x,1/2+y,-z
-x,y,1/2+z
1/2+x,-y,z
1/2+x,1/2+y,1/2+z
1/2-x,-y,1/2+z
1/2+x,1/2-y,-z
-x,1/2+y,1/2-z
1/2-x,1/2-y,1/2-z
1/2+x,y,1/2-z
1/2-x,1/2+y,z
x,1/2-y,1/2+z
loop_
_atom_site_type_symbol
_atom_site_label
_atom_site_fract_x
_atom_site_fract_y
_atom_site_fract_z
Si Si1 0.058879 0.866575 0.055053
Si Si2 0.769621 0.753165 0.404019
Si Si3 0.500000 0.750000 0.519193
Si Si4 0.694268 0.936447 0.192831
Si Si5 0.348724 0.732983 0.205243
Si Si6 0.808149 0.582814 0.591878
Si Si7 0.943420 0.000000 0.250000
Si Si8 0.250000 0.979697 0.000000
O O1 0.148247 0.805374 0.081372
O O2 0.140317 0.925915 0.023907
O O3 0.966704 0.904750 0.095588
O O4 0.972779 0.819539 0.015454
O O5 0.813218 0.769235 0.347656
O O6 0.745767 0.666199 0.409464
O O7 0.880328 0.770865 0.444841
O O8 0.663254 0.851946 0.195144
O O9 0.737455 0.956420 0.137543
O O10 0.831360 0.947487 0.224960
O O11 0.554445 0.972661 0.210253
O O12 0.500000 0.750000 0.219366
O O13 0.250000 0.750000 0.250000
O O14 0.793095 0.533586 0.543704
#
# Coordination Sequence:
#
# PCOD9532403 Si02
#       8
#    16  16   8  16  16  16   8   8
#     4  12  24  42  68 100 133 184 227 275 340 411
#     4  11  23  43  69  96 132 182 225 273 341 410
#     4  12  20  42  68  92 134 176 228 272 322 416
#     4  10  24  44  73  96 139 181 229 280 349 409
#     4  11  24  44  69 107 134 171 225 293 344 395
#     4  11  25  43  65  98 140 175 224 284 339 402
#     4  10  22  48  68 100 130 188 230 274 342 428
#     4  12  26  42  62 104 138 178 226 280 338 402
#
# _framework density 20.89303
#
# number of rings (size 3 to 8) (size 9 to 14) (size 15 to 20)
#    0.000    0.923    3.846    2.308    2.154    3.692 
#    8.308    0.000    0.000    0.000    0.000    0.000 
#    0.000    0.000    0.000    0.000    0.000    0.000 
#
# Total GULP energy -289991.770294 kJ/mol
# GULP energy per Si atom -5576.764813 kJ/mol
# Density = 2.084548 g / cm^3
# Si number density = 20.893030 Si / 1000 Ang^3
#
#
#
# Elastic Constant Matrix: (Units=GPa)
#
#
# Indices 1 2 3 4 5 6 
#
# 1 131.1089 27.4726 60.0907 0.0000 0.0000 0.0000
# 2 27.4726 66.5980 25.0801 0.0000 0.0000 0.0000
# 3 60.0907 25.0801 83.6125 0.0000 0.0000 0.0000
# 4 0.0000 0.0000 0.0000 36.6516 0.0000 0.0000
# 5 0.0000 0.0000 0.0000 0.0000 32.8356 0.0000
# 6 0.0000 0.0000 0.0000 0.0000 0.0000 30.1681
#
#
#
# Elastic Compliance Matrix: (Units=1/GPa)
#
#
# Indices 1 2 3 4 5 6 
#
# 1 0.011572 -0.001851 -0.007762 0.000000 0.000000 0.000000
# 2 -0.001851 0.017224 -0.003836 0.000000 0.000000 0.000000
# 3 -0.007762 -0.003836 0.018689 0.000000 0.000000 0.000000
# 4 0.000000 0.000000 0.000000 0.027284 0.000000 0.000000
# 5 0.000000 0.000000 0.000000 0.000000 0.030455 0.000000
# 6 0.000000 0.000000 0.000000 0.000000 0.000000 0.033148
#
#
# Mechanical properties :
#
#
# Convention : Reuss Voigt Hill
#
# Bulk Modulus (GPa) = 48.57334 56.28958 52.43146
# Shear Modulus (GPa) = 29.04759 31.17612 30.11186
#
# Velocity S-wave (km/s) = 3.73272 3.86706 3.80048
# Velocity P-wave (km/s) = 6.47122 6.85122 6.66393
#
# Compressibility (1/GPa) = 0.02058743
#
# Stress axis : x y z
#
# Youngs Moduli (GPa) = 86.41183 58.05976 53.50781
#
# Poissons Ratio (x) = 0.10746 0.41531
# Poissons Ratio (y) = 0.15993 0.20527
# Poissons Ratio (z) = 0.67071 0.22273
#
# Static dielectric constant tensor:
#      x y z
#    x 1.717150 0.000000 0.000000 
#    y 0.000000 1.950310 0.000000 
#    z 0.000000 0.000000 1.773510 
# 
# From -- ./inp_files/31293.got.cif
#   From: 2010.05.17/outbox.cif.g08.bks.cpg/sg73_16_cif.got.tgz:31293.got - 2010.06.03 17:35:07.
