data_PCOD9532942
_publ_section_title
;
Structure prediction by ZEFSAII (Michael W. Deem and Ramdas Pophale) SiO2 
 PCOD9532942
Probable space group: I B C A 
;
_chemical_formula_sum "Si O2"
_cell_formula_units_Z 72
_cell_length_a 8.647891
_cell_length_b 25.537380
_cell_length_c 15.156455
_cell_angle_alpha 90.000000
_cell_angle_beta 90.000000
_cell_angle_gamma 90.000000
_cell_volume 3347.219403
_symmetry_space_group_name_H-M "I B C A "
_symmetry_group_IT_number 73
_symmetry_cell_setting 'orthorhombic'
loop_
_space_group_symop_operation_xyz
x,y,z
-x,1/2-y,z
x,-y,1/2-z
1/2-x,y,-z
-x,-y,-z
x,1/2+y,-z
-x,y,1/2+z
1/2+x,-y,z
1/2+x,1/2+y,1/2+z
1/2-x,-y,1/2+z
1/2+x,1/2-y,-z
-x,1/2+y,1/2-z
1/2-x,1/2-y,1/2-z
1/2+x,y,1/2-z
1/2-x,1/2+y,z
x,1/2-y,1/2+z
loop_
_atom_site_type_symbol
_atom_site_label
_atom_site_fract_x
_atom_site_fract_y
_atom_site_fract_z
Si Si1 0.461933 0.500000 0.750000
Si Si2 0.188409 0.371547 0.595516
Si Si3 0.815784 0.760378 0.152161
Si Si4 0.286662 0.424013 0.218311
Si Si5 0.673407 0.341798 0.411431
O O1 0.353721 0.462150 0.805925
O O2 0.565299 0.541091 0.803199
O O3 0.250000 0.389758 0.500000
O O4 0.283121 0.319197 0.621125
O O5 0.208644 0.411840 0.676849
O O6 0.008033 0.354315 0.591942
O O7 0.750000 0.750000 0.250000
O O8 0.716327 0.719159 0.095407
O O9 0.000000 0.750000 0.148178
O O10 0.261875 0.370098 0.168870
O O11 0.750000 0.363214 0.500000
#
# Coordination Sequence:
#
# PCOD9532942 Si02
#       5
#     8  16  16  16  16
#     4  10  24  46  74  96 132 180 224 298 338 404
#     4  12  26  44  71 104 142 182 226 278 340 411
#     4  12  25  42  69 103 143 183 226 272 335 408
#     4  11  24  47  72  98 136 177 232 279 352 396
#     4  12  26  44  71 104 142 182 226 278 340 411
#
# _framework density 21.510392
#
# number of rings (size 3 to 8) (size 9 to 14) (size 15 to 20)
#    0.000    0.444    4.444    4.000    6.222    0.000 
#    0.000    6.667    0.000    0.000    0.000    0.000 
#    0.000    0.000    0.000    0.000    0.000    0.000 
#
# Total GULP energy -201176.964705 kJ/mol
# GULP energy per Si atom -5588.249020 kJ/mol
# Density = 2.146143 g / cm^3
# Si number density = 21.510392 Si / 1000 Ang^3
#
#
#
# Elastic Constant Matrix: (Units=GPa)
#
#
# Indices 1 2 3 4 5 6 
#
# 1 144.8791 15.6635 15.2157 0.0000 0.0000 0.0000
# 2 15.6635 83.1795 10.5390 0.0001 0.0000 0.0000
# 3 15.2157 10.5390 127.6094 0.0003 0.0000 0.0001
# 4 0.0000 0.0001 0.0003 -0.3927 0.0000 0.0000
# 5 0.0000 0.0000 0.0000 0.0000 15.7540 0.0000
# 6 0.0000 0.0000 0.0001 0.0000 0.0000 35.9827
#
#
#
# Elastic Compliance Matrix: (Units=1/GPa)
#
#
# Indices 1 2 3 4 5 6 
#
# 1 0.007115 -0.001245 -0.000746 0.000000 0.000000 0.000000
# 2 -0.001245 0.012367 -0.000873 0.000002 0.000000 0.000000
# 3 -0.000746 -0.000873 0.007997 0.000005 0.000000 0.000000
# 4 0.000000 0.000002 0.000005 -2.546249 -0.000001 0.000003
# 5 0.000000 0.000000 0.000000 -0.000001 0.063476 0.000000
# 6 0.000000 0.000000 0.000000 0.000003 0.000000 0.027791
#
#
# Mechanical properties :
#
#
# Convention : Reuss Voigt Hill
#
# Bulk Modulus (GPa) = 45.97219 48.72270 47.34745
# Shear Modulus (GPa) = -2.07080 31.21876 14.57398
#
# Velocity S-wave (km/s) = -0.98224 3.81377 2.60577
# Velocity P-wave (km/s) = 4.48688 6.48792 5.57787
#
# Compressibility (1/GPa) = 0.02175228
#
# Stress axis : x y z
#
# Youngs Moduli (GPa) = 140.54310 80.85829 125.04060
#
# Poissons Ratio (x) = 0.10070 0.09322
# Poissons Ratio (y) = 0.17503 0.10915
# Poissons Ratio (z) = 0.10478 0.07058
#
# Static dielectric constant tensor:
#      x y z
#    x 1.819800 0.000000 0.000000 
#    y 0.000000 1.776080 0.000000 
#    z 0.000000 0.000000 1.868020 
# 
# From -- ./inp_files/4792.got.cif
#   From: 2010.05.17/outbox.cif.g08.bks.cpg/sg73_3_cif.got.tgz:4792.got - 2010.06.03 17:35:07.
