data_PCOD9532274
_publ_section_title
;
Structure prediction by ZEFSAII (Michael W. Deem and Ramdas Pophale) SiO2 
 PCOD9532274
Probable space group: I B C A 
;
_chemical_formula_sum "Si O2"
_cell_formula_units_Z 72
_cell_length_a 13.193221
_cell_length_b 19.051259
_cell_length_c 14.591099
_cell_angle_alpha 90.000000
_cell_angle_beta 90.000000
_cell_angle_gamma 90.000000
_cell_volume 3667.435823
_symmetry_space_group_name_H-M "I B C A "
_symmetry_group_IT_number 73
_symmetry_cell_setting 'orthorhombic'
loop_
_space_group_symop_operation_xyz
x,y,z
-x,1/2-y,z
x,-y,1/2-z
1/2-x,y,-z
-x,-y,-z
x,1/2+y,-z
-x,y,1/2+z
1/2+x,-y,z
1/2+x,1/2+y,1/2+z
1/2-x,-y,1/2+z
1/2+x,1/2-y,-z
-x,1/2+y,1/2-z
1/2-x,1/2-y,1/2-z
1/2+x,y,1/2-z
1/2-x,1/2+y,z
x,1/2-y,1/2+z
loop_
_atom_site_type_symbol
_atom_site_label
_atom_site_fract_x
_atom_site_fract_y
_atom_site_fract_z
Si Si1 0.741404 0.958275 0.154649
Si Si2 0.500000 0.750000 0.679738
Si Si3 0.186770 0.322187 0.753305
Si Si4 0.384957 0.486440 0.981712
Si Si5 0.318357 0.832684 0.077376
O O1 0.715955 0.877528 0.175106
O O2 0.729886 0.000000 0.250000
O O3 0.850527 0.970970 0.108970
O O4 0.671938 0.987620 0.072974
O O5 0.568555 0.697517 0.741750
O O6 0.586262 0.789611 0.618994
O O7 0.250000 0.250000 0.750000
O O8 0.234447 0.352933 0.846101
O O9 0.361035 0.405108 0.962823
O O10 0.500000 0.500000 0.000000
O O11 0.250000 0.794514 0.000000
#
# Coordination Sequence:
#
# PCOD9532274 Si02
#       5
#    16   8  16  16  16
#     4  11  21  43  66  92 134 175 215 280 336 392
#     4  10  24  42  68  98 132 184 230 264 352 412
#     4  10  22  44  66  92 134 176 226 274 334 407
#     4  11  23  40  66 101 133 169 232 273 337 406
#     4  11  21  45  64  98 138 172 223 292 326 403
#
# _framework density 19.632245000000001
#
# number of rings (size 3 to 8) (size 9 to 14) (size 15 to 20)
#    0.000    1.333    4.444    1.333    0.000    1.778 
#   40.000    0.000    0.000    0.000    0.000    0.000 
#    0.000    0.000    0.000    0.000    0.000    0.000 
#
# Total GULP energy -200589.741434 kJ/mol
# GULP energy per Si atom -5571.937262 kJ/mol
# Density = 1.958756 g / cm^3
# Si number density = 19.632245 Si / 1000 Ang^3
#
#
#
# Elastic Constant Matrix: (Units=GPa)
#
#
# Indices 1 2 3 4 5 6 
#
# 1 157.0678 44.8421 55.3813 0.0000 0.0000 0.0000
# 2 44.8421 103.5994 44.0118 0.0000 0.0000 0.0000
# 3 55.3813 44.0118 115.7944 0.0000 0.0000 0.0000
# 4 0.0000 0.0000 0.0000 29.8042 0.0000 0.0000
# 5 0.0000 0.0000 0.0000 0.0000 34.6301 0.0000
# 6 0.0000 0.0000 0.0000 0.0000 0.0000 32.9805
#
#
#
# Elastic Compliance Matrix: (Units=1/GPa)
#
#
# Indices 1 2 3 4 5 6 
#
# 1 0.008060 -0.002208 -0.003016 0.000000 0.000000 0.000000
# 2 -0.002208 0.012116 -0.003549 0.000000 0.000000 0.000000
# 3 -0.003016 -0.003549 0.011427 0.000000 0.000000 0.000000
# 4 0.000000 0.000000 0.000000 0.033552 0.000000 0.000000
# 5 0.000000 0.000000 0.000000 0.000000 0.028877 0.000000
# 6 0.000000 0.000000 0.000000 0.000000 0.000000 0.030321
#
#
# Mechanical properties :
#
#
# Convention : Reuss Voigt Hill
#
# Bulk Modulus (GPa) = 71.13332 73.88133 72.50732
# Shear Modulus (GPa) = 34.10984 34.96473 34.53729
#
# Velocity S-wave (km/s) = 4.17278 4.22475 4.19885
# Velocity P-wave (km/s) = 7.71542 7.84298 7.77946
#
# Compressibility (1/GPa) = 0.01405811
#
# Stress axis : x y z
#
# Youngs Moduli (GPa) = 124.06416 82.53599 87.50838
#
# Poissons Ratio (x) = 0.18221 0.26392
# Poissons Ratio (y) = 0.27388 0.31059
# Poissons Ratio (z) = 0.37417 0.29294
#
# Static dielectric constant tensor:
#      x y z
#    x 1.668110 0.000000 0.000000 
#    y 0.000000 1.740260 0.000000 
#    z 0.000000 0.000000 1.749750 
# 
# From -- ./inp_files/10634.got.cif
#   From: 2010.05.17/outbox.cif.g08.bks.cpg/sg73_6_cif.got.tgz:10634.got - 2010.06.03 17:35:07.
