data_PCOD9532237
_publ_section_title
;
Structure prediction by ZEFSAII (Michael W. Deem and Ramdas Pophale) SiO2 
 PCOD9532237
Probable space group: I B C A 
;
_chemical_formula_sum "Si O2"
_cell_formula_units_Z 120
_cell_length_a 28.086881
_cell_length_b 22.089868
_cell_length_c 9.217273
_cell_angle_alpha 90.000000
_cell_angle_beta 90.000000
_cell_angle_gamma 90.000000
_cell_volume 5718.723325
_symmetry_space_group_name_H-M "I B C A "
_symmetry_group_IT_number 73
_symmetry_cell_setting 'orthorhombic'
loop_
_space_group_symop_operation_xyz
x,y,z
-x,1/2-y,z
x,-y,1/2-z
1/2-x,y,-z
-x,-y,-z
x,1/2+y,-z
-x,y,1/2+z
1/2+x,-y,z
1/2+x,1/2+y,1/2+z
1/2-x,-y,1/2+z
1/2+x,1/2-y,-z
-x,1/2+y,1/2-z
1/2-x,1/2-y,1/2-z
1/2+x,y,1/2-z
1/2-x,1/2+y,z
x,1/2-y,1/2+z
loop_
_atom_site_type_symbol
_atom_site_label
_atom_site_fract_x
_atom_site_fract_y
_atom_site_fract_z
Si Si1 0.060609 0.196199 0.603145
Si Si2 0.000000 0.250000 0.360247
Si Si3 0.356725 0.991254 0.892933
Si Si4 0.210899 0.791356 0.175262
Si Si5 0.823779 0.909619 0.112341
Si Si6 0.738573 0.925671 0.337430
Si Si7 0.408869 0.559743 0.669827
Si Si8 0.153591 0.219611 0.044470
O O1 0.023554 0.202102 0.470267
O O2 0.068287 0.125370 0.639030
O O3 0.104673 0.240996 0.556013
O O4 0.039301 0.223452 0.751571
O O5 0.314994 0.949555 0.826394
O O6 0.388483 0.000000 0.750000
O O7 0.387610 0.960746 0.016864
O O8 0.332687 0.047876 0.974554
O O9 0.250000 0.750000 0.250000
O O10 0.234799 0.854626 0.152274
O O11 0.168272 0.796600 0.292063
O O12 0.190644 0.765722 0.027265
O O13 0.775349 0.930270 0.200434
O O14 0.864289 0.924821 0.227688
O O15 0.835410 0.840957 0.054647
O O16 0.750000 0.949278 0.500000
O O17 0.432125 0.500000 0.750000
#
# Coordination Sequence:
#
# PCOD9532237 Si02
#       8
#    16   8  16  16  16  16  16  16
#     4  11  23  45  73 102 134 171 213 274 356 420
#     4  10  24  44  74 108 132 160 216 276 340 444
#     4  11  25  38  58  86 124 175 235 288 331 391
#     4  12  24  37  56  87 128 169 222 273 320 376
#     4  11  24  40  58  89 124 175 239 283 335 393
#     4  12  24  37  57  80 122 179 234 291 331 371
#     4  10  22  43  67  95 132 176 219 272 337 415
#     4  12  24  41  63  91 129 175 216 277 337 398
#
# _framework density 20.983705
#
# number of rings (size 3 to 8) (size 9 to 14) (size 15 to 20)
#    0.000    0.800    2.667    5.200    1.867    2.133 
#    0.000    2.000    0.000    0.000    0.000    0.000 
#    0.000    0.000    0.000    0.000    0.000    0.000 
#
# Total GULP energy -334178.528020 kJ/mol
# GULP energy per Si atom -5569.642134 kJ/mol
# Density = 2.093595 g / cm^3
# Si number density = 20.983705 Si / 1000 Ang^3
#
#
#
# Elastic Constant Matrix: (Units=GPa)
#
#
# Indices 1 2 3 4 5 6 
#
# 1 53.0322 26.7801 35.0934 0.0000 0.0000 0.0000
# 2 26.7801 123.9080 54.5735 0.0000 0.0000 0.0000
# 3 35.0934 54.5735 175.9708 0.0000 0.0000 0.0000
# 4 0.0000 0.0000 0.0000 24.8746 0.0000 0.0000
# 5 0.0000 0.0000 0.0000 0.0000 29.9352 0.0000
# 6 0.0000 0.0000 0.0000 0.0000 0.0000 16.5452
#
#
#
# Elastic Compliance Matrix: (Units=1/GPa)
#
#
# Indices 1 2 3 4 5 6 
#
# 1 0.022898 -0.003402 -0.003511 0.000000 0.000000 0.000000
# 2 -0.003402 0.009853 -0.002377 0.000000 0.000000 0.000000
# 3 -0.003511 -0.002377 0.007120 0.000000 0.000000 0.000000
# 4 0.000000 0.000000 0.000000 0.040202 0.000000 0.000000
# 5 0.000000 0.000000 0.000000 0.000000 0.033405 0.000000
# 6 0.000000 0.000000 0.000000 0.000000 0.000000 0.060441
#
#
# Mechanical properties :
#
#
# Convention : Reuss Voigt Hill
#
# Bulk Modulus (GPa) = 46.97153 65.08946 56.03049
# Shear Modulus (GPa) = 25.05044 30.03526 27.54285
#
# Velocity S-wave (km/s) = 3.45890 3.78744 3.62689
# Velocity P-wave (km/s) = 6.19559 7.08609 6.65575
#
# Compressibility (1/GPa) = 0.02128949
#
# Stress axis : x y z
#
# Youngs Moduli (GPa) = 43.67154 101.49362 140.44506
#
# Poissons Ratio (x) = 0.34533 0.49315
# Poissons Ratio (y) = 0.14859 0.33385
# Poissons Ratio (z) = 0.15335 0.24126
#
# Static dielectric constant tensor:
#      x y z
#    x 1.776620 0.000000 0.000000 
#    y 0.000000 1.836290 0.000000 
#    z 0.000000 0.000000 1.837980 
# 
# From -- ./inp_files/8047.got.cif
#   From: 2010.05.17/outbox.cif.g08.bks.cpg/sg73_5_cif.got.tgz:8047.got - 2010.06.03 17:35:07.
