data_PCOD9532543
_publ_section_title
;
Structure prediction by ZEFSAII (Michael W. Deem and Ramdas Pophale) SiO2 
 PCOD9532543
Probable space group: I B C A 
;
_chemical_formula_sum "Si O2"
_cell_formula_units_Z 88
_cell_length_a 15.266586
_cell_length_b 24.357177
_cell_length_c 9.992473
_cell_angle_alpha 90.000000
_cell_angle_beta 90.000000
_cell_angle_gamma 90.000000
_cell_volume 3715.710452
_symmetry_space_group_name_H-M "I B C A "
_symmetry_group_IT_number 73
_symmetry_cell_setting 'orthorhombic'
loop_
_space_group_symop_operation_xyz
x,y,z
-x,1/2-y,z
x,-y,1/2-z
1/2-x,y,-z
-x,-y,-z
x,1/2+y,-z
-x,y,1/2+z
1/2+x,-y,z
1/2+x,1/2+y,1/2+z
1/2-x,-y,1/2+z
1/2+x,1/2-y,-z
-x,1/2+y,1/2-z
1/2-x,1/2-y,1/2-z
1/2+x,y,1/2-z
1/2-x,1/2+y,z
x,1/2-y,1/2+z
loop_
_atom_site_type_symbol
_atom_site_label
_atom_site_fract_x
_atom_site_fract_y
_atom_site_fract_z
Si Si1 0.547592 0.334132 0.712465
Si Si2 0.595695 0.835655 0.583571
Si Si3 0.397994 0.444984 0.331369
Si Si4 0.250000 0.465808 0.500000
Si Si5 0.303494 0.230273 0.877267
Si Si6 0.089377 0.537082 0.385428
O O1 0.541299 0.328484 0.553686
O O2 0.457129 0.320256 0.783406
O O3 0.569819 0.398084 0.732603
O O4 0.619135 0.304320 0.806807
O O5 0.664657 0.788106 0.562593
O O6 0.621666 0.899180 0.609349
O O7 0.380926 0.500000 0.250000
O O8 0.304311 0.429678 0.394769
O O9 0.485285 0.454063 0.423347
O O10 0.168469 0.504192 0.456323
O O11 0.250000 0.250000 0.750000
O O12 0.250000 0.202735 0.000000
O O13 0.081280 0.500000 0.250000
#
# Coordination Sequence:
#
# PCOD9532543 Si02
#       6
#    16  16  16   8  16  16
#     4  11  26  47  73 102 143 194 240 303 369 447
#     4  11  26  48  74 100 145 192 242 299 374 440
#     4  10  23  43  65  99 142 185 243 296 370 444
#     4  12  22  36  68 100 136 184 242 300 360 446
#     4  12  27  46  72 108 146 186 243 309 368 442
#     4  10  24  44  69 103 145 195 244 303 376 451
#
# _framework density 23.683223000000002
#
# number of rings (size 3 to 8) (size 9 to 14) (size 15 to 20)
#    0.000    1.091    1.818    2.727    5.091   11.636 
#    0.000    0.000    0.000    0.000    0.000    0.000 
#    0.000    0.000    0.000    0.000    0.000    0.000 
#
# Total GULP energy -245077.174540 kJ/mol
# GULP energy per Si atom -5569.935785 kJ/mol
# Density = 2.362932 g / cm^3
# Si number density = 23.683223 Si / 1000 Ang^3
#
#
#
# Elastic Constant Matrix: (Units=GPa)
#
#
# Indices 1 2 3 4 5 6 
#
# 1 84.9780 -0.5084 16.3178 0.0000 0.0000 0.0000
# 2 -0.5084 70.1636 4.8260 -0.0001 0.0000 0.0000
# 3 16.3178 4.8260 98.7415 -0.0010 -0.0001 -0.0001
# 4 0.0000 -0.0001 -0.0010 18.9230 0.0000 -0.0002
# 5 0.0000 0.0000 -0.0001 0.0000 45.0730 -0.0001
# 6 0.0000 0.0000 -0.0001 -0.0002 -0.0001 -18.9643
#
#
#
# Elastic Compliance Matrix: (Units=1/GPa)
#
#
# Indices 1 2 3 4 5 6 
#
# 1 0.012157 0.000227 -0.002020 0.000000 0.000000 0.000000
# 2 0.000227 0.014305 -0.000737 0.000000 0.000000 0.000000
# 3 -0.002020 -0.000737 0.010497 0.000001 0.000000 0.000000
# 4 0.000000 0.000000 0.000001 0.052846 0.000000 0.000000
# 5 0.000000 0.000000 0.000000 0.000000 0.022186 0.000000
# 6 0.000000 0.000000 0.000000 0.000000 0.000000 -0.052731
#
#
# Mechanical properties :
#
#
# Convention : Reuss Voigt Hill
#
# Bulk Modulus (GPa) = 31.34845 32.79489 32.07167
# Shear Modulus (GPa) = 66.70842 24.55619 45.63231
#
# Velocity S-wave (km/s) = 5.31301 3.22352 4.39427
# Velocity P-wave (km/s) = 7.13462 5.26614 6.27036
#
# Compressibility (1/GPa) = 0.03189950
#
# Stress axis : x y z
#
# Youngs Moduli (GPa) = 82.25700 69.90705 95.26256
#
# Poissons Ratio (x) = -0.01587 0.19244
# Poissons Ratio (y) = -0.01868 0.07018
# Poissons Ratio (z) = 0.16617 0.05150
#
# Static dielectric constant tensor:
#      x y z
#    x 1.958830 0.000000 0.000000 
#    y 0.000000 1.916610 0.000000 
#    z 0.000000 0.000000 1.988250 
# 
# From -- ./inp_files/11109.got.cif
#   From: 2010.05.17/outbox.cif.g08.bks.cpg/sg73_6_cif.got.tgz:11109.got - 2010.06.03 17:35:07.
