data_PCOD9532931
_publ_section_title
;
Structure prediction by ZEFSAII (Michael W. Deem and Ramdas Pophale) SiO2 
 PCOD9532931
Probable space group: I B C A 
;
_chemical_formula_sum "Si O2"
_cell_formula_units_Z 112
_cell_length_a 11.439095
_cell_length_b 29.805983
_cell_length_c 14.076706
_cell_angle_alpha 90.000000
_cell_angle_beta 90.000000
_cell_angle_gamma 90.000000
_cell_volume 4799.501772
_symmetry_space_group_name_H-M "I B C A "
_symmetry_group_IT_number 73
_symmetry_cell_setting 'orthorhombic'
loop_
_space_group_symop_operation_xyz
x,y,z
-x,1/2-y,z
x,-y,1/2-z
1/2-x,y,-z
-x,-y,-z
x,1/2+y,-z
-x,y,1/2+z
1/2+x,-y,z
1/2+x,1/2+y,1/2+z
1/2-x,-y,1/2+z
1/2+x,1/2-y,-z
-x,1/2+y,1/2-z
1/2-x,1/2-y,1/2-z
1/2+x,y,1/2-z
1/2-x,1/2+y,z
x,1/2-y,1/2+z
loop_
_atom_site_type_symbol
_atom_site_label
_atom_site_fract_x
_atom_site_fract_y
_atom_site_fract_z
Si Si1 0.750000 0.852385 0.000000
Si Si2 0.146555 0.469506 0.043129
Si Si3 0.895898 0.191351 0.887636
Si Si4 0.817836 0.375142 0.628787
Si Si5 0.500000 0.750000 0.746013
Si Si6 0.486756 0.183990 0.923948
Si Si7 0.976115 0.525770 0.159929
Si Si8 0.593776 0.381058 0.167854
O O1 0.649547 0.822871 0.052958
O O2 0.823520 0.881111 0.075680
O O3 0.202463 0.424568 0.088389
O O4 0.078312 0.492072 0.128351
O O5 0.250000 0.499889 0.000000
O O6 0.074196 0.463170 0.946011
O O7 0.779923 0.161653 0.896762
O O8 0.896435 0.233444 0.815926
O O9 0.998280 0.157854 0.850327
O O10 0.942382 0.206326 0.989894
O O11 0.825171 0.373025 0.741739
O O12 0.946055 0.363148 0.587734
O O13 0.515544 0.790322 0.672443
O O14 0.914816 0.500000 0.250000
O O15 0.024567 0.573674 0.190895
#
# Coordination Sequence:
#
# PCOD9532931 Si02
#       8
#     8  16  16  16   8  16  16  16
#     4  10  24  46  72 102 148 192 248 308 370 464
#     4  11  24  44  69 101 141 188 242 300 371 443
#     4  11  25  46  72 102 143 189 242 306 374 454
#     4  12  23  46  74  98 142 196 243 302 377 458
#     4  12  24  46  68 110 138 180 246 304 372 446
#     4  11  24  46  69 102 139 188 240 302 372 442
#     4  11  24  45  66 103 145 184 245 313 366 438
#     4  11  23  44  69 102 140 192 245 300 380 450
#
# _framework density 23.335756
#
# number of rings (size 3 to 8) (size 9 to 14) (size 15 to 20)
#    0.000    0.857    2.857    5.143    1.000    1.143 
#   10.286    0.000    0.000    0.000    0.000    0.000 
#    0.000    0.000    0.000    0.000    0.000    0.000 
#
# Total GULP energy -312420.367580 kJ/mol
# GULP energy per Si atom -5578.935135 kJ/mol
# Density = 2.328264 g / cm^3
# Si number density = 23.335756 Si / 1000 Ang^3
#
#
#
# Elastic Constant Matrix: (Units=GPa)
#
#
# Indices 1 2 3 4 5 6 
#
# 1 66.3853 9.9539 5.8869 -0.0001 0.0001 0.0000
# 2 9.9539 45.3027 11.0609 -0.0002 0.0001 0.0000
# 3 5.8869 11.0609 135.2444 -0.0003 -0.0003 0.0000
# 4 -0.0001 -0.0002 -0.0003 34.7050 -0.0001 0.0000
# 5 0.0001 0.0001 -0.0003 -0.0001 16.7316 0.0000
# 6 0.0000 0.0000 0.0000 0.0000 0.0000 28.6771
#
#
#
# Elastic Compliance Matrix: (Units=1/GPa)
#
#
# Indices 1 2 3 4 5 6 
#
# 1 0.015599 -0.003328 -0.000407 0.000000 0.000000 0.000000
# 2 -0.003328 0.023234 -0.001755 0.000000 0.000000 0.000000
# 3 -0.000407 -0.001755 0.007555 0.000000 0.000000 0.000000
# 4 0.000000 0.000000 0.000000 0.028814 0.000000 0.000000
# 5 0.000000 0.000000 0.000000 0.000000 0.059767 0.000000
# 6 0.000000 0.000000 0.000000 0.000000 0.000000 0.034871
#
#
# Mechanical properties :
#
#
# Convention : Reuss Voigt Hill
#
# Bulk Modulus (GPa) = 28.24277 33.41508 30.82893
# Shear Modulus (GPa) = 25.95749 30.69145 28.32447
#
# Velocity S-wave (km/s) = 3.33881 3.63052 3.48771
# Velocity P-wave (km/s) = 5.19544 5.65018 5.42757
#
# Compressibility (1/GPa) = 0.03540729
#
# Stress axis : x y z
#
# Youngs Moduli (GPa) = 64.10808 43.04124 132.35767
#
# Poissons Ratio (x) = 0.14324 0.05384
# Poissons Ratio (y) = 0.21335 0.23232
# Poissons Ratio (z) = 0.02608 0.07555
#
# Static dielectric constant tensor:
#      x y z
#    x 2.650160 0.000000 0.000000 
#    y 0.000000 1.905470 0.000000 
#    z 0.000000 0.000000 1.984830 
# 
# From -- ./inp_files/16395.got.cif
#   From: 2010.05.17/outbox.cif.g08.bks.cpg/sg73_9_cif.got.tgz:16395.got - 2010.06.03 17:35:07.
