data_PCOD9532047
_publ_section_title
;
Structure prediction by ZEFSAII (Michael W. Deem and Ramdas Pophale) SiO2 
 PCOD9532047
Probable space group: I B C A 
;
_chemical_formula_sum "Si O2"
_cell_formula_units_Z 88
_cell_length_a 17.504458
_cell_length_b 7.838016
_cell_length_c 30.757477
_cell_angle_alpha 90.000000
_cell_angle_beta 90.000000
_cell_angle_gamma 90.000000
_cell_volume 4219.932669
_symmetry_space_group_name_H-M "I B C A "
_symmetry_group_IT_number 73
_symmetry_cell_setting 'orthorhombic'
loop_
_space_group_symop_operation_xyz
x,y,z
-x,1/2-y,z
x,-y,1/2-z
1/2-x,y,-z
-x,-y,-z
x,1/2+y,-z
-x,y,1/2+z
1/2+x,-y,z
1/2+x,1/2+y,1/2+z
1/2-x,-y,1/2+z
1/2+x,1/2-y,-z
-x,1/2+y,1/2-z
1/2-x,1/2-y,1/2-z
1/2+x,y,1/2-z
1/2-x,1/2+y,z
x,1/2-y,1/2+z
loop_
_atom_site_type_symbol
_atom_site_label
_atom_site_fract_x
_atom_site_fract_y
_atom_site_fract_z
Si Si1 0.150556 0.297928 0.309408
Si Si2 0.833350 0.711053 0.938091
Si Si3 0.946371 0.500000 0.750000
Si Si4 0.688010 0.820043 0.662173
Si Si5 0.940722 0.530364 0.330947
Si Si6 0.000000 0.250000 0.594727
Si Si7 0.750000 0.035235 0.500000
O O1 0.108776 0.343644 0.263979
O O2 0.235052 0.217414 0.310711
O O3 0.159305 0.487330 0.329666
O O4 0.096949 0.157174 0.332381
O O5 0.797737 0.693534 0.889779
O O6 0.923297 0.726215 0.931744
O O7 0.797079 0.868446 0.963118
O O8 0.811202 0.563722 0.971163
O O9 0.001638 0.464176 0.709513
O O10 0.626085 0.672805 0.672373
O O11 0.986639 0.587961 0.373572
#
# Coordination Sequence:
#
# PCOD9532047 Si02
#       7
#    16  16   8  16  16   8   8
#     4  12  26  43  71 100 132 185 236 292 351 403
#     4  10  22  42  69 101 138 176 225 282 343 425
#     4  12  28  42  66  96 142 182 230 292 356 408
#     4  11  24  47  70 101 134 181 240 285 341 428
#     4  11  26  46  68  98 137 185 233 288 355 410
#     4  10  24  46  72  98 142 182 228 290 348 420
#     4  10  22  40  72 102 134 182 220 278 354 410
#
# _framework density 20.853413
#
# number of rings (size 3 to 8) (size 9 to 14) (size 15 to 20)
#    0.000    1.091    1.818    3.818   10.182    2.182 
#    0.000    0.000    0.000    0.000    0.000    0.000 
#    0.000    0.000    0.000    0.000    0.000    0.000 
#
# Total GULP energy -245852.403716 kJ/mol
# GULP energy per Si atom -5587.554630 kJ/mol
# Density = 2.080595 g / cm^3
# Si number density = 20.853413 Si / 1000 Ang^3
#
#
#
# Elastic Constant Matrix: (Units=GPa)
#
#
# Indices 1 2 3 4 5 6 
#
# 1 116.8436 47.5498 55.3406 0.0000 0.0000 0.0000
# 2 47.5498 142.9906 53.5116 0.0000 0.0000 0.0000
# 3 55.3406 53.5116 118.6620 0.0000 0.0000 0.0000
# 4 0.0000 0.0000 0.0000 -364.5401 0.0000 0.0000
# 5 0.0000 0.0000 0.0000 0.0000 39.0528 0.0000
# 6 0.0000 0.0000 0.0000 0.0000 0.0000 34.4859
#
#
#
# Elastic Compliance Matrix: (Units=1/GPa)
#
#
# Indices 1 2 3 4 5 6 
#
# 1 0.011529 -0.002191 -0.004388 0.000000 0.000000 0.000000
# 2 -0.002191 0.008830 -0.002960 0.000000 0.000000 0.000000
# 3 -0.004388 -0.002960 0.011809 0.000000 0.000000 0.000000
# 4 0.000000 0.000000 0.000000 -0.002743 0.000000 0.000000
# 5 0.000000 0.000000 0.000000 0.000000 0.025606 0.000000
# 6 0.000000 0.000000 0.000000 0.000000 0.000000 0.028997
#
#
# Mechanical properties :
#
#
# Convention : Reuss Voigt Hill
#
# Bulk Modulus (GPa) = 76.40683 76.81112 76.60898
# Shear Modulus (GPa) = 46.52463 -43.39398 1.56532
#
# Velocity S-wave (km/s) = 4.72850 -4.56664 0.86733
# Velocity P-wave (km/s) = 8.15666 3.01797 6.14977
#
# Compressibility (1/GPa) = 0.01308784
#
# Stress axis : x y z
#
# Youngs Moduli (GPa) = 86.73968 113.25173 84.68330
#
# Poissons Ratio (x) = 0.24819 0.37163
# Poissons Ratio (y) = 0.19009 0.25065
# Poissons Ratio (z) = 0.38065 0.33521
#
# Static dielectric constant tensor:
#      x y z
#    x 1.750730 0.000000 0.000000 
#    y 0.000000 1.808300 0.000000 
#    z 0.000000 0.000000 1.729440 
# 
# From -- ./inp_files/34525.got.cif
#   From: 2010.05.17/outbox.cif.g08.bks.cpg/sg73_18_cif.got.tgz:34525.got - 2010.06.03 17:35:07.
