data_PCOD9532185
_publ_section_title
;
Structure prediction by ZEFSAII (Michael W. Deem and Ramdas Pophale) SiO2 
 PCOD9532185
Probable space group: I B C A 
;
_chemical_formula_sum "Si O2"
_cell_formula_units_Z 120
_cell_length_a 22.071607
_cell_length_b 9.633196
_cell_length_c 28.360489
_cell_angle_alpha 90.000000
_cell_angle_beta 90.000000
_cell_angle_gamma 90.000000
_cell_volume 6030.010469
_symmetry_space_group_name_H-M "I B C A "
_symmetry_group_IT_number 73
_symmetry_cell_setting 'orthorhombic'
loop_
_space_group_symop_operation_xyz
x,y,z
-x,1/2-y,z
x,-y,1/2-z
1/2-x,y,-z
-x,-y,-z
x,1/2+y,-z
-x,y,1/2+z
1/2+x,-y,z
1/2+x,1/2+y,1/2+z
1/2-x,-y,1/2+z
1/2+x,1/2-y,-z
-x,1/2+y,1/2-z
1/2-x,1/2-y,1/2-z
1/2+x,y,1/2-z
1/2-x,1/2+y,z
x,1/2-y,1/2+z
loop_
_atom_site_type_symbol
_atom_site_label
_atom_site_fract_x
_atom_site_fract_y
_atom_site_fract_z
Si Si1 0.750000 0.768084 0.500000
Si Si2 0.884184 0.536728 0.891332
Si Si3 0.569890 0.703838 0.450539
Si Si4 0.437162 0.584438 0.796729
Si Si5 0.630646 0.448718 0.601497
Si Si6 0.569692 0.293290 0.939741
Si Si7 0.917219 0.406890 0.295919
Si Si8 0.766525 0.011510 0.434129
O O1 0.774437 0.656081 0.537848
O O2 0.785208 0.882541 0.468480
O O3 0.918585 0.452113 0.933016
O O4 0.911632 0.490176 0.842494
O O5 0.893246 0.696242 0.904268
O O6 0.814137 0.495459 0.892523
O O7 0.500000 0.750000 0.444632
O O8 0.586576 0.721518 0.505291
O O9 0.611414 0.798211 0.417253
O O10 0.422507 0.500000 0.750000
O O11 0.411610 0.740312 0.790991
O O12 0.510096 0.580310 0.803131
O O13 0.583645 0.551468 0.575917
O O14 0.619170 0.453648 0.657466
O O15 0.697826 0.488620 0.583235
O O16 0.500000 0.250000 0.935263
O O17 0.901779 0.500000 0.250000
#
# Coordination Sequence:
#
# PCOD9532185 Si02
#       8
#     8  16  16  16  16  16  16  16
#     4  10  24  42  60  86 124 178 232 262 284 360
#     4  12  24  40  65  92 133 167 216 265 317 384
#     4  11  23  40  62  91 127 171 211 262 330 384
#     4  10  22  42  69  97 125 163 211 268 331 388
#     4  12  24  40  65  92 133 167 216 265 317 384
#     4  11  25  38  58  93 129 169 209 258 320 384
#     4  10  22  42  69  97 125 163 211 268 331 388
#     4  11  26  40  65  92 126 178 225 256 315 362
#
# _framework density 19.900462000000001
#
# number of rings (size 3 to 8) (size 9 to 14) (size 15 to 20)
#    0.000    1.067    1.333    4.800   13.067    2.133 
#    0.000    0.667    0.000    1.600    0.000    0.000 
#    0.000    0.000    0.000    0.000    0.000    0.000 
#
# Total GULP energy -335188.583059 kJ/mol
# GULP energy per Si atom -5586.476384 kJ/mol
# Density = 1.985517 g / cm^3
# Si number density = 19.900462 Si / 1000 Ang^3
#
#
#
# Elastic Constant Matrix: (Units=GPa)
#
#
# Indices 1 2 3 4 5 6 
#
# 1 61.9179 3.5108 32.9665 0.0000 0.0000 0.0000
# 2 3.5108 64.3913 20.2181 0.0000 0.0000 0.0000
# 3 32.9665 20.2181 127.6845 0.0000 0.0000 0.0000
# 4 0.0000 0.0000 0.0000 26.8382 0.0000 0.0000
# 5 0.0000 0.0000 0.0000 0.0000 -15.0795 0.0000
# 6 0.0000 0.0000 0.0000 0.0000 0.0000 18.4104
#
#
#
# Elastic Compliance Matrix: (Units=1/GPa)
#
#
# Indices 1 2 3 4 5 6 
#
# 1 0.018741 0.000523 -0.004922 0.000000 0.000000 0.000000
# 2 0.000523 0.016357 -0.002725 0.000000 0.000000 0.000000
# 3 -0.004922 -0.002725 0.009534 0.000000 0.000000 0.000000
# 4 0.000000 0.000000 0.000000 0.037260 0.000000 0.000000
# 5 0.000000 0.000000 0.000000 0.000000 -0.066315 0.000000
# 6 0.000000 0.000000 0.000000 0.000000 0.000000 0.054317
#
#
# Mechanical properties :
#
#
# Convention : Reuss Voigt Hill
#
# Bulk Modulus (GPa) = 32.91026 40.82050 36.86538
# Shear Modulus (GPa) = 53.03931 19.18704 36.11318
#
# Velocity S-wave (km/s) = 5.16819 3.10845 4.26454
# Velocity P-wave (km/s) = 7.22405 5.78274 6.54320
#
# Compressibility (1/GPa) = 0.03038566
#
# Stress axis : x y z
#
# Youngs Moduli (GPa) = 53.35864 61.13518 104.88752
#
# Poissons Ratio (x) = -0.03200 0.51621
# Poissons Ratio (y) = -0.02793 0.28584
# Poissons Ratio (z) = 0.26261 0.16661
#
# Static dielectric constant tensor:
#      x y z
#    x 1.721620 0.000000 0.000000 
#    y 0.000000 1.684840 0.000000 
#    z 0.000000 0.000000 1.660400 
# 
# From -- ./inp_files/32897.got.cif
#   From: 2010.05.17/outbox.cif.g08.bks.cpg/sg73_17_cif.got.tgz:32897.got - 2010.06.03 17:35:07.
