data_PCOD9532261
_publ_section_title
;
Structure prediction by ZEFSAII (Michael W. Deem and Ramdas Pophale) SiO2 
 PCOD9532261
Probable space group: I B C A 
;
_chemical_formula_sum "Si O2"
_cell_formula_units_Z 72
_cell_length_a 15.401211
_cell_length_b 11.338440
_cell_length_c 15.745182
_cell_angle_alpha 90.000000
_cell_angle_beta 90.000000
_cell_angle_gamma 90.000000
_cell_volume 2749.513536
_symmetry_space_group_name_H-M "I B C A "
_symmetry_group_IT_number 73
_symmetry_cell_setting 'orthorhombic'
loop_
_space_group_symop_operation_xyz
x,y,z
-x,1/2-y,z
x,-y,1/2-z
1/2-x,y,-z
-x,-y,-z
x,1/2+y,-z
-x,y,1/2+z
1/2+x,-y,z
1/2+x,1/2+y,1/2+z
1/2-x,-y,1/2+z
1/2+x,1/2-y,-z
-x,1/2+y,1/2-z
1/2-x,1/2-y,1/2-z
1/2+x,y,1/2-z
1/2-x,1/2+y,z
x,1/2-y,1/2+z
loop_
_atom_site_type_symbol
_atom_site_label
_atom_site_fract_x
_atom_site_fract_y
_atom_site_fract_z
Si Si1 0.750000 0.987331 0.000000
Si Si2 0.071537 0.403472 0.072531
Si Si3 0.350885 0.749515 0.310729
Si Si4 0.500000 0.250000 0.052348
Si Si5 0.416705 0.500000 0.750000
Si Si6 0.331667 0.815177 0.637808
O O1 0.704709 0.913513 0.075785
O O2 0.835164 0.048513 0.040653
O O3 0.040126 0.466283 0.159191
O O4 0.097400 0.268405 0.096652
O O5 0.003691 0.374882 0.997876
O O6 0.417208 0.741609 0.386910
O O7 0.363280 0.881737 0.272753
O O8 0.254667 0.737265 0.345309
O O9 0.364580 0.659010 0.233270
#
# Coordination Sequence:
#
# PCOD9532261 Si02
#       6
#     8  16  16   8   8  16
#     4  12  20  42  74 112 132 192 256 306 370 452
#     4  11  25  42  72 103 146 187 245 309 371 451
#     4  10  22  45  68 100 149 187 240 306 374 443
#     4  12  26  46  66 110 152 196 240 306 382 454
#     4  10  22  44  66  98 134 190 238 306 362 444
#     4  10  22  43  72 100 141 188 245 312 361 440
#
# _framework density 26.186451999999999
#
# number of rings (size 3 to 8) (size 9 to 14) (size 15 to 20)
#    0.000    1.333    2.222    3.333    0.000    4.444 
#    4.000    0.000    0.000    1.333    0.000    0.000 
#    0.000    0.000    0.000    0.000    0.000    0.000 
#
# Total GULP energy -201281.364520 kJ/mol
# GULP energy per Si atom -5591.149014 kJ/mol
# Density = 2.612685 g / cm^3
# Si number density = 26.186452 Si / 1000 Ang^3
#
#
#
# Elastic Constant Matrix: (Units=GPa)
#
#
# Indices 1 2 3 4 5 6 
#
# 1 71.1780 27.7415 52.5828 0.0000 0.0000 0.0000
# 2 27.7415 84.0195 76.1596 0.0000 0.0000 0.0000
# 3 52.5828 76.1596 189.9999 0.0000 0.0000 0.0000
# 4 0.0000 0.0000 0.0000 84.7337 0.0000 0.0000
# 5 0.0000 0.0000 0.0000 0.0000 59.1809 0.0000
# 6 0.0000 0.0000 0.0000 0.0000 0.0000 15.8018
#
#
#
# Elastic Compliance Matrix: (Units=1/GPa)
#
#
# Indices 1 2 3 4 5 6 
#
# 1 0.017923 -0.002233 -0.004065 0.000000 0.000000 0.000000
# 2 -0.002233 0.018973 -0.006987 0.000000 0.000000 0.000000
# 3 -0.004065 -0.006987 0.009189 0.000000 0.000000 0.000000
# 4 0.000000 0.000000 0.000000 0.011802 0.000000 0.000000
# 5 0.000000 0.000000 0.000000 0.000000 0.016897 0.000000
# 6 0.000000 0.000000 0.000000 0.000000 0.000000 0.063284
#
#
# Mechanical properties :
#
#
# Convention : Reuss Voigt Hill
#
# Bulk Modulus (GPa) = 51.24491 73.12946 62.18718
# Shear Modulus (GPa) = 29.21550 44.52417 36.86984
#
# Velocity S-wave (km/s) = 3.34379 4.12791 3.75637
# Velocity P-wave (km/s) = 5.87534 7.12086 6.52787
#
# Compressibility (1/GPa) = 0.01951413
#
# Stress axis : x y z
#
# Youngs Moduli (GPa) = 55.79535 52.70734 108.82727
#
# Poissons Ratio (x) = 0.11769 0.44239
# Poissons Ratio (y) = 0.12458 0.76038
# Poissons Ratio (z) = 0.22681 0.36827
#
# Static dielectric constant tensor:
#      x y z
#    x 2.014410 0.000000 0.000000 
#    y 0.000000 2.060570 0.000000 
#    z 0.000000 0.000000 2.370620 
# 
# From -- ./inp_files/17784.got.cif
#   From: 2010.05.17/outbox.cif.g08.bks.cpg/sg73_9_cif.got.tgz:17784.got - 2010.06.03 17:35:07.
