data_PCOD9532423
_publ_section_title
;
Structure prediction by ZEFSAII (Michael W. Deem and Ramdas Pophale) SiO2 
 PCOD9532423
Probable space group: I B C A 
;
_chemical_formula_sum "Si O2"
_cell_formula_units_Z 120
_cell_length_a 7.828173
_cell_length_b 25.298038
_cell_length_c 31.695314
_cell_angle_alpha 90.000000
_cell_angle_beta 90.000000
_cell_angle_gamma 90.000000
_cell_volume 6276.858148
_symmetry_space_group_name_H-M "I B C A "
_symmetry_group_IT_number 73
_symmetry_cell_setting 'orthorhombic'
loop_
_space_group_symop_operation_xyz
x,y,z
-x,1/2-y,z
x,-y,1/2-z
1/2-x,y,-z
-x,-y,-z
x,1/2+y,-z
-x,y,1/2+z
1/2+x,-y,z
1/2+x,1/2+y,1/2+z
1/2-x,-y,1/2+z
1/2+x,1/2-y,-z
-x,1/2+y,1/2-z
1/2-x,1/2-y,1/2-z
1/2+x,y,1/2-z
1/2-x,1/2+y,z
x,1/2-y,1/2+z
loop_
_atom_site_type_symbol
_atom_site_label
_atom_site_fract_x
_atom_site_fract_y
_atom_site_fract_z
Si Si1 0.017584 0.687355 0.302030
Si Si2 0.711637 0.624311 0.268819
Si Si3 0.250000 0.878923 0.500000
Si Si4 0.114129 0.456499 0.878892
Si Si5 0.736401 0.434980 0.910386
Si Si6 0.091392 0.868920 0.886404
Si Si7 0.437042 0.455458 0.214973
Si Si8 0.571227 0.309349 0.474954
O O1 0.116134 0.666235 0.260828
O O2 0.102841 0.667202 0.344934
O O3 0.000000 0.750000 0.301541
O O4 0.838574 0.656751 0.297831
O O5 0.590348 0.584937 0.293997
O O6 0.802029 0.583404 0.236826
O O7 0.253284 0.913812 0.457879
O O8 0.421060 0.843235 0.502693
O O9 0.163377 0.505725 0.908073
O O10 0.256573 0.411496 0.884267
O O11 0.121281 0.476848 0.830131
O O12 0.924682 0.436444 0.889975
O O13 0.591676 0.398935 0.888055
O O14 0.101073 0.834621 0.928886
O O15 0.478776 0.500000 0.250000
O O16 0.500000 0.250000 0.471105
O O17 0.750000 0.310314 0.500000
#
# Coordination Sequence:
#
# PCOD9532423 Si02
#       8
#    16  16   8  16  16  16  16  16
#     4  11  22  42  63  86 122 165 218 268 327 381
#     4  10  23  38  60  89 121 167 213 268 318 384
#     4  10  24  46  62  98 128 166 220 254 320 394
#     4  12  24  42  61  95 133 169 214 261 323 382
#     4  11  25  40  67  91 129 170 205 261 317 393
#     4  11  24  43  65  97 128 169 213 268 322 388
#     4  11  24  36  62  91 126 168 213 261 321 385
#     4  11  22  43  73  97 129 168 212 269 327 380
#
# _framework density 19.117844999999999
#
# number of rings (size 3 to 8) (size 9 to 14) (size 15 to 20)
#    0.000    1.067    3.333    2.800    7.467    0.533 
#    1.200    0.000    0.000    0.000    0.000    0.000 
#    0.000    0.000    0.000    0.000    0.000    0.000 
#
# Total GULP energy -335173.927560 kJ/mol
# GULP energy per Si atom -5586.232126 kJ/mol
# Density = 1.907433 g / cm^3
# Si number density = 19.117845 Si / 1000 Ang^3
#
#
#
# Elastic Constant Matrix: (Units=GPa)
#
#
# Indices 1 2 3 4 5 6 
#
# 1 107.9354 44.9900 44.5693 0.0000 0.0000 0.0000
# 2 44.9900 123.4567 56.9534 0.0000 0.0000 0.0000
# 3 44.5693 56.9534 92.6354 0.0000 0.0000 0.0000
# 4 0.0000 0.0000 0.0000 53.0905 0.0000 0.0000
# 5 0.0000 0.0000 0.0000 0.0000 194.6585 0.0000
# 6 0.0000 0.0000 0.0000 0.0000 0.0000 15.6555
#
#
#
# Elastic Compliance Matrix: (Units=1/GPa)
#
#
# Indices 1 2 3 4 5 6 
#
# 1 0.012049 -0.002396 -0.004324 0.000000 0.000000 0.000000
# 2 -0.002396 0.011783 -0.006092 0.000000 0.000000 0.000000
# 3 -0.004324 -0.006092 0.016621 0.000000 0.000000 0.000000
# 4 0.000000 0.000000 0.000000 0.018836 0.000000 0.000000
# 5 0.000000 0.000000 0.000000 0.000000 0.005137 0.000000
# 6 0.000000 0.000000 0.000000 0.000000 0.000000 0.063875
#
#
# Mechanical properties :
#
#
# Convention : Reuss Voigt Hill
#
# Bulk Modulus (GPa) = 67.43335 68.56146 67.99741
# Shear Modulus (GPa) = 31.47263 64.51524 47.99393
#
# Velocity S-wave (km/s) = 4.06179 5.81544 5.01585
# Velocity P-wave (km/s) = 7.57275 9.00183 8.31804
#
# Compressibility (1/GPa) = 0.01482946
#
# Stress axis : x y z
#
# Youngs Moduli (GPa) = 82.99412 84.86448 60.16613
#
# Poissons Ratio (x) = 0.20335 0.26015
# Poissons Ratio (y) = 0.19887 0.36652
# Poissons Ratio (z) = 0.35886 0.51697
#
# Static dielectric constant tensor:
#      x y z
#    x 1.835410 0.000000 0.000000 
#    y 0.000000 1.629660 0.000000 
#    z 0.000000 0.000000 1.612830 
# 
# From -- ./inp_files/33669.got.cif
#   From: 2010.05.17/outbox.cif.g08.bks.cpg/sg73_17_cif.got.tgz:33669.got - 2010.06.03 17:35:07.
