data_PCOD9532240
_publ_section_title
;
Structure prediction by ZEFSAII (Michael W. Deem and Ramdas Pophale) SiO2 
 PCOD9532240
Probable space group: I B C A 
;
_chemical_formula_sum "Si O2"
_cell_formula_units_Z 72
_cell_length_a 24.850773
_cell_length_b 12.392361
_cell_length_c 9.636804
_cell_angle_alpha 90.000000
_cell_angle_beta 90.000000
_cell_angle_gamma 90.000000
_cell_volume 2967.747752
_symmetry_space_group_name_H-M "I B C A "
_symmetry_group_IT_number 73
_symmetry_cell_setting 'orthorhombic'
loop_
_space_group_symop_operation_xyz
x,y,z
-x,1/2-y,z
x,-y,1/2-z
1/2-x,y,-z
-x,-y,-z
x,1/2+y,-z
-x,y,1/2+z
1/2+x,-y,z
1/2+x,1/2+y,1/2+z
1/2-x,-y,1/2+z
1/2+x,1/2-y,-z
-x,1/2+y,1/2-z
1/2-x,1/2-y,1/2-z
1/2+x,y,1/2-z
1/2-x,1/2+y,z
x,1/2-y,1/2+z
loop_
_atom_site_type_symbol
_atom_site_label
_atom_site_fract_x
_atom_site_fract_y
_atom_site_fract_z
Si Si1 0.496550 0.000000 0.250000
Si Si2 0.791739 0.500000 0.250000
Si Si3 0.594421 0.375346 0.366863
Si Si4 0.250000 0.645216 0.000000
Si Si5 0.555470 0.206772 0.141453
Si Si6 0.187212 0.645567 0.514601
O O1 0.452399 0.965266 0.132816
O O2 0.534538 0.899715 0.281571
O O3 0.761173 0.578832 0.358846
O O4 0.827438 0.418681 0.344606
O O5 0.578766 0.294391 0.245823
O O6 0.593760 0.315025 0.514231
O O7 0.656493 0.403993 0.379730
O O8 0.198002 0.725038 0.019121
O O9 0.500000 0.250000 0.074842
O O10 0.250000 0.613303 0.500000
#
# Coordination Sequence:
#
# PCOD9532240 Si02
#       6
#     8   8  16   8  16  16
#     4  10  22  44  72 104 134 180 244 308 374 462
#     4  12  22  48  70 104 140 210 250 314 370 450
#     4  11  24  43  69 103 138 190 236 302 386 442
#     4  10  24  46  74 100 156 194 258 312 380 422
#     4  10  22  43  67  98 139 176 235 306 373 443
#     4  10  26  45  68 106 151 195 256 309 368 457
#
# _framework density 24.260822000000001
#
# number of rings (size 3 to 8) (size 9 to 14) (size 15 to 20)
#    0.667    0.889    1.111    3.333    3.111    3.556 
#    8.000    0.000    0.000    0.000    0.000    0.000 
#    0.000    0.000    0.000    0.000    0.000    0.000 
#
# Total GULP energy -200557.753575 kJ/mol
# GULP energy per Si atom -5571.048710 kJ/mol
# Density = 2.420560 g / cm^3
# Si number density = 24.260822 Si / 1000 Ang^3
#
#
#
# Elastic Constant Matrix: (Units=GPa)
#
#
# Indices 1 2 3 4 5 6 
#
# 1 62.7505 14.4450 27.6222 0.0000 0.0000 0.0000
# 2 14.4450 101.5007 43.8818 0.0000 0.0000 0.0000
# 3 27.6222 43.8818 109.2230 0.0000 0.0000 0.0000
# 4 0.0000 0.0000 0.0000 38.5338 0.0000 0.0000
# 5 0.0000 0.0000 0.0000 0.0000 12.5989 0.0000
# 6 0.0000 0.0000 0.0000 0.0000 0.0000 3.2988
#
#
#
# Elastic Compliance Matrix: (Units=1/GPa)
#
#
# Indices 1 2 3 4 5 6 
#
# 1 0.017975 -0.000717 -0.004258 0.000000 0.000000 0.000000
# 2 -0.000717 0.011952 -0.004620 0.000000 0.000000 0.000000
# 3 -0.004258 -0.004620 0.012089 0.000000 0.000000 0.000000
# 4 0.000000 0.000000 0.000000 0.025951 0.000000 0.000000
# 5 0.000000 0.000000 0.000000 0.000000 0.079372 0.000000
# 6 0.000000 0.000000 0.000000 0.000000 0.000000 0.303140
#
#
# Mechanical properties :
#
#
# Convention : Reuss Voigt Hill
#
# Bulk Modulus (GPa) = 43.81180 49.48580 46.64880
# Shear Modulus (GPa) = 10.47607 23.38798 16.93202
#
# Velocity S-wave (km/s) = 2.08026 3.10824 2.64468
# Velocity P-wave (km/s) = 4.88547 5.77263 5.34748
#
# Compressibility (1/GPa) = 0.02282490
#
# Stress axis : x y z
#
# Youngs Moduli (GPa) = 55.63131 83.66966 82.72233
#
# Poissons Ratio (x) = 0.06003 0.35221
# Poissons Ratio (y) = 0.03991 0.38221
# Poissons Ratio (z) = 0.23686 0.38658
#
# Static dielectric constant tensor:
#      x y z
#    x 3.379080 0.000000 0.000000 
#    y 0.000000 2.020940 0.000000 
#    z 0.000000 0.000000 2.142330 
# 
# From -- ./inp_files/8323.got.cif
#   From: 2010.05.17/outbox.cif.g08.bks.cpg/sg73_5_cif.got.tgz:8323.got - 2010.06.03 17:35:07.
