data_PCOD9532811
_publ_section_title
;
Structure prediction by ZEFSAII (Michael W. Deem and Ramdas Pophale) SiO2 
 PCOD9532811
Probable space group: I B C A 
;
_chemical_formula_sum "Si O2"
_cell_formula_units_Z 80
_cell_length_a 17.295049
_cell_length_b 24.842990
_cell_length_c 7.574598
_cell_angle_alpha 90.000000
_cell_angle_beta 90.000000
_cell_angle_gamma 90.000000
_cell_volume 3254.507301
_symmetry_space_group_name_H-M "I B C A "
_symmetry_group_IT_number 73
_symmetry_cell_setting 'orthorhombic'
loop_
_space_group_symop_operation_xyz
x,y,z
-x,1/2-y,z
x,-y,1/2-z
1/2-x,y,-z
-x,-y,-z
x,1/2+y,-z
-x,y,1/2+z
1/2+x,-y,z
1/2+x,1/2+y,1/2+z
1/2-x,-y,1/2+z
1/2+x,1/2-y,-z
-x,1/2+y,1/2-z
1/2-x,1/2-y,1/2-z
1/2+x,y,1/2-z
1/2-x,1/2+y,z
x,1/2-y,1/2+z
loop_
_atom_site_type_symbol
_atom_site_label
_atom_site_fract_x
_atom_site_fract_y
_atom_site_fract_z
Si Si1 0.102468 0.089809 0.553635
Si Si2 0.678759 0.688564 0.128683
Si Si3 0.417249 0.269005 0.568119
Si Si4 0.338971 0.021539 0.950907
Si Si5 0.067334 0.379096 0.650705
O O1 0.169767 0.124722 0.642842
O O2 0.121404 0.027165 0.556852
O O3 0.096470 0.111791 0.351052
O O4 0.022137 0.104020 0.646050
O O5 0.658744 0.715017 0.316190
O O6 0.750000 0.699389 0.000000
O O7 0.606191 0.714758 0.029427
O O8 0.500000 0.250000 0.650484
O O9 0.425331 0.320134 0.436391
O O10 0.342705 0.000000 0.750000
O O11 0.385324 0.077041 0.962207
O O12 0.250000 0.028259 0.000000
#
# Coordination Sequence:
#
# PCOD9532811 Si02
#       5
#    16  16  16  16  16
#     4  11  23  43  66 101 136 176 230 278 342 408
#     4  12  26  43  68 100 138 180 228 288 347 409
#     4  12  25  44  69  99 136 181 234 285 343 411
#     4  10  24  43  67  99 139 178 222 280 343 410
#     4  11  24  42  70  98 132 180 231 282 336 412
#
# _framework density 24.581295000000001
#
# number of rings (size 3 to 8) (size 9 to 14) (size 15 to 20)
#    0.000    0.800    2.000    4.800    0.000    7.200 
#    0.000    0.000    0.000    0.000    0.000    0.000 
#    0.000    0.000    0.000    0.000    0.000    0.000 
#
# Total GULP energy -223569.805056 kJ/mol
# GULP energy per Si atom -5589.245126 kJ/mol
# Density = 2.452535 g / cm^3
# Si number density = 24.581295 Si / 1000 Ang^3
#
#
#
# Elastic Constant Matrix: (Units=GPa)
#
#
# Indices 1 2 3 4 5 6 
#
# 1 84.0198 26.5083 1.7694 0.0000 0.0000 0.0000
# 2 26.5083 154.4645 28.2559 0.0000 0.0000 0.0000
# 3 1.7694 28.2559 53.0586 0.0000 0.0000 0.0000
# 4 0.0000 0.0000 0.0000 -20.9976 0.0000 0.0000
# 5 0.0000 0.0000 0.0000 0.0000 9.7702 0.0000
# 6 0.0000 0.0000 0.0000 0.0000 0.0000 28.4112
#
#
#
# Elastic Compliance Matrix: (Units=1/GPa)
#
#
# Indices 1 2 3 4 5 6 
#
# 1 0.012615 -0.002313 0.000811 0.000000 0.000000 0.000000
# 2 -0.002313 0.007597 -0.003969 0.000000 0.000000 0.000000
# 3 0.000811 -0.003969 0.020933 0.000000 0.000000 0.000000
# 4 0.000000 0.000000 0.000000 -0.047624 0.000000 0.000000
# 5 0.000000 0.000000 0.000000 0.000000 0.102352 0.000000
# 6 0.000000 0.000000 0.000000 0.000000 0.000000 0.035197
#
#
# Mechanical properties :
#
#
# Convention : Reuss Voigt Hill
#
# Bulk Modulus (GPa) = 33.10826 44.95667 39.03247
# Shear Modulus (GPa) = 32.87756 19.10402 25.99079
#
# Velocity S-wave (km/s) = 3.66116 2.79081 3.25520
# Velocity P-wave (km/s) = 5.60091 5.35850 5.48105
#
# Compressibility (1/GPa) = 0.03020394
#
# Stress axis : x y z
#
# Youngs Moduli (GPa) = 79.27255 131.63229 47.77044
#
# Poissons Ratio (x) = 0.30450 -0.03875
# Poissons Ratio (y) = 0.18338 0.18958
# Poissons Ratio (z) = -0.06431 0.52239
#
# Static dielectric constant tensor:
#      x y z
#    x 1.887930 0.000000 0.000000 
#    y 0.000000 1.900350 0.000000 
#    z 0.000000 0.000000 2.051930 
# 
# From -- ./inp_files/5568.got.cif
#   From: 2010.05.17/outbox.cif.g08.bks.cpg/sg73_3_cif.got.tgz:5568.got - 2010.06.03 17:35:07.
