data_PCOD9532516
_publ_section_title
;
Structure prediction by ZEFSAII (Michael W. Deem and Ramdas Pophale) SiO2 
 PCOD9532516
Probable space group: I B C A 
;
_chemical_formula_sum "Si O2"
_cell_formula_units_Z 64
_cell_length_a 8.452998
_cell_length_b 22.051222
_cell_length_c 14.047364
_cell_angle_alpha 90.000000
_cell_angle_beta 90.000000
_cell_angle_gamma 90.000000
_cell_volume 2618.413696
_symmetry_space_group_name_H-M "I B C A "
_symmetry_group_IT_number 73
_symmetry_cell_setting 'orthorhombic'
loop_
_space_group_symop_operation_xyz
x,y,z
-x,1/2-y,z
x,-y,1/2-z
1/2-x,y,-z
-x,-y,-z
x,1/2+y,-z
-x,y,1/2+z
1/2+x,-y,z
1/2+x,1/2+y,1/2+z
1/2-x,-y,1/2+z
1/2+x,1/2-y,-z
-x,1/2+y,1/2-z
1/2-x,1/2-y,1/2-z
1/2+x,y,1/2-z
1/2-x,1/2+y,z
x,1/2-y,1/2+z
loop_
_atom_site_type_symbol
_atom_site_label
_atom_site_fract_x
_atom_site_fract_y
_atom_site_fract_z
Si Si1 0.535511 0.986408 0.142904
Si Si2 0.059334 0.400693 0.487750
Si Si3 0.486501 0.821685 0.333458
Si Si4 0.834614 0.375431 0.645461
O O1 0.370903 0.947776 0.154095
O O2 0.586423 0.000000 0.250000
O O3 0.506726 0.045793 0.080316
O O4 0.635017 0.939409 0.076144
O O5 0.124595 0.350205 0.415977
O O6 0.922336 0.364692 0.545698
O O7 0.500000 0.750000 0.338984
O O8 0.658274 0.851902 0.347158
O O9 0.425128 0.843224 0.231543
#
# Coordination Sequence:
#
# PCOD9532516 Si02
#       4
#    16  16  16  16
#     4   9  17  39  69 103 135 168 222 284 357 417
#     4   9  19  40  68  99 131 174 227 283 349 414
#     4  12  24  43  65  94 137 187 233 281 338 409
#     4  10  23  42  66  98 134 178 228 284 345 405
#
# _framework density 24.442281999999999
#
# number of rings (size 3 to 8) (size 9 to 14) (size 15 to 20)
#    1.500    0.500    2.500    1.500    0.000    1.000 
#    4.500    6.250    0.000    0.000    0.000    0.000 
#    0.000    0.000    0.000    0.000    0.000    0.000 
#
# Total GULP energy -178493.650478 kJ/mol
# GULP energy per Si atom -5577.926577 kJ/mol
# Density = 2.438665 g / cm^3
# Si number density = 24.442282 Si / 1000 Ang^3
#
#
#
# Elastic Constant Matrix: (Units=GPa)
#
#
# Indices 1 2 3 4 5 6 
#
# 1 81.9924 51.3668 37.2014 -0.0001 0.0000 0.0000
# 2 51.3668 165.9180 89.8100 -0.0001 0.0000 0.0000
# 3 37.2014 89.8100 230.9839 -0.0011 0.0000 0.0000
# 4 -0.0001 -0.0001 -0.0011 -71.2564 0.0001 0.0000
# 5 0.0000 0.0000 0.0000 0.0001 23.2662 0.0000
# 6 0.0000 0.0000 0.0000 0.0000 0.0000 15.7006
#
#
#
# Elastic Compliance Matrix: (Units=1/GPa)
#
#
# Indices 1 2 3 4 5 6 
#
# 1 0.015243 -0.004294 -0.000785 0.000000 0.000000 0.000000
# 2 -0.004294 0.008843 -0.002747 0.000000 0.000000 0.000000
# 3 -0.000785 -0.002747 0.005524 0.000000 0.000000 0.000000
# 4 0.000000 0.000000 0.000000 -0.014034 0.000000 0.000000
# 5 0.000000 0.000000 0.000000 0.000000 0.042981 0.000000
# 6 0.000000 0.000000 0.000000 0.000000 0.000000 0.063692
#
#
# Mechanical properties :
#
#
# Convention : Reuss Voigt Hill
#
# Bulk Modulus (GPa) = 71.64606 92.85009 82.24807
# Shear Modulus (GPa) = 35.07457 13.57647 24.32552
#
# Velocity S-wave (km/s) = 3.79224 2.35936 3.15814
# Velocity P-wave (km/s) = 6.96784 6.74478 6.85722
#
# Compressibility (1/GPa) = 0.01395750
#
# Stress axis : x y z
#
# Youngs Moduli (GPa) = 65.60544 113.08053 181.03440
#
# Poissons Ratio (x) = 0.48555 0.14219
# Poissons Ratio (y) = 0.28170 0.49727
# Poissons Ratio (z) = 0.05153 0.31061
#
# Static dielectric constant tensor:
#      x y z
#    x 2.087320 0.000000 0.000000 
#    y 0.000000 1.891190 0.000000 
#    z 0.000000 0.000000 1.928910 
# 
# From -- ./inp_files/20568.got.cif
#   From: 2010.05.17/outbox.cif.g08.bks.cpg/sg73_11_cif.got.tgz:20568.got - 2010.06.03 17:35:07.
