data_PCOD9532653
_publ_section_title
;
Structure prediction by ZEFSAII (Michael W. Deem and Ramdas Pophale) SiO2 
 PCOD9532653
Probable space group: I B C A 
;
_chemical_formula_sum "Si O2"
_cell_formula_units_Z 112
_cell_length_a 22.456261
_cell_length_b 13.573261
_cell_length_c 14.712348
_cell_angle_alpha 90.000000
_cell_angle_beta 90.000000
_cell_angle_gamma 90.000000
_cell_volume 4484.392695
_symmetry_space_group_name_H-M "I B C A "
_symmetry_group_IT_number 73
_symmetry_cell_setting 'orthorhombic'
loop_
_space_group_symop_operation_xyz
x,y,z
-x,1/2-y,z
x,-y,1/2-z
1/2-x,y,-z
-x,-y,-z
x,1/2+y,-z
-x,y,1/2+z
1/2+x,-y,z
1/2+x,1/2+y,1/2+z
1/2-x,-y,1/2+z
1/2+x,1/2-y,-z
-x,1/2+y,1/2-z
1/2-x,1/2-y,1/2-z
1/2+x,y,1/2-z
1/2-x,1/2+y,z
x,1/2-y,1/2+z
loop_
_atom_site_type_symbol
_atom_site_label
_atom_site_fract_x
_atom_site_fract_y
_atom_site_fract_z
Si Si1 0.705216 0.611569 0.418597
Si Si2 0.984336 0.083308 0.071547
Si Si3 0.633346 0.311847 0.370996
Si Si4 0.736229 0.314735 0.661443
Si Si5 0.068013 0.217139 0.297042
Si Si6 0.236390 0.000000 0.250000
Si Si7 0.460509 0.000000 0.750000
Si Si8 0.404791 0.319839 0.514854
O O1 0.750000 0.583196 0.500000
O O2 0.709634 0.731579 0.404041
O O3 0.725812 0.559254 0.325866
O O4 0.635482 0.593604 0.440999
O O5 0.918604 0.126676 0.080132
O O6 0.999207 0.036396 0.167827
O O7 0.035073 0.159679 0.040554
O O8 0.000000 0.000000 0.000000
O O9 0.699338 0.354143 0.370803
O O10 0.610473 0.277481 0.271907
O O11 0.638028 0.216059 0.434030
O O12 0.750000 0.250000 0.750000
O O13 0.702806 0.413340 0.694083
O O14 0.079937 0.248864 0.400694
O O15 0.000000 0.250000 0.275622
O O16 0.072230 0.100133 0.280996
#
# Coordination Sequence:
#
# PCOD9532653 Si02
#       8
#    16  16  16  16  16   8   8  16
#     4  11  24  49  74 108 150 199 250 317 383 458
#     4  12  27  45  73 116 150 196 259 305 389 476
#     4  12  23  46  75 100 157 196 243 319 380 457
#     4  10  23  46  72 107 143 192 253 310 384 450
#     4  12  23  44  70 102 146 195 245 306 383 450
#     4  10  24  45  77 112 146 190 260 318 380 450
#     4  12  24  45  71 106 150 190 250 310 372 462
#     4  12  25  47  73 103 155 201 245 316 380 461
#
# _framework density 24.97551
#
# number of rings (size 3 to 8) (size 9 to 14) (size 15 to 20)
#    0.000    0.571    4.286    4.714    2.000    1.143 
#    0.000   10.000    0.000    0.000    0.000    0.000 
#    0.000    0.000    0.000    0.000    0.000    0.000 
#
# Total GULP energy -312952.381952 kJ/mol
# GULP energy per Si atom -5588.435392 kJ/mol
# Density = 2.491866 g / cm^3
# Si number density = 24.975510 Si / 1000 Ang^3
#
#
#
# Elastic Constant Matrix: (Units=GPa)
#
#
# Indices 1 2 3 4 5 6 
#
# 1 139.1158 23.3244 14.6662 0.0000 0.0000 0.0000
# 2 23.3244 110.7665 15.4036 0.0000 0.0000 0.0000
# 3 14.6662 15.4036 139.6401 0.0000 0.0000 0.0000
# 4 0.0000 0.0000 0.0000 46.2766 0.0000 0.0000
# 5 0.0000 0.0000 0.0000 0.0000 33.3497 0.0000
# 6 0.0000 0.0000 0.0000 0.0000 0.0000 24.3273
#
#
#
# Elastic Compliance Matrix: (Units=1/GPa)
#
#
# Indices 1 2 3 4 5 6 
#
# 1 0.007504 -0.001494 -0.000623 0.000000 0.000000 0.000000
# 2 -0.001494 0.009466 -0.000887 0.000000 0.000000 0.000000
# 3 -0.000623 -0.000887 0.007325 0.000000 0.000000 0.000000
# 4 0.000000 0.000000 0.000000 0.021609 0.000000 0.000000
# 5 0.000000 0.000000 0.000000 0.000000 0.029985 0.000000
# 6 0.000000 0.000000 0.000000 0.000000 0.000000 0.041106
#
#
# Mechanical properties :
#
#
# Convention : Reuss Voigt Hill
#
# Bulk Modulus (GPa) = 54.68554 55.14566 54.91560
# Shear Modulus (GPa) = 38.72983 43.19926 40.96455
#
# Velocity S-wave (km/s) = 3.94218 4.16344 4.05432
# Velocity P-wave (km/s) = 6.53179 6.72608 6.62964
#
# Compressibility (1/GPa) = 0.01828637
#
# Stress axis : x y z
#
# Youngs Moduli (GPa) = 133.25533 105.64244 136.52579
#
# Poissons Ratio (x) = 0.15778 0.08511
# Poissons Ratio (y) = 0.19902 0.12114
# Poissons Ratio (z) = 0.08307 0.09374
#
# Static dielectric constant tensor:
#      x y z
#    x 2.026410 0.000000 0.000000 
#    y 0.000000 2.114240 0.000000 
#    z 0.000000 0.000000 1.970540 
# 
# From -- ./inp_files/19440.got.cif
#   From: 2010.05.17/outbox.cif.g08.bks.cpg/sg73_10_cif.got.tgz:19440.got - 2010.06.03 17:35:07.
