data_PCOD9532770
_publ_section_title
;
Structure prediction by ZEFSAII (Michael W. Deem and Ramdas Pophale) SiO2 
 PCOD9532770
Probable space group: I B C A 
;
_chemical_formula_sum "Si O2"
_cell_formula_units_Z 64
_cell_length_a 29.214827
_cell_length_b 10.048339
_cell_length_c 9.430652
_cell_angle_alpha 90.000000
_cell_angle_beta 90.000000
_cell_angle_gamma 90.000000
_cell_volume 2768.466780
_symmetry_space_group_name_H-M "I B C A "
_symmetry_group_IT_number 73
_symmetry_cell_setting 'orthorhombic'
loop_
_space_group_symop_operation_xyz
x,y,z
-x,1/2-y,z
x,-y,1/2-z
1/2-x,y,-z
-x,-y,-z
x,1/2+y,-z
-x,y,1/2+z
1/2+x,-y,z
1/2+x,1/2+y,1/2+z
1/2-x,-y,1/2+z
1/2+x,1/2-y,-z
-x,1/2+y,1/2-z
1/2-x,1/2-y,1/2-z
1/2+x,y,1/2-z
1/2-x,1/2+y,z
x,1/2-y,1/2+z
loop_
_atom_site_type_symbol
_atom_site_label
_atom_site_fract_x
_atom_site_fract_y
_atom_site_fract_z
Si Si1 0.372506 0.108235 0.035894
Si Si2 0.794731 0.915893 0.538958
Si Si3 0.324036 0.754620 0.706389
Si Si4 0.478513 0.902248 0.383973
O O1 0.344563 0.160896 0.172285
O O2 0.424883 0.108471 0.078325
O O3 0.365149 0.191163 0.891354
O O4 0.344639 0.976324 0.994576
O O5 0.750000 0.003285 0.500000
O O6 0.791380 0.806815 0.412967
O O7 0.798532 0.863922 0.698449
O O8 0.500000 0.750000 0.373842
O O9 0.483321 0.000000 0.250000
O O10 0.500000 0.000000 0.500000
#
# Coordination Sequence:
#
# PCOD9532770 Si02
#       4
#    16  16  16  16
#     4  11  26  45  71 101 146 192 249 317 382 461
#     4  11  23  42  69 105 145 196 250 305 376 459
#     4  10  24  42  68  98 146 191 246 307 379 449
#     4  12  30  51  82 118 157 205 266 331 407 480
#
# _framework density 23.117488000000002
#
# number of rings (size 3 to 8) (size 9 to 14) (size 15 to 20)
#    0.000    1.000    0.000    4.500   14.000    8.000 
#    0.000    0.000    0.000    0.000    0.000    0.000 
#    0.000    0.000    0.000    0.000    0.000    0.000 
#
# Total GULP energy -178413.089736 kJ/mol
# GULP energy per Si atom -5575.409054 kJ/mol
# Density = 2.306487 g / cm^3
# Si number density = 23.117488 Si / 1000 Ang^3
#
#
#
# Elastic Constant Matrix: (Units=GPa)
#
#
# Indices 1 2 3 4 5 6 
#
# 1 112.0406 31.7814 9.5510 0.0000 0.0000 0.0000
# 2 31.7814 109.3739 32.0426 0.0000 0.0000 0.0000
# 3 9.5510 32.0426 154.7145 0.0000 0.0000 0.0000
# 4 0.0000 0.0000 0.0000 38.0449 0.0000 0.0000
# 5 0.0000 0.0000 0.0000 0.0000 32.8647 0.0000
# 6 0.0000 0.0000 0.0000 0.0000 0.0000 21.7184
#
#
#
# Elastic Compliance Matrix: (Units=1/GPa)
#
#
# Indices 1 2 3 4 5 6 
#
# 1 0.009727 -0.002822 -0.000016 0.000000 0.000000 0.000000
# 2 -0.002822 0.010552 -0.002011 0.000000 0.000000 0.000000
# 3 -0.000016 -0.002011 0.006881 0.000000 0.000000 0.000000
# 4 0.000000 0.000000 0.000000 0.026285 0.000000 0.000000
# 5 0.000000 0.000000 0.000000 0.000000 0.030428 0.000000
# 6 0.000000 0.000000 0.000000 0.000000 0.000000 0.046044
#
#
# Mechanical properties :
#
#
# Convention : Reuss Voigt Hill
#
# Bulk Modulus (GPa) = 57.26672 58.09769 57.68220
# Shear Modulus (GPa) = 34.37948 38.70920 36.54434
#
# Velocity S-wave (km/s) = 3.86056 4.09645 3.98025
# Velocity P-wave (km/s) = 6.68563 6.89642 6.79184
#
# Compressibility (1/GPa) = 0.01746215
#
# Stress axis : x y z
#
# Youngs Moduli (GPa) = 102.80526 94.76785 145.32667
#
# Poissons Ratio (x) = 0.26741 0.00234
# Poissons Ratio (y) = 0.29009 0.29228
# Poissons Ratio (z) = 0.00165 0.19060
#
# Static dielectric constant tensor:
#      x y z
#    x 5.624230 0.000000 0.000000 
#    y 0.000000 2.067350 0.000000 
#    z 0.000000 0.000000 2.132720 
# 
# From -- ./inp_files/8220.got.cif
#   From: 2010.05.17/outbox.cif.g08.bks.cpg/sg73_5_cif.got.tgz:8220.got - 2010.06.03 17:35:07.
