data_PCOD9532309
_publ_section_title
;
Structure prediction by ZEFSAII (Michael W. Deem and Ramdas Pophale) SiO2 
 PCOD9532309
Probable space group: I B C A 
;
_chemical_formula_sum "Si O2"
_cell_formula_units_Z 72
_cell_length_a 14.348838
_cell_length_b 23.953241
_cell_length_c 9.877673
_cell_angle_alpha 90.000000
_cell_angle_beta 90.000000
_cell_angle_gamma 90.000000
_cell_volume 3394.967813
_symmetry_space_group_name_H-M "I B C A "
_symmetry_group_IT_number 73
_symmetry_cell_setting 'orthorhombic'
loop_
_space_group_symop_operation_xyz
x,y,z
-x,1/2-y,z
x,-y,1/2-z
1/2-x,y,-z
-x,-y,-z
x,1/2+y,-z
-x,y,1/2+z
1/2+x,-y,z
1/2+x,1/2+y,1/2+z
1/2-x,-y,1/2+z
1/2+x,1/2-y,-z
-x,1/2+y,1/2-z
1/2-x,1/2-y,1/2-z
1/2+x,y,1/2-z
1/2-x,1/2+y,z
x,1/2-y,1/2+z
loop_
_atom_site_type_symbol
_atom_site_label
_atom_site_fract_x
_atom_site_fract_y
_atom_site_fract_z
Si Si1 0.250000 0.096520 0.500000
Si Si2 0.698527 0.291013 0.857982
Si Si3 0.431878 0.531836 0.392212
Si Si4 0.593990 0.686168 0.063878
Si Si5 0.551631 0.852077 0.280892
O O1 0.330009 0.054120 0.557307
O O2 0.181909 0.142836 0.572325
O O3 0.750000 0.250000 0.750000
O O4 0.616974 0.249019 0.899391
O O5 0.653924 0.345566 0.788383
O O6 0.750000 0.303132 0.000000
O O7 0.420560 0.500000 0.250000
O O8 0.500000 0.500000 0.500000
O O9 0.477921 0.589853 0.347083
O O10 0.520730 0.662506 0.167594
O O11 0.559496 0.687219 0.910159
#
# Coordination Sequence:
#
# PCOD9532309 Si02
#       5
#     8  16  16  16  16
#     4  10  22  44  70  98 136 178 234 304 374 452
#     4  12  23  42  66  99 147 189 241 297 365 451
#     4  11  24  47  71 100 137 180 241 309 380 443
#     4  11  23  44  66  99 145 185 240 298 369 454
#     4  11  25  42  67 102 136 192 241 298 373 445
#
# _framework density 21.207858999999999
#
# number of rings (size 3 to 8) (size 9 to 14) (size 15 to 20)
#    0.000    0.889    3.333    4.667    3.111    4.444 
#    2.000    0.000    0.000    0.000    0.000    0.000 
#    0.000    0.000    0.000    0.000    0.000    0.000 
#
# Total GULP energy -200421.636994 kJ/mol
# GULP energy per Si atom -5567.267694 kJ/mol
# Density = 2.115959 g / cm^3
# Si number density = 21.207859 Si / 1000 Ang^3
#
#
#
# Elastic Constant Matrix: (Units=GPa)
#
#
# Indices 1 2 3 4 5 6 
#
# 1 126.3290 34.7527 71.5423 0.0000 0.0000 0.0000
# 2 34.7527 73.3671 21.1940 0.0000 -0.0001 0.0000
# 3 71.5423 21.1940 132.5718 0.0008 0.0001 0.0005
# 4 0.0000 0.0000 0.0008 41.3730 0.0000 0.0002
# 5 0.0000 -0.0001 0.0001 0.0000 14.1873 -0.0001
# 6 0.0000 0.0000 0.0005 0.0002 -0.0001 35.1196
#
#
#
# Elastic Compliance Matrix: (Units=1/GPa)
#
#
# Indices 1 2 3 4 5 6 
#
# 1 0.012507 -0.004167 -0.006083 0.000000 0.000000 0.000000
# 2 -0.004167 0.015678 -0.000258 0.000000 0.000000 0.000000
# 3 -0.006083 -0.000258 0.010867 0.000000 0.000000 0.000000
# 4 0.000000 0.000000 0.000000 0.024170 0.000000 0.000000
# 5 0.000000 0.000000 0.000000 0.000000 0.070485 0.000000
# 6 0.000000 0.000000 0.000000 0.000000 0.000000 0.028474
#
#
# Mechanical properties :
#
#
# Convention : Reuss Voigt Hill
#
# Bulk Modulus (GPa) = 55.44312 65.24954 60.34633
# Shear Modulus (GPa) = 26.42547 31.78792 29.10669
#
# Velocity S-wave (km/s) = 3.53373 3.87573 3.70868
# Velocity P-wave (km/s) = 6.54593 7.13175 6.84511
#
# Compressibility (1/GPa) = 0.01803650
#
# Stress axis : x y z
#
# Youngs Moduli (GPa) = 79.95309 63.78194 92.02028
#
# Poissons Ratio (x) = 0.26579 0.55979
# Poissons Ratio (y) = 0.33318 0.02371
# Poissons Ratio (z) = 0.48639 0.01644
#
# Static dielectric constant tensor:
#      x y z
#    x 1.849680 0.000000 0.000000 
#    y 0.000000 1.839730 0.000000 
#    z 0.000000 0.000000 1.819040 
# 
# From -- ./inp_files/4833.got.cif
#   From: 2010.05.17/outbox.cif.g08.bks.cpg/sg73_3_cif.got.tgz:4833.got - 2010.06.03 17:35:07.
