data_PCOD9532017
_publ_section_title
;
Structure prediction by ZEFSAII (Michael W. Deem and Ramdas Pophale) SiO2 
 PCOD9532017
Probable space group: I B C A 
;
_chemical_formula_sum "Si O2"
_cell_formula_units_Z 88
_cell_length_a 13.850266
_cell_length_b 21.285980
_cell_length_c 13.372471
_cell_angle_alpha 90.000000
_cell_angle_beta 90.000000
_cell_angle_gamma 90.000000
_cell_volume 3942.424897
_symmetry_space_group_name_H-M "I B C A "
_symmetry_group_IT_number 73
_symmetry_cell_setting 'orthorhombic'
loop_
_space_group_symop_operation_xyz
x,y,z
-x,1/2-y,z
x,-y,1/2-z
1/2-x,y,-z
-x,-y,-z
x,1/2+y,-z
-x,y,1/2+z
1/2+x,-y,z
1/2+x,1/2+y,1/2+z
1/2-x,-y,1/2+z
1/2+x,1/2-y,-z
-x,1/2+y,1/2-z
1/2-x,1/2-y,1/2-z
1/2+x,y,1/2-z
1/2-x,1/2+y,z
x,1/2-y,1/2+z
loop_
_atom_site_type_symbol
_atom_site_label
_atom_site_fract_x
_atom_site_fract_y
_atom_site_fract_z
Si Si1 0.346575 0.717894 0.797671
Si Si2 0.005396 0.660376 0.853632
Si Si3 0.930590 0.029914 0.078879
Si Si4 0.212605 0.893029 0.326856
Si Si5 0.500000 0.750000 0.458708
Si Si6 0.750000 0.492915 0.000000
Si Si7 0.312307 0.000000 0.250000
O O1 0.250000 0.750000 0.750000
O O2 0.427958 0.698038 0.714936
O O3 0.299983 0.654901 0.844071
O O4 0.406598 0.752590 0.885539
O O5 0.114785 0.647563 0.814811
O O6 0.967980 0.590036 0.865842
O O7 0.008855 0.692204 0.963302
O O8 0.885529 0.983368 0.161069
O O9 0.834763 0.041745 0.018593
O O10 0.000000 0.000000 0.000000
O O11 0.208330 0.944219 0.416489
O O12 0.244675 0.939157 0.235753
#
# Coordination Sequence:
#
# PCOD9532017 Si02
#       7
#    16  16  16  16   8   8   8
#     4  12  27  49  72 105 146 191 251 304 367 439
#     4  12  26  47  73 107 144 196 246 306 372 435
#     4  11  23  44  69 107 144 182 244 293 371 446
#     4  11  22  45  70 100 147 189 236 299 368 438
#     4  12  28  48  74 106 142 194 254 306 366 428
#     4  10  22  40  66 104 138 188 232 292 366 434
#     4  10  24  44  70 110 146 198 230 304 374 444
#
# _framework density 22.321287999999999
#
# number of rings (size 3 to 8) (size 9 to 14) (size 15 to 20)
#    0.000    0.727    3.636    3.818    2.545    4.364 
#    6.545    0.000    0.000    0.000    0.000    0.000 
#    0.000    0.000    0.000    0.000    0.000    0.000 
#
# Total GULP energy -244989.164237 kJ/mol
# GULP energy per Si atom -5567.935551 kJ/mol
# Density = 2.227048 g / cm^3
# Si number density = 22.321288 Si / 1000 Ang^3
#
#
#
# Elastic Constant Matrix: (Units=GPa)
#
#
# Indices 1 2 3 4 5 6 
#
# 1 186.6610 38.0435 65.2312 -0.0001 0.0000 0.0000
# 2 38.0435 63.4064 19.2863 -0.0003 0.0000 0.0000
# 3 65.2312 19.2863 91.5010 -0.0005 0.0000 0.0000
# 4 -0.0001 -0.0003 -0.0005 32.7877 0.0000 0.0000
# 5 0.0000 0.0000 0.0000 0.0000 30.2721 0.0000
# 6 0.0000 0.0000 0.0000 0.0000 0.0000 54.8871
#
#
#
# Elastic Compliance Matrix: (Units=1/GPa)
#
#
# Indices 1 2 3 4 5 6 
#
# 1 0.007680 -0.003144 -0.004812 0.000000 0.000000 0.000000
# 2 -0.003144 0.018139 -0.001582 0.000000 0.000000 0.000000
# 3 -0.004812 -0.001582 0.014693 0.000000 0.000000 0.000000
# 4 0.000000 0.000000 0.000000 0.030499 0.000000 0.000000
# 5 0.000000 0.000000 0.000000 0.000000 0.033034 0.000000
# 6 0.000000 0.000000 0.000000 0.000000 0.000000 0.018219
#
#
# Mechanical properties :
#
#
# Convention : Reuss Voigt Hill
#
# Bulk Modulus (GPa) = 46.65215 65.18783 55.91999
# Shear Modulus (GPa) = 33.67342 38.18989 35.93165
#
# Velocity S-wave (km/s) = 3.88826 4.14081 4.01652
# Velocity P-wave (km/s) = 6.41122 7.22008 6.82764
#
# Compressibility (1/GPa) = 0.02143524
#
# Stress axis : x y z
#
# Youngs Moduli (GPa) = 130.21156 55.13027 68.06006
#
# Poissons Ratio (x) = 0.17334 0.32752
# Poissons Ratio (y) = 0.40940 0.10766
# Poissons Ratio (z) = 0.62661 0.08721
#
# Static dielectric constant tensor:
#      x y z
#    x 1.863810 0.000000 0.000000 
#    y 0.000000 1.848850 0.000000 
#    z 0.000000 0.000000 2.071450 
# 
# From -- ./inp_files/16158.got.cif
#   From: 2010.05.17/outbox.cif.g08.bks.cpg/sg73_9_cif.got.tgz:16158.got - 2010.06.03 17:35:07.
