data_PCOD9532977
_publ_section_title
;
Structure prediction by ZEFSAII (Michael W. Deem and Ramdas Pophale) SiO2 
 PCOD9532977
Probable space group: I B C A 
;
_chemical_formula_sum "Si O2"
_cell_formula_units_Z 80
_cell_length_a 28.759610
_cell_length_b 12.239959
_cell_length_c 9.847705
_cell_angle_alpha 90.000000
_cell_angle_beta 90.000000
_cell_angle_gamma 90.000000
_cell_volume 3466.554128
_symmetry_space_group_name_H-M "I B C A "
_symmetry_group_IT_number 73
_symmetry_cell_setting 'orthorhombic'
loop_
_space_group_symop_operation_xyz
x,y,z
-x,1/2-y,z
x,-y,1/2-z
1/2-x,y,-z
-x,-y,-z
x,1/2+y,-z
-x,y,1/2+z
1/2+x,-y,z
1/2+x,1/2+y,1/2+z
1/2-x,-y,1/2+z
1/2+x,1/2-y,-z
-x,1/2+y,1/2-z
1/2-x,1/2-y,1/2-z
1/2+x,y,1/2-z
1/2-x,1/2+y,z
x,1/2-y,1/2+z
loop_
_atom_site_type_symbol
_atom_site_label
_atom_site_fract_x
_atom_site_fract_y
_atom_site_fract_z
Si Si1 0.047488 0.893046 0.338633
Si Si2 0.691316 0.169181 0.617845
Si Si3 0.945371 0.851365 0.316694
Si Si4 0.898445 0.538104 0.583148
Si Si5 0.294329 0.122714 0.797272
O O1 0.059205 0.774693 0.279902
O O2 0.089790 0.918606 0.437263
O O3 0.994484 0.873561 0.390123
O O4 0.043834 0.000000 0.250000
O O5 0.647614 0.090705 0.642911
O O6 0.687682 0.289576 0.685631
O O7 0.694310 0.162881 0.452231
O O8 0.737937 0.124318 0.690120
O O9 0.940527 0.912256 0.173283
O O10 0.905350 0.908159 0.406811
O O11 0.308483 0.000000 0.750000
#
# Coordination Sequence:
#
# PCOD9532977 Si02
#       5
#    16  16  16  16  16
#     4  11  24  42  69  96 143 189 241 292 360 422
#     4  10  25  45  74 109 147 188 250 304 368 455
#     4  10  25  42  65 101 136 191 233 298 357 414
#     4  11  24  43  68 101 141 184 242 295 348 436
#     4  10  24  48  75 108 150 196 234 308 388 451
#
# _framework density 23.077673000000001
#
# number of rings (size 3 to 8) (size 9 to 14) (size 15 to 20)
#    0.000    1.600    2.000    0.600    8.400   10.400 
#    0.000    0.000    0.000    0.000    0.000    0.000 
#    0.000    0.000    0.000    0.000    0.000    0.000 
#
# Total GULP energy -222801.528870 kJ/mol
# GULP energy per Si atom -5570.038222 kJ/mol
# Density = 2.302515 g / cm^3
# Si number density = 23.077673 Si / 1000 Ang^3
#
#
#
# Elastic Constant Matrix: (Units=GPa)
#
#
# Indices 1 2 3 4 5 6 
#
# 1 107.0337 49.2673 20.0432 0.0000 0.0000 0.0000
# 2 49.2673 213.5155 59.9485 0.0000 0.0000 0.0000
# 3 20.0432 59.9485 67.8863 0.0000 0.0000 0.0000
# 4 0.0000 0.0000 0.0000 19.9105 0.0000 0.0000
# 5 0.0000 0.0000 0.0000 0.0000 38.0470 0.0000
# 6 0.0000 0.0000 0.0000 0.0000 0.0000 29.7795
#
#
#
# Elastic Compliance Matrix: (Units=1/GPa)
#
#
# Indices 1 2 3 4 5 6 
#
# 1 0.010536 -0.002071 -0.001282 0.000000 0.000000 0.000000
# 2 -0.002071 0.006635 -0.005247 0.000000 0.000000 0.000000
# 3 -0.001282 -0.005247 0.019743 0.000000 0.000000 0.000000
# 4 0.000000 0.000000 0.000000 0.050225 0.000000 0.000000
# 5 0.000000 0.000000 0.000000 0.000000 0.026283 0.000000
# 6 0.000000 0.000000 0.000000 0.000000 0.000000 0.033580
#
#
# Mechanical properties :
#
#
# Convention : Reuss Voigt Hill
#
# Bulk Modulus (GPa) = 50.72801 71.88373 61.30587
# Shear Modulus (GPa) = 29.27851 34.82585 32.05218
#
# Velocity S-wave (km/s) = 3.56574 3.88889 3.73081
# Velocity P-wave (km/s) = 6.24354 7.16804 6.72171
#
# Compressibility (1/GPa) = 0.01971297
#
# Stress axis : x y z
#
# Youngs Moduli (GPa) = 94.91013 150.72149 50.65143
#
# Poissons Ratio (x) = 0.31219 0.06492
# Poissons Ratio (y) = 0.19659 0.26579
# Poissons Ratio (z) = 0.12164 0.79090
#
# Static dielectric constant tensor:
#      x y z
#    x 1.909460 0.000000 0.000000 
#    y 0.000000 1.954670 0.000000 
#    z 0.000000 0.000000 1.922100 
# 
# From -- ./inp_files/14595.got.cif
#   From: 2010.05.17/outbox.cif.g08.bks.cpg/sg73_8_cif.got.tgz:14595.got - 2010.06.03 17:35:07.
