data_PCOD9532027
_publ_section_title
;
Structure prediction by ZEFSAII (Michael W. Deem and Ramdas Pophale) SiO2 
 PCOD9532027
Probable space group: I B C A 
;
_chemical_formula_sum "Si O2"
_cell_formula_units_Z 120
_cell_length_a 22.741709
_cell_length_b 20.394680
_cell_length_c 12.097366
_cell_angle_alpha 90.000000
_cell_angle_beta 90.000000
_cell_angle_gamma 90.000000
_cell_volume 5610.877845
_symmetry_space_group_name_H-M "I B C A "
_symmetry_group_IT_number 73
_symmetry_cell_setting 'orthorhombic'
loop_
_space_group_symop_operation_xyz
x,y,z
-x,1/2-y,z
x,-y,1/2-z
1/2-x,y,-z
-x,-y,-z
x,1/2+y,-z
-x,y,1/2+z
1/2+x,-y,z
1/2+x,1/2+y,1/2+z
1/2-x,-y,1/2+z
1/2+x,1/2-y,-z
-x,1/2+y,1/2-z
1/2-x,1/2-y,1/2-z
1/2+x,y,1/2-z
1/2-x,1/2+y,z
x,1/2-y,1/2+z
loop_
_atom_site_type_symbol
_atom_site_label
_atom_site_fract_x
_atom_site_fract_y
_atom_site_fract_z
Si Si1 0.813926 0.439004 0.825766
Si Si2 0.347186 0.997586 0.955114
Si Si3 0.999325 0.672643 0.369701
Si Si4 0.116487 0.111206 0.210296
Si Si5 0.951500 0.568962 0.700001
Si Si6 0.260089 0.825984 0.770500
Si Si7 0.050892 0.590926 0.553896
Si Si8 0.750000 0.109791 0.000000
O O1 0.791266 0.500000 0.750000
O O2 0.881848 0.429383 0.795658
O O3 0.777709 0.374204 0.805821
O O4 0.816879 0.458136 0.952687
O O5 0.407242 0.963745 0.000143
O O6 0.301654 0.936877 0.951583
O O7 0.362163 0.044396 0.851388
O O8 0.027482 0.631258 0.270026
O O9 0.039512 0.652560 0.474974
O O10 0.000000 0.750000 0.352862
O O11 0.931634 0.646668 0.368398
O O12 0.172603 0.154849 0.242669
O O13 0.083516 0.099238 0.327727
O O14 0.972515 0.500000 0.750000
O O15 0.984601 0.571341 0.583577
O O16 0.250000 0.750000 0.750000
O O17 0.238033 0.845235 0.893951
#
# Coordination Sequence:
#
# PCOD9532027 Si02
#       8
#    16  16  16  16  16  16  16   8
#     4  11  23  42  73 109 139 195 250 316 365 451
#     4  12  23  42  78 109 149 190 261 316 383 446
#     4  11  26  44  69 103 150 207 248 301 391 476
#     4  11  26  46  72 109 146 199 253 321 377 449
#     4  10  22  40  68 100 144 180 251 313 374 434
#     4  12  29  49  74 109 157 200 254 314 384 461
#     4  11  22  42  70 106 144 191 243 315 378 443
#     4  12  26  46  78 104 150 210 244 314 386 448
#
# _framework density 21.387027
#
# number of rings (size 3 to 8) (size 9 to 14) (size 15 to 20)
#    0.000    0.800    2.667    5.200    1.867    4.800 
#    2.400    0.000    0.000    0.000    0.000    0.000 
#    0.000    0.000    0.000    0.000    0.000    0.000 
#
# Total GULP energy -335006.006020 kJ/mol
# GULP energy per Si atom -5583.433434 kJ/mol
# Density = 2.133835 g / cm^3
# Si number density = 21.387027 Si / 1000 Ang^3
#
#
#
# Elastic Constant Matrix: (Units=GPa)
#
#
# Indices 1 2 3 4 5 6 
#
# 1 101.3841 70.6200 34.9809 0.0000 0.0000 0.0000
# 2 70.6200 179.2414 54.7628 0.0000 0.0000 0.0000
# 3 34.9809 54.7628 88.2530 0.0000 0.0000 0.0000
# 4 0.0000 0.0000 0.0000 30.4849 0.0000 0.0000
# 5 0.0000 0.0000 0.0000 0.0000 23.0320 0.0000
# 6 0.0000 0.0000 0.0000 0.0000 0.0000 -7.5446
#
#
#
# Elastic Compliance Matrix: (Units=1/GPa)
#
#
# Indices 1 2 3 4 5 6 
#
# 1 0.014075 -0.004740 -0.002638 0.000000 0.000000 0.000000
# 2 -0.004740 0.008480 -0.003384 0.000000 0.000000 0.000000
# 3 -0.002638 -0.003384 0.014476 0.000000 0.000000 0.000000
# 4 0.000000 0.000000 0.000000 0.032803 0.000000 0.000000
# 5 0.000000 0.000000 0.000000 0.000000 0.043418 0.000000
# 6 0.000000 0.000000 0.000000 0.000000 0.000000 -0.132545
#
#
# Mechanical properties :
#
#
# Convention : Reuss Voigt Hill
#
# Bulk Modulus (GPa) = 64.47690 76.62285 70.54988
# Shear Modulus (GPa) = 675.76385 23.09544 349.42964
#
# Velocity S-wave (km/s) = 17.79480 3.28972 12.79604
# Velocity P-wave (km/s) = 21.27016 7.09466 15.85487
#
# Compressibility (1/GPa) = 0.01550943
#
# Stress axis : x y z
#
# Youngs Moduli (GPa) = 71.04791 117.92240 69.07883
#
# Poissons Ratio (x) = 0.55889 0.18223
# Poissons Ratio (y) = 0.33673 0.23373
# Poissons Ratio (z) = 0.18742 0.39899
#
# Static dielectric constant tensor:
#      x y z
#    x 1.831830 0.000000 0.000000 
#    y 0.000000 1.755160 0.000000 
#    z 0.000000 0.000000 1.876180 
# 
# From -- ./inp_files/13832.got.cif
#   From: 2010.05.17/outbox.cif.g08.bks.cpg/sg73_7_cif.got.tgz:13832.got - 2010.06.03 17:35:07.
