data_PCOD9532485
_publ_section_title
;
Structure prediction by ZEFSAII (Michael W. Deem and Ramdas Pophale) SiO2 
 PCOD9532485
Probable space group: I B C A 
;
_chemical_formula_sum "Si O2"
_cell_formula_units_Z 64
_cell_length_a 10.515553
_cell_length_b 9.263616
_cell_length_c 30.897585
_cell_angle_alpha 90.000000
_cell_angle_beta 90.000000
_cell_angle_gamma 90.000000
_cell_volume 3009.796941
_symmetry_space_group_name_H-M "I B C A "
_symmetry_group_IT_number 73
_symmetry_cell_setting 'orthorhombic'
loop_
_space_group_symop_operation_xyz
x,y,z
-x,1/2-y,z
x,-y,1/2-z
1/2-x,y,-z
-x,-y,-z
x,1/2+y,-z
-x,y,1/2+z
1/2+x,-y,z
1/2+x,1/2+y,1/2+z
1/2-x,-y,1/2+z
1/2+x,1/2-y,-z
-x,1/2+y,1/2-z
1/2-x,1/2-y,1/2-z
1/2+x,y,1/2-z
1/2-x,1/2+y,z
x,1/2-y,1/2+z
loop_
_atom_site_type_symbol
_atom_site_label
_atom_site_fract_x
_atom_site_fract_y
_atom_site_fract_z
Si Si1 0.883532 0.358874 0.370260
Si Si2 0.023312 0.417884 0.572128
Si Si3 0.745625 0.915009 0.546258
Si Si4 0.633310 0.839019 0.270262
O O1 0.784158 0.331442 0.409377
O O2 0.837069 0.352026 0.321573
O O3 0.000000 0.250000 0.375313
O O4 0.939846 0.517036 0.381389
O O5 0.891219 0.482869 0.555458
O O6 0.000000 0.250000 0.571301
O O7 0.141611 0.468192 0.543561
O O8 0.750000 0.836767 0.500000
O O9 0.500000 0.750000 0.265627
O O10 0.750000 0.750000 0.250000
O O11 0.622473 0.000000 0.250000
#
# Coordination Sequence:
#
# PCOD9532485 Si02
#       4
#    16  16  16  16
#     4   9  24  43  68  98 144 178 231 288 352 414
#     4  10  24  40  67  98 136 185 236 281 344 410
#     4  10  23  41  66  96 143 184 232 281 345 413
#     4  11  25  47  75 106 144 187 237 300 365 435
#
# _framework density 21.263892999999999
#
# number of rings (size 3 to 8) (size 9 to 14) (size 15 to 20)
#    1.500    0.500    0.000    1.500    3.500   11.000 
#    0.000    0.000    0.000    0.000    0.000    0.000 
#    0.000    0.000    0.000    0.000    0.000    0.000 
#
# Total GULP energy -178310.455920 kJ/mol
# GULP energy per Si atom -5572.201748 kJ/mol
# Density = 2.121550 g / cm^3
# Si number density = 21.263893 Si / 1000 Ang^3
#
#
#
# Elastic Constant Matrix: (Units=GPa)
#
#
# Indices 1 2 3 4 5 6 
#
# 1 155.2616 41.5865 72.7672 0.0000 0.0000 0.0000
# 2 41.5865 82.9538 60.4531 0.0000 0.0000 0.0000
# 3 72.7672 60.4531 197.7035 0.0000 0.0000 0.0000
# 4 0.0000 0.0000 0.0000 26.0700 0.0000 0.0000
# 5 0.0000 0.0000 0.0000 0.0000 98.6118 0.0000
# 6 0.0000 0.0000 0.0000 0.0000 0.0000 19.5604
#
#
#
# Elastic Compliance Matrix: (Units=1/GPa)
#
#
# Indices 1 2 3 4 5 6 
#
# 1 0.008151 -0.002445 -0.002253 0.000000 0.000000 0.000000
# 2 -0.002445 0.016245 -0.004067 0.000000 0.000000 0.000000
# 3 -0.002253 -0.004067 0.007131 0.000000 0.000000 0.000000
# 4 0.000000 0.000000 0.000000 0.038358 0.000000 0.000000
# 5 0.000000 0.000000 0.000000 0.000000 0.010141 0.000000
# 6 0.000000 0.000000 0.000000 0.000000 0.000000 0.051124
#
#
# Mechanical properties :
#
#
# Convention : Reuss Voigt Hill
#
# Bulk Modulus (GPa) = 71.44271 87.28139 79.36205
# Shear Modulus (GPa) = 32.60618 46.25592 39.43105
#
# Velocity S-wave (km/s) = 3.92012 4.66910 4.31091
# Velocity P-wave (km/s) = 7.35941 8.37873 7.88556
#
# Compressibility (1/GPa) = 0.01399723
#
# Stress axis : x y z
#
# Youngs Moduli (GPa) = 122.67939 61.55857 140.23465
#
# Poissons Ratio (x) = 0.15050 0.31590
# Poissons Ratio (y) = 0.29993 0.57039
# Poissons Ratio (z) = 0.27635 0.25038
#
# Static dielectric constant tensor:
#      x y z
#    x 1.791040 0.000000 0.000000 
#    y 0.000000 1.803230 0.000000 
#    z 0.000000 0.000000 1.769540 
# 
# From -- ./inp_files/33770.got.cif
#   From: 2010.05.17/outbox.cif.g08.bks.cpg/sg73_17_cif.got.tgz:33770.got - 2010.06.03 17:35:07.
