data_PCOD9532202
_publ_section_title
;
Structure prediction by ZEFSAII (Michael W. Deem and Ramdas Pophale) SiO2 
 PCOD9532202
Probable space group: I B C A 
;
_chemical_formula_sum "Si O2"
_cell_formula_units_Z 88
_cell_length_a 13.360948
_cell_length_b 18.880515
_cell_length_c 16.116995
_cell_angle_alpha 90.000000
_cell_angle_beta 90.000000
_cell_angle_gamma 90.000000
_cell_volume 4065.698610
_symmetry_space_group_name_H-M "I B C A "
_symmetry_group_IT_number 73
_symmetry_cell_setting 'orthorhombic'
loop_
_space_group_symop_operation_xyz
x,y,z
-x,1/2-y,z
x,-y,1/2-z
1/2-x,y,-z
-x,-y,-z
x,1/2+y,-z
-x,y,1/2+z
1/2+x,-y,z
1/2+x,1/2+y,1/2+z
1/2-x,-y,1/2+z
1/2+x,1/2-y,-z
-x,1/2+y,1/2-z
1/2-x,1/2-y,1/2-z
1/2+x,y,1/2-z
1/2-x,1/2+y,z
x,1/2-y,1/2+z
loop_
_atom_site_type_symbol
_atom_site_label
_atom_site_fract_x
_atom_site_fract_y
_atom_site_fract_z
Si Si1 0.385544 0.410833 0.962298
Si Si2 0.171160 0.686716 0.728932
Si Si3 0.193573 0.047027 0.368007
Si Si4 0.250000 0.651615 0.000000
Si Si5 0.902916 0.905300 0.871343
Si Si6 0.889909 0.229247 0.948368
O O1 0.299857 0.455495 0.916021
O O2 0.486934 0.413308 0.909861
O O3 0.387103 0.436316 0.057984
O O4 0.356474 0.328757 0.982547
O O5 0.250000 0.750000 0.750000
O O6 0.215695 0.612303 0.694095
O O7 0.107833 0.661103 0.808565
O O8 0.106847 0.705856 0.647524
O O9 0.144795 0.976187 0.332454
O O10 0.173371 0.608013 0.946290
O O11 0.317294 0.704115 0.946129
O O12 0.000000 0.250000 0.975929
#
# Coordination Sequence:
#
# PCOD9532202 Si02
#       6
#    16  16  16   8  16  16
#     4  10  22  42  71  95 131 180 226 275 344 397
#     4  11  24  43  64  96 142 177 219 280 341 397
#     4  10  23  44  67  96 139 174 226 287 333 400
#     4  12  22  40  70  98 134 170 228 280 332 396
#     4  12  24  42  69 100 132 182 226 273 342 412
#     4  11  22  42  66 100 133 174 220 280 331 398
#
# _framework density 21.644496
#
# number of rings (size 3 to 8) (size 9 to 14) (size 15 to 20)
#    0.000    1.091    3.636    4.364    0.000    1.455 
#    0.000    1.818    0.000    0.000    0.000    0.000 
#    0.000    0.000    0.000    0.000    0.000    0.000 
#
# Total GULP energy -245037.642644 kJ/mol
# GULP energy per Si atom -5569.037333 kJ/mol
# Density = 2.159523 g / cm^3
# Si number density = 21.644496 Si / 1000 Ang^3
#
#
#
# Elastic Constant Matrix: (Units=GPa)
#
#
# Indices 1 2 3 4 5 6 
#
# 1 136.6243 45.9497 43.1246 0.0000 0.0000 0.0000
# 2 45.9497 107.7808 35.2112 0.0000 0.0000 0.0000
# 3 43.1246 35.2112 98.4877 0.0000 0.0000 0.0000
# 4 0.0000 0.0000 0.0000 2.8021 0.0000 0.0000
# 5 0.0000 0.0000 0.0000 0.0000 18.6416 0.0000
# 6 0.0000 0.0000 0.0000 0.0000 0.0000 15.5182
#
#
#
# Elastic Compliance Matrix: (Units=1/GPa)
#
#
# Indices 1 2 3 4 5 6 
#
# 1 0.009264 -0.002971 -0.002994 0.000000 0.000000 0.000000
# 2 -0.002971 0.011458 -0.002795 0.000000 0.000000 0.000000
# 3 -0.002994 -0.002795 0.012464 0.000000 0.000000 0.000000
# 4 0.000000 0.000000 0.000000 0.356869 0.000000 0.000000
# 5 0.000000 0.000000 0.000000 0.000000 0.053643 0.000000
# 6 0.000000 0.000000 0.000000 0.000000 0.000000 0.064440
#
#
# Mechanical properties :
#
#
# Convention : Reuss Voigt Hill
#
# Bulk Modulus (GPa) = 63.83937 65.71820 64.77878
# Shear Modulus (GPa) = 9.41830 21.96623 15.69226
#
# Velocity S-wave (km/s) = 2.08825 3.18915 2.69550
# Velocity P-wave (km/s) = 5.94752 6.63245 6.29930
#
# Compressibility (1/GPa) = 0.01566432
#
# Stress axis : x y z
#
# Youngs Moduli (GPa) = 107.94867 87.27484 80.23137
#
# Poissons Ratio (x) = 0.25931 0.24021
# Poissons Ratio (y) = 0.32074 0.22428
# Poissons Ratio (z) = 0.32320 0.24397
#
# Static dielectric constant tensor:
#      x y z
#    x 1.746590 0.000000 0.000000 
#    y 0.000000 1.854050 0.000000 
#    z 0.000000 0.000000 1.855190 
# 
# From -- ./inp_files/16956.got.cif
#   From: 2010.05.17/outbox.cif.g08.bks.cpg/sg73_9_cif.got.tgz:16956.got - 2010.06.03 17:35:07.
