data_PCOD9532807
_publ_section_title
;
Structure prediction by ZEFSAII (Michael W. Deem and Ramdas Pophale) SiO2 
 PCOD9532807
Probable space group: I B C A 
;
_chemical_formula_sum "Si O2"
_cell_formula_units_Z 96
_cell_length_a 8.527413
_cell_length_b 21.376192
_cell_length_c 23.602136
_cell_angle_alpha 90.000000
_cell_angle_beta 90.000000
_cell_angle_gamma 90.000000
_cell_volume 4302.282732
_symmetry_space_group_name_H-M "I B C A "
_symmetry_group_IT_number 73
_symmetry_cell_setting 'orthorhombic'
loop_
_space_group_symop_operation_xyz
x,y,z
-x,1/2-y,z
x,-y,1/2-z
1/2-x,y,-z
-x,-y,-z
x,1/2+y,-z
-x,y,1/2+z
1/2+x,-y,z
1/2+x,1/2+y,1/2+z
1/2-x,-y,1/2+z
1/2+x,1/2-y,-z
-x,1/2+y,1/2-z
1/2-x,1/2-y,1/2-z
1/2+x,y,1/2-z
1/2-x,1/2+y,z
x,1/2-y,1/2+z
loop_
_atom_site_type_symbol
_atom_site_label
_atom_site_fract_x
_atom_site_fract_y
_atom_site_fract_z
Si Si1 0.489210 0.094729 0.558495
Si Si2 0.288525 0.993917 0.087540
Si Si3 0.430998 0.588701 0.133185
Si Si4 0.912358 0.313447 0.033196
Si Si5 0.458781 0.184115 0.164031
Si Si6 0.394243 0.311384 0.282576
O O1 0.338125 0.051442 0.560673
O O2 0.483943 0.146313 0.510274
O O3 0.519569 0.129368 0.618561
O O4 0.629627 0.045643 0.548058
O O5 0.420816 0.949455 0.111974
O O6 0.204086 0.036589 0.135065
O O7 0.464775 0.626670 0.189436
O O8 0.386550 0.642263 0.087290
O O9 0.000000 0.250000 0.049250
O O10 0.750000 0.301087 0.000000
O O11 0.500000 0.250000 0.134017
O O12 0.584207 0.180592 0.215296
O O13 0.285353 0.189442 0.193568
O O14 0.500000 0.250000 0.297478
#
# Coordination Sequence:
#
# PCOD9532807 Si02
#       6
#    16  16  16  16  16  16
#     4  11  24  44  66  94 131 161 218 254 313 377
#     4  10  24  43  67  92 126 176 207 257 308 372
#     4  11  24  44  66  94 131 161 218 254 313 377
#     4  12  26  43  67  98 128 165 206 264 320 369
#     4  11  23  41  66  95 125 166 211 264 319 373
#     4  11  23  41  66  95 125 166 211 264 319 373
#
# _framework density 22.313735999999999
#
# number of rings (size 3 to 8) (size 9 to 14) (size 15 to 20)
#    0.000    1.000    3.333    3.000    7.000    4.000 
#    0.000    5.000    0.000    0.000    0.000    0.000 
#    0.000    0.000    0.000    0.000    0.000    0.000 
#
# Total GULP energy -268420.237229 kJ/mol
# GULP energy per Si atom -5592.088276 kJ/mol
# Density = 2.226295 g / cm^3
# Si number density = 22.313736 Si / 1000 Ang^3
#
#
#
# Elastic Constant Matrix: (Units=GPa)
#
#
# Indices 1 2 3 4 5 6 
#
# 1 88.7110 52.4050 12.8756 0.0000 0.0000 0.0000
# 2 52.4050 135.7438 37.5565 0.0000 0.0000 0.0000
# 3 12.8756 37.5565 70.1208 0.0000 0.0000 0.0000
# 4 0.0000 0.0000 0.0000 -5.0091 0.0000 0.0000
# 5 0.0000 0.0000 0.0000 0.0000 19.1961 0.0000
# 6 0.0000 0.0000 0.0000 0.0000 0.0000 32.8638
#
#
#
# Elastic Compliance Matrix: (Units=1/GPa)
#
#
# Indices 1 2 3 4 5 6 
#
# 1 0.014612 -0.005751 0.000397 0.000000 0.000000 0.000000
# 2 -0.005751 0.010912 -0.004788 0.000000 0.000000 0.000000
# 3 0.000397 -0.004788 0.016753 0.000000 0.000000 0.000000
# 4 0.000000 0.000000 0.000000 -0.199638 0.000000 0.000000
# 5 0.000000 0.000000 0.000000 0.000000 0.052094 0.000000
# 6 0.000000 0.000000 0.000000 0.000000 0.000000 0.030429
#
#
# Mechanical properties :
#
#
# Convention : Reuss Voigt Hill
#
# Bulk Modulus (GPa) = 45.47024 55.58331 50.52677
# Shear Modulus (GPa) = -105.88121 22.19274 -41.84424
#
# Velocity S-wave (km/s) = -6.89595 3.15711 -4.33513
# Velocity P-wave (km/s) = 6.55619 6.18497 1.53782
#
# Compressibility (1/GPa) = 0.02199241
#
# Stress axis : x y z
#
# Youngs Moduli (GPa) = 68.43549 91.64329 59.69147
#
# Poissons Ratio (x) = 0.52705 -0.02371
# Poissons Ratio (y) = 0.39358 0.28582
# Poissons Ratio (z) = -0.02718 0.43882
#
# Static dielectric constant tensor:
#      x y z
#    x 1.870590 0.000000 0.000000 
#    y 0.000000 1.815790 0.000000 
#    z 0.000000 0.000000 1.814980 
# 
# From -- ./inp_files/24867.got.cif
#   From: 2010.05.17/outbox.cif.g08.bks.cpg/sg73_13_cif.got.tgz:24867.got - 2010.06.03 17:35:07.
