data_PCOD9532249
_publ_section_title
;
Structure prediction by ZEFSAII (Michael W. Deem and Ramdas Pophale) SiO2 
 PCOD9532249
Probable space group: I B C A 
;
_chemical_formula_sum "Si O2"
_cell_formula_units_Z 112
_cell_length_a 23.470342
_cell_length_b 10.301014
_cell_length_c 20.286907
_cell_angle_alpha 90.000000
_cell_angle_beta 90.000000
_cell_angle_gamma 90.000000
_cell_volume 4904.731454
_symmetry_space_group_name_H-M "I B C A "
_symmetry_group_IT_number 73
_symmetry_cell_setting 'orthorhombic'
loop_
_space_group_symop_operation_xyz
x,y,z
-x,1/2-y,z
x,-y,1/2-z
1/2-x,y,-z
-x,-y,-z
x,1/2+y,-z
-x,y,1/2+z
1/2+x,-y,z
1/2+x,1/2+y,1/2+z
1/2-x,-y,1/2+z
1/2+x,1/2-y,-z
-x,1/2+y,1/2-z
1/2-x,1/2-y,1/2-z
1/2+x,y,1/2-z
1/2-x,1/2+y,z
x,1/2-y,1/2+z
loop_
_atom_site_type_symbol
_atom_site_label
_atom_site_fract_x
_atom_site_fract_y
_atom_site_fract_z
Si Si1 0.171955 0.485836 0.320126
Si Si2 0.267371 0.928075 0.576919
Si Si3 0.863370 0.780127 0.409352
Si Si4 0.013022 0.452264 0.821675
Si Si5 0.544979 0.077303 0.449232
Si Si6 0.910601 0.725525 0.654431
Si Si7 0.352078 0.624737 0.453268
O O1 0.202929 0.500000 0.250000
O O2 0.213750 0.432539 0.375940
O O3 0.138628 0.611249 0.351498
O O4 0.128546 0.368974 0.304373
O O5 0.250000 0.901616 0.500000
O O6 0.296602 0.069687 0.581462
O O7 0.317163 0.832692 0.603644
O O8 0.923422 0.720590 0.440626
O O9 0.836577 0.848612 0.472613
O O10 0.996123 0.500000 0.750000
O O11 0.021381 0.561940 0.875379
O O12 0.069527 0.362327 0.815190
O O13 0.966614 0.359583 0.854703
O O14 0.599889 0.985749 0.455951
O O15 0.500000 0.000000 0.500000
O O16 0.880282 0.757665 0.585876
#
# Coordination Sequence:
#
# PCOD9532249 Si02
#       7
#    16  16  16  16  16  16  16
#     4  12  28  44  68 103 144 188 242 308 372 446
#     4  11  24  44  70  99 134 187 246 299 365 448
#     4  11  25  42  69 103 139 184 239 300 372 436
#     4  10  22  43  71  96 133 190 233 284 373 439
#     4  10  23  42  68 104 142 180 234 295 356 436
#     4  10  23  44  68  98 142 178 236 302 360 448
#     4  10  22  43  69 102 132 181 233 294 366 430
#
# _framework density 22.835093000000001
#
# number of rings (size 3 to 8) (size 9 to 14) (size 15 to 20)
#    0.000    1.429    1.429    2.143   10.000    2.286 
#    0.000    1.429    0.000    0.000    0.000    0.000 
#    0.000    0.000    0.000    0.000    0.000    0.000 
#
# Total GULP energy -311824.203460 kJ/mol
# GULP energy per Si atom -5568.289348 kJ/mol
# Density = 2.278312 g / cm^3
# Si number density = 22.835093 Si / 1000 Ang^3
#
#
#
# Elastic Constant Matrix: (Units=GPa)
#
#
# Indices 1 2 3 4 5 6 
#
# 1 79.0402 16.3655 10.3714 0.0000 0.0000 0.0000
# 2 16.3655 58.6220 38.3528 0.0000 0.0000 0.0000
# 3 10.3714 38.3528 96.8032 0.0000 0.0000 0.0000
# 4 0.0000 0.0000 0.0000 -2.1011 0.0000 0.0000
# 5 0.0000 0.0000 0.0000 0.0000 21.9754 0.0000
# 6 0.0000 0.0000 0.0000 0.0000 0.0000 34.1862
#
#
#
# Elastic Compliance Matrix: (Units=1/GPa)
#
#
# Indices 1 2 3 4 5 6 
#
# 1 0.013428 -0.003790 0.000063 0.000000 0.000000 0.000000
# 2 -0.003790 0.024097 -0.009141 0.000000 0.000000 0.000000
# 3 0.000063 -0.009141 0.013945 0.000000 0.000000 0.000000
# 4 0.000000 0.000000 0.000000 -0.475933 0.000000 0.000000
# 5 0.000000 0.000000 0.000000 0.000000 0.045506 0.000000
# 6 0.000000 0.000000 0.000000 0.000000 0.000000 0.029252
#
#
# Mechanical properties :
#
#
# Convention : Reuss Voigt Hill
#
# Bulk Modulus (GPa) = 38.85885 40.51610 39.68748
# Shear Modulus (GPa) = -15.85332 22.10379 3.12523
#
# Velocity S-wave (km/s) = -2.63773 3.11460 1.17115
# Velocity P-wave (km/s) = 2.78878 5.54218 4.38709
#
# Compressibility (1/GPa) = 0.02573416
#
# Stress axis : x y z
#
# Youngs Moduli (GPa) = 74.46982 41.49924 71.70975
#
# Poissons Ratio (x) = 0.15728 -0.00451
# Poissons Ratio (y) = 0.28223 0.65550
# Poissons Ratio (z) = -0.00468 0.37934
#
# Static dielectric constant tensor:
#      x y z
#    x 1.891520 0.000000 0.000000 
#    y 0.000000 1.933390 0.000000 
#    z 0.000000 0.000000 1.816400 
# 
# From -- ./inp_files/27299.got.cif
#   From: 2010.05.17/outbox.cif.g08.bks.cpg/sg73_14_cif.got.tgz:27299.got - 2010.06.03 17:35:07.
