data_PCOD9532443
_publ_section_title
;
Structure prediction by ZEFSAII (Michael W. Deem and Ramdas Pophale) SiO2 
 PCOD9532443
Probable space group: I B C A 
;
_chemical_formula_sum "Si O2"
_cell_formula_units_Z 64
_cell_length_a 5.304174
_cell_length_b 16.291786
_cell_length_c 28.426499
_cell_angle_alpha 90.000000
_cell_angle_beta 90.000000
_cell_angle_gamma 90.000000
_cell_volume 2456.460780
_symmetry_space_group_name_H-M "I B C A "
_symmetry_group_IT_number 73
_symmetry_cell_setting 'orthorhombic'
loop_
_space_group_symop_operation_xyz
x,y,z
-x,1/2-y,z
x,-y,1/2-z
1/2-x,y,-z
-x,-y,-z
x,1/2+y,-z
-x,y,1/2+z
1/2+x,-y,z
1/2+x,1/2+y,1/2+z
1/2-x,-y,1/2+z
1/2+x,1/2-y,-z
-x,1/2+y,1/2-z
1/2-x,1/2-y,1/2-z
1/2+x,y,1/2-z
1/2-x,1/2+y,z
x,1/2-y,1/2+z
loop_
_atom_site_type_symbol
_atom_site_label
_atom_site_fract_x
_atom_site_fract_y
_atom_site_fract_z
Si Si1 0.328174 0.406039 0.230485
Si Si2 0.949010 0.841902 0.464219
Si Si3 0.220936 0.553282 0.091350
Si Si4 0.945541 0.841635 0.356414
O O1 0.354374 0.500000 0.250000
O O2 0.599119 0.367651 0.239787
O O3 0.229481 0.394391 0.177718
O O4 0.750000 0.881439 0.500000
O O5 0.840969 0.834148 0.410223
O O6 0.000000 0.750000 0.480700
O O7 0.208480 0.888738 0.452425
O O8 0.453463 0.488637 0.090377
O O9 0.792747 0.390889 0.136042
O O10 0.000000 0.750000 0.339425
#
# Coordination Sequence:
#
# PCOD9532443 Si02
#       4
#    16  16  16  16
#     4  10  23  39  67  96 132 176 226 284 347 407
#     4   9  21  42  65  99 139 185 228 281 342 414
#     4  10  23  40  68  96 137 178 229 284 339 405
#     4   9  22  45  65 101 138 183 232 288 344 413
#
# _framework density 26.053742
#
# number of rings (size 3 to 8) (size 9 to 14) (size 15 to 20)
#    1.500    1.000    0.000    0.000    7.000    4.000 
#    0.000    3.750    0.000    0.000    0.000    0.000 
#    0.000    0.000    0.000    0.000    0.000    0.000 
#
# Total GULP energy -178714.571915 kJ/mol
# GULP energy per Si atom -5584.830372 kJ/mol
# Density = 2.599444 g / cm^3
# Si number density = 26.053742 Si / 1000 Ang^3
#
#
#
# Elastic Constant Matrix: (Units=GPa)
#
#
# Indices 1 2 3 4 5 6 
#
# 1 99.8333 28.2128 23.6468 0.0000 0.0000 0.0000
# 2 28.2128 128.2213 -0.2929 0.0000 0.0000 0.0000
# 3 23.6468 -0.2929 130.7369 0.0000 0.0000 0.0000
# 4 0.0000 0.0000 0.0000 -366.3308 0.0000 0.0000
# 5 0.0000 0.0000 0.0000 0.0000 43.7926 0.0000
# 6 0.0000 0.0000 0.0000 0.0000 0.0000 7.3431
#
#
#
# Elastic Compliance Matrix: (Units=1/GPa)
#
#
# Indices 1 2 3 4 5 6 
#
# 1 0.011195 -0.002468 -0.002030 0.000000 0.000000 0.000000
# 2 -0.002468 0.008343 0.000465 0.000000 0.000000 0.000000
# 3 -0.002030 0.000465 0.008017 0.000000 0.000000 0.000000
# 4 0.000000 0.000000 0.000000 -0.002730 0.000000 0.000000
# 5 0.000000 0.000000 0.000000 0.000000 0.022835 0.000000
# 6 0.000000 0.000000 0.000000 0.000000 0.000000 0.136183
#
#
# Mechanical properties :
#
#
# Convention : Reuss Voigt Hill
#
# Bulk Modulus (GPa) = 51.31130 51.32499 51.31815
# Shear Modulus (GPa) = 25.20080 -42.55736 -8.67828
#
# Velocity S-wave (km/s) = 3.11346 -4.04597 -1.82706
# Velocity P-wave (km/s) = 5.71507 1.44365 3.91011
#
# Compressibility (1/GPa) = 0.01948888
#
# Stress axis : x y z
#
# Youngs Moduli (GPa) = 89.32515 119.85959 124.73124
#
# Poissons Ratio (x) = 0.29580 0.25326
# Poissons Ratio (y) = 0.22045 -0.05801
# Poissons Ratio (z) = 0.18137 -0.05574
#
# Static dielectric constant tensor:
#      x y z
#    x 2.099330 0.000000 0.000000 
#    y 0.000000 2.174770 0.000000 
#    z 0.000000 0.000000 2.170860 
# 
# From -- ./inp_files/33183.got.cif
#   From: 2010.05.17/outbox.cif.g08.bks.cpg/sg73_17_cif.got.tgz:33183.got - 2010.06.03 17:35:07.
