data_PCOD9532566
_publ_section_title
;
Structure prediction by ZEFSAII (Michael W. Deem and Ramdas Pophale) SiO2 
 PCOD9532566
Probable space group: I B C A 
;
_chemical_formula_sum "Si O2"
_cell_formula_units_Z 120
_cell_length_a 26.772227
_cell_length_b 17.765918
_cell_length_c 12.080350
_cell_angle_alpha 90.000000
_cell_angle_beta 90.000000
_cell_angle_gamma 90.000000
_cell_volume 5745.815401
_symmetry_space_group_name_H-M "I B C A "
_symmetry_group_IT_number 73
_symmetry_cell_setting 'orthorhombic'
loop_
_space_group_symop_operation_xyz
x,y,z
-x,1/2-y,z
x,-y,1/2-z
1/2-x,y,-z
-x,-y,-z
x,1/2+y,-z
-x,y,1/2+z
1/2+x,-y,z
1/2+x,1/2+y,1/2+z
1/2-x,-y,1/2+z
1/2+x,1/2-y,-z
-x,1/2+y,1/2-z
1/2-x,1/2-y,1/2-z
1/2+x,y,1/2-z
1/2-x,1/2+y,z
x,1/2-y,1/2+z
loop_
_atom_site_type_symbol
_atom_site_label
_atom_site_fract_x
_atom_site_fract_y
_atom_site_fract_z
Si Si1 0.147164 0.000000 0.250000
Si Si2 0.770708 0.415878 0.375229
Si Si3 0.415502 0.438340 0.619200
Si Si4 0.115247 0.214557 0.597339
Si Si5 0.920700 0.121313 0.629306
Si Si6 0.821096 0.385664 0.769032
Si Si7 0.538159 0.101941 0.843430
Si Si8 0.201017 0.746871 0.576077
O O1 0.183915 0.970508 0.153596
O O2 0.112584 0.934388 0.297609
O O3 0.750000 0.423684 0.500000
O O4 0.724947 0.423746 0.291524
O O5 0.790134 0.330428 0.358255
O O6 0.415096 0.400231 0.500163
O O7 0.358958 0.439407 0.664939
O O8 0.444751 0.392184 0.714777
O O9 0.441227 0.520359 0.617552
O O10 0.097841 0.293680 0.648048
O O11 0.148534 0.161327 0.676090
O O12 0.065502 0.164704 0.582072
O O13 0.150592 0.234176 0.494216
O O14 0.979078 0.109664 0.653297
O O15 0.802842 0.321327 0.852425
O O16 0.250000 0.754019 0.500000
#
# Coordination Sequence:
#
# PCOD9532566 Si02
#       8
#     8  16  16  16  16  16  16  16
#     4  12  30  40  70 100 140 184 218 294 338 420
#     4  11  25  44  65  98 138 182 226 279 350 415
#     4  10  23  43  71  96 128 184 219 281 341 403
#     4  11  23  43  70 100 131 178 223 282 337 407
#     4  12  25  48  64 103 138 172 232 278 349 400
#     4  11  22  42  68  99 134 174 229 274 334 416
#     4  10  24  45  70  97 133 179 229 283 337 404
#     4  11  22  40  68  96 136 177 220 278 344 402
#
# _framework density 20.884764000000001
#
# number of rings (size 3 to 8) (size 9 to 14) (size 15 to 20)
#    0.000    1.067    4.000    2.800    3.733    4.267 
#    2.400    1.333    0.000    0.000    0.000    0.000 
#    0.000    0.000    0.000    0.000    0.000    0.000 
#
# Total GULP energy -335468.237328 kJ/mol
# GULP energy per Si atom -5591.137289 kJ/mol
# Density = 2.083723 g / cm^3
# Si number density = 20.884764 Si / 1000 Ang^3
#
#
#
# Elastic Constant Matrix: (Units=GPa)
#
#
# Indices 1 2 3 4 5 6 
#
# 1 172.1863 60.4178 33.2556 0.0000 0.0000 0.0000
# 2 60.4178 96.2758 8.9770 0.0000 0.0000 0.0000
# 3 33.2556 8.9770 58.0086 0.0000 0.0000 0.0000
# 4 0.0000 0.0000 0.0000 40.3640 0.0000 0.0000
# 5 0.0000 0.0000 0.0000 0.0000 -2.9629 0.0000
# 6 0.0000 0.0000 0.0000 0.0000 0.0000 -19.8499
#
#
#
# Elastic Compliance Matrix: (Units=1/GPa)
#
#
# Indices 1 2 3 4 5 6 
#
# 1 0.008270 -0.004817 -0.003995 0.000000 0.000000 0.000000
# 2 -0.004817 0.013345 0.000696 0.000000 0.000000 0.000000
# 3 -0.003995 0.000696 0.019422 0.000000 0.000000 0.000000
# 4 0.000000 0.000000 0.000000 0.024775 0.000000 0.000000
# 5 0.000000 0.000000 0.000000 0.000000 -0.337505 0.000000
# 6 0.000000 0.000000 0.000000 0.000000 0.000000 -0.050378
#
#
# Mechanical properties :
#
#
# Convention : Reuss Voigt Hill
#
# Bulk Modulus (GPa) = 40.31623 59.08570 49.70096
# Shear Modulus (GPa) = -16.80259 18.43159 0.81450
#
# Velocity S-wave (km/s) = -2.83952 2.97398 0.62517
# Velocity P-wave (km/s) = 2.93182 6.33604 4.93665
#
# Compressibility (1/GPa) = 0.02480391
#
# Stress axis : x y z
#
# Youngs Moduli (GPa) = 120.92573 74.93560 51.48917
#
# Poissons Ratio (x) = 0.36096 0.20572
# Poissons Ratio (y) = 0.58250 -0.03586
# Poissons Ratio (z) = 0.48314 -0.05218
#
# Static dielectric constant tensor:
#      x y z
#    x 1.753490 0.000000 0.000000 
#    y 0.000000 1.744390 0.000000 
#    z 0.000000 0.000000 1.741810 
# 
# From -- ./inp_files/14361.got.cif
#   From: 2010.05.17/outbox.cif.g08.bks.cpg/sg73_8_cif.got.tgz:14361.got - 2010.06.03 17:35:07.
