data_PCOD9532937
_publ_section_title
;
Structure prediction by ZEFSAII (Michael W. Deem and Ramdas Pophale) SiO2 
 PCOD9532937
Probable space group: I B C A 
;
_chemical_formula_sum "Si O2"
_cell_formula_units_Z 56
_cell_length_a 8.526567
_cell_length_b 19.174291
_cell_length_c 13.058008
_cell_angle_alpha 90.000000
_cell_angle_beta 90.000000
_cell_angle_gamma 90.000000
_cell_volume 2134.865178
_symmetry_space_group_name_H-M "I B C A "
_symmetry_group_IT_number 73
_symmetry_cell_setting 'orthorhombic'
loop_
_space_group_symop_operation_xyz
x,y,z
-x,1/2-y,z
x,-y,1/2-z
1/2-x,y,-z
-x,-y,-z
x,1/2+y,-z
-x,y,1/2+z
1/2+x,-y,z
1/2+x,1/2+y,1/2+z
1/2-x,-y,1/2+z
1/2+x,1/2-y,-z
-x,1/2+y,1/2-z
1/2-x,1/2-y,1/2-z
1/2+x,y,1/2-z
1/2-x,1/2+y,z
x,1/2-y,1/2+z
loop_
_atom_site_type_symbol
_atom_site_label
_atom_site_fract_x
_atom_site_fract_y
_atom_site_fract_z
Si Si1 0.201620 0.000000 0.750000
Si Si2 0.598531 0.867085 0.628429
Si Si3 0.733256 0.374691 0.877396
Si Si4 0.939254 0.173820 0.902086
O O1 0.119063 0.943241 0.822470
O O2 0.290800 0.951009 0.669689
O O3 0.426344 0.834682 0.652205
O O4 0.764682 0.827105 0.645760
O O5 0.583156 0.871836 0.504368
O O6 0.907989 0.352965 0.840937
O O7 0.750000 0.373125 0.000000
O O8 0.000000 0.250000 0.933842
#
# Coordination Sequence:
#
# PCOD9532937 Si02
#       4
#     8  16  16  16
#     4  12  26  46  72 112 152 186 256 296 394 432
#     4  10  25  41  73 104 145 190 235 323 351 440
#     4  10  25  43  72 104 144 197 235 316 366 438
#     4  10  24  46  73 105 139 196 254 293 371 434
#
# _framework density 26.231164
#
# number of rings (size 3 to 8) (size 9 to 14) (size 15 to 20)
#    0.000    1.714    0.000    0.857   24.000    2.286 
#    0.000    2.857    0.000    0.000    0.000    0.000 
#    0.000    0.000    0.000    0.000    0.000    0.000 
#
# Total GULP energy -156034.908994 kJ/mol
# GULP energy per Si atom -5572.675321 kJ/mol
# Density = 2.617146 g / cm^3
# Si number density = 26.231164 Si / 1000 Ang^3
#
#
#
# Elastic Constant Matrix: (Units=GPa)
#
#
# Indices 1 2 3 4 5 6 
#
# 1 336.0963 48.1200 70.4961 0.0000 0.0000 0.0000
# 2 48.1200 103.8055 38.5495 0.0000 0.0000 0.0000
# 3 70.4961 38.5495 98.0299 0.0000 0.0000 0.0000
# 4 0.0000 0.0000 0.0000 11.2499 0.0000 0.0000
# 5 0.0000 0.0000 0.0000 0.0000 49.8631 0.0000
# 6 0.0000 0.0000 0.0000 0.0000 0.0000 27.6734
#
#
#
# Elastic Compliance Matrix: (Units=1/GPa)
#
#
# Indices 1 2 3 4 5 6 
#
# 1 0.003562 -0.000820 -0.002239 0.000000 0.000000 0.000000
# 2 -0.000820 0.011469 -0.003921 0.000000 0.000000 0.000000
# 3 -0.002239 -0.003921 0.013353 0.000000 0.000000 0.000000
# 4 0.000000 0.000000 0.000000 0.088890 0.000000 0.000000
# 5 0.000000 0.000000 0.000000 0.000000 0.020055 0.000000
# 6 0.000000 0.000000 0.000000 0.000000 0.000000 0.036136
#
#
# Mechanical properties :
#
#
# Convention : Reuss Voigt Hill
#
# Bulk Modulus (GPa) = 69.32347 94.69589 82.00968
# Shear Modulus (GPa) = 26.01002 43.14169 34.57585
#
# Velocity S-wave (km/s) = 3.15234 4.05986 3.63453
# Velocity P-wave (km/s) = 6.30356 7.62597 6.99608
#
# Compressibility (1/GPa) = 0.01442513
#
# Stress axis : x y z
#
# Youngs Moduli (GPa) = 280.70675 87.18840 74.88808
#
# Poissons Ratio (x) = 0.07147 0.16771
# Poissons Ratio (y) = 0.23011 0.29362
# Poissons Ratio (z) = 0.62864 0.34184
#
# Static dielectric constant tensor:
#      x y z
#    x 2.187740 0.000000 0.000000 
#    y 0.000000 2.049740 0.000000 
#    z 0.000000 0.000000 2.133240 
# 
# From -- ./inp_files/5094.got.cif
#   From: 2010.05.17/outbox.cif.g08.bks.cpg/sg73_3_cif.got.tgz:5094.got - 2010.06.03 17:35:07.
