data_PCOD9532001
_publ_section_title
;
Structure prediction by ZEFSAII (Michael W. Deem and Ramdas Pophale) SiO2 
 PCOD9532001
Probable space group: I B C A 
;
_chemical_formula_sum "Si O2"
_cell_formula_units_Z 64
_cell_length_a 17.167314
_cell_length_b 12.169653
_cell_length_c 15.362563
_cell_angle_alpha 90.000000
_cell_angle_beta 90.000000
_cell_angle_gamma 90.000000
_cell_volume 3209.550569
_symmetry_space_group_name_H-M "I B C A "
_symmetry_group_IT_number 73
_symmetry_cell_setting 'orthorhombic'
loop_
_space_group_symop_operation_xyz
x,y,z
-x,1/2-y,z
x,-y,1/2-z
1/2-x,y,-z
-x,-y,-z
x,1/2+y,-z
-x,y,1/2+z
1/2+x,-y,z
1/2+x,1/2+y,1/2+z
1/2-x,-y,1/2+z
1/2+x,1/2-y,-z
-x,1/2+y,1/2-z
1/2-x,1/2-y,1/2-z
1/2+x,y,1/2-z
1/2-x,1/2+y,z
x,1/2-y,1/2+z
loop_
_atom_site_type_symbol
_atom_site_label
_atom_site_fract_x
_atom_site_fract_y
_atom_site_fract_z
Si Si1 0.500000 0.750000 0.446313
Si Si2 0.693764 0.890586 0.690787
Si Si3 0.060565 0.000000 0.250000
Si Si4 0.970759 0.629899 0.888124
Si Si5 0.352682 0.796188 0.827395
O O1 0.503628 0.854158 0.512184
O O2 0.579505 0.754638 0.391628
O O3 0.620760 0.890087 0.625217
O O4 0.670377 0.800979 0.763059
O O5 0.771140 0.849174 0.640874
O O6 0.704807 0.000000 0.750000
O O7 0.110697 0.104866 0.272952
O O8 0.010081 0.034124 0.166896
O O9 0.000000 0.750000 0.850567
#
# Coordination Sequence:
#
# PCOD9532001 Si02
#       5
#     8  16   8  16  16
#     4  10  24  44  60  98 144 174 220 294 348 398
#     4  11  22  41  68  99 129 181 234 278 331 422
#     4  12  20  40  70  94 128 180 238 278 336 436
#     4  10  22  40  64  95 133 177 224 276 350 408
#     4  11  23  40  67  97 131 176 232 282 340 410
#
# _framework density 19.940484999999999
#
# number of rings (size 3 to 8) (size 9 to 14) (size 15 to 20)
#    0.750    0.500    5.000    1.500    0.000    2.000 
#    0.000    0.000    0.000    0.000    0.000    0.000 
#    0.000    0.000    0.000    0.000    0.000    0.000 
#
# Total GULP energy -178320.514531 kJ/mol
# GULP energy per Si atom -5572.516079 kJ/mol
# Density = 1.989510 g / cm^3
# Si number density = 19.940485 Si / 1000 Ang^3
#
#
#
# Elastic Constant Matrix: (Units=GPa)
#
#
# Indices 1 2 3 4 5 6 
#
# 1 175.8229 44.8371 55.5177 0.0000 0.0000 0.0000
# 2 44.8371 95.4216 35.6089 0.0000 0.0000 0.0000
# 3 55.5177 35.6089 76.8574 0.0000 0.0000 0.0000
# 4 0.0000 0.0000 0.0000 38.0037 0.0000 0.0000
# 5 0.0000 0.0000 0.0000 0.0000 3.8121 0.0000
# 6 0.0000 0.0000 0.0000 0.0000 0.0000 -46.9852
#
#
#
# Elastic Compliance Matrix: (Units=1/GPa)
#
#
# Indices 1 2 3 4 5 6 
#
# 1 0.007628 -0.001848 -0.004654 0.000000 0.000000 0.000000
# 2 -0.001848 0.013118 -0.004743 0.000000 0.000000 0.000000
# 3 -0.004654 -0.004743 0.018571 0.000000 0.000000 0.000000
# 4 0.000000 0.000000 0.000000 0.026313 0.000000 0.000000
# 5 0.000000 0.000000 0.000000 0.000000 0.262324 0.000000
# 6 0.000000 0.000000 0.000000 0.000000 0.000000 -0.021283
#
#
# Mechanical properties :
#
#
# Convention : Reuss Voigt Hill
#
# Bulk Modulus (GPa) = 59.42833 68.89215 64.16024
# Shear Modulus (GPa) = 14.93561 13.10866 14.02214
#
# Velocity S-wave (km/s) = 2.73977 2.56674 2.65467
# Velocity P-wave (km/s) = 6.31475 6.58848 6.45307
#
# Compressibility (1/GPa) = 0.01682699
#
# Stress axis : x y z
#
# Youngs Moduli (GPa) = 131.09019 76.23144 53.84840
#
# Poissons Ratio (x) = 0.14084 0.25063
# Poissons Ratio (y) = 0.24220 0.25541
# Poissons Ratio (z) = 0.61013 0.36157
#
# Static dielectric constant tensor:
#      x y z
#    x 1.753140 0.000000 0.000000 
#    y 0.000000 1.716120 0.000000 
#    z 0.000000 0.000000 1.702620 
# 
# From -- ./inp_files/17651.got.cif
#   From: 2010.05.17/outbox.cif.g08.bks.cpg/sg73_9_cif.got.tgz:17651.got - 2010.06.03 17:35:07.
