data_PCOD9532152
_publ_section_title
;
Structure prediction by ZEFSAII (Michael W. Deem and Ramdas Pophale) SiO2 
 PCOD9532152
Probable space group: I B C A 
;
_chemical_formula_sum "Si O2"
_cell_formula_units_Z 72
_cell_length_a 10.799249
_cell_length_b 22.550132
_cell_length_c 14.258618
_cell_angle_alpha 90.000000
_cell_angle_beta 90.000000
_cell_angle_gamma 90.000000
_cell_volume 3472.322683
_symmetry_space_group_name_H-M "I B C A "
_symmetry_group_IT_number 73
_symmetry_cell_setting 'orthorhombic'
loop_
_space_group_symop_operation_xyz
x,y,z
-x,1/2-y,z
x,-y,1/2-z
1/2-x,y,-z
-x,-y,-z
x,1/2+y,-z
-x,y,1/2+z
1/2+x,-y,z
1/2+x,1/2+y,1/2+z
1/2-x,-y,1/2+z
1/2+x,1/2-y,-z
-x,1/2+y,1/2-z
1/2-x,1/2-y,1/2-z
1/2+x,y,1/2-z
1/2-x,1/2+y,z
x,1/2-y,1/2+z
loop_
_atom_site_type_symbol
_atom_site_label
_atom_site_fract_x
_atom_site_fract_y
_atom_site_fract_z
Si Si1 0.750000 0.711157 0.500000
Si Si2 0.874858 0.491095 0.937810
Si Si3 0.339791 0.118804 0.367485
Si Si4 0.093601 0.323062 0.956683
Si Si5 0.638036 0.638116 0.348466
O O1 0.639071 0.757966 0.485944
O O2 0.747201 0.669305 0.408719
O O3 0.857138 0.548371 0.871888
O O4 0.878282 0.429763 0.881331
O O5 0.750000 0.489749 0.000000
O O6 0.000000 0.500000 0.000000
O O7 0.435324 0.144529 0.444771
O O8 0.208238 0.141441 0.408468
O O9 0.349550 0.141682 0.262413
O O10 0.984687 0.328792 0.883411
#
# Coordination Sequence:
#
# PCOD9532152 Si02
#       5
#     8  16  16  16  16
#     4  10  24  42  64  96 128 172 226 278 328 406
#     4  12  22  42  68  99 141 180 225 291 354 414
#     4  10  22  42  66  96 135 181 222 280 349 411
#     4  10  23  45  64  93 146 175 224 289 344 400
#     4  12  23  40  71  99 132 182 232 280 347 421
#
# _framework density 20.735399999999998
#
# number of rings (size 3 to 8) (size 9 to 14) (size 15 to 20)
#    0.000    1.333    5.556    1.333    0.000    7.111 
#    0.000    8.889    0.000    0.000    0.000    0.000 
#    0.000    0.000    0.000    0.000    0.000    0.000 
#
# Total GULP energy -200886.895649 kJ/mol
# GULP energy per Si atom -5580.191546 kJ/mol
# Density = 2.068821 g / cm^3
# Si number density = 20.735400 Si / 1000 Ang^3
#
#
#
# Elastic Constant Matrix: (Units=GPa)
#
#
# Indices 1 2 3 4 5 6 
#
# 1 107.4998 16.8737 54.0168 0.0000 0.0000 0.0000
# 2 16.8737 127.1869 60.7045 0.0000 0.0000 0.0000
# 3 54.0168 60.7045 201.7570 0.0001 0.0000 0.0000
# 4 0.0000 0.0000 0.0001 13.0669 0.0000 0.0000
# 5 0.0000 0.0000 0.0000 0.0000 23.5448 0.0000
# 6 0.0000 0.0000 0.0000 0.0000 0.0000 19.6208
#
#
#
# Elastic Compliance Matrix: (Units=1/GPa)
#
#
# Indices 1 2 3 4 5 6 
#
# 1 0.010749 -0.000061 -0.002859 0.000000 0.000000 0.000000
# 2 -0.000061 0.009181 -0.002746 0.000000 0.000000 0.000000
# 3 -0.002859 -0.002746 0.006548 0.000000 0.000000 0.000000
# 4 0.000000 0.000000 0.000000 0.076529 0.000000 0.000000
# 5 0.000000 0.000000 0.000000 0.000000 0.042472 0.000000
# 6 0.000000 0.000000 0.000000 0.000000 0.000000 0.050966
#
#
# Mechanical properties :
#
#
# Convention : Reuss Voigt Hill
#
# Bulk Modulus (GPa) = 66.02908 77.73708 71.88308
# Shear Modulus (GPa) = 23.49320 31.56975 27.53147
#
# Velocity S-wave (km/s) = 3.36966 3.90616 3.64779
# Velocity P-wave (km/s) = 6.85946 7.61023 7.24458
#
# Compressibility (1/GPa) = 0.01514484
#
# Stress axis : x y z
#
# Youngs Moduli (GPa) = 93.03421 108.91805 152.71333
#
# Poissons Ratio (x) = 0.00668 0.43666
# Poissons Ratio (y) = 0.00570 0.41935
# Poissons Ratio (z) = 0.26602 0.29909
#
# Static dielectric constant tensor:
#      x y z
#    x 1.825810 0.000000 0.000000 
#    y 0.000000 1.783540 0.000000 
#    z 0.000000 0.000000 1.689150 
# 
# From -- ./inp_files/10614.got.cif
#   From: 2010.05.17/outbox.cif.g08.bks.cpg/sg73_6_cif.got.tgz:10614.got - 2010.06.03 17:35:07.
