data_PCOD9532214
_publ_section_title
;
Structure prediction by ZEFSAII (Michael W. Deem and Ramdas Pophale) SiO2 
 PCOD9532214
Probable space group: I B C A 
;
_chemical_formula_sum "Si O2"
_cell_formula_units_Z 120
_cell_length_a 9.008526
_cell_length_b 23.368292
_cell_length_c 24.801025
_cell_angle_alpha 90.000000
_cell_angle_beta 90.000000
_cell_angle_gamma 90.000000
_cell_volume 5220.959655
_symmetry_space_group_name_H-M "I B C A "
_symmetry_group_IT_number 73
_symmetry_cell_setting 'orthorhombic'
loop_
_space_group_symop_operation_xyz
x,y,z
-x,1/2-y,z
x,-y,1/2-z
1/2-x,y,-z
-x,-y,-z
x,1/2+y,-z
-x,y,1/2+z
1/2+x,-y,z
1/2+x,1/2+y,1/2+z
1/2-x,-y,1/2+z
1/2+x,1/2-y,-z
-x,1/2+y,1/2-z
1/2-x,1/2-y,1/2-z
1/2+x,y,1/2-z
1/2-x,1/2+y,z
x,1/2-y,1/2+z
loop_
_atom_site_type_symbol
_atom_site_label
_atom_site_fract_x
_atom_site_fract_y
_atom_site_fract_z
Si Si1 0.415987 0.334380 0.472444
Si Si2 0.240725 0.697221 0.871203
Si Si3 0.331855 0.925401 0.322068
Si Si4 0.500000 0.750000 0.940796
Si Si5 0.083361 0.803190 0.266596
Si Si6 0.606322 0.461957 0.965191
Si Si7 0.648463 0.526193 0.855269
Si Si8 0.684872 0.121998 0.795098
O O1 0.250000 0.332428 0.500000
O O2 0.390982 0.304624 0.414942
O O3 0.517686 0.302862 0.516801
O O4 0.461281 0.398927 0.457582
O O5 0.293553 0.631648 0.856920
O O6 0.366541 0.733479 0.901149
O O7 0.193234 0.719600 0.812858
O O8 0.481490 0.953372 0.344660
O O9 0.355447 0.910556 0.260092
O O10 0.198739 0.970978 0.321348
O O11 0.172805 0.840390 0.223544
O O12 0.000000 0.750000 0.240666
O O13 0.962525 0.839983 0.300754
O O14 0.654210 0.499183 0.914281
O O15 0.750000 0.450360 0.000000
O O16 0.500000 0.500000 0.000000
O O17 0.760658 0.577955 0.840555
#
# Coordination Sequence:
#
# PCOD9532214 Si02
#       8
#    16  16  16   8  16  16  16  16
#     4   9  20  42  68  95 138 186 242 299 367 431
#     4  10  23  44  71 106 138 195 248 320 384 451
#     4  11  25  44  72 107 149 192 253 314 386 468
#     4  10  22  42  78  98 142 198 252 310 368 456
#     4  11  25  47  72 103 151 193 252 318 385 464
#     4  11  24  43  68 103 145 190 239 304 374 450
#     4  12  25  42  76 105 148 204 250 311 394 457
#     4  11  25  47  72 108 147 194 255 317 380 469
#
# _framework density 22.984280999999999
#
# number of rings (size 3 to 8) (size 9 to 14) (size 15 to 20)
#    0.000    1.333    2.667    1.600    8.400    3.200 
#    4.800    2.000    8.800    0.000    0.000    0.000 
#    0.000    0.000    0.000    0.000    0.000    0.000 
#
# Total GULP energy -335268.190428 kJ/mol
# GULP energy per Si atom -5587.803174 kJ/mol
# Density = 2.293197 g / cm^3
# Si number density = 22.984281 Si / 1000 Ang^3
#
#
#
# Elastic Constant Matrix: (Units=GPa)
#
#
# Indices 1 2 3 4 5 6 
#
# 1 64.8228 49.5719 17.5974 0.0000 0.0000 0.0000
# 2 49.5719 114.2216 45.8627 0.0000 0.0000 0.0000
# 3 17.5974 45.8627 99.6418 0.0000 0.0000 0.0000
# 4 0.0000 0.0000 0.0000 20.6012 0.0000 0.0000
# 5 0.0000 0.0000 0.0000 0.0000 26.5912 0.0000
# 6 0.0000 0.0000 0.0000 0.0000 0.0000 47.2272
#
#
#
# Elastic Compliance Matrix: (Units=1/GPa)
#
#
# Indices 1 2 3 4 5 6 
#
# 1 0.023125 -0.010300 0.000657 0.000000 0.000000 0.000000
# 2 -0.010300 0.015327 -0.005236 0.000000 0.000000 0.000000
# 3 0.000657 -0.005236 0.012330 0.000000 0.000000 0.000000
# 4 0.000000 0.000000 0.000000 0.048541 0.000000 0.000000
# 5 0.000000 0.000000 0.000000 0.000000 0.037606 0.000000
# 6 0.000000 0.000000 0.000000 0.000000 0.000000 0.021174
#
#
# Mechanical properties :
#
#
# Convention : Reuss Voigt Hill
#
# Bulk Modulus (GPa) = 47.56380 56.08334 51.82357
# Shear Modulus (GPa) = 25.65817 29.92754 27.79285
#
# Velocity S-wave (km/s) = 3.34479 3.61236 3.48114
# Velocity P-wave (km/s) = 5.97124 6.46936 6.22528
#
# Compressibility (1/GPa) = 0.02102439
#
# Stress axis : x y z
#
# Youngs Moduli (GPa) = 43.24321 65.24291 81.10396
#
# Poissons Ratio (x) = 0.67200 -0.05327
# Poissons Ratio (y) = 0.44540 0.42464
# Poissons Ratio (z) = -0.02840 0.34160
#
# Static dielectric constant tensor:
#      x y z
#    x 1.552840 0.000000 0.000000 
#    y 0.000000 1.891650 0.000000 
#    z 0.000000 0.000000 1.879110 
# 
# From -- ./inp_files/31421.got.cif
#   From: 2010.05.17/outbox.cif.g08.bks.cpg/sg73_16_cif.got.tgz:31421.got - 2010.06.03 17:35:07.
