data_PCOD9532851
_publ_section_title
;
Structure prediction by ZEFSAII (Michael W. Deem and Ramdas Pophale) SiO2 
 PCOD9532851
Probable space group: I B C A 
;
_chemical_formula_sum "Si O2"
_cell_formula_units_Z 64
_cell_length_a 9.363572
_cell_length_b 9.283594
_cell_length_c 29.551842
_cell_angle_alpha 90.000000
_cell_angle_beta 90.000000
_cell_angle_gamma 90.000000
_cell_volume 2568.870725
_symmetry_space_group_name_H-M "I B C A "
_symmetry_group_IT_number 73
_symmetry_cell_setting 'orthorhombic'
loop_
_space_group_symop_operation_xyz
x,y,z
-x,1/2-y,z
x,-y,1/2-z
1/2-x,y,-z
-x,-y,-z
x,1/2+y,-z
-x,y,1/2+z
1/2+x,-y,z
1/2+x,1/2+y,1/2+z
1/2-x,-y,1/2+z
1/2+x,1/2-y,-z
-x,1/2+y,1/2-z
1/2-x,1/2-y,1/2-z
1/2+x,y,1/2-z
1/2-x,1/2+y,z
x,1/2-y,1/2+z
loop_
_atom_site_type_symbol
_atom_site_label
_atom_site_fract_x
_atom_site_fract_y
_atom_site_fract_z
Si Si1 0.711812 0.142103 0.061247
Si Si2 0.051469 0.588177 0.207357
Si Si3 0.500000 0.250000 0.411383
Si Si4 0.818505 0.031271 0.647789
Si Si5 0.250000 0.107491 0.000000
O O1 0.885374 0.158079 0.060465
O O2 0.679218 0.103977 0.113050
O O3 0.667035 0.003270 0.032298
O O4 0.667909 0.287958 0.035426
O O5 0.110884 0.500000 0.250000
O O6 0.163616 0.577169 0.165788
O O7 0.000000 0.750000 0.217710
O O8 0.911427 0.505363 0.191033
O O9 0.600559 0.154706 0.379543
#
# Coordination Sequence:
#
# PCOD9532851 Si02
#       5
#    16  16   8  16   8
#     4  11  23  46  71 110 154 203 254 315 375 449
#     4  12  30  50  82 117 152 199 255 318 381 466
#     4  12  24  44  78 110 148 210 252 314 376 460
#     4  12  26  50  81 112 157 203 257 309 393 455
#     4  10  24  44  70 110 154 198 264 312 374 442
#
# _framework density 24.913671000000001
#
# number of rings (size 3 to 8) (size 9 to 14) (size 15 to 20)
#    0.000    0.500    5.000    2.250    1.750    3.000 
#    0.000    0.000    0.000    0.000    0.000    0.000 
#    0.000    0.000    0.000    0.000    0.000    0.000 
#
# Total GULP energy -178914.659839 kJ/mol
# GULP energy per Si atom -5591.083120 kJ/mol
# Density = 2.485697 g / cm^3
# Si number density = 24.913671 Si / 1000 Ang^3
#
#
#
# Elastic Constant Matrix: (Units=GPa)
#
#
# Indices 1 2 3 4 5 6 
#
# 1 100.1975 20.8847 13.9208 0.0000 0.0000 0.0000
# 2 20.8847 143.9066 42.0333 0.0000 0.0000 0.0000
# 3 13.9208 42.0333 119.4767 0.0000 0.0000 0.0000
# 4 0.0000 0.0000 0.0000 26.5936 0.0000 0.0000
# 5 0.0000 0.0000 0.0000 0.0000 20.5195 0.0000
# 6 0.0000 0.0000 0.0000 0.0000 0.0000 29.5353
#
#
#
# Elastic Compliance Matrix: (Units=1/GPa)
#
#
# Indices 1 2 3 4 5 6 
#
# 1 0.010352 -0.001282 -0.000755 0.000000 0.000000 0.000000
# 2 -0.001282 0.007904 -0.002631 0.000000 0.000000 0.000000
# 3 -0.000755 -0.002631 0.009384 0.000000 0.000000 0.000000
# 4 0.000000 0.000000 0.000000 0.037603 0.000000 0.000000
# 5 0.000000 0.000000 0.000000 0.000000 0.048734 0.000000
# 6 0.000000 0.000000 0.000000 0.000000 0.000000 0.033858
#
#
# Mechanical properties :
#
#
# Convention : Reuss Voigt Hill
#
# Bulk Modulus (GPa) = 54.63614 57.47315 56.05464
# Shear Modulus (GPa) = 30.62381 34.44584 32.53482
#
# Velocity S-wave (km/s) = 3.50979 3.72238 3.61765
# Velocity P-wave (km/s) = 6.19699 6.44933 6.32442
#
# Compressibility (1/GPa) = 0.01830290
#
# Stress axis : x y z
#
# Youngs Moduli (GPa) = 96.59603 126.52595 106.56986
#
# Poissons Ratio (x) = 0.16218 0.08049
# Poissons Ratio (y) = 0.12382 0.28041
# Poissons Ratio (z) = 0.07295 0.33291
#
# Static dielectric constant tensor:
#      x y z
#    x 1.899310 0.000000 0.000000 
#    y 0.000000 2.162710 0.000000 
#    z 0.000000 0.000000 1.996080 
# 
# From -- ./inp_files/9053.got.cif
#   From: 2010.05.17/outbox.cif.g08.bks.cpg/sg73_5_cif.got.tgz:9053.got - 2010.06.03 17:35:07.
