data_PCOD9532946
_publ_section_title
;
Structure prediction by ZEFSAII (Michael W. Deem and Ramdas Pophale) SiO2 
 PCOD9532946
Probable space group: I B C A 
;
_chemical_formula_sum "Si O2"
_cell_formula_units_Z 40
_cell_length_a 15.035654
_cell_length_b 9.928094
_cell_length_c 9.217548
_cell_angle_alpha 90.000000
_cell_angle_beta 90.000000
_cell_angle_gamma 90.000000
_cell_volume 1375.953038
_symmetry_space_group_name_H-M "I B C A "
_symmetry_group_IT_number 73
_symmetry_cell_setting 'orthorhombic'
loop_
_space_group_symop_operation_xyz
x,y,z
-x,1/2-y,z
x,-y,1/2-z
1/2-x,y,-z
-x,-y,-z
x,1/2+y,-z
-x,y,1/2+z
1/2+x,-y,z
1/2+x,1/2+y,1/2+z
1/2-x,-y,1/2+z
1/2+x,1/2-y,-z
-x,1/2+y,1/2-z
1/2-x,1/2-y,1/2-z
1/2+x,y,1/2-z
1/2-x,1/2+y,z
x,1/2-y,1/2+z
loop_
_atom_site_type_symbol
_atom_site_label
_atom_site_fract_x
_atom_site_fract_y
_atom_site_fract_z
Si Si1 0.922249 0.411926 0.928202
Si Si2 0.259897 0.609938 0.660715
Si Si3 0.500000 0.250000 0.338091
O O1 0.834909 0.494714 0.890015
O O2 0.956558 0.647969 0.723759
O O3 0.922632 0.296401 0.051313
O O4 0.000000 0.500000 0.000000
O O5 0.198603 0.500000 0.750000
O O6 0.250000 0.665785 0.500000
O O7 0.250000 0.750000 0.750000
#
# Coordination Sequence:
#
# PCOD9532946 Si02
#       3
#    16  16   8
#     4  11  25  48  81 123 169 226 295 379 464 548
#     4  12  30  54  82 120 171 232 297 374 467 570
#     4  10  24  46  80 122 168 218 292 376 450 548
#
# _framework density 29.07076
#
# number of rings (size 3 to 8) (size 9 to 14) (size 15 to 20)
#    0.000    0.800    0.000    4.800    0.000   25.600 
#    0.000    8.000    0.000    0.000    0.000    0.000 
#    0.000    0.000    0.000    0.000    0.000    0.000 
#
# Total GULP energy -111444.849313 kJ/mol
# GULP energy per Si atom -5572.242466 kJ/mol
# Density = 2.900459 g / cm^3
# Si number density = 29.070760 Si / 1000 Ang^3
#
#
#
# Elastic Constant Matrix: (Units=GPa)
#
#
# Indices 1 2 3 4 5 6 
#
# 1 122.7879 55.9897 35.7524 0.0000 0.0000 0.0000
# 2 55.9897 239.9346 115.8142 0.0000 0.0000 0.0000
# 3 35.7524 115.8142 335.3700 0.0000 0.0000 0.0000
# 4 0.0000 0.0000 0.0000 95.8429 0.0000 0.0000
# 5 0.0000 0.0000 0.0000 0.0000 31.7884 0.0000
# 6 0.0000 0.0000 0.0000 0.0000 0.0000 74.5076
#
#
#
# Elastic Compliance Matrix: (Units=1/GPa)
#
#
# Indices 1 2 3 4 5 6 
#
# 1 0.009137 -0.001994 -0.000285 0.000000 0.000000 0.000000
# 2 -0.001994 0.005437 -0.001665 0.000000 0.000000 0.000000
# 3 -0.000285 -0.001665 0.003587 0.000000 0.000000 0.000000
# 4 0.000000 0.000000 0.000000 0.010434 0.000000 0.000000
# 5 0.000000 0.000000 0.000000 0.000000 0.031458 0.000000
# 6 0.000000 0.000000 0.000000 0.000000 0.000000 0.013421
#
#
# Mechanical properties :
#
#
# Convention : Reuss Voigt Hill
#
# Bulk Modulus (GPa) = 97.35722 123.68949 110.52335
# Shear Modulus (GPa) = 58.97153 73.13020 66.05087
#
# Velocity S-wave (km/s) = 4.50883 5.02101 4.77180
# Velocity P-wave (km/s) = 7.78900 8.73236 8.27414
#
# Compressibility (1/GPa) = 0.01027145
#
# Stress axis : x y z
#
# Youngs Moduli (GPa) = 109.44995 183.93082 278.77349
#
# Poissons Ratio (x) = 0.36682 0.07953
# Poissons Ratio (y) = 0.21828 0.46413
# Poissons Ratio (z) = 0.03123 0.30623
#
# Static dielectric constant tensor:
#      x y z
#    x 2.864840 0.000000 0.000000 
#    y 0.000000 2.894620 0.000000 
#    z 0.000000 0.000000 2.655700 
# 
# From -- ./inp_files/3625.got.cif
#   From: 2010.05.17/outbox.cif.g08.bks.cpg/sg73_2_cif.got.tgz:3625.got - 2010.06.03 17:35:07.
