data_PCOD9532740
_publ_section_title
;
Structure prediction by ZEFSAII (Michael W. Deem and Ramdas Pophale) SiO2 
 PCOD9532740
Probable space group: I B C A 
;
_chemical_formula_sum "Si O2"
_cell_formula_units_Z 104
_cell_length_a 19.305406
_cell_length_b 27.199688
_cell_length_c 9.437650
_cell_angle_alpha 90.000000
_cell_angle_beta 90.000000
_cell_angle_gamma 90.000000
_cell_volume 4955.719641
_symmetry_space_group_name_H-M "I B C A "
_symmetry_group_IT_number 73
_symmetry_cell_setting 'orthorhombic'
loop_
_space_group_symop_operation_xyz
x,y,z
-x,1/2-y,z
x,-y,1/2-z
1/2-x,y,-z
-x,-y,-z
x,1/2+y,-z
-x,y,1/2+z
1/2+x,-y,z
1/2+x,1/2+y,1/2+z
1/2-x,-y,1/2+z
1/2+x,1/2-y,-z
-x,1/2+y,1/2-z
1/2-x,1/2-y,1/2-z
1/2+x,y,1/2-z
1/2-x,1/2+y,z
x,1/2-y,1/2+z
loop_
_atom_site_type_symbol
_atom_site_label
_atom_site_fract_x
_atom_site_fract_y
_atom_site_fract_z
Si Si1 0.250000 0.478336 0.000000
Si Si2 0.427424 0.349768 0.032243
Si Si3 0.219109 0.707458 0.340979
Si Si4 0.812600 0.396376 0.674682
Si Si5 0.328117 0.573295 0.977907
Si Si6 0.078284 0.747868 0.397259
Si Si7 0.069731 0.141302 0.135549
O O1 0.235299 0.441578 0.128327
O O2 0.315091 0.515430 0.006479
O O3 0.363437 0.377314 0.952250
O O4 0.423772 0.289411 0.031401
O O5 0.495089 0.361755 0.939668
O O6 0.434804 0.362735 0.195577
O O7 0.250000 0.712327 0.500000
O O8 0.250000 0.750000 0.250000
O O9 0.233028 0.651928 0.295246
O O10 0.137083 0.717575 0.316641
O O11 0.849708 0.413891 0.817254
O O12 0.381087 0.598923 0.080080
O O13 0.250000 0.593626 0.000000
O O14 0.099051 0.804599 0.409980
O O15 0.000000 0.750000 0.339189
#
# Coordination Sequence:
#
# PCOD9532740 Si02
#       7
#     8  16  16  16  16  16  16
#     4  10  24  44  70  98 130 178 228 282 356 408
#     4  10  24  41  68  97 132 186 225 285 349 422
#     4  11  26  39  63  98 139 180 224 276 341 408
#     4  11  23  44  67  97 137 175 227 285 345 416
#     4  10  26  39  68  99 130 171 229 283 348 404
#     4   9  23  39  60  92 135 182 227 273 342 420
#     4  11  23  43  66  96 139 175 235 285 344 414
#
# _framework density 20.985852000000001
#
# number of rings (size 3 to 8) (size 9 to 14) (size 15 to 20)
#    0.462    1.231    0.769    1.385   10.769    6.769 
#    0.000    0.769    0.000    0.000    0.000    0.000 
#    0.000    0.000    0.000    0.000    0.000    0.000 
#
# Total GULP energy -289839.605786 kJ/mol
# GULP energy per Si atom -5573.838573 kJ/mol
# Density = 2.093809 g / cm^3
# Si number density = 20.985852 Si / 1000 Ang^3
#
#
#
# Elastic Constant Matrix: (Units=GPa)
#
#
# Indices 1 2 3 4 5 6 
#
# 1 44.6358 40.2702 26.7248 0.0000 0.0000 0.0000
# 2 40.2702 169.3970 57.5551 0.0000 0.0000 0.0000
# 3 26.7248 57.5551 138.0749 0.0000 0.0000 0.0000
# 4 0.0000 0.0000 0.0000 17.7392 0.0000 0.0000
# 5 0.0000 0.0000 0.0000 0.0000 29.1446 0.0000
# 6 0.0000 0.0000 0.0000 0.0000 0.0000 18.6856
#
#
#
# Elastic Compliance Matrix: (Units=1/GPa)
#
#
# Indices 1 2 3 4 5 6 
#
# 1 0.029738 -0.005958 -0.003272 0.000000 0.000000 0.000000
# 2 -0.005958 0.008071 -0.002211 0.000000 0.000000 0.000000
# 3 -0.003272 -0.002211 0.008798 0.000000 0.000000 0.000000
# 4 0.000000 0.000000 0.000000 0.056372 0.000000 0.000000
# 5 0.000000 0.000000 0.000000 0.000000 0.034312 0.000000
# 6 0.000000 0.000000 0.000000 0.000000 0.000000 0.053517
#
#
# Mechanical properties :
#
#
# Convention : Reuss Voigt Hill
#
# Bulk Modulus (GPa) = 42.15185 66.80088 54.47637
# Shear Modulus (GPa) = 22.56341 28.28437 25.42389
#
# Velocity S-wave (km/s) = 3.28254 3.67520 3.48440
# Velocity P-wave (km/s) = 5.87335 7.06470 6.49639
#
# Compressibility (1/GPa) = 0.02372375
#
# Stress axis : x y z
#
# Youngs Moduli (GPa) = 33.62722 123.90284 113.66823
#
# Poissons Ratio (x) = 0.73816 0.37198
# Poissons Ratio (y) = 0.20034 0.25134
# Poissons Ratio (z) = 0.11004 0.27397
#
# Static dielectric constant tensor:
#      x y z
#    x 1.815240 0.000000 0.000000 
#    y 0.000000 1.781970 0.000000 
#    z 0.000000 0.000000 1.840840 
# 
# From -- ./inp_files/6558.got.cif
#   From: 2010.05.17/outbox.cif.g08.bks.cpg/sg73_4_cif.got.tgz:6558.got - 2010.06.03 17:35:07.
