data_PCOD9532713
_publ_section_title
;
Structure prediction by ZEFSAII (Michael W. Deem and Ramdas Pophale) SiO2 
 PCOD9532713
Probable space group: I B C A 
;
_chemical_formula_sum "Si O2"
_cell_formula_units_Z 104
_cell_length_a 15.162490
_cell_length_b 11.034679
_cell_length_c 25.885680
_cell_angle_alpha 90.000000
_cell_angle_beta 90.000000
_cell_angle_gamma 90.000000
_cell_volume 4331.016214
_symmetry_space_group_name_H-M "I B C A "
_symmetry_group_IT_number 73
_symmetry_cell_setting 'orthorhombic'
loop_
_space_group_symop_operation_xyz
x,y,z
-x,1/2-y,z
x,-y,1/2-z
1/2-x,y,-z
-x,-y,-z
x,1/2+y,-z
-x,y,1/2+z
1/2+x,-y,z
1/2+x,1/2+y,1/2+z
1/2-x,-y,1/2+z
1/2+x,1/2-y,-z
-x,1/2+y,1/2-z
1/2-x,1/2-y,1/2-z
1/2+x,y,1/2-z
1/2-x,1/2+y,z
x,1/2-y,1/2+z
loop_
_atom_site_type_symbol
_atom_site_label
_atom_site_fract_x
_atom_site_fract_y
_atom_site_fract_z
Si Si1 0.077329 0.183051 0.076154
Si Si2 0.007833 0.555885 0.100649
Si Si3 0.433895 0.423139 0.799064
Si Si4 0.257673 0.586877 0.138834
Si Si5 0.131351 0.668381 0.772417
Si Si6 0.500000 0.250000 0.519107
Si Si7 0.166972 0.333205 0.849290
O O1 0.166068 0.148466 0.103665
O O2 0.000000 0.250000 0.109426
O O3 0.032956 0.053467 0.067383
O O4 0.078760 0.261245 0.023734
O O5 0.926817 0.621951 0.129220
O O6 0.065422 0.496490 0.146949
O O7 0.037154 0.648115 0.056934
O O8 0.402831 0.500000 0.750000
O O9 0.535897 0.389729 0.785232
O O10 0.376271 0.302272 0.796600
O O11 0.294062 0.597983 0.196991
O O12 0.264167 0.439668 0.131500
O O13 0.185495 0.694170 0.134328
O O14 0.153434 0.671015 0.712431
#
# Coordination Sequence:
#
# PCOD9532713 Si02
#       7
#    16  16  16  16  16   8  16
#     4   9  20  41  66  93 122 169 220 281 349 391
#     4  11  21  40  62  96 134 168 212 285 346 401
#     4  11  21  34  62  95 134 170 211 276 337 406
#     4  11  22  42  64  92 136 181 225 279 332 407
#     4  11  21  37  60  92 132 179 216 263 333 400
#     4  10  24  38  70  98 126 162 230 290 348 406
#     4  11  24  39  63  93 140 180 224 269 335 420
#
# _framework density 24.012840000000001
#
# number of rings (size 3 to 8) (size 9 to 14) (size 15 to 20)
#    0.462    0.923    4.615    2.308    2.154    1.231 
#    2.769    0.769    0.000    3.692    0.000    0.000 
#    0.000    0.000    0.000    0.000    0.000    0.000 
#
# Total GULP energy -289866.312436 kJ/mol
# GULP energy per Si atom -5574.352162 kJ/mol
# Density = 2.395819 g / cm^3
# Si number density = 24.012840 Si / 1000 Ang^3
#
#
#
# Elastic Constant Matrix: (Units=GPa)
#
#
# Indices 1 2 3 4 5 6 
#
# 1 42.3795 31.9363 19.1088 0.0000 0.0000 0.0000
# 2 31.9363 144.0080 36.8004 0.0000 0.0000 0.0000
# 3 19.1088 36.8004 135.4710 0.0000 0.0000 0.0000
# 4 0.0000 0.0000 0.0000 36.5721 0.0000 0.0000
# 5 0.0000 0.0000 0.0000 0.0000 8.1756 0.0000
# 6 0.0000 0.0000 0.0000 0.0000 0.0000 40.3776
#
#
#
# Elastic Compliance Matrix: (Units=1/GPa)
#
#
# Indices 1 2 3 4 5 6 
#
# 1 0.029115 -0.005811 -0.002528 0.000000 0.000000 0.000000
# 2 -0.005811 0.008622 -0.001522 0.000000 0.000000 0.000000
# 3 -0.002528 -0.001522 0.008152 0.000000 0.000000 0.000000
# 4 0.000000 0.000000 0.000000 0.027343 0.000000 0.000000
# 5 0.000000 0.000000 0.000000 0.000000 0.122315 0.000000
# 6 0.000000 0.000000 0.000000 0.000000 0.000000 0.024766
#
#
# Mechanical properties :
#
#
# Convention : Reuss Voigt Hill
#
# Bulk Modulus (GPa) = 38.21788 55.28328 46.75058
# Shear Modulus (GPa) = 20.09986 32.62592 26.36289
#
# Velocity S-wave (km/s) = 2.89631 3.69004 3.31700
# Velocity P-wave (km/s) = 5.20913 6.42087 5.84647
#
# Compressibility (1/GPa) = 0.02616576
#
# Stress axis : x y z
#
# Youngs Moduli (GPa) = 34.34634 115.98590 122.67137
#
# Poissons Ratio (x) = 0.67396 0.31016
# Poissons Ratio (y) = 0.19958 0.18676
# Poissons Ratio (z) = 0.08684 0.17658
#
# Static dielectric constant tensor:
#      x y z
#    x 2.024570 0.000000 0.000000 
#    y 0.000000 2.022800 0.000000 
#    z 0.000000 0.000000 1.893580 
# 
# From -- ./inp_files/32395.got.cif
#   From: 2010.05.17/outbox.cif.g08.bks.cpg/sg73_17_cif.got.tgz:32395.got - 2010.06.03 17:35:07.
