data_PCOD9532089
_publ_section_title
;
Structure prediction by ZEFSAII (Michael W. Deem and Ramdas Pophale) SiO2 
 PCOD9532089
Probable space group: I B C A 
;
_chemical_formula_sum "Si O2"
_cell_formula_units_Z 88
_cell_length_a 21.794696
_cell_length_b 14.532661
_cell_length_c 11.921079
_cell_angle_alpha 90.000000
_cell_angle_beta 90.000000
_cell_angle_gamma 90.000000
_cell_volume 3775.822105
_symmetry_space_group_name_H-M "I B C A "
_symmetry_group_IT_number 73
_symmetry_cell_setting 'orthorhombic'
loop_
_space_group_symop_operation_xyz
x,y,z
-x,1/2-y,z
x,-y,1/2-z
1/2-x,y,-z
-x,-y,-z
x,1/2+y,-z
-x,y,1/2+z
1/2+x,-y,z
1/2+x,1/2+y,1/2+z
1/2-x,-y,1/2+z
1/2+x,1/2-y,-z
-x,1/2+y,1/2-z
1/2-x,1/2-y,1/2-z
1/2+x,y,1/2-z
1/2-x,1/2+y,z
x,1/2-y,1/2+z
loop_
_atom_site_type_symbol
_atom_site_label
_atom_site_fract_x
_atom_site_fract_y
_atom_site_fract_z
Si Si1 0.750000 0.043720 0.500000
Si Si2 0.106706 0.900689 0.925918
Si Si3 0.627366 0.756203 0.229087
Si Si4 0.872391 0.398781 0.912758
Si Si5 0.527006 0.344340 0.912591
Si Si6 0.832633 0.073702 0.839935
O O1 0.775387 0.976091 0.598403
O O2 0.693990 0.109506 0.531596
O O3 0.138646 0.808289 0.879205
O O4 0.035106 0.899113 0.893865
O O5 0.130765 0.995343 0.874573
O O6 0.120337 0.905808 0.058557
O O7 0.616601 0.679932 0.323457
O O8 0.565913 0.812815 0.195722
O O9 0.675910 0.831200 0.272299
O O10 0.925591 0.392159 0.005009
O O11 0.500000 0.250000 0.965460
O O12 0.856628 0.000000 0.750000
#
# Coordination Sequence:
#
# PCOD9532089 Si02
#       6
#     8  16  16  16  16  16
#     4  10  26  48  70 102 144 194 258 304 346 426
#     4  10  23  42  68 107 146 183 238 299 362 442
#     4  11  22  40  69 104 140 183 233 290 364 431
#     4  11  23  45  69  97 142 193 240 301 365 424
#     4  10  22  41  66 104 143 181 238 298 360 441
#     4  11  25  47  74 103 143 194 244 298 361 425
#
# _framework density 23.306180999999999
#
# number of rings (size 3 to 8) (size 9 to 14) (size 15 to 20)
#    0.000    1.455    0.000    5.455    0.000   10.182 
#    0.000   16.364    0.000    0.000    0.000    0.000 
#    0.000    0.000    0.000    0.000    0.000    0.000 
#
# Total GULP energy -245719.265308 kJ/mol
# GULP energy per Si atom -5584.528757 kJ/mol
# Density = 2.325314 g / cm^3
# Si number density = 23.306181 Si / 1000 Ang^3
#
#
#
# Elastic Constant Matrix: (Units=GPa)
#
#
# Indices 1 2 3 4 5 6 
#
# 1 61.5171 16.6895 20.3989 0.0000 0.0000 0.0000
# 2 16.6895 112.3637 62.2697 0.0000 0.0000 0.0000
# 3 20.3989 62.2697 120.8621 0.0000 0.0000 0.0000
# 4 0.0000 0.0000 0.0000 34.4258 0.0000 0.0000
# 5 0.0000 0.0000 0.0000 0.0000 -5.0906 0.0000
# 6 0.0000 0.0000 0.0000 0.0000 0.0000 69.4622
#
#
#
# Elastic Compliance Matrix: (Units=1/GPa)
#
#
# Indices 1 2 3 4 5 6 
#
# 1 0.017362 -0.001336 -0.002242 0.000000 0.000000 0.000000
# 2 -0.001336 0.012559 -0.006245 0.000000 0.000000 0.000000
# 3 -0.002242 -0.006245 0.011870 0.000000 0.000000 0.000000
# 4 0.000000 0.000000 0.000000 0.029048 0.000000 0.000000
# 5 0.000000 0.000000 0.000000 0.000000 -0.196442 0.000000
# 6 0.000000 0.000000 0.000000 0.000000 0.000000 0.014396
#
#
# Mechanical properties :
#
#
# Convention : Reuss Voigt Hill
#
# Bulk Modulus (GPa) = 45.15884 54.82878 49.99381
# Shear Modulus (GPa) = -59.39681 32.78514 -13.30584
#
# Velocity S-wave (km/s) = -5.05379 3.75469 -2.39197
# Velocity P-wave (km/s) = 3.82570 6.50949 3.72407
#
# Compressibility (1/GPa) = 0.02214406
#
# Stress axis : x y z
#
# Youngs Moduli (GPa) = 57.59851 79.62398 84.24768
#
# Poissons Ratio (x) = 0.10641 0.18886
# Poissons Ratio (y) = 0.07698 0.52613
# Poissons Ratio (z) = 0.12912 0.49725
#
# Static dielectric constant tensor:
#      x y z
#    x 1.879880 0.000000 0.000000 
#    y 0.000000 1.901570 0.000000 
#    z 0.000000 0.000000 1.948390 
# 
# From -- ./inp_files/13536.got.cif
#   From: 2010.05.17/outbox.cif.g08.bks.cpg/sg73_7_cif.got.tgz:13536.got - 2010.06.03 17:35:07.
