data_PCOD9532262
_publ_section_title
;
Structure prediction by ZEFSAII (Michael W. Deem and Ramdas Pophale) SiO2 
 PCOD9532262
Probable space group: I B C A 
;
_chemical_formula_sum "Si O2"
_cell_formula_units_Z 96
_cell_length_a 16.810020
_cell_length_b 23.293055
_cell_length_c 11.890640
_cell_angle_alpha 90.000000
_cell_angle_beta 90.000000
_cell_angle_gamma 90.000000
_cell_volume 4655.860002
_symmetry_space_group_name_H-M "I B C A "
_symmetry_group_IT_number 73
_symmetry_cell_setting 'orthorhombic'
loop_
_space_group_symop_operation_xyz
x,y,z
-x,1/2-y,z
x,-y,1/2-z
1/2-x,y,-z
-x,-y,-z
x,1/2+y,-z
-x,y,1/2+z
1/2+x,-y,z
1/2+x,1/2+y,1/2+z
1/2-x,-y,1/2+z
1/2+x,1/2-y,-z
-x,1/2+y,1/2-z
1/2-x,1/2-y,1/2-z
1/2+x,y,1/2-z
1/2-x,1/2+y,z
x,1/2-y,1/2+z
loop_
_atom_site_type_symbol
_atom_site_label
_atom_site_fract_x
_atom_site_fract_y
_atom_site_fract_z
Si Si1 0.050006 0.495889 0.620560
Si Si2 0.211881 0.814136 0.756742
Si Si3 0.646966 0.110416 0.143198
Si Si4 0.423565 0.635563 0.139198
Si Si5 0.335047 0.211198 0.021477
Si Si6 0.088422 0.817450 0.950493
O O1 0.010224 0.500000 0.750000
O O2 0.119664 0.543988 0.631591
O O3 0.083346 0.431664 0.614836
O O4 0.000000 0.500000 0.500000
O O5 0.250000 0.750000 0.750000
O O6 0.271376 0.863732 0.803899
O O7 0.175522 0.825056 0.633690
O O8 0.137296 0.807157 0.838171
O O9 0.581291 0.139246 0.226479
O O10 0.634895 0.134956 0.020365
O O11 0.502127 0.660981 0.083098
O O12 0.352500 0.670160 0.082551
O O13 0.250000 0.241411 0.000000
O O14 0.402098 0.259644 0.023329
#
# Coordination Sequence:
#
# PCOD9532262 Si02
#       6
#    16  16  16  16  16  16
#     4  10  22  43  72  95 138 183 232 300 349 408
#     4  12  23  41  68  97 140 184 228 288 358 433
#     4  11  22  43  69  95 135 180 238 284 359 426
#     4  11  25  43  68 100 135 185 236 294 353 427
#     4  12  23  42  63  95 141 178 224 286 359 431
#     4  12  24  40  68  99 133 185 229 285 360 422
#
# _framework density 20.619177000000001
#
# number of rings (size 3 to 8) (size 9 to 14) (size 15 to 20)
#    0.000    0.667    6.667    1.000    2.333    0.000 
#    0.000    1.667    0.000    0.000    0.000    0.000 
#    0.000    0.000    0.000    0.000    0.000    0.000 
#
# Total GULP energy -267268.344180 kJ/mol
# GULP energy per Si atom -5568.090504 kJ/mol
# Density = 2.057225 g / cm^3
# Si number density = 20.619177 Si / 1000 Ang^3
#
#
#
# Elastic Constant Matrix: (Units=GPa)
#
#
# Indices 1 2 3 4 5 6 
#
# 1 66.9837 52.8819 23.0494 0.0000 0.0000 0.0000
# 2 52.8819 119.1601 21.5787 0.0000 0.0000 0.0000
# 3 23.0494 21.5787 87.0842 0.0000 0.0000 0.0000
# 4 0.0000 0.0000 0.0000 32.2522 0.0000 0.0000
# 5 0.0000 0.0000 0.0000 0.0000 32.8701 0.0000
# 6 0.0000 0.0000 0.0000 0.0000 0.0000 31.8679
#
#
#
# Elastic Compliance Matrix: (Units=1/GPa)
#
#
# Indices 1 2 3 4 5 6 
#
# 1 0.024194 -0.010027 -0.003919 0.000000 0.000000 0.000000
# 2 -0.010027 0.012942 -0.000553 0.000000 0.000000 0.000000
# 3 -0.003919 -0.000553 0.012657 0.000000 0.000000 0.000000
# 4 0.000000 0.000000 0.000000 0.031006 0.000000 0.000000
# 5 0.000000 0.000000 0.000000 0.000000 0.030423 0.000000
# 6 0.000000 0.000000 0.000000 0.000000 0.000000 0.031380
#
#
# Mechanical properties :
#
#
# Convention : Reuss Voigt Hill
#
# Bulk Modulus (GPa) = 48.08822 52.02757 50.05789
# Shear Modulus (GPa) = 28.00629 31.11258 29.55943
#
# Velocity S-wave (km/s) = 3.68946 3.88869 3.79038
# Velocity P-wave (km/s) = 6.44377 6.74166 6.59440
#
# Compressibility (1/GPa) = 0.02079512
#
# Stress axis : x y z
#
# Youngs Moduli (GPa) = 41.33291 77.26669 79.00511
#
# Poissons Ratio (x) = 0.77477 0.30962
# Poissons Ratio (y) = 0.41446 0.04369
# Poissons Ratio (z) = 0.16198 0.04272
#
# Static dielectric constant tensor:
#      x y z
#    x 1.757400 0.000000 0.000000 
#    y 0.000000 1.736250 0.000000 
#    z 0.000000 0.000000 1.834780 
# 
# From -- ./inp_files/12031.got.cif
#   From: 2010.05.17/outbox.cif.g08.bks.cpg/sg73_7_cif.got.tgz:12031.got - 2010.06.03 17:35:07.
