data_PCOD9532686
_publ_section_title
;
Structure prediction by ZEFSAII (Michael W. Deem and Ramdas Pophale) SiO2 
 PCOD9532686
Probable space group: I B C A 
;
_chemical_formula_sum "Si O2"
_cell_formula_units_Z 120
_cell_length_a 30.853571
_cell_length_b 24.317560
_cell_length_c 8.753894
_cell_angle_alpha 90.000000
_cell_angle_beta 90.000000
_cell_angle_gamma 90.000000
_cell_volume 6567.902789
_symmetry_space_group_name_H-M "I B C A "
_symmetry_group_IT_number 73
_symmetry_cell_setting 'orthorhombic'
loop_
_space_group_symop_operation_xyz
x,y,z
-x,1/2-y,z
x,-y,1/2-z
1/2-x,y,-z
-x,-y,-z
x,1/2+y,-z
-x,y,1/2+z
1/2+x,-y,z
1/2+x,1/2+y,1/2+z
1/2-x,-y,1/2+z
1/2+x,1/2-y,-z
-x,1/2+y,1/2-z
1/2-x,1/2-y,1/2-z
1/2+x,y,1/2-z
1/2-x,1/2+y,z
x,1/2-y,1/2+z
loop_
_atom_site_type_symbol
_atom_site_label
_atom_site_fract_x
_atom_site_fract_y
_atom_site_fract_z
Si Si1 0.453720 0.059864 0.173849
Si Si2 0.879374 0.363511 0.706884
Si Si3 0.500000 0.750000 0.063797
Si Si4 0.197148 0.697261 0.663727
Si Si5 0.292237 0.182162 0.300277
Si Si6 0.437641 0.272626 0.683758
Si Si7 0.544803 0.937126 0.192130
Si Si8 0.395754 0.653448 0.345557
O O1 0.410376 0.090773 0.224007
O O2 0.498558 0.083669 0.242078
O O3 0.451689 0.000000 0.250000
O O4 0.456683 0.060162 0.991025
O O5 0.827903 0.364249 0.734817
O O6 0.895542 0.308218 0.791750
O O7 0.889738 0.359374 0.525938
O O8 0.467892 0.714366 0.960073
O O9 0.531661 0.716609 0.172256
O O10 0.241563 0.669738 0.724502
O O11 0.198344 0.760795 0.713628
O O12 0.200419 0.694700 0.480050
O O13 0.152454 0.668835 0.713202
O O14 0.424649 0.208694 0.672539
O O15 0.581415 0.896315 0.257133
O O16 0.551250 0.000000 0.250000
#
# Coordination Sequence:
#
# PCOD9532686 Si02
#       8
#    16  16   8  16  16  16  16  16
#     4  11  24  41  61  82 110 146 188 232 277 328
#     4  11  22  35  56  81 113 147 188 230 275 332
#     4  10  24  34  44  66 116 150 184 214 276 324
#     4   9  18  33  53  80 114 149 184 227 277 332
#     4   9  18  33  53  80 114 149 184 227 277 332
#     4  11  22  34  47  76 108 150 181 224 265 332
#     4  11  24  41  61  82 110 146 188 232 277 328
#     4  11  22  35  56  81 113 147 188 230 275 332
#
# _framework density 18.270672999999999
#
# number of rings (size 3 to 8) (size 9 to 14) (size 15 to 20)
#    0.000    1.600    2.667    3.200    5.600    1.067 
#    0.000    0.000    0.000    0.800    0.000    0.000 
#    0.000    0.000    0.000    0.000    0.000    0.000 
#
# Total GULP energy -334773.495854 kJ/mol
# GULP energy per Si atom -5579.558264 kJ/mol
# Density = 1.822909 g / cm^3
# Si number density = 18.270673 Si / 1000 Ang^3
#
#
#
# Elastic Constant Matrix: (Units=GPa)
#
#
# Indices 1 2 3 4 5 6 
#
# 1 162.6667 45.3043 48.0120 0.0000 0.0000 0.0000
# 2 45.3043 61.4082 25.4741 0.0000 0.0000 0.0000
# 3 48.0120 25.4741 88.7408 0.0000 0.0000 0.0000
# 4 0.0000 0.0000 0.0000 18.2606 0.0000 0.0000
# 5 0.0000 0.0000 0.0000 0.0000 18.7040 0.0000
# 6 0.0000 0.0000 0.0000 0.0000 0.0000 18.7134
#
#
#
# Elastic Compliance Matrix: (Units=1/GPa)
#
#
# Indices 1 2 3 4 5 6 
#
# 1 0.008451 -0.004925 -0.003159 0.000000 0.000000 0.000000
# 2 -0.004925 0.021356 -0.003466 0.000000 0.000000 0.000000
# 3 -0.003159 -0.003466 0.013973 0.000000 0.000000 0.000000
# 4 0.000000 0.000000 0.000000 0.054763 0.000000 0.000000
# 5 0.000000 0.000000 0.000000 0.000000 0.053465 0.000000
# 6 0.000000 0.000000 0.000000 0.000000 0.000000 0.053438
#
#
# Mechanical properties :
#
#
# Convention : Reuss Voigt Hill
#
# Bulk Modulus (GPa) = 48.35409 61.15516 54.75462
# Shear Modulus (GPa) = 21.23708 24.07061 22.65384
#
# Velocity S-wave (km/s) = 3.41304 3.63360 3.52504
# Velocity P-wave (km/s) = 6.48495 7.15182 6.82653
#
# Compressibility (1/GPa) = 0.02068077
#
# Stress axis : x y z
#
# Youngs Moduli (GPa) = 118.32237 46.82633 71.56789
#
# Poissons Ratio (x) = 0.23061 0.22607
# Poissons Ratio (y) = 0.58271 0.24805
# Poissons Ratio (z) = 0.37376 0.16229
#
# Static dielectric constant tensor:
#      x y z
#    x 1.679090 0.000000 0.000000 
#    y 0.000000 1.647540 0.000000 
#    z 0.000000 0.000000 1.656140 
# 
# From -- ./inp_files/8571.got.cif
#   From: 2010.05.17/outbox.cif.g08.bks.cpg/sg73_5_cif.got.tgz:8571.got - 2010.06.03 17:35:07.
