data_PCOD9532966
_publ_section_title
;
Structure prediction by ZEFSAII (Michael W. Deem and Ramdas Pophale) SiO2 
 PCOD9532966
Probable space group: I B C A 
;
_chemical_formula_sum "Si O2"
_cell_formula_units_Z 88
_cell_length_a 34.253765
_cell_length_b 20.952358
_cell_length_c 5.394621
_cell_angle_alpha 90.000000
_cell_angle_beta 90.000000
_cell_angle_gamma 90.000000
_cell_volume 3871.704102
_symmetry_space_group_name_H-M "I B C A "
_symmetry_group_IT_number 73
_symmetry_cell_setting 'orthorhombic'
loop_
_space_group_symop_operation_xyz
x,y,z
-x,1/2-y,z
x,-y,1/2-z
1/2-x,y,-z
-x,-y,-z
x,1/2+y,-z
-x,y,1/2+z
1/2+x,-y,z
1/2+x,1/2+y,1/2+z
1/2-x,-y,1/2+z
1/2+x,1/2-y,-z
-x,1/2+y,1/2-z
1/2-x,1/2-y,1/2-z
1/2+x,y,1/2-z
1/2-x,1/2+y,z
x,1/2-y,1/2+z
loop_
_atom_site_type_symbol
_atom_site_label
_atom_site_fract_x
_atom_site_fract_y
_atom_site_fract_z
Si Si1 0.118564 0.500000 0.750000
Si Si2 0.025903 0.500000 0.250000
Si Si3 0.515604 0.822244 0.088518
Si Si4 0.225081 0.500000 0.250000
Si Si5 0.083740 0.395523 0.417553
Si Si6 0.204001 0.289813 0.974774
Si Si7 0.339060 0.590396 0.624725
O O1 0.093007 0.442449 0.645169
O O2 0.144767 0.531588 0.537316
O O3 0.054970 0.439129 0.252462
O O4 0.000000 0.500000 0.500000
O O5 0.500000 0.750000 0.115129
O O6 0.490748 0.850776 0.860533
O O7 0.559872 0.833615 0.003832
O O8 0.250000 0.507265 0.500000
O O9 0.197224 0.561860 0.223240
O O10 0.124672 0.384446 0.284356
O O11 0.196184 0.248025 0.730622
O O12 0.250000 0.306376 0.000000
O O13 0.178010 0.352849 0.961805
#
# Coordination Sequence:
#
# PCOD9532966 Si02
#       7
#     8   8  16   8  16  16  16
#     4  12  24  46  72 112 160 190 250 300 394 456
#     4  12  24  40  67  99 136 186 236 286 366 436
#     4  10  24  48  72 102 141 190 250 309 368 437
#     4  12  26  44  73 113 154 198 248 312 390 458
#     4  12  25  44  70 105 151 193 242 311 370 457
#     4  10  25  49  74 104 142 196 257 307 360 441
#     4  12  26  46  73 111 154 201 245 314 383 459
#
# _framework density 22.729009999999999
#
# number of rings (size 3 to 8) (size 9 to 14) (size 15 to 20)
#    0.000    0.727    3.636    2.727    5.091    2.182 
#    6.545    0.000    0.000    0.000    0.000    0.000 
#    0.000    0.000    0.000    0.000    0.000    0.000 
#
# Total GULP energy -246066.701625 kJ/mol
# GULP energy per Si atom -5592.425037 kJ/mol
# Density = 2.267728 g / cm^3
# Si number density = 22.729010 Si / 1000 Ang^3
#
#
#
# Elastic Constant Matrix: (Units=GPa)
#
#
# Indices 1 2 3 4 5 6 
#
# 1 108.8334 46.0870 42.2015 0.0000 0.0000 0.0000
# 2 46.0870 84.4995 10.7472 0.0000 0.0000 0.0000
# 3 42.2015 10.7472 134.0565 -0.0003 0.0002 -0.0002
# 4 0.0000 0.0000 -0.0003 25.2996 0.0000 0.0000
# 5 0.0000 0.0000 0.0002 0.0000 23.8541 0.0000
# 6 0.0000 0.0000 -0.0002 0.0000 0.0000 44.1469
#
#
#
# Elastic Compliance Matrix: (Units=1/GPa)
#
#
# Indices 1 2 3 4 5 6 
#
# 1 0.013560 -0.006924 -0.003714 0.000000 0.000000 0.000000
# 2 -0.006924 0.015491 0.000938 0.000000 0.000000 0.000000
# 3 -0.003714 0.000938 0.008553 0.000000 0.000000 0.000000
# 4 0.000000 0.000000 0.000000 0.039526 0.000000 0.000000
# 5 0.000000 0.000000 0.000000 0.000000 0.041922 0.000000
# 6 0.000000 0.000000 0.000000 0.000000 0.000000 0.022652
#
#
# Mechanical properties :
#
#
# Convention : Reuss Voigt Hill
#
# Bulk Modulus (GPa) = 54.92796 58.38454 56.65625
# Shear Modulus (GPa) = 29.90920 33.88370 31.89645
#
# Velocity S-wave (km/s) = 3.63147 3.86524 3.75018
# Velocity P-wave (km/s) = 6.46548 6.75745 6.61307
#
# Compressibility (1/GPa) = 0.01820567
#
# Stress axis : x y z
#
# Youngs Moduli (GPa) = 73.74463 64.55223 116.91139
#
# Poissons Ratio (x) = 0.44693 0.43418
# Poissons Ratio (y) = 0.51058 -0.10962
# Poissons Ratio (z) = 0.27387 -0.06053
#
# Static dielectric constant tensor:
#      x y z
#    x 1.856270 0.000000 0.000000 
#    y 0.000000 1.775230 0.000000 
#    z 0.000000 0.000000 1.910330 
# 
# From -- ./inp_files/3130.got.cif
#   From: 2010.05.17/outbox.cif.g08.bks.cpg/sg73_2_cif.got.tgz:3130.got - 2010.06.03 17:35:07.
