data_PCOD9532824
_publ_section_title
;
Structure prediction by ZEFSAII (Michael W. Deem and Ramdas Pophale) SiO2 
 PCOD9532824
Probable space group: I B C A 
;
_chemical_formula_sum "Si O2"
_cell_formula_units_Z 112
_cell_length_a 10.645152
_cell_length_b 19.163091
_cell_length_c 22.209827
_cell_angle_alpha 90.000000
_cell_angle_beta 90.000000
_cell_angle_gamma 90.000000
_cell_volume 4530.671815
_symmetry_space_group_name_H-M "I B C A "
_symmetry_group_IT_number 73
_symmetry_cell_setting 'orthorhombic'
loop_
_space_group_symop_operation_xyz
x,y,z
-x,1/2-y,z
x,-y,1/2-z
1/2-x,y,-z
-x,-y,-z
x,1/2+y,-z
-x,y,1/2+z
1/2+x,-y,z
1/2+x,1/2+y,1/2+z
1/2-x,-y,1/2+z
1/2+x,1/2-y,-z
-x,1/2+y,1/2-z
1/2-x,1/2-y,1/2-z
1/2+x,y,1/2-z
1/2-x,1/2+y,z
x,1/2-y,1/2+z
loop_
_atom_site_type_symbol
_atom_site_label
_atom_site_fract_x
_atom_site_fract_y
_atom_site_fract_z
Si Si1 0.134801 0.915603 0.239725
Si Si2 0.896519 0.597604 0.816988
Si Si3 0.500000 0.250000 0.628357
Si Si4 0.250000 0.436617 0.000000
Si Si5 0.505816 0.875954 0.466070
Si Si6 0.446248 0.319862 0.420018
Si Si7 0.135774 0.025292 0.898039
Si Si8 0.774095 0.169531 0.341257
O O1 0.198718 0.863162 0.286922
O O2 0.984817 0.899344 0.255665
O O3 0.148433 0.000000 0.250000
O O4 0.242362 0.101355 0.312043
O O5 0.962907 0.644545 0.869341
O O6 0.911548 0.519595 0.842488
O O7 0.482893 0.183905 0.583999
O O8 0.615218 0.224237 0.669244
O O9 0.134681 0.384464 0.999941
O O10 0.269884 0.483696 0.940781
O O11 0.410960 0.865136 0.521576
O O12 0.481908 0.951138 0.437279
O O13 0.500000 0.250000 0.448353
O O14 0.324635 0.294579 0.384652
O O15 0.185680 0.099454 0.876341
#
# Coordination Sequence:
#
# PCOD9532824 Si02
#       8
#    16  16   8   8  16  16  16  16
#     4  11  23  45  71 104 133 180 234 303 362 418
#     4  11  25  45  72 104 140 181 239 297 365 418
#     4  10  24  44  64 102 132 192 238 274 350 428
#     4  12  24  36  64 106 138 180 230 282 352 432
#     4  11  24  39  66 101 140 187 228 278 347 440
#     4  11  24  46  67  98 143 191 233 285 357 424
#     4  11  23  41  66 104 142 180 224 295 354 430
#     4  10  24  44  70  95 140 186 233 299 353 423
#
# _framework density 24.720396000000001
#
# number of rings (size 3 to 8) (size 9 to 14) (size 15 to 20)
#    0.000    1.143    3.571    1.714    6.000    1.714 
#    6.429    1.429    0.000    0.000    0.000    0.000 
#    0.000    0.000    0.000    0.000    0.000    0.000 
#
# Total GULP energy -311857.023624 kJ/mol
# GULP energy per Si atom -5568.875422 kJ/mol
# Density = 2.466413 g / cm^3
# Si number density = 24.720396 Si / 1000 Ang^3
#
#
#
# Elastic Constant Matrix: (Units=GPa)
#
#
# Indices 1 2 3 4 5 6 
#
# 1 54.0365 20.8861 20.3033 0.0000 0.0000 0.0000
# 2 20.8861 70.6114 13.2910 0.0000 0.0001 0.0000
# 3 20.3033 13.2910 51.0058 0.0000 0.0000 0.0000
# 4 0.0000 0.0000 0.0000 31.6795 0.0000 0.0000
# 5 0.0000 0.0001 0.0000 0.0000 2902.4517 0.0000
# 6 0.0000 0.0000 0.0000 0.0000 0.0000 33.4297
#
#
#
# Elastic Compliance Matrix: (Units=1/GPa)
#
#
# Indices 1 2 3 4 5 6 
#
# 1 0.023623 -0.005486 -0.007974 0.000000 0.000000 0.000000
# 2 -0.005486 0.016167 -0.002029 0.000000 0.000000 0.000000
# 3 -0.007974 -0.002029 0.023308 0.000000 0.000000 0.000000
# 4 0.000000 0.000000 0.000000 0.031566 0.000000 0.000000
# 5 0.000000 0.000000 0.000000 0.000000 0.000345 0.000000
# 6 0.000000 0.000000 0.000000 0.000000 0.000000 0.029913
#
#
# Mechanical properties :
#
#
# Convention : Reuss Voigt Hill
#
# Bulk Modulus (GPa) = 31.13326 31.62383 31.37855
# Shear Modulus (GPa) = 30.01096 601.59041 315.80069
#
# Velocity S-wave (km/s) = 3.48805 15.61686 11.31487
# Velocity P-wave (km/s) = 5.37062 18.38483 13.54337
#
# Compressibility (1/GPa) = 0.03211999
#
# Stress axis : x y z
#
# Youngs Moduli (GPa) = 42.33244 61.85550 42.90335
#
# Poissons Ratio (x) = 0.33937 0.34209
# Poissons Ratio (y) = 0.23225 0.08704
# Poissons Ratio (z) = 0.33754 0.12549
#
# Static dielectric constant tensor:
#      x y z
#    x 2.133700 0.000000 0.000000 
#    y 0.000000 1.875510 0.000000 
#    z 0.000000 0.000000 2.125440 
# 
# From -- ./inp_files/29050.got.cif
#   From: 2010.05.17/outbox.cif.g08.bks.cpg/sg73_15_cif.got.tgz:29050.got - 2010.06.03 17:35:07.
