data_PCOD9532981
_publ_section_title
;
Structure prediction by ZEFSAII (Michael W. Deem and Ramdas Pophale) SiO2 
 PCOD9532981
Probable space group: I B C A 
;
_chemical_formula_sum "Si O2"
_cell_formula_units_Z 64
_cell_length_a 9.235095
_cell_length_b 26.216611
_cell_length_c 10.137885
_cell_angle_alpha 90.000000
_cell_angle_beta 90.000000
_cell_angle_gamma 90.000000
_cell_volume 2454.512668
_symmetry_space_group_name_H-M "I B C A "
_symmetry_group_IT_number 73
_symmetry_cell_setting 'orthorhombic'
loop_
_space_group_symop_operation_xyz
x,y,z
-x,1/2-y,z
x,-y,1/2-z
1/2-x,y,-z
-x,-y,-z
x,1/2+y,-z
-x,y,1/2+z
1/2+x,-y,z
1/2+x,1/2+y,1/2+z
1/2-x,-y,1/2+z
1/2+x,1/2-y,-z
-x,1/2+y,1/2-z
1/2-x,1/2-y,1/2-z
1/2+x,y,1/2-z
1/2-x,1/2+y,z
x,1/2-y,1/2+z
loop_
_atom_site_type_symbol
_atom_site_label
_atom_site_fract_x
_atom_site_fract_y
_atom_site_fract_z
Si Si1 0.961959 0.691050 0.595890
Si Si2 0.343819 0.349505 0.328610
Si Si3 0.117410 0.942474 0.928912
Si Si4 0.135747 0.443322 0.358163
O O1 0.801486 0.685126 0.658218
O O2 0.000000 0.750000 0.581484
O O3 0.076373 0.663980 0.692961
O O4 0.932881 0.572345 0.783215
O O5 0.270694 0.404896 0.357488
O O6 0.447366 0.334639 0.451530
O O7 0.991402 0.941902 0.034697
O O8 0.250000 0.914692 0.000000
O O9 0.181977 0.998090 0.883000
#
# Coordination Sequence:
#
# PCOD9532981 Si02
#       4
#    16  16  16  16
#     4  11  26  51  81 118 157 207 256 339 406 475
#     4  11  27  50  82 116 163 205 273 322 395 493
#     4  10  24  48  77 104 170 206 260 333 395 465
#     4  10  25  48  74 119 147 216 267 325 396 466
#
# _framework density 26.074421999999998
#
# number of rings (size 3 to 8) (size 9 to 14) (size 15 to 20)
#    0.000    1.500    0.000    1.500    7.000   15.000 
#    0.000    0.000    0.000    1.500    0.000    0.000 
#    0.000    0.000    0.000    0.000    0.000    0.000 
#
# Total GULP energy -178905.312530 kJ/mol
# GULP energy per Si atom -5590.791017 kJ/mol
# Density = 2.601508 g / cm^3
# Si number density = 26.074422 Si / 1000 Ang^3
#
#
#
# Elastic Constant Matrix: (Units=GPa)
#
#
# Indices 1 2 3 4 5 6 
#
# 1 117.1292 33.7182 100.7162 0.0002 0.0000 -0.0001
# 2 33.7182 169.8793 33.3495 0.0000 0.0000 0.0000
# 3 100.7162 33.3495 262.6979 0.0029 0.0010 0.0006
# 4 0.0002 0.0000 0.0029 22.5503 0.0003 0.0002
# 5 0.0000 0.0000 0.0010 0.0003 72.6688 0.0002
# 6 -0.0001 0.0000 0.0006 0.0002 0.0002 13.4709
#
#
#
# Elastic Compliance Matrix: (Units=1/GPa)
#
#
# Indices 1 2 3 4 5 6 
#
# 1 0.013180 -0.001666 -0.004842 0.000001 0.000000 0.000000
# 2 -0.001666 0.006247 -0.000155 0.000000 0.000000 0.000000
# 3 -0.004842 -0.000155 0.005683 -0.000001 0.000000 0.000000
# 4 0.000001 0.000000 -0.000001 0.044345 0.000000 -0.000001
# 5 0.000000 0.000000 0.000000 0.000000 0.013761 0.000000
# 6 0.000000 0.000000 0.000000 -0.000001 0.000000 0.074234
#
#
# Mechanical properties :
#
#
# Convention : Reuss Voigt Hill
#
# Bulk Modulus (GPa) = 84.84233 98.36380 91.60306
# Shear Modulus (GPa) = 28.61988 47.19948 37.90968
#
# Velocity S-wave (km/s) = 3.31663 4.25924 3.81714
# Velocity P-wave (km/s) = 6.87575 7.87365 7.39156
#
# Compressibility (1/GPa) = 0.01178657
#
# Stress axis : x y z
#
# Youngs Moduli (GPa) = 75.87024 160.06501 175.97627
#
# Poissons Ratio (x) = 0.26660 0.85204
# Poissons Ratio (y) = 0.12637 0.02720
# Poissons Ratio (z) = 0.36735 0.02474
#
# Static dielectric constant tensor:
#      x y z
#    x 2.047200 0.000000 0.000000 
#    y 0.000000 2.192290 0.000000 
#    z 0.000000 0.000000 2.232350 
# 
# From -- ./inp_files/9586.got.cif
#   From: 2010.05.17/outbox.cif.g08.bks.cpg/sg73_5_cif.got.tgz:9586.got - 2010.06.03 17:35:07.
