data_PCOD9532155
_publ_section_title
;
Structure prediction by ZEFSAII (Michael W. Deem and Ramdas Pophale) SiO2 
 PCOD9532155
Probable space group: I B C A 
;
_chemical_formula_sum "Si O2"
_cell_formula_units_Z 88
_cell_length_a 27.013251
_cell_length_b 13.416783
_cell_length_c 10.330233
_cell_angle_alpha 90.000000
_cell_angle_beta 90.000000
_cell_angle_gamma 90.000000
_cell_volume 3743.995920
_symmetry_space_group_name_H-M "I B C A "
_symmetry_group_IT_number 73
_symmetry_cell_setting 'orthorhombic'
loop_
_space_group_symop_operation_xyz
x,y,z
-x,1/2-y,z
x,-y,1/2-z
1/2-x,y,-z
-x,-y,-z
x,1/2+y,-z
-x,y,1/2+z
1/2+x,-y,z
1/2+x,1/2+y,1/2+z
1/2-x,-y,1/2+z
1/2+x,1/2-y,-z
-x,1/2+y,1/2-z
1/2-x,1/2-y,1/2-z
1/2+x,y,1/2-z
1/2-x,1/2+y,z
x,1/2-y,1/2+z
loop_
_atom_site_type_symbol
_atom_site_label
_atom_site_fract_x
_atom_site_fract_y
_atom_site_fract_z
Si Si1 0.173853 0.611139 0.146859
Si Si2 0.760489 0.000000 0.750000
Si Si3 0.337935 0.665080 0.334517
Si Si4 0.120674 0.931742 0.910592
Si Si5 0.941357 0.622608 0.255188
Si Si6 0.515440 0.613519 0.024976
O O1 0.223847 0.546474 0.141435
O O2 0.180536 0.726494 0.122919
O O3 0.130266 0.550578 0.075613
O O4 0.155000 0.604584 0.294810
O O5 0.794715 0.092618 0.787980
O O6 0.361300 0.614789 0.458893
O O7 0.385747 0.666661 0.240092
O O8 0.064922 0.898256 0.888974
O O9 0.937854 0.500000 0.250000
O O10 0.972180 0.654815 0.382436
O O11 0.968441 0.652469 0.118365
O O12 0.500000 0.500000 0.000000
#
# Coordination Sequence:
#
# PCOD9532155 Si02
#       6
#    16   8  16  16  16  16
#     4  10  24  41  64  92 132 173 212 278 338 399
#     4  10  22  42  66  98 124 168 220 276 342 400
#     4  11  21  42  67  96 132 165 230 274 328 400
#     4   9  22  42  62  92 133 176 211 267 340 394
#     4   9  18  34  61  97 125 177 211 271 320 382
#     4   9  18  33  64  89 127 178 215 257 332 380
#
# _framework density 23.504300000000001
#
# number of rings (size 3 to 8) (size 9 to 14) (size 15 to 20)
#    0.000    2.545    0.909    0.545    7.636    4.364 
#    0.000    4.545    4.000    0.000    0.000    0.000 
#    0.000    0.000    0.000    0.000    0.000    0.000 
#
# Total GULP energy -245594.854630 kJ/mol
# GULP energy per Si atom -5581.701242 kJ/mol
# Density = 2.345080 g / cm^3
# Si number density = 23.504300 Si / 1000 Ang^3
#
#
#
# Elastic Constant Matrix: (Units=GPa)
#
#
# Indices 1 2 3 4 5 6 
#
# 1 118.7686 24.0787 28.8386 0.0000 0.0000 0.0000
# 2 24.0787 115.1782 -2.4893 0.0000 0.0000 0.0000
# 3 28.8386 -2.4893 59.2972 0.0000 0.0000 0.0000
# 4 0.0000 0.0000 0.0000 5.9074 0.0000 0.0000
# 5 0.0000 0.0000 0.0000 0.0000 31.7622 0.0000
# 6 0.0000 0.0000 0.0000 0.0000 0.0000 169.8811
#
#
#
# Elastic Compliance Matrix: (Units=1/GPa)
#
#
# Indices 1 2 3 4 5 6 
#
# 1 0.010082 -0.002216 -0.004996 0.000000 0.000000 0.000000
# 2 -0.002216 0.009177 0.001463 0.000000 0.000000 0.000000
# 3 -0.004996 0.001463 0.019356 0.000000 0.000000 0.000000
# 4 0.000000 0.000000 0.000000 0.169280 0.000000 0.000000
# 5 0.000000 0.000000 0.000000 0.000000 0.031484 0.000000
# 6 0.000000 0.000000 0.000000 0.000000 0.000000 0.005886
#
#
# Mechanical properties :
#
#
# Convention : Reuss Voigt Hill
#
# Bulk Modulus (GPa) = 36.87829 43.78890 40.33359
# Shear Modulus (GPa) = 18.81093 57.69784 38.25439
#
# Velocity S-wave (km/s) = 2.83206 4.95995 4.03867
# Velocity P-wave (km/s) = 5.13986 7.17440 6.24060
#
# Compressibility (1/GPa) = 0.02711623
#
# Stress axis : x y z
#
# Youngs Moduli (GPa) = 99.18542 108.96778 51.66476
#
# Poissons Ratio (x) = 0.24144 0.25814
# Poissons Ratio (y) = 0.21977 -0.07558
# Poissons Ratio (z) = 0.49557 -0.15940
#
# Static dielectric constant tensor:
#      x y z
#    x 1.905450 0.000000 0.000000 
#    y 0.000000 1.961700 0.000000 
#    z 0.000000 0.000000 1.975970 
# 
# From -- ./inp_files/14214.got.cif
#   From: 2010.05.17/outbox.cif.g08.bks.cpg/sg73_8_cif.got.tgz:14214.got - 2010.06.03 17:35:07.
