data_PCOD9532183
_publ_section_title
;
Structure prediction by ZEFSAII (Michael W. Deem and Ramdas Pophale) SiO2 
 PCOD9532183
Probable space group: I B C A 
;
_chemical_formula_sum "Si O2"
_cell_formula_units_Z 112
_cell_length_a 13.755365
_cell_length_b 34.909543
_cell_length_c 10.950122
_cell_angle_alpha 90.000000
_cell_angle_beta 90.000000
_cell_angle_gamma 90.000000
_cell_volume 5258.177474
_symmetry_space_group_name_H-M "I B C A "
_symmetry_group_IT_number 73
_symmetry_cell_setting 'orthorhombic'
loop_
_space_group_symop_operation_xyz
x,y,z
-x,1/2-y,z
x,-y,1/2-z
1/2-x,y,-z
-x,-y,-z
x,1/2+y,-z
-x,y,1/2+z
1/2+x,-y,z
1/2+x,1/2+y,1/2+z
1/2-x,-y,1/2+z
1/2+x,1/2-y,-z
-x,1/2+y,1/2-z
1/2-x,1/2-y,1/2-z
1/2+x,y,1/2-z
1/2-x,1/2+y,z
x,1/2-y,1/2+z
loop_
_atom_site_type_symbol
_atom_site_label
_atom_site_fract_x
_atom_site_fract_y
_atom_site_fract_z
Si Si1 0.250000 0.526984 0.000000
Si Si2 0.582653 0.589562 0.480119
Si Si3 0.172961 0.000000 0.250000
Si Si4 0.101526 0.656863 0.688262
Si Si5 0.488817 0.790192 0.131103
Si Si6 0.909910 0.826715 0.061490
Si Si7 0.212306 0.207765 0.714130
Si Si8 0.447427 0.921979 0.747034
O O1 0.159642 0.555544 0.012855
O O2 0.265365 0.503522 0.125071
O O3 0.629695 0.632228 0.483115
O O4 0.521011 0.584494 0.605936
O O5 0.528366 0.583449 0.351172
O O6 0.105446 0.037574 0.258330
O O7 0.195976 0.682382 0.678048
O O8 0.124914 0.613321 0.721636
O O9 0.032024 0.674533 0.793602
O O10 0.023608 0.660519 0.580104
O O11 0.500000 0.750000 0.202608
O O12 0.373660 0.792743 0.114072
O O13 0.567158 0.789921 0.022320
O O14 0.842647 0.811802 0.170164
O O15 0.250000 0.250000 0.750000
#
# Coordination Sequence:
#
# PCOD9532183 Si02
#       8
#     8  16   8  16  16  16  16  16
#     4  10  24  42  68 104 140 170 236 280 348 428
#     4  10  22  42  69  96 133 181 225 277 345 417
#     4  10  24  42  66 102 136 174 224 290 336 424
#     4  10  22  43  60  89 128 165 219 270 327 406
#     4  11  22  39  61  89 127 167 219 275 329 392
#     4  10  24  39  64  89 128 172 217 282 334 398
#     4  11  24  40  61  88 126 172 217 275 340 398
#     4  10  22  43  67  97 134 175 226 276 348 412
#
# _framework density 21.300156000000001
#
# number of rings (size 3 to 8) (size 9 to 14) (size 15 to 20)
#    0.000    1.714    2.857    0.000    6.000    5.143 
#    0.000    2.857    0.000    0.000    0.000    0.000 
#    0.000    0.000    0.000    0.000    0.000    0.000 
#
# Total GULP energy -311810.079429 kJ/mol
# GULP energy per Si atom -5568.037133 kJ/mol
# Density = 2.125168 g / cm^3
# Si number density = 21.300156 Si / 1000 Ang^3
#
#
#
# Elastic Constant Matrix: (Units=GPa)
#
#
# Indices 1 2 3 4 5 6 
#
# 1 83.3311 25.7919 22.3816 -0.0003 0.0001 0.0001
# 2 25.7919 144.0132 24.1083 -0.0005 0.0000 0.0001
# 3 22.3816 24.1083 109.8094 -0.0014 0.0009 0.0006
# 4 -0.0003 -0.0005 -0.0014 24.3033 0.0000 0.0002
# 5 0.0001 0.0000 0.0009 0.0000 26.3034 -0.0001
# 6 0.0001 0.0001 0.0006 0.0002 -0.0001 24.4918
#
#
#
# Elastic Compliance Matrix: (Units=1/GPa)
#
#
# Indices 1 2 3 4 5 6 
#
# 1 0.013223 -0.001990 -0.002258 0.000000 0.000000 0.000000
# 2 -0.001990 0.007508 -0.001243 0.000000 0.000000 0.000000
# 3 -0.002258 -0.001243 0.009840 0.000001 0.000000 0.000000
# 4 0.000000 0.000000 0.000001 0.041147 0.000000 0.000000
# 5 0.000000 0.000000 0.000000 0.000000 0.038018 0.000000
# 6 0.000000 0.000000 0.000000 0.000000 0.000000 0.040830
#
#
# Mechanical properties :
#
#
# Convention : Reuss Voigt Hill
#
# Bulk Modulus (GPa) = 51.04975 53.52414 52.28694
# Shear Modulus (GPa) = 29.74827 32.67785 31.21306
#
# Velocity S-wave (km/s) = 3.74120 3.92108 3.83220
# Velocity P-wave (km/s) = 6.53306 6.75892 6.64695
#
# Compressibility (1/GPa) = 0.01958874
#
# Stress axis : x y z
#
# Youngs Moduli (GPa) = 75.62703 133.18646 101.62801
#
# Poissons Ratio (x) = 0.26505 0.22949
# Poissons Ratio (y) = 0.15050 0.12630
# Poissons Ratio (z) = 0.17078 0.16552
#
# Static dielectric constant tensor:
#      x y z
#    x 1.815240 0.000000 0.000000 
#    y 0.000000 1.895130 0.000000 
#    z 0.000000 0.000000 1.965890 
# 
# From -- ./inp_files/11302.got.cif
#   From: 2010.05.17/outbox.cif.g08.bks.cpg/sg73_6_cif.got.tgz:11302.got - 2010.06.03 17:35:07.
