data_PCOD9532813
_publ_section_title
;
Structure prediction by ZEFSAII (Michael W. Deem and Ramdas Pophale) SiO2 
 PCOD9532813
Probable space group: I B C A 
;
_chemical_formula_sum "Si O2"
_cell_formula_units_Z 112
_cell_length_a 11.615757
_cell_length_b 28.123562
_cell_length_c 14.827074
_cell_angle_alpha 90.000000
_cell_angle_beta 90.000000
_cell_angle_gamma 90.000000
_cell_volume 4843.656079
_symmetry_space_group_name_H-M "I B C A "
_symmetry_group_IT_number 73
_symmetry_cell_setting 'orthorhombic'
loop_
_space_group_symop_operation_xyz
x,y,z
-x,1/2-y,z
x,-y,1/2-z
1/2-x,y,-z
-x,-y,-z
x,1/2+y,-z
-x,y,1/2+z
1/2+x,-y,z
1/2+x,1/2+y,1/2+z
1/2-x,-y,1/2+z
1/2+x,1/2-y,-z
-x,1/2+y,1/2-z
1/2-x,1/2-y,1/2-z
1/2+x,y,1/2-z
1/2-x,1/2+y,z
x,1/2-y,1/2+z
loop_
_atom_site_type_symbol
_atom_site_label
_atom_site_fract_x
_atom_site_fract_y
_atom_site_fract_z
Si Si1 0.084214 0.962477 0.548319
Si Si2 0.435782 0.795002 0.140952
Si Si3 0.005993 0.098650 0.110059
Si Si4 0.698714 0.747767 0.901429
Si Si5 0.934177 0.583226 0.188975
Si Si6 0.986003 0.313737 0.845549
Si Si7 0.706927 0.028335 0.844324
O O1 0.075846 0.918951 0.477797
O O2 0.027400 0.952466 0.647007
O O3 0.000000 0.000000 0.500000
O O4 0.200835 0.987313 0.580690
O O5 0.500000 0.750000 0.095660
O O6 0.458788 0.847108 0.098584
O O7 0.303167 0.778146 0.151368
O O8 0.490806 0.800676 0.239822
O O9 0.899296 0.063495 0.133281
O O10 0.075957 0.092212 0.203896
O O11 0.587084 0.714431 0.895375
O O12 0.642803 0.798144 0.873309
O O13 0.750000 0.751818 0.000000
O O14 0.979374 0.632124 0.147698
O O15 0.815968 0.562724 0.152292
O O16 0.711534 0.000000 0.750000
#
# Coordination Sequence:
#
# PCOD9532813 Si02
#       7
#    16  16  16  16  16  16  16
#     4  10  24  43  68 101 143 179 248 306 376 446
#     4  11  23  43  75 102 151 200 253 305 384 459
#     4  10  24  45  68 110 142 192 251 308 375 460
#     4  11  24  41  71 108 148 187 252 314 382 446
#     4  11  24  45  72  95 148 189 243 309 372 451
#     4  10  24  46  69 103 143 201 252 304 376 465
#     4  11  23  43  72  99 137 194 239 308 387 443
#
# _framework density 23.12303
#
# number of rings (size 3 to 8) (size 9 to 14) (size 15 to 20)
#    0.000    1.429    2.857    1.286    8.000    2.286 
#    2.571    0.000    3.143    0.000    0.000    0.000 
#    0.000    0.000    0.000    0.000    0.000    0.000 
#
# Total GULP energy -312372.799931 kJ/mol
# GULP energy per Si atom -5578.085713 kJ/mol
# Density = 2.307040 g / cm^3
# Si number density = 23.123030 Si / 1000 Ang^3
#
#
#
# Elastic Constant Matrix: (Units=GPa)
#
#
# Indices 1 2 3 4 5 6 
#
# 1 83.7787 52.0380 30.3455 0.0000 0.0000 0.0000
# 2 52.0380 145.6915 44.9146 0.0001 0.0000 0.0000
# 3 30.3455 44.9146 110.9840 0.0007 -0.0001 0.0000
# 4 0.0000 0.0001 0.0007 61.6695 -0.0001 0.0000
# 5 0.0000 0.0000 -0.0001 -0.0001 33.7128 0.0000
# 6 0.0000 0.0000 0.0000 0.0000 0.0000 51.7926
#
#
#
# Elastic Compliance Matrix: (Units=1/GPa)
#
#
# Indices 1 2 3 4 5 6 
#
# 1 0.015851 -0.004942 -0.002334 0.000000 0.000000 0.000000
# 2 -0.004942 0.009383 -0.002446 0.000000 0.000000 0.000000
# 3 -0.002334 -0.002446 0.010638 0.000000 0.000000 0.000000
# 4 0.000000 0.000000 0.000000 0.016215 0.000000 0.000000
# 5 0.000000 0.000000 0.000000 0.000000 0.029662 0.000000
# 6 0.000000 0.000000 0.000000 0.000000 0.000000 0.019308
#
#
# Mechanical properties :
#
#
# Convention : Reuss Voigt Hill
#
# Bulk Modulus (GPa) = 60.87022 66.11671 63.49347
# Shear Modulus (GPa) = 39.68910 43.64539 41.66725
#
# Velocity S-wave (km/s) = 4.14748 4.34928 4.24958
# Velocity P-wave (km/s) = 7.02261 7.34011 7.18312
#
# Compressibility (1/GPa) = 0.01642839
#
# Stress axis : x y z
#
# Youngs Moduli (GPa) = 63.08581 106.57409 93.99949
#
# Poissons Ratio (x) = 0.52672 0.21940
# Poissons Ratio (y) = 0.31179 0.22992
# Poissons Ratio (z) = 0.14724 0.26068
#
# Static dielectric constant tensor:
#      x y z
#    x 1.906810 0.000000 0.000000 
#    y 0.000000 1.976330 0.000000 
#    z 0.000000 0.000000 1.907080 
# 
# From -- ./inp_files/16360.got.cif
#   From: 2010.05.17/outbox.cif.g08.bks.cpg/sg73_9_cif.got.tgz:16360.got - 2010.06.03 17:35:07.
