data_PCOD9532971
_publ_section_title
;
Structure prediction by ZEFSAII (Michael W. Deem and Ramdas Pophale) SiO2 
 PCOD9532971
Probable space group: I B C A 
;
_chemical_formula_sum "Si O2"
_cell_formula_units_Z 64
_cell_length_a 11.672662
_cell_length_b 8.757794
_cell_length_c 26.978111
_cell_angle_alpha 90.000000
_cell_angle_beta 90.000000
_cell_angle_gamma 90.000000
_cell_volume 2757.885127
_symmetry_space_group_name_H-M "I B C A "
_symmetry_group_IT_number 73
_symmetry_cell_setting 'orthorhombic'
loop_
_space_group_symop_operation_xyz
x,y,z
-x,1/2-y,z
x,-y,1/2-z
1/2-x,y,-z
-x,-y,-z
x,1/2+y,-z
-x,y,1/2+z
1/2+x,-y,z
1/2+x,1/2+y,1/2+z
1/2-x,-y,1/2+z
1/2+x,1/2-y,-z
-x,1/2+y,1/2-z
1/2-x,1/2-y,1/2-z
1/2+x,y,1/2-z
1/2-x,1/2+y,z
x,1/2-y,1/2+z
loop_
_atom_site_type_symbol
_atom_site_label
_atom_site_fract_x
_atom_site_fract_y
_atom_site_fract_z
Si Si1 0.750000 0.835736 0.000000
Si Si2 0.165499 0.573482 0.570143
Si Si3 0.159188 0.000000 0.250000
Si Si4 0.000000 0.250000 0.704183
Si Si5 0.000000 0.250000 0.364541
Si Si6 0.333478 0.505136 0.659428
O O1 0.694955 0.727267 0.959174
O O2 0.840393 0.942936 0.971397
O O3 0.267786 0.527538 0.607620
O O4 0.056108 0.615478 0.602622
O O5 0.078893 0.143297 0.238113
O O6 0.239394 0.017362 0.297551
O O7 0.923132 0.360476 0.670453
O O8 0.101690 0.342009 0.337620
#
# Coordination Sequence:
#
# PCOD9532971 Si02
#       6
#     8  16   8   8   8  16
#     4  10  24  48  74 104 154 194 252 316 370 424
#     4  11  24  48  71 111 150 196 248 317 360 446
#     4  12  28  52  76 112 152 194 244 306 360 454
#     4  12  28  47  77 108 146 200 243 290 385 438
#     4  12  26  47  79 108 148 202 243 300 387 438
#     4  12  27  48  76 111 153 191 249 309 364 446
#
# _framework density 23.206187
#
# number of rings (size 3 to 8) (size 9 to 14) (size 15 to 20)
#    0.000    0.500    2.500    4.500    3.500    8.000 
#    0.000    0.000    0.000    0.000    0.000    0.000 
#    0.000    0.000    0.000    0.000    0.000    0.000 
#
# Total GULP energy -179341.538063 kJ/mol
# GULP energy per Si atom -5604.423064 kJ/mol
# Density = 2.315337 g / cm^3
# Si number density = 23.206187 Si / 1000 Ang^3
#
#
#
# Elastic Constant Matrix: (Units=GPa)
#
#
# Indices 1 2 3 4 5 6 
#
# 1 96.2630 37.5023 44.5946 0.0000 0.0000 0.0000
# 2 37.5023 117.8282 53.9019 0.0000 0.0000 0.0000
# 3 44.5946 53.9019 119.2492 0.0000 0.0000 0.0000
# 4 0.0000 0.0000 0.0000 36.9028 0.0000 0.0000
# 5 0.0000 0.0000 0.0000 0.0000 11.2530 0.0000
# 6 0.0000 0.0000 0.0000 0.0000 0.0000 34.7365
#
#
#
# Elastic Compliance Matrix: (Units=1/GPa)
#
#
# Indices 1 2 3 4 5 6 
#
# 1 0.013095 -0.002430 -0.003798 0.000000 0.000000 0.000000
# 2 -0.002430 0.011150 -0.004131 0.000000 0.000000 0.000000
# 3 -0.003798 -0.004131 0.011674 0.000000 0.000000 0.000000
# 4 0.000000 0.000000 0.000000 0.027098 0.000000 0.000000
# 5 0.000000 0.000000 0.000000 0.000000 0.088865 0.000000
# 6 0.000000 0.000000 0.000000 0.000000 0.000000 0.028788
#
#
# Mechanical properties :
#
#
# Convention : Reuss Voigt Hill
#
# Bulk Modulus (GPa) = 65.79429 67.25977 66.52703
# Shear Modulus (GPa) = 24.21823 29.73458 26.97640
#
# Velocity S-wave (km/s) = 3.23400 3.58344 3.41319
# Velocity P-wave (km/s) = 6.50835 6.79469 6.65306
#
# Compressibility (1/GPa) = 0.01519889
#
# Stress axis : x y z
#
# Youngs Moduli (GPa) = 76.36744 89.68376 85.66301
#
# Poissons Ratio (x) = 0.21794 0.32539
# Poissons Ratio (y) = 0.18558 0.35390
# Poissons Ratio (z) = 0.29008 0.37051
#
# Static dielectric constant tensor:
#      x y z
#    x 1.867320 0.000000 0.000000 
#    y 0.000000 1.850620 0.000000 
#    z 0.000000 0.000000 1.891070 
# 
# From -- ./inp_files/4048.got.cif
#   From: 2010.05.17/outbox.cif.g08.bks.cpg/sg73_3_cif.got.tgz:4048.got - 2010.06.03 17:35:07.
