data_PCOD9532999
_publ_section_title
;
Structure prediction by ZEFSAII (Michael W. Deem and Ramdas Pophale) SiO2 
 PCOD9532999
Probable space group: I B C A 
;
_chemical_formula_sum "Si O2"
_cell_formula_units_Z 64
_cell_length_a 25.874019
_cell_length_b 8.600416
_cell_length_c 11.748936
_cell_angle_alpha 90.000000
_cell_angle_beta 90.000000
_cell_angle_gamma 90.000000
_cell_volume 2614.459323
_symmetry_space_group_name_H-M "I B C A "
_symmetry_group_IT_number 73
_symmetry_cell_setting 'orthorhombic'
loop_
_space_group_symop_operation_xyz
x,y,z
-x,1/2-y,z
x,-y,1/2-z
1/2-x,y,-z
-x,-y,-z
x,1/2+y,-z
-x,y,1/2+z
1/2+x,-y,z
1/2+x,1/2+y,1/2+z
1/2-x,-y,1/2+z
1/2+x,1/2-y,-z
-x,1/2+y,1/2-z
1/2-x,1/2-y,1/2-z
1/2+x,y,1/2-z
1/2-x,1/2+y,z
x,1/2-y,1/2+z
loop_
_atom_site_type_symbol
_atom_site_label
_atom_site_fract_x
_atom_site_fract_y
_atom_site_fract_z
Si Si1 0.555773 0.000000 0.250000
Si Si2 0.687639 0.562851 0.121719
Si Si3 0.250000 0.693548 0.000000
Si Si4 0.414436 0.245807 0.933914
Si Si5 0.956943 0.544105 0.630152
O O1 0.585004 0.877634 0.170580
O O2 0.514711 0.911362 0.331396
O O3 0.685290 0.500000 0.250000
O O4 0.731637 0.693898 0.101535
O O5 0.636520 0.649021 0.075762
O O6 0.704207 0.418353 0.042365
O O7 0.460226 0.373013 0.924539
O O8 0.424159 0.153634 0.049990
O O9 0.930124 0.500000 0.750000
#
# Coordination Sequence:
#
# PCOD9532999 Si02
#       5
#     8  16   8  16  16
#     4  10  26  44  70 104 154 210 250 314 384 430
#     4  11  24  47  79 114 151 193 251 312 383 466
#     4  10  24  50  78 114 152 196 238 314 400 458
#     4  12  24  46  74 110 148 200 263 314 371 459
#     4  10  26  44  72 103 153 203 255 313 378 441
#
# _framework density 24.479247999999998
#
# number of rings (size 3 to 8) (size 9 to 14) (size 15 to 20)
#    0.750    0.500    0.000    4.500    3.500    0.000 
#   11.250    0.000    0.000    0.000    0.000    0.000 
#    0.000    0.000    0.000    0.000    0.000    0.000 
#
# Total GULP energy -178925.371532 kJ/mol
# GULP energy per Si atom -5591.417860 kJ/mol
# Density = 2.442353 g / cm^3
# Si number density = 24.479248 Si / 1000 Ang^3
#
#
#
# Elastic Constant Matrix: (Units=GPa)
#
#
# Indices 1 2 3 4 5 6 
#
# 1 98.6025 60.1753 48.9469 0.0000 0.0000 0.0000
# 2 60.1753 168.9818 91.3742 0.0000 0.0000 0.0000
# 3 48.9469 91.3742 201.7068 0.0000 0.0000 0.0000
# 4 0.0000 0.0000 0.0000 49.2548 0.0000 0.0000
# 5 0.0000 0.0000 0.0000 0.0000 14.5194 0.0000
# 6 0.0000 0.0000 0.0000 0.0000 0.0000 85.4180
#
#
#
# Elastic Compliance Matrix: (Units=1/GPa)
#
#
# Indices 1 2 3 4 5 6 
#
# 1 0.013262 -0.003950 -0.001429 0.000000 0.000000 0.000000
# 2 -0.003950 0.009014 -0.003125 0.000000 0.000000 0.000000
# 3 -0.001429 -0.003125 0.006720 0.000000 0.000000 0.000000
# 4 0.000000 0.000000 0.000000 0.020303 0.000000 0.000000
# 5 0.000000 0.000000 0.000000 0.000000 0.068873 0.000000
# 6 0.000000 0.000000 0.000000 0.000000 0.000000 0.011707
#
#
# Mechanical properties :
#
#
# Convention : Reuss Voigt Hill
#
# Bulk Modulus (GPa) = 83.41371 96.69822 90.05597
# Shear Modulus (GPa) = 33.13844 47.75810 40.44827
#
# Velocity S-wave (km/s) = 3.68331 4.42176 4.06932
# Velocity P-wave (km/s) = 7.22760 8.10291 7.67774
#
# Compressibility (1/GPa) = 0.01198844
#
# Stress axis : x y z
#
# Youngs Moduli (GPa) = 75.40600 110.93665 148.80916
#
# Poissons Ratio (x) = 0.43819 0.21261
# Poissons Ratio (y) = 0.29785 0.46502
# Poissons Ratio (z) = 0.10774 0.34667
#
# Static dielectric constant tensor:
#      x y z
#    x 2.017380 0.000000 0.000000 
#    y 0.000000 1.982010 0.000000 
#    z 0.000000 0.000000 2.012990 
# 
# From -- ./inp_files/14550.got.cif
#   From: 2010.05.17/outbox.cif.g08.bks.cpg/sg73_8_cif.got.tgz:14550.got - 2010.06.03 17:35:07.
