data_PCOD9532127
_publ_section_title
;
Structure prediction by ZEFSAII (Michael W. Deem and Ramdas Pophale) SiO2 
 PCOD9532127
Probable space group: I B C A 
;
_chemical_formula_sum "Si O2"
_cell_formula_units_Z 88
_cell_length_a 10.192862
_cell_length_b 10.532489
_cell_length_c 36.238715
_cell_angle_alpha 90.000000
_cell_angle_beta 90.000000
_cell_angle_gamma 90.000000
_cell_volume 3890.450985
_symmetry_space_group_name_H-M "I B C A "
_symmetry_group_IT_number 73
_symmetry_cell_setting 'orthorhombic'
loop_
_space_group_symop_operation_xyz
x,y,z
-x,1/2-y,z
x,-y,1/2-z
1/2-x,y,-z
-x,-y,-z
x,1/2+y,-z
-x,y,1/2+z
1/2+x,-y,z
1/2+x,1/2+y,1/2+z
1/2-x,-y,1/2+z
1/2+x,1/2-y,-z
-x,1/2+y,1/2-z
1/2-x,1/2-y,1/2-z
1/2+x,y,1/2-z
1/2-x,1/2+y,z
x,1/2-y,1/2+z
loop_
_atom_site_type_symbol
_atom_site_label
_atom_site_fract_x
_atom_site_fract_y
_atom_site_fract_z
Si Si1 0.782259 0.035698 0.460194
Si Si2 0.500000 0.250000 0.294827
Si Si3 0.832220 0.127162 0.761149
Si Si4 0.248504 0.647573 0.660883
Si Si5 0.836658 0.104931 0.382690
Si Si6 0.961185 0.606876 0.060978
O O1 0.750000 0.090897 0.500000
O O2 0.765100 0.116571 0.422707
O O3 0.562176 0.010263 0.541044
O O4 0.684540 0.920825 0.451615
O O5 0.545914 0.139729 0.266549
O O6 0.617084 0.301568 0.320103
O O7 0.750000 0.250000 0.750000
O O8 0.850070 0.123035 0.804866
O O9 0.757858 0.000000 0.750000
O O10 0.192641 0.766582 0.638455
O O11 0.284893 0.520010 0.638368
O O12 0.988870 0.091100 0.396403
O O13 0.000000 0.750000 0.050712
#
# Coordination Sequence:
#
# PCOD9532127 Si02
#       6
#    16   8  16  16  16  16
#     4  10  23  44  70 100 147 188 244 302 358 441
#     4  10  24  38  66  94 130 178 232 278 360 428
#     4  10  22  42  62  91 128 171 230 285 353 430
#     4  11  22  44  64  98 135 179 229 299 348 428
#     4  10  25  41  70 100 141 180 236 294 366 425
#     4  10  23  44  67 102 143 183 250 289 373 435
#
# _framework density 22.619485999999998
#
# number of rings (size 3 to 8) (size 9 to 14) (size 15 to 20)
#    1.091    0.727    0.000    3.818    2.545    5.091 
#    8.182    2.727    0.000    0.000    0.000    0.000 
#    0.000    0.000    0.000    0.000    0.000    0.000 
#
# Total GULP energy -245058.096001 kJ/mol
# GULP energy per Si atom -5569.502182 kJ/mol
# Density = 2.256800 g / cm^3
# Si number density = 22.619486 Si / 1000 Ang^3
#
#
#
# Elastic Constant Matrix: (Units=GPa)
#
#
# Indices 1 2 3 4 5 6 
#
# 1 71.4473 42.1982 23.0524 0.0000 0.0000 0.0000
# 2 42.1982 132.1531 64.6198 0.0000 0.0000 0.0000
# 3 23.0524 64.6198 180.9302 0.0000 0.0000 0.0000
# 4 0.0000 0.0000 0.0000 24.5806 0.0000 0.0000
# 5 0.0000 0.0000 0.0000 0.0000 29.3493 0.0000
# 6 0.0000 0.0000 0.0000 0.0000 0.0000 29.4936
#
#
#
# Elastic Compliance Matrix: (Units=1/GPa)
#
#
# Indices 1 2 3 4 5 6 
#
# 1 0.017261 -0.005375 -0.000280 0.000000 0.000000 0.000000
# 2 -0.005375 0.010842 -0.003187 0.000000 0.000000 0.000000
# 3 -0.000280 -0.003187 0.006701 0.000000 0.000000 0.000000
# 4 0.000000 0.000000 0.000000 0.040683 0.000000 0.000000
# 5 0.000000 0.000000 0.000000 0.000000 0.034072 0.000000
# 6 0.000000 0.000000 0.000000 0.000000 0.000000 0.033906
#
#
# Mechanical properties :
#
#
# Convention : Reuss Voigt Hill
#
# Bulk Modulus (GPa) = 58.41088 71.58572 64.99830
# Shear Modulus (GPa) = 29.96613 33.66204 31.81409
#
# Velocity S-wave (km/s) = 3.64372 3.86189 3.75439
# Velocity P-wave (km/s) = 6.60163 7.18346 6.89868
#
# Compressibility (1/GPa) = 0.01712010
#
# Stress axis : x y z
#
# Youngs Moduli (GPa) = 57.93375 92.23534 149.23176
#
# Poissons Ratio (x) = 0.49576 0.04172
# Poissons Ratio (y) = 0.31139 0.47566
# Poissons Ratio (z) = 0.01620 0.29399
#
# Static dielectric constant tensor:
#      x y z
#    x 2.020970 0.000000 0.000000 
#    y 0.000000 1.834200 0.000000 
#    z 0.000000 0.000000 1.894160 
# 
# From -- ./inp_files/9876.got.cif
#   From: 2010.05.17/outbox.cif.g08.bks.cpg/sg73_5_cif.got.tgz:9876.got - 2010.06.03 17:35:07.
