data_PCOD9532827
_publ_section_title
;
Structure prediction by ZEFSAII (Michael W. Deem and Ramdas Pophale) SiO2 
 PCOD9532827
Probable space group: I B C A 
;
_chemical_formula_sum "Si O2"
_cell_formula_units_Z 104
_cell_length_a 26.275194
_cell_length_b 8.867034
_cell_length_c 19.716060
_cell_angle_alpha 90.000000
_cell_angle_beta 90.000000
_cell_angle_gamma 90.000000
_cell_volume 4593.507567
_symmetry_space_group_name_H-M "I B C A "
_symmetry_group_IT_number 73
_symmetry_cell_setting 'orthorhombic'
loop_
_space_group_symop_operation_xyz
x,y,z
-x,1/2-y,z
x,-y,1/2-z
1/2-x,y,-z
-x,-y,-z
x,1/2+y,-z
-x,y,1/2+z
1/2+x,-y,z
1/2+x,1/2+y,1/2+z
1/2-x,-y,1/2+z
1/2+x,1/2-y,-z
-x,1/2+y,1/2-z
1/2-x,1/2-y,1/2-z
1/2+x,y,1/2-z
1/2-x,1/2+y,z
x,1/2-y,1/2+z
loop_
_atom_site_type_symbol
_atom_site_label
_atom_site_fract_x
_atom_site_fract_y
_atom_site_fract_z
Si Si1 0.675845 0.647940 0.944196
Si Si2 0.765234 0.000000 0.250000
Si Si3 0.063952 0.433821 0.954941
Si Si4 0.181122 0.224321 0.298893
Si Si5 0.500000 0.750000 0.837831
Si Si6 0.553095 0.226104 0.912726
Si Si7 0.250000 0.098280 0.000000
Si Si8 0.909532 0.334070 0.730029
O O1 0.621010 0.623739 0.977353
O O2 0.657674 0.673172 0.868324
O O3 0.708938 0.792701 0.964938
O O4 0.714990 0.509980 0.953783
O O5 0.797327 0.106004 0.299496
O O6 0.728699 0.116247 0.212395
O O7 0.032404 0.357038 0.891718
O O8 0.070608 0.610758 0.939433
O O9 0.038091 0.385921 0.026021
O O10 0.136369 0.218186 0.244479
O O11 0.456526 0.694006 0.783405
O O12 0.500000 0.250000 0.873872
O O13 0.585633 0.163871 0.851241
O O14 0.892742 0.500000 0.750000
#
# Coordination Sequence:
#
# PCOD9532827 Si02
#       8
#    16   8  16  16   8  16   8  16
#     4  11  23  45  69 104 139 184 242 290 361 419
#     4  10  24  44  66 106 136 180 230 294 366 422
#     4  12  27  46  77 106 146 196 244 297 360 440
#     4  11  23  44  72 101 141 185 233 298 358 431
#     4  12  26  46  76 106 152 188 242 300 362 428
#     4  12  27  48  72 106 149 192 244 296 361 423
#     4  10  24  44  70 102 142 188 232 304 352 432
#     4  12  27  46  74 108 148 191 240 302 367 433
#
# _framework density 22.640650000000001
#
# number of rings (size 3 to 8) (size 9 to 14) (size 15 to 20)
#    0.000    0.615    3.846    3.231    4.308    1.231 
#   11.077    0.000    0.000    0.000    0.000    0.000 
#    0.000    0.000    0.000    0.000    0.000    0.000 
#
# Total GULP energy -289604.634510 kJ/mol
# GULP energy per Si atom -5569.319894 kJ/mol
# Density = 2.258912 g / cm^3
# Si number density = 22.640650 Si / 1000 Ang^3
#
#
#
# Elastic Constant Matrix: (Units=GPa)
#
#
# Indices 1 2 3 4 5 6 
#
# 1 89.5585 15.8545 -6.4013 0.0000 0.0000 0.0000
# 2 15.8545 120.2434 34.1958 0.0000 0.0000 0.0000
# 3 -6.4013 34.1958 106.6784 0.0000 0.0000 0.0000
# 4 0.0000 0.0000 0.0000 8.0416 0.0000 0.0000
# 5 0.0000 0.0000 0.0000 0.0000 29.6960 0.0000
# 6 0.0000 0.0000 0.0000 0.0000 0.0000 148.6527
#
#
#
# Elastic Compliance Matrix: (Units=1/GPa)
#
#
# Indices 1 2 3 4 5 6 
#
# 1 0.011596 -0.001900 0.001305 0.000000 0.000000 0.000000
# 2 -0.001900 0.009462 -0.003147 0.000000 0.000000 0.000000
# 3 0.001305 -0.003147 0.010461 0.000000 0.000000 0.000000
# 4 0.000000 0.000000 0.000000 0.124353 0.000000 0.000000
# 5 0.000000 0.000000 0.000000 0.000000 0.033675 0.000000
# 6 0.000000 0.000000 0.000000 0.000000 0.000000 0.006727
#
#
# Mechanical properties :
#
#
# Convention : Reuss Voigt Hill
#
# Bulk Modulus (GPa) = 41.60751 44.86427 43.23589
# Shear Modulus (GPa) = 23.61062 55.46681 39.53871
#
# Velocity S-wave (km/s) = 3.23281 4.95499 4.18348
# Velocity P-wave (km/s) = 5.68788 7.25222 6.51716
#
# Compressibility (1/GPa) = 0.02403412
#
# Stress axis : x y z
#
# Youngs Moduli (GPa) = 86.24034 105.68621 95.59262
#
# Poissons Ratio (x) = 0.20080 -0.12473
# Poissons Ratio (y) = 0.16386 0.30084
# Poissons Ratio (z) = -0.11253 0.33260
#
# Static dielectric constant tensor:
#      x y z
#    x 1.875150 0.000000 0.000000 
#    y 0.000000 1.858320 0.000000 
#    z 0.000000 0.000000 1.813040 
# 
# From -- ./inp_files/27621.got.cif
#   From: 2010.05.17/outbox.cif.g08.bks.cpg/sg73_14_cif.got.tgz:27621.got - 2010.06.03 17:35:07.
