data_PCOD9532304
_publ_section_title
;
Structure prediction by ZEFSAII (Michael W. Deem and Ramdas Pophale) SiO2 
 PCOD9532304
Probable space group: I B C A 
;
_chemical_formula_sum "Si O2"
_cell_formula_units_Z 80
_cell_length_a 15.114075
_cell_length_b 23.122249
_cell_length_c 9.323137
_cell_angle_alpha 90.000000
_cell_angle_beta 90.000000
_cell_angle_gamma 90.000000
_cell_volume 3258.169792
_symmetry_space_group_name_H-M "I B C A "
_symmetry_group_IT_number 73
_symmetry_cell_setting 'orthorhombic'
loop_
_space_group_symop_operation_xyz
x,y,z
-x,1/2-y,z
x,-y,1/2-z
1/2-x,y,-z
-x,-y,-z
x,1/2+y,-z
-x,y,1/2+z
1/2+x,-y,z
1/2+x,1/2+y,1/2+z
1/2-x,-y,1/2+z
1/2+x,1/2-y,-z
-x,1/2+y,1/2-z
1/2-x,1/2-y,1/2-z
1/2+x,y,1/2-z
1/2-x,1/2+y,z
x,1/2-y,1/2+z
loop_
_atom_site_type_symbol
_atom_site_label
_atom_site_fract_x
_atom_site_fract_y
_atom_site_fract_z
Si Si1 0.348165 0.825626 0.906834
Si Si2 0.021125 0.440721 0.304753
Si Si3 0.676299 0.272026 0.889701
Si Si4 0.030408 0.637465 0.969706
Si Si5 0.818730 0.456465 0.376523
O O1 0.323987 0.780910 0.781262
O O2 0.451220 0.839489 0.930183
O O3 0.306210 0.886848 0.861820
O O4 0.330234 0.794492 0.059091
O O5 0.062483 0.500000 0.250000
O O6 0.927180 0.459079 0.382009
O O7 0.077836 0.408022 0.424473
O O8 0.001867 0.398969 0.168590
O O9 0.750000 0.296906 0.000000
O O10 0.588922 0.308542 0.927698
O O11 0.797535 0.500000 0.250000
O O12 0.750000 0.472226 0.500000
#
# Coordination Sequence:
#
# PCOD9532304 Si02
#       5
#    16  16  16  16  16
#     4  11  26  47  72 107 147 196 254 295 371 452
#     4  10  22  44  70 107 144 189 257 308 366 443
#     4  12  26  46  72 105 148 191 242 313 368 441
#     4  11  22  45  73 103 144 192 247 307 359 454
#     4  10  22  46  71 105 151 188 243 311 376 450
#
# _framework density 24.553663
#
# number of rings (size 3 to 8) (size 9 to 14) (size 15 to 20)
#    0.000    1.200    4.000    2.400    2.800    2.400 
#    3.600    4.000    0.000    1.200    0.000    0.000 
#    0.000    0.000    0.000    0.000    0.000    0.000 
#
# Total GULP energy -223168.913031 kJ/mol
# GULP energy per Si atom -5579.222826 kJ/mol
# Density = 2.449778 g / cm^3
# Si number density = 24.553663 Si / 1000 Ang^3
#
#
#
# Elastic Constant Matrix: (Units=GPa)
#
#
# Indices 1 2 3 4 5 6 
#
# 1 44.1050 6.4698 23.1047 0.0000 0.0000 0.0000
# 2 6.4698 117.9279 40.9098 -0.0001 0.0000 0.0000
# 3 23.1047 40.9098 141.2853 -0.0002 -0.0002 0.0000
# 4 0.0000 -0.0001 -0.0002 40.4505 0.0000 0.0000
# 5 0.0000 0.0000 -0.0002 0.0000 38.0817 0.0000
# 6 0.0000 0.0000 0.0000 0.0000 0.0000 18.2454
#
#
#
# Elastic Compliance Matrix: (Units=1/GPa)
#
#
# Indices 1 2 3 4 5 6 
#
# 1 0.024798 0.000051 -0.004070 0.000000 0.000000 0.000000
# 2 0.000051 0.009427 -0.002738 0.000000 0.000000 0.000000
# 3 -0.004070 -0.002738 0.008536 0.000000 0.000000 0.000000
# 4 0.000000 0.000000 0.000000 0.024722 0.000000 0.000000
# 5 0.000000 0.000000 0.000000 0.000000 0.026259 0.000000
# 6 0.000000 0.000000 0.000000 0.000000 0.000000 0.054808
#
#
# Mechanical properties :
#
#
# Convention : Reuss Voigt Hill
#
# Bulk Modulus (GPa) = 34.19092 49.36521 41.77806
# Shear Modulus (GPa) = 29.10150 34.87778 31.98964
#
# Velocity S-wave (km/s) = 3.44644 3.77300 3.61341
# Velocity P-wave (km/s) = 5.45825 6.25535 5.87034
#
# Compressibility (1/GPa) = 0.02924753
#
# Stress axis : x y z
#
# Youngs Moduli (GPa) = 40.32619 106.08111 117.14719
#
# Poissons Ratio (x) = -0.00546 0.47680
# Poissons Ratio (y) = -0.00208 0.32075
# Poissons Ratio (z) = 0.16413 0.29045
#
# Static dielectric constant tensor:
#      x y z
#    x 2.087520 0.000000 0.000000 
#    y 0.000000 1.988670 0.000000 
#    z 0.000000 0.000000 2.026290 
# 
# From -- ./inp_files/5563.got.cif
#   From: 2010.05.17/outbox.cif.g08.bks.cpg/sg73_3_cif.got.tgz:5563.got - 2010.06.03 17:35:07.
