data_PCOD9532057
_publ_section_title
;
Structure prediction by ZEFSAII (Michael W. Deem and Ramdas Pophale) SiO2 
 PCOD9532057
Probable space group: I B C A 
;
_chemical_formula_sum "Si O2"
_cell_formula_units_Z 88
_cell_length_a 9.083351
_cell_length_b 26.001735
_cell_length_c 17.588095
_cell_angle_alpha 90.000000
_cell_angle_beta 90.000000
_cell_angle_gamma 90.000000
_cell_volume 4154.007030
_symmetry_space_group_name_H-M "I B C A "
_symmetry_group_IT_number 73
_symmetry_cell_setting 'orthorhombic'
loop_
_space_group_symop_operation_xyz
x,y,z
-x,1/2-y,z
x,-y,1/2-z
1/2-x,y,-z
-x,-y,-z
x,1/2+y,-z
-x,y,1/2+z
1/2+x,-y,z
1/2+x,1/2+y,1/2+z
1/2-x,-y,1/2+z
1/2+x,1/2-y,-z
-x,1/2+y,1/2-z
1/2-x,1/2-y,1/2-z
1/2+x,y,1/2-z
1/2-x,1/2+y,z
x,1/2-y,1/2+z
loop_
_atom_site_type_symbol
_atom_site_label
_atom_site_fract_x
_atom_site_fract_y
_atom_site_fract_z
Si Si1 0.121556 0.446631 0.293541
Si Si2 0.757037 0.678662 0.207771
Si Si3 0.371454 0.516916 0.945720
Si Si4 0.179014 0.098455 0.582203
Si Si5 0.913496 0.108798 0.681629
Si Si6 0.500000 0.750000 0.262486
O O1 0.101158 0.500000 0.250000
O O2 0.061764 0.449734 0.378596
O O3 0.294059 0.436566 0.309838
O O4 0.038867 0.403831 0.244482
O O5 0.755339 0.633215 0.146361
O O6 0.815179 0.656516 0.289229
O O7 0.604347 0.710168 0.215447
O O8 0.884133 0.718795 0.187627
O O9 0.307754 0.463558 0.910036
O O10 0.250000 0.541826 0.000000
O O11 0.500000 0.500000 0.000000
O O12 0.250000 0.110402 0.500000
O O13 0.005067 0.109586 0.602975
#
# Coordination Sequence:
#
# PCOD9532057 Si02
#       6
#    16  16  16  16  16   8
#     4  12  24  37  64  94 130 178 238 283 321 391
#     4  11  21  43  68 104 124 172 214 284 345 410
#     4  11  25  41  57  88 135 182 222 265 325 382
#     4  11  24  41  64  96 141 175 216 281 345 393
#     4  12  22  40  66  97 129 176 234 277 335 405
#     4  10  22  40  78  98 128 154 234 278 342 426
#
# _framework density 21.184365
#
# number of rings (size 3 to 8) (size 9 to 14) (size 15 to 20)
#    0.000    0.727    5.455    1.636    7.636    0.000 
#    0.000    0.909    0.000    0.000    0.000    0.000 
#    0.000    0.000    0.000    0.000    0.000    0.000 
#
# Total GULP energy -245335.618354 kJ/mol
# GULP energy per Si atom -5575.809508 kJ/mol
# Density = 2.113615 g / cm^3
# Si number density = 21.184365 Si / 1000 Ang^3
#
#
#
# Elastic Constant Matrix: (Units=GPa)
#
#
# Indices 1 2 3 4 5 6 
#
# 1 122.6599 17.2251 37.3417 0.0000 0.0000 0.0000
# 2 17.2251 77.8653 21.8704 0.0000 0.0000 0.0000
# 3 37.3417 21.8704 110.8769 -0.0001 0.0000 0.0000
# 4 0.0000 0.0000 -0.0001 21.3143 0.0000 0.0000
# 5 0.0000 0.0000 0.0000 0.0000 34.2065 0.0000
# 6 0.0000 0.0000 0.0000 0.0000 0.0000 45.7736
#
#
#
# Elastic Compliance Matrix: (Units=1/GPa)
#
#
# Indices 1 2 3 4 5 6 
#
# 1 0.009194 -0.001232 -0.002853 0.000000 0.000000 0.000000
# 2 -0.001232 0.013761 -0.002299 0.000000 0.000000 0.000000
# 3 -0.002853 -0.002299 0.010434 0.000000 0.000000 0.000000
# 4 0.000000 0.000000 0.000000 0.046917 0.000000 0.000000
# 5 0.000000 0.000000 0.000000 0.000000 0.029234 0.000000
# 6 0.000000 0.000000 0.000000 0.000000 0.000000 0.021847
#
#
# Mechanical properties :
#
#
# Convention : Reuss Voigt Hill
#
# Bulk Modulus (GPa) = 48.49976 51.58625 50.04301
# Shear Modulus (GPa) = 33.10597 35.92320 34.51459
#
# Velocity S-wave (km/s) = 3.95746 4.12241 4.04077
# Velocity P-wave (km/s) = 6.62011 6.86024 6.74124
#
# Compressibility (1/GPa) = 0.02061866
#
# Stress axis : x y z
#
# Youngs Moduli (GPa) = 108.76211 72.66834 95.84485
#
# Poissons Ratio (x) = 0.08956 0.27349
# Poissons Ratio (y) = 0.13405 0.22037
# Poissons Ratio (z) = 0.31034 0.16709
#
# Static dielectric constant tensor:
#      x y z
#    x 1.871170 0.000000 0.000000 
#    y 0.000000 1.886380 0.000000 
#    z 0.000000 0.000000 1.789940 
# 
# From -- ./inp_files/20851.got.cif
#   From: 2010.05.17/outbox.cif.g08.bks.cpg/sg73_11_cif.got.tgz:20851.got - 2010.06.03 17:35:07.
