data_PCOD9532081
_publ_section_title
;
Structure prediction by ZEFSAII (Michael W. Deem and Ramdas Pophale) SiO2 
 PCOD9532081
Probable space group: I B C A 
;
_chemical_formula_sum "Si O2"
_cell_formula_units_Z 64
_cell_length_a 19.563332
_cell_length_b 9.406213
_cell_length_c 13.837339
_cell_angle_alpha 90.000000
_cell_angle_beta 90.000000
_cell_angle_gamma 90.000000
_cell_volume 2546.303781
_symmetry_space_group_name_H-M "I B C A "
_symmetry_group_IT_number 73
_symmetry_cell_setting 'orthorhombic'
loop_
_space_group_symop_operation_xyz
x,y,z
-x,1/2-y,z
x,-y,1/2-z
1/2-x,y,-z
-x,-y,-z
x,1/2+y,-z
-x,y,1/2+z
1/2+x,-y,z
1/2+x,1/2+y,1/2+z
1/2-x,-y,1/2+z
1/2+x,1/2-y,-z
-x,1/2+y,1/2-z
1/2-x,1/2-y,1/2-z
1/2+x,y,1/2-z
1/2-x,1/2+y,z
x,1/2-y,1/2+z
loop_
_atom_site_type_symbol
_atom_site_label
_atom_site_fract_x
_atom_site_fract_y
_atom_site_fract_z
Si Si1 0.675660 0.591322 0.456699
Si Si2 0.493959 0.474218 0.135935
Si Si3 0.894064 0.759718 0.675112
Si Si4 0.901148 0.804883 0.402320
O O1 0.750000 0.575381 0.500000
O O2 0.676268 0.699338 0.364800
O O3 0.627138 0.676970 0.532726
O O4 0.649318 0.438379 0.420179
O O5 0.495673 0.500000 0.250000
O O6 0.419000 0.406163 0.126228
O O7 0.551126 0.352213 0.131149
O O8 0.524899 0.612150 0.083292
O O9 0.900092 0.748739 0.790620
#
# Coordination Sequence:
#
# PCOD9532081 Si02
#       4
#    16  16  16  16
#     4  11  23  40  62  93 133 179 233 278 326 404
#     4   8  16  35  62  89 123 163 209 267 336 405
#     4   9  19  38  62  89 129 174 215 270 338 404
#     4  10  22  41  65  95 133 175 226 283 341 406
#
# _framework density 25.134471999999999
#
# number of rings (size 3 to 8) (size 9 to 14) (size 15 to 20)
#    0.000    2.500    0.000    3.000    0.000    4.000 
#    0.000   20.000    0.000    4.500    0.000    0.000 
#    0.000    0.000    0.000    0.000    0.000    0.000 
#
# Total GULP energy -178566.946239 kJ/mol
# GULP energy per Si atom -5580.217070 kJ/mol
# Density = 2.507726 g / cm^3
# Si number density = 25.134472 Si / 1000 Ang^3
#
#
#
# Elastic Constant Matrix: (Units=GPa)
#
#
# Indices 1 2 3 4 5 6 
#
# 1 91.3250 58.3430 34.2501 0.0000 0.0000 0.0000
# 2 58.3430 172.4831 56.6277 0.0000 0.0000 0.0000
# 3 34.2501 56.6277 131.3769 0.0000 0.0000 0.0000
# 4 0.0000 0.0000 0.0000 38.4185 0.0000 0.0000
# 5 0.0000 0.0000 0.0000 0.0000 37.1809 0.0000
# 6 0.0000 0.0000 0.0000 0.0000 0.0000 16.8380
#
#
#
# Elastic Compliance Matrix: (Units=1/GPa)
#
#
# Indices 1 2 3 4 5 6 
#
# 1 0.014374 -0.004230 -0.001924 0.000000 0.000000 0.000000
# 2 -0.004230 0.007998 -0.002345 0.000000 0.000000 0.000000
# 3 -0.001924 -0.002345 0.009124 0.000000 0.000000 0.000000
# 4 0.000000 0.000000 0.000000 0.026029 0.000000 0.000000
# 5 0.000000 0.000000 0.000000 0.000000 0.026896 0.000000
# 6 0.000000 0.000000 0.000000 0.000000 0.000000 0.059390
#
#
# Mechanical properties :
#
#
# Convention : Reuss Voigt Hill
#
# Bulk Modulus (GPa) = 68.97350 77.06961 73.02155
# Shear Modulus (GPa) = 30.18569 34.88508 32.53539
#
# Velocity S-wave (km/s) = 3.46926 3.72955 3.60175
# Velocity P-wave (km/s) = 6.59917 7.01965 6.81265
#
# Compressibility (1/GPa) = 0.01449832
#
# Stress axis : x y z
#
# Youngs Moduli (GPa) = 69.56983 125.02479 109.60240
#
# Poissons Ratio (x) = 0.52891 0.21086
# Poissons Ratio (y) = 0.29431 0.25698
# Poissons Ratio (z) = 0.13384 0.29314
#
# Static dielectric constant tensor:
#      x y z
#    x 2.081660 0.000000 0.000000 
#    y 0.000000 2.041150 0.000000 
#    z 0.000000 0.000000 2.028560 
# 
# From -- ./inp_files/19077.got.cif
#   From: 2010.05.17/outbox.cif.g08.bks.cpg/sg73_10_cif.got.tgz:19077.got - 2010.06.03 17:35:07.
