data_PCOD9532976
_publ_section_title
;
Structure prediction by ZEFSAII (Michael W. Deem and Ramdas Pophale) SiO2 
 PCOD9532976
Probable space group: I B C A 
;
_chemical_formula_sum "Si O2"
_cell_formula_units_Z 112
_cell_length_a 19.434537
_cell_length_b 11.302846
_cell_length_c 22.270569
_cell_angle_alpha 90.000000
_cell_angle_beta 90.000000
_cell_angle_gamma 90.000000
_cell_volume 4892.077429
_symmetry_space_group_name_H-M "I B C A "
_symmetry_group_IT_number 73
_symmetry_cell_setting 'orthorhombic'
loop_
_space_group_symop_operation_xyz
x,y,z
-x,1/2-y,z
x,-y,1/2-z
1/2-x,y,-z
-x,-y,-z
x,1/2+y,-z
-x,y,1/2+z
1/2+x,-y,z
1/2+x,1/2+y,1/2+z
1/2-x,-y,1/2+z
1/2+x,1/2-y,-z
-x,1/2+y,1/2-z
1/2-x,1/2-y,1/2-z
1/2+x,y,1/2-z
1/2-x,1/2+y,z
x,1/2-y,1/2+z
loop_
_atom_site_type_symbol
_atom_site_label
_atom_site_fract_x
_atom_site_fract_y
_atom_site_fract_z
Si Si1 0.260079 0.573282 0.879556
Si Si2 0.524074 0.496295 0.859149
Si Si3 0.500000 0.250000 0.623456
Si Si4 0.895960 0.500000 0.250000
Si Si5 0.615627 0.063637 0.814128
Si Si6 0.136703 0.785874 0.545363
Si Si7 0.680948 0.697669 0.723917
Si Si8 0.358879 0.483852 0.039754
O O1 0.318516 0.498427 0.845140
O O2 0.299243 0.683434 0.911094
O O3 0.205084 0.621163 0.832428
O O4 0.214109 0.500677 0.926582
O O5 0.514467 0.633015 0.839726
O O6 0.561490 0.440189 0.802549
O O7 0.447851 0.444190 0.860669
O O8 0.574681 0.500764 0.915894
O O9 0.566005 0.219188 0.582958
O O10 0.849615 0.607800 0.227199
O O11 0.600378 0.000000 0.750000
O O12 0.633120 0.196571 0.796573
O O13 0.141236 0.653289 0.517102
O O14 0.135108 0.903154 0.504053
O O15 0.750000 0.750000 0.750000
#
# Coordination Sequence:
#
# PCOD9532976 Si02
#       8
#    16  16   8   8  16  16  16  16
#     4  12  24  47  71 112 142 195 242 304 368 443
#     4  11  25  45  71 108 143 195 238 294 366 446
#     4  10  24  48  74  98 144 192 236 304 376 438
#     4  12  26  44  68 106 150 192 236 300 360 438
#     4  12  25  43  71 109 149 195 240 287 360 447
#     4  11  26  48  78 103 143 193 246 316 376 433
#     4  12  26  42  70 106 151 190 240 297 359 435
#     4  11  27  50  76 108 146 192 255 314 374 438
#
# _framework density 22.894159999999999
#
# number of rings (size 3 to 8) (size 9 to 14) (size 15 to 20)
#    0.000    0.571    5.000    2.143    6.000    6.286 
#    2.571    0.000    0.000    0.000    0.000    0.000 
#    0.000    0.000    0.000    0.000    0.000    0.000 
#
# Total GULP energy -312899.568033 kJ/mol
# GULP energy per Si atom -5587.492286 kJ/mol
# Density = 2.284205 g / cm^3
# Si number density = 22.894160 Si / 1000 Ang^3
#
#
#
# Elastic Constant Matrix: (Units=GPa)
#
#
# Indices 1 2 3 4 5 6 
#
# 1 124.7693 46.9019 16.7330 0.0000 0.0000 0.0000
# 2 46.9019 157.5053 37.5227 0.0000 0.0000 0.0000
# 3 16.7330 37.5227 40.3666 0.0000 0.0000 0.0000
# 4 0.0000 0.0000 0.0000 28.5086 0.0000 0.0000
# 5 0.0000 0.0000 0.0000 0.0000 26.2540 0.0000
# 6 0.0000 0.0000 0.0000 0.0000 0.0000 30.4822
#
#
#
# Elastic Compliance Matrix: (Units=1/GPa)
#
#
# Indices 1 2 3 4 5 6 
#
# 1 0.009106 -0.002328 -0.001611 0.000000 0.000000 0.000000
# 2 -0.002328 0.008750 -0.007169 0.000000 0.000000 0.000000
# 3 -0.001611 -0.007169 0.032104 0.000000 0.000000 0.000000
# 4 0.000000 0.000000 0.000000 0.035077 0.000000 0.000000
# 5 0.000000 0.000000 0.000000 0.000000 0.038089 0.000000
# 6 0.000000 0.000000 0.000000 0.000000 0.000000 0.032806
#
#
# Mechanical properties :
#
#
# Convention : Reuss Voigt Hill
#
# Bulk Modulus (GPa) = 36.04170 58.32850 47.18510
# Shear Modulus (GPa) = 26.68154 31.81453 29.24804
#
# Velocity S-wave (km/s) = 3.41754 3.73183 3.57814
# Velocity P-wave (km/s) = 5.59908 6.64089 6.14212
#
# Compressibility (1/GPa) = 0.02774564
#
# Stress axis : x y z
#
# Youngs Moduli (GPa) = 109.81934 114.28661 31.14861
#
# Poissons Ratio (x) = 0.26604 0.05018
# Poissons Ratio (y) = 0.25564 0.22329
# Poissons Ratio (z) = 0.17690 0.81927
#
# Static dielectric constant tensor:
#      x y z
#    x 1.833830 0.000000 0.000000 
#    y 0.000000 1.831680 0.000000 
#    z 0.000000 0.000000 1.963590 
# 
# From -- ./inp_files/30163.got.cif
#   From: 2010.05.17/outbox.cif.g08.bks.cpg/sg73_16_cif.got.tgz:30163.got - 2010.06.03 17:35:07.
