data_PCOD9532248
_publ_section_title
;
Structure prediction by ZEFSAII (Michael W. Deem and Ramdas Pophale) SiO2 
 PCOD9532248
Probable space group: I B C A 
;
_chemical_formula_sum "Si O2"
_cell_formula_units_Z 88
_cell_length_a 26.749230
_cell_length_b 13.655338
_cell_length_c 10.818530
_cell_angle_alpha 90.000000
_cell_angle_beta 90.000000
_cell_angle_gamma 90.000000
_cell_volume 3951.682039
_symmetry_space_group_name_H-M "I B C A "
_symmetry_group_IT_number 73
_symmetry_cell_setting 'orthorhombic'
loop_
_space_group_symop_operation_xyz
x,y,z
-x,1/2-y,z
x,-y,1/2-z
1/2-x,y,-z
-x,-y,-z
x,1/2+y,-z
-x,y,1/2+z
1/2+x,-y,z
1/2+x,1/2+y,1/2+z
1/2-x,-y,1/2+z
1/2+x,1/2-y,-z
-x,1/2+y,1/2-z
1/2-x,1/2-y,1/2-z
1/2+x,y,1/2-z
1/2-x,1/2+y,z
x,1/2-y,1/2+z
loop_
_atom_site_type_symbol
_atom_site_label
_atom_site_fract_x
_atom_site_fract_y
_atom_site_fract_z
Si Si1 0.900717 0.054871 0.030079
Si Si2 0.267219 0.194781 0.872634
Si Si3 0.175135 0.428036 0.366319
Si Si4 0.130000 0.234331 0.699982
Si Si5 0.463126 0.664939 0.323141
Si Si6 0.968421 0.000000 0.250000
O O1 0.881957 0.153564 0.096791
O O2 0.852583 0.983248 0.021242
O O3 0.934924 0.996398 0.128021
O O4 0.934676 0.092629 0.918372
O O5 0.250000 0.250000 0.750000
O O6 0.233431 0.097470 0.878645
O O7 0.326658 0.196239 0.855034
O O8 0.250000 0.247482 0.000000
O O9 0.169712 0.500000 0.250000
O O10 0.149539 0.326670 0.320540
O O11 0.080036 0.287615 0.740877
O O12 0.500000 0.750000 0.376566
O O13 0.498558 0.596342 0.242036
#
# Coordination Sequence:
#
# PCOD9532248 Si02
#       6
#    16  16  16  16  16   8
#     4  11  22  43  70  92 141 187 229 295 366 428
#     4  10  23  42  70 102 136 178 232 291 358 435
#     4   9  19  44  66  93 133 184 222 293 369 427
#     4  10  22  43  68  98 138 177 239 292 361 440
#     4  12  26  41  69 106 139 192 248 294 365 443
#     4  12  24  46  62 100 144 180 236 308 362 426
#
# _framework density 22.268996999999999
#
# number of rings (size 3 to 8) (size 9 to 14) (size 15 to 20)
#    0.000    1.455    4.545    0.545    7.636    1.455 
#    4.909    1.818    0.000    0.000    0.000    0.000 
#    0.000    0.000    0.000    0.000    0.000    0.000 
#
# Total GULP energy -245461.800165 kJ/mol
# GULP energy per Si atom -5578.677276 kJ/mol
# Density = 2.221831 g / cm^3
# Si number density = 22.268997 Si / 1000 Ang^3
#
#
#
# Elastic Constant Matrix: (Units=GPa)
#
#
# Indices 1 2 3 4 5 6 
#
# 1 159.3846 66.9273 26.2972 0.0000 0.0000 0.0000
# 2 66.9273 85.9624 17.2593 0.0000 0.0000 0.0000
# 3 26.2972 17.2593 70.7337 0.0000 0.0000 0.0000
# 4 0.0000 0.0000 0.0000 13.9437 0.0000 0.0000
# 5 0.0000 0.0000 0.0000 0.0000 -496.9928 0.0000
# 6 0.0000 0.0000 0.0000 0.0000 0.0000 70.2639
#
#
#
# Elastic Compliance Matrix: (Units=1/GPa)
#
#
# Indices 1 2 3 4 5 6 
#
# 1 0.009540 -0.007062 -0.001824 0.000000 0.000000 0.000000
# 2 -0.007062 0.017459 -0.001635 0.000000 0.000000 0.000000
# 3 -0.001824 -0.001635 0.015214 0.000000 0.000000 0.000000
# 4 0.000000 0.000000 0.000000 0.071717 0.000000 0.000000
# 5 0.000000 0.000000 0.000000 0.000000 -0.002012 0.000000
# 6 0.000000 0.000000 0.000000 0.000000 0.000000 0.014232
#
#
# Mechanical properties :
#
#
# Convention : Reuss Voigt Hill
#
# Bulk Modulus (GPa) = 47.22861 59.67202 53.45031
# Shear Modulus (GPa) = 32.41515 -68.85058 -18.21771
#
# Velocity S-wave (km/s) = 3.81940 -5.56640 -2.86330
# Velocity P-wave (km/s) = 6.38002 3.80249 3.62255
#
# Compressibility (1/GPa) = 0.02117361
#
# Stress axis : x y z
#
# Youngs Moduli (GPa) = 104.81902 57.27681 65.72684
#
# Poissons Ratio (x) = 0.40446 0.11987
# Poissons Ratio (y) = 0.74018 0.10745
# Poissons Ratio (z) = 0.19117 0.09363
#
# Static dielectric constant tensor:
#      x y z
#    x 1.885400 0.000000 0.000000 
#    y 0.000000 1.834310 0.000000 
#    z 0.000000 0.000000 1.855440 
# 
# From -- ./inp_files/13507.got.cif
#   From: 2010.05.17/outbox.cif.g08.bks.cpg/sg73_7_cif.got.tgz:13507.got - 2010.06.03 17:35:07.
