data_PCOD9532489
_publ_section_title
;
Structure prediction by ZEFSAII (Michael W. Deem and Ramdas Pophale) SiO2 
 PCOD9532489
Probable space group: I B C A 
;
_chemical_formula_sum "Si O2"
_cell_formula_units_Z 80
_cell_length_a 23.502188
_cell_length_b 15.921641
_cell_length_c 9.033112
_cell_angle_alpha 90.000000
_cell_angle_beta 90.000000
_cell_angle_gamma 90.000000
_cell_volume 3380.130892
_symmetry_space_group_name_H-M "I B C A "
_symmetry_group_IT_number 73
_symmetry_cell_setting 'orthorhombic'
loop_
_space_group_symop_operation_xyz
x,y,z
-x,1/2-y,z
x,-y,1/2-z
1/2-x,y,-z
-x,-y,-z
x,1/2+y,-z
-x,y,1/2+z
1/2+x,-y,z
1/2+x,1/2+y,1/2+z
1/2-x,-y,1/2+z
1/2+x,1/2-y,-z
-x,1/2+y,1/2-z
1/2-x,1/2-y,1/2-z
1/2+x,y,1/2-z
1/2-x,1/2+y,z
x,1/2-y,1/2+z
loop_
_atom_site_type_symbol
_atom_site_label
_atom_site_fract_x
_atom_site_fract_y
_atom_site_fract_z
Si Si1 0.033895 0.676309 0.848853
Si Si2 0.339716 0.267581 0.343371
Si Si3 0.258488 0.000000 0.750000
Si Si4 0.963097 0.923886 0.565425
Si Si5 0.750000 0.886982 0.000000
Si Si6 0.836063 0.373446 0.445872
O O1 0.096087 0.709310 0.889453
O O2 0.037079 0.596574 0.739636
O O3 0.000000 0.750000 0.768512
O O4 0.994865 0.652420 0.985405
O O5 0.297024 0.330652 0.423393
O O6 0.322035 0.174641 0.399997
O O7 0.339233 0.294460 0.170375
O O8 0.225117 0.944310 0.631827
O O9 0.296588 0.939891 0.857935
O O10 0.896248 0.919747 0.528006
O O11 0.000000 0.000000 0.500000
#
# Coordination Sequence:
#
# PCOD9532489 Si02
#       6
#    16  16   8  16   8  16
#     4  11  22  41  64  97 129 174 226 272 325 397
#     4  10  23  41  67  94 128 173 230 273 330 405
#     4  10  24  44  68  96 136 176 220 286 346 410
#     4  11  24  37  63  94 136 175 213 272 337 393
#     4  10  24  44  68  98 132 176 220 286 342 398
#     4  10  23  42  66  96 132 176 221 280 337 397
#
# _framework density 23.667722999999999
#
# number of rings (size 3 to 8) (size 9 to 14) (size 15 to 20)
#    0.000    1.600    2.000    1.200   11.200    5.600 
#    0.000    0.000    0.000    0.000    0.000    0.000 
#    0.000    0.000    0.000    0.000    0.000    0.000 
#
# Total GULP energy -223282.155983 kJ/mol
# GULP energy per Si atom -5582.053900 kJ/mol
# Density = 2.361385 g / cm^3
# Si number density = 23.667723 Si / 1000 Ang^3
#
#
#
# Elastic Constant Matrix: (Units=GPa)
#
#
# Indices 1 2 3 4 5 6 
#
# 1 63.6052 20.2855 26.7495 0.0000 0.0000 0.0000
# 2 20.2855 103.3342 43.8145 0.0000 0.0000 0.0000
# 3 26.7495 43.8145 84.1216 0.0000 0.0000 0.0000
# 4 0.0000 0.0000 0.0000 417.6644 0.0000 0.0000
# 5 0.0000 0.0000 0.0000 0.0000 28.6842 0.0000
# 6 0.0000 0.0000 0.0000 0.0000 0.0000 22.3767
#
#
#
# Elastic Compliance Matrix: (Units=1/GPa)
#
#
# Indices 1 2 3 4 5 6 
#
# 1 0.018316 -0.001445 -0.005071 0.000000 0.000000 0.000000
# 2 -0.001445 0.012534 -0.006069 0.000000 0.000000 0.000000
# 3 -0.005071 -0.006069 0.016661 0.000000 0.000000 0.000000
# 4 0.000000 0.000000 0.000000 0.002394 0.000000 0.000000
# 5 0.000000 0.000000 0.000000 0.000000 0.034862 0.000000
# 6 0.000000 0.000000 0.000000 0.000000 0.000000 0.044689
#
#
# Mechanical properties :
#
#
# Convention : Reuss Voigt Hill
#
# Bulk Modulus (GPa) = 44.76252 48.08446 46.42349
# Shear Modulus (GPa) = 30.84991 104.42582 67.63786
#
# Velocity S-wave (km/s) = 3.61426 6.64962 5.35165
# Velocity P-wave (km/s) = 6.03085 8.90602 7.60553
#
# Compressibility (1/GPa) = 0.02234012
#
# Stress axis : x y z
#
# Youngs Moduli (GPa) = 54.59786 79.78102 60.01979
#
# Poissons Ratio (x) = 0.11530 0.30439
# Poissons Ratio (y) = 0.07891 0.36425
# Poissons Ratio (z) = 0.27689 0.48418
#
# Static dielectric constant tensor:
#      x y z
#    x 1.795630 0.000000 0.000000 
#    y 0.000000 1.881040 0.000000 
#    z 0.000000 0.000000 1.956960 
# 
# From -- ./inp_files/7757.got.cif
#   From: 2010.05.17/outbox.cif.g08.bks.cpg/sg73_4_cif.got.tgz:7757.got - 2010.06.03 17:35:07.
