data_PCOD9532518
_publ_section_title
;
Structure prediction by ZEFSAII (Michael W. Deem and Ramdas Pophale) SiO2 
 PCOD9532518
Probable space group: I B C A 
;
_chemical_formula_sum "Si O2"
_cell_formula_units_Z 96
_cell_length_a 14.318859
_cell_length_b 21.262556
_cell_length_c 15.624800
_cell_angle_alpha 90.000000
_cell_angle_beta 90.000000
_cell_angle_gamma 90.000000
_cell_volume 4757.056942
_symmetry_space_group_name_H-M "I B C A "
_symmetry_group_IT_number 73
_symmetry_cell_setting 'orthorhombic'
loop_
_space_group_symop_operation_xyz
x,y,z
-x,1/2-y,z
x,-y,1/2-z
1/2-x,y,-z
-x,-y,-z
x,1/2+y,-z
-x,y,1/2+z
1/2+x,-y,z
1/2+x,1/2+y,1/2+z
1/2-x,-y,1/2+z
1/2+x,1/2-y,-z
-x,1/2+y,1/2-z
1/2-x,1/2-y,1/2-z
1/2+x,y,1/2-z
1/2-x,1/2+y,z
x,1/2-y,1/2+z
loop_
_atom_site_type_symbol
_atom_site_label
_atom_site_fract_x
_atom_site_fract_y
_atom_site_fract_z
Si Si1 0.852424 0.403135 0.964397
Si Si2 0.250000 0.773130 0.000000
Si Si3 0.250000 0.523035 0.500000
Si Si4 0.882604 0.194815 0.754361
Si Si5 0.597991 0.838676 0.786675
Si Si6 0.915767 0.298062 0.056379
Si Si7 0.729680 0.124961 0.855251
O O1 0.838896 0.477012 0.983328
O O2 0.870204 0.380245 0.867760
O O3 0.750000 0.381568 0.000000
O O4 0.930950 0.367775 0.020216
O O5 0.157598 0.732221 0.009669
O O6 0.226610 0.817248 0.920877
O O7 0.253586 0.565738 0.414987
O O8 0.862932 0.266550 0.785428
O O9 0.877225 0.196647 0.651853
O O10 0.811596 0.143940 0.790607
O O11 0.986967 0.173710 0.781453
O O12 0.636185 0.873432 0.701520
O O13 0.000000 0.250000 0.059709
#
# Coordination Sequence:
#
# PCOD9532518 Si02
#       7
#    16   8   8  16  16  16  16
#     4  10  23  42  67  93 128 180 225 274 329 400
#     4  11  21  36  60 100 129 175 214 272 344 397
#     4   9  25  48  66  92 127 187 240 268 330 391
#     4  11  23  39  64 109 134 168 216 281 359 414
#     4  11  22  42  66 102 141 166 219 291 351 405
#     4  12  22  39  64  98 142 167 213 278 349 411
#     4  11  22  40  71  90 135 180 224 278 332 410
#
# _framework density 20.180544999999999
#
# number of rings (size 3 to 8) (size 9 to 14) (size 15 to 20)
#    0.500    0.667    4.167    2.500    4.667    0.667 
#    0.000    0.833    3.667    0.000    0.000    0.000 
#    0.000    0.000    0.000    0.000    0.000    0.000 
#
# Total GULP energy -267624.089144 kJ/mol
# GULP energy per Si atom -5575.501857 kJ/mol
# Density = 2.013461 g / cm^3
# Si number density = 20.180545 Si / 1000 Ang^3
#
#
#
# Elastic Constant Matrix: (Units=GPa)
#
#
# Indices 1 2 3 4 5 6 
#
# 1 41.7021 27.9886 21.4917 0.0000 0.0000 0.0000
# 2 27.9886 123.4389 48.6483 0.0001 0.0000 0.0000
# 3 21.4917 48.6483 111.8808 0.0001 0.0001 0.0002
# 4 0.0000 0.0001 0.0001 29.9827 0.0001 0.0002
# 5 0.0000 0.0000 0.0001 0.0001 25.5776 -0.0001
# 6 0.0000 0.0000 0.0002 0.0002 -0.0001 35.5558
#
#
#
# Elastic Compliance Matrix: (Units=1/GPa)
#
#
# Indices 1 2 3 4 5 6 
#
# 1 0.029261 -0.005333 -0.003302 0.000000 0.000000 0.000000
# 2 -0.005333 0.010749 -0.003649 0.000000 0.000000 0.000000
# 3 -0.003302 -0.003649 0.011159 0.000000 0.000000 0.000000
# 4 0.000000 0.000000 0.000000 0.033353 0.000000 0.000000
# 5 0.000000 0.000000 0.000000 0.000000 0.039097 0.000000
# 6 0.000000 0.000000 0.000000 0.000000 0.000000 0.028125
#
#
# Mechanical properties :
#
#
# Convention : Reuss Voigt Hill
#
# Bulk Modulus (GPa) = 37.59433 52.58656 45.09045
# Shear Modulus (GPa) = 27.00106 30.14942 28.57524
#
# Velocity S-wave (km/s) = 3.66180 3.86940 3.76703
# Velocity P-wave (km/s) = 6.04548 6.78805 6.42750
#
# Compressibility (1/GPa) = 0.02659976
#
# Stress axis : x y z
#
# Youngs Moduli (GPa) = 34.17556 93.03490 89.61286
#
# Poissons Ratio (x) = 0.49618 0.29588
# Poissons Ratio (y) = 0.18227 0.32702
# Poissons Ratio (z) = 0.11284 0.33951
#
# Static dielectric constant tensor:
#      x y z
#    x 1.776640 0.000000 0.000000 
#    y 0.000000 1.745580 0.000000 
#    z 0.000000 0.000000 1.766360 
# 
# From -- ./inp_files/17210.got.cif
#   From: 2010.05.17/outbox.cif.g08.bks.cpg/sg73_9_cif.got.tgz:17210.got - 2010.06.03 17:35:07.
