data_PCOD9532939
_publ_section_title
;
Structure prediction by ZEFSAII (Michael W. Deem and Ramdas Pophale) SiO2 
 PCOD9532939
Probable space group: I B C A 
;
_chemical_formula_sum "Si O2"
_cell_formula_units_Z 72
_cell_length_a 30.423749
_cell_length_b 8.909071
_cell_length_c 11.700035
_cell_angle_alpha 90.000000
_cell_angle_beta 90.000000
_cell_angle_gamma 90.000000
_cell_volume 3171.263364
_symmetry_space_group_name_H-M "I B C A "
_symmetry_group_IT_number 73
_symmetry_cell_setting 'orthorhombic'
loop_
_space_group_symop_operation_xyz
x,y,z
-x,1/2-y,z
x,-y,1/2-z
1/2-x,y,-z
-x,-y,-z
x,1/2+y,-z
-x,y,1/2+z
1/2+x,-y,z
1/2+x,1/2+y,1/2+z
1/2-x,-y,1/2+z
1/2+x,1/2-y,-z
-x,1/2+y,1/2-z
1/2-x,1/2-y,1/2-z
1/2+x,y,1/2-z
1/2-x,1/2+y,z
x,1/2-y,1/2+z
loop_
_atom_site_type_symbol
_atom_site_label
_atom_site_fract_x
_atom_site_fract_y
_atom_site_fract_z
Si Si1 0.888168 0.770673 0.587962
Si Si2 0.250000 0.441358 0.000000
Si Si3 0.593138 0.000000 0.750000
Si Si4 0.468579 0.627837 0.553734
Si Si5 0.354388 0.500000 0.250000
Si Si6 0.810336 0.298405 0.090907
O O1 0.883434 0.636085 0.680878
O O2 0.937069 0.783832 0.535809
O O3 0.851250 0.748304 0.489709
O O4 0.881818 0.934208 0.645654
O O5 0.212412 0.551446 0.956803
O O6 0.273841 0.331210 0.910357
O O7 0.563558 0.932222 0.650142
O O8 0.500000 0.750000 0.609527
O O9 0.500000 0.500000 0.500000
O O10 0.326419 0.643387 0.212171
#
# Coordination Sequence:
#
# PCOD9532939 Si02
#       6
#    16   8   8  16   8  16
#     4  12  27  49  72 107 146 189 245 294 360 431
#     4  10  24  46  74 100 154 180 236 312 348 420
#     4  12  28  45  77 102 140 200 228 300 363 431
#     4  12  28  49  71 105 145 186 243 302 353 426
#     4  12  26  43  81 100 142 202 232 290 365 437
#     4  11  24  49  68 109 144 189 239 301 353 431
#
# _framework density 22.703886000000001
#
# number of rings (size 3 to 8) (size 9 to 14) (size 15 to 20)
#    0.000    0.444    4.444    2.667    9.333    0.889 
#    0.000    0.000    0.000    0.000    0.000    0.000 
#    0.000    0.000    0.000    0.000    0.000    0.000 
#
# Total GULP energy -201102.875181 kJ/mol
# GULP energy per Si atom -5586.190977 kJ/mol
# Density = 2.265221 g / cm^3
# Si number density = 22.703886 Si / 1000 Ang^3
#
#
#
# Elastic Constant Matrix: (Units=GPa)
#
#
# Indices 1 2 3 4 5 6 
#
# 1 93.0768 38.7856 15.2315 0.0000 0.0000 0.0000
# 2 38.7856 111.5484 11.9043 0.0000 0.0000 0.0000
# 3 15.2315 11.9043 45.2100 0.0000 0.0000 0.0000
# 4 0.0000 0.0000 0.0000 44.2133 0.0000 0.0000
# 5 0.0000 0.0000 0.0000 0.0000 7.9632 0.0000
# 6 0.0000 0.0000 0.0000 0.0000 0.0000 40.6190
#
#
#
# Elastic Compliance Matrix: (Units=1/GPa)
#
#
# Indices 1 2 3 4 5 6 
#
# 1 0.013022 -0.004177 -0.003287 0.000000 0.000000 0.000000
# 2 -0.004177 0.010564 -0.001374 0.000000 0.000000 0.000000
# 3 -0.003287 -0.001374 0.023588 0.000000 0.000000 0.000000
# 4 0.000000 0.000000 0.000000 0.022618 0.000000 0.000000
# 5 0.000000 0.000000 0.000000 0.000000 0.125578 0.000000
# 6 0.000000 0.000000 0.000000 0.000000 0.000000 0.024619
#
#
# Mechanical properties :
#
#
# Convention : Reuss Voigt Hill
#
# Bulk Modulus (GPa) = 33.90177 42.40865 38.15521
# Shear Modulus (GPa) = 20.20206 30.82001 25.51104
#
# Velocity S-wave (km/s) = 2.98620 3.68839 3.35571
# Velocity P-wave (km/s) = 5.18212 6.07113 5.64415
#
# Compressibility (1/GPa) = 0.02949699
#
# Stress axis : x y z
#
# Youngs Moduli (GPa) = 76.79081 94.66336 42.39370
#
# Poissons Ratio (x) = 0.39542 0.13937
# Poissons Ratio (y) = 0.32076 0.05826
# Poissons Ratio (z) = 0.25244 0.13009
#
# Static dielectric constant tensor:
#      x y z
#    x 1.836140 0.000000 0.000000 
#    y 0.000000 1.876580 0.000000 
#    z 0.000000 0.000000 1.872330 
# 
# From -- ./inp_files/19693.got.cif
#   From: 2010.05.17/outbox.cif.g08.bks.cpg/sg73_10_cif.got.tgz:19693.got - 2010.06.03 17:35:07.
