data_PCOD9532487
_publ_section_title
;
Structure prediction by ZEFSAII (Michael W. Deem and Ramdas Pophale) SiO2 
 PCOD9532487
Probable space group: I B C A 
;
_chemical_formula_sum "Si O2"
_cell_formula_units_Z 80
_cell_length_a 22.915102
_cell_length_b 5.371511
_cell_length_c 27.106646
_cell_angle_alpha 90.000000
_cell_angle_beta 90.000000
_cell_angle_gamma 90.000000
_cell_volume 3336.522426
_symmetry_space_group_name_H-M "I B C A "
_symmetry_group_IT_number 73
_symmetry_cell_setting 'orthorhombic'
loop_
_space_group_symop_operation_xyz
x,y,z
-x,1/2-y,z
x,-y,1/2-z
1/2-x,y,-z
-x,-y,-z
x,1/2+y,-z
-x,y,1/2+z
1/2+x,-y,z
1/2+x,1/2+y,1/2+z
1/2-x,-y,1/2+z
1/2+x,1/2-y,-z
-x,1/2+y,1/2-z
1/2-x,1/2-y,1/2-z
1/2+x,y,1/2-z
1/2-x,1/2+y,z
x,1/2-y,1/2+z
loop_
_atom_site_type_symbol
_atom_site_label
_atom_site_fract_x
_atom_site_fract_y
_atom_site_fract_z
Si Si1 0.000000 0.750000 0.466371
Si Si2 0.875429 0.300940 0.709256
Si Si3 0.000000 0.750000 0.133701
Si Si4 0.182575 0.854315 0.518588
Si Si5 0.712711 0.500000 0.750000
Si Si6 0.398500 0.973980 0.098223
Si Si7 0.500000 0.750000 0.198244
O O1 0.000000 0.500000 0.500000
O O2 0.058000 0.712451 0.431851
O O3 0.853711 0.500000 0.750000
O O4 0.833819 0.060203 0.706970
O O5 0.882679 0.394931 0.653685
O O6 0.940574 0.249209 0.727881
O O7 0.058954 0.713223 0.102825
O O8 0.996493 0.499261 0.165510
O O9 0.250000 0.827108 0.500000
O O10 0.158145 0.575556 0.515743
O O11 0.162028 0.964400 0.570695
O O12 0.750000 0.250000 0.750000
#
# Coordination Sequence:
#
# PCOD9532487 Si02
#       7
#     8  16   8  16   8  16   8
#     4  12  26  46  72 110 158 202 246 318 400 508
#     4  11  27  48  79 116 160 205 261 330 386 482
#     4  10  23  41  67 113 160 194 247 305 397 511
#     4  10  23  46  69 101 140 184 252 324 378 443
#     4  12  28  56  72 104 162 216 274 314 380 462
#     4  11  24  47  75 114 151 204 249 316 406 469
#     4  10  25  43  73 117 158 196 255 319 407 451
#
# _framework density 23.977062
#
# number of rings (size 3 to 8) (size 9 to 14) (size 15 to 20)
#    0.000    1.200    1.000    4.200    7.000    5.600 
#    7.200    0.000    0.000    0.000    0.000    0.000 
#    0.000    0.000    0.000    0.000    0.000    0.000 
#
# Total GULP energy -222892.940194 kJ/mol
# GULP energy per Si atom -5572.323505 kJ/mol
# Density = 2.392249 g / cm^3
# Si number density = 23.977062 Si / 1000 Ang^3
#
#
#
# Elastic Constant Matrix: (Units=GPa)
#
#
# Indices 1 2 3 4 5 6 
#
# 1 154.2439 48.2790 43.8905 0.0000 0.0000 0.0000
# 2 48.2790 183.5609 45.3403 0.0000 0.0000 0.0000
# 3 43.8905 45.3403 115.6291 0.0000 0.0000 0.0000
# 4 0.0000 0.0000 0.0000 40.9140 0.0000 0.0000
# 5 0.0000 0.0000 0.0000 0.0000 30.9690 0.0000
# 6 0.0000 0.0000 0.0000 0.0000 0.0000 39.6298
#
#
#
# Elastic Compliance Matrix: (Units=1/GPa)
#
#
# Indices 1 2 3 4 5 6 
#
# 1 0.007589 -0.001422 -0.002323 0.000000 0.000000 0.000000
# 2 -0.001422 0.006299 -0.001930 0.000000 0.000000 0.000000
# 3 -0.002323 -0.001930 0.010287 0.000000 0.000000 0.000000
# 4 0.000000 0.000000 0.000000 0.024442 0.000000 0.000000
# 5 0.000000 0.000000 0.000000 0.000000 0.032290 0.000000
# 6 0.000000 0.000000 0.000000 0.000000 0.000000 0.025234
#
#
# Mechanical properties :
#
#
# Convention : Reuss Voigt Hill
#
# Bulk Modulus (GPa) = 77.97694 80.93927 79.45811
# Shear Modulus (GPa) = 41.06244 43.36416 42.21330
#
# Velocity S-wave (km/s) = 4.14281 4.25734 4.20047
# Velocity P-wave (km/s) = 7.44822 7.61557 7.53236
#
# Compressibility (1/GPa) = 0.01282430
#
# Stress axis : x y z
#
# Youngs Moduli (GPa) = 131.76145 158.76636 97.21116
#
# Poissons Ratio (x) = 0.22582 0.22583
# Poissons Ratio (y) = 0.18741 0.18761
# Poissons Ratio (z) = 0.30609 0.30640
#
# Static dielectric constant tensor:
#      x y z
#    x 2.216630 0.000000 0.000000 
#    y 0.000000 2.007660 0.000000 
#    z 0.000000 0.000000 1.988370 
# 
# From -- ./inp_files/34748.got.cif
#   From: 2010.05.17/outbox.cif.g08.bks.cpg/sg73_18_cif.got.tgz:34748.got - 2010.06.03 17:35:07.
