data_PCOD9532786
_publ_section_title
;
Structure prediction by ZEFSAII (Michael W. Deem and Ramdas Pophale) SiO2 
 PCOD9532786
Probable space group: I B C A 
;
_chemical_formula_sum "Si O2"
_cell_formula_units_Z 72
_cell_length_a 6.923725
_cell_length_b 21.275546
_cell_length_c 18.442848
_cell_angle_alpha 90.000000
_cell_angle_beta 90.000000
_cell_angle_gamma 90.000000
_cell_volume 2716.742716
_symmetry_space_group_name_H-M "I B C A "
_symmetry_group_IT_number 73
_symmetry_cell_setting 'orthorhombic'
loop_
_space_group_symop_operation_xyz
x,y,z
-x,1/2-y,z
x,-y,1/2-z
1/2-x,y,-z
-x,-y,-z
x,1/2+y,-z
-x,y,1/2+z
1/2+x,-y,z
1/2+x,1/2+y,1/2+z
1/2-x,-y,1/2+z
1/2+x,1/2-y,-z
-x,1/2+y,1/2-z
1/2-x,1/2-y,1/2-z
1/2+x,y,1/2-z
1/2-x,1/2+y,z
x,1/2-y,1/2+z
loop_
_atom_site_type_symbol
_atom_site_label
_atom_site_fract_x
_atom_site_fract_y
_atom_site_fract_z
Si Si1 0.000000 0.250000 0.371048
Si Si2 0.140098 0.571353 0.225002
Si Si3 0.386483 0.665955 0.244222
Si Si4 0.750000 0.839010 0.500000
Si Si5 0.109929 0.379496 0.433316
Si Si6 0.500000 0.250000 0.391241
O O1 0.873722 0.290217 0.315111
O O2 0.897776 0.196220 0.418138
O O3 0.138150 0.500000 0.250000
O O4 0.389038 0.586411 0.250991
O O5 0.150564 0.579086 0.137267
O O6 0.138115 0.650405 0.242849
O O7 0.413904 0.699020 0.166303
O O8 0.610974 0.885564 0.456467
O O9 0.629151 0.794524 0.555235
O O10 0.250000 0.392227 0.500000
#
# Coordination Sequence:
#
# PCOD9532786 Si02
#       6
#     8  16  16   8  16   8
#     4   9  23  40  68 114 148 190 232 310 388 462
#     4  11  25  47  74 102 143 202 265 314 359 436
#     4  10  24  42  72 104 145 190 252 311 373 447
#     4  12  28  40  70 112 160 194 228 304 400 474
#     4  11  26  45  74 112 156 196 243 307 389 463
#     4  11  27  42  72 114 156 194 234 312 398 464
#
# _framework density 26.502327000000001
#
# number of rings (size 3 to 8) (size 9 to 14) (size 15 to 20)
#    0.000    1.333    0.000    2.667   21.778    4.444 
#    0.000    0.000    2.444   10.667    0.000    0.000 
#    0.000    0.000    0.000    0.000    0.000    0.000 
#
# Total GULP energy -200984.063760 kJ/mol
# GULP energy per Si atom -5582.890660 kJ/mol
# Density = 2.644201 g / cm^3
# Si number density = 26.502327 Si / 1000 Ang^3
#
#
#
# Elastic Constant Matrix: (Units=GPa)
#
#
# Indices 1 2 3 4 5 6 
#
# 1 184.3447 70.9693 84.0759 0.0000 0.0000 0.0000
# 2 70.9693 172.4429 85.2776 0.0000 0.0000 0.0000
# 3 84.0759 85.2776 241.6159 0.0000 0.0000 0.0000
# 4 0.0000 0.0000 0.0000 27.5179 0.0000 0.0000
# 5 0.0000 0.0000 0.0000 0.0000 66.1381 0.0000
# 6 0.0000 0.0000 0.0000 0.0000 0.0000 71.3408
#
#
#
# Elastic Compliance Matrix: (Units=1/GPa)
#
#
# Indices 1 2 3 4 5 6 
#
# 1 0.006988 -0.002027 -0.001716 0.000000 0.000000 0.000000
# 2 -0.002027 0.007613 -0.001982 0.000000 0.000000 0.000000
# 3 -0.001716 -0.001982 0.005435 0.000000 0.000000 0.000000
# 4 0.000000 0.000000 0.000000 0.036340 0.000000 0.000000
# 5 0.000000 0.000000 0.000000 0.000000 0.015120 0.000000
# 6 0.000000 0.000000 0.000000 0.000000 0.000000 0.014017
#
#
# Mechanical properties :
#
#
# Convention : Reuss Voigt Hill
#
# Bulk Modulus (GPa) = 116.46118 119.89434 118.17776
# Shear Modulus (GPa) = 50.08738 56.87140 53.47939
#
# Velocity S-wave (km/s) = 4.35204 4.63741 4.49699
# Velocity P-wave (km/s) = 8.32423 8.60300 8.46476
#
# Compressibility (1/GPa) = 0.00858655
#
# Stress axis : x y z
#
# Youngs Moduli (GPa) = 143.10854 131.34895 183.98006
#
# Poissons Ratio (x) = 0.26627 0.31572
# Poissons Ratio (y) = 0.29011 0.36459
# Poissons Ratio (z) = 0.24558 0.26029
#
# Static dielectric constant tensor:
#      x y z
#    x 3.084960 0.000000 0.000000 
#    y 0.000000 1.960870 0.000000 
#    z 0.000000 0.000000 2.033900 
# 
# From -- ./inp_files/20620.got.cif
#   From: 2010.05.17/outbox.cif.g08.bks.cpg/sg73_11_cif.got.tgz:20620.got - 2010.06.03 17:35:07.
