data_PCOD9532502
_publ_section_title
;
Structure prediction by ZEFSAII (Michael W. Deem and Ramdas Pophale) SiO2 
 PCOD9532502
Probable space group: I B C A 
;
_chemical_formula_sum "Si O2"
_cell_formula_units_Z 104
_cell_length_a 8.550544
_cell_length_b 25.744518
_cell_length_c 23.275087
_cell_angle_alpha 90.000000
_cell_angle_beta 90.000000
_cell_angle_gamma 90.000000
_cell_volume 5123.536381
_symmetry_space_group_name_H-M "I B C A "
_symmetry_group_IT_number 73
_symmetry_cell_setting 'orthorhombic'
loop_
_space_group_symop_operation_xyz
x,y,z
-x,1/2-y,z
x,-y,1/2-z
1/2-x,y,-z
-x,-y,-z
x,1/2+y,-z
-x,y,1/2+z
1/2+x,-y,z
1/2+x,1/2+y,1/2+z
1/2-x,-y,1/2+z
1/2+x,1/2-y,-z
-x,1/2+y,1/2-z
1/2-x,1/2-y,1/2-z
1/2+x,y,1/2-z
1/2-x,1/2+y,z
x,1/2-y,1/2+z
loop_
_atom_site_type_symbol
_atom_site_label
_atom_site_fract_x
_atom_site_fract_y
_atom_site_fract_z
Si Si1 0.372254 0.894255 0.200588
Si Si2 0.896760 0.020701 0.684834
Si Si3 0.172852 0.119250 0.832033
Si Si4 0.924798 0.302656 0.150163
Si Si5 0.750000 0.376420 0.500000
Si Si6 0.379757 0.916549 0.883092
Si Si7 0.436456 0.694986 0.013730
O O1 0.434066 0.951984 0.187492
O O2 0.391037 0.885772 0.267677
O O3 0.470012 0.850409 0.169549
O O4 0.204408 0.890425 0.171888
O O5 0.786503 0.068753 0.667123
O O6 0.863911 0.000000 0.750000
O O7 0.898142 0.975715 0.637716
O O8 0.253854 0.175506 0.834581
O O9 0.048817 0.110616 0.882642
O O10 0.000000 0.250000 0.174689
O O11 0.928890 0.298875 0.082095
O O12 0.780057 0.408383 0.440836
O O13 0.585712 0.343963 0.495779
O O14 0.500000 0.750000 0.988107
O O15 0.250000 0.683640 0.000000
#
# Coordination Sequence:
#
# PCOD9532502 Si02
#       7
#    16  16  16  16   8  16  16
#     4  11  21  39  65  95 131 169 227 282 330 408
#     4  11  21  38  66  96 127 170 229 283 329 391
#     4  11  22  39  67  98 124 178 227 280 343 404
#     4  10  23  42  61  92 136 171 216 281 344 403
#     4  12  26  44  66 100 144 182 222 284 354 426
#     4  12  23  39  63 100 136 169 227 279 342 409
#     4  11  22  43  72  97 128 180 239 287 334 405
#
# _framework density 20.298480000000001
#
# number of rings (size 3 to 8) (size 9 to 14) (size 15 to 20)
#    0.000    0.923    5.385    2.769    0.000    0.615 
#    0.000    3.846    3.385    0.000    0.000    0.000 
#    0.000    0.000    0.000    0.000    0.000    0.000 
#
# Total GULP energy -289530.032813 kJ/mol
# GULP energy per Si atom -5567.885246 kJ/mol
# Density = 2.025228 g / cm^3
# Si number density = 20.298480 Si / 1000 Ang^3
#
#
#
# Elastic Constant Matrix: (Units=GPa)
#
#
# Indices 1 2 3 4 5 6 
#
# 1 118.0159 52.3136 37.3170 0.0000 0.0000 0.0000
# 2 52.3136 117.0047 45.6948 0.0000 0.0000 0.0000
# 3 37.3170 45.6948 73.6609 0.0000 0.0000 0.0000
# 4 0.0000 0.0000 0.0000 38.9594 0.0000 0.0000
# 5 0.0000 0.0000 0.0000 0.0000 21.2109 0.0000
# 6 0.0000 0.0000 0.0000 0.0000 0.0000 33.7754
#
#
#
# Elastic Compliance Matrix: (Units=1/GPa)
#
#
# Indices 1 2 3 4 5 6 
#
# 1 0.011171 -0.003675 -0.003380 0.000000 0.000000 0.000000
# 2 -0.003675 0.012488 -0.005885 0.000000 0.000000 0.000000
# 3 -0.003380 -0.005885 0.018939 0.000000 0.000000 0.000000
# 4 0.000000 0.000000 0.000000 0.025668 0.000000 0.000000
# 5 0.000000 0.000000 0.000000 0.000000 0.047146 0.000000
# 6 0.000000 0.000000 0.000000 0.000000 0.000000 0.029607
#
#
# Mechanical properties :
#
#
# Convention : Reuss Voigt Hill
#
# Bulk Modulus (GPa) = 59.81395 64.37027 62.09211
# Shear Modulus (GPa) = 28.33332 30.34621 29.33976
#
# Velocity S-wave (km/s) = 3.74014 3.87072 3.80599
# Velocity P-wave (km/s) = 6.94138 7.19426 7.06895
#
# Compressibility (1/GPa) = 0.01671851
#
# Stress axis : x y z
#
# Youngs Moduli (GPa) = 89.51721 80.07653 52.80188
#
# Poissons Ratio (x) = 0.29426 0.17846
# Poissons Ratio (y) = 0.32895 0.31075
# Poissons Ratio (z) = 0.30254 0.47127
#
# Static dielectric constant tensor:
#      x y z
#    x 1.899280 0.000000 0.000000 
#    y 0.000000 1.737060 0.000000 
#    z 0.000000 0.000000 1.679240 
# 
# From -- ./inp_files/28489.got.cif
#   From: 2010.05.17/outbox.cif.g08.bks.cpg/sg73_15_cif.got.tgz:28489.got - 2010.06.03 17:35:07.
