data_PCOD9532726
_publ_section_title
;
Structure prediction by ZEFSAII (Michael W. Deem and Ramdas Pophale) SiO2 
 PCOD9532726
Probable space group: I B C A 
;
_chemical_formula_sum "Si O2"
_cell_formula_units_Z 72
_cell_length_a 21.345265
_cell_length_b 18.588689
_cell_length_c 8.581327
_cell_angle_alpha 90.000000
_cell_angle_beta 90.000000
_cell_angle_gamma 90.000000
_cell_volume 3404.903155
_symmetry_space_group_name_H-M "I B C A "
_symmetry_group_IT_number 73
_symmetry_cell_setting 'orthorhombic'
loop_
_space_group_symop_operation_xyz
x,y,z
-x,1/2-y,z
x,-y,1/2-z
1/2-x,y,-z
-x,-y,-z
x,1/2+y,-z
-x,y,1/2+z
1/2+x,-y,z
1/2+x,1/2+y,1/2+z
1/2-x,-y,1/2+z
1/2+x,1/2-y,-z
-x,1/2+y,1/2-z
1/2-x,1/2-y,1/2-z
1/2+x,y,1/2-z
1/2-x,1/2+y,z
x,1/2-y,1/2+z
loop_
_atom_site_type_symbol
_atom_site_label
_atom_site_fract_x
_atom_site_fract_y
_atom_site_fract_z
Si Si1 0.430345 0.489540 0.934954
Si Si2 0.082169 0.323622 0.031423
Si Si3 0.808032 0.439223 0.882924
Si Si4 0.211151 0.691800 0.347114
Si Si5 0.000000 0.250000 0.775260
O O1 0.436494 0.500000 0.750000
O O2 0.408007 0.409136 0.979973
O O3 0.373438 0.544484 0.972852
O O4 0.500000 0.500000 0.000000
O O5 0.145659 0.283271 0.078631
O O6 0.032340 0.309469 0.167899
O O7 0.051747 0.288653 0.880223
O O8 0.800609 0.500000 0.750000
O O9 0.807576 0.367325 0.780816
O O10 0.750000 0.439685 0.000000
O O11 0.250000 0.665738 0.500000
O O12 0.250000 0.750000 0.250000
#
# Coordination Sequence:
#
# PCOD9532726 Si02
#       5
#    16  16  16  16   8
#     4  11  23  43  69  99 141 179 230 290 352 427
#     4  11  22  44  65  98 134 180 230 288 349 426
#     4  11  24  45  69  99 140 182 236 292 349 425
#     4  12  25  45  71 102 139 182 238 295 355 426
#     4  10  24  40  68  94 136 176 228 288 352 414
#
# _framework density 21.145976000000001
#
# number of rings (size 3 to 8) (size 9 to 14) (size 15 to 20)
#    0.000    0.889    4.444    4.000    0.000    0.889 
#    8.000    0.000    0.000    0.000    0.000    0.000 
#    0.000    0.000    0.000    0.000    0.000    0.000 
#
# Total GULP energy -201109.870990 kJ/mol
# GULP energy per Si atom -5586.385305 kJ/mol
# Density = 2.109785 g / cm^3
# Si number density = 21.145976 Si / 1000 Ang^3
#
#
#
# Elastic Constant Matrix: (Units=GPa)
#
#
# Indices 1 2 3 4 5 6 
#
# 1 163.9594 11.9717 43.3062 0.0000 0.0000 0.0000
# 2 11.9717 84.8742 2.4110 0.0000 0.0000 0.0000
# 3 43.3062 2.4110 62.4314 0.0000 0.0000 0.0000
# 4 0.0000 0.0000 0.0000 3.8290 0.0000 0.0000
# 5 0.0000 0.0000 0.0000 0.0000 -27.0143 0.0000
# 6 0.0000 0.0000 0.0000 0.0000 0.0000 32.7792
#
#
#
# Elastic Compliance Matrix: (Units=1/GPa)
#
#
# Indices 1 2 3 4 5 6 
#
# 1 0.007538 -0.000916 -0.005193 0.000000 0.000000 0.000000
# 2 -0.000916 0.011906 0.000175 0.000000 0.000000 0.000000
# 3 -0.005193 0.000175 0.019613 0.000000 0.000000 0.000000
# 4 0.000000 0.000000 0.000000 0.261167 0.000000 0.000000
# 5 0.000000 0.000000 0.000000 0.000000 -0.037017 0.000000
# 6 0.000000 0.000000 0.000000 0.000000 0.000000 0.030507
#
#
# Mechanical properties :
#
#
# Convention : Reuss Voigt Hill
#
# Bulk Modulus (GPa) = 36.77817 47.40477 42.09147
# Shear Modulus (GPa) = 15.89100 18.82386 17.35743
#
# Velocity S-wave (km/s) = 2.74431 2.98684 2.86814
# Velocity P-wave (km/s) = 5.24136 5.86186 5.56028
#
# Compressibility (1/GPa) = 0.02719004
#
# Stress axis : x y z
#
# Youngs Moduli (GPa) = 132.66851 83.98903 50.98638
#
# Poissons Ratio (x) = 0.07691 0.26478
# Poissons Ratio (y) = 0.12148 -0.00894
# Poissons Ratio (z) = 0.68897 -0.01473
#
# Static dielectric constant tensor:
#      x y z
#    x 1.817130 0.000000 0.000000 
#    y 0.000000 1.876580 0.000000 
#    z 0.000000 0.000000 1.738410 
# 
# From -- ./inp_files/5339.got.cif
#   From: 2010.05.17/outbox.cif.g08.bks.cpg/sg73_3_cif.got.tgz:5339.got - 2010.06.03 17:35:07.
