data_PCOD9532166
_publ_section_title
;
Structure prediction by ZEFSAII (Michael W. Deem and Ramdas Pophale) SiO2 
 PCOD9532166
Probable space group: I B C A 
;
_chemical_formula_sum "Si O2"
_cell_formula_units_Z 96
_cell_length_a 17.264487
_cell_length_b 9.997322
_cell_length_c 23.351849
_cell_angle_alpha 90.000000
_cell_angle_beta 90.000000
_cell_angle_gamma 90.000000
_cell_volume 4030.497279
_symmetry_space_group_name_H-M "I B C A "
_symmetry_group_IT_number 73
_symmetry_cell_setting 'orthorhombic'
loop_
_space_group_symop_operation_xyz
x,y,z
-x,1/2-y,z
x,-y,1/2-z
1/2-x,y,-z
-x,-y,-z
x,1/2+y,-z
-x,y,1/2+z
1/2+x,-y,z
1/2+x,1/2+y,1/2+z
1/2-x,-y,1/2+z
1/2+x,1/2-y,-z
-x,1/2+y,1/2-z
1/2-x,1/2-y,1/2-z
1/2+x,y,1/2-z
1/2-x,1/2+y,z
x,1/2-y,1/2+z
loop_
_atom_site_type_symbol
_atom_site_label
_atom_site_fract_x
_atom_site_fract_y
_atom_site_fract_z
Si Si1 0.838560 0.357973 0.979073
Si Si2 0.394100 0.007758 0.812485
Si Si3 0.134500 0.781968 0.653782
Si Si4 0.437607 0.435058 0.826791
Si Si5 0.305664 0.752629 0.159656
Si Si6 0.881710 0.637431 0.943060
O O1 0.849681 0.314970 0.913053
O O2 0.863186 0.511733 0.981977
O O3 0.750000 0.343225 0.000000
O O4 0.892109 0.266337 0.018735
O O5 0.406344 0.860755 0.838052
O O6 0.477030 0.077871 0.803018
O O7 0.355848 0.000000 0.750000
O O8 0.340880 0.105331 0.849844
O O9 0.091717 0.912781 0.677513
O O10 0.219395 0.760014 0.681135
O O11 0.370026 0.336014 0.804948
O O12 0.444421 0.398219 0.894721
O O13 0.308742 0.833866 0.099740
#
# Coordination Sequence:
#
# PCOD9532166 Si02
#       6
#    16  16  16  16  16  16
#     4  11  19  34  64 103 135 180 217 253 340 401
#     4  12  27  45  72  94 128 187 233 281 349 405
#     4  11  23  41  70 102 140 168 228 287 323 404
#     4   9  22  44  63  96 138 178 220 274 338 399
#     4  10  22  42  67  99 133 171 221 287 335 383
#     4   9  22  34  64  99 134 175 212 269 312 401
#
# _framework density 23.8184
#
# number of rings (size 3 to 8) (size 9 to 14) (size 15 to 20)
#    1.000    0.667    1.667    2.500    2.333    3.333 
#    0.000    2.500    7.333    0.000    0.000    0.000 
#    0.000    0.000    0.000    0.000    0.000    0.000 
#
# Total GULP energy -268106.640724 kJ/mol
# GULP energy per Si atom -5585.555015 kJ/mol
# Density = 2.376419 g / cm^3
# Si number density = 23.818400 Si / 1000 Ang^3
#
#
#
# Elastic Constant Matrix: (Units=GPa)
#
#
# Indices 1 2 3 4 5 6 
#
# 1 75.5858 17.5805 -4.0943 0.0000 0.0000 0.0000
# 2 17.5805 149.8800 22.8397 0.0000 0.0000 0.0000
# 3 -4.0943 22.8397 58.0132 0.0000 0.0000 0.0000
# 4 0.0000 0.0000 0.0000 -22.9836 0.0000 0.0000
# 5 0.0000 0.0000 0.0000 0.0000 11.8547 0.0000
# 6 0.0000 0.0000 0.0000 0.0000 0.0000 25.7389
#
#
#
# Elastic Compliance Matrix: (Units=1/GPa)
#
#
# Indices 1 2 3 4 5 6 
#
# 1 0.013759 -0.001874 0.001709 0.000000 0.000000 0.000000
# 2 -0.001874 0.007353 -0.003027 0.000000 0.000000 0.000000
# 3 0.001709 -0.003027 0.018550 0.000000 0.000000 0.000000
# 4 0.000000 0.000000 0.000000 -0.043509 0.000000 0.000000
# 5 0.000000 0.000000 0.000000 0.000000 0.084355 0.000000
# 6 0.000000 0.000000 0.000000 0.000000 0.000000 0.038852
#
#
# Mechanical properties :
#
#
# Convention : Reuss Voigt Hill
#
# Bulk Modulus (GPa) = 30.05131 39.57009 34.81070
# Shear Modulus (GPa) = 36.54007 19.39886 27.96947
#
# Velocity S-wave (km/s) = 3.92102 2.85695 3.43049
# Velocity P-wave (km/s) = 5.75704 5.24711 5.50798
#
# Compressibility (1/GPa) = 0.03327642
#
# Stress axis : x y z
#
# Youngs Moduli (GPa) = 72.68233 135.99610 53.90877
#
# Poissons Ratio (x) = 0.25489 -0.09212
# Poissons Ratio (y) = 0.13622 0.16319
# Poissons Ratio (z) = -0.12421 0.41169
#
# Static dielectric constant tensor:
#      x y z
#    x 1.904640 0.000000 0.000000 
#    y 0.000000 1.914070 0.000000 
#    z 0.000000 0.000000 1.922270 
# 
# From -- ./inp_files/32355.got.cif
#   From: 2010.05.17/outbox.cif.g08.bks.cpg/sg73_17_cif.got.tgz:32355.got - 2010.06.03 17:35:07.
