data_PCOD9532705
_publ_section_title
;
Structure prediction by ZEFSAII (Michael W. Deem and Ramdas Pophale) SiO2 
 PCOD9532705
Probable space group: I B C A 
;
_chemical_formula_sum "Si O2"
_cell_formula_units_Z 80
_cell_length_a 22.773849
_cell_length_b 8.391906
_cell_length_c 20.309741
_cell_angle_alpha 90.000000
_cell_angle_beta 90.000000
_cell_angle_gamma 90.000000
_cell_volume 3881.516462
_symmetry_space_group_name_H-M "I B C A "
_symmetry_group_IT_number 73
_symmetry_cell_setting 'orthorhombic'
loop_
_space_group_symop_operation_xyz
x,y,z
-x,1/2-y,z
x,-y,1/2-z
1/2-x,y,-z
-x,-y,-z
x,1/2+y,-z
-x,y,1/2+z
1/2+x,-y,z
1/2+x,1/2+y,1/2+z
1/2-x,-y,1/2+z
1/2+x,1/2-y,-z
-x,1/2+y,1/2-z
1/2-x,1/2-y,1/2-z
1/2+x,y,1/2-z
1/2-x,1/2+y,z
x,1/2-y,1/2+z
loop_
_atom_site_type_symbol
_atom_site_label
_atom_site_fract_x
_atom_site_fract_y
_atom_site_fract_z
Si Si1 0.934560 0.443608 0.572316
Si Si2 0.315440 0.129072 0.074143
Si Si3 0.500000 0.250000 0.036097
Si Si4 0.063505 0.324558 0.218697
Si Si5 0.686896 0.816125 0.772728
Si Si6 0.750000 0.884152 0.500000
O O1 0.873857 0.532190 0.559984
O O2 0.952162 0.325663 0.513608
O O3 0.932816 0.347417 0.640119
O O4 0.978780 0.595658 0.576295
O O5 0.316288 0.189832 0.148378
O O6 0.302279 0.269970 0.023284
O O7 0.265064 0.998102 0.060932
O O8 0.062933 0.500000 0.250000
O O9 0.125126 0.246813 0.243776
O O10 0.000000 0.250000 0.235140
O O11 0.750000 0.750000 0.750000
O O12 0.686860 0.000000 0.750000
#
# Coordination Sequence:
#
# PCOD9532705 Si02
#       6
#    16  16   8  16  16   8
#     4  11  21  42  62  94 126 165 211 263 318 378
#     4  11  21  41  62  92 126 164 209 262 314 376
#     4  10  24  38  66  94 126 162 212 262 326 378
#     4  11  24  43  66  93 129 170 215 266 317 380
#     4  11  23  42  66  93 128 169 212 263 317 378
#     4  10  24  38  64  94 124 160 212 260 322 370
#
# _framework density 20.610500999999999
#
# number of rings (size 3 to 8) (size 9 to 14) (size 15 to 20)
#    0.000    1.200    5.000    2.400    1.400    0.800 
#    0.000    2.000    0.000    0.000    0.000    0.000 
#    0.000    0.000    0.000    0.000    0.000    0.000 
#
# Total GULP energy -223118.703716 kJ/mol
# GULP energy per Si atom -5577.967593 kJ/mol
# Density = 2.056359 g / cm^3
# Si number density = 20.610501 Si / 1000 Ang^3
#
#
#
# Elastic Constant Matrix: (Units=GPa)
#
#
# Indices 1 2 3 4 5 6 
#
# 1 164.6080 39.9365 44.6745 0.0000 0.0000 0.0000
# 2 39.9365 47.9910 18.1985 0.0000 0.0000 0.0000
# 3 44.6745 18.1985 94.8221 0.0000 0.0000 0.0000
# 4 0.0000 0.0000 0.0000 14.2724 0.0000 0.0000
# 5 0.0000 0.0000 0.0000 0.0000 17.4750 0.0000
# 6 0.0000 0.0000 0.0000 0.0000 0.0000 52.1069
#
#
#
# Elastic Compliance Matrix: (Units=1/GPa)
#
#
# Indices 1 2 3 4 5 6 
#
# 1 0.008233 -0.005803 -0.002765 0.000000 0.000000 0.000000
# 2 -0.005803 0.026563 -0.002364 0.000000 0.000000 0.000000
# 3 -0.002765 -0.002364 0.012303 0.000000 0.000000 0.000000
# 4 0.000000 0.000000 0.000000 0.070065 0.000000 0.000000
# 5 0.000000 0.000000 0.000000 0.000000 0.057225 0.000000
# 6 0.000000 0.000000 0.000000 0.000000 0.000000 0.019191
#
#
# Mechanical properties :
#
#
# Convention : Reuss Voigt Hill
#
# Bulk Modulus (GPa) = 39.62884 57.00445 48.31665
# Shear Modulus (GPa) = 22.33580 30.41164 26.37372
#
# Velocity S-wave (km/s) = 3.29555 3.84544 3.58107
# Velocity P-wave (km/s) = 5.80948 6.88728 6.37121
#
# Compressibility (1/GPa) = 0.02523415
#
# Stress axis : x y z
#
# Youngs Moduli (GPa) = 121.45585 37.64682 81.28334
#
# Poissons Ratio (x) = 0.21846 0.22478
# Poissons Ratio (y) = 0.70480 0.19215
# Poissons Ratio (z) = 0.33587 0.08900
#
# Static dielectric constant tensor:
#      x y z
#    x 1.807970 0.000000 0.000000 
#    y 0.000000 1.724510 0.000000 
#    z 0.000000 0.000000 1.721730 
# 
# From -- ./inp_files/27486.got.cif
#   From: 2010.05.17/outbox.cif.g08.bks.cpg/sg73_14_cif.got.tgz:27486.got - 2010.06.03 17:35:07.
