data_PCOD9532762
_publ_section_title
;
Structure prediction by ZEFSAII (Michael W. Deem and Ramdas Pophale) SiO2 
 PCOD9532762
Probable space group: I B C A 
;
_chemical_formula_sum "Si O2"
_cell_formula_units_Z 56
_cell_length_a 26.374461
_cell_length_b 8.970213
_cell_length_c 9.277755
_cell_angle_alpha 90.000000
_cell_angle_beta 90.000000
_cell_angle_gamma 90.000000
_cell_volume 2194.973333
_symmetry_space_group_name_H-M "I B C A "
_symmetry_group_IT_number 73
_symmetry_cell_setting 'orthorhombic'
loop_
_space_group_symop_operation_xyz
x,y,z
-x,1/2-y,z
x,-y,1/2-z
1/2-x,y,-z
-x,-y,-z
x,1/2+y,-z
-x,y,1/2+z
1/2+x,-y,z
1/2+x,1/2+y,1/2+z
1/2-x,-y,1/2+z
1/2+x,1/2-y,-z
-x,1/2+y,1/2-z
1/2-x,1/2-y,1/2-z
1/2+x,y,1/2-z
1/2-x,1/2+y,z
x,1/2-y,1/2+z
loop_
_atom_site_type_symbol
_atom_site_label
_atom_site_fract_x
_atom_site_fract_y
_atom_site_fract_z
Si Si1 0.844690 0.000000 0.250000
Si Si2 0.000000 0.250000 0.556859
Si Si3 0.627893 0.500000 0.750000
Si Si4 0.071534 0.499645 0.453218
Si Si5 0.789772 0.268329 0.126313
O O1 0.883053 0.074983 0.362587
O O2 0.815372 0.894567 0.362390
O O3 0.029795 0.373357 0.468524
O O4 0.045330 0.145470 0.620927
O O5 0.592252 0.456906 0.613442
O O6 0.666297 0.380255 0.822635
O O7 0.750000 0.250000 0.250000
O O8 0.750000 0.307103 0.000000
#
# Coordination Sequence:
#
# PCOD9532762 Si02
#       5
#     8   8   8  16  16
#     4  12  25  45  70 100 140 184 234 293 355 418
#     4  10  24  42  68 100 138 180 232 286 346 420
#     4  12  25  45  70 100 140 184 234 293 355 418
#     4  11  24  42  67 100 138 182 231 288 352 415
#     4  12  26  45  70 101 138 183 238 292 351 420
#
# _framework density 25.512837000000001
#
# number of rings (size 3 to 8) (size 9 to 14) (size 15 to 20)
#    0.000    0.571    0.000    7.714    0.000    9.143 
#    0.000    0.000    0.000    0.000    0.000    0.000 
#    0.000    0.000    0.000    0.000    0.000    0.000 
#
# Total GULP energy -155972.924875 kJ/mol
# GULP energy per Si atom -5570.461603 kJ/mol
# Density = 2.545477 g / cm^3
# Si number density = 25.512837 Si / 1000 Ang^3
#
#
#
# Elastic Constant Matrix: (Units=GPa)
#
#
# Indices 1 2 3 4 5 6 
#
# 1 150.2288 59.0370 44.4371 0.0000 0.0000 0.0000
# 2 59.0370 136.4469 9.6664 0.0000 0.0000 0.0000
# 3 44.4371 9.6664 135.4321 0.0000 0.0000 0.0000
# 4 0.0000 0.0000 0.0000 11.1597 0.0000 0.0000
# 5 0.0000 0.0000 0.0000 0.0000 -17.7237 0.0000
# 6 0.0000 0.0000 0.0000 0.0000 0.0000 55.7978
#
#
#
# Elastic Compliance Matrix: (Units=1/GPa)
#
#
# Indices 1 2 3 4 5 6 
#
# 1 0.008876 -0.003653 -0.002652 0.000000 0.000000 0.000000
# 2 -0.003653 0.008869 0.000565 0.000000 0.000000 0.000000
# 3 -0.002652 0.000565 0.008213 0.000000 0.000000 0.000000
# 4 0.000000 0.000000 0.000000 0.089608 0.000000 0.000000
# 5 0.000000 0.000000 0.000000 0.000000 -0.056422 0.000000
# 6 0.000000 0.000000 0.000000 0.000000 0.000000 0.017922
#
#
# Mechanical properties :
#
#
# Convention : Reuss Voigt Hill
#
# Bulk Modulus (GPa) = 69.05552 72.04320 70.54936
# Shear Modulus (GPa) = 53.54919 30.44458 41.99689
#
# Velocity S-wave (km/s) = 4.58636 3.45817 4.06163
# Velocity P-wave (km/s) = 7.42778 6.65166 7.05041
#
# Compressibility (1/GPa) = 0.01448110
#
# Stress axis : x y z
#
# Youngs Moduli (GPa) = 112.65932 112.74944 121.75098
#
# Poissons Ratio (x) = 0.41184 0.32285
# Poissons Ratio (y) = 0.41151 -0.06885
# Poissons Ratio (z) = 0.29874 -0.06376
#
# Static dielectric constant tensor:
#      x y z
#    x 2.139890 0.000000 0.000000 
#    y 0.000000 2.420410 0.000000 
#    z 0.000000 0.000000 2.022120 
# 
# From -- ./inp_files/3877.got.cif
#   From: 2010.05.17/outbox.cif.g08.bks.cpg/sg73_2_cif.got.tgz:3877.got - 2010.06.03 17:35:07.
