data_PCOD9532049
_publ_section_title
;
Structure prediction by ZEFSAII (Michael W. Deem and Ramdas Pophale) SiO2 
 PCOD9532049
Probable space group: I B C A 
;
_chemical_formula_sum "Si O2"
_cell_formula_units_Z 120
_cell_length_a 26.436376
_cell_length_b 20.544124
_cell_length_c 10.480029
_cell_angle_alpha 90.000000
_cell_angle_beta 90.000000
_cell_angle_gamma 90.000000
_cell_volume 5691.831466
_symmetry_space_group_name_H-M "I B C A "
_symmetry_group_IT_number 73
_symmetry_cell_setting 'orthorhombic'
loop_
_space_group_symop_operation_xyz
x,y,z
-x,1/2-y,z
x,-y,1/2-z
1/2-x,y,-z
-x,-y,-z
x,1/2+y,-z
-x,y,1/2+z
1/2+x,-y,z
1/2+x,1/2+y,1/2+z
1/2-x,-y,1/2+z
1/2+x,1/2-y,-z
-x,1/2+y,1/2-z
1/2-x,1/2-y,1/2-z
1/2+x,y,1/2-z
1/2-x,1/2+y,z
x,1/2-y,1/2+z
loop_
_atom_site_type_symbol
_atom_site_label
_atom_site_fract_x
_atom_site_fract_y
_atom_site_fract_z
Si Si1 0.027029 0.608735 0.957395
Si Si2 0.000000 0.750000 0.004258
Si Si3 0.699827 0.798136 0.572740
Si Si4 0.301979 0.147576 0.944325
Si Si5 0.119870 0.925627 0.290348
Si Si6 0.141759 0.328453 0.295921
Si Si7 0.051647 0.073762 0.757977
Si Si8 0.104098 0.695433 0.617752
O O1 0.079336 0.581123 0.903800
O O2 0.984013 0.581995 0.864429
O O3 0.023773 0.589375 0.106700
O O4 0.024636 0.687058 0.937697
O O5 0.951801 0.717912 0.075230
O O6 0.750000 0.820625 0.500000
O O7 0.708034 0.721454 0.601108
O O8 0.689535 0.834539 0.703990
O O9 0.648006 0.805543 0.490642
O O10 0.341361 0.156160 0.061030
O O11 0.250000 0.120725 0.000000
O O12 0.327166 0.102872 0.839124
O O13 0.102103 0.875020 0.181796
O O14 0.122546 0.000000 0.250000
O O15 0.096874 0.374953 0.253716
O O16 0.122622 0.253794 0.289828
O O17 0.070547 0.000000 0.750000
#
# Coordination Sequence:
#
# PCOD9532049 Si02
#       8
#    16   8  16  16  16  16  16  16
#     4  12  26  44  69 103 136 190 231 295 353 423
#     4  12  24  44  72 106 144 176 242 302 362 430
#     4  10  22  40  72 109 138 178 234 301 362 420
#     4  10  22  42  71  98 135 180 230 293 359 410
#     4  12  26  45  70  99 144 184 239 288 355 434
#     4  11  22  43  68  99 142 181 236 294 351 424
#     4  12  26  45  70  99 147 186 240 282 358 428
#     4  11  24  42  67 105 138 184 235 298 355 421
#
# _framework density 21.082846
#
# number of rings (size 3 to 8) (size 9 to 14) (size 15 to 20)
#    0.000    0.800    4.000    3.200    3.733    4.267 
#    0.000    1.333    0.000    0.000    0.000    0.000 
#    0.000    0.000    0.000    0.000    0.000    0.000 
#
# Total GULP energy -335411.949536 kJ/mol
# GULP energy per Si atom -5590.199159 kJ/mol
# Density = 2.103486 g / cm^3
# Si number density = 21.082846 Si / 1000 Ang^3
#
#
#
# Elastic Constant Matrix: (Units=GPa)
#
#
# Indices 1 2 3 4 5 6 
#
# 1 80.0357 -0.7037 21.0667 0.0000 0.0000 0.0000
# 2 -0.7037 101.2027 30.2057 0.0000 0.0000 0.0000
# 3 21.0667 30.2057 62.6215 0.0000 0.0000 0.0000
# 4 0.0000 0.0000 0.0000 26.5917 0.0000 0.0000
# 5 0.0000 0.0000 0.0000 0.0000 30.5205 0.0000
# 6 0.0000 0.0000 0.0000 0.0000 0.0000 28.8228
#
#
#
# Elastic Compliance Matrix: (Units=1/GPa)
#
#
# Indices 1 2 3 4 5 6 
#
# 1 0.013969 0.001752 -0.005545 0.000000 0.000000 0.000000
# 2 0.001752 0.011763 -0.006263 0.000000 0.000000 0.000000
# 3 -0.005545 -0.006263 0.020855 0.000000 0.000000 0.000000
# 4 0.000000 0.000000 0.000000 0.037606 0.000000 0.000000
# 5 0.000000 0.000000 0.000000 0.000000 0.032765 0.000000
# 6 0.000000 0.000000 0.000000 0.000000 0.000000 0.034695
#
#
# Mechanical properties :
#
#
# Convention : Reuss Voigt Hill
#
# Bulk Modulus (GPa) = 37.77035 38.33305 38.05170
# Shear Modulus (GPa) = 27.68716 30.07309 28.88013
#
# Velocity S-wave (km/s) = 3.62782 3.78090 3.70515
# Velocity P-wave (km/s) = 5.95837 6.10589 6.03258
#
# Compressibility (1/GPa) = 0.02647579
#
# Stress axis : x y z
#
# Youngs Moduli (GPa) = 71.58589 85.01462 47.94956
#
# Poissons Ratio (x) = -0.14894 0.26586
# Poissons Ratio (y) = -0.12542 0.30032
# Poissons Ratio (z) = 0.39691 0.53246
#
# Static dielectric constant tensor:
#      x y z
#    x 1.803170 0.000000 0.000000 
#    y 0.000000 1.724800 0.000000 
#    z 0.000000 0.000000 1.815550 
# 
# From -- ./inp_files/14364.got.cif
#   From: 2010.05.17/outbox.cif.g08.bks.cpg/sg73_8_cif.got.tgz:14364.got - 2010.06.03 17:35:07.
