data_PCOD9532800
_publ_section_title
;
Structure prediction by ZEFSAII (Michael W. Deem and Ramdas Pophale) SiO2 
 PCOD9532800
Probable space group: I B C A 
;
_chemical_formula_sum "Si O2"
_cell_formula_units_Z 96
_cell_length_a 28.319791
_cell_length_b 20.228660
_cell_length_c 8.155923
_cell_angle_alpha 90.000000
_cell_angle_beta 90.000000
_cell_angle_gamma 90.000000
_cell_volume 4672.295218
_symmetry_space_group_name_H-M "I B C A "
_symmetry_group_IT_number 73
_symmetry_cell_setting 'orthorhombic'
loop_
_space_group_symop_operation_xyz
x,y,z
-x,1/2-y,z
x,-y,1/2-z
1/2-x,y,-z
-x,-y,-z
x,1/2+y,-z
-x,y,1/2+z
1/2+x,-y,z
1/2+x,1/2+y,1/2+z
1/2-x,-y,1/2+z
1/2+x,1/2-y,-z
-x,1/2+y,1/2-z
1/2-x,1/2-y,1/2-z
1/2+x,y,1/2-z
1/2-x,1/2+y,z
x,1/2-y,1/2+z
loop_
_atom_site_type_symbol
_atom_site_label
_atom_site_fract_x
_atom_site_fract_y
_atom_site_fract_z
Si Si1 0.048615 0.167851 0.881174
Si Si2 0.854051 0.614242 0.518820
Si Si3 0.553790 0.320282 0.507670
Si Si4 0.155119 0.349021 0.863397
Si Si5 0.196655 0.984882 0.057173
Si Si6 0.212331 0.782121 0.626746
O O1 0.054585 0.171204 0.686630
O O2 0.090384 0.123609 0.953964
O O3 0.054341 0.242014 0.952309
O O4 0.994902 0.149461 0.924291
O O5 0.841920 0.641981 0.334895
O O6 0.836337 0.539275 0.528235
O O7 0.825351 0.659451 0.649565
O O8 0.600331 0.349020 0.590248
O O9 0.180092 0.409587 0.954859
O O10 0.179851 0.280869 0.919134
O O11 0.194209 0.000000 0.250000
O O12 0.250000 0.992983 0.000000
O O13 0.250000 0.811653 0.500000
O O14 0.250000 0.750000 0.750000
#
# Coordination Sequence:
#
# PCOD9532800 Si02
#       6
#    16  16  16  16  16  16
#     4  11  22  38  63  93 125 160 201 260 317 374
#     4  11  23  41  63  91 127 165 209 259 314 370
#     4  11  22  38  63  93 126 159 204 258 319 373
#     4  11  23  41  62  93 125 165 211 257 315 372
#     4  10  24  43  64  87 127 173 211 257 310 373
#     4  12  24  37  61  93 126 162 209 267 310 365
#
# _framework density 20.546645999999999
#
# number of rings (size 3 to 8) (size 9 to 14) (size 15 to 20)
#    0.000    1.000    3.333    5.000    4.667    1.333 
#    0.000    0.833    0.000    0.000    0.000    0.000 
#    0.000    0.000    0.000    0.000    0.000    0.000 
#
# Total GULP energy -268105.882300 kJ/mol
# GULP energy per Si atom -5585.539215 kJ/mol
# Density = 2.049988 g / cm^3
# Si number density = 20.546646 Si / 1000 Ang^3
#
#
#
# Elastic Constant Matrix: (Units=GPa)
#
#
# Indices 1 2 3 4 5 6 
#
# 1 166.8400 37.7018 20.9950 0.0000 0.0000 0.0000
# 2 37.7018 73.4267 18.0299 0.0000 0.0000 0.0000
# 3 20.9950 18.0299 53.1347 0.0000 0.0000 0.0000
# 4 0.0000 0.0000 0.0000 44.2036 0.0000 0.0000
# 5 0.0000 0.0000 0.0000 0.0000 34.4489 0.0000
# 6 0.0000 0.0000 0.0000 0.0000 0.0000 33.9795
#
#
#
# Elastic Compliance Matrix: (Units=1/GPa)
#
#
# Indices 1 2 3 4 5 6 
#
# 1 0.006913 -0.003141 -0.001666 0.000000 0.000000 0.000000
# 2 -0.003141 0.016284 -0.004284 0.000000 0.000000 0.000000
# 3 -0.001666 -0.004284 0.020932 0.000000 0.000000 0.000000
# 4 0.000000 0.000000 0.000000 0.022623 0.000000 0.000000
# 5 0.000000 0.000000 0.000000 0.000000 0.029028 0.000000
# 6 0.000000 0.000000 0.000000 0.000000 0.000000 0.029429
#
#
# Mechanical properties :
#
#
# Convention : Reuss Voigt Hill
#
# Bulk Modulus (GPa) = 38.54011 49.65051 44.09531
# Shear Modulus (GPa) = 32.88602 36.97140 34.92871
#
# Velocity S-wave (km/s) = 4.00503 4.24652 4.12754
# Velocity P-wave (km/s) = 6.33918 6.94703 6.65005
#
# Compressibility (1/GPa) = 0.02594700
#
# Stress axis : x y z
#
# Youngs Moduli (GPa) = 144.65316 61.41141 47.77341
#
# Poissons Ratio (x) = 0.19287 0.07959
# Poissons Ratio (y) = 0.45429 0.20469
# Poissons Ratio (z) = 0.24098 0.26312
#
# Static dielectric constant tensor:
#      x y z
#    x 1.687150 0.000000 0.000000 
#    y 0.000000 1.713700 0.000000 
#    z 0.000000 0.000000 1.804930 
# 
# From -- ./inp_files/6459.got.cif
#   From: 2010.05.17/outbox.cif.g08.bks.cpg/sg73_4_cif.got.tgz:6459.got - 2010.06.03 17:35:07.
