data_PCOD9532595
_publ_section_title
;
Structure prediction by ZEFSAII (Michael W. Deem and Ramdas Pophale) SiO2 
 PCOD9532595
Probable space group: I B C A 
;
_chemical_formula_sum "Si O2"
_cell_formula_units_Z 120
_cell_length_a 8.046825
_cell_length_b 23.802270
_cell_length_c 25.803883
_cell_angle_alpha 90.000000
_cell_angle_beta 90.000000
_cell_angle_gamma 90.000000
_cell_volume 4942.287415
_symmetry_space_group_name_H-M "I B C A "
_symmetry_group_IT_number 73
_symmetry_cell_setting 'orthorhombic'
loop_
_space_group_symop_operation_xyz
x,y,z
-x,1/2-y,z
x,-y,1/2-z
1/2-x,y,-z
-x,-y,-z
x,1/2+y,-z
-x,y,1/2+z
1/2+x,-y,z
1/2+x,1/2+y,1/2+z
1/2-x,-y,1/2+z
1/2+x,1/2-y,-z
-x,1/2+y,1/2-z
1/2-x,1/2-y,1/2-z
1/2+x,y,1/2-z
1/2-x,1/2+y,z
x,1/2-y,1/2+z
loop_
_atom_site_type_symbol
_atom_site_label
_atom_site_fract_x
_atom_site_fract_y
_atom_site_fract_z
Si Si1 0.159253 0.365968 0.746173
Si Si2 0.698282 0.660259 0.865787
Si Si3 0.073235 0.123765 0.104713
Si Si4 0.314313 0.275387 0.328284
Si Si5 0.030251 0.569051 0.575972
Si Si6 0.250000 0.405531 0.500000
Si Si7 0.754477 0.010434 0.628844
Si Si8 0.109588 0.054037 0.724300
O O1 0.147530 0.362138 0.808307
O O2 0.228867 0.307313 0.725211
O O3 0.265623 0.421079 0.733021
O O4 0.990167 0.386889 0.719012
O O5 0.706449 0.726692 0.854221
O O6 0.576644 0.632354 0.907924
O O7 0.881010 0.641090 0.886883
O O8 0.175975 0.171008 0.134655
O O9 0.151894 0.124585 0.047044
O O10 0.110401 0.060822 0.126176
O O11 0.500000 0.250000 0.321819
O O12 0.193485 0.530349 0.580686
O O13 0.906940 0.564305 0.527674
O O14 0.917083 0.543087 0.621146
O O15 0.717084 0.969503 0.676738
O O16 0.022986 0.000000 0.750000
#
# Coordination Sequence:
#
# PCOD9532595 Si02
#       8
#    16  16  16  16  16   8  16  16
#     4  12  25  42  68 103 143 196 249 295 360 437
#     4  11  23  45  71 107 145 196 247 304 379 441
#     4  10  23  47  75 104 147 190 246 318 370 443
#     4  10  23  44  72 102 146 194 248 305 356 434
#     4  11  24  44  75 107 149 190 243 309 377 445
#     4  10  26  50  72 112 142 186 250 314 386 454
#     4  11  24  43  70 102 148 192 244 301 370 440
#     4  12  25  38  61 101 148 196 247 295 358 438
#
# _framework density 24.280253999999999
#
# number of rings (size 3 to 8) (size 9 to 14) (size 15 to 20)
#    0.000    1.067    1.333    4.800    3.733    3.733 
#    0.000    9.333    0.000    0.000    0.000    0.000 
#    0.000    0.000    0.000    0.000    0.000    0.000 
#
# Total GULP energy -334556.893144 kJ/mol
# GULP energy per Si atom -5575.948219 kJ/mol
# Density = 2.422499 g / cm^3
# Si number density = 24.280254 Si / 1000 Ang^3
#
#
#
# Elastic Constant Matrix: (Units=GPa)
#
#
# Indices 1 2 3 4 5 6 
#
# 1 73.1011 35.0955 28.5719 0.0000 0.0000 0.0000
# 2 35.0955 186.2708 40.3286 0.0000 0.0000 0.0000
# 3 28.5719 40.3286 107.0667 0.0000 0.0000 0.0000
# 4 0.0000 0.0000 0.0000 19.9972 0.0000 0.0000
# 5 0.0000 0.0000 0.0000 0.0000 42.0810 0.0000
# 6 0.0000 0.0000 0.0000 0.0000 0.0000 36.7631
#
#
#
# Elastic Compliance Matrix: (Units=1/GPa)
#
#
# Indices 1 2 3 4 5 6 
#
# 1 0.016125 -0.002294 -0.003439 0.000000 0.000000 0.000000
# 2 -0.002294 0.006171 -0.001713 0.000000 0.000000 0.000000
# 3 -0.003439 -0.001713 0.010903 0.000000 0.000000 0.000000
# 4 0.000000 0.000000 0.000000 0.050007 0.000000 0.000000
# 5 0.000000 0.000000 0.000000 0.000000 0.023764 0.000000
# 6 0.000000 0.000000 0.000000 0.000000 0.000000 0.027201
#
#
# Mechanical properties :
#
#
# Convention : Reuss Voigt Hill
#
# Bulk Modulus (GPa) = 54.61884 63.82563 59.22224
# Shear Modulus (GPa) = 32.22383 37.26443 34.74413
#
# Velocity S-wave (km/s) = 3.64698 3.92185 3.78691
# Velocity P-wave (km/s) = 6.34649 6.84486 6.60038
#
# Compressibility (1/GPa) = 0.01830870
#
# Stress axis : x y z
#
# Youngs Moduli (GPa) = 62.01532 162.03718 91.71934
#
# Poissons Ratio (x) = 0.37164 0.31545
# Poissons Ratio (y) = 0.14223 0.15707
# Poissons Ratio (z) = 0.21329 0.27749
#
# Static dielectric constant tensor:
#      x y z
#    x 2.121020 0.000000 0.000000 
#    y 0.000000 1.936570 0.000000 
#    z 0.000000 0.000000 2.013160 
# 
# From -- ./inp_files/31423.got.cif
#   From: 2010.05.17/outbox.cif.g08.bks.cpg/sg73_16_cif.got.tgz:31423.got - 2010.06.03 17:35:07.
