data_PCOD9532835
_publ_section_title
;
Structure prediction by ZEFSAII (Michael W. Deem and Ramdas Pophale) SiO2 
 PCOD9532835
Probable space group: I B C A 
;
_chemical_formula_sum "Si O2"
_cell_formula_units_Z 72
_cell_length_a 28.869083
_cell_length_b 14.057565
_cell_length_c 8.305496
_cell_angle_alpha 90.000000
_cell_angle_beta 90.000000
_cell_angle_gamma 90.000000
_cell_volume 3370.611226
_symmetry_space_group_name_H-M "I B C A "
_symmetry_group_IT_number 73
_symmetry_cell_setting 'orthorhombic'
loop_
_space_group_symop_operation_xyz
x,y,z
-x,1/2-y,z
x,-y,1/2-z
1/2-x,y,-z
-x,-y,-z
x,1/2+y,-z
-x,y,1/2+z
1/2+x,-y,z
1/2+x,1/2+y,1/2+z
1/2-x,-y,1/2+z
1/2+x,1/2-y,-z
-x,1/2+y,1/2-z
1/2-x,1/2-y,1/2-z
1/2+x,y,1/2-z
1/2-x,1/2+y,z
x,1/2-y,1/2+z
loop_
_atom_site_type_symbol
_atom_site_label
_atom_site_fract_x
_atom_site_fract_y
_atom_site_fract_z
Si Si1 0.500000 0.750000 0.986857
Si Si2 0.842811 0.873321 0.361349
Si Si3 0.697629 0.032757 0.432798
Si Si4 0.448213 0.884881 0.237946
Si Si5 0.197640 0.222945 0.944195
O O1 0.534059 0.818493 0.884276
O O2 0.472119 0.828521 0.090164
O O3 0.893332 0.874341 0.286889
O O4 0.807793 0.826777 0.229695
O O5 0.835634 0.810126 0.522065
O O6 0.830432 0.975609 0.432853
O O7 0.750000 0.029776 0.500000
O O8 0.681712 0.140813 0.434614
O O9 0.696155 0.000000 0.250000
O O10 0.458784 0.000000 0.250000
O O11 0.250000 0.248109 0.000000
#
# Coordination Sequence:
#
# PCOD9532835 Si02
#       5
#     8  16  16  16  16
#     4  10  24  44  68  94 126 164 204 258 332 392
#     4  12  23  39  62  91 122 159 208 257 306 367
#     4  11  22  38  58  85 122 166 209 252 301 357
#     4  11  23  43  68  96 127 163 208 263 320 386
#     4  11  22  37  57  86 125 167 205 249 302 360
#
# _framework density 21.361111000000001
#
# number of rings (size 3 to 8) (size 9 to 14) (size 15 to 20)
#    0.000    0.889    0.000    9.333    0.000    0.000 
#    0.000    3.333    0.000    0.000    0.000    0.000 
#    0.000    0.000    0.000    0.000    0.000    0.000 
#
# Total GULP energy -200870.182859 kJ/mol
# GULP energy per Si atom -5579.727302 kJ/mol
# Density = 2.131249 g / cm^3
# Si number density = 21.361111 Si / 1000 Ang^3
#
#
#
# Elastic Constant Matrix: (Units=GPa)
#
#
# Indices 1 2 3 4 5 6 
#
# 1 121.1474 55.4327 44.7475 0.0000 0.0000 0.0000
# 2 55.4327 152.2468 38.2607 0.0000 0.0000 0.0000
# 3 44.7475 38.2607 115.7287 0.0000 0.0000 0.0000
# 4 0.0000 0.0000 0.0000 30.6319 0.0000 0.0000
# 5 0.0000 0.0000 0.0000 0.0000 19.8799 0.0000
# 6 0.0000 0.0000 0.0000 0.0000 0.0000 27.2335
#
#
#
# Elastic Compliance Matrix: (Units=1/GPa)
#
#
# Indices 1 2 3 4 5 6 
#
# 1 0.010868 -0.003164 -0.003156 0.000000 0.000000 0.000000
# 2 -0.003164 0.008084 -0.001449 0.000000 0.000000 0.000000
# 3 -0.003156 -0.001449 0.010340 0.000000 0.000000 0.000000
# 4 0.000000 0.000000 0.000000 0.032646 0.000000 0.000000
# 5 0.000000 0.000000 0.000000 0.000000 0.050302 0.000000
# 6 0.000000 0.000000 0.000000 0.000000 0.000000 0.036720
#
#
# Mechanical properties :
#
#
# Convention : Reuss Voigt Hill
#
# Bulk Modulus (GPa) = 72.70665 74.00053 73.35359
# Shear Modulus (GPa) = 29.57117 32.26118 30.91617
#
# Velocity S-wave (km/s) = 3.72472 3.89044 3.80848
# Velocity P-wave (km/s) = 7.25319 7.40936 7.33169
#
# Compressibility (1/GPa) = 0.01375390
#
# Stress axis : x y z
#
# Youngs Moduli (GPa) = 92.01483 123.69386 96.70745
#
# Poissons Ratio (x) = 0.39134 0.30522
# Poissons Ratio (y) = 0.29111 0.14018
# Poissons Ratio (z) = 0.29041 0.17929
#
# Static dielectric constant tensor:
#      x y z
#    x 1.758910 0.000000 0.000000 
#    y 0.000000 1.873260 0.000000 
#    z 0.000000 0.000000 1.832480 
# 
# From -- ./inp_files/4892.got.cif
#   From: 2010.05.17/outbox.cif.g08.bks.cpg/sg73_3_cif.got.tgz:4892.got - 2010.06.03 17:35:07.
