data_PCOD9532706
_publ_section_title
;
Structure prediction by ZEFSAII (Michael W. Deem and Ramdas Pophale) SiO2 
 PCOD9532706
Probable space group: I B C A 
;
_chemical_formula_sum "Si O2"
_cell_formula_units_Z 120
_cell_length_a 24.660727
_cell_length_b 8.704352
_cell_length_c 28.872280
_cell_angle_alpha 90.000000
_cell_angle_beta 90.000000
_cell_angle_gamma 90.000000
_cell_volume 6197.597984
_symmetry_space_group_name_H-M "I B C A "
_symmetry_group_IT_number 73
_symmetry_cell_setting 'orthorhombic'
loop_
_space_group_symop_operation_xyz
x,y,z
-x,1/2-y,z
x,-y,1/2-z
1/2-x,y,-z
-x,-y,-z
x,1/2+y,-z
-x,y,1/2+z
1/2+x,-y,z
1/2+x,1/2+y,1/2+z
1/2-x,-y,1/2+z
1/2+x,1/2-y,-z
-x,1/2+y,1/2-z
1/2-x,1/2-y,1/2-z
1/2+x,y,1/2-z
1/2-x,1/2+y,z
x,1/2-y,1/2+z
loop_
_atom_site_type_symbol
_atom_site_label
_atom_site_fract_x
_atom_site_fract_y
_atom_site_fract_z
Si Si1 0.936818 0.196253 0.339197
Si Si2 0.823451 0.263364 0.578111
Si Si3 0.415502 0.075425 0.977519
Si Si4 0.385718 0.745917 0.937901
Si Si5 0.772893 0.586739 0.551658
Si Si6 0.590912 0.842477 0.650879
Si Si7 0.060311 0.680311 0.757053
Si Si8 0.000000 0.250000 0.577198
O O1 0.907782 0.252325 0.385874
O O2 0.914391 0.259863 0.290791
O O3 0.000000 0.250000 0.342132
O O4 0.926562 0.014488 0.336238
O O5 0.869299 0.186649 0.545174
O O6 0.795323 0.414367 0.556619
O O7 0.777207 0.134511 0.584151
O O8 0.852256 0.321458 0.624745
O O9 0.472901 0.122071 0.955458
O O10 0.399508 0.904216 0.963617
O O11 0.414038 0.110689 0.032045
O O12 0.322648 0.701972 0.939108
O O13 0.750000 0.607113 0.500000
O O14 0.588347 0.734479 0.695801
O O15 0.547181 0.798668 0.611911
O O16 0.055760 0.500000 0.750000
O O17 0.000000 0.750000 0.760403
#
# Coordination Sequence:
#
# PCOD9532706 Si02
#       8
#    16  16  16  16  16  16  16   8
#     4  11  24  40  66  97 133 174 218 268 322 395
#     4  11  24  40  65  93 126 166 218 269 332 379
#     4  11  25  40  58  94 130 181 213 262 318 396
#     4  12  25  41  63  93 133 171 225 263 330 388
#     4  12  23  41  64  93 125 169 218 283 319 388
#     4  11  22  43  65  98 131 169 217 269 334 393
#     4  11  23  40  67  98 132 173 222 274 329 390
#     4  10  24  38  66  86 140 174 216 258 322 394
#
# _framework density 19.362341000000001
#
# number of rings (size 3 to 8) (size 9 to 14) (size 15 to 20)
#    0.000    0.800    3.333    4.800    6.533    0.533 
#    0.000    0.000    0.000    0.800    0.000    0.000 
#    0.000    0.000    0.000    0.000    0.000    0.000 
#
# Total GULP energy -335410.473426 kJ/mol
# GULP energy per Si atom -5590.174557 kJ/mol
# Density = 1.931827 g / cm^3
# Si number density = 19.362341 Si / 1000 Ang^3
#
#
#
# Elastic Constant Matrix: (Units=GPa)
#
#
# Indices 1 2 3 4 5 6 
#
# 1 84.1893 28.8713 48.8428 0.0000 0.0000 0.0000
# 2 28.8713 81.0133 6.5763 0.0000 0.0000 0.0000
# 3 48.8428 6.5763 101.3177 0.0000 0.0000 0.0000
# 4 0.0000 0.0000 0.0000 30.0107 0.0000 0.0000
# 5 0.0000 0.0000 0.0000 0.0000 98.9867 0.0000
# 6 0.0000 0.0000 0.0000 0.0000 0.0000 29.0601
#
#
#
# Elastic Compliance Matrix: (Units=1/GPa)
#
#
# Indices 1 2 3 4 5 6 
#
# 1 0.019067 -0.006081 -0.008797 0.000000 0.000000 0.000000
# 2 -0.006081 0.014348 0.002000 0.000000 0.000000 0.000000
# 3 -0.008797 0.002000 0.013981 0.000000 0.000000 0.000000
# 4 0.000000 0.000000 0.000000 0.033321 0.000000 0.000000
# 5 0.000000 0.000000 0.000000 0.000000 0.010102 0.000000
# 6 0.000000 0.000000 0.000000 0.000000 0.000000 0.034411
#
#
# Mechanical properties :
#
#
# Convention : Reuss Voigt Hill
#
# Bulk Modulus (GPa) = 46.20922 48.34457 47.27689
# Shear Modulus (GPa) = 31.60541 43.76017 37.68279
#
# Velocity S-wave (km/s) = 4.04457 4.75917 4.41635
# Velocity P-wave (km/s) = 6.76230 7.43116 7.10461
#
# Compressibility (1/GPa) = 0.02164070
#
# Stress axis : x y z
#
# Youngs Moduli (GPa) = 52.44670 69.69422 71.52592
#
# Poissons Ratio (x) = 0.42381 0.62922
# Poissons Ratio (y) = 0.31892 -0.14306
# Poissons Ratio (z) = 0.46137 -0.13940
#
# Static dielectric constant tensor:
#      x y z
#    x 1.692480 0.000000 0.000000 
#    y 0.000000 1.679180 0.000000 
#    z 0.000000 0.000000 1.700120 
# 
# From -- ./inp_files/34799.got.cif
#   From: 2010.05.17/outbox.cif.g08.bks.cpg/sg73_18_cif.got.tgz:34799.got - 2010.06.03 17:35:07.
