data_PCOD9532891
_publ_section_title
;
Structure prediction by ZEFSAII (Michael W. Deem and Ramdas Pophale) SiO2 
 PCOD9532891
Probable space group: I B C A 
;
_chemical_formula_sum "Si O2"
_cell_formula_units_Z 112
_cell_length_a 11.623181
_cell_length_b 14.368205
_cell_length_c 28.608978
_cell_angle_alpha 90.000000
_cell_angle_beta 90.000000
_cell_angle_gamma 90.000000
_cell_volume 4777.820839
_symmetry_space_group_name_H-M "I B C A "
_symmetry_group_IT_number 73
_symmetry_cell_setting 'orthorhombic'
loop_
_space_group_symop_operation_xyz
x,y,z
-x,1/2-y,z
x,-y,1/2-z
1/2-x,y,-z
-x,-y,-z
x,1/2+y,-z
-x,y,1/2+z
1/2+x,-y,z
1/2+x,1/2+y,1/2+z
1/2-x,-y,1/2+z
1/2+x,1/2-y,-z
-x,1/2+y,1/2-z
1/2-x,1/2-y,1/2-z
1/2+x,y,1/2-z
1/2-x,1/2+y,z
x,1/2-y,1/2+z
loop_
_atom_site_type_symbol
_atom_site_label
_atom_site_fract_x
_atom_site_fract_y
_atom_site_fract_z
Si Si1 0.383412 0.365397 0.451885
Si Si2 0.223424 0.410371 0.833022
Si Si3 0.259720 0.682812 0.430441
Si Si4 0.000000 0.250000 0.468517
Si Si5 0.750000 0.030264 0.000000
Si Si6 0.677273 0.273365 0.203771
Si Si7 0.447908 0.096085 0.268946
Si Si8 0.374347 0.615508 0.153369
O O1 0.291934 0.282347 0.443849
O O2 0.455840 0.328883 0.495593
O O3 0.329107 0.462147 0.469299
O O4 0.427632 0.373153 0.398492
O O5 0.265399 0.361516 0.880449
O O6 0.142615 0.327987 0.813980
O O7 0.329475 0.424756 0.797345
O O8 0.162987 0.507850 0.842295
O O9 0.396549 0.702088 0.439016
O O10 0.201314 0.605173 0.463646
O O11 0.750000 0.250000 0.250000
O O12 0.584179 0.341934 0.224737
O O13 0.760034 0.324440 0.165940
O O14 0.534833 0.139244 0.306264
O O15 0.498606 0.000000 0.250000
#
# Coordination Sequence:
#
# PCOD9532891 Si02
#       8
#    16  16  16   8   8  16  16  16
#     4  12  26  48  73 108 150 190 246 306 360 438
#     4  11  25  49  70 106 144 188 236 309 358 425
#     4  12  25  49  73 108 151 186 248 307 365 434
#     4  12  26  46  74 110 148 194 244 298 366 438
#     4  12  22  48  74 100 148 200 230 308 364 420
#     4  10  24  45  72  99 143 180 236 303 356 422
#     4  11  26  46  74 103 139 192 243 295 366 438
#     4  12  26  47  72 108 142 191 247 295 365 444
#
# _framework density 23.441649999999999
#
# number of rings (size 3 to 8) (size 9 to 14) (size 15 to 20)
#    0.000    0.571    7.143    0.000    6.000    2.857 
#    7.714    0.000    0.000    0.000    0.000    0.000 
#    0.000    0.000    0.000    0.000    0.000    0.000 
#
# Total GULP energy -312806.179070 kJ/mol
# GULP energy per Si atom -5585.824626 kJ/mol
# Density = 2.338830 g / cm^3
# Si number density = 23.441650 Si / 1000 Ang^3
#
#
#
# Elastic Constant Matrix: (Units=GPa)
#
#
# Indices 1 2 3 4 5 6 
#
# 1 42.7075 5.3607 -4.0305 0.0000 0.0000 0.0000
# 2 5.3607 132.5460 11.3804 0.0000 0.0000 0.0000
# 3 -4.0305 11.3804 85.9394 0.0000 0.0000 0.0000
# 4 0.0000 0.0000 0.0000 52.6872 0.0000 0.0000
# 5 0.0000 0.0000 0.0000 0.0000 33.8334 0.0000
# 6 0.0000 0.0000 0.0000 0.0000 0.0000 3.3157
#
#
#
# Elastic Compliance Matrix: (Units=1/GPa)
#
#
# Indices 1 2 3 4 5 6 
#
# 1 0.023667 -0.001065 0.001251 0.000000 0.000000 0.000000
# 2 -0.001065 0.007679 -0.001067 0.000000 0.000000 0.000000
# 3 0.001251 -0.001067 0.011836 0.000000 0.000000 0.000000
# 4 0.000000 0.000000 0.000000 0.018980 0.000000 0.000000
# 5 0.000000 0.000000 0.000000 0.000000 0.029557 0.000000
# 6 0.000000 0.000000 0.000000 0.000000 0.000000 0.301598
#
#
# Mechanical properties :
#
#
# Convention : Reuss Voigt Hill
#
# Bulk Modulus (GPa) = 24.14233 31.84601 27.99417
# Shear Modulus (GPa) = 12.22839 34.53273 23.38056
#
# Velocity S-wave (km/s) = 2.28645 3.84231 3.16158
# Velocity P-wave (km/s) = 4.15833 5.77054 5.02946
#
# Compressibility (1/GPa) = 0.04142103
#
# Stress axis : x y z
#
# Youngs Moduli (GPa) = 42.25335 130.22178 84.48767
#
# Poissons Ratio (x) = 0.13863 -0.10569
# Poissons Ratio (y) = 0.04498 0.09013
# Poissons Ratio (z) = -0.05286 0.13893
#
# Static dielectric constant tensor:
#      x y z
#    x 1.983760 0.000000 0.000000 
#    y 0.000000 1.914390 0.000000 
#    z 0.000000 0.000000 1.937710 
# 
# From -- ./inp_files/34044.got.cif
#   From: 2010.05.17/outbox.cif.g08.bks.cpg/sg73_18_cif.got.tgz:34044.got - 2010.06.03 17:35:07.
