data_PCOD9532197
_publ_section_title
;
Structure prediction by ZEFSAII (Michael W. Deem and Ramdas Pophale) SiO2 
 PCOD9532197
Probable space group: I B C A 
;
_chemical_formula_sum "Si O2"
_cell_formula_units_Z 88
_cell_length_a 16.537483
_cell_length_b 15.861100
_cell_length_c 17.270035
_cell_angle_alpha 90.000000
_cell_angle_beta 90.000000
_cell_angle_gamma 90.000000
_cell_volume 4529.976319
_symmetry_space_group_name_H-M "I B C A "
_symmetry_group_IT_number 73
_symmetry_cell_setting 'orthorhombic'
loop_
_space_group_symop_operation_xyz
x,y,z
-x,1/2-y,z
x,-y,1/2-z
1/2-x,y,-z
-x,-y,-z
x,1/2+y,-z
-x,y,1/2+z
1/2+x,-y,z
1/2+x,1/2+y,1/2+z
1/2-x,-y,1/2+z
1/2+x,1/2-y,-z
-x,1/2+y,1/2-z
1/2-x,1/2-y,1/2-z
1/2+x,y,1/2-z
1/2-x,1/2+y,z
x,1/2-y,1/2+z
loop_
_atom_site_type_symbol
_atom_site_label
_atom_site_fract_x
_atom_site_fract_y
_atom_site_fract_z
Si Si1 0.497094 0.592815 0.468675
Si Si2 0.500000 0.250000 0.791786
Si Si3 0.223554 0.697679 0.675042
Si Si4 0.124118 0.812234 0.913965
Si Si5 0.173352 0.323037 0.462068
Si Si6 0.431563 0.090372 0.705424
O O1 0.500000 0.500000 0.500000
O O2 0.440883 0.639872 0.532253
O O3 0.587664 0.629485 0.460110
O O4 0.458600 0.587979 0.383747
O O5 0.575800 0.235665 0.847265
O O6 0.485431 0.164197 0.744637
O O7 0.250000 0.750000 0.750000
O O8 0.297890 0.650708 0.630827
O O9 0.188060 0.770037 0.616804
O O10 0.158284 0.629135 0.701819
O O11 0.162409 0.747230 0.972882
O O12 0.250000 0.373588 0.500000
O O13 0.437116 0.000000 0.750000
#
# Coordination Sequence:
#
# PCOD9532197 Si02
#       6
#    16   8  16  16  16  16
#     4  12  25  45  68 100 140 185 235 290 345 423
#     4  12  22  42  74 100 142 190 234 292 360 418
#     4  11  23  44  70 103 137 180 232 292 357 418
#     4  11  22  41  72  98 131 183 236 281 351 419
#     4  10  22  42  71 100 130 177 235 282 349 421
#     4  12  27  44  69 105 148 186 239 294 355 420
#
# _framework density 19.426151000000001
#
# number of rings (size 3 to 8) (size 9 to 14) (size 15 to 20)
#    0.000    0.727    5.455    2.182    0.000    0.000 
#    6.545    0.909    0.000    0.000    0.000    0.000 
#    0.000    0.000    0.000    0.000    0.000    0.000 
#
# Total GULP energy -245208.954266 kJ/mol
# GULP energy per Si atom -5572.930779 kJ/mol
# Density = 1.938194 g / cm^3
# Si number density = 19.426151 Si / 1000 Ang^3
#
#
#
# Elastic Constant Matrix: (Units=GPa)
#
#
# Indices 1 2 3 4 5 6 
#
# 1 110.9839 40.6955 38.0857 0.0000 0.0000 0.0000
# 2 40.6955 97.1127 60.4709 0.0000 0.0000 0.0000
# 3 38.0857 60.4709 139.7338 0.0000 0.0000 0.0000
# 4 0.0000 0.0000 0.0000 36.0751 0.0000 0.0000
# 5 0.0000 0.0000 0.0000 0.0000 87.8500 0.0000
# 6 0.0000 0.0000 0.0000 0.0000 0.0000 15.9138
#
#
#
# Elastic Compliance Matrix: (Units=1/GPa)
#
#
# Indices 1 2 3 4 5 6 
#
# 1 0.010830 -0.003696 -0.001352 0.000000 0.000000 0.000000
# 2 -0.003696 0.015357 -0.005639 0.000000 0.000000 0.000000
# 3 -0.001352 -0.005639 0.009965 0.000000 0.000000 0.000000
# 4 0.000000 0.000000 0.000000 0.027720 0.000000 0.000000
# 5 0.000000 0.000000 0.000000 0.000000 0.011383 0.000000
# 6 0.000000 0.000000 0.000000 0.000000 0.000000 0.062839
#
#
# Mechanical properties :
#
#
# Convention : Reuss Voigt Hill
#
# Bulk Modulus (GPa) = 67.66721 69.59275 68.62998
# Shear Modulus (GPa) = 30.41478 41.87298 36.14388
#
# Velocity S-wave (km/s) = 3.96114 4.64777 4.31812
# Velocity P-wave (km/s) = 7.47191 8.04390 7.76318
#
# Compressibility (1/GPa) = 0.01477821
#
# Stress axis : x y z
#
# Youngs Moduli (GPa) = 92.33898 65.11561 100.34997
#
# Poissons Ratio (x) = 0.24068 0.13569
# Poissons Ratio (y) = 0.34131 0.56583
# Poissons Ratio (z) = 0.12485 0.36716
#
# Static dielectric constant tensor:
#      x y z
#    x 1.770840 0.000000 0.000000 
#    y 0.000000 1.679220 0.000000 
#    z 0.000000 0.000000 1.600400 
# 
# From -- ./inp_files/17966.got.cif
#   From: 2010.05.17/outbox.cif.g08.bks.cpg/sg73_9_cif.got.tgz:17966.got - 2010.06.03 17:35:07.
