data_PCOD9532873
_publ_section_title
;
Structure prediction by ZEFSAII (Michael W. Deem and Ramdas Pophale) SiO2 
 PCOD9532873
Probable space group: I B C A 
;
_chemical_formula_sum "Si O2"
_cell_formula_units_Z 56
_cell_length_a 5.216247
_cell_length_b 20.109426
_cell_length_c 20.864128
_cell_angle_alpha 90.000000
_cell_angle_beta 90.000000
_cell_angle_gamma 90.000000
_cell_volume 2188.558001
_symmetry_space_group_name_H-M "I B C A "
_symmetry_group_IT_number 73
_symmetry_cell_setting 'orthorhombic'
loop_
_space_group_symop_operation_xyz
x,y,z
-x,1/2-y,z
x,-y,1/2-z
1/2-x,y,-z
-x,-y,-z
x,1/2+y,-z
-x,y,1/2+z
1/2+x,-y,z
1/2+x,1/2+y,1/2+z
1/2-x,-y,1/2+z
1/2+x,1/2-y,-z
-x,1/2+y,1/2-z
1/2-x,1/2-y,1/2-z
1/2+x,y,1/2-z
1/2-x,1/2+y,z
x,1/2-y,1/2+z
loop_
_atom_site_type_symbol
_atom_site_label
_atom_site_fract_x
_atom_site_fract_y
_atom_site_fract_z
Si Si1 0.765901 0.426601 0.275954
Si Si2 0.512765 0.373778 0.391946
Si Si3 0.500000 0.750000 0.204537
Si Si4 0.750000 0.047340 0.500000
Si Si5 0.250000 0.295503 0.000000
O O1 0.817057 0.500000 0.250000
O O2 0.546256 0.394900 0.230533
O O3 0.647859 0.427317 0.346139
O O4 0.460081 0.312510 0.343906
O O5 0.295351 0.405872 0.437181
O O6 0.719166 0.343022 0.439886
O O7 0.750000 0.750000 0.250000
O O8 0.500000 0.000000 0.500000
O O9 0.500000 0.250000 0.004147
#
# Coordination Sequence:
#
# PCOD9532873 Si02
#       5
#    16  16   8   8   8
#     4  10  24  44  76 109 152 212 263 330 421 495
#     4  12  28  53  85 117 173 209 290 347 438 515
#     4  12  30  50  84 126 162 220 280 356 438 518
#     4  12  32  52  82 126 166 230 284 356 422 524
#     4  12  28  50  82 124 162 226 274 354 426 514
#
# _framework density 25.587624000000002
#
# number of rings (size 3 to 8) (size 9 to 14) (size 15 to 20)
#    0.000    0.571    1.429    3.429   10.000    6.857 
#    0.000    0.000    0.000    0.000    0.000    0.000 
#    0.000    0.000    0.000    0.000    0.000    0.000 
#
# Total GULP energy -156744.057453 kJ/mol
# GULP energy per Si atom -5598.002052 kJ/mol
# Density = 2.552939 g / cm^3
# Si number density = 25.587624 Si / 1000 Ang^3
#
#
#
# Elastic Constant Matrix: (Units=GPa)
#
#
# Indices 1 2 3 4 5 6 
#
# 1 217.9250 64.5011 63.4440 0.0000 0.0000 0.0000
# 2 64.5011 151.1564 87.5153 0.0000 0.0000 0.0000
# 3 63.4440 87.5153 198.2911 0.0000 0.0000 0.0000
# 4 0.0000 0.0000 0.0000 53.0264 0.0000 0.0000
# 5 0.0000 0.0000 0.0000 0.0000 53.9029 0.0000
# 6 0.0000 0.0000 0.0000 0.0000 0.0000 32.9041
#
#
#
# Elastic Compliance Matrix: (Units=1/GPa)
#
#
# Indices 1 2 3 4 5 6 
#
# 1 0.005383 -0.001746 -0.000952 0.000000 0.000000 0.000000
# 2 -0.001746 0.009453 -0.003613 0.000000 0.000000 0.000000
# 3 -0.000952 -0.003613 0.006942 0.000000 0.000000 0.000000
# 4 0.000000 0.000000 0.000000 0.018859 0.000000 0.000000
# 5 0.000000 0.000000 0.000000 0.000000 0.018552 0.000000
# 6 0.000000 0.000000 0.000000 0.000000 0.000000 0.030391
#
#
# Mechanical properties :
#
#
# Convention : Reuss Voigt Hill
#
# Bulk Modulus (GPa) = 109.21942 110.92146 110.07044
# Shear Modulus (GPa) = 47.50472 51.42751 49.46612
#
# Velocity S-wave (km/s) = 4.31345 4.48801 4.40159
# Velocity P-wave (km/s) = 8.22100 8.38451 8.30316
#
# Compressibility (1/GPa) = 0.00915588
#
# Stress axis : x y z
#
# Youngs Moduli (GPa) = 185.78682 105.79033 144.04456
#
# Poissons Ratio (x) = 0.18469 0.13708
# Poissons Ratio (y) = 0.32436 0.52048
# Poissons Ratio (z) = 0.17680 0.38225
#
# Static dielectric constant tensor:
#      x y z
#    x 2.080260 0.000000 0.000000 
#    y 0.000000 2.218690 0.000000 
#    z 0.000000 0.000000 1.822160 
# 
# From -- ./inp_files/24310.got.cif
#   From: 2010.05.17/outbox.cif.g08.bks.cpg/sg73_13_cif.got.tgz:24310.got - 2010.06.03 17:35:07.
