data_PCOD9532082
_publ_section_title
;
Structure prediction by ZEFSAII (Michael W. Deem and Ramdas Pophale) SiO2 
 PCOD9532082
Probable space group: I B C A 
;
_chemical_formula_sum "Si O2"
_cell_formula_units_Z 80
_cell_length_a 26.575269
_cell_length_b 11.388161
_cell_length_c 11.060118
_cell_angle_alpha 90.000000
_cell_angle_beta 90.000000
_cell_angle_gamma 90.000000
_cell_volume 3347.272180
_symmetry_space_group_name_H-M "I B C A "
_symmetry_group_IT_number 73
_symmetry_cell_setting 'orthorhombic'
loop_
_space_group_symop_operation_xyz
x,y,z
-x,1/2-y,z
x,-y,1/2-z
1/2-x,y,-z
-x,-y,-z
x,1/2+y,-z
-x,y,1/2+z
1/2+x,-y,z
1/2+x,1/2+y,1/2+z
1/2-x,-y,1/2+z
1/2+x,1/2-y,-z
-x,1/2+y,1/2-z
1/2-x,1/2-y,1/2-z
1/2+x,y,1/2-z
1/2-x,1/2+y,z
x,1/2-y,1/2+z
loop_
_atom_site_type_symbol
_atom_site_label
_atom_site_fract_x
_atom_site_fract_y
_atom_site_fract_z
Si Si1 0.947141 0.295438 0.429962
Si Si2 0.414078 0.404715 0.844781
Si Si3 0.127154 0.843435 0.248372
Si Si4 0.720800 0.734452 0.878798
Si Si5 0.860127 0.900759 0.016879
O O1 0.954033 0.360418 0.557494
O O2 0.921591 0.376639 0.329035
O O3 0.906585 0.191206 0.456652
O O4 0.000000 0.250000 0.384490
O O5 0.434111 0.500000 0.750000
O O6 0.386558 0.292069 0.787489
O O7 0.373238 0.477689 0.920587
O O8 0.174597 0.846805 0.160427
O O9 0.140948 0.904434 0.372722
O O10 0.750000 0.750000 0.750000
O O11 0.750000 0.693481 0.000000
O O12 0.691218 0.850322 0.926608
#
# Coordination Sequence:
#
# PCOD9532082 Si02
#       5
#    16  16  16  16  16
#     4  10  23  40  67  97 131 179 230 281 352 421
#     4  11  21  42  68  91 138 179 222 293 343 412
#     4  10  22  42  67  94 135 182 225 292 347 417
#     4  11  20  35  68  96 129 183 228 280 355 417
#     4  10  22  41  65  96 132 178 229 283 351 407
#
# _framework density 23.900058000000001
#
# number of rings (size 3 to 8) (size 9 to 14) (size 15 to 20)
#    0.000    1.600    6.000    0.000    0.000    4.800 
#    0.000    0.000   26.400    0.000    0.000    0.000 
#    0.000    0.000    0.000    0.000    0.000    0.000 
#
# Total GULP energy -223400.589344 kJ/mol
# GULP energy per Si atom -5585.014734 kJ/mol
# Density = 2.384566 g / cm^3
# Si number density = 23.900058 Si / 1000 Ang^3
#
#
#
# Elastic Constant Matrix: (Units=GPa)
#
#
# Indices 1 2 3 4 5 6 
#
# 1 106.3311 -10.0351 53.6008 0.0000 0.0000 0.0000
# 2 -10.0351 69.8372 15.5523 0.0000 0.0000 0.0000
# 3 53.6008 15.5523 194.1747 0.0000 0.0000 0.0000
# 4 0.0000 0.0000 0.0000 37.1864 0.0000 0.0000
# 5 0.0000 0.0000 0.0000 0.0000 29.9209 0.0000
# 6 0.0000 0.0000 0.0000 0.0000 0.0000 10.9923
#
#
#
# Elastic Compliance Matrix: (Units=1/GPa)
#
#
# Indices 1 2 3 4 5 6 
#
# 1 0.011294 0.002359 -0.003307 0.000000 0.000000 0.000000
# 2 0.002359 0.015072 -0.001858 0.000000 0.000000 0.000000
# 3 -0.003307 -0.001858 0.006212 0.000000 0.000000 0.000000
# 4 0.000000 0.000000 0.000000 0.026892 0.000000 0.000000
# 5 0.000000 0.000000 0.000000 0.000000 0.033421 0.000000
# 6 0.000000 0.000000 0.000000 0.000000 0.000000 0.090973
#
#
# Mechanical properties :
#
#
# Convention : Reuss Voigt Hill
#
# Bulk Modulus (GPa) = 37.08379 54.28656 45.68517
# Shear Modulus (GPa) = 25.19350 36.36826 30.78088
#
# Velocity S-wave (km/s) = 3.25024 3.90510 3.59263
# Velocity P-wave (km/s) = 5.44383 6.56479 6.03041
#
# Compressibility (1/GPa) = 0.02696596
#
# Stress axis : x y z
#
# Youngs Moduli (GPa) = 88.54192 66.34875 160.98846
#
# Poissons Ratio (x) = -0.15653 0.53233
# Poissons Ratio (y) = -0.20889 0.29918
# Poissons Ratio (z) = 0.29278 0.12330
#
# Static dielectric constant tensor:
#      x y z
#    x 1.881330 0.000000 0.000000 
#    y 0.000000 1.992020 0.000000 
#    z 0.000000 0.000000 1.999030 
# 
# From -- ./inp_files/14178.got.cif
#   From: 2010.05.17/outbox.cif.g08.bks.cpg/sg73_8_cif.got.tgz:14178.got - 2010.06.03 17:35:07.
