data_PCOD9532495
_publ_section_title
;
Structure prediction by ZEFSAII (Michael W. Deem and Ramdas Pophale) SiO2 
 PCOD9532495
Probable space group: I B C A 
;
_chemical_formula_sum "Si O2"
_cell_formula_units_Z 88
_cell_length_a 28.852378
_cell_length_b 8.159133
_cell_length_c 17.575848
_cell_angle_alpha 90.000000
_cell_angle_beta 90.000000
_cell_angle_gamma 90.000000
_cell_volume 4137.537223
_symmetry_space_group_name_H-M "I B C A "
_symmetry_group_IT_number 73
_symmetry_cell_setting 'orthorhombic'
loop_
_space_group_symop_operation_xyz
x,y,z
-x,1/2-y,z
x,-y,1/2-z
1/2-x,y,-z
-x,-y,-z
x,1/2+y,-z
-x,y,1/2+z
1/2+x,-y,z
1/2+x,1/2+y,1/2+z
1/2-x,-y,1/2+z
1/2+x,1/2-y,-z
-x,1/2+y,1/2-z
1/2-x,1/2-y,1/2-z
1/2+x,y,1/2-z
1/2-x,1/2+y,z
x,1/2-y,1/2+z
loop_
_atom_site_type_symbol
_atom_site_label
_atom_site_fract_x
_atom_site_fract_y
_atom_site_fract_z
Si Si1 0.576392 0.500000 0.750000
Si Si2 0.299465 0.312547 0.221226
Si Si3 0.562956 0.565432 0.114395
Si Si4 0.500000 0.750000 0.213740
Si Si5 0.640480 0.569598 0.896392
Si Si6 0.634359 0.000000 0.750000
Si Si7 0.096335 0.169100 0.005176
O O1 0.544654 0.334139 0.747111
O O2 0.609522 0.512890 0.823967
O O3 0.303566 0.500000 0.250000
O O4 0.250000 0.250000 0.250000
O O5 0.312390 0.347938 0.133216
O O6 0.335225 0.167689 0.245969
O O7 0.517833 0.596764 0.163736
O O8 0.602757 0.513072 0.174207
O O9 0.562091 0.447041 0.042070
O O10 0.573294 0.739396 0.075417
O O11 0.612837 0.705023 0.942507
O O12 0.640327 0.423337 0.957403
#
# Coordination Sequence:
#
# PCOD9532495 Si02
#       7
#     8  16  16   8  16   8  16
#     4  12  25  43  68  98 138 188 244 307 345 426
#     4  12  24  42  74 112 138 171 242 304 354 435
#     4  11  23  43  64  98 133 192 233 296 355 427
#     4  12  26  40  64 102 142 182 258 310 356 408
#     4  11  22  46  69 102 134 190 233 294 364 441
#     4  12  23  45  76 100 140 192 240 293 371 436
#     4  10  23  41  69  97 138 190 237 280 376 436
#
# _framework density 21.268691
#
# number of rings (size 3 to 8) (size 9 to 14) (size 15 to 20)
#    0.000    0.727    5.455    2.727    2.545    0.727 
#    0.000    0.000    0.000   18.545    0.000    0.000 
#    0.000    0.000    0.000    0.000    0.000    0.000 
#
# Total GULP energy -245170.081586 kJ/mol
# GULP energy per Si atom -5572.047309 kJ/mol
# Density = 2.122028 g / cm^3
# Si number density = 21.268691 Si / 1000 Ang^3
#
#
#
# Elastic Constant Matrix: (Units=GPa)
#
#
# Indices 1 2 3 4 5 6 
#
# 1 79.0146 25.9534 27.7680 0.0000 0.0000 0.0000
# 2 25.9534 107.5215 33.5390 0.0000 0.0000 0.0000
# 3 27.7680 33.5390 97.7723 0.0000 0.0000 0.0000
# 4 0.0000 0.0000 0.0000 36.5886 0.0000 0.0000
# 5 0.0000 0.0000 0.0000 0.0000 23.1614 0.0000
# 6 0.0000 0.0000 0.0000 0.0000 0.0000 25.3774
#
#
#
# Elastic Compliance Matrix: (Units=1/GPa)
#
#
# Indices 1 2 3 4 5 6 
#
# 1 0.014638 -0.002504 -0.003298 0.000000 0.000000 0.000000
# 2 -0.002504 0.010843 -0.003008 0.000000 0.000000 0.000000
# 3 -0.003298 -0.003008 0.012196 0.000000 0.000000 0.000000
# 4 0.000000 0.000000 0.000000 0.027331 0.000000 0.000000
# 5 0.000000 0.000000 0.000000 0.000000 0.043175 0.000000
# 6 0.000000 0.000000 0.000000 0.000000 0.000000 0.039405
#
#
# Mechanical properties :
#
#
# Convention : Reuss Voigt Hill
#
# Bulk Modulus (GPa) = 49.86109 50.98100 50.42105
# Shear Modulus (GPa) = 29.08741 30.16201 29.62471
#
# Velocity S-wave (km/s) = 3.70214 3.76991 3.73618
# Velocity P-wave (km/s) = 6.46288 6.55527 6.50924
#
# Compressibility (1/GPa) = 0.02005572
#
# Stress axis : x y z
#
# Youngs Moduli (GPa) = 68.31754 92.22229 81.99090
#
# Poissons Ratio (x) = 0.23096 0.27041
# Poissons Ratio (y) = 0.17110 0.24666
# Poissons Ratio (z) = 0.22532 0.27744
#
# Static dielectric constant tensor:
#      x y z
#    x 1.769180 0.000000 0.000000 
#    y 0.000000 1.930980 0.000000 
#    z 0.000000 0.000000 1.842090 
# 
# From -- ./inp_files/5762.got.cif
#   From: 2010.05.17/outbox.cif.g08.bks.cpg/sg73_3_cif.got.tgz:5762.got - 2010.06.03 17:35:07.
