data_PCOD9532868
_publ_section_title
;
Structure prediction by ZEFSAII (Michael W. Deem and Ramdas Pophale) SiO2 
 PCOD9532868
Probable space group: I B C A 
;
_chemical_formula_sum "Si O2"
_cell_formula_units_Z 88
_cell_length_a 9.257089
_cell_length_b 23.039883
_cell_length_c 19.439999
_cell_angle_alpha 90.000000
_cell_angle_beta 90.000000
_cell_angle_gamma 90.000000
_cell_volume 4146.206678
_symmetry_space_group_name_H-M "I B C A "
_symmetry_group_IT_number 73
_symmetry_cell_setting 'orthorhombic'
loop_
_space_group_symop_operation_xyz
x,y,z
-x,1/2-y,z
x,-y,1/2-z
1/2-x,y,-z
-x,-y,-z
x,1/2+y,-z
-x,y,1/2+z
1/2+x,-y,z
1/2+x,1/2+y,1/2+z
1/2-x,-y,1/2+z
1/2+x,1/2-y,-z
-x,1/2+y,1/2-z
1/2-x,1/2-y,1/2-z
1/2+x,y,1/2-z
1/2-x,1/2+y,z
x,1/2-y,1/2+z
loop_
_atom_site_type_symbol
_atom_site_label
_atom_site_fract_x
_atom_site_fract_y
_atom_site_fract_z
Si Si1 0.579213 0.836214 0.591438
Si Si2 0.973986 0.580514 0.037801
Si Si3 0.714987 0.283104 0.927888
Si Si4 0.938172 0.834935 0.159303
Si Si5 0.750000 0.494307 0.000000
Si Si6 0.736286 0.681630 0.771314
O O1 0.565116 0.886428 0.534111
O O2 0.651981 0.779938 0.556255
O O3 0.415461 0.817042 0.608198
O O4 0.672695 0.838414 0.661142
O O5 0.841415 0.536419 0.050279
O O6 0.999551 0.623991 0.100196
O O7 0.123259 0.545045 0.030944
O O8 0.859365 0.283406 0.883376
O O9 0.750000 0.313347 0.000000
O O10 0.806540 0.854493 0.208717
O O11 0.068993 0.824080 0.210738
O O12 0.750000 0.750000 0.750000
#
# Coordination Sequence:
#
# PCOD9532868 Si02
#       6
#    16  16  16  16   8  16
#     4  11  24  39  66  99 140 186 229 264 344 418
#     4  11  23  46  74 100 130 177 234 307 355 410
#     4  11  23  37  62 100 141 184 224 277 316 419
#     4  12  25  44  65  96 143 191 227 274 352 418
#     4  10  24  44  74 104 126 160 242 322 370 388
#     4  12  26  40  64  98 150 193 222 262 329 437
#
# _framework density 21.224219000000002
#
# number of rings (size 3 to 8) (size 9 to 14) (size 15 to 20)
#    0.000    0.727    3.636    3.818    6.364    0.000 
#    0.000    0.000    0.000   18.545    0.000    0.000 
#    0.000    0.000    0.000    0.000    0.000    0.000 
#
# Total GULP energy -245413.733864 kJ/mol
# GULP energy per Si atom -5577.584861 kJ/mol
# Density = 2.117591 g / cm^3
# Si number density = 21.224219 Si / 1000 Ang^3
#
#
#
# Elastic Constant Matrix: (Units=GPa)
#
#
# Indices 1 2 3 4 5 6 
#
# 1 183.1156 40.2858 54.4575 0.0000 0.0000 0.0000
# 2 40.2858 71.2357 23.0190 0.0000 0.0000 0.0000
# 3 54.4575 23.0190 103.9084 0.0000 0.0000 0.0000
# 4 0.0000 0.0000 0.0000 9.4776 0.0000 0.0000
# 5 0.0000 0.0000 0.0000 0.0000 41.5928 0.0000
# 6 0.0000 0.0000 0.0000 0.0000 0.0000 29.3195
#
#
#
# Elastic Compliance Matrix: (Units=1/GPa)
#
#
# Indices 1 2 3 4 5 6 
#
# 1 0.007016 -0.002994 -0.003014 0.000000 0.000000 0.000000
# 2 -0.002994 0.016398 -0.002064 0.000000 0.000000 0.000000
# 3 -0.003014 -0.002064 0.011660 0.000000 0.000000 0.000000
# 4 0.000000 0.000000 0.000000 0.105512 0.000000 0.000000
# 5 0.000000 0.000000 0.000000 0.000000 0.024043 0.000000
# 6 0.000000 0.000000 0.000000 0.000000 0.000000 0.034107
#
#
# Mechanical properties :
#
#
# Convention : Reuss Voigt Hill
#
# Bulk Modulus (GPa) = 52.82097 65.97604 59.39850
# Shear Modulus (GPa) = 22.60508 32.11114 27.35811
#
# Velocity S-wave (km/s) = 3.26707 3.89388 3.59417
# Velocity P-wave (km/s) = 6.25882 7.16723 6.72837
#
# Compressibility (1/GPa) = 0.01893188
#
# Stress axis : x y z
#
# Youngs Moduli (GPa) = 142.53207 60.98363 85.75962
#
# Poissons Ratio (x) = 0.18258 0.25846
# Poissons Ratio (y) = 0.42672 0.17697
# Poissons Ratio (z) = 0.42956 0.12584
#
# Static dielectric constant tensor:
#      x y z
#    x 1.801030 0.000000 0.000000 
#    y 0.000000 1.807350 0.000000 
#    z 0.000000 0.000000 1.820930 
# 
# From -- ./inp_files/24786.got.cif
#   From: 2010.05.17/outbox.cif.g08.bks.cpg/sg73_13_cif.got.tgz:24786.got - 2010.06.03 17:35:07.
