data_PCOD9532499
_publ_section_title
;
Structure prediction by ZEFSAII (Michael W. Deem and Ramdas Pophale) SiO2 
 PCOD9532499
Probable space group: I B C A 
;
_chemical_formula_sum "Si O2"
_cell_formula_units_Z 72
_cell_length_a 17.077216
_cell_length_b 10.069219
_cell_length_c 20.654966
_cell_angle_alpha 90.000000
_cell_angle_beta 90.000000
_cell_angle_gamma 90.000000
_cell_volume 3551.708729
_symmetry_space_group_name_H-M "I B C A "
_symmetry_group_IT_number 73
_symmetry_cell_setting 'orthorhombic'
loop_
_space_group_symop_operation_xyz
x,y,z
-x,1/2-y,z
x,-y,1/2-z
1/2-x,y,-z
-x,-y,-z
x,1/2+y,-z
-x,y,1/2+z
1/2+x,-y,z
1/2+x,1/2+y,1/2+z
1/2-x,-y,1/2+z
1/2+x,1/2-y,-z
-x,1/2+y,1/2-z
1/2-x,1/2-y,1/2-z
1/2+x,y,1/2-z
1/2-x,1/2+y,z
x,1/2-y,1/2+z
loop_
_atom_site_type_symbol
_atom_site_label
_atom_site_fract_x
_atom_site_fract_y
_atom_site_fract_z
Si Si1 0.182426 0.469877 0.676281
Si Si2 0.218320 0.751035 0.621243
Si Si3 0.405110 0.590959 0.948913
Si Si4 0.967334 0.887934 0.908003
Si Si5 0.250000 0.605307 0.000000
O O1 0.161204 0.500000 0.750000
O O2 0.219470 0.601091 0.643550
O O3 0.246331 0.351768 0.673860
O O4 0.105765 0.434655 0.634539
O O5 0.131263 0.793412 0.596191
O O6 0.269431 0.795303 0.558807
O O7 0.463965 0.497136 0.911329
O O8 0.324150 0.523607 0.975219
O O9 0.443833 0.634084 0.016415
O O10 0.000000 0.750000 0.881719
#
# Coordination Sequence:
#
# PCOD9532499 Si02
#       5
#    16  16  16  16   8
#     4  12  26  46  65  95 136 185 231 266 321 403
#     4  10  23  41  70  96 131 169 227 276 335 384
#     4   9  21  39  68  99 133 164 210 284 347 393
#     4  11  24  40  65 100 139 169 218 273 348 399
#     4   8  18  38  68 100 128 158 216 280 340 382
#
# _framework density 20.271933000000001
#
# number of rings (size 3 to 8) (size 9 to 14) (size 15 to 20)
#    1.333    0.444    2.222    0.667    9.333    2.667 
#    4.000    0.000    0.000    0.000    0.000    0.000 
#    0.000    0.000    0.000    0.000    0.000    0.000 
#
# Total GULP energy -200542.749258 kJ/mol
# GULP energy per Si atom -5570.631924 kJ/mol
# Density = 2.022579 g / cm^3
# Si number density = 20.271933 Si / 1000 Ang^3
#
#
#
# Elastic Constant Matrix: (Units=GPa)
#
#
# Indices 1 2 3 4 5 6 
#
# 1 81.8985 52.4307 23.9990 0.0000 0.0000 0.0000
# 2 52.4307 97.9799 29.4267 0.0000 0.0000 0.0000
# 3 23.9990 29.4267 88.0904 0.0000 0.0000 0.0000
# 4 0.0000 0.0000 0.0000 8.9267 0.0000 0.0000
# 5 0.0000 0.0000 0.0000 0.0000 15.3265 0.0000
# 6 0.0000 0.0000 0.0000 0.0000 0.0000 34.0813
#
#
#
# Elastic Compliance Matrix: (Units=1/GPa)
#
#
# Indices 1 2 3 4 5 6 
#
# 1 0.018874 -0.009510 -0.001965 0.000000 0.000000 0.000000
# 2 -0.009510 0.016136 -0.002799 0.000000 0.000000 0.000000
# 3 -0.001965 -0.002799 0.012823 0.000000 0.000000 0.000000
# 4 0.000000 0.000000 0.000000 0.112023 0.000000 0.000000
# 5 0.000000 0.000000 0.000000 0.000000 0.065246 0.000000
# 6 0.000000 0.000000 0.000000 0.000000 0.000000 0.029342
#
#
# Mechanical properties :
#
#
# Convention : Reuss Voigt Hill
#
# Bulk Modulus (GPa) = 51.85714 53.29795 52.57755
# Shear Modulus (GPa) = 17.27592 22.47439 19.87515
#
# Velocity S-wave (km/s) = 2.92243 3.33324 3.13457
# Velocity P-wave (km/s) = 6.08471 6.41581 6.25245
#
# Compressibility (1/GPa) = 0.01928375
#
# Stress axis : x y z
#
# Youngs Moduli (GPa) = 52.98264 61.97446 77.98772
#
# Poissons Ratio (x) = 0.58935 0.15327
# Poissons Ratio (y) = 0.50384 0.21832
# Poissons Ratio (z) = 0.10413 0.17349
#
# Static dielectric constant tensor:
#      x y z
#    x 1.764190 0.000000 0.000000 
#    y 0.000000 1.716720 0.000000 
#    z 0.000000 0.000000 1.732930 
# 
# From -- ./inp_files/29316.got.cif
#   From: 2010.05.17/outbox.cif.g08.bks.cpg/sg73_15_cif.got.tgz:29316.got - 2010.06.03 17:35:07.
