data_PCOD9532128
_publ_section_title
;
Structure prediction by ZEFSAII (Michael W. Deem and Ramdas Pophale) SiO2 
 PCOD9532128
Probable space group: I B C A 
;
_chemical_formula_sum "Si O2"
_cell_formula_units_Z 120
_cell_length_a 8.398135
_cell_length_b 23.793905
_cell_length_c 28.019308
_cell_angle_alpha 90.000000
_cell_angle_beta 90.000000
_cell_angle_gamma 90.000000
_cell_volume 5598.942148
_symmetry_space_group_name_H-M "I B C A "
_symmetry_group_IT_number 73
_symmetry_cell_setting 'orthorhombic'
loop_
_space_group_symop_operation_xyz
x,y,z
-x,1/2-y,z
x,-y,1/2-z
1/2-x,y,-z
-x,-y,-z
x,1/2+y,-z
-x,y,1/2+z
1/2+x,-y,z
1/2+x,1/2+y,1/2+z
1/2-x,-y,1/2+z
1/2+x,1/2-y,-z
-x,1/2+y,1/2-z
1/2-x,1/2-y,1/2-z
1/2+x,y,1/2-z
1/2-x,1/2+y,z
x,1/2-y,1/2+z
loop_
_atom_site_type_symbol
_atom_site_label
_atom_site_fract_x
_atom_site_fract_y
_atom_site_fract_z
Si Si1 0.686989 0.684147 0.553736
Si Si2 0.553586 0.976466 0.645249
Si Si3 0.639212 0.789139 0.717423
Si Si4 0.756001 0.584457 0.379590
Si Si5 0.296563 0.125736 0.645798
Si Si6 0.886766 0.114899 0.292054
Si Si7 0.696585 0.186909 0.945008
Si Si8 0.453760 0.500000 0.750000
O O1 0.750000 0.680215 0.500000
O O2 0.766872 0.633807 0.583007
O O3 0.727191 0.747900 0.569547
O O4 0.494846 0.677908 0.557445
O O5 0.421039 0.947937 0.612751
O O6 0.692787 0.930682 0.650994
O O7 0.628502 0.033838 0.624997
O O8 0.473832 0.987862 0.697602
O O9 0.500000 0.750000 0.698466
O O10 0.750000 0.750000 0.750000
O O11 0.719883 0.822748 0.674961
O O12 0.583649 0.836336 0.754801
O O13 0.761041 0.616655 0.328227
O O14 0.463607 0.116044 0.672032
O O15 0.289128 0.145609 0.590931
O O16 0.864340 0.057612 0.262415
O O17 0.750000 0.180196 0.000000
#
# Coordination Sequence:
#
# PCOD9532128 Si02
#       8
#    16  16  16  16  16  16  16   8
#     4  10  23  46  74 103 134 175 226 294 358 421
#     4  11  23  41  67  95 137 180 232 278 338 412
#     4  12  27  43  63 100 144 186 234 283 358 424
#     4  11  25  43  67 100 136 179 235 284 346 417
#     4  12  25  44  69 100 139 186 232 288 350 417
#     4  11  26  41  66  99 141 185 235 288 345 413
#     4  10  24  46  74 104 136 181 232 287 358 430
#     4  10  22  42  62  92 132 182 232 276 324 404
#
# _framework density 21.43262
#
# number of rings (size 3 to 8) (size 9 to 14) (size 15 to 20)
#    0.000    1.067    4.000    1.600    9.333    2.667 
#    0.000    1.333    0.000    0.000    0.000    0.000 
#    0.000    0.000    0.000    0.000    0.000    0.000 
#
# Total GULP energy -335043.850079 kJ/mol
# GULP energy per Si atom -5584.064168 kJ/mol
# Density = 2.138384 g / cm^3
# Si number density = 21.432620 Si / 1000 Ang^3
#
#
#
# Elastic Constant Matrix: (Units=GPa)
#
#
# Indices 1 2 3 4 5 6 
#
# 1 52.4941 31.7201 17.8056 0.0000 0.0000 0.0000
# 2 31.7201 142.6373 65.1631 0.0000 0.0000 0.0000
# 3 17.8056 65.1631 97.3259 0.0000 0.0000 0.0000
# 4 0.0000 0.0000 0.0000 43.1121 0.0000 0.0000
# 5 0.0000 0.0000 0.0000 0.0000 20.4910 0.0000
# 6 0.0000 0.0000 0.0000 0.0000 0.0000 33.6345
#
#
#
# Elastic Compliance Matrix: (Units=1/GPa)
#
#
# Indices 1 2 3 4 5 6 
#
# 1 0.022086 -0.004417 -0.001084 0.000000 0.000000 0.000000
# 2 -0.004417 0.010983 -0.006546 0.000000 0.000000 0.000000
# 3 -0.001084 -0.006546 0.014856 0.000000 0.000000 0.000000
# 4 0.000000 0.000000 0.000000 0.023195 0.000000 0.000000
# 5 0.000000 0.000000 0.000000 0.000000 0.048802 0.000000
# 6 0.000000 0.000000 0.000000 0.000000 0.000000 0.029731
#
#
# Mechanical properties :
#
#
# Convention : Reuss Voigt Hill
#
# Bulk Modulus (GPa) = 41.95813 57.98165 49.96989
# Shear Modulus (GPa) = 27.51944 31.29875 29.40909
#
# Velocity S-wave (km/s) = 3.58718 3.82558 3.70829
# Velocity P-wave (km/s) = 6.06435 6.82826 6.45761
#
# Compressibility (1/GPa) = 0.02383328
#
# Stress axis : x y z
#
# Youngs Moduli (GPa) = 45.27749 91.04712 67.31477
#
# Poissons Ratio (x) = 0.40211 0.07294
# Poissons Ratio (y) = 0.19997 0.44062
# Poissons Ratio (z) = 0.04906 0.59597
#
# Static dielectric constant tensor:
#      x y z
#    x 1.899640 0.000000 0.000000 
#    y 0.000000 1.816760 0.000000 
#    z 0.000000 0.000000 1.749620 
# 
# From -- ./inp_files/31419.got.cif
#   From: 2010.05.17/outbox.cif.g08.bks.cpg/sg73_16_cif.got.tgz:31419.got - 2010.06.03 17:35:07.
