data_PCOD9532315
_publ_section_title
;
Structure prediction by ZEFSAII (Michael W. Deem and Ramdas Pophale) SiO2 
 PCOD9532315
Probable space group: I B C A 
;
_chemical_formula_sum "Si O2"
_cell_formula_units_Z 64
_cell_length_a 15.943330
_cell_length_b 12.887103
_cell_length_c 12.472475
_cell_angle_alpha 90.000000
_cell_angle_beta 90.000000
_cell_angle_gamma 90.000000
_cell_volume 2562.636320
_symmetry_space_group_name_H-M "I B C A "
_symmetry_group_IT_number 73
_symmetry_cell_setting 'orthorhombic'
loop_
_space_group_symop_operation_xyz
x,y,z
-x,1/2-y,z
x,-y,1/2-z
1/2-x,y,-z
-x,-y,-z
x,1/2+y,-z
-x,y,1/2+z
1/2+x,-y,z
1/2+x,1/2+y,1/2+z
1/2-x,-y,1/2+z
1/2+x,1/2-y,-z
-x,1/2+y,1/2-z
1/2-x,1/2-y,1/2-z
1/2+x,y,1/2-z
1/2-x,1/2+y,z
x,1/2-y,1/2+z
loop_
_atom_site_type_symbol
_atom_site_label
_atom_site_fract_x
_atom_site_fract_y
_atom_site_fract_z
Si Si1 0.250000 0.317216 0.000000
Si Si2 0.867377 0.483701 0.412471
Si Si3 0.000000 0.750000 0.823848
Si Si4 0.949310 0.019842 0.132182
Si Si5 0.823864 0.802995 0.814776
O O1 0.196915 0.390028 0.920598
O O2 0.314159 0.248873 0.932298
O O3 0.886973 0.512035 0.537571
O O4 0.828476 0.575842 0.342252
O O5 0.961711 0.460292 0.372482
O O6 0.978854 0.640457 0.882745
O O7 0.913007 0.771293 0.764788
O O8 0.912853 0.000000 0.250000
O O9 0.750000 0.750000 0.750000
#
# Coordination Sequence:
#
# PCOD9532315 Si02
#       5
#     8  16   8  16  16
#     4  12  24  44  68 106 142 200 242 328 384 476
#     4  10  24  45  67 105 146 189 260 314 396 477
#     4  10  22  46  70 106 142 192 262 310 398 464
#     4  10  22  44  72 104 142 199 251 325 393 473
#     4  11  26  46  73 107 147 198 257 325 396 479
#
# _framework density 24.97428
#
# number of rings (size 3 to 8) (size 9 to 14) (size 15 to 20)
#    0.000    1.500    2.500    0.750    7.000    4.000 
#    0.000    1.250    0.000    0.000    0.000    0.000 
#    0.000    0.000    0.000    0.000    0.000    0.000 
#
# Total GULP energy -178861.848758 kJ/mol
# GULP energy per Si atom -5589.432774 kJ/mol
# Density = 2.491744 g / cm^3
# Si number density = 24.974280 Si / 1000 Ang^3
#
#
#
# Elastic Constant Matrix: (Units=GPa)
#
#
# Indices 1 2 3 4 5 6 
#
# 1 117.7533 50.6231 33.0461 0.0000 0.0000 0.0000
# 2 50.6231 135.5666 38.0273 0.0000 0.0000 0.0000
# 3 33.0461 38.0273 112.7259 0.0000 0.0000 0.0000
# 4 0.0000 0.0000 0.0000 42.2271 0.0000 0.0000
# 5 0.0000 0.0000 0.0000 0.0000 47.8512 0.0000
# 6 0.0000 0.0000 0.0000 0.0000 0.0000 24.4575
#
#
#
# Elastic Compliance Matrix: (Units=1/GPa)
#
#
# Indices 1 2 3 4 5 6 
#
# 1 0.010486 -0.003372 -0.001936 0.000000 0.000000 0.000000
# 2 -0.003372 0.009232 -0.002126 0.000000 0.000000 0.000000
# 3 -0.001936 -0.002126 0.010156 0.000000 0.000000 0.000000
# 4 0.000000 0.000000 0.000000 0.023681 0.000000 0.000000
# 5 0.000000 0.000000 0.000000 0.000000 0.020898 0.000000
# 6 0.000000 0.000000 0.000000 0.000000 0.000000 0.040887
#
#
# Mechanical properties :
#
#
# Convention : Reuss Voigt Hill
#
# Bulk Modulus (GPa) = 66.64589 67.71542 67.18065
# Shear Modulus (GPa) = 36.97941 39.19712 38.08827
#
# Velocity S-wave (km/s) = 3.85216 3.96599 3.90949
# Velocity P-wave (km/s) = 6.82124 6.93866 6.88020
#
# Compressibility (1/GPa) = 0.01500468
#
# Stress axis : x y z
#
# Youngs Moduli (GPa) = 95.36960 108.31856 98.46597
#
# Poissons Ratio (x) = 0.36529 0.19065
# Poissons Ratio (y) = 0.32162 0.20931
# Poissons Ratio (z) = 0.18466 0.23026
#
# Static dielectric constant tensor:
#      x y z
#    x 1.942050 0.000000 0.000000 
#    y 0.000000 2.009390 0.000000 
#    z 0.000000 0.000000 2.151770 
# 
# From -- ./inp_files/17659.got.cif
#   From: 2010.05.17/outbox.cif.g08.bks.cpg/sg73_9_cif.got.tgz:17659.got - 2010.06.03 17:35:07.
