data_PCOD9532947
_publ_section_title
;
Structure prediction by ZEFSAII (Michael W. Deem and Ramdas Pophale) SiO2 
 PCOD9532947
Probable space group: I B C A 
;
_chemical_formula_sum "Si O2"
_cell_formula_units_Z 72
_cell_length_a 8.705722
_cell_length_b 14.631772
_cell_length_c 22.009786
_cell_angle_alpha 90.000000
_cell_angle_beta 90.000000
_cell_angle_gamma 90.000000
_cell_volume 2803.609609
_symmetry_space_group_name_H-M "I B C A "
_symmetry_group_IT_number 73
_symmetry_cell_setting 'orthorhombic'
loop_
_space_group_symop_operation_xyz
x,y,z
-x,1/2-y,z
x,-y,1/2-z
1/2-x,y,-z
-x,-y,-z
x,1/2+y,-z
-x,y,1/2+z
1/2+x,-y,z
1/2+x,1/2+y,1/2+z
1/2-x,-y,1/2+z
1/2+x,1/2-y,-z
-x,1/2+y,1/2-z
1/2-x,1/2-y,1/2-z
1/2+x,y,1/2-z
1/2-x,1/2+y,z
x,1/2-y,1/2+z
loop_
_atom_site_type_symbol
_atom_site_label
_atom_site_fract_x
_atom_site_fract_y
_atom_site_fract_z
Si Si1 0.500000 0.250000 0.413505
Si Si2 0.534638 0.616220 0.691612
Si Si3 0.271710 0.544354 0.354422
Si Si4 0.000000 0.750000 0.703843
Si Si5 0.921901 0.878328 0.100522
Si Si6 0.250000 0.264225 0.500000
O O1 0.433800 0.327422 0.369945
O O2 0.363536 0.212271 0.455003
O O3 0.351407 0.599028 0.685876
O O4 0.622238 0.521614 0.686245
O O5 0.572467 0.677001 0.749816
O O6 0.166961 0.473875 0.392759
O O7 0.395376 0.601056 0.393729
O O8 0.897482 0.688668 0.658725
O O9 0.861114 0.827107 0.041397
#
# Coordination Sequence:
#
# PCOD9532947 Si02
#       6
#     8  16  16   8  16   8
#     4  11  25  46  72 106 141 197 244 310 366 443
#     4  10  24  47  71 108 147 190 241 305 372 451
#     4  10  24  47  69 106 149 188 242 296 386 430
#     4  11  27  44  78 108 147 189 250 302 376 451
#     4  11  26  46  70 106 140 196 241 305 365 440
#     4  12  26  48  74 104 146 190 262 304 366 446
#
# _framework density 25.681179
#
# number of rings (size 3 to 8) (size 9 to 14) (size 15 to 20)
#    0.000    1.333    2.222    0.667    6.222    9.778 
#    0.000    0.000    0.000    0.000    0.000    0.000 
#    0.000    0.000    0.000    0.000    0.000    0.000 
#
# Total GULP energy -201648.889083 kJ/mol
# GULP energy per Si atom -5601.358030 kJ/mol
# Density = 2.562273 g / cm^3
# Si number density = 25.681179 Si / 1000 Ang^3
#
#
#
# Elastic Constant Matrix: (Units=GPa)
#
#
# Indices 1 2 3 4 5 6 
#
# 1 167.5542 21.7459 43.5072 0.0000 0.0000 0.0000
# 2 21.7459 52.2966 20.5898 0.0000 0.0000 0.0000
# 3 43.5072 20.5898 129.4822 0.0000 0.0000 0.0000
# 4 0.0000 0.0000 0.0000 17.0023 0.0000 0.0000
# 5 0.0000 0.0000 0.0000 0.0000 38.1954 0.0000
# 6 0.0000 0.0000 0.0000 0.0000 0.0000 37.8446
#
#
#
# Elastic Compliance Matrix: (Units=1/GPa)
#
#
# Indices 1 2 3 4 5 6 
#
# 1 0.006736 -0.002037 -0.001939 0.000000 0.000000 0.000000
# 2 -0.002037 0.021015 -0.002657 0.000000 0.000000 0.000000
# 3 -0.001939 -0.002657 0.008797 0.000000 0.000000 0.000000
# 4 0.000000 0.000000 0.000000 0.058816 0.000000 0.000000
# 5 0.000000 0.000000 0.000000 0.000000 0.026181 0.000000
# 6 0.000000 0.000000 0.000000 0.000000 0.000000 0.026424
#
#
# Mechanical properties :
#
#
# Convention : Reuss Voigt Hill
#
# Bulk Modulus (GPa) = 42.95448 57.89100 50.42274
# Shear Modulus (GPa) = 29.58625 36.17447 32.88036
#
# Velocity S-wave (km/s) = 3.39788 3.75720 3.58205
# Velocity P-wave (km/s) = 5.67067 6.43531 6.06505
#
# Compressibility (1/GPa) = 0.02328046
#
# Stress axis : x y z
#
# Youngs Moduli (GPa) = 148.45058 47.58492 113.67156
#
# Poissons Ratio (x) = 0.09695 0.22046
# Poissons Ratio (y) = 0.30246 0.30204
# Poissons Ratio (z) = 0.28791 0.12644
#
# Static dielectric constant tensor:
#      x y z
#    x 2.065940 0.000000 0.000000 
#    y 0.000000 1.988650 0.000000 
#    z 0.000000 0.000000 1.994250 
# 
# From -- ./inp_files/5385.got.cif
#   From: 2010.05.17/outbox.cif.g08.bks.cpg/sg73_3_cif.got.tgz:5385.got - 2010.06.03 17:35:07.
