data_PCOD9532914
_publ_section_title
;
Structure prediction by ZEFSAII (Michael W. Deem and Ramdas Pophale) SiO2 
 PCOD9532914
Probable space group: I B C A 
;
_chemical_formula_sum "Si O2"
_cell_formula_units_Z 120
_cell_length_a 23.227388
_cell_length_b 8.855806
_cell_length_c 26.141165
_cell_angle_alpha 90.000000
_cell_angle_beta 90.000000
_cell_angle_gamma 90.000000
_cell_volume 5377.165544
_symmetry_space_group_name_H-M "I B C A "
_symmetry_group_IT_number 73
_symmetry_cell_setting 'orthorhombic'
loop_
_space_group_symop_operation_xyz
x,y,z
-x,1/2-y,z
x,-y,1/2-z
1/2-x,y,-z
-x,-y,-z
x,1/2+y,-z
-x,y,1/2+z
1/2+x,-y,z
1/2+x,1/2+y,1/2+z
1/2-x,-y,1/2+z
1/2+x,1/2-y,-z
-x,1/2+y,1/2-z
1/2-x,1/2-y,1/2-z
1/2+x,y,1/2-z
1/2-x,1/2+y,z
x,1/2-y,1/2+z
loop_
_atom_site_type_symbol
_atom_site_label
_atom_site_fract_x
_atom_site_fract_y
_atom_site_fract_z
Si Si1 0.546187 0.621395 0.982520
Si Si2 0.856351 0.139650 0.900351
Si Si3 0.057091 0.344784 0.347225
Si Si4 0.558355 0.659642 0.093658
Si Si5 0.250000 0.037860 0.000000
Si Si6 0.440958 0.682254 0.239083
Si Si7 0.651752 0.665882 0.655174
Si Si8 0.771846 0.210655 0.073035
O O1 0.500000 0.750000 0.967424
O O2 0.593358 0.588469 0.939559
O O3 0.500000 0.500000 0.000000
O O4 0.579876 0.641051 0.035720
O O5 0.885940 0.279814 0.872741
O O6 0.797309 0.193276 0.925372
O O7 0.841773 0.009291 0.859285
O O8 0.050586 0.511538 0.370869
O O9 0.063317 0.296551 0.287563
O O10 0.000000 0.250000 0.360892
O O11 0.500000 0.750000 0.087890
O O12 0.601809 0.769947 0.120133
O O13 0.286264 0.145227 0.962179
O O14 0.212974 0.936222 0.960627
O O15 0.500000 0.750000 0.212830
O O16 0.450408 0.500000 0.250000
O O17 0.379385 0.687504 0.209841
O O18 0.705219 0.759202 0.630496
#
# Coordination Sequence:
#
# PCOD9532914 Si02
#       8
#    16  16  16  16   8  16  16  16
#     4  11  23  39  59  99 147 188 230 286 364 443
#     4  12  24  43  71 101 146 197 248 307 367 451
#     4  11  24  43  72 103 139 190 240 303 380 454
#     4  11  25  40  65 103 147 192 238 296 369 458
#     4  10  24  46  68  98 138 192 252 304 342 434
#     4  11  26  47  76 109 142 179 244 314 387 458
#     4  12  26  44  69  98 141 186 240 317 373 435
#     4  11  26  44  69 102 142 191 257 295 367 430
#
# _framework density 22.316590999999999
#
# number of rings (size 3 to 8) (size 9 to 14) (size 15 to 20)
#    0.000    0.800    2.667    4.800   11.200    1.067 
#    0.000    0.667    0.000    0.000    0.000    0.000 
#    0.000    0.000    0.000    0.000    0.000    0.000 
#
# Total GULP energy -334368.318095 kJ/mol
# GULP energy per Si atom -5572.805302 kJ/mol
# Density = 2.226580 g / cm^3
# Si number density = 22.316591 Si / 1000 Ang^3
#
#
#
# Elastic Constant Matrix: (Units=GPa)
#
#
# Indices 1 2 3 4 5 6 
#
# 1 103.6295 12.6350 20.5061 0.0000 0.0000 0.0000
# 2 12.6350 93.4975 31.1278 0.0000 0.0000 0.0000
# 3 20.5061 31.1278 113.9119 0.0000 0.0000 0.0000
# 4 0.0000 0.0000 0.0000 29.9663 0.0000 0.0000
# 5 0.0000 0.0000 0.0000 0.0000 38.6139 0.0000
# 6 0.0000 0.0000 0.0000 0.0000 0.0000 22.6209
#
#
#
# Elastic Compliance Matrix: (Units=1/GPa)
#
#
# Indices 1 2 3 4 5 6 
#
# 1 0.010065 -0.000833 -0.001584 0.000000 0.000000 0.000000
# 2 -0.000833 0.011835 -0.003084 0.000000 0.000000 0.000000
# 3 -0.001584 -0.003084 0.009907 0.000000 0.000000 0.000000
# 4 0.000000 0.000000 0.000000 0.033371 0.000000 0.000000
# 5 0.000000 0.000000 0.000000 0.000000 0.025897 0.000000
# 6 0.000000 0.000000 0.000000 0.000000 0.000000 0.044207
#
#
# Mechanical properties :
#
#
# Convention : Reuss Voigt Hill
#
# Bulk Modulus (GPa) = 48.06745 48.84186 48.45466
# Shear Modulus (GPa) = 32.63317 34.69153 33.66235
#
# Velocity S-wave (km/s) = 3.82813 3.94701 3.88803
# Velocity P-wave (km/s) = 6.41288 6.53493 6.47419
#
# Compressibility (1/GPa) = 0.02080410
#
# Stress axis : x y z
#
# Youngs Moduli (GPa) = 99.35632 84.49676 100.94200
#
# Poissons Ratio (x) = 0.07036 0.15992
# Poissons Ratio (y) = 0.08273 0.31132
# Poissons Ratio (z) = 0.15741 0.26060
#
# Static dielectric constant tensor:
#      x y z
#    x 1.724810 0.000000 0.000000 
#    y 0.000000 1.806670 0.000000 
#    z 0.000000 0.000000 1.824070 
# 
# From -- ./inp_files/32882.got.cif
#   From: 2010.05.17/outbox.cif.g08.bks.cpg/sg73_17_cif.got.tgz:32882.got - 2010.06.03 17:35:07.
