data_PCOD9532816
_publ_section_title
;
Structure prediction by ZEFSAII (Michael W. Deem and Ramdas Pophale) SiO2 
 PCOD9532816
Probable space group: I B C A 
;
_chemical_formula_sum "Si O2"
_cell_formula_units_Z 88
_cell_length_a 13.198917
_cell_length_b 10.908525
_cell_length_c 27.528944
_cell_angle_alpha 90.000000
_cell_angle_beta 90.000000
_cell_angle_gamma 90.000000
_cell_volume 3963.637070
_symmetry_space_group_name_H-M "I B C A "
_symmetry_group_IT_number 73
_symmetry_cell_setting 'orthorhombic'
loop_
_space_group_symop_operation_xyz
x,y,z
-x,1/2-y,z
x,-y,1/2-z
1/2-x,y,-z
-x,-y,-z
x,1/2+y,-z
-x,y,1/2+z
1/2+x,-y,z
1/2+x,1/2+y,1/2+z
1/2-x,-y,1/2+z
1/2+x,1/2-y,-z
-x,1/2+y,1/2-z
1/2-x,1/2-y,1/2-z
1/2+x,y,1/2-z
1/2-x,1/2+y,z
x,1/2-y,1/2+z
loop_
_atom_site_type_symbol
_atom_site_label
_atom_site_fract_x
_atom_site_fract_y
_atom_site_fract_z
Si Si1 0.086805 0.351185 0.927416
Si Si2 0.917264 0.140568 0.246280
Si Si3 0.616796 0.717202 0.143085
Si Si4 0.250000 0.441126 0.000000
Si Si5 0.095905 0.997076 0.923832
Si Si6 0.177709 0.688666 0.151430
O O1 0.178283 0.360914 0.964930
O O2 0.132151 0.311808 0.874673
O O3 0.000000 0.250000 0.939951
O O4 0.022708 0.477001 0.931193
O O5 0.861365 0.148378 0.194254
O O6 0.847463 0.170664 0.292463
O O7 0.000000 0.250000 0.247680
O O8 0.957182 0.000000 0.250000
O O9 0.500000 0.750000 0.146775
O O10 0.621685 0.637161 0.094910
O O11 0.702817 0.818872 0.141641
O O12 0.328742 0.520645 0.968169
O O13 0.123189 0.083680 0.878893
#
# Coordination Sequence:
#
# PCOD9532816 Si02
#       6
#    16  16  16   8  16  16
#     4  10  24  43  69  98 134 186 228 294 361 426
#     4  11  23  45  74 111 145 189 241 293 364 438
#     4  11  25  42  68 105 137 184 234 289 351 434
#     4  12  24  44  68 102 134 182 246 292 372 420
#     4  11  24  44  68  98 136 181 234 297 356 425
#     4  11  23  46  69  99 143 186 230 292 366 431
#
# _framework density 22.201830999999999
#
# number of rings (size 3 to 8) (size 9 to 14) (size 15 to 20)
#    0.000    1.091    3.636    2.727    2.545    3.636 
#    3.273    0.909    0.000    0.000    0.000    0.000 
#    0.000    0.000    0.000    0.000    0.000    0.000 
#
# Total GULP energy -245411.188496 kJ/mol
# GULP energy per Si atom -5577.527011 kJ/mol
# Density = 2.215130 g / cm^3
# Si number density = 22.201831 Si / 1000 Ang^3
#
#
#
# Elastic Constant Matrix: (Units=GPa)
#
#
# Indices 1 2 3 4 5 6 
#
# 1 139.5935 17.2521 41.8794 0.0000 0.0000 0.0000
# 2 17.2521 29.2484 -5.2173 0.0000 0.0000 0.0000
# 3 41.8794 -5.2173 91.4280 0.0000 0.0000 0.0000
# 4 0.0000 0.0000 0.0000 -1.3503 0.0000 0.0000
# 5 0.0000 0.0000 0.0000 0.0000 64.5650 0.0000
# 6 0.0000 0.0000 0.0000 0.0000 0.0000 19.1813
#
#
#
# Elastic Compliance Matrix: (Units=1/GPa)
#
#
# Indices 1 2 3 4 5 6 
#
# 1 0.009338 -0.006336 -0.004639 0.000000 0.000000 0.000000
# 2 -0.006336 0.038840 0.005119 0.000000 0.000000 0.000000
# 3 -0.004639 0.005119 0.013355 0.000000 0.000000 0.000000
# 4 0.000000 0.000000 0.000000 -0.740588 0.000000 0.000000
# 5 0.000000 0.000000 0.000000 0.000000 0.015488 0.000000
# 6 0.000000 0.000000 0.000000 0.000000 0.000000 0.052134
#
#
# Mechanical properties :
#
#
# Convention : Reuss Voigt Hill
#
# Bulk Modulus (GPa) = 20.07207 40.89982 30.48594
# Shear Modulus (GPa) = -8.57467 30.23623 10.83078
#
# Velocity S-wave (km/s) = -1.96737 3.69437 2.21109
# Velocity P-wave (km/s) = 1.97475 6.05472 4.50329
#
# Compressibility (1/GPa) = 0.04982048
#
# Stress axis : x y z
#
# Youngs Moduli (GPa) = 107.08392 25.74662 74.88027
#
# Poissons Ratio (x) = 0.16313 0.34738
# Poissons Ratio (y) = 0.67846 -0.38328
# Poissons Ratio (z) = 0.49678 -0.13179
#
# Static dielectric constant tensor:
#      x y z
#    x 1.853340 0.000000 0.000000 
#    y 0.000000 1.911910 0.000000 
#    z 0.000000 0.000000 1.846160 
# 
# From -- ./inp_files/14676.got.cif
#   From: 2010.05.17/outbox.cif.g08.bks.cpg/sg73_8_cif.got.tgz:14676.got - 2010.06.03 17:35:07.
