data_PCOD9532380
_publ_section_title
;
Structure prediction by ZEFSAII (Michael W. Deem and Ramdas Pophale) SiO2 
 PCOD9532380
Probable space group: I B C A 
;
_chemical_formula_sum "Si O2"
_cell_formula_units_Z 72
_cell_length_a 12.955532
_cell_length_b 12.840984
_cell_length_c 19.299254
_cell_angle_alpha 90.000000
_cell_angle_beta 90.000000
_cell_angle_gamma 90.000000
_cell_volume 3210.658231
_symmetry_space_group_name_H-M "I B C A "
_symmetry_group_IT_number 73
_symmetry_cell_setting 'orthorhombic'
loop_
_space_group_symop_operation_xyz
x,y,z
-x,1/2-y,z
x,-y,1/2-z
1/2-x,y,-z
-x,-y,-z
x,1/2+y,-z
-x,y,1/2+z
1/2+x,-y,z
1/2+x,1/2+y,1/2+z
1/2-x,-y,1/2+z
1/2+x,1/2-y,-z
-x,1/2+y,1/2-z
1/2-x,1/2-y,1/2-z
1/2+x,y,1/2-z
1/2-x,1/2+y,z
x,1/2-y,1/2+z
loop_
_atom_site_type_symbol
_atom_site_label
_atom_site_fract_x
_atom_site_fract_y
_atom_site_fract_z
Si Si1 0.059655 0.536924 0.433395
Si Si2 0.801935 0.864764 0.851845
Si Si3 0.936525 0.146888 0.323613
Si Si4 0.250000 0.953960 0.500000
Si Si5 0.500000 0.250000 0.363514
Si Si6 0.576078 0.500000 0.750000
O O1 0.046293 0.446597 0.377455
O O2 0.176321 0.530829 0.457875
O O3 0.000000 0.500000 0.500000
O O4 0.022370 0.646844 0.407595
O O5 0.687089 0.839124 0.823431
O O6 0.885978 0.776072 0.832934
O O7 0.847930 0.967534 0.813120
O O8 0.793885 0.884047 0.935623
O O9 0.000000 0.250000 0.342886
O O10 0.997176 0.097354 0.258531
#
# Coordination Sequence:
#
# PCOD9532380 Si02
#       6
#    16  16  16   8   8   8
#     4  11  23  43  68 103 145 189 246 305 377 445
#     4  11  26  46  76 110 147 200 252 306 389 442
#     4  11  27  45  72 106 145 190 251 307 372 447
#     4  10  22  46  70 106 144 194 246 312 370 460
#     4  12  24  44  72 108 150 194 248 316 376 448
#     4  12  24  50  72 106 152 200 252 316 372 462
#
# _framework density 22.425307
#
# number of rings (size 3 to 8) (size 9 to 14) (size 15 to 20)
#    0.000    0.889    4.444    0.667    3.111    7.111 
#    0.000    0.000    0.000    0.000    0.000    0.000 
#    0.000    0.000    0.000    0.000    0.000    0.000 
#
# Total GULP energy -200702.792927 kJ/mol
# GULP energy per Si atom -5575.077581 kJ/mol
# Density = 2.237427 g / cm^3
# Si number density = 22.425307 Si / 1000 Ang^3
#
#
#
# Elastic Constant Matrix: (Units=GPa)
#
#
# Indices 1 2 3 4 5 6 
#
# 1 203.7498 76.0061 43.3697 0.0000 0.0000 0.0000
# 2 76.0061 135.1494 22.7672 0.0000 0.0000 0.0000
# 3 43.3697 22.7672 97.1350 0.0000 0.0000 0.0000
# 4 0.0000 0.0000 0.0000 9.4338 0.0000 0.0000
# 5 0.0000 0.0000 0.0000 0.0000 -16.1523 0.0000
# 6 0.0000 0.0000 0.0000 0.0000 0.0000 28.5783
#
#
#
# Elastic Compliance Matrix: (Units=1/GPa)
#
#
# Indices 1 2 3 4 5 6 
#
# 1 0.006623 -0.003359 -0.002170 0.000000 0.000000 0.000000
# 2 -0.003359 0.009407 -0.000705 0.000000 0.000000 0.000000
# 3 -0.002170 -0.000705 0.011429 0.000000 0.000000 0.000000
# 4 0.000000 0.000000 0.000000 0.106001 0.000000 0.000000
# 5 0.000000 0.000000 0.000000 0.000000 -0.061911 0.000000
# 6 0.000000 0.000000 0.000000 0.000000 0.000000 0.034992
#
#
# Mechanical properties :
#
#
# Convention : Reuss Voigt Hill
#
# Bulk Modulus (GPa) = 66.70614 80.03558 73.37086
# Shear Modulus (GPa) = 40.32057 23.96472 32.14265
#
# Velocity S-wave (km/s) = 4.24488 3.27256 3.79003
# Velocity P-wave (km/s) = 7.33729 7.07438 7.20703
#
# Compressibility (1/GPa) = 0.01499112
#
# Stress axis : x y z
#
# Youngs Moduli (GPa) = 150.99146 106.30256 87.49693
#
# Poissons Ratio (x) = 0.35708 0.18984
# Poissons Ratio (y) = 0.50720 0.06169
# Poissons Ratio (z) = 0.32761 0.07495
#
# Static dielectric constant tensor:
#      x y z
#    x 1.947800 0.000000 0.000000 
#    y 0.000000 1.447250 0.000000 
#    z 0.000000 0.000000 2.007080 
# 
# From -- ./inp_files/12591.got.cif
#   From: 2010.05.17/outbox.cif.g08.bks.cpg/sg73_7_cif.got.tgz:12591.got - 2010.06.03 17:35:07.
