data_PCOD9532148
_publ_section_title
;
Structure prediction by ZEFSAII (Michael W. Deem and Ramdas Pophale) SiO2 
 PCOD9532148
Probable space group: I B C A 
;
_chemical_formula_sum "Si O2"
_cell_formula_units_Z 80
_cell_length_a 29.940794
_cell_length_b 10.632658
_cell_length_c 10.641940
_cell_angle_alpha 90.000000
_cell_angle_beta 90.000000
_cell_angle_gamma 90.000000
_cell_volume 3387.863971
_symmetry_space_group_name_H-M "I B C A "
_symmetry_group_IT_number 73
_symmetry_cell_setting 'orthorhombic'
loop_
_space_group_symop_operation_xyz
x,y,z
-x,1/2-y,z
x,-y,1/2-z
1/2-x,y,-z
-x,-y,-z
x,1/2+y,-z
-x,y,1/2+z
1/2+x,-y,z
1/2+x,1/2+y,1/2+z
1/2-x,-y,1/2+z
1/2+x,1/2-y,-z
-x,1/2+y,1/2-z
1/2-x,1/2-y,1/2-z
1/2+x,y,1/2-z
1/2-x,1/2+y,z
x,1/2-y,1/2+z
loop_
_atom_site_type_symbol
_atom_site_label
_atom_site_fract_x
_atom_site_fract_y
_atom_site_fract_z
Si Si1 0.368736 0.598897 0.594473
Si Si2 0.703640 0.500000 0.250000
Si Si3 0.051706 0.000000 0.750000
Si Si4 0.485121 0.616548 0.413512
Si Si5 0.846126 0.855648 0.934706
Si Si6 0.250000 0.597995 0.000000
Si Si7 0.405756 0.000000 0.750000
O O1 0.331791 0.608561 0.707294
O O2 0.416056 0.562430 0.648881
O O3 0.353002 0.479914 0.516322
O O4 0.369266 0.728363 0.520680
O O5 0.733361 0.474035 0.126517
O O6 0.020431 0.890787 0.700264
O O7 0.500000 0.750000 0.474382
O O8 0.500000 0.500000 0.500000
O O9 0.438029 0.572699 0.350438
O O10 0.793281 0.829738 0.947213
O O11 0.872450 0.896259 0.809581
#
# Coordination Sequence:
#
# PCOD9532148 Si02
#       7
#    16   8   8  16  16   8   8
#     4  10  23  42  65  95 133 178 229 290 356 432
#     4   9  21  41  65  96 132 180 231 291 367 433
#     4  10  22  42  66  90 132 178 224 282 348 426
#     4  11  25  43  66  97 135 177 229 290 356 430
#     4  11  24  41  66  98 135 178 235 292 360 434
#     4  10  22  42  70 100 140 184 236 304 368 442
#     4  11  25  41  67 100 134 184 239 295 357 437
#
# _framework density 23.613699
#
# number of rings (size 3 to 8) (size 9 to 14) (size 15 to 20)
#    0.000    1.600    0.000    3.000    0.000   18.400 
#    0.000    0.000    0.000    0.000    0.000    0.000 
#    0.000    0.000    0.000    0.000    0.000    0.000 
#
# Total GULP energy -222938.716661 kJ/mol
# GULP energy per Si atom -5573.467917 kJ/mol
# Density = 2.355995 g / cm^3
# Si number density = 23.613699 Si / 1000 Ang^3
#
#
#
# Elastic Constant Matrix: (Units=GPa)
#
#
# Indices 1 2 3 4 5 6 
#
# 1 145.1841 29.3631 38.5281 0.0000 0.0000 0.0000
# 2 29.3631 153.9980 22.3248 0.0000 0.0000 0.0000
# 3 38.5281 22.3248 88.0601 0.0000 0.0000 0.0000
# 4 0.0000 0.0000 0.0000 31.1751 0.0000 0.0000
# 5 0.0000 0.0000 0.0000 0.0000 27.6842 0.0000
# 6 0.0000 0.0000 0.0000 0.0000 0.0000 12.6456
#
#
#
# Elastic Compliance Matrix: (Units=1/GPa)
#
#
# Indices 1 2 3 4 5 6 
#
# 1 0.007953 -0.001051 -0.003213 0.000000 0.000000 0.000000
# 2 -0.001051 0.006880 -0.001285 0.000000 0.000000 0.000000
# 3 -0.003213 -0.001285 0.013087 0.000000 0.000000 0.000000
# 4 0.000000 0.000000 0.000000 0.032077 0.000000 0.000000
# 5 0.000000 0.000000 0.000000 0.000000 0.036122 0.000000
# 6 0.000000 0.000000 0.000000 0.000000 0.000000 0.079079
#
#
# Mechanical properties :
#
#
# Convention : Reuss Voigt Hill
#
# Bulk Modulus (GPa) = 59.44001 63.07490 61.25745
# Shear Modulus (GPa) = 26.05487 34.10274 30.07881
#
# Velocity S-wave (km/s) = 3.32532 3.80438 3.57289
# Velocity P-wave (km/s) = 6.32219 6.78726 6.55885
#
# Compressibility (1/GPa) = 0.01682369
#
# Stress axis : x y z
#
# Youngs Moduli (GPa) = 125.73869 145.34606 76.40932
#
# Poissons Ratio (x) = 0.15270 0.24552
# Poissons Ratio (y) = 0.13210 0.09815
# Poissons Ratio (z) = 0.40403 0.18671
#
# Static dielectric constant tensor:
#      x y z
#    x 1.935990 0.000000 0.000000 
#    y 0.000000 2.186000 0.000000 
#    z 0.000000 0.000000 2.027070 
# 
# From -- ./inp_files/14630.got.cif
#   From: 2010.05.17/outbox.cif.g08.bks.cpg/sg73_8_cif.got.tgz:14630.got - 2010.06.03 17:35:07.
