data_PCOD9532646
_publ_section_title
;
Structure prediction by ZEFSAII (Michael W. Deem and Ramdas Pophale) SiO2 
 PCOD9532646
Probable space group: I B C A 
;
_chemical_formula_sum "Si O2"
_cell_formula_units_Z 72
_cell_length_a 9.290994
_cell_length_b 16.538589
_cell_length_c 18.756448
_cell_angle_alpha 90.000000
_cell_angle_beta 90.000000
_cell_angle_gamma 90.000000
_cell_volume 2882.114509
_symmetry_space_group_name_H-M "I B C A "
_symmetry_group_IT_number 73
_symmetry_cell_setting 'orthorhombic'
loop_
_space_group_symop_operation_xyz
x,y,z
-x,1/2-y,z
x,-y,1/2-z
1/2-x,y,-z
-x,-y,-z
x,1/2+y,-z
-x,y,1/2+z
1/2+x,-y,z
1/2+x,1/2+y,1/2+z
1/2-x,-y,1/2+z
1/2+x,1/2-y,-z
-x,1/2+y,1/2-z
1/2-x,1/2-y,1/2-z
1/2+x,y,1/2-z
1/2-x,1/2+y,z
x,1/2-y,1/2+z
loop_
_atom_site_type_symbol
_atom_site_label
_atom_site_fract_x
_atom_site_fract_y
_atom_site_fract_z
Si Si1 0.781011 0.447793 0.343889
Si Si2 0.500000 0.250000 0.339249
Si Si3 0.610807 0.876271 0.547571
Si Si4 0.966931 0.655317 0.586995
Si Si5 0.218293 0.378498 0.697387
O O1 0.662661 0.452894 0.406448
O O2 0.845676 0.535650 0.328152
O O3 0.715731 0.406248 0.272891
O O4 0.907238 0.389706 0.369868
O O5 0.416251 0.191309 0.393370
O O6 0.394408 0.306331 0.293910
O O7 0.750000 0.853705 0.500000
O O8 0.478072 0.881406 0.493158
O O9 0.826755 0.646605 0.635265
O O10 0.000000 0.750000 0.578190
#
# Coordination Sequence:
#
# PCOD9532646 Si02
#       5
#    16   8  16  16  16
#     4  10  26  47  70 107 154 195 241 307 369 441
#     4  12  26  42  76 106 142 196 244 298 366 436
#     4  10  23  46  69 103 148 189 241 299 360 433
#     4  11  24  47  72 103 152 192 248 307 362 447
#     4  11  27  45  74 110 151 193 246 308 365 440
#
# _framework density 24.981659000000001
#
# number of rings (size 3 to 8) (size 9 to 14) (size 15 to 20)
#    0.000    1.333    1.111    2.667    7.778    4.444 
#    8.000    0.000    0.000    0.000    0.000    0.000 
#    0.000    0.000    0.000    0.000    0.000    0.000 
#
# Total GULP energy -201432.065627 kJ/mol
# GULP energy per Si atom -5595.335156 kJ/mol
# Density = 2.492480 g / cm^3
# Si number density = 24.981659 Si / 1000 Ang^3
#
#
#
# Elastic Constant Matrix: (Units=GPa)
#
#
# Indices 1 2 3 4 5 6 
#
# 1 67.5953 29.5424 35.7361 0.0000 0.0000 0.0000
# 2 29.5424 89.5085 51.3562 0.0000 0.0000 0.0000
# 3 35.7361 51.3562 110.7439 0.0000 0.0000 0.0000
# 4 0.0000 0.0000 0.0000 29.2194 0.0000 0.0000
# 5 0.0000 0.0000 0.0000 0.0000 33.9934 0.0000
# 6 0.0000 0.0000 0.0000 0.0000 0.0000 33.0294
#
#
#
# Elastic Compliance Matrix: (Units=1/GPa)
#
#
# Indices 1 2 3 4 5 6 
#
# 1 0.018691 -0.003690 -0.004320 0.000000 0.000000 0.000000
# 2 -0.003690 0.015951 -0.006206 0.000000 0.000000 0.000000
# 3 -0.004320 -0.006206 0.013302 0.000000 0.000000 0.000000
# 4 0.000000 0.000000 0.000000 0.034224 0.000000 0.000000
# 5 0.000000 0.000000 0.000000 0.000000 0.029418 0.000000
# 6 0.000000 0.000000 0.000000 0.000000 0.000000 0.030276
#
#
# Mechanical properties :
#
#
# Convention : Reuss Voigt Hill
#
# Bulk Modulus (GPa) = 51.25431 55.67967 53.46699
# Shear Modulus (GPa) = 28.28095 29.32931 28.80513
#
# Velocity S-wave (km/s) = 3.36827 3.43013 3.39934
# Velocity P-wave (km/s) = 5.97397 6.16639 6.07094
#
# Compressibility (1/GPa) = 0.01951056
#
# Stress axis : x y z
#
# Youngs Moduli (GPa) = 53.50276 62.69207 75.17683
#
# Poissons Ratio (x) = 0.23135 0.32476
# Poissons Ratio (y) = 0.19744 0.46657
# Poissons Ratio (z) = 0.23113 0.38908
#
# Static dielectric constant tensor:
#      x y z
#    x 2.019150 0.000000 0.000000 
#    y 0.000000 1.936870 0.000000 
#    z 0.000000 0.000000 2.000260 
# 
# From -- ./inp_files/24632.got.cif
#   From: 2010.05.17/outbox.cif.g08.bks.cpg/sg73_13_cif.got.tgz:24632.got - 2010.06.03 17:35:07.
