data_PCOD9532383
_publ_section_title
;
Structure prediction by ZEFSAII (Michael W. Deem and Ramdas Pophale) SiO2 
 PCOD9532383
Probable space group: I B C A 
;
_chemical_formula_sum "Si O2"
_cell_formula_units_Z 88
_cell_length_a 25.635003
_cell_length_b 14.032810
_cell_length_c 10.155997
_cell_angle_alpha 90.000000
_cell_angle_beta 90.000000
_cell_angle_gamma 90.000000
_cell_volume 3653.428241
_symmetry_space_group_name_H-M "I B C A "
_symmetry_group_IT_number 73
_symmetry_cell_setting 'orthorhombic'
loop_
_space_group_symop_operation_xyz
x,y,z
-x,1/2-y,z
x,-y,1/2-z
1/2-x,y,-z
-x,-y,-z
x,1/2+y,-z
-x,y,1/2+z
1/2+x,-y,z
1/2+x,1/2+y,1/2+z
1/2-x,-y,1/2+z
1/2+x,1/2-y,-z
-x,1/2+y,1/2-z
1/2-x,1/2-y,1/2-z
1/2+x,y,1/2-z
1/2-x,1/2+y,z
x,1/2-y,1/2+z
loop_
_atom_site_type_symbol
_atom_site_label
_atom_site_fract_x
_atom_site_fract_y
_atom_site_fract_z
Si Si1 0.468402 0.887104 0.730145
Si Si2 0.771154 0.000000 0.250000
Si Si3 0.129838 0.057221 0.618884
Si Si4 0.418346 0.795959 0.270994
Si Si5 0.276427 0.315447 0.362360
Si Si6 0.384983 0.376307 0.467839
O O1 0.525105 0.847352 0.763677
O O2 0.429310 0.814511 0.802809
O O3 0.444256 0.865637 0.585026
O O4 0.465519 0.000000 0.750000
O O5 0.809111 0.056714 0.150050
O O6 0.740285 0.076995 0.330009
O O7 0.105892 0.161248 0.635366
O O8 0.118489 0.831556 0.612302
O O9 0.120848 0.990254 0.493998
O O10 0.392011 0.000000 0.250000
O O11 0.250000 0.286411 0.500000
O O12 0.250000 0.250000 0.250000
O O13 0.338811 0.330804 0.381304
#
# Coordination Sequence:
#
# PCOD9532383 Si02
#       6
#    16   8  16  16  16  16
#     4  11  26  42  66 110 149 187 258 328 389 470
#     4  10  22  46  72 102 148 196 264 322 394 486
#     4   8  17  39  70  95 130 194 246 305 374 473
#     4  10  23  46  71 100 151 205 257 317 406 472
#     4  12  27  49  77 119 157 206 268 335 416 485
#     4  11  24  43  74 105 146 203 256 319 395 486
#
# _framework density 24.086967000000001
#
# number of rings (size 3 to 8) (size 9 to 14) (size 15 to 20)
#    0.545    1.091    1.818    1.636    6.364    8.000 
#    0.000    0.000    0.000    0.000    0.000    0.000 
#    0.000    0.000    0.000    0.000    0.000    0.000 
#
# Total GULP energy -245038.340581 kJ/mol
# GULP energy per Si atom -5569.053195 kJ/mol
# Density = 2.403214 g / cm^3
# Si number density = 24.086967 Si / 1000 Ang^3
#
#
#
# Elastic Constant Matrix: (Units=GPa)
#
#
# Indices 1 2 3 4 5 6 
#
# 1 107.0335 46.9746 25.9062 0.0000 0.0000 0.0000
# 2 46.9746 166.6558 21.6785 0.0000 0.0000 0.0000
# 3 25.9062 21.6785 80.6836 0.0000 0.0000 0.0000
# 4 0.0000 0.0000 0.0000 38.6551 0.0000 0.0000
# 5 0.0000 0.0000 0.0000 0.0000 30.9084 0.0000
# 6 0.0000 0.0000 0.0000 0.0000 0.0000 39.1464
#
#
#
# Elastic Compliance Matrix: (Units=1/GPa)
#
#
# Indices 1 2 3 4 5 6 
#
# 1 0.011266 -0.002803 -0.002864 0.000000 0.000000 0.000000
# 2 -0.002803 0.006915 -0.000958 0.000000 0.000000 0.000000
# 3 -0.002864 -0.000958 0.013571 0.000000 0.000000 0.000000
# 4 0.000000 0.000000 0.000000 0.025870 0.000000 0.000000
# 5 0.000000 0.000000 0.000000 0.000000 0.032354 0.000000
# 6 0.000000 0.000000 0.000000 0.000000 0.000000 0.025545
#
#
# Mechanical properties :
#
#
# Convention : Reuss Voigt Hill
#
# Bulk Modulus (GPa) = 54.04827 60.38795 57.21811
# Shear Modulus (GPa) = 37.05376 39.06289 38.05832
#
# Velocity S-wave (km/s) = 3.92641 4.03146 3.97928
# Velocity P-wave (km/s) = 6.56073 6.84072 6.70218
#
# Compressibility (1/GPa) = 0.01850198
#
# Stress axis : x y z
#
# Youngs Moduli (GPa) = 88.76012 144.61158 73.68556
#
# Poissons Ratio (x) = 0.40535 0.21106
# Poissons Ratio (y) = 0.24880 0.07059
# Poissons Ratio (z) = 0.25424 0.13853
#
# Static dielectric constant tensor:
#      x y z
#    x 1.920830 0.000000 0.000000 
#    y 0.000000 2.068220 0.000000 
#    z 0.000000 0.000000 2.208170 
# 
# From -- ./inp_files/14679.got.cif
#   From: 2010.05.17/outbox.cif.g08.bks.cpg/sg73_8_cif.got.tgz:14679.got - 2010.06.03 17:35:07.
