data_PCOD9532004
_publ_section_title
;
Structure prediction by ZEFSAII (Michael W. Deem and Ramdas Pophale) SiO2 
 PCOD9532004
Probable space group: I B C A 
;
_chemical_formula_sum "Si O2"
_cell_formula_units_Z 80
_cell_length_a 11.853867
_cell_length_b 26.166770
_cell_length_c 12.233795
_cell_angle_alpha 90.000000
_cell_angle_beta 90.000000
_cell_angle_gamma 90.000000
_cell_volume 3794.646865
_symmetry_space_group_name_H-M "I B C A "
_symmetry_group_IT_number 73
_symmetry_cell_setting 'orthorhombic'
loop_
_space_group_symop_operation_xyz
x,y,z
-x,1/2-y,z
x,-y,1/2-z
1/2-x,y,-z
-x,-y,-z
x,1/2+y,-z
-x,y,1/2+z
1/2+x,-y,z
1/2+x,1/2+y,1/2+z
1/2-x,-y,1/2+z
1/2+x,1/2-y,-z
-x,1/2+y,1/2-z
1/2-x,1/2-y,1/2-z
1/2+x,y,1/2-z
1/2-x,1/2+y,z
x,1/2-y,1/2+z
loop_
_atom_site_type_symbol
_atom_site_label
_atom_site_fract_x
_atom_site_fract_y
_atom_site_fract_z
Si Si1 0.195282 0.275856 0.102454
Si Si2 0.072704 0.951198 0.462889
Si Si3 0.706886 0.552025 0.315492
Si Si4 0.422724 0.206954 0.724388
Si Si5 0.419597 0.127908 0.336671
O O1 0.119164 0.236141 0.166527
O O2 0.303868 0.298011 0.165826
O O3 0.124421 0.326928 0.085170
O O4 0.250000 0.249084 0.000000
O O5 0.168802 0.957203 0.368269
O O6 0.133425 0.936357 0.576220
O O7 0.987429 0.911016 0.411140
O O8 0.000000 0.000000 0.500000
O O9 0.675570 0.500000 0.250000
O O10 0.677464 0.597865 0.231129
O O11 0.500000 0.250000 0.665779
O O12 0.495837 0.157405 0.752675
#
# Coordination Sequence:
#
# PCOD9532004 Si02
#       5
#    16  16  16  16  16
#     4  10  22  40  64  97 126 168 219 266 323 403
#     4  11  25  44  66  96 132 177 223 272 340 391
#     4  11  25  43  65  96 132 176 227 276 326 409
#     4   9  21  42  63  92 131 167 209 269 331 384
#     4  11  23  42  68  96 128 174 217 274 335 384
#
# _framework density 21.082331
#
# number of rings (size 3 to 8) (size 9 to 14) (size 15 to 20)
#    0.000    1.600    2.000    1.200    5.600    4.000 
#   10.800    0.000    0.000    0.000    0.000    0.000 
#    0.000    0.000    0.000    0.000    0.000    0.000 
#
# Total GULP energy -222849.560008 kJ/mol
# GULP energy per Si atom -5571.239000 kJ/mol
# Density = 2.103435 g / cm^3
# Si number density = 21.082331 Si / 1000 Ang^3
#
#
#
# Elastic Constant Matrix: (Units=GPa)
#
#
# Indices 1 2 3 4 5 6 
#
# 1 93.7596 27.5112 15.0803 0.0000 0.0000 0.0000
# 2 27.5112 83.6407 15.3503 -0.0001 0.0000 -0.0001
# 3 15.0803 15.3503 56.8569 -0.0001 0.0000 -0.0003
# 4 0.0000 -0.0001 -0.0001 19.8103 0.0001 0.0000
# 5 0.0000 0.0000 0.0000 0.0001 50.3169 0.0000
# 6 0.0000 -0.0001 -0.0003 0.0000 0.0000 0.7221
#
#
#
# Elastic Compliance Matrix: (Units=1/GPa)
#
#
# Indices 1 2 3 4 5 6 
#
# 1 0.012070 -0.003559 -0.002241 0.000000 0.000000 -0.000001
# 2 -0.003559 0.013629 -0.002736 0.000000 0.000000 0.000000
# 3 -0.002241 -0.002736 0.018921 0.000000 0.000000 0.000009
# 4 0.000000 0.000000 0.000000 0.050479 0.000000 0.000001
# 5 0.000000 0.000000 0.000000 0.000000 0.019874 -0.000001
# 6 -0.000001 0.000000 0.000009 0.000001 -0.000001 1.384916
#
#
# Mechanical properties :
#
#
# Convention : Reuss Voigt Hill
#
# Bulk Modulus (GPa) = 36.29823 38.90453 37.60138
# Shear Modulus (GPa) = 3.27623 25.92419 14.60021
#
# Velocity S-wave (km/s) = 1.24796 3.51046 2.63446
# Velocity P-wave (km/s) = 4.39673 5.90972 5.20846
#
# Compressibility (1/GPa) = 0.02754956
#
# Stress axis : x y z
#
# Youngs Moduli (GPa) = 82.84848 73.37532 52.85184
#
# Poissons Ratio (x) = 0.26114 0.11842
# Poissons Ratio (y) = 0.29485 0.14458
# Poissons Ratio (z) = 0.18563 0.20072
#
# Static dielectric constant tensor:
#      x y z
#    x 1.855110 0.000000 0.000000 
#    y 0.000000 1.725410 0.000000 
#    z 0.000000 0.000000 1.802480 
# 
# From -- ./inp_files/9786.got.cif
#   From: 2010.05.17/outbox.cif.g08.bks.cpg/sg73_5_cif.got.tgz:9786.got - 2010.06.03 17:35:07.
