data_PCOD9532119
_publ_section_title
;
Structure prediction by ZEFSAII (Michael W. Deem and Ramdas Pophale) SiO2 
 PCOD9532119
Probable space group: I B C A 
;
_chemical_formula_sum "Si O2"
_cell_formula_units_Z 56
_cell_length_a 6.015220
_cell_length_b 13.438817
_cell_length_c 25.614895
_cell_angle_alpha 90.000000
_cell_angle_beta 90.000000
_cell_angle_gamma 90.000000
_cell_volume 2070.642558
_symmetry_space_group_name_H-M "I B C A "
_symmetry_group_IT_number 73
_symmetry_cell_setting 'orthorhombic'
loop_
_space_group_symop_operation_xyz
x,y,z
-x,1/2-y,z
x,-y,1/2-z
1/2-x,y,-z
-x,-y,-z
x,1/2+y,-z
-x,y,1/2+z
1/2+x,-y,z
1/2+x,1/2+y,1/2+z
1/2-x,-y,1/2+z
1/2+x,1/2-y,-z
-x,1/2+y,1/2-z
1/2-x,1/2-y,1/2-z
1/2+x,y,1/2-z
1/2-x,1/2+y,z
x,1/2-y,1/2+z
loop_
_atom_site_type_symbol
_atom_site_label
_atom_site_fract_x
_atom_site_fract_y
_atom_site_fract_z
Si Si1 0.000000 0.250000 0.403396
Si Si2 0.126239 0.615025 0.878332
Si Si3 0.903230 0.384585 0.732818
Si Si4 0.245787 0.927225 0.942579
O O1 0.193581 0.299711 0.369729
O O2 0.069994 0.156581 0.437966
O O3 0.972584 0.615468 0.827691
O O4 0.230559 0.509254 0.896626
O O5 0.976479 0.632345 0.929108
O O6 0.885259 0.500000 0.750000
O O7 0.143886 0.347366 0.758420
O O8 0.250000 0.971975 0.000000
#
# Coordination Sequence:
#
# PCOD9532119 Si02
#       4
#     8  16  16  16
#     4  12  30  44  78 110 156 202 262 320 388 464
#     4  12  26  49  78 112 156 202 260 321 390 467
#     4  10  22  41  79 112 148 205 255 319 400 462
#     4  12  27  47  78 109 157 207 259 318 394 462
#
# _framework density 27.044743
#
# number of rings (size 3 to 8) (size 9 to 14) (size 15 to 20)
#    0.000    0.571    2.857    5.143    8.000    0.000 
#    0.000    1.429    0.000    0.000    0.000    0.000 
#    0.000    0.000    0.000    0.000    0.000    0.000 
#
# Total GULP energy -156346.242444 kJ/mol
# GULP energy per Si atom -5583.794373 kJ/mol
# Density = 2.698319 g / cm^3
# Si number density = 27.044743 Si / 1000 Ang^3
#
#
#
# Elastic Constant Matrix: (Units=GPa)
#
#
# Indices 1 2 3 4 5 6 
#
# 1 194.6005 53.8075 72.0137 0.0000 0.0000 0.0000
# 2 53.8075 117.3490 32.6750 0.0000 0.0000 0.0000
# 3 72.0137 32.6750 158.0785 0.0000 0.0000 0.0000
# 4 0.0000 0.0000 0.0000 10.3901 0.0000 0.0000
# 5 0.0000 0.0000 0.0000 0.0000 13.7043 0.0000
# 6 0.0000 0.0000 0.0000 0.0000 0.0000 68.5368
#
#
#
# Elastic Compliance Matrix: (Units=1/GPa)
#
#
# Indices 1 2 3 4 5 6 
#
# 1 0.006752 -0.002376 -0.002585 0.000000 0.000000 0.000000
# 2 -0.002376 0.009878 -0.000959 0.000000 0.000000 0.000000
# 3 -0.002585 -0.000959 0.007702 0.000000 0.000000 0.000000
# 4 0.000000 0.000000 0.000000 0.096245 0.000000 0.000000
# 5 0.000000 0.000000 0.000000 0.000000 0.072970 0.000000
# 6 0.000000 0.000000 0.000000 0.000000 0.000000 0.014591
#
#
# Mechanical properties :
#
#
# Convention : Reuss Voigt Hill
#
# Bulk Modulus (GPa) = 80.05502 87.44668 83.75085
# Shear Modulus (GPa) = 22.30717 39.29503 30.80110
#
# Velocity S-wave (km/s) = 2.87509 3.81591 3.37841
# Velocity P-wave (km/s) = 6.37862 7.19855 6.80095
#
# Compressibility (1/GPa) = 0.01249141
#
# Stress axis : x y z
#
# Youngs Moduli (GPa) = 148.09613 101.23170 129.83947
#
# Poissons Ratio (x) = 0.24057 0.33562
# Poissons Ratio (y) = 0.35193 0.12455
# Poissons Ratio (z) = 0.38281 0.09711
#
# Static dielectric constant tensor:
#      x y z
#    x 2.395560 0.000000 0.000000 
#    y 0.000000 2.161070 0.000000 
#    z 0.000000 0.000000 2.036130 
# 
# From -- ./inp_files/33153.got.cif
#   From: 2010.05.17/outbox.cif.g08.bks.cpg/sg73_17_cif.got.tgz:33153.got - 2010.06.03 17:35:07.
