data_PCOD9532252
_publ_section_title
;
Structure prediction by ZEFSAII (Michael W. Deem and Ramdas Pophale) SiO2 
 PCOD9532252
Probable space group: I B C A 
;
_chemical_formula_sum "Si O2"
_cell_formula_units_Z 104
_cell_length_a 26.105052
_cell_length_b 8.634386
_cell_length_c 21.262536
_cell_angle_alpha 90.000000
_cell_angle_beta 90.000000
_cell_angle_gamma 90.000000
_cell_volume 4792.598908
_symmetry_space_group_name_H-M "I B C A "
_symmetry_group_IT_number 73
_symmetry_cell_setting 'orthorhombic'
loop_
_space_group_symop_operation_xyz
x,y,z
-x,1/2-y,z
x,-y,1/2-z
1/2-x,y,-z
-x,-y,-z
x,1/2+y,-z
-x,y,1/2+z
1/2+x,-y,z
1/2+x,1/2+y,1/2+z
1/2-x,-y,1/2+z
1/2+x,1/2-y,-z
-x,1/2+y,1/2-z
1/2-x,1/2-y,1/2-z
1/2+x,y,1/2-z
1/2-x,1/2+y,z
x,1/2-y,1/2+z
loop_
_atom_site_type_symbol
_atom_site_label
_atom_site_fract_x
_atom_site_fract_y
_atom_site_fract_z
Si Si1 0.992250 0.073596 0.931705
Si Si2 0.159897 0.838913 0.284582
Si Si3 0.405834 0.489814 0.881699
Si Si4 0.687085 0.560823 0.454215
Si Si5 0.557589 0.677211 0.643761
Si Si6 0.285686 0.791312 0.583274
Si Si7 0.152178 0.500000 0.250000
O O1 0.000000 0.250000 0.946752
O O2 0.038058 0.054663 0.881707
O O3 0.947508 0.980987 0.895697
O O4 0.000000 0.000000 0.000000
O O5 0.097914 0.838208 0.298742
O O6 0.188254 0.833924 0.351595
O O7 0.176263 0.674146 0.252429
O O8 0.172328 0.000000 0.250000
O O9 0.370792 0.575043 0.931803
O O10 0.414825 0.309460 0.898389
O O11 0.379932 0.500576 0.814238
O O12 0.694041 0.599875 0.526939
O O13 0.703247 0.386065 0.435712
O O14 0.725018 0.675407 0.417005
O O15 0.500000 0.750000 0.657662
#
# Coordination Sequence:
#
# PCOD9532252 Si02
#       7
#    16  16  16  16  16  16   8
#     4  11  24  40  62 100 134 176 232 286 355 420
#     4  11  25  46  72 106 145 187 246 292 358 435
#     4  10  22  43  69  92 136 182 223 294 349 420
#     4  11  23  44  70  98 134 179 231 299 368 416
#     4   9  20  44  63  93 135 175 234 287 342 420
#     4  11  24  45  68 106 136 178 243 298 356 442
#     4  10  22  46  70  96 142 188 234 280 358 422
#
# _framework density 21.700126000000001
#
# number of rings (size 3 to 8) (size 9 to 14) (size 15 to 20)
#    0.000    1.538    3.077    3.231    4.308    3.692 
#   13.846    1.538    0.000    0.000    0.000    0.000 
#    0.000    0.000    0.000    0.000    0.000    0.000 
#
# Total GULP energy -289678.841595 kJ/mol
# GULP energy per Si atom -5570.746954 kJ/mol
# Density = 2.165074 g / cm^3
# Si number density = 21.700126 Si / 1000 Ang^3
#
#
#
# Elastic Constant Matrix: (Units=GPa)
#
#
# Indices 1 2 3 4 5 6 
#
# 1 39.9345 -5.5056 6.9882 0.0000 0.0000 0.0000
# 2 -5.5056 148.0322 47.3190 0.0000 0.0000 0.0000
# 3 6.9882 47.3190 61.0011 0.0000 0.0000 0.0000
# 4 0.0000 0.0000 0.0000 41.4849 0.0000 0.0000
# 5 0.0000 0.0000 0.0000 0.0000 8.6055 0.0000
# 6 0.0000 0.0000 0.0000 0.0000 0.0000 -20.2080
#
#
#
# Elastic Compliance Matrix: (Units=1/GPa)
#
#
# Indices 1 2 3 4 5 6 
#
# 1 0.026273 0.002579 -0.005010 0.000000 0.000000 0.000000
# 2 0.002579 0.009236 -0.007460 0.000000 0.000000 0.000000
# 3 -0.005010 -0.007460 0.022754 0.000000 0.000000 0.000000
# 4 0.000000 0.000000 0.000000 0.024105 0.000000 0.000000
# 5 0.000000 0.000000 0.000000 0.000000 0.116204 0.000000
# 6 0.000000 0.000000 0.000000 0.000000 0.000000 -0.049485
#
#
# Mechanical properties :
#
#
# Convention : Reuss Voigt Hill
#
# Bulk Modulus (GPa) = 25.98726 38.50789 32.24757
# Shear Modulus (GPa) = 27.51853 19.32089 23.41971
#
# Velocity S-wave (km/s) = 3.56494 2.98712 3.28875
# Velocity P-wave (km/s) = 5.38021 5.44805 5.41424
#
# Compressibility (1/GPa) = 0.03848040
#
# Stress axis : x y z
#
# Youngs Moduli (GPa) = 38.06148 108.27573 43.94917
#
# Poissons Ratio (x) = -0.27921 0.22019
# Poissons Ratio (y) = -0.09815 0.32784
# Poissons Ratio (z) = 0.19069 0.80769
#
# Static dielectric constant tensor:
#      x y z
#    x 1.843610 0.000000 0.000000 
#    y 0.000000 2.087890 0.000000 
#    z 0.000000 0.000000 1.740620 
# 
# From -- ./inp_files/27588.got.cif
#   From: 2010.05.17/outbox.cif.g08.bks.cpg/sg73_14_cif.got.tgz:27588.got - 2010.06.03 17:35:07.
