data_PCOD9532256
_publ_section_title
;
Structure prediction by ZEFSAII (Michael W. Deem and Ramdas Pophale) SiO2 
 PCOD9532256
Probable space group: I B C A 
;
_chemical_formula_sum "Si O2"
_cell_formula_units_Z 64
_cell_length_a 17.797311
_cell_length_b 8.117394
_cell_length_c 19.201389
_cell_angle_alpha 90.000000
_cell_angle_beta 90.000000
_cell_angle_gamma 90.000000
_cell_volume 2773.982148
_symmetry_space_group_name_H-M "I B C A "
_symmetry_group_IT_number 73
_symmetry_cell_setting 'orthorhombic'
loop_
_space_group_symop_operation_xyz
x,y,z
-x,1/2-y,z
x,-y,1/2-z
1/2-x,y,-z
-x,-y,-z
x,1/2+y,-z
-x,y,1/2+z
1/2+x,-y,z
1/2+x,1/2+y,1/2+z
1/2-x,-y,1/2+z
1/2+x,1/2-y,-z
-x,1/2+y,1/2-z
1/2-x,1/2-y,1/2-z
1/2+x,y,1/2-z
1/2-x,1/2+y,z
x,1/2-y,1/2+z
loop_
_atom_site_type_symbol
_atom_site_label
_atom_site_fract_x
_atom_site_fract_y
_atom_site_fract_z
Si Si1 0.381974 0.828186 0.905011
Si Si2 0.314917 0.348317 0.706421
Si Si3 0.082582 0.803620 0.453246
Si Si4 0.221452 0.556520 0.428396
O O1 0.380511 0.767149 0.825621
O O2 0.405961 0.013812 0.922908
O O3 0.293378 0.829787 0.919470
O O4 0.415836 0.701697 0.961579
O O5 0.347570 0.500000 0.750000
O O6 0.250000 0.250000 0.750000
O O7 0.280711 0.449370 0.641059
O O8 0.146475 0.668666 0.433623
O O9 0.000000 0.750000 0.431178
O O10 0.250000 0.468573 0.500000
#
# Coordination Sequence:
#
# PCOD9532256 Si02
#       4
#    16  16  16  16
#     4  11  22  41  68 109 148 184 249 307 365 439
#     4  12  25  42  67 108 148 190 242 312 380 431
#     4  11  24  44  75 114 151 190 240 312 386 440
#     4  10  22  43  70 111 140 182 251 314 364 435
#
# _framework density 23.071525000000001
#
# number of rings (size 3 to 8) (size 9 to 14) (size 15 to 20)
#    0.000    1.000    2.500    5.250    0.000    6.000 
#    4.500    0.000    0.000    4.500   26.000    0.000 
#    0.000    0.000    0.000    0.000    0.000    0.000 
#
# Total GULP energy -178351.113730 kJ/mol
# GULP energy per Si atom -5573.472304 kJ/mol
# Density = 2.301901 g / cm^3
# Si number density = 23.071525 Si / 1000 Ang^3
#
#
#
# Elastic Constant Matrix: (Units=GPa)
#
#
# Indices 1 2 3 4 5 6 
#
# 1 117.6274 62.7771 22.0149 0.0000 0.0000 0.0000
# 2 62.7771 184.1665 88.8668 0.0000 0.0000 0.0000
# 3 22.0149 88.8668 133.0952 0.0000 0.0000 0.0000
# 4 0.0000 0.0000 0.0000 62.3681 0.0000 0.0000
# 5 0.0000 0.0000 0.0000 0.0000 4.6318 0.0000
# 6 0.0000 0.0000 0.0000 0.0000 0.0000 17.9969
#
#
#
# Elastic Compliance Matrix: (Units=1/GPa)
#
#
# Indices 1 2 3 4 5 6 
#
# 1 0.010475 -0.004034 0.000961 0.000000 0.000000 0.000000
# 2 -0.004034 0.009565 -0.005719 0.000000 0.000000 0.000000
# 3 0.000961 -0.005719 0.011173 0.000000 0.000000 0.000000
# 4 0.000000 0.000000 0.000000 0.016034 0.000000 0.000000
# 5 0.000000 0.000000 0.000000 0.000000 0.215898 0.000000
# 6 0.000000 0.000000 0.000000 0.000000 0.000000 0.055565
#
#
# Mechanical properties :
#
#
# Convention : Reuss Voigt Hill
#
# Bulk Modulus (GPa) = 73.37872 86.91186 80.14529
# Shear Modulus (GPa) = 14.66980 34.41473 24.54227
#
# Velocity S-wave (km/s) = 2.52432 3.86638 3.26505
# Velocity P-wave (km/s) = 6.35376 7.59502 7.00195
#
# Compressibility (1/GPa) = 0.01362793
#
# Stress axis : x y z
#
# Youngs Moduli (GPa) = 95.46905 104.55209 89.50193
#
# Poissons Ratio (x) = 0.42179 -0.08602
# Poissons Ratio (y) = 0.38514 0.51186
# Poissons Ratio (z) = -0.09175 0.59793
#
# Static dielectric constant tensor:
#      x y z
#    x 1.900760 0.000000 0.000000 
#    y 0.000000 2.032200 0.000000 
#    z 0.000000 0.000000 2.260790 
# 
# From -- ./inp_files/26317.got.cif
#   From: 2010.05.17/outbox.cif.g08.bks.cpg/sg73_14_cif.got.tgz:26317.got - 2010.06.03 17:35:07.
