data_PCOD9532750
_publ_section_title
;
Structure prediction by ZEFSAII (Michael W. Deem and Ramdas Pophale) SiO2 
 PCOD9532750
Probable space group: I B C A 
;
_chemical_formula_sum "Si O2"
_cell_formula_units_Z 80
_cell_length_a 12.788137
_cell_length_b 14.532839
_cell_length_c 20.848203
_cell_angle_alpha 90.000000
_cell_angle_beta 90.000000
_cell_angle_gamma 90.000000
_cell_volume 3874.595500
_symmetry_space_group_name_H-M "I B C A "
_symmetry_group_IT_number 73
_symmetry_cell_setting 'orthorhombic'
loop_
_space_group_symop_operation_xyz
x,y,z
-x,1/2-y,z
x,-y,1/2-z
1/2-x,y,-z
-x,-y,-z
x,1/2+y,-z
-x,y,1/2+z
1/2+x,-y,z
1/2+x,1/2+y,1/2+z
1/2-x,-y,1/2+z
1/2+x,1/2-y,-z
-x,1/2+y,1/2-z
1/2-x,1/2-y,1/2-z
1/2+x,y,1/2-z
1/2-x,1/2+y,z
x,1/2-y,1/2+z
loop_
_atom_site_type_symbol
_atom_site_label
_atom_site_fract_x
_atom_site_fract_y
_atom_site_fract_z
Si Si1 0.500000 0.250000 0.382632
Si Si2 0.782626 0.677216 0.927016
Si Si3 0.389107 0.205887 0.147202
Si Si4 0.468824 0.122913 0.271689
Si Si5 0.684113 0.005610 0.645838
Si Si6 0.644210 0.000000 0.250000
O O1 0.397686 0.220757 0.420000
O O2 0.523641 0.169547 0.332225
O O3 0.703786 0.729135 0.878015
O O4 0.788203 0.569775 0.907449
O O5 0.750000 0.688682 0.000000
O O6 0.500000 0.250000 0.126593
O O7 0.401518 0.187778 0.224449
O O8 0.365679 0.101587 0.123086
O O9 0.394228 0.049219 0.306429
O O10 0.563695 0.080551 0.231085
O O11 0.784226 0.026158 0.690209
#
# Coordination Sequence:
#
# PCOD9532750 Si02
#       6
#     8  16  16  16  16   8
#     4  10  24  42  66 100 144 182 240 300 350 418
#     4  11  28  48  71 101 145 203 250 290 349 432
#     4  12  23  44  72 107 139 189 237 297 369 439
#     4  11  21  36  64 108 143 177 223 299 372 415
#     4  11  24  41  66 106 143 182 236 301 366 422
#     4  12  18  36  66 100 144 176 218 298 366 444
#
# _framework density 20.647317000000001
#
# number of rings (size 3 to 8) (size 9 to 14) (size 15 to 20)
#    0.000    0.800    5.000    2.400    1.400    2.400 
#    0.000    1.000    0.000    0.000    0.000    0.000 
#    0.000    0.000    0.000    0.000    0.000    0.000 
#
# Total GULP energy -223161.648122 kJ/mol
# GULP energy per Si atom -5579.041203 kJ/mol
# Density = 2.060032 g / cm^3
# Si number density = 20.647317 Si / 1000 Ang^3
#
#
#
# Elastic Constant Matrix: (Units=GPa)
#
#
# Indices 1 2 3 4 5 6 
#
# 1 133.5417 55.8395 49.8022 0.0000 0.0000 0.0000
# 2 55.8395 120.4854 44.2105 0.0000 0.0000 0.0000
# 3 49.8022 44.2105 84.7246 0.0000 0.0000 0.0000
# 4 0.0000 0.0000 0.0000 15.0852 0.0000 0.0000
# 5 0.0000 0.0000 0.0000 0.0000 19.2890 0.0000
# 6 0.0000 0.0000 0.0000 0.0000 0.0000 34.8139
#
#
#
# Elastic Compliance Matrix: (Units=1/GPa)
#
#
# Indices 1 2 3 4 5 6 
#
# 1 0.010513 -0.003222 -0.004499 0.000000 0.000000 0.000000
# 2 -0.003222 0.011253 -0.003978 0.000000 0.000000 0.000000
# 3 -0.004499 -0.003978 0.016523 0.000000 0.000000 0.000000
# 4 0.000000 0.000000 0.000000 0.066290 0.000000 0.000000
# 5 0.000000 0.000000 0.000000 0.000000 0.051843 0.000000
# 6 0.000000 0.000000 0.000000 0.000000 0.000000 0.028724
#
#
# Mechanical properties :
#
#
# Convention : Reuss Voigt Hill
#
# Bulk Modulus (GPa) = 67.14949 70.93957 69.04453
# Shear Modulus (GPa) = 23.41851 26.43094 24.92472
#
# Velocity S-wave (km/s) = 3.37147 3.58175 3.47820
# Velocity P-wave (km/s) = 6.91003 7.17897 7.04578
#
# Compressibility (1/GPa) = 0.01489215
#
# Stress axis : x y z
#
# Youngs Moduli (GPa) = 95.11951 88.86894 60.52136
#
# Poissons Ratio (x) = 0.28630 0.27226
# Poissons Ratio (y) = 0.30644 0.24075
# Poissons Ratio (z) = 0.42791 0.35352
#
# Static dielectric constant tensor:
#      x y z
#    x 1.731030 0.000000 0.000000 
#    y 0.000000 1.892430 0.000000 
#    z 0.000000 0.000000 1.690730 
# 
# From -- ./inp_files/28817.got.cif
#   From: 2010.05.17/outbox.cif.g08.bks.cpg/sg73_15_cif.got.tgz:28817.got - 2010.06.03 17:35:07.
