data_PCOD9532325
_publ_section_title
;
Structure prediction by ZEFSAII (Michael W. Deem and Ramdas Pophale) SiO2 
 PCOD9532325
Probable space group: I B C A 
;
_chemical_formula_sum "Si O2"
_cell_formula_units_Z 56
_cell_length_a 17.451842
_cell_length_b 13.685525
_cell_length_c 9.339013
_cell_angle_alpha 90.000000
_cell_angle_beta 90.000000
_cell_angle_gamma 90.000000
_cell_volume 2230.507638
_symmetry_space_group_name_H-M "I B C A "
_symmetry_group_IT_number 73
_symmetry_cell_setting 'orthorhombic'
loop_
_space_group_symop_operation_xyz
x,y,z
-x,1/2-y,z
x,-y,1/2-z
1/2-x,y,-z
-x,-y,-z
x,1/2+y,-z
-x,y,1/2+z
1/2+x,-y,z
1/2+x,1/2+y,1/2+z
1/2-x,-y,1/2+z
1/2+x,1/2-y,-z
-x,1/2+y,1/2-z
1/2-x,1/2-y,1/2-z
1/2+x,y,1/2-z
1/2-x,1/2+y,z
x,1/2-y,1/2+z
loop_
_atom_site_type_symbol
_atom_site_label
_atom_site_fract_x
_atom_site_fract_y
_atom_site_fract_z
Si Si1 0.109475 0.140579 0.505715
Si Si2 0.750000 0.219978 0.500000
Si Si3 0.653715 0.941384 0.104555
Si Si4 0.504975 0.614102 0.730988
O O1 0.177937 0.212933 0.466922
O O2 0.068163 0.163067 0.657089
O O3 0.145131 0.029705 0.509156
O O4 0.046021 0.144960 0.378375
O O5 0.718812 0.140065 0.388646
O O6 0.572243 0.887344 0.111502
O O7 0.660083 0.000000 0.250000
O O8 0.484549 0.500000 0.750000
#
# Coordination Sequence:
#
# PCOD9532325 Si02
#       4
#    16   8  16  16
#     4  10  22  44  73 104 138 183 239 293 351 416
#     4  12  24  42  72 106 144 184 224 292 366 426
#     4   9  21  43  68  98 136 183 237 287 343 416
#     4   9  19  43  72  98 136 188 240 293 344 409
#
# _framework density 25.106392
#
# number of rings (size 3 to 8) (size 9 to 14) (size 15 to 20)
#    0.000    2.857    0.000    4.286    0.000    5.714 
#    0.000   47.143    0.000    0.000    0.000    0.000 
#    0.000    0.000    0.000    0.000    0.000    0.000 
#
# Total GULP energy -156243.416482 kJ/mol
# GULP energy per Si atom -5580.122017 kJ/mol
# Density = 2.504925 g / cm^3
# Si number density = 25.106392 Si / 1000 Ang^3
#
#
#
# Elastic Constant Matrix: (Units=GPa)
#
#
# Indices 1 2 3 4 5 6 
#
# 1 144.2855 78.5645 66.3747 0.0000 0.0000 0.0000
# 2 78.5645 146.3026 32.2389 0.0000 0.0000 0.0000
# 3 66.3747 32.2389 67.0286 0.0000 0.0000 0.0000
# 4 0.0000 0.0000 0.0000 12.8751 0.0000 0.0000
# 5 0.0000 0.0000 0.0000 0.0000 13.5387 0.0000
# 6 0.0000 0.0000 0.0000 0.0000 0.0000 51.3990
#
#
#
# Elastic Compliance Matrix: (Units=1/GPa)
#
#
# Indices 1 2 3 4 5 6 
#
# 1 0.016148 -0.005758 -0.013221 0.000000 0.000000 0.000000
# 2 -0.005758 0.009699 0.001037 0.000000 0.000000 0.000000
# 3 -0.013221 0.001037 0.027512 0.000000 0.000000 0.000000
# 4 0.000000 0.000000 0.000000 0.077669 0.000000 0.000000
# 5 0.000000 0.000000 0.000000 0.000000 0.073862 0.000000
# 6 0.000000 0.000000 0.000000 0.000000 0.000000 0.019456
#
#
# Mechanical properties :
#
#
# Convention : Reuss Voigt Hill
#
# Bulk Modulus (GPa) = 57.22469 79.10810 68.16639
# Shear Modulus (GPa) = 18.79309 27.59179 23.19244
#
# Velocity S-wave (km/s) = 2.73891 3.31871 3.04265
# Velocity P-wave (km/s) = 5.73101 6.80166 6.28916
#
# Compressibility (1/GPa) = 0.01747497
#
# Stress axis : x y z
#
# Youngs Moduli (GPa) = 61.92711 103.10638 36.34752
#
# Poissons Ratio (x) = 0.59370 0.48055
# Poissons Ratio (y) = 0.35658 -0.03770
# Poissons Ratio (z) = 0.81874 -0.10694
#
# Static dielectric constant tensor:
#      x y z
#    x 2.075650 0.000000 0.000000 
#    y 0.000000 2.061020 0.000000 
#    z 0.000000 0.000000 2.034410 
# 
# From -- ./inp_files/11439.got.cif
#   From: 2010.05.17/outbox.cif.g08.bks.cpg/sg73_6_cif.got.tgz:11439.got - 2010.06.03 17:35:07.
