data_PCOD9532102
_publ_section_title
;
Structure prediction by ZEFSAII (Michael W. Deem and Ramdas Pophale) SiO2 
 PCOD9532102
Probable space group: I B C A 
;
_chemical_formula_sum "Si O2"
_cell_formula_units_Z 80
_cell_length_a 24.798333
_cell_length_b 17.792605
_cell_length_c 8.035936
_cell_angle_alpha 90.000000
_cell_angle_beta 90.000000
_cell_angle_gamma 90.000000
_cell_volume 3545.671481
_symmetry_space_group_name_H-M "I B C A "
_symmetry_group_IT_number 73
_symmetry_cell_setting 'orthorhombic'
loop_
_space_group_symop_operation_xyz
x,y,z
-x,1/2-y,z
x,-y,1/2-z
1/2-x,y,-z
-x,-y,-z
x,1/2+y,-z
-x,y,1/2+z
1/2+x,-y,z
1/2+x,1/2+y,1/2+z
1/2-x,-y,1/2+z
1/2+x,1/2-y,-z
-x,1/2+y,1/2-z
1/2-x,1/2-y,1/2-z
1/2+x,y,1/2-z
1/2-x,1/2+y,z
x,1/2-y,1/2+z
loop_
_atom_site_type_symbol
_atom_site_label
_atom_site_fract_x
_atom_site_fract_y
_atom_site_fract_z
Si Si1 0.086084 0.177657 0.773950
Si Si2 0.310884 0.912399 0.196033
Si Si3 0.080223 0.653734 0.841657
Si Si4 0.688177 0.413252 0.703109
Si Si5 0.982190 0.058475 0.137890
O O1 0.146999 0.147095 0.768895
O O2 0.075470 0.264341 0.738041
O O3 0.055313 0.130791 0.629849
O O4 0.067344 0.158980 0.961181
O O5 0.249633 0.891368 0.245384
O O6 0.319106 0.000000 0.250000
O O7 0.316925 0.907171 0.996222
O O8 0.140750 0.628680 0.799568
O O9 0.036716 0.592598 0.780307
O O10 0.682627 0.500000 0.750000
O O11 0.948663 0.000000 0.250000
O O12 0.000000 0.000000 0.000000
#
# Coordination Sequence:
#
# PCOD9532102 Si02
#       5
#    16  16  16  16  16
#     4  12  27  44  67  99 138 180 225 286 345 412
#     4  10  22  41  69 100 138 178 232 282 340 411
#     4  12  27  44  68  99 139 180 226 283 349 409
#     4  10  22  41  68 102 135 182 228 284 341 408
#     4  12  27  46  72 102 132 178 229 282 341 414
#
# _framework density 22.562721
#
# number of rings (size 3 to 8) (size 9 to 14) (size 15 to 20)
#    0.000    0.800    2.000    4.200    8.400    4.800 
#    0.000    0.000    0.000    0.000    0.000    0.000 
#    0.000    0.000    0.000    0.000    0.000    0.000 
#
# Total GULP energy -223381.027436 kJ/mol
# GULP energy per Si atom -5584.525686 kJ/mol
# Density = 2.251137 g / cm^3
# Si number density = 22.562721 Si / 1000 Ang^3
#
#
#
# Elastic Constant Matrix: (Units=GPa)
#
#
# Indices 1 2 3 4 5 6 
#
# 1 126.5893 57.4712 22.7721 0.0000 0.0000 0.0000
# 2 57.4712 130.0276 29.1762 0.0000 0.0000 0.0000
# 3 22.7721 29.1762 57.2885 0.0000 0.0000 0.0000
# 4 0.0000 0.0000 0.0000 40.4784 0.0000 0.0000
# 5 0.0000 0.0000 0.0000 0.0000 27.3625 0.0000
# 6 0.0000 0.0000 0.0000 0.0000 0.0000 7.9933
#
#
#
# Elastic Compliance Matrix: (Units=1/GPa)
#
#
# Indices 1 2 3 4 5 6 
#
# 1 0.010074 -0.004013 -0.001961 0.000000 0.000000 0.000000
# 2 -0.004013 0.010281 -0.003641 0.000000 0.000000 0.000000
# 3 -0.001961 -0.003641 0.020089 0.000000 0.000000 0.000000
# 4 0.000000 0.000000 0.000000 0.024705 0.000000 0.000000
# 5 0.000000 0.000000 0.000000 0.000000 0.036546 0.000000
# 6 0.000000 0.000000 0.000000 0.000000 0.000000 0.125105
#
#
# Mechanical properties :
#
#
# Convention : Reuss Voigt Hill
#
# Bulk Modulus (GPa) = 47.13542 59.19381 53.16461
# Shear Modulus (GPa) = 19.75491 28.79922 24.27707
#
# Velocity S-wave (km/s) = 2.96219 3.57656 3.28377
# Velocity P-wave (km/s) = 5.71276 6.58391 6.16374
#
# Compressibility (1/GPa) = 0.02121547
#
# Stress axis : x y z
#
# Youngs Moduli (GPa) = 99.26508 97.26448 49.77780
#
# Poissons Ratio (x) = 0.39029 0.09761
# Poissons Ratio (y) = 0.39832 0.18124
# Poissons Ratio (z) = 0.19464 0.35415
#
# Static dielectric constant tensor:
#      x y z
#    x 1.840280 0.000000 0.000000 
#    y 0.000000 1.802920 0.000000 
#    z 0.000000 0.000000 2.032550 
# 
# From -- ./inp_files/7696.got.cif
#   From: 2010.05.17/outbox.cif.g08.bks.cpg/sg73_4_cif.got.tgz:7696.got - 2010.06.03 17:35:07.
