data_PCOD9532317
_publ_section_title
;
Structure prediction by ZEFSAII (Michael W. Deem and Ramdas Pophale) SiO2 
 PCOD9532317
Probable space group: I B C A 
;
_chemical_formula_sum "Si O2"
_cell_formula_units_Z 56
_cell_length_a 9.461155
_cell_length_b 12.046175
_cell_length_c 19.057776
_cell_angle_alpha 90.000000
_cell_angle_beta 90.000000
_cell_angle_gamma 90.000000
_cell_volume 2172.028621
_symmetry_space_group_name_H-M "I B C A "
_symmetry_group_IT_number 73
_symmetry_cell_setting 'orthorhombic'
loop_
_space_group_symop_operation_xyz
x,y,z
-x,1/2-y,z
x,-y,1/2-z
1/2-x,y,-z
-x,-y,-z
x,1/2+y,-z
-x,y,1/2+z
1/2+x,-y,z
1/2+x,1/2+y,1/2+z
1/2-x,-y,1/2+z
1/2+x,1/2-y,-z
-x,1/2+y,1/2-z
1/2-x,1/2-y,1/2-z
1/2+x,y,1/2-z
1/2-x,1/2+y,z
x,1/2-y,1/2+z
loop_
_atom_site_type_symbol
_atom_site_label
_atom_site_fract_x
_atom_site_fract_y
_atom_site_fract_z
Si Si1 0.500000 0.250000 0.220297
Si Si2 0.017607 0.401905 0.148465
Si Si3 0.249194 0.766665 0.613046
Si Si4 0.380754 0.555369 0.954489
O O1 0.474710 0.145592 0.273003
O O2 0.642200 0.234793 0.175338
O O3 0.135073 0.329328 0.105784
O O4 0.069376 0.521957 0.124707
O O5 0.856570 0.371229 0.127411
O O6 0.147563 0.813197 0.552582
O O7 0.250000 0.512156 0.000000
O O8 0.500000 0.500000 0.000000
#
# Coordination Sequence:
#
# PCOD9532317 Si02
#       4
#     8  16  16  16
#     4  10  22  44  72 106 128 180 240 280 376 396
#     4  10  22  46  69  99 143 180 232 298 347 429
#     4  10  23  44  71 101 138 184 231 300 349 422
#     4  12  26  46  65 105 145 189 240 278 359 432
#
# _framework density 25.782349
#
# number of rings (size 3 to 8) (size 9 to 14) (size 15 to 20)
#    0.000    1.714    2.857    3.429    4.000    2.286 
#    0.000    8.571    0.000    0.000    0.000    0.000 
#    0.000    0.000    0.000    0.000    0.000    0.000 
#
# Total GULP energy -155975.733470 kJ/mol
# GULP energy per Si atom -5570.561910 kJ/mol
# Density = 2.572367 g / cm^3
# Si number density = 25.782349 Si / 1000 Ang^3
#
#
#
# Elastic Constant Matrix: (Units=GPa)
#
#
# Indices 1 2 3 4 5 6 
#
# 1 199.1144 30.6966 46.6787 0.0000 0.0000 0.0000
# 2 30.6966 39.5590 35.4978 0.0000 0.0000 0.0000
# 3 46.6787 35.4978 111.2207 0.0000 0.0000 0.0000
# 4 0.0000 0.0000 0.0000 32.0231 0.0000 0.0000
# 5 0.0000 0.0000 0.0000 0.0000 57.5434 0.0000
# 6 0.0000 0.0000 0.0000 0.0000 0.0000 39.9271
#
#
#
# Elastic Compliance Matrix: (Units=1/GPa)
#
#
# Indices 1 2 3 4 5 6 
#
# 1 0.005859 -0.003279 -0.001412 0.000000 0.000000 0.000000
# 2 -0.003279 0.037259 -0.010516 0.000000 0.000000 0.000000
# 3 -0.001412 -0.010516 0.012940 0.000000 0.000000 0.000000
# 4 0.000000 0.000000 0.000000 0.031227 0.000000 0.000000
# 5 0.000000 0.000000 0.000000 0.000000 0.017378 0.000000
# 6 0.000000 0.000000 0.000000 0.000000 0.000000 0.025046
#
#
# Mechanical properties :
#
#
# Convention : Reuss Voigt Hill
#
# Bulk Modulus (GPa) = 38.99523 63.96001 51.47762
# Shear Modulus (GPa) = 29.64343 41.70011 35.67177
#
# Velocity S-wave (km/s) = 3.39448 4.02604 3.72368
# Velocity P-wave (km/s) = 5.52458 6.81715 6.20462
#
# Compressibility (1/GPa) = 0.02564417
#
# Stress axis : x y z
#
# Youngs Moduli (GPa) = 170.68213 26.83907 77.27878
#
# Poissons Ratio (x) = 0.08800 0.10915
# Poissons Ratio (y) = 0.55964 0.81264
# Poissons Ratio (z) = 0.24108 0.28223
#
# Static dielectric constant tensor:
#      x y z
#    x 2.562670 0.000000 0.000000 
#    y 0.000000 2.083610 0.000000 
#    z 0.000000 0.000000 2.233120 
# 
# From -- ./inp_files/18385.got.cif
#   From: 2010.05.17/outbox.cif.g08.bks.cpg/sg73_10_cif.got.tgz:18385.got - 2010.06.03 17:35:07.
