data_PCOD9532177
_publ_section_title
;
Structure prediction by ZEFSAII (Michael W. Deem and Ramdas Pophale) SiO2 
 PCOD9532177
Probable space group: I B C A 
;
_chemical_formula_sum "Si O2"
_cell_formula_units_Z 64
_cell_length_a 27.092927
_cell_length_b 9.225924
_cell_length_c 11.337873
_cell_angle_alpha 90.000000
_cell_angle_beta 90.000000
_cell_angle_gamma 90.000000
_cell_volume 2833.983958
_symmetry_space_group_name_H-M "I B C A "
_symmetry_group_IT_number 73
_symmetry_cell_setting 'orthorhombic'
loop_
_space_group_symop_operation_xyz
x,y,z
-x,1/2-y,z
x,-y,1/2-z
1/2-x,y,-z
-x,-y,-z
x,1/2+y,-z
-x,y,1/2+z
1/2+x,-y,z
1/2+x,1/2+y,1/2+z
1/2-x,-y,1/2+z
1/2+x,1/2-y,-z
-x,1/2+y,1/2-z
1/2-x,1/2-y,1/2-z
1/2+x,y,1/2-z
1/2-x,1/2+y,z
x,1/2-y,1/2+z
loop_
_atom_site_type_symbol
_atom_site_label
_atom_site_fract_x
_atom_site_fract_y
_atom_site_fract_z
Si Si1 0.000000 0.750000 0.007026
Si Si2 0.065781 0.507951 0.931985
Si Si3 0.142354 0.496755 0.388369
Si Si4 0.846818 0.000000 0.750000
Si Si5 0.696076 0.794814 0.443981
O O1 0.026673 0.634510 0.923112
O O2 0.039359 0.851119 0.078787
O O3 0.113191 0.540585 0.850811
O O4 0.087433 0.525101 0.063719
O O5 0.143175 0.500000 0.250000
O O6 0.179579 0.369090 0.425028
O O7 0.160472 0.638705 0.456468
O O8 0.813252 0.116690 0.821051
O O9 0.750000 0.806208 0.500000
#
# Coordination Sequence:
#
# PCOD9532177 Si02
#       5
#     8  16  16   8  16
#     4  10  22  42  68  96 144 176 246 292 342 452
#     4  10  22  44  63 105 136 187 236 292 364 419
#     4  11  26  45  73 101 148 195 238 308 371 431
#     4  10  24  42  76  96 152 186 236 310 356 424
#     4  11  26  46  71 107 143 190 252 300 363 442
#
# _framework density 22.58305
#
# number of rings (size 3 to 8) (size 9 to 14) (size 15 to 20)
#    0.000    1.500    0.000    3.750   12.250    2.000 
#    9.000    0.000    0.000    0.000    0.000    0.000 
#    0.000    0.000    0.000    0.000    0.000    0.000 
#
# Total GULP energy -178623.097684 kJ/mol
# GULP energy per Si atom -5581.971803 kJ/mol
# Density = 2.253165 g / cm^3
# Si number density = 22.583050 Si / 1000 Ang^3
#
#
#
# Elastic Constant Matrix: (Units=GPa)
#
#
# Indices 1 2 3 4 5 6 
#
# 1 106.6515 41.9729 26.0734 0.0000 0.0000 0.0000
# 2 41.9729 105.3471 37.9391 0.0000 0.0000 0.0000
# 3 26.0734 37.9391 122.6176 0.0000 0.0000 0.0000
# 4 0.0000 0.0000 0.0000 7.1579 0.0000 0.0000
# 5 0.0000 0.0000 0.0000 0.0000 19.4565 0.0000
# 6 0.0000 0.0000 0.0000 0.0000 0.0000 -35.5450
#
#
#
# Elastic Compliance Matrix: (Units=1/GPa)
#
#
# Indices 1 2 3 4 5 6 
#
# 1 0.011258 -0.004078 -0.001132 0.000000 0.000000 0.000000
# 2 -0.004078 0.012160 -0.002895 0.000000 0.000000 0.000000
# 3 -0.001132 -0.002895 0.009292 0.000000 0.000000 0.000000
# 4 0.000000 0.000000 0.000000 0.139706 0.000000 0.000000
# 5 0.000000 0.000000 0.000000 0.000000 0.051397 0.000000
# 6 0.000000 0.000000 0.000000 0.000000 0.000000 -0.028133
#
#
# Mechanical properties :
#
#
# Convention : Reuss Voigt Hill
#
# Bulk Modulus (GPa) = 60.60839 60.73188 60.67013
# Shear Modulus (GPa) = 23.00020 13.45593 18.22807
#
# Velocity S-wave (km/s) = 3.19481 2.44364 2.84413
# Velocity P-wave (km/s) = 6.36438 5.90871 6.14078
#
# Compressibility (1/GPa) = 0.01649937
#
# Stress axis : x y z
#
# Youngs Moduli (GPa) = 88.82647 82.23843 107.61936
#
# Poissons Ratio (x) = 0.33534 0.12185
# Poissons Ratio (y) = 0.36221 0.31159
# Poissons Ratio (z) = 0.10057 0.23810
#
# Static dielectric constant tensor:
#      x y z
#    x 1.939870 0.000000 0.000000 
#    y 0.000000 1.959820 0.000000 
#    z 0.000000 0.000000 1.880460 
# 
# From -- ./inp_files/4022.got.cif
#   From: 2010.05.17/outbox.cif.g08.bks.cpg/sg73_3_cif.got.tgz:4022.got - 2010.06.03 17:35:07.
