data_PCOD9532343
_publ_section_title
;
Structure prediction by ZEFSAII (Michael W. Deem and Ramdas Pophale) SiO2 
 PCOD9532343
Probable space group: I B C A 
;
_chemical_formula_sum "Si O2"
_cell_formula_units_Z 80
_cell_length_a 16.796951
_cell_length_b 8.882931
_cell_length_c 23.085670
_cell_angle_alpha 90.000000
_cell_angle_beta 90.000000
_cell_angle_gamma 90.000000
_cell_volume 3444.524097
_symmetry_space_group_name_H-M "I B C A "
_symmetry_group_IT_number 73
_symmetry_cell_setting 'orthorhombic'
loop_
_space_group_symop_operation_xyz
x,y,z
-x,1/2-y,z
x,-y,1/2-z
1/2-x,y,-z
-x,-y,-z
x,1/2+y,-z
-x,y,1/2+z
1/2+x,-y,z
1/2+x,1/2+y,1/2+z
1/2-x,-y,1/2+z
1/2+x,1/2-y,-z
-x,1/2+y,1/2-z
1/2-x,1/2-y,1/2-z
1/2+x,y,1/2-z
1/2-x,1/2+y,z
x,1/2-y,1/2+z
loop_
_atom_site_type_symbol
_atom_site_label
_atom_site_fract_x
_atom_site_fract_y
_atom_site_fract_z
Si Si1 0.000000 0.250000 0.221444
Si Si2 0.731867 0.612622 0.707384
Si Si3 0.750000 0.598944 0.500000
Si Si4 0.361587 0.654032 0.448101
Si Si5 0.500000 0.750000 0.032129
Si Si6 0.404229 0.428448 0.370342
Si Si7 0.879969 0.000000 0.250000
O O1 0.961643 0.379050 0.181104
O O2 0.068629 0.348201 0.251011
O O3 0.683522 0.500000 0.750000
O O4 0.750000 0.750000 0.750000
O O5 0.680079 0.640527 0.650997
O O6 0.815524 0.524604 0.697805
O O7 0.694503 0.703031 0.459341
O O8 0.692432 0.488560 0.534829
O O9 0.436663 0.667837 0.490858
O O10 0.391732 0.604624 0.384649
O O11 0.447080 0.645412 0.074064
#
# Coordination Sequence:
#
# PCOD9532343 Si02
#       7
#     8  16   8  16   8  16   8
#     4  11  24  44  71 112 140 195 236 310 377 438
#     4  10  22  45  69 103 134 192 235 309 358 435
#     4  10  24  42  70  98 148 200 244 308 350 448
#     4  11  23  46  69 106 150 197 250 306 373 440
#     4  11  24  46  75 108 152 197 236 330 365 446
#     4  11  23  42  75 101 147 192 249 293 380 440
#     4  10  24  44  74  98 156 182 244 314 370 428
#
# _framework density 23.225269999999998
#
# number of rings (size 3 to 8) (size 9 to 14) (size 15 to 20)
#    0.600    0.800    4.000    0.600    1.400    3.200 
#    3.600    3.000    0.000    0.000    0.000    0.000 
#    0.000    0.000    0.000    0.000    0.000    0.000 
#
# Total GULP energy -222915.211715 kJ/mol
# GULP energy per Si atom -5572.880293 kJ/mol
# Density = 2.317241 g / cm^3
# Si number density = 23.225270 Si / 1000 Ang^3
#
#
#
# Elastic Constant Matrix: (Units=GPa)
#
#
# Indices 1 2 3 4 5 6 
#
# 1 153.5265 36.9378 51.4012 0.0000 0.0000 0.0000
# 2 36.9378 95.6431 24.0933 0.0000 0.0000 0.0000
# 3 51.4012 24.0933 56.6318 0.0000 0.0000 0.0000
# 4 0.0000 0.0000 0.0000 22.4713 0.0000 0.0000
# 5 0.0000 0.0000 0.0000 0.0000 30.7539 0.0000
# 6 0.0000 0.0000 0.0000 0.0000 0.0000 54.9951
#
#
#
# Elastic Compliance Matrix: (Units=1/GPa)
#
#
# Indices 1 2 3 4 5 6 
#
# 1 0.009596 -0.001693 -0.007989 0.000000 0.000000 0.000000
# 2 -0.001693 0.012009 -0.003572 0.000000 0.000000 0.000000
# 3 -0.007989 -0.003572 0.026429 0.000000 0.000000 0.000000
# 4 0.000000 0.000000 0.000000 0.044501 0.000000 0.000000
# 5 0.000000 0.000000 0.000000 0.000000 0.032516 0.000000
# 6 0.000000 0.000000 0.000000 0.000000 0.000000 0.018183
#
#
# Mechanical properties :
#
#
# Convention : Reuss Voigt Hill
#
# Bulk Modulus (GPa) = 46.45838 58.96286 52.71062
# Shear Modulus (GPa) = 28.26154 34.53535 31.39844
#
# Velocity S-wave (km/s) = 3.49211 3.86031 3.68082
# Velocity P-wave (km/s) = 6.02550 6.73141 6.38821
#
# Compressibility (1/GPa) = 0.02152464
#
# Stress axis : x y z
#
# Youngs Moduli (GPa) = 104.21333 83.26795 37.83747
#
# Poissons Ratio (x) = 0.14101 0.30228
# Poissons Ratio (y) = 0.17648 0.13517
# Poissons Ratio (z) = 0.83256 0.29745
#
# Static dielectric constant tensor:
#      x y z
#    x 1.975820 0.000000 0.000000 
#    y 0.000000 1.963180 0.000000 
#    z 0.000000 0.000000 1.975830 
# 
# From -- ./inp_files/32340.got.cif
#   From: 2010.05.17/outbox.cif.g08.bks.cpg/sg73_17_cif.got.tgz:32340.got - 2010.06.03 17:35:07.
