data_PCOD9532603
_publ_section_title
;
Structure prediction by ZEFSAII (Michael W. Deem and Ramdas Pophale) SiO2 
 PCOD9532603
Probable space group: I B C A 
;
_chemical_formula_sum "Si O2"
_cell_formula_units_Z 112
_cell_length_a 11.181688
_cell_length_b 27.844887
_cell_length_c 14.762317
_cell_angle_alpha 90.000000
_cell_angle_beta 90.000000
_cell_angle_gamma 90.000000
_cell_volume 4596.289306
_symmetry_space_group_name_H-M "I B C A "
_symmetry_group_IT_number 73
_symmetry_cell_setting 'orthorhombic'
loop_
_space_group_symop_operation_xyz
x,y,z
-x,1/2-y,z
x,-y,1/2-z
1/2-x,y,-z
-x,-y,-z
x,1/2+y,-z
-x,y,1/2+z
1/2+x,-y,z
1/2+x,1/2+y,1/2+z
1/2-x,-y,1/2+z
1/2+x,1/2-y,-z
-x,1/2+y,1/2-z
1/2-x,1/2-y,1/2-z
1/2+x,y,1/2-z
1/2-x,1/2+y,z
x,1/2-y,1/2+z
loop_
_atom_site_type_symbol
_atom_site_label
_atom_site_fract_x
_atom_site_fract_y
_atom_site_fract_z
Si Si1 0.870475 0.760340 0.951352
Si Si2 0.729187 0.103179 0.604249
Si Si3 0.635744 0.848756 0.554208
Si Si4 0.124399 0.972705 0.153554
Si Si5 0.559766 0.654314 0.682863
Si Si6 0.622579 0.500645 0.140813
Si Si7 0.983628 0.633898 0.131074
O O1 0.834327 0.706475 0.921391
O O2 0.905002 0.798724 0.874678
O O3 0.000000 0.750000 0.000189
O O4 0.750000 0.778039 0.000000
O O5 0.750000 0.113549 0.500000
O O6 0.847455 0.112535 0.659569
O O7 0.677046 0.050122 0.610839
O O8 0.625006 0.135915 0.643194
O O9 0.750000 0.868949 0.500000
O O10 0.567495 0.865727 0.644336
O O11 0.540883 0.853456 0.472383
O O12 0.067312 0.919542 0.152313
O O13 0.015575 0.003827 0.106607
O O14 0.140626 0.000000 0.250000
O O15 0.261278 0.966951 0.117588
O O16 0.567735 0.665769 0.788543
O O17 0.607964 0.500000 0.250000
#
# Coordination Sequence:
#
# PCOD9532603 Si02
#       7
#    16  16  16  16  16  16  16
#     4   9  20  40  67  91 132 175 213 276 340 393
#     4  11  22  41  67  97 132 173 230 277 329 405
#     4  10  23  45  61  96 141 167 214 285 340 399
#     4   9  18  37  59  90 125 169 215 268 329 385
#     4  11  22  40  70  96 129 175 228 270 334 406
#     4   9  18  35  59  85 125 170 212 265 326 390
#     4  11  24  41  69  99 128 178 228 275 336 402
#
# _framework density 24.367484000000001
#
# number of rings (size 3 to 8) (size 9 to 14) (size 15 to 20)
#    0.000    2.000    1.429    2.143    4.000    0.000 
#    2.571   12.857    0.000    0.000    0.000    0.000 
#    0.000    0.000    0.000    0.000    0.000    0.000 
#
# Total GULP energy -311957.608112 kJ/mol
# GULP energy per Si atom -5570.671573 kJ/mol
# Density = 2.431202 g / cm^3
# Si number density = 24.367484 Si / 1000 Ang^3
#
#
#
# Elastic Constant Matrix: (Units=GPa)
#
#
# Indices 1 2 3 4 5 6 
#
# 1 109.6692 -10.9034 -15.0788 0.0000 0.0000 0.0000
# 2 -10.9034 55.6948 8.3625 0.0000 0.0000 0.0000
# 3 -15.0788 8.3625 87.2432 -0.0001 0.0000 -0.0003
# 4 0.0000 0.0000 -0.0001 15.7768 0.0000 -0.0001
# 5 0.0000 0.0000 0.0000 0.0000 15.6519 0.0000
# 6 0.0000 0.0000 -0.0003 -0.0001 0.0000 30.7505
#
#
#
# Elastic Compliance Matrix: (Units=1/GPa)
#
#
# Indices 1 2 3 4 5 6 
#
# 1 0.009485 0.001634 0.001483 0.000000 0.000000 0.000000
# 2 0.001634 0.018499 -0.001491 0.000000 0.000000 0.000000
# 3 0.001483 -0.001491 0.011861 0.000000 0.000000 0.000000
# 4 0.000000 0.000000 0.000000 0.063384 0.000000 0.000000
# 5 0.000000 0.000000 0.000000 0.000000 0.063890 0.000000
# 6 0.000000 0.000000 0.000000 0.000000 0.000000 0.032520
#
#
# Mechanical properties :
#
#
# Convention : Reuss Voigt Hill
#
# Bulk Modulus (GPa) = 23.20347 24.15200 23.67773
# Shear Modulus (GPa) = 23.72456 30.45097 27.08776
#
# Velocity S-wave (km/s) = 3.12367 3.53888 3.33774
# Velocity P-wave (km/s) = 4.74897 5.16056 4.95903
#
# Compressibility (1/GPa) = 0.04309701
#
# Stress axis : x y z
#
# Youngs Moduli (GPa) = 105.43344 54.05770 84.30742
#
# Poissons Ratio (x) = -0.08834 -0.12500
# Poissons Ratio (y) = -0.17230 0.12568
# Poissons Ratio (z) = -0.15632 0.08058
#
# Static dielectric constant tensor:
#      x y z
#    x 2.137970 0.000000 0.000000 
#    y 0.000000 2.003900 0.000000 
#    z 0.000000 0.000000 2.494750 
# 
# From -- ./inp_files/16361.got.cif
#   From: 2010.05.17/outbox.cif.g08.bks.cpg/sg73_9_cif.got.tgz:16361.got - 2010.06.03 17:35:07.
