data_PCOD9532171
_publ_section_title
;
Structure prediction by ZEFSAII (Michael W. Deem and Ramdas Pophale) SiO2 
 PCOD9532171
Probable space group: I B C A 
;
_chemical_formula_sum "Si O2"
_cell_formula_units_Z 80
_cell_length_a 9.811881
_cell_length_b 20.596301
_cell_length_c 16.450408
_cell_angle_alpha 90.000000
_cell_angle_beta 90.000000
_cell_angle_gamma 90.000000
_cell_volume 3324.437528
_symmetry_space_group_name_H-M "I B C A "
_symmetry_group_IT_number 73
_symmetry_cell_setting 'orthorhombic'
loop_
_space_group_symop_operation_xyz
x,y,z
-x,1/2-y,z
x,-y,1/2-z
1/2-x,y,-z
-x,-y,-z
x,1/2+y,-z
-x,y,1/2+z
1/2+x,-y,z
1/2+x,1/2+y,1/2+z
1/2-x,-y,1/2+z
1/2+x,1/2-y,-z
-x,1/2+y,1/2-z
1/2-x,1/2-y,1/2-z
1/2+x,y,1/2-z
1/2-x,1/2+y,z
x,1/2-y,1/2+z
loop_
_atom_site_type_symbol
_atom_site_label
_atom_site_fract_x
_atom_site_fract_y
_atom_site_fract_z
Si Si1 0.026815 0.112694 0.968957
Si Si2 0.037973 0.500000 0.750000
Si Si3 0.178331 0.897830 0.164395
Si Si4 0.629803 0.020648 0.912839
Si Si5 0.750000 0.781068 0.000000
Si Si6 0.341841 0.275382 0.826104
O O1 0.930399 0.082083 0.038204
O O2 0.117859 0.049253 0.952566
O O3 0.942118 0.133308 0.888376
O O4 0.118238 0.173000 0.992384
O O5 0.945594 0.490999 0.671799
O O6 0.218167 0.458859 0.892401
O O7 0.124918 0.933932 0.243469
O O8 0.307085 0.852177 0.179080
O O9 0.219886 0.756289 0.915153
O O10 0.500000 0.250000 0.820151
O O11 0.250000 0.250000 0.750000
#
# Coordination Sequence:
#
# PCOD9532171 Si02
#       6
#    16   8  16  16   8  16
#     4  10  25  42  76 107 147 195 256 325 390 474
#     4  10  24  40  72 114 150 200 244 328 412 460
#     4  11  25  45  75 105 157 190 264 318 396 470
#     4  10  22  42  68 111 145 191 248 317 399 457
#     4  12  30  50  82 110 162 210 276 318 408 464
#     4  12  33  53  82 114 159 216 271 327 395 485
#
# _framework density 24.064221
#
# number of rings (size 3 to 8) (size 9 to 14) (size 15 to 20)
#    0.000    1.200    0.000    2.400   22.400    1.600 
#    0.000    0.000    0.000    0.000    0.000    0.000 
#    0.000    0.000    0.000    0.000    0.000    0.000 
#
# Total GULP energy -223423.691408 kJ/mol
# GULP energy per Si atom -5585.592285 kJ/mol
# Density = 2.400945 g / cm^3
# Si number density = 24.064221 Si / 1000 Ang^3
#
#
#
# Elastic Constant Matrix: (Units=GPa)
#
#
# Indices 1 2 3 4 5 6 
#
# 1 98.7355 35.7081 44.2277 0.0001 0.0000 0.0000
# 2 35.7081 78.5362 28.0728 -0.0004 -0.0001 0.0000
# 3 44.2277 28.0728 120.0841 -0.0012 -0.0003 0.0000
# 4 0.0001 -0.0004 -0.0012 -208.2791 0.0052 0.0007
# 5 0.0000 -0.0001 -0.0003 0.0052 342.6117 0.0003
# 6 0.0000 0.0000 0.0000 0.0007 0.0003 17.6214
#
#
#
# Elastic Compliance Matrix: (Units=1/GPa)
#
#
# Indices 1 2 3 4 5 6 
#
# 1 0.013605 -0.004795 -0.003890 0.000000 0.000000 0.000000
# 2 -0.004795 0.015584 -0.001877 0.000000 0.000000 0.000000
# 3 -0.003890 -0.001877 0.010199 0.000000 0.000000 0.000000
# 4 0.000000 0.000000 0.000000 -0.004801 0.000000 0.000000
# 5 0.000000 0.000000 0.000000 0.000000 0.002919 0.000000
# 6 0.000000 0.000000 0.000000 0.000000 0.000000 0.056749
#
#
# Mechanical properties :
#
#
# Convention : Reuss Voigt Hill
#
# Bulk Modulus (GPa) = 54.75335 57.04146 55.89741
# Shear Modulus (GPa) = 41.16361 43.01393 42.08877
#
# Velocity S-wave (km/s) = 4.14039 4.23243 4.18666
# Velocity P-wave (km/s) = 6.75719 6.90217 6.83006
#
# Compressibility (1/GPa) = 0.01826372
#
# Stress axis : x y z
#
# Youngs Moduli (GPa) = 73.50437 64.16752 98.04979
#
# Poissons Ratio (x) = 0.30770 0.38138
# Poissons Ratio (y) = 0.35247 0.18405
# Poissons Ratio (z) = 0.28591 0.12045
#
# Static dielectric constant tensor:
#      x y z
#    x 1.950700 0.000000 0.000000 
#    y 0.000000 1.947030 0.000000 
#    z 0.000000 0.000000 2.107310 
# 
# From -- ./inp_files/24764.got.cif
#   From: 2010.05.17/outbox.cif.g08.bks.cpg/sg73_13_cif.got.tgz:24764.got - 2010.06.03 17:35:07.
