data_PCOD9532193
_publ_section_title
;
Structure prediction by ZEFSAII (Michael W. Deem and Ramdas Pophale) SiO2 
 PCOD9532193
Probable space group: I B C A 
;
_chemical_formula_sum "Si O2"
_cell_formula_units_Z 104
_cell_length_a 8.276145
_cell_length_b 26.112048
_cell_length_c 19.729899
_cell_angle_alpha 90.000000
_cell_angle_beta 90.000000
_cell_angle_gamma 90.000000
_cell_volume 4263.771167
_symmetry_space_group_name_H-M "I B C A "
_symmetry_group_IT_number 73
_symmetry_cell_setting 'orthorhombic'
loop_
_space_group_symop_operation_xyz
x,y,z
-x,1/2-y,z
x,-y,1/2-z
1/2-x,y,-z
-x,-y,-z
x,1/2+y,-z
-x,y,1/2+z
1/2+x,-y,z
1/2+x,1/2+y,1/2+z
1/2-x,-y,1/2+z
1/2+x,1/2-y,-z
-x,1/2+y,1/2-z
1/2-x,1/2-y,1/2-z
1/2+x,y,1/2-z
1/2-x,1/2+y,z
x,1/2-y,1/2+z
loop_
_atom_site_type_symbol
_atom_site_label
_atom_site_fract_x
_atom_site_fract_y
_atom_site_fract_z
Si Si1 0.931247 0.625383 0.192404
Si Si2 0.013614 0.437835 0.090950
Si Si3 0.360044 0.444215 0.769595
Si Si4 0.852238 0.786387 0.799144
Si Si5 0.813063 0.769750 0.069114
Si Si6 0.250000 0.009113 0.000000
Si Si7 0.779239 0.656778 0.924555
O O1 0.788319 0.584548 0.197868
O O2 0.914122 0.666995 0.252564
O O3 0.881521 0.649145 0.120907
O O4 0.086301 0.591683 0.207586
O O5 0.006402 0.450742 0.170825
O O6 0.151156 0.472075 0.052036
O O7 0.067537 0.377896 0.094948
O O8 0.859728 0.454326 0.047250
O O9 0.311583 0.500000 0.750000
O O10 0.750000 0.750000 0.750000
O O11 0.736763 0.799600 0.862581
O O12 0.000000 0.750000 0.819379
O O13 0.705138 0.717636 0.073331
O O14 0.000000 0.750000 0.066606
O O15 0.750000 0.795751 0.000000
O O16 0.750000 0.638880 0.000000
#
# Coordination Sequence:
#
# PCOD9532193 Si02
#       7
#    16  16  16  16  16   8  16
#     4  11  25  42  69 102 135 184 232 282 355 416
#     4  10  23  42  67  99 135 186 237 292 355 419
#     4  11  26  43  66  98 139 178 233 294 346 415
#     4  12  24  43  72 101 143 183 237 292 349 434
#     4  11  25  47  73 102 140 184 230 293 365 423
#     4  10  22  42  70  96 134 190 240 292 356 424
#     4  10  22  43  71  94 141 181 227 288 351 419
#
# _framework density 24.391552000000001
#
# number of rings (size 3 to 8) (size 9 to 14) (size 15 to 20)
#    0.000    1.231    2.308    2.308   10.769    0.000 
#    0.000    0.000    0.000    0.000    0.000    0.000 
#    0.000    0.000    0.000    0.000    0.000    0.000 
#
# Total GULP energy -290519.669856 kJ/mol
# GULP energy per Si atom -5586.916728 kJ/mol
# Density = 2.433604 g / cm^3
# Si number density = 24.391552 Si / 1000 Ang^3
#
#
#
# Elastic Constant Matrix: (Units=GPa)
#
#
# Indices 1 2 3 4 5 6 
#
# 1 69.8486 5.0215 17.2811 0.0000 0.0000 0.0000
# 2 5.0215 98.8842 5.0790 0.0000 0.0000 0.0000
# 3 17.2811 5.0790 133.9833 -0.0002 0.0000 0.0000
# 4 0.0000 0.0000 -0.0002 7.5199 0.0000 0.0000
# 5 0.0000 0.0000 0.0000 0.0000 30.3871 0.0000
# 6 0.0000 0.0000 0.0000 0.0000 0.0000 24.6692
#
#
#
# Elastic Compliance Matrix: (Units=1/GPa)
#
#
# Indices 1 2 3 4 5 6 
#
# 1 0.014831 -0.000656 -0.001888 0.000000 0.000000 0.000000
# 2 -0.000656 0.010162 -0.000301 0.000000 0.000000 0.000000
# 3 -0.001888 -0.000301 0.007719 0.000000 0.000000 0.000000
# 4 0.000000 0.000000 0.000000 0.132981 0.000000 0.000000
# 5 0.000000 0.000000 0.000000 0.000000 0.032909 0.000000
# 6 0.000000 0.000000 0.000000 0.000000 0.000000 0.040536
#
#
# Mechanical properties :
#
#
# Convention : Reuss Voigt Hill
#
# Bulk Modulus (GPa) = 37.00746 39.71993 38.36370
# Shear Modulus (GPa) = 19.69795 30.87086 25.28440
#
# Velocity S-wave (km/s) = 2.84486 3.56144 3.22313
# Velocity P-wave (km/s) = 5.09865 5.76467 5.44186
#
# Compressibility (1/GPa) = 0.02702158
#
# Stress axis : x y z
#
# Youngs Moduli (GPa) = 67.42653 98.40972 129.55845
#
# Poissons Ratio (x) = 0.06457 0.24461
# Poissons Ratio (y) = 0.04424 0.03894
# Poissons Ratio (z) = 0.12730 0.02958
#
# Static dielectric constant tensor:
#      x y z
#    x 1.824080 0.000000 0.000000 
#    y 0.000000 1.879190 0.000000 
#    z 0.000000 0.000000 2.190180 
# 
# From -- ./inp_files/24956.got.cif
#   From: 2010.05.17/outbox.cif.g08.bks.cpg/sg73_13_cif.got.tgz:24956.got - 2010.06.03 17:35:07.
