data_PCOD9532635
_publ_section_title
;
Structure prediction by ZEFSAII (Michael W. Deem and Ramdas Pophale) SiO2 
 PCOD9532635
Probable space group: I B C A 
;
_chemical_formula_sum "Si O2"
_cell_formula_units_Z 56
_cell_length_a 8.424132
_cell_length_b 12.960122
_cell_length_c 19.000816
_cell_angle_alpha 90.000000
_cell_angle_beta 90.000000
_cell_angle_gamma 90.000000
_cell_volume 2074.466880
_symmetry_space_group_name_H-M "I B C A "
_symmetry_group_IT_number 73
_symmetry_cell_setting 'orthorhombic'
loop_
_space_group_symop_operation_xyz
x,y,z
-x,1/2-y,z
x,-y,1/2-z
1/2-x,y,-z
-x,-y,-z
x,1/2+y,-z
-x,y,1/2+z
1/2+x,-y,z
1/2+x,1/2+y,1/2+z
1/2-x,-y,1/2+z
1/2+x,1/2-y,-z
-x,1/2+y,1/2-z
1/2-x,1/2-y,1/2-z
1/2+x,y,1/2-z
1/2-x,1/2+y,z
x,1/2-y,1/2+z
loop_
_atom_site_type_symbol
_atom_site_label
_atom_site_fract_x
_atom_site_fract_y
_atom_site_fract_z
Si Si1 0.542086 0.137385 0.173615
Si Si2 0.663639 0.455753 0.394016
Si Si3 0.637583 0.142447 0.440060
Si Si4 0.000000 0.750000 0.312252
O O1 0.500000 0.250000 0.139620
O O2 0.724856 0.109830 0.158177
O O3 0.498811 0.157719 0.254947
O O4 0.443687 0.040627 0.145683
O O5 0.550753 0.386835 0.445090
O O6 0.784874 0.531096 0.431542
O O7 0.750000 0.191673 0.500000
O O8 0.630456 0.204255 0.366657
#
# Coordination Sequence:
#
# PCOD9532635 Si02
#       4
#    16  16  16   8
#     4   9  23  45  73 124 160 199 271 346 439 497
#     4  10  23  45  79 110 161 210 261 347 422 498
#     4  11  25  46  69 109 153 215 273 324 401 504
#     4  10  26  44  74 114 164 210 270 346 420 494
#
# _framework density 26.994886999999999
#
# number of rings (size 3 to 8) (size 9 to 14) (size 15 to 20)
#    0.857    1.143    0.000    0.857    4.000   11.429 
#    2.571    1.429    0.000    6.857    0.000    0.000 
#    0.000    0.000    0.000    0.000    0.000    0.000 
#
# Total GULP energy -155968.362280 kJ/mol
# GULP energy per Si atom -5570.298653 kJ/mol
# Density = 2.693345 g / cm^3
# Si number density = 26.994887 Si / 1000 Ang^3
#
#
#
# Elastic Constant Matrix: (Units=GPa)
#
#
# Indices 1 2 3 4 5 6 
#
# 1 189.9117 61.0354 64.4600 0.0000 0.0000 0.0000
# 2 61.0354 122.8976 42.0657 0.0000 0.0000 0.0000
# 3 64.4600 42.0657 119.0349 0.0000 0.0000 0.0000
# 4 0.0000 0.0000 0.0000 53.1377 0.0000 0.0000
# 5 0.0000 0.0000 0.0000 0.0000 40.3253 0.0000
# 6 0.0000 0.0000 0.0000 0.0000 0.0000 67.5018
#
#
#
# Elastic Compliance Matrix: (Units=1/GPa)
#
#
# Indices 1 2 3 4 5 6 
#
# 1 0.007069 -0.002503 -0.002943 0.000000 0.000000 0.000000
# 2 -0.002503 0.010143 -0.002229 0.000000 0.000000 0.000000
# 3 -0.002943 -0.002229 0.010783 0.000000 0.000000 0.000000
# 4 0.000000 0.000000 0.000000 0.018819 0.000000 0.000000
# 5 0.000000 0.000000 0.000000 0.000000 0.024798 0.000000
# 6 0.000000 0.000000 0.000000 0.000000 0.000000 0.014814
#
#
# Mechanical properties :
#
#
# Convention : Reuss Voigt Hill
#
# Bulk Modulus (GPa) = 79.09240 85.21849 82.15545
# Shear Modulus (GPa) = 47.17325 49.81183 48.49254
#
# Velocity S-wave (km/s) = 4.18483 4.30028 4.24295
# Velocity P-wave (km/s) = 7.26038 7.50289 7.38263
#
# Compressibility (1/GPa) = 0.01264344
#
# Stress axis : x y z
#
# Youngs Moduli (GPa) = 141.45824 98.59034 92.74282
#
# Poissons Ratio (x) = 0.24680 0.27299
# Poissons Ratio (y) = 0.35412 0.20671
# Poissons Ratio (z) = 0.41638 0.21974
#
# Static dielectric constant tensor:
#      x y z
#    x 2.225360 0.000000 0.000000 
#    y 0.000000 2.171300 0.000000 
#    z 0.000000 0.000000 2.121910 
# 
# From -- ./inp_files/20515.got.cif
#   From: 2010.05.17/outbox.cif.g08.bks.cpg/sg73_11_cif.got.tgz:20515.got - 2010.06.03 17:35:07.
