data_PCOD9532083
_publ_section_title
;
Structure prediction by ZEFSAII (Michael W. Deem and Ramdas Pophale) SiO2 
 PCOD9532083
Probable space group: I B C A 
;
_chemical_formula_sum "Si O2"
_cell_formula_units_Z 120
_cell_length_a 30.108800
_cell_length_b 16.112177
_cell_length_c 11.380760
_cell_angle_alpha 90.000000
_cell_angle_beta 90.000000
_cell_angle_gamma 90.000000
_cell_volume 5521.015113
_symmetry_space_group_name_H-M "I B C A "
_symmetry_group_IT_number 73
_symmetry_cell_setting 'orthorhombic'
loop_
_space_group_symop_operation_xyz
x,y,z
-x,1/2-y,z
x,-y,1/2-z
1/2-x,y,-z
-x,-y,-z
x,1/2+y,-z
-x,y,1/2+z
1/2+x,-y,z
1/2+x,1/2+y,1/2+z
1/2-x,-y,1/2+z
1/2+x,1/2-y,-z
-x,1/2+y,1/2-z
1/2-x,1/2-y,1/2-z
1/2+x,y,1/2-z
1/2-x,1/2+y,z
x,1/2-y,1/2+z
loop_
_atom_site_type_symbol
_atom_site_label
_atom_site_fract_x
_atom_site_fract_y
_atom_site_fract_z
Si Si1 0.877420 0.095632 0.724236
Si Si2 0.250000 0.782577 0.500000
Si Si3 0.982171 0.597278 0.266008
Si Si4 0.476777 0.410147 0.002865
Si Si5 0.623388 0.121791 0.016755
Si Si6 0.290575 0.635636 0.786925
Si Si7 0.206836 0.479929 0.076299
Si Si8 0.663796 0.744404 0.615648
O O1 0.929973 0.097752 0.699260
O O2 0.871838 0.142868 0.847287
O O3 0.848967 0.148789 0.632623
O O4 0.864388 0.000000 0.750000
O O5 0.245741 0.828466 0.625005
O O6 0.297204 0.740344 0.519495
O O7 0.994776 0.500000 0.250000
O O8 0.008449 0.631634 0.379380
O O9 0.987188 0.630885 0.131435
O O10 0.500000 0.500000 0.000000
O O11 0.423729 0.422943 0.002998
O O12 0.665330 0.065262 0.982433
O O13 0.623317 0.202472 0.934879
O O14 0.312521 0.563190 0.864309
O O15 0.274128 0.583612 0.674781
O O16 0.319738 0.708924 0.733142
O O17 0.250000 0.501043 0.000000
#
# Coordination Sequence:
#
# PCOD9532083 Si02
#       8
#    16   8  16  16  16  16  16  16
#     4  10  22  41  69  96 127 178 237 282 344 419
#     4  12  24  40  62  88 124 182 228 274 354 402
#     4   8  16  34  60  95 128 164 220 275 339 407
#     4   9  17  37  62  98 131 171 223 278 344 417
#     4  10  23  41  67  99 136 177 226 285 347 410
#     4  10  23  41  60  91 129 173 227 271 347 406
#     4  10  22  41  65  96 135 170 226 285 329 412
#     4  11  25  42  62  93 137 181 228 288 347 415
#
# _framework density 21.735133000000001
#
# number of rings (size 3 to 8) (size 9 to 14) (size 15 to 20)
#    0.000    2.133    0.667    2.000    7.467    0.000 
#   14.400    2.000    0.000    3.200    0.000    0.000 
#    0.000    0.000    0.000    0.000    0.000    0.000 
#
# Total GULP energy -334199.247186 kJ/mol
# GULP energy per Si atom -5569.987453 kJ/mol
# Density = 2.168566 g / cm^3
# Si number density = 21.735133 Si / 1000 Ang^3
#
#
#
# Elastic Constant Matrix: (Units=GPa)
#
#
# Indices 1 2 3 4 5 6 
#
# 1 81.0874 25.3816 44.2140 0.0000 0.0000 0.0000
# 2 25.3816 69.1502 10.7745 0.0000 0.0000 0.0000
# 3 44.2140 10.7745 124.0262 0.0000 0.0000 0.0000
# 4 0.0000 0.0000 0.0000 1.3641 0.0000 0.0000
# 5 0.0000 0.0000 0.0000 0.0000 34.1859 0.0000
# 6 0.0000 0.0000 0.0000 0.0000 0.0000 18.5920
#
#
#
# Elastic Compliance Matrix: (Units=1/GPa)
#
#
# Indices 1 2 3 4 5 6 
#
# 1 0.017087 -0.005396 -0.005623 0.000000 0.000000 0.000000
# 2 -0.005396 0.016364 0.000502 0.000000 0.000000 0.000000
# 3 -0.005623 0.000502 0.010024 0.000000 0.000000 0.000000
# 4 0.000000 0.000000 0.000000 0.733081 0.000000 0.000000
# 5 0.000000 0.000000 0.000000 0.000000 0.029252 0.000000
# 6 0.000000 0.000000 0.000000 0.000000 0.000000 0.053786
#
#
# Mechanical properties :
#
#
# Convention : Reuss Voigt Hill
#
# Bulk Modulus (GPa) = 44.56030 48.33377 46.44704
# Shear Modulus (GPa) = 5.62995 23.75466 14.69231
#
# Velocity S-wave (km/s) = 1.61117 3.30951 2.60276
# Velocity P-wave (km/s) = 4.89971 6.07369 5.51801
#
# Compressibility (1/GPa) = 0.02244150
#
# Stress axis : x y z
#
# Youngs Moduli (GPa) = 58.52345 61.11134 99.76439
#
# Poissons Ratio (x) = 0.32974 0.56094
# Poissons Ratio (y) = 0.31578 -0.05008
# Poissons Ratio (z) = 0.32906 -0.03068
#
# Static dielectric constant tensor:
#      x y z
#    x 1.780640 0.000000 0.000000 
#    y 0.000000 1.851060 0.000000 
#    z 0.000000 0.000000 0.070220 
# 
# From -- ./inp_files/14370.got.cif
#   From: 2010.05.17/outbox.cif.g08.bks.cpg/sg73_8_cif.got.tgz:14370.got - 2010.06.03 17:35:07.
