data_PCOD9532355
_publ_section_title
;
Structure prediction by ZEFSAII (Michael W. Deem and Ramdas Pophale) SiO2 
 PCOD9532355
Probable space group: I B C A 
;
_chemical_formula_sum "Si O2"
_cell_formula_units_Z 112
_cell_length_a 10.975306
_cell_length_b 14.309118
_cell_length_c 33.828379
_cell_angle_alpha 90.000000
_cell_angle_beta 90.000000
_cell_angle_gamma 90.000000
_cell_volume 5312.643699
_symmetry_space_group_name_H-M "I B C A "
_symmetry_group_IT_number 73
_symmetry_cell_setting 'orthorhombic'
loop_
_space_group_symop_operation_xyz
x,y,z
-x,1/2-y,z
x,-y,1/2-z
1/2-x,y,-z
-x,-y,-z
x,1/2+y,-z
-x,y,1/2+z
1/2+x,-y,z
1/2+x,1/2+y,1/2+z
1/2-x,-y,1/2+z
1/2+x,1/2-y,-z
-x,1/2+y,1/2-z
1/2-x,1/2-y,1/2-z
1/2+x,y,1/2-z
1/2-x,1/2+y,z
x,1/2-y,1/2+z
loop_
_atom_site_type_symbol
_atom_site_label
_atom_site_fract_x
_atom_site_fract_y
_atom_site_fract_z
Si Si1 0.591854 0.411162 0.538536
Si Si2 0.867505 0.054147 0.048354
Si Si3 0.116577 0.087787 0.636955
Si Si4 0.331490 0.919151 0.805187
Si Si5 0.797759 0.126806 0.720038
Si Si6 0.500000 0.750000 0.688184
Si Si7 0.000000 0.750000 0.592355
Si Si8 0.076232 0.124947 0.838800
O O1 0.467244 0.470146 0.545767
O O2 0.603354 0.389527 0.491794
O O3 0.720256 0.465330 0.547632
O O4 0.578824 0.319451 0.565294
O O5 0.888295 0.102804 0.090271
O O6 0.251480 0.088932 0.655624
O O7 0.043780 0.166028 0.660311
O O8 0.072639 0.982693 0.646610
O O9 0.263382 0.883975 0.765863
O O10 0.453583 0.863232 0.813647
O O11 0.355338 0.027666 0.794330
O O12 0.893848 0.208020 0.714655
O O13 0.687035 0.141444 0.690444
O O14 0.919868 0.688184 0.622399
#
# Coordination Sequence:
#
# PCOD9532355 Si02
#       8
#    16  16  16  16  16   8   8  16
#     4  10  23  44  74 104 141 183 230 288 349 430
#     4  10  22  45  72 103 141 184 226 284 358 410
#     4  11  24  43  70  98 140 174 226 288 343 409
#     4  10  23  45  68  92 134 186 228 282 342 409
#     4  10  25  42  67  94 136 181 229 285 347 398
#     4  12  26  42  64 108 132 172 232 292 344 408
#     4  12  24  44  72 106 136 182 240 276 344 426
#     4  11  24  43  67  99 131 187 225 285 342 405
#
# _framework density 21.081780999999999
#
# number of rings (size 3 to 8) (size 9 to 14) (size 15 to 20)
#    0.000    1.429    2.857    0.857    6.000    2.857 
#    0.000    5.714    0.000    0.000    0.000    0.000 
#    0.000    0.000    0.000    0.000    0.000    0.000 
#
# Total GULP energy -312749.913160 kJ/mol
# GULP energy per Si atom -5584.819878 kJ/mol
# Density = 2.103380 g / cm^3
# Si number density = 21.081781 Si / 1000 Ang^3
#
#
#
# Elastic Constant Matrix: (Units=GPa)
#
#
# Indices 1 2 3 4 5 6 
#
# 1 80.2399 47.6504 39.8981 0.0000 0.0000 0.0000
# 2 47.6504 104.8120 43.7489 0.0000 0.0000 0.0000
# 3 39.8981 43.7489 138.5798 0.0000 0.0000 0.0000
# 4 0.0000 0.0000 0.0000 38.7744 0.0000 0.0000
# 5 0.0000 0.0000 0.0000 0.0000 22.9526 0.0000
# 6 0.0000 0.0000 0.0000 0.0000 0.0000 27.0546
#
#
#
# Elastic Compliance Matrix: (Units=1/GPa)
#
#
# Indices 1 2 3 4 5 6 
#
# 1 0.018100 -0.006972 -0.003010 0.000000 0.000000 0.000000
# 2 -0.006972 0.013675 -0.002310 0.000000 0.000000 0.000000
# 3 -0.003010 -0.002310 0.008812 0.000000 0.000000 0.000000
# 4 0.000000 0.000000 0.000000 0.025790 0.000000 0.000000
# 5 0.000000 0.000000 0.000000 0.000000 0.043568 0.000000
# 6 0.000000 0.000000 0.000000 0.000000 0.000000 0.036962
#
#
# Mechanical properties :
#
#
# Convention : Reuss Voigt Hill
#
# Bulk Modulus (GPa) = 62.49019 65.13628 63.81323
# Shear Modulus (GPa) = 28.27660 30.57862 29.42761
#
# Velocity S-wave (km/s) = 3.66632 3.81264 3.74020
# Velocity P-wave (km/s) = 6.90136 7.09547 6.99909
#
# Compressibility (1/GPa) = 0.01600251
#
# Stress axis : x y z
#
# Youngs Moduli (GPa) = 55.24940 73.12754 113.48431
#
# Poissons Ratio (x) = 0.50987 0.34158
# Poissons Ratio (y) = 0.38521 0.26211
# Poissons Ratio (z) = 0.16630 0.16890
#
# Static dielectric constant tensor:
#      x y z
#    x 1.792340 0.000000 0.000000 
#    y 0.000000 1.784530 0.000000 
#    z 0.000000 0.000000 1.738620 
# 
# From -- ./inp_files/34078.got.cif
#   From: 2010.05.17/outbox.cif.g08.bks.cpg/sg73_18_cif.got.tgz:34078.got - 2010.06.03 17:35:07.
