data_PCOD9532085
_publ_section_title
;
Structure prediction by ZEFSAII (Michael W. Deem and Ramdas Pophale) SiO2 
 PCOD9532085
Probable space group: I B C A 
;
_chemical_formula_sum "Si O2"
_cell_formula_units_Z 120
_cell_length_a 25.058397
_cell_length_b 9.933000
_cell_length_c 21.666427
_cell_angle_alpha 90.000000
_cell_angle_beta 90.000000
_cell_angle_gamma 90.000000
_cell_volume 5392.883256
_symmetry_space_group_name_H-M "I B C A "
_symmetry_group_IT_number 73
_symmetry_cell_setting 'orthorhombic'
loop_
_space_group_symop_operation_xyz
x,y,z
-x,1/2-y,z
x,-y,1/2-z
1/2-x,y,-z
-x,-y,-z
x,1/2+y,-z
-x,y,1/2+z
1/2+x,-y,z
1/2+x,1/2+y,1/2+z
1/2-x,-y,1/2+z
1/2+x,1/2-y,-z
-x,1/2+y,1/2-z
1/2-x,1/2-y,1/2-z
1/2+x,y,1/2-z
1/2-x,1/2+y,z
x,1/2-y,1/2+z
loop_
_atom_site_type_symbol
_atom_site_label
_atom_site_fract_x
_atom_site_fract_y
_atom_site_fract_z
Si Si1 0.844887 0.237355 0.241896
Si Si2 0.906565 0.500000 0.750000
Si Si3 0.411710 0.535306 0.958215
Si Si4 0.716045 0.204127 0.872893
Si Si5 0.810126 0.390303 0.873150
Si Si6 0.448708 0.659538 0.190640
Si Si7 0.895622 0.260467 0.064623
Si Si8 0.987518 0.405673 0.850553
O O1 0.870262 0.101753 0.212623
O O2 0.796671 0.267138 0.195632
O O3 0.828593 0.183707 0.309097
O O4 0.896076 0.334881 0.234384
O O5 0.941653 0.425542 0.799684
O O6 0.361447 0.585147 0.916397
O O7 0.407174 0.377638 0.970139
O O8 0.464181 0.554714 0.916794
O O9 0.409390 0.617274 0.020682
O O10 0.768062 0.279971 0.898078
O O11 0.665589 0.249690 0.913611
O O12 0.717682 0.039999 0.868379
O O13 0.500000 0.750000 0.211596
O O14 0.430288 0.726999 0.126546
O O15 0.467978 0.509785 0.173727
O O16 0.000000 0.250000 0.853055
#
# Coordination Sequence:
#
# PCOD9532085 Si02
#       8
#    16   8  16  16  16  16  16  16
#     4  11  20  40  70  92 132 177 217 275 337 410
#     4  12  20  40  64  88 134 174 210 266 334 396
#     4  11  24  45  67  95 135 176 229 285 347 409
#     4  10  22  41  65  97 131 175 225 279 346 410
#     4  11  22  42  68  98 133 175 225 277 351 408
#     4  11  22  43  68  94 131 179 224 266 342 415
#     4  10  24  43  68  96 128 178 226 286 341 403
#     4  12  27  41  64 101 133 177 225 277 339 410
#
# _framework density 22.251548
#
# number of rings (size 3 to 8) (size 9 to 14) (size 15 to 20)
#    0.000    1.067    5.333    1.200    3.733    2.667 
#    2.400    4.000    0.000    0.000    0.000    0.000 
#    0.000    0.000    0.000    0.000    0.000    0.000 
#
# Total GULP energy -335109.585164 kJ/mol
# GULP energy per Si atom -5585.159753 kJ/mol
# Density = 2.220090 g / cm^3
# Si number density = 22.251548 Si / 1000 Ang^3
#
#
#
# Elastic Constant Matrix: (Units=GPa)
#
#
# Indices 1 2 3 4 5 6 
#
# 1 67.5542 35.1272 -3.9457 0.0000 0.0000 0.0000
# 2 35.1272 105.2255 -1.7943 0.0000 0.0000 0.0000
# 3 -3.9457 -1.7943 46.3452 0.0000 0.0000 0.0000
# 4 0.0000 0.0000 0.0000 32.1438 0.0000 0.0000
# 5 0.0000 0.0000 0.0000 0.0000 10.6468 0.0000
# 6 0.0000 0.0000 0.0000 0.0000 0.0000 35.5329
#
#
#
# Elastic Compliance Matrix: (Units=1/GPa)
#
#
# Indices 1 2 3 4 5 6 
#
# 1 0.017990 -0.005983 0.001300 0.000000 0.000000 0.000000
# 2 -0.005983 0.011500 -0.000064 0.000000 0.000000 0.000000
# 3 0.001300 -0.000064 0.021685 0.000000 0.000000 0.000000
# 4 0.000000 0.000000 0.000000 0.031110 0.000000 0.000000
# 5 0.000000 0.000000 0.000000 0.000000 0.093925 0.000000
# 6 0.000000 0.000000 0.000000 0.000000 0.000000 0.028143
#
#
# Mechanical properties :
#
#
# Convention : Reuss Voigt Hill
#
# Bulk Modulus (GPa) = 23.99234 30.87771 27.43502
# Shear Modulus (GPa) = 21.95467 28.31387 25.13427
#
# Velocity S-wave (km/s) = 3.14452 3.57100 3.36453
# Velocity P-wave (km/s) = 4.89793 5.55964 5.23924
#
# Compressibility (1/GPa) = 0.04167997
#
# Stress axis : x y z
#
# Youngs Moduli (GPa) = 55.58590 86.95843 46.11399
#
# Poissons Ratio (x) = 0.52031 -0.05995
# Poissons Ratio (y) = 0.33260 0.00296
# Poissons Ratio (z) = -0.07226 0.00558
#
# Static dielectric constant tensor:
#      x y z
#    x 1.880220 0.000000 0.000000 
#    y 0.000000 1.838850 0.000000 
#    z 0.000000 0.000000 1.831410 
# 
# From -- ./inp_files/30541.got.cif
#   From: 2010.05.17/outbox.cif.g08.bks.cpg/sg73_16_cif.got.tgz:30541.got - 2010.06.03 17:35:07.
