data_PCOD9532035
_publ_section_title
;
Structure prediction by ZEFSAII (Michael W. Deem and Ramdas Pophale) SiO2 
 PCOD9532035
Probable space group: I B C A 
;
_chemical_formula_sum "Si O2"
_cell_formula_units_Z 56
_cell_length_a 17.473947
_cell_length_b 9.970934
_cell_length_c 14.048337
_cell_angle_alpha 90.000000
_cell_angle_beta 90.000000
_cell_angle_gamma 90.000000
_cell_volume 2447.663843
_symmetry_space_group_name_H-M "I B C A "
_symmetry_group_IT_number 73
_symmetry_cell_setting 'orthorhombic'
loop_
_space_group_symop_operation_xyz
x,y,z
-x,1/2-y,z
x,-y,1/2-z
1/2-x,y,-z
-x,-y,-z
x,1/2+y,-z
-x,y,1/2+z
1/2+x,-y,z
1/2+x,1/2+y,1/2+z
1/2-x,-y,1/2+z
1/2+x,1/2-y,-z
-x,1/2+y,1/2-z
1/2-x,1/2-y,1/2-z
1/2+x,y,1/2-z
1/2-x,1/2+y,z
x,1/2-y,1/2+z
loop_
_atom_site_type_symbol
_atom_site_label
_atom_site_fract_x
_atom_site_fract_y
_atom_site_fract_z
Si Si1 0.204777 0.364963 0.195289
Si Si2 0.556403 0.594114 0.101369
Si Si3 0.596624 0.352101 0.983128
Si Si4 0.250000 0.493675 0.000000
O O1 0.221646 0.500000 0.250000
O O2 0.250000 0.250000 0.250000
O O3 0.111957 0.356087 0.185186
O O4 0.231013 0.397709 0.088274
O O5 0.572487 0.440295 0.074437
O O6 0.465225 0.610729 0.099490
O O7 0.584746 0.692254 0.013858
O O8 0.681227 0.407635 0.967635
#
# Coordination Sequence:
#
# PCOD9532035 Si02
#       4
#    16  16  16   8
#     4  11  24  41  63  95 130 172 226 278 337 406
#     4   9  19  36  58  88 127 165 212 266 324 397
#     4   9  18  35  60  89 123 168 212 262 331 393
#     4  10  22  40  68  96 132 174 224 284 340 406
#
# _framework density 22.878958999999998
#
# number of rings (size 3 to 8) (size 9 to 14) (size 15 to 20)
#    0.000    2.286    0.000    1.714    0.000   14.857 
#    0.000    7.143    0.000    6.857    0.000    0.000 
#    0.000    0.000    0.000    0.000    0.000    0.000 
#
# Total GULP energy -155939.984444 kJ/mol
# GULP energy per Si atom -5569.285159 kJ/mol
# Density = 2.282689 g / cm^3
# Si number density = 22.878959 Si / 1000 Ang^3
#
#
#
# Elastic Constant Matrix: (Units=GPa)
#
#
# Indices 1 2 3 4 5 6 
#
# 1 177.8863 48.4033 45.4864 0.0000 0.0000 0.0000
# 2 48.4033 142.2893 48.2858 0.0000 0.0000 0.0000
# 3 45.4864 48.2858 99.4625 0.0000 0.0000 0.0000
# 4 0.0000 0.0000 0.0000 27.0365 0.0000 0.0000
# 5 0.0000 0.0000 0.0000 0.0000 43.3373 0.0000
# 6 0.0000 0.0000 0.0000 0.0000 0.0000 36.3594
#
#
#
# Elastic Compliance Matrix: (Units=1/GPa)
#
#
# Indices 1 2 3 4 5 6 
#
# 1 0.006611 -0.001464 -0.002313 0.000000 0.000000 0.000000
# 2 -0.001464 0.008738 -0.003573 0.000000 0.000000 0.000000
# 3 -0.002313 -0.003573 0.012846 0.000000 0.000000 0.000000
# 4 0.000000 0.000000 0.000000 0.036987 0.000000 0.000000
# 5 0.000000 0.000000 0.000000 0.000000 0.023075 0.000000
# 6 0.000000 0.000000 0.000000 0.000000 0.000000 0.027503
#
#
# Mechanical properties :
#
#
# Convention : Reuss Voigt Hill
#
# Bulk Modulus (GPa) = 74.09153 78.22101 76.15627
# Shear Modulus (GPa) = 37.04834 39.84413 38.44623
#
# Velocity S-wave (km/s) = 4.02844 4.17768 4.10374
# Velocity P-wave (km/s) = 7.35474 7.58511 7.47082
#
# Compressibility (1/GPa) = 0.01349682
#
# Stress axis : x y z
#
# Youngs Moduli (GPa) = 151.25510 114.43770 77.84491
#
# Poissons Ratio (x) = 0.16756 0.18003
# Poissons Ratio (y) = 0.22147 0.27811
# Poissons Ratio (z) = 0.34981 0.40884
#
# Static dielectric constant tensor:
#      x y z
#    x 1.995390 0.000000 0.000000 
#    y 0.000000 1.861450 0.000000 
#    z 0.000000 0.000000 1.735880 
# 
# From -- ./inp_files/17576.got.cif
#   From: 2010.05.17/outbox.cif.g08.bks.cpg/sg73_9_cif.got.tgz:17576.got - 2010.06.03 17:35:07.
