data_PCOD9532110
_publ_section_title
;
Structure prediction by ZEFSAII (Michael W. Deem and Ramdas Pophale) SiO2 
 PCOD9532110
Probable space group: I B C A 
;
_chemical_formula_sum "Si O2"
_cell_formula_units_Z 88
_cell_length_a 10.622693
_cell_length_b 24.855161
_cell_length_c 16.216620
_cell_angle_alpha 90.000000
_cell_angle_beta 90.000000
_cell_angle_gamma 90.000000
_cell_volume 4281.653823
_symmetry_space_group_name_H-M "I B C A "
_symmetry_group_IT_number 73
_symmetry_cell_setting 'orthorhombic'
loop_
_space_group_symop_operation_xyz
x,y,z
-x,1/2-y,z
x,-y,1/2-z
1/2-x,y,-z
-x,-y,-z
x,1/2+y,-z
-x,y,1/2+z
1/2+x,-y,z
1/2+x,1/2+y,1/2+z
1/2-x,-y,1/2+z
1/2+x,1/2-y,-z
-x,1/2+y,1/2-z
1/2-x,1/2-y,1/2-z
1/2+x,y,1/2-z
1/2-x,1/2+y,z
x,1/2-y,1/2+z
loop_
_atom_site_type_symbol
_atom_site_label
_atom_site_fract_x
_atom_site_fract_y
_atom_site_fract_z
Si Si1 0.930131 0.116562 0.647649
Si Si2 0.366040 0.000000 0.250000
Si Si3 0.357124 0.234278 0.815825
Si Si4 0.551397 0.005036 0.408251
Si Si5 0.669968 0.915631 0.307116
Si Si6 0.689389 0.664287 0.088033
O O1 0.853481 0.172050 0.656483
O O2 0.941384 0.097036 0.743005
O O3 0.059827 0.132577 0.603766
O O4 0.883042 0.063385 0.600890
O O5 0.446944 0.997735 0.165460
O O6 0.274444 0.051784 0.255391
O O7 0.500000 0.250000 0.785981
O O8 0.250000 0.250000 0.750000
O O9 0.335528 0.273523 0.893343
O O10 0.638145 0.955196 0.382330
O O11 0.500000 0.000000 0.500000
O O12 0.718411 0.860270 0.343561
O O13 0.750000 0.655555 0.000000
#
# Coordination Sequence:
#
# PCOD9532110 Si02
#       6
#    16   8  16  16  16  16
#     4  11  21  42  65  96 132 175 231 282 344 430
#     4  12  22  40  60  92 134 180 216 282 350 410
#     4  10  22  41  69  96 129 177 233 288 350 423
#     4  12  24  39  62  97 139 180 232 283 347 424
#     4  12  21  39  67  93 134 179 225 280 347 421
#     4  11  23  41  68  95 132 178 227 285 355 416
#
# _framework density 20.552804999999999
#
# number of rings (size 3 to 8) (size 9 to 14) (size 15 to 20)
#    0.000    0.727    7.273    1.091    0.000    0.000 
#    0.000    4.545    0.000    0.000    0.000    0.000 
#    0.000    0.000    0.000    0.000    0.000    0.000 
#
# Total GULP energy -245429.576336 kJ/mol
# GULP energy per Si atom -5577.944917 kJ/mol
# Density = 2.050603 g / cm^3
# Si number density = 20.552805 Si / 1000 Ang^3
#
#
#
# Elastic Constant Matrix: (Units=GPa)
#
#
# Indices 1 2 3 4 5 6 
#
# 1 74.3163 16.5156 40.7468 0.0000 0.0000 0.0000
# 2 16.5156 154.3469 42.0374 0.0000 0.0000 0.0000
# 3 40.7468 42.0374 111.9397 -0.0001 0.0000 0.0000
# 4 0.0000 0.0000 -0.0001 24.6123 0.0000 0.0000
# 5 0.0000 0.0000 0.0000 0.0000 8.0389 0.0000
# 6 0.0000 0.0000 0.0000 0.0000 0.0000 24.1789
#
#
#
# Elastic Compliance Matrix: (Units=1/GPa)
#
#
# Indices 1 2 3 4 5 6 
#
# 1 0.016814 -0.000147 -0.006065 0.000000 0.000000 0.000000
# 2 -0.000147 0.007218 -0.002657 0.000000 0.000000 0.000000
# 3 -0.006065 -0.002657 0.012139 0.000000 0.000000 0.000000
# 4 0.000000 0.000000 0.000000 0.040630 0.000000 0.000000
# 5 0.000000 0.000000 0.000000 0.000000 0.124396 0.000000
# 6 0.000000 0.000000 0.000000 0.000000 0.000000 0.041358
#
#
# Mechanical properties :
#
#
# Convention : Reuss Voigt Hill
#
# Bulk Modulus (GPa) = 54.25239 59.91137 57.08188
# Shear Modulus (GPa) = 18.76601 27.45288 23.10944
#
# Velocity S-wave (km/s) = 3.02497 3.65872 3.35684
# Velocity P-wave (km/s) = 6.21727 6.86014 6.54660
#
# Compressibility (1/GPa) = 0.01843237
#
# Stress axis : x y z
#
# Youngs Moduli (GPa) = 59.47355 138.53561 82.37916
#
# Poissons Ratio (x) = 0.02040 0.49964
# Poissons Ratio (y) = 0.00876 0.21889
# Poissons Ratio (z) = 0.36072 0.36811
#
# Static dielectric constant tensor:
#      x y z
#    x 1.792300 0.000000 0.000000 
#    y 0.000000 1.771160 0.000000 
#    z 0.000000 0.000000 1.701610 
# 
# From -- ./inp_files/11119.got.cif
#   From: 2010.05.17/outbox.cif.g08.bks.cpg/sg73_6_cif.got.tgz:11119.got - 2010.06.03 17:35:07.
