data_PCOD9532026
_publ_section_title
;
Structure prediction by ZEFSAII (Michael W. Deem and Ramdas Pophale) SiO2 
 PCOD9532026
Probable space group: I B C A 
;
_chemical_formula_sum "Si O2"
_cell_formula_units_Z 88
_cell_length_a 10.792881
_cell_length_b 17.840429
_cell_length_c 21.327765
_cell_angle_alpha 90.000000
_cell_angle_beta 90.000000
_cell_angle_gamma 90.000000
_cell_volume 4106.653199
_symmetry_space_group_name_H-M "I B C A "
_symmetry_group_IT_number 73
_symmetry_cell_setting 'orthorhombic'
loop_
_space_group_symop_operation_xyz
x,y,z
-x,1/2-y,z
x,-y,1/2-z
1/2-x,y,-z
-x,-y,-z
x,1/2+y,-z
-x,y,1/2+z
1/2+x,-y,z
1/2+x,1/2+y,1/2+z
1/2-x,-y,1/2+z
1/2+x,1/2-y,-z
-x,1/2+y,1/2-z
1/2-x,1/2-y,1/2-z
1/2+x,y,1/2-z
1/2-x,1/2+y,z
x,1/2-y,1/2+z
loop_
_atom_site_type_symbol
_atom_site_label
_atom_site_fract_x
_atom_site_fract_y
_atom_site_fract_z
Si Si1 0.459610 0.000000 0.250000
Si Si2 0.424926 0.375022 0.331071
Si Si3 0.000000 0.750000 0.731252
Si Si4 0.398730 0.047885 0.039925
Si Si5 0.358630 0.877237 0.336846
Si Si6 0.490831 0.838004 0.035560
Si Si7 0.750000 0.922997 0.500000
O O1 0.541594 0.045246 0.300409
O O2 0.375848 0.063799 0.219089
O O3 0.439072 0.311648 0.277299
O O4 0.284404 0.371942 0.354290
O O5 0.512229 0.358272 0.390640
O O6 0.909010 0.702228 0.687019
O O7 0.432404 0.085319 0.105602
O O8 0.210818 0.987064 0.948706
O O9 0.391426 0.119418 0.994374
O O10 0.500000 0.000000 0.000000
O O11 0.500000 0.750000 0.028497
O O12 0.368641 0.869223 0.000010
#
# Coordination Sequence:
#
# PCOD9532026 Si02
#       7
#     8  16   8  16  16  16   8
#     4  10  22  40  68 100 128 176 232 274 336 416
#     4  11  22  43  66  97 139 176 227 281 342 410
#     4  10  24  44  62 102 136 180 232 280 336 422
#     4  10  22  41  63  96 132 172 230 279 338 414
#     4  11  23  41  69  95 136 180 226 284 347 401
#     4  11  24  42  66 100 139 177 230 281 354 415
#     4  10  22  42  64  94 136 180 218 282 332 410
#
# _framework density 21.428642
#
# number of rings (size 3 to 8) (size 9 to 14) (size 15 to 20)
#    0.000    1.455    0.909    4.364    1.273    3.636 
#    3.273    7.273    0.000    0.000    0.000    0.000 
#    0.000    0.000    0.000    0.000    0.000    0.000 
#
# Total GULP energy -245084.238019 kJ/mol
# GULP energy per Si atom -5570.096319 kJ/mol
# Density = 2.137987 g / cm^3
# Si number density = 21.428642 Si / 1000 Ang^3
#
#
#
# Elastic Constant Matrix: (Units=GPa)
#
#
# Indices 1 2 3 4 5 6 
#
# 1 96.0847 41.2967 23.0494 0.0000 0.0000 0.0000
# 2 41.2967 163.2452 31.0157 0.0000 0.0000 0.0000
# 3 23.0494 31.0157 75.3490 0.0000 0.0000 0.0000
# 4 0.0000 0.0000 0.0000 42.7335 0.0000 0.0000
# 5 0.0000 0.0000 0.0000 0.0000 19.6668 0.0000
# 6 0.0000 0.0000 0.0000 0.0000 0.0000 16.9794
#
#
#
# Elastic Compliance Matrix: (Units=1/GPa)
#
#
# Indices 1 2 3 4 5 6 
#
# 1 0.012149 -0.002568 -0.002659 0.000000 0.000000 0.000000
# 2 -0.002568 0.007188 -0.002173 0.000000 0.000000 0.000000
# 3 -0.002659 -0.002173 0.014980 0.000000 0.000000 0.000000
# 4 0.000000 0.000000 0.000000 0.023401 0.000000 0.000000
# 5 0.000000 0.000000 0.000000 0.000000 0.050847 0.000000
# 6 0.000000 0.000000 0.000000 0.000000 0.000000 0.058895
#
#
# Mechanical properties :
#
#
# Convention : Reuss Voigt Hill
#
# Bulk Modulus (GPa) = 51.24110 58.37808 54.80959
# Shear Modulus (GPa) = 26.48772 31.83043 29.15907
#
# Velocity S-wave (km/s) = 3.51962 3.85829 3.69284
# Velocity P-wave (km/s) = 6.36249 6.86664 6.61937
#
# Compressibility (1/GPa) = 0.01951558
#
# Stress axis : x y z
#
# Youngs Moduli (GPa) = 82.30991 139.11397 66.75711
#
# Poissons Ratio (x) = 0.35727 0.17753
# Poissons Ratio (y) = 0.21139 0.14508
# Poissons Ratio (z) = 0.21889 0.30234
#
# Static dielectric constant tensor:
#      x y z
#    x 1.912720 0.000000 0.000000 
#    y 0.000000 1.773560 0.000000 
#    z 0.000000 0.000000 1.821740 
# 
# From -- ./inp_files/25393.got.cif
#   From: 2010.05.17/outbox.cif.g08.bks.cpg/sg73_13_cif.got.tgz:25393.got - 2010.06.03 17:35:07.
