data_PCOD9532060
_publ_section_title
;
Structure prediction by ZEFSAII (Michael W. Deem and Ramdas Pophale) SiO2 
 PCOD9532060
Probable space group: I B C A 
;
_chemical_formula_sum "Si O2"
_cell_formula_units_Z 88
_cell_length_a 27.936488
_cell_length_b 4.923315
_cell_length_c 26.933315
_cell_angle_alpha 90.000000
_cell_angle_beta 90.000000
_cell_angle_gamma 90.000000
_cell_volume 3704.411658
_symmetry_space_group_name_H-M "I B C A "
_symmetry_group_IT_number 73
_symmetry_cell_setting 'orthorhombic'
loop_
_space_group_symop_operation_xyz
x,y,z
-x,1/2-y,z
x,-y,1/2-z
1/2-x,y,-z
-x,-y,-z
x,1/2+y,-z
-x,y,1/2+z
1/2+x,-y,z
1/2+x,1/2+y,1/2+z
1/2-x,-y,1/2+z
1/2+x,1/2-y,-z
-x,1/2+y,1/2-z
1/2-x,1/2-y,1/2-z
1/2+x,y,1/2-z
1/2-x,1/2+y,z
x,1/2-y,1/2+z
loop_
_atom_site_type_symbol
_atom_site_label
_atom_site_fract_x
_atom_site_fract_y
_atom_site_fract_z
Si Si1 0.220221 0.862124 0.866933
Si Si2 0.870798 0.551158 0.693544
Si Si3 0.064167 0.537641 0.466555
Si Si4 0.176984 0.516062 0.031375
Si Si5 0.934931 0.948740 0.806934
Si Si6 0.500000 0.250000 0.115305
O O1 0.235528 0.558912 0.854130
O O2 0.172291 0.961165 0.840592
O O3 0.209372 0.909398 0.924698
O O4 0.855554 0.500000 0.750000
O O5 0.888301 0.858125 0.687303
O O6 0.917231 0.358028 0.686494
O O7 0.054639 0.841015 0.485915
O O8 0.120792 0.516660 0.455156
O O9 0.034568 0.423590 0.420677
O O10 0.184942 0.826372 0.016505
O O11 0.971050 0.048917 0.848562
O O12 0.952236 0.000000 0.750000
#
# Coordination Sequence:
#
# PCOD9532060 Si02
#       6
#    16  16  16  16  16   8
#     4  12  25  39  65 100 124 154 210 263 313 380
#     4  10  23  46  66  88 128 170 206 255 319 380
#     4  10  23  41  62  92 126 167 216 257 310 383
#     4  10  22  41  61  84 124 168 202 247 309 372
#     4  10  24  42  65  93 126 171 216 254 310 383
#     4  12  24  40  68  96 132 168 212 278 322 354
#
# _framework density 23.755458999999998
#
# number of rings (size 3 to 8) (size 9 to 14) (size 15 to 20)
#    0.000    1.455    0.000    3.818    0.000   13.091 
#    0.000    0.000    0.000    0.000    0.000    0.000 
#    0.000    0.000    0.000    0.000    0.000    0.000 
#
# Total GULP energy -246724.871452 kJ/mol
# GULP energy per Si atom -5607.383442 kJ/mol
# Density = 2.370139 g / cm^3
# Si number density = 23.755459 Si / 1000 Ang^3
#
#
#
# Elastic Constant Matrix: (Units=GPa)
#
#
# Indices 1 2 3 4 5 6 
#
# 1 56.9747 2.5265 45.5822 0.0000 0.0000 0.0000
# 2 2.5265 79.0732 3.6135 0.0000 0.0000 0.0000
# 3 45.5822 3.6135 92.5192 0.0000 0.0000 0.0000
# 4 0.0000 0.0000 0.0000 23.7990 0.0000 0.0000
# 5 0.0000 0.0000 0.0000 0.0000 46.4704 0.0000
# 6 0.0000 0.0000 0.0000 0.0000 0.0000 31.0062
#
#
#
# Elastic Compliance Matrix: (Units=1/GPa)
#
#
# Indices 1 2 3 4 5 6 
#
# 1 0.028977 -0.000274 -0.014266 0.000000 0.000000 0.000000
# 2 -0.000274 0.012672 -0.000360 0.000000 0.000000 0.000000
# 3 -0.014266 -0.000360 0.017851 0.000000 0.000000 0.000000
# 4 0.000000 0.000000 0.000000 0.042018 0.000000 0.000000
# 5 0.000000 0.000000 0.000000 0.000000 0.021519 0.000000
# 6 0.000000 0.000000 0.000000 0.000000 0.000000 0.032252
#
#
# Mechanical properties :
#
#
# Convention : Reuss Voigt Hill
#
# Bulk Modulus (GPa) = 33.66937 36.89018 35.27978
# Shear Modulus (GPa) = 25.64263 32.04480 28.84371
#
# Velocity S-wave (km/s) = 3.28905 3.67678 3.48831
# Velocity P-wave (km/s) = 5.35050 5.79550 5.57744
#
# Compressibility (1/GPa) = 0.02970059
#
# Stress axis : x y z
#
# Youngs Moduli (GPa) = 34.51032 78.91596 56.01943
#
# Poissons Ratio (x) = 0.02162 0.79915
# Poissons Ratio (y) = 0.00945 0.02016
# Poissons Ratio (z) = 0.49231 0.02840
#
# Static dielectric constant tensor:
#      x y z
#    x 1.899420 0.000000 0.000000 
#    y 0.000000 1.845130 0.000000 
#    z 0.000000 0.000000 1.870430 
# 
# From -- ./inp_files/3098.got.cif
#   From: 2010.05.17/outbox.cif.g08.bks.cpg/sg73_2_cif.got.tgz:3098.got - 2010.06.03 17:35:07.
