data_PCOD9532181
_publ_section_title
;
Structure prediction by ZEFSAII (Michael W. Deem and Ramdas Pophale) SiO2 
 PCOD9532181
Probable space group: I B C A 
;
_chemical_formula_sum "Si O2"
_cell_formula_units_Z 64
_cell_length_a 9.303709
_cell_length_b 14.673671
_cell_length_c 19.836425
_cell_angle_alpha 90.000000
_cell_angle_beta 90.000000
_cell_angle_gamma 90.000000
_cell_volume 2708.060111
_symmetry_space_group_name_H-M "I B C A "
_symmetry_group_IT_number 73
_symmetry_cell_setting 'orthorhombic'
loop_
_space_group_symop_operation_xyz
x,y,z
-x,1/2-y,z
x,-y,1/2-z
1/2-x,y,-z
-x,-y,-z
x,1/2+y,-z
-x,y,1/2+z
1/2+x,-y,z
1/2+x,1/2+y,1/2+z
1/2-x,-y,1/2+z
1/2+x,1/2-y,-z
-x,1/2+y,1/2-z
1/2-x,1/2-y,1/2-z
1/2+x,y,1/2-z
1/2-x,1/2+y,z
x,1/2-y,1/2+z
loop_
_atom_site_type_symbol
_atom_site_label
_atom_site_fract_x
_atom_site_fract_y
_atom_site_fract_z
Si Si1 0.846935 0.799229 0.436661
Si Si2 0.459032 0.472692 0.174134
Si Si3 0.662632 0.783049 0.312497
Si Si4 0.784839 0.517888 0.577960
O O1 0.750000 0.777939 0.500000
O O2 0.758839 0.757972 0.375301
O O3 0.836523 0.910325 0.428904
O O4 0.000000 0.750000 0.441448
O O5 0.511382 0.500000 0.250000
O O6 0.351426 0.391183 0.190853
O O7 0.356443 0.532330 0.124821
O O8 0.585619 0.441595 0.123174
O O9 0.500000 0.750000 0.314395
O O10 0.750000 0.750000 0.250000
O O11 0.750000 0.545986 0.500000
#
# Coordination Sequence:
#
# PCOD9532181 Si02
#       4
#    16  16  16  16
#     4  10  22  42  68  99 137 179 229 284 347 421
#     4  11  25  41  69  98 137 182 233 287 354 421
#     4  11  26  42  66  97 134 179 231 289 349 416
#     4  10  23  43  66  99 136 180 234 290 348 421
#
# _framework density 23.633151000000002
#
# number of rings (size 3 to 8) (size 9 to 14) (size 15 to 20)
#    0.000    1.500    0.000    3.000   14.000    0.000 
#    0.000    2.500    0.000    0.000    0.000    0.000 
#    0.000    0.000    0.000    0.000    0.000    0.000 
#
# Total GULP energy -178562.678652 kJ/mol
# GULP energy per Si atom -5580.083708 kJ/mol
# Density = 2.357936 g / cm^3
# Si number density = 23.633151 Si / 1000 Ang^3
#
#
#
# Elastic Constant Matrix: (Units=GPa)
#
#
# Indices 1 2 3 4 5 6 
#
# 1 161.4850 11.1635 86.2662 0.0000 0.0000 0.0000
# 2 11.1635 49.1016 33.3689 0.0000 0.0000 0.0000
# 3 86.2662 33.3689 251.5814 0.0000 0.0000 0.0000
# 4 0.0000 0.0000 0.0000 19.0161 0.0000 0.0000
# 5 0.0000 0.0000 0.0000 0.0000 55.9186 0.0000
# 6 0.0000 0.0000 0.0000 0.0000 0.0000 38.5044
#
#
#
# Elastic Compliance Matrix: (Units=1/GPa)
#
#
# Indices 1 2 3 4 5 6 
#
# 1 0.007581 0.000047 -0.002606 0.000000 0.000000 0.000000
# 2 0.000047 0.022384 -0.002985 0.000000 0.000000 0.000000
# 3 -0.002606 -0.002985 0.005264 0.000000 0.000000 0.000000
# 4 0.000000 0.000000 0.000000 0.052587 0.000000 0.000000
# 5 0.000000 0.000000 0.000000 0.000000 0.017883 0.000000
# 6 0.000000 0.000000 0.000000 0.000000 0.000000 0.025971
#
#
# Mechanical properties :
#
#
# Convention : Reuss Voigt Hill
#
# Bulk Modulus (GPa) = 41.42151 80.41835 60.91993
# Shear Modulus (GPa) = 33.15526 44.77910 38.96718
#
# Velocity S-wave (km/s) = 3.74961 4.35760 4.06499
# Velocity P-wave (km/s) = 6.02586 7.70843 6.91849
#
# Compressibility (1/GPa) = 0.02414205
#
# Stress axis : x y z
#
# Youngs Moduli (GPa) = 131.90292 44.67509 189.95744
#
# Poissons Ratio (x) = -0.00211 0.49501
# Poissons Ratio (y) = -0.00623 0.56705
# Poissons Ratio (z) = 0.34372 0.13336
#
# Static dielectric constant tensor:
#      x y z
#    x 1.870810 0.000000 0.000000 
#    y 0.000000 2.032290 0.000000 
#    z 0.000000 0.000000 1.905040 
# 
# From -- ./inp_files/5193.got.cif
#   From: 2010.05.17/outbox.cif.g08.bks.cpg/sg73_3_cif.got.tgz:5193.got - 2010.06.03 17:35:07.
