data_PCOD9532694
_publ_section_title
;
Structure prediction by ZEFSAII (Michael W. Deem and Ramdas Pophale) SiO2 
 PCOD9532694
Probable space group: I B C A 
;
_chemical_formula_sum "Si O2"
_cell_formula_units_Z 72
_cell_length_a 17.697461
_cell_length_b 8.740841
_cell_length_c 21.044197
_cell_angle_alpha 90.000000
_cell_angle_beta 90.000000
_cell_angle_gamma 90.000000
_cell_volume 3255.341411
_symmetry_space_group_name_H-M "I B C A "
_symmetry_group_IT_number 73
_symmetry_cell_setting 'orthorhombic'
loop_
_space_group_symop_operation_xyz
x,y,z
-x,1/2-y,z
x,-y,1/2-z
1/2-x,y,-z
-x,-y,-z
x,1/2+y,-z
-x,y,1/2+z
1/2+x,-y,z
1/2+x,1/2+y,1/2+z
1/2-x,-y,1/2+z
1/2+x,1/2-y,-z
-x,1/2+y,1/2-z
1/2-x,1/2-y,1/2-z
1/2+x,y,1/2-z
1/2-x,1/2+y,z
x,1/2-y,1/2+z
loop_
_atom_site_type_symbol
_atom_site_label
_atom_site_fract_x
_atom_site_fract_y
_atom_site_fract_z
Si Si1 0.178521 0.344589 0.080571
Si Si2 0.712881 0.421995 0.184401
Si Si3 0.884874 0.344911 0.177441
Si Si4 0.079796 0.190914 0.322000
Si Si5 0.250000 0.079431 0.000000
O O1 0.221715 0.443564 0.133380
O O2 0.107815 0.278493 0.120847
O O3 0.182306 0.466780 0.022971
O O4 0.219910 0.194182 0.054002
O O5 0.687092 0.500000 0.250000
O O6 0.795279 0.351294 0.194748
O O7 0.648912 0.303780 0.161993
O O8 0.922792 0.309947 0.244672
O O9 0.906668 0.516300 0.157747
O O10 0.000000 0.250000 0.346934
#
# Coordination Sequence:
#
# PCOD9532694 Si02
#       5
#    16  16  16  16   8
#     4  11  22  36  62  90 136 163 209 275 333 375
#     4  12  21  37  65  99 133 168 207 267 332 399
#     4  11  22  37  61  92 130 174 213 258 328 388
#     4  11  25  38  59  99 144 174 208 258 330 421
#     4  10  24  38  56  98 134 162 224 278 332 372
#
# _framework density 22.117495999999999
#
# number of rings (size 3 to 8) (size 9 to 14) (size 15 to 20)
#    0.000    0.889    6.667    2.000    3.111    0.000 
#    0.000    0.000    0.000    0.000    0.000   26.444 
#    0.000    0.000    0.000    0.000    0.000    0.000 
#
# Total GULP energy -200888.996578 kJ/mol
# GULP energy per Si atom -5580.249905 kJ/mol
# Density = 2.206716 g / cm^3
# Si number density = 22.117496 Si / 1000 Ang^3
#
#
#
# Elastic Constant Matrix: (Units=GPa)
#
#
# Indices 1 2 3 4 5 6 
#
# 1 85.5772 30.1614 -13.6836 0.0000 0.0000 0.0000
# 2 30.1614 137.4432 33.8950 0.0000 0.0000 0.0000
# 3 -13.6836 33.8950 69.3091 0.0000 0.0000 0.0000
# 4 0.0000 0.0000 0.0000 50.5916 0.0000 0.0000
# 5 0.0000 0.0000 0.0000 0.0000 7.9460 0.0000
# 6 0.0000 0.0000 0.0000 0.0000 0.0000 21.5009
#
#
#
# Elastic Compliance Matrix: (Units=1/GPa)
#
#
# Indices 1 2 3 4 5 6 
#
# 1 0.013959 -0.004256 0.004837 0.000000 0.000000 0.000000
# 2 -0.004256 0.009571 -0.005521 0.000000 0.000000 0.000000
# 3 0.004837 -0.005521 0.018083 0.000000 0.000000 0.000000
# 4 0.000000 0.000000 0.000000 0.019766 0.000000 0.000000
# 5 0.000000 0.000000 0.000000 0.000000 0.125849 0.000000
# 6 0.000000 0.000000 0.000000 0.000000 0.000000 0.046510
#
#
# Mechanical properties :
#
#
# Convention : Reuss Voigt Hill
#
# Bulk Modulus (GPa) = 31.51233 43.67499 37.59366
# Shear Modulus (GPa) = 19.66984 32.13814 25.90399
#
# Velocity S-wave (km/s) = 2.98541 3.81604 3.42599
# Velocity P-wave (km/s) = 5.11489 6.26146 5.71700
#
# Compressibility (1/GPa) = 0.03173361
#
# Stress axis : x y z
#
# Youngs Moduli (GPa) = 71.63883 104.47920 55.30005
#
# Poissons Ratio (x) = 0.44468 -0.26750
# Poissons Ratio (y) = 0.30491 0.30531
# Poissons Ratio (z) = -0.34654 0.57683
#
# Static dielectric constant tensor:
#      x y z
#    x 1.787550 0.000000 0.000000 
#    y 0.000000 1.861110 0.000000 
#    z 0.000000 0.000000 1.922130 
# 
# From -- ./inp_files/6935.got.cif
#   From: 2010.05.17/outbox.cif.g08.bks.cpg/sg73_4_cif.got.tgz:6935.got - 2010.06.03 17:35:07.
