data_PCOD9532114
_publ_section_title
;
Structure prediction by ZEFSAII (Michael W. Deem and Ramdas Pophale) SiO2 
 PCOD9532114
Probable space group: I B C A 
;
_chemical_formula_sum "Si O2"
_cell_formula_units_Z 88
_cell_length_a 12.220700
_cell_length_b 21.034064
_cell_length_c 13.505908
_cell_angle_alpha 90.000000
_cell_angle_beta 90.000000
_cell_angle_gamma 90.000000
_cell_volume 3471.706967
_symmetry_space_group_name_H-M "I B C A "
_symmetry_group_IT_number 73
_symmetry_cell_setting 'orthorhombic'
loop_
_space_group_symop_operation_xyz
x,y,z
-x,1/2-y,z
x,-y,1/2-z
1/2-x,y,-z
-x,-y,-z
x,1/2+y,-z
-x,y,1/2+z
1/2+x,-y,z
1/2+x,1/2+y,1/2+z
1/2-x,-y,1/2+z
1/2+x,1/2-y,-z
-x,1/2+y,1/2-z
1/2-x,1/2-y,1/2-z
1/2+x,y,1/2-z
1/2-x,1/2+y,z
x,1/2-y,1/2+z
loop_
_atom_site_type_symbol
_atom_site_label
_atom_site_fract_x
_atom_site_fract_y
_atom_site_fract_z
Si Si1 0.281110 0.094765 0.613741
Si Si2 0.500000 0.750000 0.557214
Si Si3 0.370841 0.814851 0.216097
Si Si4 0.540913 0.571909 0.745887
Si Si5 0.742032 0.956468 0.882166
Si Si6 0.645409 0.327947 0.073048
O O1 0.250000 0.106507 0.500000
O O2 0.237893 0.150963 0.680669
O O3 0.405875 0.084344 0.645612
O O4 0.222746 0.029141 0.649413
O O5 0.597447 0.766078 0.631323
O O6 0.539760 0.691859 0.489360
O O7 0.466272 0.869251 0.213897
O O8 0.358533 0.787387 0.325939
O O9 0.494320 0.500000 0.750000
O O10 0.644703 0.566020 0.669118
O O11 0.656453 0.898802 0.879883
O O12 0.750000 0.965414 0.000000
O O13 0.750000 0.320854 0.000000
#
# Coordination Sequence:
#
# PCOD9532114 Si02
#       6
#    16   8  16  16  16  16
#     4  10  23  42  67 107 142 180 227 291 361 432
#     4  12  30  48  66 106 136 190 258 278 344 420
#     4  12  26  45  74  99 141 187 234 297 348 417
#     4  10  22  41  70 109 142 176 230 286 364 434
#     4   9  18  41  69 100 142 176 220 281 361 424
#     4  11  25  48  75  98 138 190 235 293 354 417
#
# _framework density 25.347761999999999
#
# number of rings (size 3 to 8) (size 9 to 14) (size 15 to 20)
#    0.000    1.455    1.818    2.727    5.091    1.455 
#    0.000    3.636    0.000    0.000    0.000    0.000 
#    0.000    0.000    0.000    0.000    0.000    0.000 
#
# Total GULP energy -245887.632427 kJ/mol
# GULP energy per Si atom -5588.355282 kJ/mol
# Density = 2.529007 g / cm^3
# Si number density = 25.347762 Si / 1000 Ang^3
#
#
#
# Elastic Constant Matrix: (Units=GPa)
#
#
# Indices 1 2 3 4 5 6 
#
# 1 63.3260 23.4749 15.1054 0.0000 0.0000 0.0000
# 2 23.4749 87.5249 16.6642 0.0000 0.0001 0.0000
# 3 15.1054 16.6642 134.0281 0.0000 0.0001 0.0000
# 4 0.0000 0.0000 0.0000 22.3268 0.0001 0.0000
# 5 0.0000 0.0001 0.0001 0.0001 35.2567 0.0000
# 6 0.0000 0.0000 0.0000 0.0000 0.0000 26.2825
#
#
#
# Elastic Compliance Matrix: (Units=1/GPa)
#
#
# Indices 1 2 3 4 5 6 
#
# 1 0.017805 -0.004500 -0.001447 0.000000 0.000000 0.000000
# 2 -0.004500 0.012840 -0.001089 0.000000 0.000000 0.000000
# 3 -0.001447 -0.001089 0.007760 0.000000 0.000000 0.000000
# 4 0.000000 0.000000 0.000000 0.044789 0.000000 0.000000
# 5 0.000000 0.000000 0.000000 0.000000 0.028363 0.000000
# 6 0.000000 0.000000 0.000000 0.000000 0.000000 0.038048
#
#
# Mechanical properties :
#
#
# Convention : Reuss Voigt Hill
#
# Bulk Modulus (GPa) = 41.09917 43.92978 42.51448
# Shear Modulus (GPa) = 29.10576 32.08218 30.59397
#
# Velocity S-wave (km/s) = 3.39227 3.56150 3.47792
# Velocity P-wave (km/s) = 5.62073 5.85498 5.73905
#
# Compressibility (1/GPa) = 0.02433139
#
# Stress axis : x y z
#
# Youngs Moduli (GPa) = 56.16538 77.88406 128.87179
#
# Poissons Ratio (x) = 0.35046 0.18650
# Poissons Ratio (y) = 0.25273 0.14037
# Poissons Ratio (z) = 0.08128 0.08484
#
# Static dielectric constant tensor:
#      x y z
#    x 2.068560 0.000000 0.000000 
#    y 0.000000 2.065300 0.000000 
#    z 0.000000 0.000000 1.995070 
# 
# From -- ./inp_files/16122.got.cif
#   From: 2010.05.17/outbox.cif.g08.bks.cpg/sg73_9_cif.got.tgz:16122.got - 2010.06.03 17:35:07.
