data_PCOD9532064
_publ_section_title
;
Structure prediction by ZEFSAII (Michael W. Deem and Ramdas Pophale) SiO2 
 PCOD9532064
Probable space group: I B C A 
;
_chemical_formula_sum "Si O2"
_cell_formula_units_Z 96
_cell_length_a 11.614111
_cell_length_b 22.610264
_cell_length_c 18.116822
_cell_angle_alpha 90.000000
_cell_angle_beta 90.000000
_cell_angle_gamma 90.000000
_cell_volume 4757.443322
_symmetry_space_group_name_H-M "I B C A "
_symmetry_group_IT_number 73
_symmetry_cell_setting 'orthorhombic'
loop_
_space_group_symop_operation_xyz
x,y,z
-x,1/2-y,z
x,-y,1/2-z
1/2-x,y,-z
-x,-y,-z
x,1/2+y,-z
-x,y,1/2+z
1/2+x,-y,z
1/2+x,1/2+y,1/2+z
1/2-x,-y,1/2+z
1/2+x,1/2-y,-z
-x,1/2+y,1/2-z
1/2-x,1/2-y,1/2-z
1/2+x,y,1/2-z
1/2-x,1/2+y,z
x,1/2-y,1/2+z
loop_
_atom_site_type_symbol
_atom_site_label
_atom_site_fract_x
_atom_site_fract_y
_atom_site_fract_z
Si Si1 0.127530 0.740168 0.044979
Si Si2 0.402147 0.050177 0.652644
Si Si3 0.114592 0.868858 0.654713
Si Si4 0.739636 0.650243 0.912601
Si Si5 0.866670 0.420274 0.174987
Si Si6 0.042693 0.182509 0.684913
O O1 0.123101 0.681644 0.093456
O O2 0.144528 0.798062 0.096883
O O3 0.000000 0.750000 0.008021
O O4 0.250000 0.737304 0.000000
O O5 0.520116 0.082661 0.632205
O O6 0.299187 0.087692 0.618122
O O7 0.388258 0.062191 0.739922
O O8 0.398249 0.981093 0.633713
O O9 0.235629 0.901751 0.664190
O O10 0.081297 0.838661 0.733181
O O11 0.851633 0.673646 0.870955
O O12 0.750000 0.643361 0.000000
O O13 0.944255 0.363169 0.158899
O O14 0.000000 0.250000 0.686833
#
# Coordination Sequence:
#
# PCOD9532064 Si02
#       6
#    16  16  16  16  16  16
#     4  11  24  42  67  98 138 185 223 273 343 406
#     4  10  22  41  62  95 128 171 220 270 338 393
#     4  11  22  40  69  96 131 171 223 283 335 397
#     4  11  24  42  66  90 138 180 218 270 339 402
#     4  10  23  38  69  96 128 169 221 282 334 399
#     4  11  24  41  68 103 132 168 228 282 338 394
#
# _framework density 20.178903999999999
#
# number of rings (size 3 to 8) (size 9 to 14) (size 15 to 20)
#    0.000    1.333    3.333    1.500    4.667    8.000 
#    0.000    1.667    0.000    0.000    0.000    0.000 
#    0.000    0.000    0.000    0.000    0.000    0.000 
#
# Total GULP energy -267928.241694 kJ/mol
# GULP energy per Si atom -5581.838369 kJ/mol
# Density = 2.013298 g / cm^3
# Si number density = 20.178904 Si / 1000 Ang^3
#
#
#
# Elastic Constant Matrix: (Units=GPa)
#
#
# Indices 1 2 3 4 5 6 
#
# 1 128.3104 70.4775 24.9551 0.0000 0.0000 0.0000
# 2 70.4775 200.8440 31.5390 0.0000 0.0000 0.0000
# 3 24.9551 31.5390 42.8094 0.0000 0.0000 0.0000
# 4 0.0000 0.0000 0.0000 23.0200 0.0000 0.0000
# 5 0.0000 0.0000 0.0000 0.0000 25.8681 0.0000
# 6 0.0000 0.0000 0.0000 0.0000 0.0000 45.1763
#
#
#
# Elastic Compliance Matrix: (Units=1/GPa)
#
#
# Indices 1 2 3 4 5 6 
#
# 1 0.010154 -0.002978 -0.003725 0.000000 0.000000 0.000000
# 2 -0.002978 0.006504 -0.003056 0.000000 0.000000 0.000000
# 3 -0.003725 -0.003056 0.027782 0.000000 0.000000 0.000000
# 4 0.000000 0.000000 0.000000 0.043441 0.000000 0.000000
# 5 0.000000 0.000000 0.000000 0.000000 0.038658 0.000000
# 6 0.000000 0.000000 0.000000 0.000000 0.000000 0.022136
#
#
# Mechanical properties :
#
#
# Convention : Reuss Voigt Hill
#
# Bulk Modulus (GPa) = 40.12460 69.54521 54.83490
# Shear Modulus (GPa) = 28.32893 35.14569 31.73731
#
# Velocity S-wave (km/s) = 3.75092 4.17790 3.97015
# Velocity P-wave (km/s) = 6.21987 7.60344 6.94619
#
# Compressibility (1/GPa) = 0.02492237
#
# Stress axis : x y z
#
# Youngs Moduli (GPa) = 98.48465 153.75507 35.99464
#
# Poissons Ratio (x) = 0.45790 0.13408
# Poissons Ratio (y) = 0.29330 0.10998
# Poissons Ratio (z) = 0.36685 0.46981
#
# Static dielectric constant tensor:
#      x y z
#    x 1.741750 0.000000 0.000000 
#    y 0.000000 1.720340 0.000000 
#    z 0.000000 0.000000 1.726030 
# 
# From -- ./inp_files/25464.got.cif
#   From: 2010.05.17/outbox.cif.g08.bks.cpg/sg73_13_cif.got.tgz:25464.got - 2010.06.03 17:35:07.
