data_PCOD9532954
_publ_section_title
;
Structure prediction by ZEFSAII (Michael W. Deem and Ramdas Pophale) SiO2 
 PCOD9532954
Probable space group: I B C A 
;
_chemical_formula_sum "Si O2"
_cell_formula_units_Z 72
_cell_length_a 14.448234
_cell_length_b 16.158047
_cell_length_c 13.223616
_cell_angle_alpha 90.000000
_cell_angle_beta 90.000000
_cell_angle_gamma 90.000000
_cell_volume 3087.122500
_symmetry_space_group_name_H-M "I B C A "
_symmetry_group_IT_number 73
_symmetry_cell_setting 'orthorhombic'
loop_
_space_group_symop_operation_xyz
x,y,z
-x,1/2-y,z
x,-y,1/2-z
1/2-x,y,-z
-x,-y,-z
x,1/2+y,-z
-x,y,1/2+z
1/2+x,-y,z
1/2+x,1/2+y,1/2+z
1/2-x,-y,1/2+z
1/2+x,1/2-y,-z
-x,1/2+y,1/2-z
1/2-x,1/2-y,1/2-z
1/2+x,y,1/2-z
1/2-x,1/2+y,z
x,1/2-y,1/2+z
loop_
_atom_site_type_symbol
_atom_site_label
_atom_site_fract_x
_atom_site_fract_y
_atom_site_fract_z
Si Si1 0.622236 0.500000 0.250000
Si Si2 0.751110 0.325811 0.884259
Si Si3 0.762761 0.483320 0.391506
Si Si4 0.902875 0.211741 0.781877
Si Si5 0.034058 0.447887 0.899197
O O1 0.693817 0.442074 0.312109
O O2 0.551285 0.458346 0.174495
O O3 0.772571 0.422981 0.896483
O O4 0.833998 0.278121 0.830413
O O5 0.657767 0.319705 0.815145
O O6 0.750000 0.293320 0.000000
O O7 0.750000 0.442507 0.500000
O O8 0.869903 0.490722 0.367842
O O9 0.931491 0.146533 0.872357
O O10 0.000000 0.250000 0.746095
O O11 0.000000 0.500000 0.000000
#
# Coordination Sequence:
#
# PCOD9532954 Si02
#       5
#     8  16  16  16  16
#     4  12  22  42  72 100 144 186 234 308 360 438
#     4  10  24  47  72 104 146 194 247 304 378 458
#     4  11  23  44  72 101 144 191 239 305 369 445
#     4  11  25  46  71 107 149 195 246 311 380 458
#     4  12  26  46  73 112 145 191 253 306 384 458
#
# _framework density 23.322689
#
# number of rings (size 3 to 8) (size 9 to 14) (size 15 to 20)
#    0.000    0.889    2.222    4.667    3.111    3.556 
#   12.000    0.000    0.000    0.000    0.000    0.000 
#    0.000    0.000    0.000    0.000    0.000    0.000 
#
# Total GULP energy -200433.528727 kJ/mol
# GULP energy per Si atom -5567.598020 kJ/mol
# Density = 2.326961 g / cm^3
# Si number density = 23.322689 Si / 1000 Ang^3
#
#
#
# Elastic Constant Matrix: (Units=GPa)
#
#
# Indices 1 2 3 4 5 6 
#
# 1 230.7493 42.7868 65.0104 0.0000 0.0000 0.0000
# 2 42.7868 78.6550 26.6715 0.0000 0.0000 0.0000
# 3 65.0104 26.6715 137.6841 0.0000 0.0000 0.0000
# 4 0.0000 0.0000 0.0000 22.9370 0.0000 0.0000
# 5 0.0000 0.0000 0.0000 0.0000 39.8411 0.0000
# 6 0.0000 0.0000 0.0000 0.0000 0.0000 25.7736
#
#
#
# Elastic Compliance Matrix: (Units=1/GPa)
#
#
# Indices 1 2 3 4 5 6 
#
# 1 0.005329 -0.002190 -0.002092 0.000000 0.000000 0.000000
# 2 -0.002190 0.014507 -0.001776 0.000000 0.000000 0.000000
# 3 -0.002092 -0.001776 0.008595 0.000000 0.000000 0.000000
# 4 0.000000 0.000000 0.000000 0.043598 0.000000 0.000000
# 5 0.000000 0.000000 0.000000 0.000000 0.025100 0.000000
# 6 0.000000 0.000000 0.000000 0.000000 0.000000 0.038799
#
#
# Mechanical properties :
#
#
# Convention : Reuss Voigt Hill
#
# Bulk Modulus (GPa) = 61.29277 79.55841 70.42559
# Shear Modulus (GPa) = 32.57698 38.55164 35.56431
#
# Velocity S-wave (km/s) = 3.74142 4.07008 3.90921
# Velocity P-wave (km/s) = 6.70833 7.50157 7.11601
#
# Compressibility (1/GPa) = 0.01631514
#
# Stress axis : x y z
#
# Youngs Moduli (GPa) = 187.64807 68.93133 116.34724
#
# Poissons Ratio (x) = 0.15093 0.24341
# Poissons Ratio (y) = 0.41086 0.20668
# Poissons Ratio (z) = 0.39258 0.12245
#
# Static dielectric constant tensor:
#      x y z
#    x 1.854730 0.000000 0.000000 
#    y 0.000000 1.998640 0.000000 
#    z 0.000000 0.000000 2.132510 
# 
# From -- ./inp_files/16783.got.cif
#   From: 2010.05.17/outbox.cif.g08.bks.cpg/sg73_9_cif.got.tgz:16783.got - 2010.06.03 17:35:07.
