data_PCOD9532198
_publ_section_title
;
Structure prediction by ZEFSAII (Michael W. Deem and Ramdas Pophale) SiO2 
 PCOD9532198
Probable space group: I B C A 
;
_chemical_formula_sum "Si O2"
_cell_formula_units_Z 96
_cell_length_a 24.203096
_cell_length_b 10.664062
_cell_length_c 17.056102
_cell_angle_alpha 90.000000
_cell_angle_beta 90.000000
_cell_angle_gamma 90.000000
_cell_volume 4402.236490
_symmetry_space_group_name_H-M "I B C A "
_symmetry_group_IT_number 73
_symmetry_cell_setting 'orthorhombic'
loop_
_space_group_symop_operation_xyz
x,y,z
-x,1/2-y,z
x,-y,1/2-z
1/2-x,y,-z
-x,-y,-z
x,1/2+y,-z
-x,y,1/2+z
1/2+x,-y,z
1/2+x,1/2+y,1/2+z
1/2-x,-y,1/2+z
1/2+x,1/2-y,-z
-x,1/2+y,1/2-z
1/2-x,1/2-y,1/2-z
1/2+x,y,1/2-z
1/2-x,1/2+y,z
x,1/2-y,1/2+z
loop_
_atom_site_type_symbol
_atom_site_label
_atom_site_fract_x
_atom_site_fract_y
_atom_site_fract_z
Si Si1 0.414294 0.431670 0.129139
Si Si2 0.363022 0.197963 0.180941
Si Si3 0.449039 0.657438 0.536907
Si Si4 0.531751 0.550529 0.335686
Si Si5 0.631768 0.198896 0.352787
Si Si6 0.246415 0.123930 0.197185
O O1 0.363962 0.340560 0.150799
O O2 0.471648 0.387160 0.168176
O O3 0.402027 0.570587 0.158612
O O4 0.426867 0.419032 0.037254
O O5 0.416546 0.135966 0.142322
O O6 0.370346 0.214054 0.275058
O O7 0.308012 0.120769 0.161847
O O8 0.500000 0.750000 0.515670
O O9 0.471493 0.561999 0.602361
O O10 0.398004 0.731646 0.575971
O O11 0.544594 0.500000 0.250000
O O12 0.695157 0.152374 0.359933
O O13 0.250000 0.250000 0.250000
O O14 0.237172 0.000000 0.250000
#
# Coordination Sequence:
#
# PCOD9532198 Si02
#       6
#    16  16  16  16  16  16
#     4  12  26  41  69  96 141 180 227 275 358 414
#     4  11  23  41  70 104 131 173 233 287 343 406
#     4  12  26  44  64  98 145 186 225 284 348 420
#     4  12  23  40  68 100 134 177 227 286 341 413
#     4  11  23  44  68  96 133 179 232 287 335 414
#     4  10  22  42  71 101 137 177 231 294 350 401
#
# _framework density 21.807098
#
# number of rings (size 3 to 8) (size 9 to 14) (size 15 to 20)
#    0.000    0.667    3.333    6.000    4.667    0.000 
#    0.000    0.833    0.000    0.000    0.000    0.000 
#    0.000    0.000    0.000    0.000    0.000    0.000 
#
# Total GULP energy -268282.557832 kJ/mol
# GULP energy per Si atom -5589.219955 kJ/mol
# Density = 2.175746 g / cm^3
# Si number density = 21.807098 Si / 1000 Ang^3
#
#
#
# Elastic Constant Matrix: (Units=GPa)
#
#
# Indices 1 2 3 4 5 6 
#
# 1 162.0609 37.1888 15.7829 0.0000 0.0000 0.0000
# 2 37.1888 64.1088 2.5693 0.0000 0.0000 0.0000
# 3 15.7829 2.5693 49.0244 0.0000 0.0000 0.0000
# 4 0.0000 0.0000 0.0000 26.3753 0.0000 0.0000
# 5 0.0000 0.0000 0.0000 0.0000 19.9855 0.0000
# 6 0.0000 0.0000 0.0000 0.0000 0.0000 24.5527
#
#
#
# Elastic Compliance Matrix: (Units=1/GPa)
#
#
# Indices 1 2 3 4 5 6 
#
# 1 0.007336 -0.004170 -0.002143 0.000000 0.000000 0.000000
# 2 -0.004170 0.018001 0.000399 0.000000 0.000000 0.000000
# 3 -0.002143 0.000399 0.021067 0.000000 0.000000 0.000000
# 4 0.000000 0.000000 0.000000 0.037914 0.000000 0.000000
# 5 0.000000 0.000000 0.000000 0.000000 0.050036 0.000000
# 6 0.000000 0.000000 0.000000 0.000000 0.000000 0.040729
#
#
# Mechanical properties :
#
#
# Convention : Reuss Voigt Hill
#
# Bulk Modulus (GPa) = 28.92137 42.91956 35.92046
# Shear Modulus (GPa) = 25.19689 28.82624 27.01156
#
# Velocity S-wave (km/s) = 3.40287 3.63970 3.52328
# Velocity P-wave (km/s) = 5.36009 6.11453 5.74969
#
# Compressibility (1/GPa) = 0.03457651
#
# Stress axis : x y z
#
# Youngs Moduli (GPa) = 136.31255 55.55157 47.46739
#
# Poissons Ratio (x) = 0.23163 0.10173
# Poissons Ratio (y) = 0.56838 -0.01894
# Poissons Ratio (z) = 0.29215 -0.02216
#
# Static dielectric constant tensor:
#      x y z
#    x 1.872160 0.000000 0.000000 
#    y 0.000000 1.854620 0.000000 
#    z 0.000000 0.000000 1.771280 
# 
# From -- ./inp_files/23528.got.cif
#   From: 2010.05.17/outbox.cif.g08.bks.cpg/sg73_12_cif.got.tgz:23528.got - 2010.06.03 17:35:07.
