data_PCOD9532517
_publ_section_title
;
Structure prediction by ZEFSAII (Michael W. Deem and Ramdas Pophale) SiO2 
 PCOD9532517
Probable space group: I B C A 
;
_chemical_formula_sum "Si O2"
_cell_formula_units_Z 112
_cell_length_a 14.321373
_cell_length_b 14.109511
_cell_length_c 24.454298
_cell_angle_alpha 90.000000
_cell_angle_beta 90.000000
_cell_angle_gamma 90.000000
_cell_volume 4941.420570
_symmetry_space_group_name_H-M "I B C A "
_symmetry_group_IT_number 73
_symmetry_cell_setting 'orthorhombic'
loop_
_space_group_symop_operation_xyz
x,y,z
-x,1/2-y,z
x,-y,1/2-z
1/2-x,y,-z
-x,-y,-z
x,1/2+y,-z
-x,y,1/2+z
1/2+x,-y,z
1/2+x,1/2+y,1/2+z
1/2-x,-y,1/2+z
1/2+x,1/2-y,-z
-x,1/2+y,1/2-z
1/2-x,1/2-y,1/2-z
1/2+x,y,1/2-z
1/2-x,1/2+y,z
x,1/2-y,1/2+z
loop_
_atom_site_type_symbol
_atom_site_label
_atom_site_fract_x
_atom_site_fract_y
_atom_site_fract_z
Si Si1 0.847685 0.176137 0.911825
Si Si2 0.473783 0.570926 0.927322
Si Si3 0.500000 0.750000 0.637496
Si Si4 0.750000 0.705875 0.500000
Si Si5 0.715506 0.987881 0.628524
Si Si6 0.273879 0.176087 0.176644
Si Si7 0.139297 0.160750 0.712852
Si Si8 0.411375 0.383848 0.450306
O O1 0.778041 0.085152 0.906566
O O2 0.819200 0.255428 0.868083
O O3 0.954377 0.146206 0.901630
O O4 0.823444 0.225252 0.969797
O O5 0.378065 0.531332 0.900322
O O6 0.541433 0.479876 0.930573
O O7 0.451002 0.614748 0.987066
O O8 0.544986 0.825539 0.678799
O O9 0.564882 0.696578 0.593823
O O10 0.697331 0.634606 0.540151
O O11 0.689266 0.923940 0.680995
O O12 0.766610 0.079803 0.652065
O O13 0.350931 0.148270 0.222471
O O14 0.192301 0.239539 0.202289
#
# Coordination Sequence:
#
# PCOD9532517 Si02
#       8
#    16  16   8   8  16  16  16  16
#     4  11  27  43  66 105 137 183 236 285 352 432
#     4  11  26  41  66 101 140 176 232 289 339 436
#     4  12  22  42  70  98 136 176 236 294 344 430
#     4  12  26  44  70 100 146 192 226 284 362 436
#     4  11  23  44  69  99 135 185 228 293 354 420
#     4  10  23  44  67  94 138 178 228 294 358 413
#     4  10  23  42  67 100 127 180 237 288 352 422
#     4  11  25  41  66 100 136 186 220 284 351 417
#
# _framework density 22.665545999999999
#
# number of rings (size 3 to 8) (size 9 to 14) (size 15 to 20)
#    0.000    1.143    1.429    3.857   10.000    2.857 
#    0.000    0.000    0.000    0.000    0.000    0.000 
#    0.000    0.000    0.000    0.000    0.000    0.000 
#
# Total GULP energy -312387.084846 kJ/mol
# GULP energy per Si atom -5578.340801 kJ/mol
# Density = 2.261396 g / cm^3
# Si number density = 22.665546 Si / 1000 Ang^3
#
#
#
# Elastic Constant Matrix: (Units=GPa)
#
#
# Indices 1 2 3 4 5 6 
#
# 1 74.6589 26.3515 6.8630 0.0000 0.0000 0.0000
# 2 26.3515 91.6328 -1.1470 0.0000 0.0000 0.0000
# 3 6.8630 -1.1470 70.7676 0.0000 0.0000 0.0000
# 4 0.0000 0.0000 0.0000 17.8790 0.0000 0.0000
# 5 0.0000 0.0000 0.0000 0.0000 30.3622 0.0000
# 6 0.0000 0.0000 0.0000 0.0000 0.0000 40.8744
#
#
#
# Elastic Compliance Matrix: (Units=1/GPa)
#
#
# Indices 1 2 3 4 5 6 
#
# 1 0.015072 -0.004353 -0.001532 0.000000 0.000000 0.000000
# 2 -0.004353 0.012173 0.000619 0.000000 0.000000 0.000000
# 3 -0.001532 0.000619 0.014289 0.000000 0.000000 0.000000
# 4 0.000000 0.000000 0.000000 0.055931 0.000000 0.000000
# 5 0.000000 0.000000 0.000000 0.000000 0.032936 0.000000
# 6 0.000000 0.000000 0.000000 0.000000 0.000000 0.024465
#
#
# Mechanical properties :
#
#
# Convention : Reuss Voigt Hill
#
# Bulk Modulus (GPa) = 32.25640 33.46601 32.86121
# Shear Modulus (GPa) = 28.45234 31.48923 29.97078
#
# Velocity S-wave (km/s) = 3.54688 3.73137 3.64030
# Velocity P-wave (km/s) = 5.57101 5.77593 5.67440
#
# Compressibility (1/GPa) = 0.03100160
#
# Stress axis : x y z
#
# Youngs Moduli (GPa) = 66.34953 82.15013 69.98198
#
# Poissons Ratio (x) = 0.35764 0.10723
# Poissons Ratio (y) = 0.28885 -0.04335
# Poissons Ratio (z) = 0.10166 -0.05089
#
# Static dielectric constant tensor:
#      x y z
#    x 1.918240 0.000000 0.000000 
#    y 0.000000 1.845150 0.000000 
#    z 0.000000 0.000000 1.882590 
# 
# From -- ./inp_files/29571.got.cif
#   From: 2010.05.17/outbox.cif.g08.bks.cpg/sg73_15_cif.got.tgz:29571.got - 2010.06.03 17:35:07.
