data_PCOD9532605
_publ_section_title
;
Structure prediction by ZEFSAII (Michael W. Deem and Ramdas Pophale) SiO2 
 PCOD9532605
Probable space group: I B C A 
;
_chemical_formula_sum "Si O2"
_cell_formula_units_Z 96
_cell_length_a 9.723081
_cell_length_b 26.938580
_cell_length_c 17.842753
_cell_angle_alpha 90.000000
_cell_angle_beta 90.000000
_cell_angle_gamma 90.000000
_cell_volume 4673.480840
_symmetry_space_group_name_H-M "I B C A "
_symmetry_group_IT_number 73
_symmetry_cell_setting 'orthorhombic'
loop_
_space_group_symop_operation_xyz
x,y,z
-x,1/2-y,z
x,-y,1/2-z
1/2-x,y,-z
-x,-y,-z
x,1/2+y,-z
-x,y,1/2+z
1/2+x,-y,z
1/2+x,1/2+y,1/2+z
1/2-x,-y,1/2+z
1/2+x,1/2-y,-z
-x,1/2+y,1/2-z
1/2-x,1/2-y,1/2-z
1/2+x,y,1/2-z
1/2-x,1/2+y,z
x,1/2-y,1/2+z
loop_
_atom_site_type_symbol
_atom_site_label
_atom_site_fract_x
_atom_site_fract_y
_atom_site_fract_z
Si Si1 0.899773 0.608344 0.189018
Si Si2 0.873300 0.576578 0.897908
Si Si3 0.250000 0.850813 0.000000
Si Si4 0.126745 0.474662 0.328719
Si Si5 0.662725 0.611097 0.648433
Si Si6 0.250000 0.171233 0.000000
Si Si7 0.014364 0.303873 0.908426
O O1 0.769962 0.591728 0.139679
O O2 0.831450 0.629113 0.265494
O O3 0.992662 0.650716 0.150154
O O4 0.994705 0.559143 0.190846
O O5 0.865554 0.609333 0.972948
O O6 0.891011 0.517440 0.891331
O O7 0.002796 0.598111 0.855582
O O8 0.336176 0.814839 0.945455
O O9 0.166710 0.500000 0.250000
O O10 0.246942 0.438468 0.354231
O O11 0.704368 0.642179 0.575609
O O12 0.108251 0.196136 0.970191
O O13 0.000000 0.250000 0.871436
#
# Coordination Sequence:
#
# PCOD9532605 Si02
#       7
#    16  16   8  16  16   8  16
#     4  11  23  42  67  96 134 175 228 278 323 402
#     4  11  23  37  64  95 134 179 218 259 335 400
#     4  10  23  45  64  94 136 176 217 285 338 412
#     4  12  22  38  66 100 135 181 225 266 329 408
#     4  12  23  42  64  96 138 175 223 274 333 392
#     4  12  25  45  68 102 130 174 217 291 342 396
#     4  11  24  47  72  96 129 177 228 285 349 397
#
# _framework density 20.541433999999999
#
# number of rings (size 3 to 8) (size 9 to 14) (size 15 to 20)
#    0.000    0.667    6.667    1.500    0.000    0.667 
#    0.000    5.000    0.000    0.000    0.000    0.000 
#    0.000    0.000    0.000    0.000    0.000    0.000 
#
# Total GULP energy -267278.446780 kJ/mol
# GULP energy per Si atom -5568.300975 kJ/mol
# Density = 2.049468 g / cm^3
# Si number density = 20.541434 Si / 1000 Ang^3
#
#
#
# Elastic Constant Matrix: (Units=GPa)
#
#
# Indices 1 2 3 4 5 6 
#
# 1 54.2436 4.3481 -2.7058 0.0000 0.0000 0.0000
# 2 4.3481 82.3416 19.3208 0.0000 0.0000 0.0000
# 3 -2.7058 19.3208 52.3669 -0.0001 0.0000 0.0000
# 4 0.0000 0.0000 -0.0001 17.1510 0.0000 0.0000
# 5 0.0000 0.0000 0.0000 0.0000 35.6942 0.0000
# 6 0.0000 0.0000 0.0000 0.0000 0.0000 23.2092
#
#
#
# Elastic Compliance Matrix: (Units=1/GPa)
#
#
# Indices 1 2 3 4 5 6 
#
# 1 0.018614 -0.001323 0.001450 0.000000 0.000000 0.000000
# 2 -0.001323 0.013390 -0.005008 0.000000 0.000000 0.000000
# 3 0.001450 -0.005008 0.021019 0.000000 0.000000 0.000000
# 4 0.000000 0.000000 0.000000 0.058306 0.000000 0.000000
# 5 0.000000 0.000000 0.000000 0.000000 0.028016 0.000000
# 6 0.000000 0.000000 0.000000 0.000000 0.000000 0.043086
#
#
# Mechanical properties :
#
#
# Convention : Reuss Voigt Hill
#
# Bulk Modulus (GPa) = 23.11665 25.65314 24.38490
# Shear Modulus (GPa) = 24.19987 26.41016 25.30501
#
# Velocity S-wave (km/s) = 3.43607 3.58956 3.51365
# Velocity P-wave (km/s) = 5.19810 5.44936 5.32521
#
# Compressibility (1/GPa) = 0.04325886
#
# Stress axis : x y z
#
# Youngs Moduli (GPa) = 53.72374 74.68490 47.57643
#
# Poissons Ratio (x) = 0.09882 -0.06898
# Poissons Ratio (y) = 0.07108 0.23828
# Poissons Ratio (z) = -0.07790 0.37406
#
# Static dielectric constant tensor:
#      x y z
#    x 1.737660 0.000000 0.000000 
#    y 0.000000 1.760460 0.000000 
#    z 0.000000 0.000000 1.879680 
# 
# From -- ./inp_files/24912.got.cif
#   From: 2010.05.17/outbox.cif.g08.bks.cpg/sg73_13_cif.got.tgz:24912.got - 2010.06.03 17:35:07.
