data_PCOD9532078
_publ_section_title
;
Structure prediction by ZEFSAII (Michael W. Deem and Ramdas Pophale) SiO2 
 PCOD9532078
Probable space group: I B C A 
;
_chemical_formula_sum "Si O2"
_cell_formula_units_Z 104
_cell_length_a 27.533347
_cell_length_b 23.131461
_cell_length_c 8.179294
_cell_angle_alpha 90.000000
_cell_angle_beta 90.000000
_cell_angle_gamma 90.000000
_cell_volume 5209.282274
_symmetry_space_group_name_H-M "I B C A "
_symmetry_group_IT_number 73
_symmetry_cell_setting 'orthorhombic'
loop_
_space_group_symop_operation_xyz
x,y,z
-x,1/2-y,z
x,-y,1/2-z
1/2-x,y,-z
-x,-y,-z
x,1/2+y,-z
-x,y,1/2+z
1/2+x,-y,z
1/2+x,1/2+y,1/2+z
1/2-x,-y,1/2+z
1/2+x,1/2-y,-z
-x,1/2+y,1/2-z
1/2-x,1/2-y,1/2-z
1/2+x,y,1/2-z
1/2-x,1/2+y,z
x,1/2-y,1/2+z
loop_
_atom_site_type_symbol
_atom_site_label
_atom_site_fract_x
_atom_site_fract_y
_atom_site_fract_z
Si Si1 0.094129 0.181125 0.010998
Si Si2 0.131670 0.000000 0.250000
Si Si3 0.806976 0.533534 0.973080
Si Si4 0.854447 0.082365 0.317060
Si Si5 0.948116 0.218668 0.172970
Si Si6 0.052894 0.078353 0.210138
Si Si7 0.552547 0.587562 0.092835
O O1 0.135771 0.139895 0.927461
O O2 0.060852 0.200582 0.859674
O O3 0.096681 0.241319 0.110880
O O4 0.065887 0.140216 0.137417
O O5 0.165709 0.041680 0.355375
O O6 0.095066 0.037764 0.140720
O O7 0.819475 0.583810 0.843452
O O8 0.830020 0.472378 0.909526
O O9 0.750000 0.527372 0.000000
O O10 0.906077 0.070862 0.224316
O O11 0.948913 0.157296 0.084420
O O12 0.000000 0.250000 0.156857
O O13 0.058491 0.072157 0.403937
O O14 0.998816 0.064356 0.156144
#
# Coordination Sequence:
#
# PCOD9532078 Si02
#       7
#    16   8  16  16  16  16  16
#     4  11  22  37  59  90 131 170 217 270 310 359
#     4  12  24  40  62  90 124 170 212 268 318 412
#     4  11  23  44  70  94 122 157 211 272 336 392
#     4  10  22  41  64  95 131 158 211 267 319 394
#     4  11  21  34  59  88 121 174 222 262 299 369
#     4  12  24  38  57  87 131 180 217 257 317 373
#     4  11  23  38  59  87 131 175 215 261 311 373
#
# _framework density 19.964362000000001
#
# number of rings (size 3 to 8) (size 9 to 14) (size 15 to 20)
#    0.000    0.923    4.615    4.154    0.000    1.846 
#    0.000    0.000    0.000    0.000    0.000   12.923 
#    0.000    0.000    0.000    0.000    0.000    0.000 
#
# Total GULP energy -289702.720690 kJ/mol
# GULP energy per Si atom -5571.206167 kJ/mol
# Density = 1.991892 g / cm^3
# Si number density = 19.964362 Si / 1000 Ang^3
#
#
#
# Elastic Constant Matrix: (Units=GPa)
#
#
# Indices 1 2 3 4 5 6 
#
# 1 141.0080 36.2941 28.9070 0.0000 0.0000 0.0000
# 2 36.2941 95.2790 18.7844 0.0000 0.0000 0.0000
# 3 28.9070 18.7844 65.0599 0.0000 0.0000 0.0000
# 4 0.0000 0.0000 0.0000 18.8440 0.0000 0.0000
# 5 0.0000 0.0000 0.0000 0.0000 17.4274 0.0000
# 6 0.0000 0.0000 0.0000 0.0000 0.0000 17.6169
#
#
#
# Elastic Compliance Matrix: (Units=1/GPa)
#
#
# Indices 1 2 3 4 5 6 
#
# 1 0.008370 -0.002603 -0.002967 0.000000 0.000000 0.000000
# 2 -0.002603 0.011939 -0.002290 0.000000 0.000000 0.000000
# 3 -0.002967 -0.002290 0.017350 0.000000 0.000000 0.000000
# 4 0.000000 0.000000 0.000000 0.053067 0.000000 0.000000
# 5 0.000000 0.000000 0.000000 0.000000 0.057381 0.000000
# 6 0.000000 0.000000 0.000000 0.000000 0.000000 0.056764
#
#
# Mechanical properties :
#
#
# Convention : Reuss Voigt Hill
#
# Bulk Modulus (GPa) = 45.58499 52.14643 48.86571
# Shear Modulus (GPa) = 21.93892 25.26841 23.60366
#
# Velocity S-wave (km/s) = 3.31857 3.56149 3.44217
# Velocity P-wave (km/s) = 6.12916 6.56420 6.35041
#
# Compressibility (1/GPa) = 0.02193705
#
# Stress axis : x y z
#
# Youngs Moduli (GPa) = 119.47150 83.76105 57.63645
#
# Poissons Ratio (x) = 0.21806 0.17103
# Poissons Ratio (y) = 0.31103 0.13200
# Poissons Ratio (z) = 0.35451 0.19184
#
# Static dielectric constant tensor:
#      x y z
#    x 1.691850 0.000000 0.000000 
#    y 0.000000 1.819910 0.000000 
#    z 0.000000 0.000000 1.830300 
# 
# From -- ./inp_files/7309.got.cif
#   From: 2010.05.17/outbox.cif.g08.bks.cpg/sg73_4_cif.got.tgz:7309.got - 2010.06.03 17:35:07.
