data_PCOD9532956
_publ_section_title
;
Structure prediction by ZEFSAII (Michael W. Deem and Ramdas Pophale) SiO2 
 PCOD9532956
Probable space group: I B C A 
;
_chemical_formula_sum "Si O2"
_cell_formula_units_Z 120
_cell_length_a 20.883777
_cell_length_b 24.343596
_cell_length_c 11.003659
_cell_angle_alpha 90.000000
_cell_angle_beta 90.000000
_cell_angle_gamma 90.000000
_cell_volume 5594.108718
_symmetry_space_group_name_H-M "I B C A "
_symmetry_group_IT_number 73
_symmetry_cell_setting 'orthorhombic'
loop_
_space_group_symop_operation_xyz
x,y,z
-x,1/2-y,z
x,-y,1/2-z
1/2-x,y,-z
-x,-y,-z
x,1/2+y,-z
-x,y,1/2+z
1/2+x,-y,z
1/2+x,1/2+y,1/2+z
1/2-x,-y,1/2+z
1/2+x,1/2-y,-z
-x,1/2+y,1/2-z
1/2-x,1/2-y,1/2-z
1/2+x,y,1/2-z
1/2-x,1/2+y,z
x,1/2-y,1/2+z
loop_
_atom_site_type_symbol
_atom_site_label
_atom_site_fract_x
_atom_site_fract_y
_atom_site_fract_z
Si Si1 0.321608 0.232273 0.720594
Si Si2 0.312213 0.846322 0.569366
Si Si3 0.000000 0.250000 0.534277
Si Si4 0.337398 0.442090 0.272793
Si Si5 0.407824 0.326111 0.621357
Si Si6 0.942173 0.639941 0.862499
Si Si7 0.979071 0.967953 0.876038
Si Si8 0.823638 0.631614 0.039914
O O1 0.250000 0.250000 0.750000
O O2 0.342371 0.197731 0.838424
O O3 0.361087 0.286451 0.697156
O O4 0.324927 0.191257 0.606033
O O5 0.250000 0.824326 0.500000
O O6 0.296428 0.899530 0.648076
O O7 0.365167 0.859671 0.471256
O O8 0.046895 0.284493 0.448798
O O9 0.034050 0.201742 0.609323
O O10 0.304168 0.500000 0.250000
O O11 0.403647 0.456343 0.344003
O O12 0.346830 0.411321 0.143694
O O13 0.441006 0.364454 0.717458
O O14 0.990074 0.591881 0.899227
O O15 0.874236 0.631488 0.929971
O O16 0.000866 0.000000 0.750000
O O17 0.000000 0.000000 0.000000
O O18 0.750000 0.620956 0.000000
#
# Coordination Sequence:
#
# PCOD9532956 Si02
#       8
#    16  16   8  16  16  16  16  16
#     4  11  22  40  65  95 140 188 227 273 336 423
#     4  11  24  40  67 100 135 176 229 281 339 421
#     4  12  26  44  64 104 148 184 224 286 366 420
#     4  10  24  47  72  94 135 179 229 297 364 418
#     4  12  25  39  67 101 140 183 225 280 348 418
#     4  12  26  44  71 102 144 181 238 297 355 438
#     4  11  26  49  79 104 137 193 251 306 370 439
#     4  11  25  44  68 103 140 189 236 289 360 435
#
# _framework density 21.451138
#
# number of rings (size 3 to 8) (size 9 to 14) (size 15 to 20)
#    0.000    0.800    2.667    4.400    9.333    1.600 
#    0.000    0.667    0.000    0.000    0.000    0.000 
#    0.000    0.000    0.000    0.000    0.000    0.000 
#
# Total GULP energy -335144.219741 kJ/mol
# GULP energy per Si atom -5585.736996 kJ/mol
# Density = 2.140231 g / cm^3
# Si number density = 21.451138 Si / 1000 Ang^3
#
#
#
# Elastic Constant Matrix: (Units=GPa)
#
#
# Indices 1 2 3 4 5 6 
#
# 1 49.9489 -14.2083 12.0395 0.0000 0.0000 0.0000
# 2 -14.2083 76.9952 17.7228 0.0000 0.0000 0.0000
# 3 12.0395 17.7228 107.8928 0.0000 0.0000 0.0000
# 4 0.0000 0.0000 0.0000 19.8009 0.0000 0.0000
# 5 0.0000 0.0000 0.0000 0.0000 34.4638 0.0000
# 6 0.0000 0.0000 0.0000 0.0000 0.0000 22.0660
#
#
#
# Elastic Compliance Matrix: (Units=1/GPa)
#
#
# Indices 1 2 3 4 5 6 
#
# 1 0.022188 0.004848 -0.003272 0.000000 0.000000 0.000000
# 2 0.004848 0.014557 -0.002932 0.000000 0.000000 0.000000
# 3 -0.003272 -0.002932 0.010115 0.000000 0.000000 0.000000
# 4 0.000000 0.000000 0.000000 0.050503 0.000000 0.000000
# 5 0.000000 0.000000 0.000000 0.000000 0.029016 0.000000
# 6 0.000000 0.000000 0.000000 0.000000 0.000000 0.045319
#
#
# Mechanical properties :
#
#
# Convention : Reuss Voigt Hill
#
# Bulk Modulus (GPa) = 22.65145 29.54942 26.10044
# Shear Modulus (GPa) = 26.43727 29.88502 28.16114
#
# Velocity S-wave (km/s) = 3.51442 3.73656 3.62719
# Velocity P-wave (km/s) = 5.20103 5.69395 5.45306
#
# Compressibility (1/GPa) = 0.04414728
#
# Stress axis : x y z
#
# Youngs Moduli (GPa) = 45.06919 68.69399 98.86076
#
# Poissons Ratio (x) = -0.33301 0.32349
# Poissons Ratio (y) = -0.21848 0.28988
# Poissons Ratio (z) = 0.14748 0.20142
#
# Static dielectric constant tensor:
#      x y z
#    x 1.778810 0.000000 0.000000 
#    y 0.000000 1.772830 0.000000 
#    z 0.000000 0.000000 1.833880 
# 
# From -- ./inp_files/13125.got.cif
#   From: 2010.05.17/outbox.cif.g08.bks.cpg/sg73_7_cif.got.tgz:13125.got - 2010.06.03 17:35:07.
