data_PCOD9532505
_publ_section_title
;
Structure prediction by ZEFSAII (Michael W. Deem and Ramdas Pophale) SiO2 
 PCOD9532505
Probable space group: I B C A 
;
_chemical_formula_sum "Si O2"
_cell_formula_units_Z 88
_cell_length_a 11.101079
_cell_length_b 28.826327
_cell_length_c 13.891804
_cell_angle_alpha 90.000000
_cell_angle_beta 90.000000
_cell_angle_gamma 90.000000
_cell_volume 4445.423586
_symmetry_space_group_name_H-M "I B C A "
_symmetry_group_IT_number 73
_symmetry_cell_setting 'orthorhombic'
loop_
_space_group_symop_operation_xyz
x,y,z
-x,1/2-y,z
x,-y,1/2-z
1/2-x,y,-z
-x,-y,-z
x,1/2+y,-z
-x,y,1/2+z
1/2+x,-y,z
1/2+x,1/2+y,1/2+z
1/2-x,-y,1/2+z
1/2+x,1/2-y,-z
-x,1/2+y,1/2-z
1/2-x,1/2-y,1/2-z
1/2+x,y,1/2-z
1/2-x,1/2+y,z
x,1/2-y,1/2+z
loop_
_atom_site_type_symbol
_atom_site_label
_atom_site_fract_x
_atom_site_fract_y
_atom_site_fract_z
Si Si1 0.127951 0.277896 0.228478
Si Si2 0.211644 0.935764 0.601255
Si Si3 0.376422 0.844298 0.048053
Si Si4 0.959123 0.093644 0.685043
Si Si5 0.581414 0.500000 0.250000
Si Si6 0.534614 0.146779 0.630724
O O1 0.250000 0.250000 0.250000
O O2 0.114594 0.315842 0.313326
O O3 0.000000 0.250000 0.228424
O O4 0.140942 0.303049 0.124893
O O5 0.250000 0.956402 0.500000
O O6 0.326316 0.909610 0.644210
O O7 0.110944 0.896240 0.589731
O O8 0.163455 0.975333 0.670720
O O9 0.459690 0.831907 0.956628
O O10 0.250000 0.859179 0.000000
O O11 0.446106 0.883155 0.111245
O O12 0.002190 0.041568 0.707329
O O13 0.957109 0.123780 0.782923
#
# Coordination Sequence:
#
# PCOD9532505 Si02
#       6
#    16  16  16  16   8  16
#     4  11  26  44  69 101 135 170 216 277 335 393
#     4  11  22  42  67  94 128 173 222 268 323 392
#     4  11  24  42  68  95 128 174 217 265 329 399
#     4  10  23  42  63  95 128 173 215 269 329 378
#     4  10  24  40  60  98 134 168 210 278 326 386
#     4  10  24  42  68  91 131 171 218 264 326 396
#
# _framework density 19.795639999999999
#
# number of rings (size 3 to 8) (size 9 to 14) (size 15 to 20)
#    0.000    1.455    1.818    1.636   12.727    3.636 
#    0.000    0.000    0.000    0.000    0.000    0.000 
#    0.000    0.000    0.000    0.000    0.000    0.000 
#
# Total GULP energy -245720.728442 kJ/mol
# GULP energy per Si atom -5584.562010 kJ/mol
# Density = 1.975058 g / cm^3
# Si number density = 19.795640 Si / 1000 Ang^3
#
#
#
# Elastic Constant Matrix: (Units=GPa)
#
#
# Indices 1 2 3 4 5 6 
#
# 1 68.3971 12.9664 42.9963 -0.0001 -0.0001 0.0000
# 2 12.9664 70.4984 33.3465 0.0000 0.0000 0.0000
# 3 42.9963 33.3465 127.7892 -0.0009 -0.0007 0.0000
# 4 -0.0001 0.0000 -0.0009 22.3574 -0.0002 0.0000
# 5 -0.0001 0.0000 -0.0007 -0.0002 24.6598 0.0000
# 6 0.0000 0.0000 0.0000 0.0000 0.0000 10.6654
#
#
#
# Elastic Compliance Matrix: (Units=1/GPa)
#
#
# Indices 1 2 3 4 5 6 
#
# 1 0.018559 -0.000525 -0.006108 0.000000 0.000000 0.000000
# 2 -0.000525 0.016197 -0.004050 0.000000 0.000000 0.000000
# 3 -0.006108 -0.004050 0.010937 0.000000 0.000000 0.000000
# 4 0.000000 0.000000 0.000000 0.044728 0.000000 0.000000
# 5 0.000000 0.000000 0.000000 0.000000 0.040552 0.000000
# 6 0.000000 0.000000 0.000000 0.000000 0.000000 0.093761
#
#
# Mechanical properties :
#
#
# Convention : Reuss Voigt Hill
#
# Bulk Modulus (GPa) = 41.10323 49.47812 45.29067
# Shear Modulus (GPa) = 19.66886 23.36154 21.51520
#
# Velocity S-wave (km/s) = 3.15555 3.43904 3.30034
# Velocity P-wave (km/s) = 5.83828 6.38890 6.11979
#
# Compressibility (1/GPa) = 0.02432899
#
# Stress axis : x y z
#
# Youngs Moduli (GPa) = 53.88113 61.74007 91.43065
#
# Poissons Ratio (x) = 0.03239 0.55843
# Poissons Ratio (y) = 0.02826 0.37030
# Poissons Ratio (z) = 0.32909 0.25005
#
# Static dielectric constant tensor:
#      x y z
#    x 1.704140 0.000000 0.000000 
#    y 0.000000 1.676210 0.000000 
#    z 0.000000 0.000000 1.679380 
# 
# From -- ./inp_files/9857.got.cif
#   From: 2010.05.17/outbox.cif.g08.bks.cpg/sg73_5_cif.got.tgz:9857.got - 2010.06.03 17:35:07.
