data_PCOD9532788
_publ_section_title
;
Structure prediction by ZEFSAII (Michael W. Deem and Ramdas Pophale) SiO2 
 PCOD9532788
Probable space group: I B C A 
;
_chemical_formula_sum "Si O2"
_cell_formula_units_Z 56
_cell_length_a 11.993381
_cell_length_b 8.972972
_cell_length_c 21.306253
_cell_angle_alpha 90.000000
_cell_angle_beta 90.000000
_cell_angle_gamma 90.000000
_cell_volume 2292.899516
_symmetry_space_group_name_H-M "I B C A "
_symmetry_group_IT_number 73
_symmetry_cell_setting 'orthorhombic'
loop_
_space_group_symop_operation_xyz
x,y,z
-x,1/2-y,z
x,-y,1/2-z
1/2-x,y,-z
-x,-y,-z
x,1/2+y,-z
-x,y,1/2+z
1/2+x,-y,z
1/2+x,1/2+y,1/2+z
1/2-x,-y,1/2+z
1/2+x,1/2-y,-z
-x,1/2+y,1/2-z
1/2-x,1/2-y,1/2-z
1/2+x,y,1/2-z
1/2-x,1/2+y,z
x,1/2-y,1/2+z
loop_
_atom_site_type_symbol
_atom_site_label
_atom_site_fract_x
_atom_site_fract_y
_atom_site_fract_z
Si Si1 0.250000 0.617699 0.000000
Si Si2 0.510243 0.025444 0.676221
Si Si3 0.308268 0.777482 0.816800
Si Si4 0.363752 0.356126 0.921493
O O1 0.308319 0.504183 0.951471
O O2 0.151677 0.727965 0.974336
O O3 0.382139 0.073515 0.679233
O O4 0.601137 0.154125 0.664579
O O5 0.536557 0.000000 0.750000
O O6 0.529454 0.909565 0.619488
O O7 0.250000 0.750000 0.750000
O O8 0.213645 0.791643 0.867163
#
# Coordination Sequence:
#
# PCOD9532788 Si02
#       4
#     8  16  16  16
#     4  10  24  42  72  96 142 204 244 302 350 412
#     4  11  24  40  69 108 137 187 234 290 380 440
#     4  11  24  43  69 105 147 179 231 306 372 440
#     4  11  22  46  68 101 143 194 241 295 357 427
#
# _framework density 24.423226
#
# number of rings (size 3 to 8) (size 9 to 14) (size 15 to 20)
#    0.000    1.143    5.714    0.000    4.000    0.000 
#    0.000    8.571    0.000    0.000    0.000    0.000 
#    0.000    0.000    0.000    0.000    0.000    0.000 
#
# Total GULP energy -156296.007278 kJ/mol
# GULP energy per Si atom -5582.000260 kJ/mol
# Density = 2.436764 g / cm^3
# Si number density = 24.423226 Si / 1000 Ang^3
#
#
#
# Elastic Constant Matrix: (Units=GPa)
#
#
# Indices 1 2 3 4 5 6 
#
# 1 78.5925 9.5548 5.3242 0.0000 0.0000 0.0000
# 2 9.5548 96.7812 32.4120 0.0000 0.0000 0.0000
# 3 5.3242 32.4120 96.4108 0.0000 0.0000 0.0000
# 4 0.0000 0.0000 0.0000 42.8029 0.0000 0.0000
# 5 0.0000 0.0000 0.0000 0.0000 22.2383 0.0000
# 6 0.0000 0.0000 0.0000 0.0000 0.0000 -70.4716
#
#
#
# Elastic Compliance Matrix: (Units=1/GPa)
#
#
# Indices 1 2 3 4 5 6 
#
# 1 0.012887 -0.001165 -0.000320 0.000000 0.000000 0.000000
# 2 -0.001165 0.011749 -0.003885 0.000000 0.000000 0.000000
# 3 -0.000320 -0.003885 0.011696 0.000000 0.000000 0.000000
# 4 0.000000 0.000000 0.000000 0.023363 0.000000 0.000000
# 5 0.000000 0.000000 0.000000 0.000000 0.044967 0.000000
# 6 0.000000 0.000000 0.000000 0.000000 0.000000 -0.014190
#
#
# Mechanical properties :
#
#
# Convention : Reuss Voigt Hill
#
# Bulk Modulus (GPa) = 39.07612 40.70739 39.89176
# Shear Modulus (GPa) = 45.56055 13.88014 29.72034
#
# Velocity S-wave (km/s) = 4.32378 2.38653 3.49218
# Velocity P-wave (km/s) = 6.40009 4.92927 5.71221
#
# Compressibility (1/GPa) = 0.02559108
#
# Stress axis : x y z
#
# Youngs Moduli (GPa) = 77.59641 85.11470 85.49793
#
# Poissons Ratio (x) = 0.09917 0.02736
# Poissons Ratio (y) = 0.09041 0.33220
# Poissons Ratio (z) = 0.02483 0.33071
#
# Static dielectric constant tensor:
#      x y z
#    x 2.001760 0.000000 0.000000 
#    y 0.000000 2.195870 0.000000 
#    z 0.000000 0.000000 2.000010 
# 
# From -- ./inp_files/12424.got.cif
#   From: 2010.05.17/outbox.cif.g08.bks.cpg/sg73_7_cif.got.tgz:12424.got - 2010.06.03 17:35:07.
