data_PCOD9532752
_publ_section_title
;
Structure prediction by ZEFSAII (Michael W. Deem and Ramdas Pophale) SiO2 
 PCOD9532752
Probable space group: I B C A 
;
_chemical_formula_sum "Si O2"
_cell_formula_units_Z 88
_cell_length_a 8.333907
_cell_length_b 22.368197
_cell_length_c 21.485864
_cell_angle_alpha 90.000000
_cell_angle_beta 90.000000
_cell_angle_gamma 90.000000
_cell_volume 4005.276026
_symmetry_space_group_name_H-M "I B C A "
_symmetry_group_IT_number 73
_symmetry_cell_setting 'orthorhombic'
loop_
_space_group_symop_operation_xyz
x,y,z
-x,1/2-y,z
x,-y,1/2-z
1/2-x,y,-z
-x,-y,-z
x,1/2+y,-z
-x,y,1/2+z
1/2+x,-y,z
1/2+x,1/2+y,1/2+z
1/2-x,-y,1/2+z
1/2+x,1/2-y,-z
-x,1/2+y,1/2-z
1/2-x,1/2-y,1/2-z
1/2+x,y,1/2-z
1/2-x,1/2+y,z
x,1/2-y,1/2+z
loop_
_atom_site_type_symbol
_atom_site_label
_atom_site_fract_x
_atom_site_fract_y
_atom_site_fract_z
Si Si1 0.250000 0.519787 0.000000
Si Si2 0.363412 0.298620 0.186809
Si Si3 0.359779 0.630774 0.778180
Si Si4 0.649487 0.796394 0.565043
Si Si5 0.454980 0.434467 0.930280
Si Si6 0.576920 0.450304 0.802433
O O1 0.404368 0.558134 0.018693
O O2 0.199066 0.472898 0.052556
O O3 0.500000 0.250000 0.202679
O O4 0.488644 0.353422 0.178710
O O5 0.247734 0.317977 0.243920
O O6 0.263035 0.283220 0.125288
O O7 0.439014 0.593797 0.722481
O O8 0.235575 0.588456 0.811954
O O9 0.500000 0.750000 0.563727
O O10 0.750000 0.793176 0.500000
O O11 0.586434 0.864398 0.575205
O O12 0.519438 0.467988 0.869432
O O13 0.602271 0.500000 0.750000
#
# Coordination Sequence:
#
# PCOD9532752 Si02
#       6
#     8  16  16  16  16  16
#     4  10  26  46  76  98 132 200 232 302 356 436
#     4  11  24  44  70  99 142 186 236 293 358 424
#     4  10  24  42  66 102 138 184 228 291 358 434
#     4  12  28  49  74 107 147 193 249 306 362 437
#     4  11  25  48  71 103 145 183 249 292 369 431
#     4  11  24  41  68 105 139 182 230 298 362 429
#
# _framework density 21.971019999999999
#
# number of rings (size 3 to 8) (size 9 to 14) (size 15 to 20)
#    0.000    1.091    2.727    1.636    8.909    2.182 
#    0.000    0.000    0.000    0.000    0.000    0.000 
#    0.000    0.000    0.000    0.000    0.000    0.000 
#
# Total GULP energy -245486.358573 kJ/mol
# GULP energy per Si atom -5579.235422 kJ/mol
# Density = 2.192101 g / cm^3
# Si number density = 21.971020 Si / 1000 Ang^3
#
#
#
# Elastic Constant Matrix: (Units=GPa)
#
#
# Indices 1 2 3 4 5 6 
#
# 1 126.9889 38.6831 38.4621 0.0000 0.0001 0.0000
# 2 38.6831 74.3873 11.3813 0.0000 0.0001 0.0000
# 3 38.4621 11.3813 73.1936 0.0000 0.0000 0.0000
# 4 0.0000 0.0000 0.0000 27.3983 0.0000 0.0000
# 5 0.0001 0.0001 0.0000 0.0000-2123.1406 -0.0001
# 6 0.0000 0.0000 0.0000 0.0000 -0.0001 55.6370
#
#
#
# Elastic Compliance Matrix: (Units=1/GPa)
#
#
# Indices 1 2 3 4 5 6 
#
# 1 0.010864 -0.004892 -0.004948 0.000000 0.000000 0.000000
# 2 -0.004892 0.015974 0.000087 0.000000 0.000000 0.000000
# 3 -0.004948 0.000087 0.016249 0.000000 0.000000 0.000000
# 4 0.000000 0.000000 0.000000 0.036499 0.000000 0.000000
# 5 0.000000 0.000000 0.000000 0.000000 -0.000471 0.000000
# 6 0.000000 0.000000 0.000000 0.000000 0.000000 0.017974
#
#
# Mechanical properties :
#
#
# Convention : Reuss Voigt Hill
#
# Bulk Modulus (GPa) = 42.40891 50.18030 46.29461
# Shear Modulus (GPa) = 40.17541 -395.61818 -177.72139
#
# Velocity S-wave (km/s) = 4.28081 -13.43334 -9.00359
# Velocity P-wave (km/s) = 6.61649 14.75524 9.32575
#
# Compressibility (1/GPa) = 0.02357995
#
# Stress axis : x y z
#
# Youngs Moduli (GPa) = 92.05054 62.60188 61.54250
#
# Poissons Ratio (x) = 0.30627 0.30451
# Poissons Ratio (y) = 0.45034 -0.00535
# Poissons Ratio (z) = 0.45546 -0.00544
#
# Static dielectric constant tensor:
#      x y z
#    x 1.874260 0.000000 0.000000 
#    y 0.000000 1.930470 0.000000 
#    z 0.000000 0.000000 1.840710 
# 
# From -- ./inp_files/28325.got.cif
#   From: 2010.05.17/outbox.cif.g08.bks.cpg/sg73_15_cif.got.tgz:28325.got - 2010.06.03 17:35:07.
