data_PCOD9532048
_publ_section_title
;
Structure prediction by ZEFSAII (Michael W. Deem and Ramdas Pophale) SiO2 
 PCOD9532048
Probable space group: I B C A 
;
_chemical_formula_sum "Si O2"
_cell_formula_units_Z 96
_cell_length_a 8.761498
_cell_length_b 26.171150
_cell_length_c 18.380865
_cell_angle_alpha 90.000000
_cell_angle_beta 90.000000
_cell_angle_gamma 90.000000
_cell_volume 4214.704376
_symmetry_space_group_name_H-M "I B C A "
_symmetry_group_IT_number 73
_symmetry_cell_setting 'orthorhombic'
loop_
_space_group_symop_operation_xyz
x,y,z
-x,1/2-y,z
x,-y,1/2-z
1/2-x,y,-z
-x,-y,-z
x,1/2+y,-z
-x,y,1/2+z
1/2+x,-y,z
1/2+x,1/2+y,1/2+z
1/2-x,-y,1/2+z
1/2+x,1/2-y,-z
-x,1/2+y,1/2-z
1/2-x,1/2-y,1/2-z
1/2+x,y,1/2-z
1/2-x,1/2+y,z
x,1/2-y,1/2+z
loop_
_atom_site_type_symbol
_atom_site_label
_atom_site_fract_x
_atom_site_fract_y
_atom_site_fract_z
Si Si1 0.503033 0.305723 0.207709
Si Si2 0.823843 0.150891 0.166197
Si Si3 0.678354 0.049490 0.918317
Si Si4 0.424148 0.694861 0.520381
Si Si5 0.160339 0.159101 0.927041
Si Si6 0.187843 0.555644 0.917878
O O1 0.500000 0.250000 0.243456
O O2 0.333164 0.319852 0.183166
O O3 0.572665 0.347203 0.262153
O O4 0.616746 0.303223 0.137993
O O5 0.779564 0.096119 0.133937
O O6 0.925516 0.177437 0.103454
O O7 0.493967 0.050468 0.920141
O O8 0.738347 0.995704 0.886374
O O9 0.750000 0.055169 0.000000
O O10 0.500000 0.750000 0.509880
O O11 0.250000 0.699150 0.500000
O O12 0.498088 0.651909 0.467802
O O13 0.245468 0.110313 0.892725
O O14 0.250000 0.176664 0.000000
O O15 0.250000 0.556210 0.000000
#
# Coordination Sequence:
#
# PCOD9532048 Si02
#       6
#    16  16  16  16  16  16
#     4  12  29  50  71 103 145 204 238 299 365 444
#     4  12  28  46  73  99 150 189 246 290 370 441
#     4  11  24  43  75 110 142 188 242 300 367 433
#     4  12  25  43  69 108 139 187 242 308 357 431
#     4  11  25  43  75 103 146 181 242 304 366 423
#     4  10  22  40  72 108 150 181 233 303 369 437
#
# _framework density 22.777398000000002
#
# number of rings (size 3 to 8) (size 9 to 14) (size 15 to 20)
#    0.000    0.667    1.667    6.500   14.000    0.000 
#    0.000    0.833    0.000    0.000    0.000    0.000 
#    0.000    0.000    0.000    0.000    0.000    0.000 
#
# Total GULP energy -268198.611230 kJ/mol
# GULP energy per Si atom -5587.471067 kJ/mol
# Density = 2.272556 g / cm^3
# Si number density = 22.777398 Si / 1000 Ang^3
#
#
#
# Elastic Constant Matrix: (Units=GPa)
#
#
# Indices 1 2 3 4 5 6 
#
# 1 144.9583 55.2685 6.0888 0.0000 0.0000 0.0000
# 2 55.2685 107.1947 1.8404 0.0000 0.0000 0.0000
# 3 6.0888 1.8404 73.5149 0.0002 0.0000 0.0002
# 4 0.0000 0.0000 0.0002 60.4033 0.0000 0.0002
# 5 0.0000 0.0000 0.0000 0.0000 28.8100 0.0000
# 6 0.0000 0.0000 0.0002 0.0002 0.0000 35.1804
#
#
#
# Elastic Compliance Matrix: (Units=1/GPa)
#
#
# Indices 1 2 3 4 5 6 
#
# 1 0.008613 -0.004430 -0.000602 0.000000 0.000000 0.000000
# 2 -0.004430 0.011612 0.000076 0.000000 0.000000 0.000000
# 3 -0.000602 0.000076 0.013651 0.000000 0.000000 0.000000
# 4 0.000000 0.000000 0.000000 0.016555 0.000000 0.000000
# 5 0.000000 0.000000 0.000000 0.000000 0.034710 0.000000
# 6 0.000000 0.000000 0.000000 0.000000 0.000000 0.028425
#
#
# Mechanical properties :
#
#
# Convention : Reuss Voigt Hill
#
# Bulk Modulus (GPa) = 41.73236 50.22926 45.98081
# Shear Modulus (GPa) = 38.03242 42.37674 40.20458
#
# Velocity S-wave (km/s) = 4.09068 4.31800 4.20588
# Velocity P-wave (km/s) = 6.37755 6.85276 6.61942
#
# Compressibility (1/GPa) = 0.02396222
#
# Stress axis : x y z
#
# Youngs Moduli (GPa) = 116.10290 86.11917 73.25645
#
# Poissons Ratio (x) = 0.38155 0.04413
# Poissons Ratio (y) = 0.51439 -0.00559
# Poissons Ratio (z) = 0.06995 -0.00657
#
# Static dielectric constant tensor:
#      x y z
#    x 1.879370 0.000000 0.000000 
#    y 0.000000 1.911170 0.000000 
#    z 0.000000 0.000000 1.860830 
# 
# From -- ./inp_files/24894.got.cif
#   From: 2010.05.17/outbox.cif.g08.bks.cpg/sg73_13_cif.got.tgz:24894.got - 2010.06.03 17:35:07.
