data_PCOD9532066
_publ_section_title
;
Structure prediction by ZEFSAII (Michael W. Deem and Ramdas Pophale) SiO2 
 PCOD9532066
Probable space group: I B C A 
;
_chemical_formula_sum "Si O2"
_cell_formula_units_Z 112
_cell_length_a 18.981292
_cell_length_b 10.611994
_cell_length_c 23.339139
_cell_angle_alpha 90.000000
_cell_angle_beta 90.000000
_cell_angle_gamma 90.000000
_cell_volume 4701.187757
_symmetry_space_group_name_H-M "I B C A "
_symmetry_group_IT_number 73
_symmetry_cell_setting 'orthorhombic'
loop_
_space_group_symop_operation_xyz
x,y,z
-x,1/2-y,z
x,-y,1/2-z
1/2-x,y,-z
-x,-y,-z
x,1/2+y,-z
-x,y,1/2+z
1/2+x,-y,z
1/2+x,1/2+y,1/2+z
1/2-x,-y,1/2+z
1/2+x,1/2-y,-z
-x,1/2+y,1/2-z
1/2-x,1/2-y,1/2-z
1/2+x,y,1/2-z
1/2-x,1/2+y,z
x,1/2-y,1/2+z
loop_
_atom_site_type_symbol
_atom_site_label
_atom_site_fract_x
_atom_site_fract_y
_atom_site_fract_z
Si Si1 0.222337 0.066611 0.365815
Si Si2 0.083313 0.907521 0.641797
Si Si3 0.037532 0.928455 0.053057
Si Si4 0.656528 0.231674 0.547656
Si Si5 0.167787 0.776961 0.229161
Si Si6 0.650666 0.858912 0.074900
Si Si7 0.623694 0.834671 0.661555
O O1 0.203565 0.167364 0.416700
O O2 0.173640 0.101535 0.311308
O O3 0.300156 0.097880 0.344501
O O4 0.210739 0.924306 0.386319
O O5 0.135725 0.885967 0.587598
O O6 0.123178 0.821199 0.689036
O O7 0.009643 0.889882 0.607907
O O8 0.074595 0.046109 0.668205
O O9 0.083525 0.807524 0.035306
O O10 0.094257 0.031140 0.072182
O O11 0.000000 0.000000 0.000000
O O12 0.678973 0.179788 0.486609
O O13 0.250000 0.750000 0.250000
O O14 0.125750 0.766730 0.288151
O O15 0.614635 0.739223 0.103225
#
# Coordination Sequence:
#
# PCOD9532066 Si02
#       7
#    16  16  16  16  16  16  16
#     4   9  23  42  64  96 134 180 228 287 353 425
#     4  11  22  39  70  98 131 180 245 282 350 421
#     4  11  22  41  68  95 134 187 233 286 343 433
#     4  10  22  41  62  99 135 183 227 283 358 428
#     4   9  21  44  70  94 129 178 232 284 348 420
#     4  11  24  40  65  99 135 179 231 283 361 426
#     4  11  24  40  66 101 132 179 229 294 361 424
#
# _framework density 23.823768999999999
#
# number of rings (size 3 to 8) (size 9 to 14) (size 15 to 20)
#    0.000    1.714    1.429    1.714    8.000    2.857 
#    0.000    0.000   31.429    0.000    0.000    0.000 
#    0.000    0.000    0.000    0.000    0.000    0.000 
#
# Total GULP energy -312305.704360 kJ/mol
# GULP energy per Si atom -5576.887578 kJ/mol
# Density = 2.376954 g / cm^3
# Si number density = 23.823769 Si / 1000 Ang^3
#
#
#
# Elastic Constant Matrix: (Units=GPa)
#
#
# Indices 1 2 3 4 5 6 
#
# 1 78.5667 21.3915 23.3869 0.0000 0.0000 0.0000
# 2 21.3915 58.5327 4.9341 0.0000 0.0000 0.0000
# 3 23.3869 4.9341 119.5591 0.0000 0.0000 0.0000
# 4 0.0000 0.0000 0.0000 30.5378 0.0000 0.0000
# 5 0.0000 0.0000 0.0000 0.0000 28.5115 0.0000
# 6 0.0000 0.0000 0.0000 0.0000 0.0000 25.2772
#
#
#
# Elastic Compliance Matrix: (Units=1/GPa)
#
#
# Indices 1 2 3 4 5 6 
#
# 1 0.014961 -0.005239 -0.002710 0.000000 0.000000 0.000000
# 2 -0.005239 0.018979 0.000242 0.000000 0.000000 0.000000
# 3 -0.002710 0.000242 0.008884 0.000000 0.000000 0.000000
# 4 0.000000 0.000000 0.000000 0.032746 0.000000 0.000000
# 5 0.000000 0.000000 0.000000 0.000000 0.035074 0.000000
# 6 0.000000 0.000000 0.000000 0.000000 0.000000 0.039561
#
#
# Mechanical properties :
#
#
# Convention : Reuss Voigt Hill
#
# Bulk Modulus (GPa) = 36.48524 39.56484 38.02504
# Shear Modulus (GPa) = 28.61098 30.66169 29.63633
#
# Velocity S-wave (km/s) = 3.46922 3.59140 3.53084
# Velocity P-wave (km/s) = 5.60314 5.81729 5.71122
#
# Compressibility (1/GPa) = 0.02740835
#
# Stress axis : x y z
#
# Youngs Moduli (GPa) = 66.83883 52.69010 112.55851
#
# Poissons Ratio (x) = 0.27606 0.30507
# Poissons Ratio (y) = 0.35019 -0.02720
# Poissons Ratio (z) = 0.18116 -0.01273
#
# Static dielectric constant tensor:
#      x y z
#    x 2.104380 0.000000 0.000000 
#    y 0.000000 1.934160 0.000000 
#    z 0.000000 0.000000 1.905600 
# 
# From -- ./inp_files/30130.got.cif
#   From: 2010.05.17/outbox.cif.g08.bks.cpg/sg73_16_cif.got.tgz:30130.got - 2010.06.03 17:35:07.
