data_PCOD9532381
_publ_section_title
;
Structure prediction by ZEFSAII (Michael W. Deem and Ramdas Pophale) SiO2 
 PCOD9532381
Probable space group: I B C A 
;
_chemical_formula_sum "Si O2"
_cell_formula_units_Z 88
_cell_length_a 23.120197
_cell_length_b 15.440849
_cell_length_c 10.991697
_cell_angle_alpha 90.000000
_cell_angle_beta 90.000000
_cell_angle_gamma 90.000000
_cell_volume 3923.986045
_symmetry_space_group_name_H-M "I B C A "
_symmetry_group_IT_number 73
_symmetry_cell_setting 'orthorhombic'
loop_
_space_group_symop_operation_xyz
x,y,z
-x,1/2-y,z
x,-y,1/2-z
1/2-x,y,-z
-x,-y,-z
x,1/2+y,-z
-x,y,1/2+z
1/2+x,-y,z
1/2+x,1/2+y,1/2+z
1/2-x,-y,1/2+z
1/2+x,1/2-y,-z
-x,1/2+y,1/2-z
1/2-x,1/2-y,1/2-z
1/2+x,y,1/2-z
1/2-x,1/2+y,z
x,1/2-y,1/2+z
loop_
_atom_site_type_symbol
_atom_site_label
_atom_site_fract_x
_atom_site_fract_y
_atom_site_fract_z
Si Si1 0.750000 0.696072 0.000000
Si Si2 0.817180 0.908619 0.312099
Si Si3 0.569018 0.064523 0.973653
Si Si4 0.449407 0.372063 0.480447
Si Si5 0.618709 0.907594 0.266790
Si Si6 0.355794 0.270863 0.615131
O O1 0.734954 0.633827 0.112871
O O2 0.806100 0.756320 0.015468
O O3 0.871169 0.915724 0.406089
O O4 0.836889 0.846079 0.204672
O O5 0.804042 0.000000 0.250000
O O6 0.576847 0.071987 0.118992
O O7 0.554839 0.963812 0.946498
O O8 0.516654 0.129308 0.942534
O O9 0.412796 0.384829 0.358210
O O10 0.417555 0.297333 0.557118
O O11 0.646000 0.818519 0.311020
O O12 0.651388 0.000000 0.250000
#
# Coordination Sequence:
#
# PCOD9532381 Si02
#       6
#     8  16  16  16  16  16
#     4  12  28  50  66 106 146 194 264 312 362 442
#     4  12  26  48  75 106 146 196 249 310 373 439
#     4  10  22  46  70 107 146 186 237 297 370 450
#     4  10  23  42  75 105 145 189 235 298 375 450
#     4  10  23  43  69 101 144 191 230 292 366 448
#     4  12  25  47  74 106 145 190 248 313 372 436
#
# _framework density 22.426176000000002
#
# number of rings (size 3 to 8) (size 9 to 14) (size 15 to 20)
#    0.000    1.091    3.636    1.636    2.545    2.909 
#    0.000    0.000    0.000    0.000    0.000    0.000 
#    0.000    0.000    0.000    0.000    0.000    0.000 
#
# Total GULP energy -245674.283522 kJ/mol
# GULP energy per Si atom -5583.506444 kJ/mol
# Density = 2.237513 g / cm^3
# Si number density = 22.426176 Si / 1000 Ang^3
#
#
#
# Elastic Constant Matrix: (Units=GPa)
#
#
# Indices 1 2 3 4 5 6 
#
# 1 96.2303 35.9644 14.5315 0.0000 0.0000 0.0000
# 2 35.9644 108.5042 30.7214 0.0000 0.0000 0.0000
# 3 14.5315 30.7214 70.2722 0.0000 0.0000 0.0000
# 4 0.0000 0.0000 0.0000 37.2436 0.0000 0.0000
# 5 0.0000 0.0000 0.0000 0.0000 59.2329 0.0000
# 6 0.0000 0.0000 0.0000 0.0000 0.0000 26.1674
#
#
#
# Elastic Compliance Matrix: (Units=1/GPa)
#
#
# Indices 1 2 3 4 5 6 
#
# 1 0.011904 -0.003708 -0.000841 0.000000 0.000000 0.000000
# 2 -0.003708 0.011673 -0.004336 0.000000 0.000000 0.000000
# 3 -0.000841 -0.004336 0.016300 0.000000 0.000000 0.000000
# 4 0.000000 0.000000 0.000000 0.026850 0.000000 0.000000
# 5 0.000000 0.000000 0.000000 0.000000 0.016883 0.000000
# 6 0.000000 0.000000 0.000000 0.000000 0.000000 0.038215
#
#
# Mechanical properties :
#
#
# Convention : Reuss Voigt Hill
#
# Bulk Modulus (GPa) = 45.23342 48.60457 46.91900
# Shear Modulus (GPa) = 34.02177 37.44808 35.73493
#
# Velocity S-wave (km/s) = 3.89917 4.09080 3.99613
# Velocity P-wave (km/s) = 6.36279 6.63574 6.50070
#
# Compressibility (1/GPa) = 0.02210755
#
# Stress axis : x y z
#
# Youngs Moduli (GPa) = 84.00253 85.66783 61.34957
#
# Poissons Ratio (x) = 0.31763 0.05158
# Poissons Ratio (y) = 0.31146 0.26604
# Poissons Ratio (z) = 0.07063 0.37149
#
# Static dielectric constant tensor:
#      x y z
#    x 1.846490 0.000000 0.000000 
#    y 0.000000 1.866920 0.000000 
#    z 0.000000 0.000000 1.800420 
# 
# From -- ./inp_files/13520.got.cif
#   From: 2010.05.17/outbox.cif.g08.bks.cpg/sg73_7_cif.got.tgz:13520.got - 2010.06.03 17:35:07.
