data_PCOD9532600
_publ_section_title
;
Structure prediction by ZEFSAII (Michael W. Deem and Ramdas Pophale) SiO2 
 PCOD9532600
Probable space group: I B C A 
;
_chemical_formula_sum "Si O2"
_cell_formula_units_Z 120
_cell_length_a 27.526646
_cell_length_b 8.123384
_cell_length_c 24.451588
_cell_angle_alpha 90.000000
_cell_angle_beta 90.000000
_cell_angle_gamma 90.000000
_cell_volume 5467.607751
_symmetry_space_group_name_H-M "I B C A "
_symmetry_group_IT_number 73
_symmetry_cell_setting 'orthorhombic'
loop_
_space_group_symop_operation_xyz
x,y,z
-x,1/2-y,z
x,-y,1/2-z
1/2-x,y,-z
-x,-y,-z
x,1/2+y,-z
-x,y,1/2+z
1/2+x,-y,z
1/2+x,1/2+y,1/2+z
1/2-x,-y,1/2+z
1/2+x,1/2-y,-z
-x,1/2+y,1/2-z
1/2-x,1/2-y,1/2-z
1/2+x,y,1/2-z
1/2-x,1/2+y,z
x,1/2-y,1/2+z
loop_
_atom_site_type_symbol
_atom_site_label
_atom_site_fract_x
_atom_site_fract_y
_atom_site_fract_z
Si Si1 0.762779 0.736021 0.936275
Si Si2 0.500000 0.250000 0.049939
Si Si3 0.106621 0.207698 0.488147
Si Si4 0.326576 0.951928 0.902099
Si Si5 0.397601 0.449042 0.312518
Si Si6 0.501060 0.057238 0.869505
Si Si7 0.148546 0.985277 0.922809
Si Si8 0.602373 0.061973 0.811100
O O1 0.712635 0.695047 0.905880
O O2 0.796462 0.572581 0.931369
O O3 0.795208 0.884010 0.913346
O O4 0.750000 0.760895 0.000000
O O5 0.450809 0.283152 0.017494
O O6 0.508548 0.415659 0.085498
O O7 0.132784 0.072497 0.449146
O O8 0.119375 0.169532 0.550659
O O9 0.130285 0.367379 0.460577
O O10 0.355573 0.960076 0.845911
O O11 0.400270 0.500000 0.250000
O O12 0.449486 0.478587 0.341144
O O13 0.387097 0.255340 0.314481
O O14 0.500000 0.250000 0.887648
O O15 0.545752 0.039725 0.827183
O O16 0.133372 0.016212 0.860548
O O17 0.611821 0.000000 0.750000
#
# Coordination Sequence:
#
# PCOD9532600 Si02
#       8
#    16   8  16  16  16  16  16  16
#     4  12  25  45  76 107 138 185 249 313 382 456
#     4  12  24  46  76 110 156 206 244 296 392 472
#     4  12  27  45  74 108 153 195 244 302 387 458
#     4  12  25  46  71 109 143 187 250 318 378 452
#     4  11  25  45  72 107 148 193 257 315 377 446
#     4  10  23  44  74 111 150 202 262 311 367 458
#     4  12  26  47  72 110 148 192 248 313 376 454
#     4  11  25  46  73 106 151 202 253 309 369 452
#
# _framework density 21.947441000000001
#
# number of rings (size 3 to 8) (size 9 to 14) (size 15 to 20)
#    0.000    0.533    5.333    2.400    3.733    0.533 
#    3.600    1.333    0.000    0.000    0.000    0.000 
#    0.000    0.000    0.000    0.000    0.000    0.000 
#
# Total GULP energy -335878.311968 kJ/mol
# GULP energy per Si atom -5597.971866 kJ/mol
# Density = 2.189749 g / cm^3
# Si number density = 21.947441 Si / 1000 Ang^3
#
#
#
# Elastic Constant Matrix: (Units=GPa)
#
#
# Indices 1 2 3 4 5 6 
#
# 1 155.4401 29.7519 52.9790 0.0000 0.0000 0.0000
# 2 29.7519 69.6977 29.4893 0.0000 0.0000 0.0000
# 3 52.9790 29.4893 120.3893 0.0000 0.0000 0.0000
# 4 0.0000 0.0000 0.0000 24.1457 0.0000 0.0000
# 5 0.0000 0.0000 0.0000 0.0000 16.4807 0.0000
# 6 0.0000 0.0000 0.0000 0.0000 0.0000 26.8466
#
#
#
# Elastic Compliance Matrix: (Units=1/GPa)
#
#
# Indices 1 2 3 4 5 6 
#
# 1 0.007836 -0.002104 -0.002933 0.000000 0.000000 0.000000
# 2 -0.002104 0.016571 -0.003133 0.000000 0.000000 0.000000
# 3 -0.002933 -0.003133 0.010365 0.000000 0.000000 0.000000
# 4 0.000000 0.000000 0.000000 0.041415 0.000000 0.000000
# 5 0.000000 0.000000 0.000000 0.000000 0.060677 0.000000
# 6 0.000000 0.000000 0.000000 0.000000 0.000000 0.037249
#
#
# Mechanical properties :
#
#
# Convention : Reuss Voigt Hill
#
# Bulk Modulus (GPa) = 54.25490 63.32974 58.79232
# Shear Modulus (GPa) = 25.43279 29.04839 27.24059
#
# Velocity S-wave (km/s) = 3.40781 3.64200 3.52685
# Velocity P-wave (km/s) = 6.34494 6.82667 6.59021
#
# Compressibility (1/GPa) = 0.01843152
#
# Stress axis : x y z
#
# Youngs Moduli (GPa) = 127.62188 60.34458 96.48292
#
# Poissons Ratio (x) = 0.12696 0.28297
# Poissons Ratio (y) = 0.26851 0.30231
# Poissons Ratio (z) = 0.37429 0.18908
#
# Static dielectric constant tensor:
#      x y z
#    x 1.808470 0.000000 0.000000 
#    y 0.000000 1.919010 0.000000 
#    z 0.000000 0.000000 1.763350 
# 
# From -- ./inp_files/30514.got.cif
#   From: 2010.05.17/outbox.cif.g08.bks.cpg/sg73_16_cif.got.tgz:30514.got - 2010.06.03 17:35:07.
