data_PCOD9532216
_publ_section_title
;
Structure prediction by ZEFSAII (Michael W. Deem and Ramdas Pophale) SiO2 
 PCOD9532216
Probable space group: I B C A 
;
_chemical_formula_sum "Si O2"
_cell_formula_units_Z 64
_cell_length_a 26.424039
_cell_length_b 11.195999
_cell_length_c 9.164884
_cell_angle_alpha 90.000000
_cell_angle_beta 90.000000
_cell_angle_gamma 90.000000
_cell_volume 2711.371490
_symmetry_space_group_name_H-M "I B C A "
_symmetry_group_IT_number 73
_symmetry_cell_setting 'orthorhombic'
loop_
_space_group_symop_operation_xyz
x,y,z
-x,1/2-y,z
x,-y,1/2-z
1/2-x,y,-z
-x,-y,-z
x,1/2+y,-z
-x,y,1/2+z
1/2+x,-y,z
1/2+x,1/2+y,1/2+z
1/2-x,-y,1/2+z
1/2+x,1/2-y,-z
-x,1/2+y,1/2-z
1/2-x,1/2-y,1/2-z
1/2+x,y,1/2-z
1/2-x,1/2+y,z
x,1/2-y,1/2+z
loop_
_atom_site_type_symbol
_atom_site_label
_atom_site_fract_x
_atom_site_fract_y
_atom_site_fract_z
Si Si1 0.328354 0.181998 0.711507
Si Si2 0.227853 0.914078 0.649121
Si Si3 0.895646 0.738823 0.984534
Si Si4 0.539179 0.359994 0.229512
O O1 0.276948 0.118041 0.754877
O O2 0.305792 0.298702 0.631258
O O3 0.358687 0.207129 0.859723
O O4 0.367239 0.141050 0.587966
O O5 0.250000 0.962160 0.500000
O O6 0.195526 0.000000 0.750000
O O7 0.936676 0.673176 0.885562
O O8 0.920589 0.835348 0.096539
O O9 0.500000 0.250000 0.203737
O O10 0.522878 0.500000 0.250000
#
# Coordination Sequence:
#
# PCOD9532216 Si02
#       4
#    16  16  16  16
#     4  10  22  43  61  90 138 177 234 287 342 408
#     4  11  24  37  61  93 134 188 234 286 345 411
#     4  10  23  43  70  97 133 183 229 296 355 418
#     4  11  26  48  75 107 142 181 233 293 367 444
#
# _framework density 23.604291
#
# number of rings (size 3 to 8) (size 9 to 14) (size 15 to 20)
#    0.000    1.500    2.500    0.750    3.500   10.000 
#    0.000    5.000    0.000    0.000    0.000    0.000 
#    0.000    0.000    0.000    0.000    0.000    0.000 
#
# Total GULP energy -178282.460656 kJ/mol
# GULP energy per Si atom -5571.326895 kJ/mol
# Density = 2.355057 g / cm^3
# Si number density = 23.604291 Si / 1000 Ang^3
#
#
#
# Elastic Constant Matrix: (Units=GPa)
#
#
# Indices 1 2 3 4 5 6 
#
# 1 75.2632 18.2949 29.0671 0.0000 0.0000 0.0000
# 2 18.2949 76.9663 22.4025 0.0000 0.0000 0.0000
# 3 29.0671 22.4025 172.2834 0.0000 0.0000 0.0000
# 4 0.0000 0.0000 0.0000 15.8769 0.0000 0.0000
# 5 0.0000 0.0000 0.0000 0.0000 34.7758 0.0000
# 6 0.0000 0.0000 0.0000 0.0000 0.0000 65.1457
#
#
#
# Elastic Compliance Matrix: (Units=1/GPa)
#
#
# Indices 1 2 3 4 5 6 
#
# 1 0.014812 -0.002903 -0.002121 0.000000 0.000000 0.000000
# 2 -0.002903 0.014073 -0.001340 0.000000 0.000000 0.000000
# 3 -0.002121 -0.001340 0.006337 0.000000 0.000000 0.000000
# 4 0.000000 0.000000 0.000000 0.062985 0.000000 0.000000
# 5 0.000000 0.000000 0.000000 0.000000 0.028756 0.000000
# 6 0.000000 0.000000 0.000000 0.000000 0.000000 0.015350
#
#
# Mechanical properties :
#
#
# Convention : Reuss Voigt Hill
#
# Bulk Modulus (GPa) = 44.46119 51.56020 48.01070
# Shear Modulus (GPa) = 30.76193 40.14290 35.45242
#
# Velocity S-wave (km/s) = 3.61395 4.12838 3.87970
# Velocity P-wave (km/s) = 6.02421 6.67950 6.36030
#
# Compressibility (1/GPa) = 0.02249152
#
# Stress axis : x y z
#
# Youngs Moduli (GPa) = 67.51398 71.05874 157.81396
#
# Poissons Ratio (x) = 0.20630 0.33480
# Poissons Ratio (y) = 0.19601 0.21149
# Poissons Ratio (z) = 0.14323 0.09523
#
# Static dielectric constant tensor:
#      x y z
#    x 1.921210 0.000000 0.000000 
#    y 0.000000 2.101830 0.000000 
#    z 0.000000 0.000000 1.902460 
# 
# From -- ./inp_files/3985.got.cif
#   From: 2010.05.17/outbox.cif.g08.bks.cpg/sg73_2_cif.got.tgz:3985.got - 2010.06.03 17:35:07.
