data_PCOD9532661
_publ_section_title
;
Structure prediction by ZEFSAII (Michael W. Deem and Ramdas Pophale) SiO2 
 PCOD9532661
Probable space group: I B C A 
;
_chemical_formula_sum "Si O2"
_cell_formula_units_Z 120
_cell_length_a 27.252750
_cell_length_b 12.301229
_cell_length_c 16.357094
_cell_angle_alpha 90.000000
_cell_angle_beta 90.000000
_cell_angle_gamma 90.000000
_cell_volume 5483.590119
_symmetry_space_group_name_H-M "I B C A "
_symmetry_group_IT_number 73
_symmetry_cell_setting 'orthorhombic'
loop_
_space_group_symop_operation_xyz
x,y,z
-x,1/2-y,z
x,-y,1/2-z
1/2-x,y,-z
-x,-y,-z
x,1/2+y,-z
-x,y,1/2+z
1/2+x,-y,z
1/2+x,1/2+y,1/2+z
1/2-x,-y,1/2+z
1/2+x,1/2-y,-z
-x,1/2+y,1/2-z
1/2-x,1/2-y,1/2-z
1/2+x,y,1/2-z
1/2-x,1/2+y,z
x,1/2-y,1/2+z
loop_
_atom_site_type_symbol
_atom_site_label
_atom_site_fract_x
_atom_site_fract_y
_atom_site_fract_z
Si Si1 0.447964 0.297568 0.895692
Si Si2 0.561410 0.912660 0.432877
Si Si3 0.793214 0.724802 0.186349
Si Si4 0.274809 0.500000 0.250000
Si Si5 0.373932 0.625015 0.050850
Si Si6 0.468935 0.517853 0.836525
Si Si7 0.261152 0.881398 0.589725
Si Si8 0.392493 0.705568 0.865812
O O1 0.500000 0.250000 0.868021
O O2 0.407898 0.204245 0.895432
O O3 0.437214 0.409330 0.849869
O O4 0.451914 0.339512 0.988928
O O5 0.511607 0.967897 0.402260
O O6 0.583760 0.825188 0.370460
O O7 0.601126 0.006131 0.451326
O O8 0.750000 0.750000 0.250000
O O9 0.803625 0.598890 0.206637
O O10 0.767294 0.766588 0.102513
O O11 0.844288 0.788151 0.189877
O O12 0.246577 0.451729 0.329889
O O13 0.319867 0.627820 0.088678
O O14 0.375150 0.670631 0.957686
O O15 0.494230 0.500000 0.750000
O O16 0.433678 0.620744 0.839930
O O17 0.250000 0.928010 0.500000
#
# Coordination Sequence:
#
# PCOD9532661 Si02
#       8
#    16  16  16   8  16  16  16  16
#     4  11  22  41  70  96 134 176 233 294 350 437
#     4  11  22  44  72  95 136 176 233 297 356 433
#     4  10  23  47  66  99 146 187 238 303 370 439
#     4  10  24  46  72 104 142 200 234 308 390 434
#     4  11  22  42  75 105 129 188 240 294 367 438
#     4  12  26  44  65 101 140 184 229 293 368 438
#     4  11  23  45  71 105 148 189 250 305 363 452
#     4  11  23  44  69 102 135 182 244 290 362 433
#
# _framework density 21.883474
#
# number of rings (size 3 to 8) (size 9 to 14) (size 15 to 20)
#    0.000    1.067    4.000    3.200    0.000    3.733 
#   21.600    0.000    0.000    0.000    0.000    0.000 
#    0.000    0.000    0.000    0.000    0.000    0.000 
#
# Total GULP energy -334734.909843 kJ/mol
# GULP energy per Si atom -5578.915164 kJ/mol
# Density = 2.183367 g / cm^3
# Si number density = 21.883474 Si / 1000 Ang^3
#
#
#
# Elastic Constant Matrix: (Units=GPa)
#
#
# Indices 1 2 3 4 5 6 
#
# 1 108.3125 40.3810 5.3527 0.0000 0.0000 0.0000
# 2 40.3810 114.8995 8.4113 0.0000 0.0000 0.0000
# 3 5.3527 8.4113 76.3739 0.0000 0.0000 0.0000
# 4 0.0000 0.0000 0.0000 6.2884 0.0000 0.0000
# 5 0.0000 0.0000 0.0000 0.0000 22.6360 0.0000
# 6 0.0000 0.0000 0.0000 0.0000 0.0000 18.2150
#
#
#
# Elastic Compliance Matrix: (Units=1/GPa)
#
#
# Indices 1 2 3 4 5 6 
#
# 1 0.010633 -0.003712 -0.000336 0.000000 0.000000 0.000000
# 2 -0.003712 0.010070 -0.000849 0.000000 0.000000 0.000000
# 3 -0.000336 -0.000849 0.013211 0.000000 0.000000 0.000000
# 4 0.000000 0.000000 0.000000 0.159023 0.000000 0.000000
# 5 0.000000 0.000000 0.000000 0.000000 0.044177 0.000000
# 6 0.000000 0.000000 0.000000 0.000000 0.000000 0.054900
#
#
# Mechanical properties :
#
#
# Convention : Reuss Voigt Hill
#
# Bulk Modulus (GPa) = 41.46175 45.31953 43.39064
# Shear Modulus (GPa) = 16.13689 25.79061 20.96375
#
# Velocity S-wave (km/s) = 2.71846 3.43672 3.09847
# Velocity P-wave (km/s) = 5.37039 6.04173 5.71592
#
# Compressibility (1/GPa) = 0.02411862
#
# Stress axis : x y z
#
# Youngs Moduli (GPa) = 94.04494 99.30386 75.69708
#
# Poissons Ratio (x) = 0.36865 0.02546
# Poissons Ratio (y) = 0.34913 0.06426
# Poissons Ratio (z) = 0.03163 0.08430
#
# Static dielectric constant tensor:
#      x y z
#    x 1.772050 0.000000 0.000000 
#    y 0.000000 1.837140 0.000000 
#    z 0.000000 0.000000 1.877850 
# 
# From -- ./inp_files/24171.got.cif
#   From: 2010.05.17/outbox.cif.g08.bks.cpg/sg73_13_cif.got.tgz:24171.got - 2010.06.03 17:35:07.
