data_PCOD9532006
_publ_section_title
;
Structure prediction by ZEFSAII (Michael W. Deem and Ramdas Pophale) SiO2 
 PCOD9532006
Probable space group: I B C A 
;
_chemical_formula_sum "Si O2"
_cell_formula_units_Z 88
_cell_length_a 11.837624
_cell_length_b 23.591768
_cell_length_c 14.258973
_cell_angle_alpha 90.000000
_cell_angle_beta 90.000000
_cell_angle_gamma 90.000000
_cell_volume 3982.110221
_symmetry_space_group_name_H-M "I B C A "
_symmetry_group_IT_number 73
_symmetry_cell_setting 'orthorhombic'
loop_
_space_group_symop_operation_xyz
x,y,z
-x,1/2-y,z
x,-y,1/2-z
1/2-x,y,-z
-x,-y,-z
x,1/2+y,-z
-x,y,1/2+z
1/2+x,-y,z
1/2+x,1/2+y,1/2+z
1/2-x,-y,1/2+z
1/2+x,1/2-y,-z
-x,1/2+y,1/2-z
1/2-x,1/2-y,1/2-z
1/2+x,y,1/2-z
1/2-x,1/2+y,z
x,1/2-y,1/2+z
loop_
_atom_site_type_symbol
_atom_site_label
_atom_site_fract_x
_atom_site_fract_y
_atom_site_fract_z
Si Si1 0.999560 0.376680 0.011455
Si Si2 0.500000 0.750000 0.944494
Si Si3 0.462528 0.000000 0.750000
Si Si4 0.319402 0.043630 0.591660
Si Si5 0.697810 0.793602 0.822628
Si Si6 0.884868 0.900219 0.294914
Si Si7 0.750000 0.139515 0.500000
O O1 0.088243 0.411914 0.948494
O O2 0.012143 0.309186 0.997462
O O3 0.869499 0.391724 0.987250
O O4 0.034125 0.387601 0.117691
O O5 0.606893 0.757816 0.879001
O O6 0.384213 0.001332 0.842751
O O7 0.545972 0.947075 0.761860
O O8 0.250000 0.022793 0.500000
O O9 0.230143 0.074746 0.660251
O O10 0.750000 0.750000 0.750000
O O11 0.642568 0.845304 0.765652
O O12 0.769693 0.822323 0.906518
#
# Coordination Sequence:
#
# PCOD9532006 Si02
#       7
#    16   8   8  16  16  16   8
#     4  10  23  44  69 101 149 184 240 298 362 433
#     4  10  22  40  64  98 142 186 232 286 360 432
#     4  12  24  46  76 104 146 192 246 308 358 438
#     4  10  24  48  70 105 142 188 239 305 367 426
#     4  11  25  40  71 104 144 186 238 294 359 432
#     4  11  26  43  74 106 143 192 243 301 361 437
#     4  10  24  42  64 108 138 194 232 294 352 436
#
# _framework density 22.098835999999999
#
# number of rings (size 3 to 8) (size 9 to 14) (size 15 to 20)
#    0.000    1.455    0.000    3.818   10.182    2.909 
#    6.545    0.000    0.000    0.000    0.000    0.000 
#    0.000    0.000    0.000    0.000    0.000    0.000 
#
# Total GULP energy -245936.177092 kJ/mol
# GULP energy per Si atom -5589.458570 kJ/mol
# Density = 2.204854 g / cm^3
# Si number density = 22.098836 Si / 1000 Ang^3
#
#
#
# Elastic Constant Matrix: (Units=GPa)
#
#
# Indices 1 2 3 4 5 6 
#
# 1 128.1812 45.2278 38.0685 0.0000 0.0001 0.0000
# 2 45.2278 91.7798 33.3658 0.0003 0.0004 0.0002
# 3 38.0685 33.3658 97.4806 0.0003 0.0003 0.0001
# 4 0.0000 0.0003 0.0003 44.2165 0.0004 0.0002
# 5 0.0001 0.0004 0.0003 0.0004 122.4722 0.0003
# 6 0.0000 0.0002 0.0001 0.0002 0.0003 14.8128
#
#
#
# Elastic Compliance Matrix: (Units=1/GPa)
#
#
# Indices 1 2 3 4 5 6 
#
# 1 0.009959 -0.003990 -0.002523 0.000000 0.000000 0.000000
# 2 -0.003990 0.014043 -0.003248 0.000000 0.000000 0.000000
# 3 -0.002523 -0.003248 0.012356 0.000000 0.000000 0.000000
# 4 0.000000 0.000000 0.000000 0.022616 0.000000 0.000000
# 5 0.000000 0.000000 0.000000 0.000000 0.008165 0.000000
# 6 0.000000 0.000000 0.000000 0.000000 0.000000 0.067509
#
#
# Mechanical properties :
#
#
# Convention : Reuss Voigt Hill
#
# Bulk Modulus (GPa) = 59.40516 61.19620 60.30068
# Shear Modulus (GPa) = 31.29248 49.68559 40.48903
#
# Velocity S-wave (km/s) = 3.76709 4.74681 4.28504
# Velocity P-wave (km/s) = 6.77209 7.60231 7.19918
#
# Compressibility (1/GPa) = 0.01683356
#
# Stress axis : x y z
#
# Youngs Moduli (GPa) = 100.41391 71.21058 80.93408
#
# Poissons Ratio (x) = 0.28414 0.20423
# Poissons Ratio (y) = 0.40067 0.26290
# Poissons Ratio (z) = 0.25338 0.23132
#
# Static dielectric constant tensor:
#      x y z
#    x 1.806820 0.000000 0.000000 
#    y 0.000000 1.787540 0.000000 
#    z 0.000000 0.000000 3.858970 
# 
# From -- ./inp_files/13574.got.cif
#   From: 2010.05.17/outbox.cif.g08.bks.cpg/sg73_7_cif.got.tgz:13574.got - 2010.06.03 17:35:07.
