data_PCOD9532203
_publ_section_title
;
Structure prediction by ZEFSAII (Michael W. Deem and Ramdas Pophale) SiO2 
 PCOD9532203
Probable space group: I B C A 
;
_chemical_formula_sum "Si O2"
_cell_formula_units_Z 88
_cell_length_a 22.072127
_cell_length_b 11.903631
_cell_length_c 12.733092
_cell_angle_alpha 90.000000
_cell_angle_beta 90.000000
_cell_angle_gamma 90.000000
_cell_volume 3345.472922
_symmetry_space_group_name_H-M "I B C A "
_symmetry_group_IT_number 73
_symmetry_cell_setting 'orthorhombic'
loop_
_space_group_symop_operation_xyz
x,y,z
-x,1/2-y,z
x,-y,1/2-z
1/2-x,y,-z
-x,-y,-z
x,1/2+y,-z
-x,y,1/2+z
1/2+x,-y,z
1/2+x,1/2+y,1/2+z
1/2-x,-y,1/2+z
1/2+x,1/2-y,-z
-x,1/2+y,1/2-z
1/2-x,1/2-y,1/2-z
1/2+x,y,1/2-z
1/2-x,1/2+y,z
x,1/2-y,1/2+z
loop_
_atom_site_type_symbol
_atom_site_label
_atom_site_fract_x
_atom_site_fract_y
_atom_site_fract_z
Si Si1 0.500000 0.250000 0.468516
Si Si2 0.971163 0.984046 0.362937
Si Si3 0.158011 0.255083 0.192343
Si Si4 0.917450 0.154769 0.862946
Si Si5 0.261177 0.406394 0.660630
Si Si6 0.646255 0.458558 0.470497
O O1 0.493840 0.138821 0.397697
O O2 0.556991 0.259390 0.549322
O O3 0.918947 0.013316 0.446128
O O4 0.939831 0.000000 0.250000
O O5 0.027571 0.067335 0.354610
O O6 0.099665 0.207309 0.252005
O O7 0.195638 0.312599 0.286786
O O8 0.198236 0.157103 0.140933
O O9 0.147439 0.350751 0.107066
O O10 0.859213 0.090633 0.912531
O O11 0.251487 0.500000 0.750000
O O12 0.299483 0.464250 0.568292
#
# Coordination Sequence:
#
# PCOD9532203 Si02
#       6
#     8  16  16  16  16  16
#     4  10  24  42  66 106 152 190 246 286 368 458
#     4  11  25  42  70 109 148 195 239 295 378 451
#     4  10  22  42  72 100 135 189 239 298 368 430
#     4  11  26  41  71 108 150 186 245 299 369 451
#     4   9  20  43  69  94 130 179 242 294 344 427
#     4  10  22  46  71 102 145 192 238 301 375 432
#
# _framework density 26.304202
#
# number of rings (size 3 to 8) (size 9 to 14) (size 15 to 20)
#    0.000    1.818    0.000    3.818   12.727    0.727 
#    0.000   11.818    0.000    0.000    0.000    0.000 
#    0.000    0.000    0.000    0.000    0.000    0.000 
#
# Total GULP energy -246533.648192 kJ/mol
# GULP energy per Si atom -5603.037459 kJ/mol
# Density = 2.624433 g / cm^3
# Si number density = 26.304202 Si / 1000 Ang^3
#
#
#
# Elastic Constant Matrix: (Units=GPa)
#
#
# Indices 1 2 3 4 5 6 
#
# 1 117.9812 71.2141 38.6746 0.0000 0.0000 0.0000
# 2 71.2141 166.8576 29.8354 0.0000 0.0000 0.0000
# 3 38.6746 29.8354 72.1212 0.0000 0.0000 0.0000
# 4 0.0000 0.0000 0.0000 27.5356 0.0000 0.0000
# 5 0.0000 0.0000 0.0000 0.0000 48.1308 0.0000
# 6 0.0000 0.0000 0.0000 0.0000 0.0000 55.4631
#
#
#
# Elastic Compliance Matrix: (Units=1/GPa)
#
#
# Indices 1 2 3 4 5 6 
#
# 1 0.012901 -0.004610 -0.005011 0.000000 0.000000 0.000000
# 2 -0.004610 0.008119 -0.000887 0.000000 0.000000 0.000000
# 3 -0.005011 -0.000887 0.016920 0.000000 0.000000 0.000000
# 4 0.000000 0.000000 0.000000 0.036317 0.000000 0.000000
# 5 0.000000 0.000000 0.000000 0.000000 0.020777 0.000000
# 6 0.000000 0.000000 0.000000 0.000000 0.000000 0.018030
#
#
# Mechanical properties :
#
#
# Convention : Reuss Voigt Hill
#
# Bulk Modulus (GPa) = 59.08678 70.71204 64.89941
# Shear Modulus (GPa) = 35.78566 40.70828 38.24697
#
# Velocity S-wave (km/s) = 3.69243 3.93822 3.81730
# Velocity P-wave (km/s) = 6.37890 6.90074 6.64494
#
# Compressibility (1/GPa) = 0.01692426
#
# Stress axis : x y z
#
# Youngs Moduli (GPa) = 77.51135 123.16349 59.10336
#
# Poissons Ratio (x) = 0.56781 0.29617
# Poissons Ratio (y) = 0.35734 0.05240
# Poissons Ratio (z) = 0.38842 0.10920
#
# Static dielectric constant tensor:
#      x y z
#    x 2.093760 0.000000 0.000000 
#    y 0.000000 2.077820 0.000000 
#    z 0.000000 0.000000 2.089020 
# 
# From -- ./inp_files/19272.got.cif
#   From: 2010.05.17/outbox.cif.g08.bks.cpg/sg73_10_cif.got.tgz:19272.got - 2010.06.03 17:35:07.
