data_PCOD9532883
_publ_section_title
;
Structure prediction by ZEFSAII (Michael W. Deem and Ramdas Pophale) SiO2 
 PCOD9532883
Probable space group: I B C A 
;
_chemical_formula_sum "Si O2"
_cell_formula_units_Z 72
_cell_length_a 22.404138
_cell_length_b 14.082171
_cell_length_c 8.469862
_cell_angle_alpha 90.000000
_cell_angle_beta 90.000000
_cell_angle_gamma 90.000000
_cell_volume 2672.232165
_symmetry_space_group_name_H-M "I B C A "
_symmetry_group_IT_number 73
_symmetry_cell_setting 'orthorhombic'
loop_
_space_group_symop_operation_xyz
x,y,z
-x,1/2-y,z
x,-y,1/2-z
1/2-x,y,-z
-x,-y,-z
x,1/2+y,-z
-x,y,1/2+z
1/2+x,-y,z
1/2+x,1/2+y,1/2+z
1/2-x,-y,1/2+z
1/2+x,1/2-y,-z
-x,1/2+y,1/2-z
1/2-x,1/2-y,1/2-z
1/2+x,y,1/2-z
1/2-x,1/2+y,z
x,1/2-y,1/2+z
loop_
_atom_site_type_symbol
_atom_site_label
_atom_site_fract_x
_atom_site_fract_y
_atom_site_fract_z
Si Si1 0.941207 0.543684 0.078219
Si Si2 0.192334 0.929676 0.132766
Si Si3 0.750000 0.076181 0.500000
Si Si4 0.936128 0.225109 0.101956
Si Si5 0.149494 0.293616 0.379553
O O1 0.943800 0.500000 0.250000
O O2 0.870188 0.537854 0.043600
O O3 0.949489 0.654845 0.042987
O O4 0.000000 0.500000 0.000000
O O5 0.206055 0.941070 0.328645
O O6 0.178788 0.813002 0.125708
O O7 0.250000 0.950478 0.000000
O O8 0.797636 0.134785 0.399853
O O9 0.891669 0.183310 0.230496
O O10 0.000000 0.250000 0.168517
O O11 0.896311 0.306476 0.025385
#
# Coordination Sequence:
#
# PCOD9532883 Si02
#       5
#    16  16   8  16  16
#     4  10  25  43  71 108 152 199 260 335 405 490
#     4  10  24  45  68 105 154 199 263 339 409 493
#     4  12  26  44  80 108 162 214 278 348 426 494
#     4  11  26  45  79 109 160 211 267 341 426 505
#     4  11  26  47  74 117 153 213 279 340 429 517
#
# _framework density 26.943767000000001
#
# number of rings (size 3 to 8) (size 9 to 14) (size 15 to 20)
#    0.000    1.333    0.000    2.667   15.556    7.111 
#    0.000    0.000    0.000    0.000    0.000    0.000 
#    0.000    0.000    0.000    0.000    0.000    0.000 
#
# Total GULP energy -200646.184942 kJ/mol
# GULP energy per Si atom -5573.505137 kJ/mol
# Density = 2.688244 g / cm^3
# Si number density = 26.943767 Si / 1000 Ang^3
#
#
#
# Elastic Constant Matrix: (Units=GPa)
#
#
# Indices 1 2 3 4 5 6 
#
# 1 276.3724 100.3313 87.9234 0.0000 0.0000 0.0000
# 2 100.3313 142.1987 35.9963 0.0000 0.0000 0.0000
# 3 87.9234 35.9963 122.4325 0.0000 0.0000 0.0000
# 4 0.0000 0.0000 0.0000 36.8867 0.0000 0.0000
# 5 0.0000 0.0000 0.0000 0.0000 62.8924 0.0000
# 6 0.0000 0.0000 0.0000 0.0000 0.0000 18.5881
#
#
#
# Elastic Compliance Matrix: (Units=1/GPa)
#
#
# Indices 1 2 3 4 5 6 
#
# 1 0.005845 -0.003308 -0.003225 0.000000 0.000000 0.000000
# 2 -0.003308 0.009470 -0.000409 0.000000 0.000000 0.000000
# 3 -0.003225 -0.000409 0.010604 0.000000 0.000000 0.000000
# 4 0.000000 0.000000 0.000000 0.027110 0.000000 0.000000
# 5 0.000000 0.000000 0.000000 0.000000 0.015900 0.000000
# 6 0.000000 0.000000 0.000000 0.000000 0.000000 0.053798
#
#
# Mechanical properties :
#
#
# Convention : Reuss Voigt Hill
#
# Bulk Modulus (GPa) = 83.08653 109.94508 96.51581
# Shear Modulus (GPa) = 35.55628 44.79027 40.17327
#
# Velocity S-wave (km/s) = 3.63664 4.08163 3.86554
# Velocity P-wave (km/s) = 6.96688 7.94399 7.47142
#
# Compressibility (1/GPa) = 0.01203564
#
# Stress axis : x y z
#
# Youngs Moduli (GPa) = 171.08254 105.59944 94.30393
#
# Poissons Ratio (x) = 0.34930 0.30414
# Poissons Ratio (y) = 0.56590 0.03855
# Poissons Ratio (z) = 0.55176 0.04317
#
# Static dielectric constant tensor:
#      x y z
#    x 2.369760 0.000000 0.000000 
#    y 0.000000 2.140030 0.000000 
#    z 0.000000 0.000000 2.199420 
# 
# From -- ./inp_files/5336.got.cif
#   From: 2010.05.17/outbox.cif.g08.bks.cpg/sg73_3_cif.got.tgz:5336.got - 2010.06.03 17:35:07.
