data_PCOD9532163
_publ_section_title
;
Structure prediction by ZEFSAII (Michael W. Deem and Ramdas Pophale) SiO2 
 PCOD9532163
Probable space group: I B C A 
;
_chemical_formula_sum "Si O2"
_cell_formula_units_Z 72
_cell_length_a 12.441864
_cell_length_b 13.215774
_cell_length_c 19.103968
_cell_angle_alpha 90.000000
_cell_angle_beta 90.000000
_cell_angle_gamma 90.000000
_cell_volume 3141.243732
_symmetry_space_group_name_H-M "I B C A "
_symmetry_group_IT_number 73
_symmetry_cell_setting 'orthorhombic'
loop_
_space_group_symop_operation_xyz
x,y,z
-x,1/2-y,z
x,-y,1/2-z
1/2-x,y,-z
-x,-y,-z
x,1/2+y,-z
-x,y,1/2+z
1/2+x,-y,z
1/2+x,1/2+y,1/2+z
1/2-x,-y,1/2+z
1/2+x,1/2-y,-z
-x,1/2+y,1/2-z
1/2-x,1/2-y,1/2-z
1/2+x,y,1/2-z
1/2-x,1/2+y,z
x,1/2-y,1/2+z
loop_
_atom_site_type_symbol
_atom_site_label
_atom_site_fract_x
_atom_site_fract_y
_atom_site_fract_z
Si Si1 0.565019 0.155068 0.440891
Si Si2 0.231083 0.862502 0.651965
Si Si3 0.497565 0.957026 0.384037
Si Si4 0.145100 0.000000 0.250000
Si Si5 0.661474 0.701858 0.944376
O O1 0.500000 0.250000 0.407583
O O2 0.672957 0.117554 0.402779
O O3 0.610374 0.204074 0.512157
O O4 0.489386 0.058928 0.429824
O O5 0.280336 0.905995 0.724029
O O6 0.206511 0.746254 0.629034
O O7 0.120272 0.920083 0.637595
O O8 0.570568 0.877595 0.426212
O O9 0.566184 0.973796 0.313591
O O10 0.750000 0.662501 0.000000
#
# Coordination Sequence:
#
# PCOD9532163 Si02
#       5
#    16  16  16   8  16
#     4  10  23  41  65  99 133 168 212 270 341 404
#     4  10  22  42  67  97 131 173 224 271 325 392
#     4  11  23  43  68  94 131 176 223 274 330 401
#     4  10  24  42  64  94 134 180 222 270 326 386
#     4  10  23  42  67 101 136 173 218 273 339 403
#
# _framework density 22.920857999999999
#
# number of rings (size 3 to 8) (size 9 to 14) (size 15 to 20)
#    0.000    1.778    0.000    2.667    0.000   16.000 
#    0.000   11.111    0.000    0.000    0.000    0.000 
#    0.000    0.000    0.000    0.000    0.000    0.000 
#
# Total GULP energy -200642.963865 kJ/mol
# GULP energy per Si atom -5573.415663 kJ/mol
# Density = 2.286869 g / cm^3
# Si number density = 22.920858 Si / 1000 Ang^3
#
#
#
# Elastic Constant Matrix: (Units=GPa)
#
#
# Indices 1 2 3 4 5 6 
#
# 1 165.6211 39.7261 57.5171 0.0000 0.0000 0.0000
# 2 39.7261 66.3875 63.2564 0.0000 0.0000 0.0000
# 3 57.5171 63.2564 136.1140 0.0000 0.0000 0.0000
# 4 0.0000 0.0000 0.0000 29.5207 0.0000 0.0000
# 5 0.0000 0.0000 0.0000 0.0000 39.3660 0.0000
# 6 0.0000 0.0000 0.0000 0.0000 0.0000 88.5475
#
#
#
# Elastic Compliance Matrix: (Units=1/GPa)
#
#
# Indices 1 2 3 4 5 6 
#
# 1 0.007313 -0.002569 -0.001896 0.000000 0.000000 0.000000
# 2 -0.002569 0.027937 -0.011897 0.000000 0.000000 0.000000
# 3 -0.001896 -0.011897 0.013677 0.000000 0.000000 0.000000
# 4 0.000000 0.000000 0.000000 0.033875 0.000000 0.000000
# 5 0.000000 0.000000 0.000000 0.000000 0.025403 0.000000
# 6 0.000000 0.000000 0.000000 0.000000 0.000000 0.011293
#
#
# Mechanical properties :
#
#
# Convention : Reuss Voigt Hill
#
# Bulk Modulus (GPa) = 61.72428 76.56910 69.14669
# Shear Modulus (GPa) = 31.72132 45.32838 38.52485
#
# Velocity S-wave (km/s) = 3.72418 4.45185 4.10418
# Velocity P-wave (km/s) = 6.74392 7.73975 7.25893
#
# Compressibility (1/GPa) = 0.01620108
#
# Stress axis : x y z
#
# Youngs Moduli (GPa) = 136.75035 35.79515 73.11494
#
# Poissons Ratio (x) = 0.09196 0.13863
# Poissons Ratio (y) = 0.35134 0.86988
# Poissons Ratio (z) = 0.25929 0.42587
#
# Static dielectric constant tensor:
#      x y z
#    x 1.894410 0.000000 0.000000 
#    y 0.000000 1.889740 0.000000 
#    z 0.000000 0.000000 1.959400 
# 
# From -- ./inp_files/25865.got.cif
#   From: 2010.05.17/outbox.cif.g08.bks.cpg/sg73_13_cif.got.tgz:25865.got - 2010.06.03 17:35:07.
