data_PCOD9532260
_publ_section_title
;
Structure prediction by ZEFSAII (Michael W. Deem and Ramdas Pophale) SiO2 
 PCOD9532260
Probable space group: I B C A 
;
_chemical_formula_sum "Si O2"
_cell_formula_units_Z 112
_cell_length_a 14.495812
_cell_length_b 28.553591
_cell_length_c 12.016491
_cell_angle_alpha 90.000000
_cell_angle_beta 90.000000
_cell_angle_gamma 90.000000
_cell_volume 4973.715593
_symmetry_space_group_name_H-M "I B C A "
_symmetry_group_IT_number 73
_symmetry_cell_setting 'orthorhombic'
loop_
_space_group_symop_operation_xyz
x,y,z
-x,1/2-y,z
x,-y,1/2-z
1/2-x,y,-z
-x,-y,-z
x,1/2+y,-z
-x,y,1/2+z
1/2+x,-y,z
1/2+x,1/2+y,1/2+z
1/2-x,-y,1/2+z
1/2+x,1/2-y,-z
-x,1/2+y,1/2-z
1/2-x,1/2-y,1/2-z
1/2+x,y,1/2-z
1/2-x,1/2+y,z
x,1/2-y,1/2+z
loop_
_atom_site_type_symbol
_atom_site_label
_atom_site_fract_x
_atom_site_fract_y
_atom_site_fract_z
Si Si1 0.669568 0.057160 0.574227
Si Si2 0.250000 0.607357 0.500000
Si Si3 0.023230 0.013685 0.632189
Si Si4 0.000000 0.250000 0.335085
Si Si5 0.052390 0.611488 0.885873
Si Si6 0.271690 0.112867 0.736160
Si Si7 0.323922 0.286036 0.792966
Si Si8 0.086365 0.181206 0.509188
O O1 0.750000 0.034714 0.500000
O O2 0.609498 0.090269 0.491303
O O3 0.717664 0.089039 0.664470
O O4 0.612994 0.017886 0.637271
O O5 0.254791 0.584166 0.378639
O O6 0.158409 0.639590 0.512861
O O7 0.020153 0.069669 0.637386
O O8 0.970108 0.000000 0.750000
O O9 0.000000 0.000000 0.500000
O O10 0.918721 0.224142 0.269844
O O11 0.953370 0.291036 0.406637
O O12 0.123444 0.617543 0.782907
O O13 0.997009 0.657747 0.920642
O O14 0.222319 0.162999 0.718987
O O15 0.250000 0.250000 0.750000
O O16 0.354041 0.281804 0.920496
#
# Coordination Sequence:
#
# PCOD9532260 Si02
#       8
#    16   8  16   8  16  16  16  16
#     4   9  20  44  69 102 136 184 233 286 355 435
#     4  10  24  42  62 102 144 178 230 308 348 424
#     4  10  23  43  70 103 141 180 233 294 357 440
#     4  12  24  42  70  98 138 186 236 298 350 420
#     4  10  23  43  72 101 137 183 235 287 357 434
#     4  10  22  43  71  98 141 185 239 293 359 429
#     4  11  26  43  66  96 142 187 231 297 349 424
#     4  11  25  42  65 102 134 183 239 285 360 424
#
# _framework density 22.518377000000001
#
# number of rings (size 3 to 8) (size 9 to 14) (size 15 to 20)
#    0.000    1.714    0.000    3.000   10.000    2.286 
#    1.286    6.429    0.000    0.000    0.000    0.000 
#    0.000    0.000    0.000    0.000    0.000    0.000 
#
# Total GULP energy -312245.338555 kJ/mol
# GULP energy per Si atom -5575.809617 kJ/mol
# Density = 2.246712 g / cm^3
# Si number density = 22.518377 Si / 1000 Ang^3
#
#
#
# Elastic Constant Matrix: (Units=GPa)
#
#
# Indices 1 2 3 4 5 6 
#
# 1 95.2160 13.2971 24.3931 0.0000 0.0000 0.0000
# 2 13.2971 47.4974 12.9731 -0.0002 0.0000 0.0000
# 3 24.3931 12.9731 114.6016 -0.0010 0.0001 0.0000
# 4 0.0000 -0.0002 -0.0010 -1.4180 0.0001 0.0000
# 5 0.0000 0.0000 0.0001 0.0001 30.3019 0.0000
# 6 0.0000 0.0000 0.0000 0.0000 0.0000 29.2466
#
#
#
# Elastic Compliance Matrix: (Units=1/GPa)
#
#
# Indices 1 2 3 4 5 6 
#
# 1 0.011414 -0.002613 -0.002134 0.000002 0.000000 0.000000
# 2 -0.002613 0.022324 -0.001971 -0.000002 0.000000 0.000000
# 3 -0.002134 -0.001971 0.009403 -0.000006 0.000000 0.000000
# 4 0.000002 -0.000002 -0.000006 -0.705218 0.000001 0.000000
# 5 0.000000 0.000000 0.000000 0.000001 0.033001 0.000000
# 6 0.000000 0.000000 0.000000 0.000000 0.000000 0.034192
#
#
# Mechanical properties :
#
#
# Convention : Reuss Voigt Hill
#
# Bulk Modulus (GPa) = 33.66317 39.84909 36.75613
# Shear Modulus (GPa) = -8.74818 25.40289 8.32736
#
# Velocity S-wave (km/s) = -1.97315 3.36236 1.92511
# Velocity P-wave (km/s) = 3.12898 5.72788 4.61515
#
# Compressibility (1/GPa) = 0.02970605
#
# Stress axis : x y z
#
# Youngs Moduli (GPa) = 87.61234 44.79576 106.34721
#
# Poissons Ratio (x) = 0.11703 0.22692
# Poissons Ratio (y) = 0.22890 0.20961
# Poissons Ratio (z) = 0.18694 0.08829
#
# Static dielectric constant tensor:
#      x y z
#    x 2.182060 0.000000 0.000000 
#    y 0.000000 1.809790 0.000000 
#    z 0.000000 0.000000 1.961750 
# 
# From -- ./inp_files/11305.got.cif
#   From: 2010.05.17/outbox.cif.g08.bks.cpg/sg73_6_cif.got.tgz:11305.got - 2010.06.03 17:35:07.
