data_PCOD9532771
_publ_section_title
;
Structure prediction by ZEFSAII (Michael W. Deem and Ramdas Pophale) SiO2 
 PCOD9532771
Probable space group: I B C A 
;
_chemical_formula_sum "Si O2"
_cell_formula_units_Z 96
_cell_length_a 16.393490
_cell_length_b 18.344247
_cell_length_c 15.444612
_cell_angle_alpha 90.000000
_cell_angle_beta 90.000000
_cell_angle_gamma 90.000000
_cell_volume 4644.599937
_symmetry_space_group_name_H-M "I B C A "
_symmetry_group_IT_number 73
_symmetry_cell_setting 'orthorhombic'
loop_
_space_group_symop_operation_xyz
x,y,z
-x,1/2-y,z
x,-y,1/2-z
1/2-x,y,-z
-x,-y,-z
x,1/2+y,-z
-x,y,1/2+z
1/2+x,-y,z
1/2+x,1/2+y,1/2+z
1/2-x,-y,1/2+z
1/2+x,1/2-y,-z
-x,1/2+y,1/2-z
1/2-x,1/2-y,1/2-z
1/2+x,y,1/2-z
1/2-x,1/2+y,z
x,1/2-y,1/2+z
loop_
_atom_site_type_symbol
_atom_site_label
_atom_site_fract_x
_atom_site_fract_y
_atom_site_fract_z
Si Si1 0.211521 0.990101 0.406073
Si Si2 0.926116 0.142968 0.316362
Si Si3 0.108929 0.375381 0.857529
Si Si4 0.161635 0.000000 0.750000
Si Si5 0.707947 0.734472 0.407340
Si Si6 0.500000 0.750000 0.176309
Si Si7 0.645354 0.338936 0.841515
O O1 0.250000 0.998117 0.500000
O O2 0.279029 0.008151 0.332745
O O3 0.178099 0.908530 0.392901
O O4 0.139433 0.047597 0.391613
O O5 0.893819 0.069814 0.271217
O O6 0.858295 0.173997 0.381009
O O7 0.011967 0.133105 0.365042
O O8 0.944207 0.201837 0.240884
O O9 0.161403 0.311087 0.900973
O O10 0.127331 0.367047 0.755127
O O11 0.750000 0.725817 0.500000
O O12 0.783537 0.721349 0.342498
O O13 0.438181 0.697958 0.125435
#
# Coordination Sequence:
#
# PCOD9532771 Si02
#       7
#    16  16  16   8  16   8  16
#     4  12  25  45  69 104 142 190 246 299 362 434
#     4  11  23  43  69 103 138 187 239 298 356 430
#     4  11  23  44  68  99 137 188 238 297 361 427
#     4  12  26  40  74 104 140 194 248 282 376 434
#     4  12  23  42  68 101 139 185 233 295 360 430
#     4  10  24  42  70 100 134 176 246 292 352 418
#     4  11  22  42  70  96 135 181 239 289 355 430
#
# _framework density 20.669163999999999
#
# number of rings (size 3 to 8) (size 9 to 14) (size 15 to 20)
#    0.000    0.667    6.667    1.500    7.000    0.000 
#    3.000    2.500    0.000    0.000    0.000    0.000 
#    0.000    0.000    0.000    0.000    0.000    0.000 
#
# Total GULP energy -268426.441933 kJ/mol
# GULP energy per Si atom -5592.217540 kJ/mol
# Density = 2.062212 g / cm^3
# Si number density = 20.669164 Si / 1000 Ang^3
#
#
#
# Elastic Constant Matrix: (Units=GPa)
#
#
# Indices 1 2 3 4 5 6 
#
# 1 152.1053 46.7795 34.2222 0.0000 0.0000 0.0000
# 2 46.7795 106.6075 2.3396 0.0000 0.0000 0.0000
# 3 34.2222 2.3396 61.5487 0.0000 0.0000 0.0000
# 4 0.0000 0.0000 0.0000 17.2722 0.0000 0.0000
# 5 0.0000 0.0000 0.0000 0.0000 6.1018 0.0000
# 6 0.0000 0.0000 0.0000 0.0000 0.0000 50.8648
#
#
#
# Elastic Compliance Matrix: (Units=1/GPa)
#
#
# Indices 1 2 3 4 5 6 
#
# 1 0.008798 -0.003756 -0.004749 0.000000 0.000000 0.000000
# 2 -0.003756 0.010992 0.001671 0.000000 0.000000 0.000000
# 3 -0.004749 0.001671 0.018824 0.000000 0.000000 0.000000
# 4 0.000000 0.000000 0.000000 0.057897 0.000000 0.000000
# 5 0.000000 0.000000 0.000000 0.000000 0.163886 0.000000
# 6 0.000000 0.000000 0.000000 0.000000 0.000000 0.019660
#
#
# Mechanical properties :
#
#
# Convention : Reuss Voigt Hill
#
# Bulk Modulus (GPa) = 40.08832 54.10489 47.09661
# Shear Modulus (GPa) = 16.55403 30.64244 23.59823
#
# Velocity S-wave (km/s) = 2.83310 3.85453 3.38259
# Velocity P-wave (km/s) = 5.48992 6.78552 6.17181
#
# Compressibility (1/GPa) = 0.02494492
#
# Stress axis : x y z
#
# Youngs Moduli (GPa) = 113.65983 90.97639 53.12248
#
# Poissons Ratio (x) = 0.34175 0.25229
# Poissons Ratio (y) = 0.42695 -0.08876
# Poissons Ratio (z) = 0.53979 -0.15201
#
# Static dielectric constant tensor:
#      x y z
#    x 1.739210 0.000000 0.000000 
#    y 0.000000 1.748690 0.000000 
#    z 0.000000 0.000000 1.748150 
# 
# From -- ./inp_files/17122.got.cif
#   From: 2010.05.17/outbox.cif.g08.bks.cpg/sg73_9_cif.got.tgz:17122.got - 2010.06.03 17:35:07.
