data_PCOD9532768
_publ_section_title
;
Structure prediction by ZEFSAII (Michael W. Deem and Ramdas Pophale) SiO2 
 PCOD9532768
Probable space group: I B C A 
;
_chemical_formula_sum "Si O2"
_cell_formula_units_Z 120
_cell_length_a 17.582433
_cell_length_b 24.830665
_cell_length_c 13.082121
_cell_angle_alpha 90.000000
_cell_angle_beta 90.000000
_cell_angle_gamma 90.000000
_cell_volume 5711.438222
_symmetry_space_group_name_H-M "I B C A "
_symmetry_group_IT_number 73
_symmetry_cell_setting 'orthorhombic'
loop_
_space_group_symop_operation_xyz
x,y,z
-x,1/2-y,z
x,-y,1/2-z
1/2-x,y,-z
-x,-y,-z
x,1/2+y,-z
-x,y,1/2+z
1/2+x,-y,z
1/2+x,1/2+y,1/2+z
1/2-x,-y,1/2+z
1/2+x,1/2-y,-z
-x,1/2+y,1/2-z
1/2-x,1/2-y,1/2-z
1/2+x,y,1/2-z
1/2-x,1/2+y,z
x,1/2-y,1/2+z
loop_
_atom_site_type_symbol
_atom_site_label
_atom_site_fract_x
_atom_site_fract_y
_atom_site_fract_z
Si Si1 0.862627 0.677045 0.436418
Si Si2 0.128286 0.445276 0.022343
Si Si3 0.996327 0.121759 0.131716
Si Si4 0.129913 0.539423 0.153709
Si Si5 0.703787 0.156730 0.652420
Si Si6 0.546968 0.053980 0.188066
Si Si7 0.638959 0.293617 0.354702
Si Si8 0.250000 0.144524 0.500000
O O1 0.793123 0.651899 0.371751
O O2 0.832909 0.683427 0.551656
O O3 0.881973 0.732108 0.377726
O O4 0.937110 0.640217 0.442822
O O5 0.104167 0.438344 0.905016
O O6 0.054372 0.427443 0.088902
O O7 0.151359 0.505253 0.053615
O O8 0.193887 0.403152 0.046125
O O9 0.936661 0.169798 0.147359
O O10 0.039341 0.103369 0.233946
O O11 0.146354 0.500000 0.250000
O O12 0.169467 0.596881 0.165740
O O13 0.039245 0.547561 0.148503
O O14 0.683682 0.192970 0.750069
O O15 0.567261 0.000000 0.250000
O O16 0.695488 0.310682 0.445367
#
# Coordination Sequence:
#
# PCOD9532768 Si02
#       8
#    16  16  16  16  16  16  16   8
#     4  11  26  43  67 100 128 174 228 278 336 396
#     4  11  23  41  65  95 137 170 220 270 327 410
#     4  11  23  43  68 100 129 170 224 277 328 404
#     4  11  20  42  67  95 133 181 215 266 347 399
#     4  11  24  44  69  94 137 177 215 280 340 397
#     4  11  22  38  64  96 129 174 218 268 335 396
#     4  11  23  48  68  92 135 175 223 279 337 393
#     4  10  24  42  68  94 130 182 220 268 332 394
#
# _framework density 21.010470000000002
#
# number of rings (size 3 to 8) (size 9 to 14) (size 15 to 20)
#    0.000    1.067    4.000    3.600    3.733    1.067 
#    2.400    1.333    0.000    0.000    0.000    0.000 
#    0.000    0.000    0.000    0.000    0.000    0.000 
#
# Total GULP energy -334310.350640 kJ/mol
# GULP energy per Si atom -5571.839177 kJ/mol
# Density = 2.096265 g / cm^3
# Si number density = 21.010470 Si / 1000 Ang^3
#
#
#
# Elastic Constant Matrix: (Units=GPa)
#
#
# Indices 1 2 3 4 5 6 
#
# 1 87.0516 16.1229 83.2718 0.0000 0.0000 0.0000
# 2 16.1229 94.0497 32.9740 0.0000 0.0000 0.0000
# 3 83.2718 32.9740 173.0188 0.0000 0.0000 0.0000
# 4 0.0000 0.0000 0.0000 31.1804 0.0000 0.0000
# 5 0.0000 0.0000 0.0000 0.0000 22.0795 0.0000
# 6 0.0000 0.0000 0.0000 0.0000 0.0000 -17.3577
#
#
#
# Elastic Compliance Matrix: (Units=1/GPa)
#
#
# Indices 1 2 3 4 5 6 
#
# 1 0.021289 -0.000061 -0.010234 0.000000 0.000000 0.000000
# 2 -0.000061 0.011394 -0.002142 0.000000 0.000000 0.000000
# 3 -0.010234 -0.002142 0.011114 0.000000 0.000000 0.000000
# 4 0.000000 0.000000 0.000000 0.032071 0.000000 0.000000
# 5 0.000000 0.000000 0.000000 0.000000 0.045291 0.000000
# 6 0.000000 0.000000 0.000000 0.000000 0.000000 -0.057611
#
#
# Mechanical properties :
#
#
# Convention : Reuss Voigt Hill
#
# Bulk Modulus (GPa) = 52.85069 68.76194 60.80632
# Shear Modulus (GPa) = 52.78150 21.96384 37.37267
#
# Velocity S-wave (km/s) = 5.01758 3.23674 4.22212
# Velocity P-wave (km/s) = 7.66663 6.83865 7.26444
#
# Compressibility (1/GPa) = 0.01892123
#
# Stress axis : x y z
#
# Youngs Moduli (GPa) = 46.97316 87.76413 89.97992
#
# Poissons Ratio (x) = 0.00538 0.92088
# Poissons Ratio (y) = 0.00288 0.19274
# Poissons Ratio (z) = 0.48074 0.18799
#
# Static dielectric constant tensor:
#      x y z
#    x 1.744780 0.000000 0.000000 
#    y 0.000000 1.741890 0.000000 
#    z 0.000000 0.000000 1.790790 
# 
# From -- ./inp_files/12250.got.cif
#   From: 2010.05.17/outbox.cif.g08.bks.cpg/sg73_7_cif.got.tgz:12250.got - 2010.06.03 17:35:07.
