data_PCOD9532701
_publ_section_title
;
Structure prediction by ZEFSAII (Michael W. Deem and Ramdas Pophale) SiO2 
 PCOD9532701
Probable space group: I B C A 
;
_chemical_formula_sum "Si O2"
_cell_formula_units_Z 64
_cell_length_a 12.263936
_cell_length_b 23.899468
_cell_length_c 8.716001
_cell_angle_alpha 90.000000
_cell_angle_beta 90.000000
_cell_angle_gamma 90.000000
_cell_volume 2554.673368
_symmetry_space_group_name_H-M "I B C A "
_symmetry_group_IT_number 73
_symmetry_cell_setting 'orthorhombic'
loop_
_space_group_symop_operation_xyz
x,y,z
-x,1/2-y,z
x,-y,1/2-z
1/2-x,y,-z
-x,-y,-z
x,1/2+y,-z
-x,y,1/2+z
1/2+x,-y,z
1/2+x,1/2+y,1/2+z
1/2-x,-y,1/2+z
1/2+x,1/2-y,-z
-x,1/2+y,1/2-z
1/2-x,1/2-y,1/2-z
1/2+x,y,1/2-z
1/2-x,1/2+y,z
x,1/2-y,1/2+z
loop_
_atom_site_type_symbol
_atom_site_label
_atom_site_fract_x
_atom_site_fract_y
_atom_site_fract_z
Si Si1 0.256271 0.897160 0.242890
Si Si2 0.894923 0.322719 0.928964
Si Si3 0.500000 0.750000 0.667557
Si Si4 0.425915 0.589156 0.483601
Si Si5 0.374830 0.000000 0.750000
O O1 0.286664 0.848331 0.356464
O O2 0.162909 0.878522 0.123081
O O3 0.203569 0.047919 0.181894
O O4 0.362619 0.916148 0.144467
O O5 0.954416 0.297593 0.778266
O O6 0.965718 0.374976 0.992260
O O7 0.906670 0.274566 0.055697
O O8 0.437777 0.532286 0.384422
#
# Coordination Sequence:
#
# PCOD9532701 Si02
#       5
#    16  16   8  16   8
#     4   9  19  39  61  90 123 161 196 252 293 380
#     4  11  20  43  62  88 124 161 202 255 308 348
#     4  10  24  38  62  92 120 156 212 262 290 360
#     4   9  19  39  61  90 123 161 196 252 293 380
#     4   8  18  38  60  88 124 144 204 240 306 362
#
# _framework density 25.052126999999999
#
# number of rings (size 3 to 8) (size 9 to 14) (size 15 to 20)
#    1.500    1.000    2.500    0.000    0.000    1.000 
#    9.000   11.250    0.000    0.000    0.000    0.000 
#    0.000    0.000    0.000    0.000    0.000    0.000 
#
# Total GULP energy -178718.073242 kJ/mol
# GULP energy per Si atom -5584.939789 kJ/mol
# Density = 2.499511 g / cm^3
# Si number density = 25.052127 Si / 1000 Ang^3
#
#
#
# Elastic Constant Matrix: (Units=GPa)
#
#
# Indices 1 2 3 4 5 6 
#
# 1 47.3836 21.5250 9.2558 0.0003 0.0000 0.0001
# 2 21.5250 91.7366 37.1526 -0.0005 0.0002 0.0001
# 3 9.2558 37.1526 120.4228 0.0034 -0.0021 -0.0014
# 4 0.0003 -0.0005 0.0034 75.1108 -0.0006 -0.0004
# 5 0.0000 0.0002 -0.0021 -0.0006 29.9388 0.0007
# 6 0.0001 0.0001 -0.0014 -0.0004 0.0007 32.8018
#
#
#
# Elastic Compliance Matrix: (Units=1/GPa)
#
#
# Indices 1 2 3 4 5 6 
#
# 1 0.023624 -0.005494 -0.000121 0.000000 0.000000 0.000000
# 2 -0.005494 0.013735 -0.003815 0.000000 0.000000 0.000000
# 3 -0.000121 -0.003815 0.009490 0.000000 0.000001 0.000000
# 4 0.000000 0.000000 0.000000 0.013314 0.000000 0.000000
# 5 0.000000 0.000000 0.000001 0.000000 0.033401 -0.000001
# 6 0.000000 0.000000 0.000000 0.000000 -0.000001 0.030486
#
#
# Mechanical properties :
#
#
# Convention : Reuss Voigt Hill
#
# Bulk Modulus (GPa) = 35.72825 43.93443 39.83134
# Shear Modulus (GPa) = 32.84280 40.34427 36.59353
#
# Velocity S-wave (km/s) = 3.62467 4.01735 3.82605
# Velocity P-wave (km/s) = 5.64005 6.25252 5.95417
#
# Compressibility (1/GPa) = 0.02798905
#
# Stress axis : x y z
#
# Youngs Moduli (GPa) = 42.33020 72.80639 105.36948
#
# Poissons Ratio (x) = 0.40001 0.01272
# Poissons Ratio (y) = 0.23257 0.40201
# Poissons Ratio (z) = 0.00511 0.27777
#
# Static dielectric constant tensor:
#      x y z
#    x 2.063990 0.000000 0.000000 
#    y 0.000000 1.946170 0.000000 
#    z 0.000000 0.000000 1.961040 
# 
# From -- ./inp_files/4747.got.cif
#   From: 2010.05.17/outbox.cif.g08.bks.cpg/sg73_3_cif.got.tgz:4747.got - 2010.06.03 17:35:07.
