data_PCOD9532318
_publ_section_title
;
Structure prediction by ZEFSAII (Michael W. Deem and Ramdas Pophale) SiO2 
 PCOD9532318
Probable space group: I B C A 
;
_chemical_formula_sum "Si O2"
_cell_formula_units_Z 88
_cell_length_a 10.642254
_cell_length_b 16.144845
_cell_length_c 24.532580
_cell_angle_alpha 90.000000
_cell_angle_beta 90.000000
_cell_angle_gamma 90.000000
_cell_volume 4215.127577
_symmetry_space_group_name_H-M "I B C A "
_symmetry_group_IT_number 73
_symmetry_cell_setting 'orthorhombic'
loop_
_space_group_symop_operation_xyz
x,y,z
-x,1/2-y,z
x,-y,1/2-z
1/2-x,y,-z
-x,-y,-z
x,1/2+y,-z
-x,y,1/2+z
1/2+x,-y,z
1/2+x,1/2+y,1/2+z
1/2-x,-y,1/2+z
1/2+x,1/2-y,-z
-x,1/2+y,1/2-z
1/2-x,1/2-y,1/2-z
1/2+x,y,1/2-z
1/2-x,1/2+y,z
x,1/2-y,1/2+z
loop_
_atom_site_type_symbol
_atom_site_label
_atom_site_fract_x
_atom_site_fract_y
_atom_site_fract_z
Si Si1 0.159494 0.863310 0.552834
Si Si2 0.796816 0.709805 0.903074
Si Si3 0.069182 0.538163 0.808901
Si Si4 0.868206 0.226651 0.713341
Si Si5 0.000000 0.250000 0.506567
Si Si6 0.806391 0.473146 0.624960
O O1 0.250000 0.871296 0.500000
O O2 0.195802 0.783164 0.589672
O O3 0.028048 0.832166 0.528207
O O4 0.171338 0.947392 0.586299
O O5 0.857536 0.725060 0.843835
O O6 0.770884 0.612401 0.905154
O O7 0.887192 0.729686 0.953215
O O8 0.041141 0.500000 0.750000
O O9 0.121266 0.630504 0.800509
O O10 0.185635 0.490890 0.837032
O O11 0.939564 0.537914 0.843302
O O12 0.750000 0.250000 0.750000
O O13 0.000000 0.250000 0.741286
#
# Coordination Sequence:
#
# PCOD9532318 Si02
#       6
#    16  16  16  16   8  16
#     4  10  25  43  70 104 137 185 244 293 359 430
#     4  11  22  47  69  98 142 187 228 295 366 413
#     4  12  27  46  69 106 143 186 236 289 361 428
#     4  12  25  47  75 101 140 192 237 290 358 426
#     4  10  22  44  72  96 142 186 240 296 352 440
#     4  12  26  45  73 103 145 184 238 300 351 434
#
# _framework density 20.877184
#
# number of rings (size 3 to 8) (size 9 to 14) (size 15 to 20)
#    0.000    0.727    4.545    1.636    7.636    2.909 
#    1.636    0.000    0.000    0.000    0.000    0.000 
#    0.000    0.000    0.000    0.000    0.000    0.000 
#
# Total GULP energy -245638.059014 kJ/mol
# GULP energy per Si atom -5582.683159 kJ/mol
# Density = 2.082967 g / cm^3
# Si number density = 20.877184 Si / 1000 Ang^3
#
#
#
# Elastic Constant Matrix: (Units=GPa)
#
#
# Indices 1 2 3 4 5 6 
#
# 1 104.2408 35.8123 43.9954 0.0000 0.0000 0.0000
# 2 35.8123 178.5110 57.3052 0.0000 0.0000 0.0000
# 3 43.9954 57.3052 90.9748 0.0000 0.0000 0.0000
# 4 0.0000 0.0000 0.0000 28.1424 0.0000 0.0000
# 5 0.0000 0.0000 0.0000 0.0000 26.7318 0.0000
# 6 0.0000 0.0000 0.0000 0.0000 0.0000 28.7835
#
#
#
# Elastic Compliance Matrix: (Units=1/GPa)
#
#
# Indices 1 2 3 4 5 6 
#
# 1 0.012121 -0.000689 -0.005427 0.000000 0.000000 0.000000
# 2 -0.000689 0.007061 -0.004114 0.000000 0.000000 0.000000
# 3 -0.005427 -0.004114 0.016208 0.000000 0.000000 0.000000
# 4 0.000000 0.000000 0.000000 0.035534 0.000000 0.000000
# 5 0.000000 0.000000 0.000000 0.000000 0.037409 0.000000
# 6 0.000000 0.000000 0.000000 0.000000 0.000000 0.034742
#
#
# Mechanical properties :
#
#
# Convention : Reuss Voigt Hill
#
# Bulk Modulus (GPa) = 66.98857 71.99472 69.49165
# Shear Modulus (GPa) = 29.67141 32.50577 31.08859
#
# Velocity S-wave (km/s) = 3.77402 3.95016 3.86310
# Velocity P-wave (km/s) = 7.15175 7.44075 7.29768
#
# Compressibility (1/GPa) = 0.01492792
#
# Stress axis : x y z
#
# Youngs Moduli (GPa) = 82.50398 141.62362 61.69664
#
# Poissons Ratio (x) = 0.09763 0.33485
# Poissons Ratio (y) = 0.05687 0.25384
# Poissons Ratio (z) = 0.44778 0.58269
#
# Static dielectric constant tensor:
#      x y z
#    x 1.786180 0.000000 0.000000 
#    y 0.000000 1.766740 0.000000 
#    z 0.000000 0.000000 1.778430 
# 
# From -- ./inp_files/28841.got.cif
#   From: 2010.05.17/outbox.cif.g08.bks.cpg/sg73_15_cif.got.tgz:28841.got - 2010.06.03 17:35:07.
