data_PCOD9532493
_publ_section_title
;
Structure prediction by ZEFSAII (Michael W. Deem and Ramdas Pophale) SiO2 
 PCOD9532493
Probable space group: I B C A 
;
_chemical_formula_sum "Si O2"
_cell_formula_units_Z 72
_cell_length_a 21.400156
_cell_length_b 8.943093
_cell_length_c 17.376020
_cell_angle_alpha 90.000000
_cell_angle_beta 90.000000
_cell_angle_gamma 90.000000
_cell_volume 3325.485006
_symmetry_space_group_name_H-M "I B C A "
_symmetry_group_IT_number 73
_symmetry_cell_setting 'orthorhombic'
loop_
_space_group_symop_operation_xyz
x,y,z
-x,1/2-y,z
x,-y,1/2-z
1/2-x,y,-z
-x,-y,-z
x,1/2+y,-z
-x,y,1/2+z
1/2+x,-y,z
1/2+x,1/2+y,1/2+z
1/2-x,-y,1/2+z
1/2+x,1/2-y,-z
-x,1/2+y,1/2-z
1/2-x,1/2-y,1/2-z
1/2+x,y,1/2-z
1/2-x,1/2+y,z
x,1/2-y,1/2+z
loop_
_atom_site_type_symbol
_atom_site_label
_atom_site_fract_x
_atom_site_fract_y
_atom_site_fract_z
Si Si1 0.087511 0.048405 0.836201
Si Si2 0.000000 0.750000 0.069022
Si Si3 0.179953 0.436879 0.571515
Si Si4 0.197800 0.287283 0.404097
Si Si5 0.569631 0.741347 0.082613
O O1 0.144820 0.163083 0.844259
O O2 0.027716 0.120210 0.878643
O O3 0.074392 0.000000 0.750000
O O4 0.104703 0.899389 0.882992
O O5 0.054848 0.788948 0.007853
O O6 0.184271 0.376556 0.483780
O O7 0.232863 0.343165 0.617056
O O8 0.194277 0.611168 0.579562
O O9 0.110435 0.387893 0.595386
O O10 0.500000 0.750000 0.117605
#
# Coordination Sequence:
#
# PCOD9532493 Si02
#       5
#    16   8  16  16  16
#     4  12  26  43  66 104 149 184 238 305 373 436
#     4  10  24  40  74  92 136 188 246 292 362 426
#     4  11  21  39  71 100 137 181 245 295 353 423
#     4  11  22  39  66 103 136 184 238 299 357 432
#     4  10  23  41  69 101 135 182 243 292 354 436
#
# _framework density 21.650976
#
# number of rings (size 3 to 8) (size 9 to 14) (size 15 to 20)
#    0.667    0.444    2.222    6.000    4.667    0.000 
#    0.000    5.556    0.000    0.000    0.000    0.000 
#    0.000    0.000    0.000    0.000    0.000    0.000 
#
# Total GULP energy -201083.773072 kJ/mol
# GULP energy per Si atom -5585.660363 kJ/mol
# Density = 2.160170 g / cm^3
# Si number density = 21.650976 Si / 1000 Ang^3
#
#
#
# Elastic Constant Matrix: (Units=GPa)
#
#
# Indices 1 2 3 4 5 6 
#
# 1 106.7224 49.4911 10.0733 0.0000 0.0000 0.0000
# 2 49.4911 174.4715 47.1243 0.0000 0.0000 0.0000
# 3 10.0733 47.1243 83.8199 0.0000 0.0000 0.0000
# 4 0.0000 0.0000 0.0000 43.3782 0.0000 0.0000
# 5 0.0000 0.0000 0.0000 0.0000 9.9909 0.0000
# 6 0.0000 0.0000 0.0000 0.0000 0.0000 39.9294
#
#
#
# Elastic Compliance Matrix: (Units=1/GPa)
#
#
# Indices 1 2 3 4 5 6 
#
# 1 0.010807 -0.003201 0.000501 0.000000 0.000000 0.000000
# 2 -0.003201 0.007706 -0.003948 0.000000 0.000000 0.000000
# 3 0.000501 -0.003948 0.014090 0.000000 0.000000 0.000000
# 4 0.000000 0.000000 0.000000 0.023053 0.000000 0.000000
# 5 0.000000 0.000000 0.000000 0.000000 0.100091 0.000000
# 6 0.000000 0.000000 0.000000 0.000000 0.000000 0.025044
#
#
# Mechanical properties :
#
#
# Convention : Reuss Voigt Hill
#
# Bulk Modulus (GPa) = 51.79433 64.26571 58.03002
# Shear Modulus (GPa) = 24.93493 35.88138 30.40815
#
# Velocity S-wave (km/s) = 3.39732 4.07537 3.75169
# Velocity P-wave (km/s) = 6.27402 7.20360 6.75482
#
# Compressibility (1/GPa) = 0.01930713
#
# Stress axis : x y z
#
# Youngs Moduli (GPa) = 92.53098 129.77253 70.97472
#
# Poissons Ratio (x) = 0.41538 -0.03554
# Poissons Ratio (y) = 0.29618 0.28018
# Poissons Ratio (z) = -0.04634 0.51229
#
# Static dielectric constant tensor:
#      x y z
#    x 1.893400 0.000000 0.000000 
#    y 0.000000 1.789930 0.000000 
#    z 0.000000 0.000000 1.766800 
# 
# From -- ./inp_files/26836.got.cif
#   From: 2010.05.17/outbox.cif.g08.bks.cpg/sg73_14_cif.got.tgz:26836.got - 2010.06.03 17:35:07.
