data_PCOD9532657
_publ_section_title
;
Structure prediction by ZEFSAII (Michael W. Deem and Ramdas Pophale) SiO2 
 PCOD9532657
Probable space group: I B C A 
;
_chemical_formula_sum "Si O2"
_cell_formula_units_Z 112
_cell_length_a 26.626024
_cell_length_b 13.484405
_cell_length_c 14.141995
_cell_angle_alpha 90.000000
_cell_angle_beta 90.000000
_cell_angle_gamma 90.000000
_cell_volume 5077.486606
_symmetry_space_group_name_H-M "I B C A "
_symmetry_group_IT_number 73
_symmetry_cell_setting 'orthorhombic'
loop_
_space_group_symop_operation_xyz
x,y,z
-x,1/2-y,z
x,-y,1/2-z
1/2-x,y,-z
-x,-y,-z
x,1/2+y,-z
-x,y,1/2+z
1/2+x,-y,z
1/2+x,1/2+y,1/2+z
1/2-x,-y,1/2+z
1/2+x,1/2-y,-z
-x,1/2+y,1/2-z
1/2-x,1/2-y,1/2-z
1/2+x,y,1/2-z
1/2-x,1/2+y,z
x,1/2-y,1/2+z
loop_
_atom_site_type_symbol
_atom_site_label
_atom_site_fract_x
_atom_site_fract_y
_atom_site_fract_z
Si Si1 0.487298 0.929163 0.838848
Si Si2 0.083378 0.169859 0.935808
Si Si3 0.686614 0.422525 0.674333
Si Si4 0.105876 0.014303 0.467328
Si Si5 0.085991 0.178720 0.598655
Si Si6 0.781941 0.000000 0.250000
Si Si7 0.158567 0.793699 0.734862
Si Si8 0.500000 0.250000 0.272970
O O1 0.533912 0.889827 0.901672
O O2 0.443555 0.976139 0.901850
O O3 0.469158 0.826953 0.790185
O O4 0.500309 0.000000 0.750000
O O5 0.116151 0.195437 0.845293
O O6 0.073628 0.264330 0.001455
O O7 0.114132 0.099018 0.007052
O O8 0.662018 0.500000 0.750000
O O9 0.652492 0.432978 0.582762
O O10 0.742608 0.532465 0.832646
O O11 0.687278 0.309391 0.711632
O O12 0.096788 0.068021 0.566775
O O13 0.132013 0.215548 0.662859
O O14 0.037281 0.188595 0.662624
O O15 0.812179 0.899048 0.230705
#
# Coordination Sequence:
#
# PCOD9532657 Si02
#       8
#    16  16  16  16  16   8  16   8
#     4  12  24  41  65 103 142 198 236 287 346 429
#     4  12  25  42  68 103 145 185 236 290 353 430
#     4  10  23  46  74 102 137 187 236 294 365 427
#     4  12  23  42  66 103 145 187 243 286 354 424
#     4  12  24  41  69 100 142 186 232 293 342 429
#     4  10  26  44  84  98 144 182 238 310 368 444
#     4  12  23  49  72 107 141 191 236 298 378 429
#     4  12  22  40  64  98 140 190 240 274 350 408
#
# _framework density 22.058159
#
# number of rings (size 3 to 8) (size 9 to 14) (size 15 to 20)
#    0.429    0.000    2.857    7.286    1.000    0.000 
#    0.000    2.857    0.000    0.000    0.000    0.000 
#    0.000    0.000    0.000    0.000    0.000    0.000 
#
# Total GULP energy -312892.073606 kJ/mol
# GULP energy per Si atom -5587.358457 kJ/mol
# Density = 2.200795 g / cm^3
# Si number density = 22.058159 Si / 1000 Ang^3
#
#
#
# Elastic Constant Matrix: (Units=GPa)
#
#
# Indices 1 2 3 4 5 6 
#
# 1 81.1874 36.3627 39.3462 0.0000 0.0000 0.0000
# 2 36.3627 122.5839 25.0166 0.0000 0.0000 0.0000
# 3 39.3462 25.0166 83.2478 0.0000 0.0000 0.0000
# 4 0.0000 0.0000 0.0000 36.1626 0.0000 0.0000
# 5 0.0000 0.0000 0.0000 0.0000 0.5088 0.0000
# 6 0.0000 0.0000 0.0000 0.0000 0.0000 32.7051
#
#
#
# Elastic Compliance Matrix: (Units=1/GPa)
#
#
# Indices 1 2 3 4 5 6 
#
# 1 0.017434 -0.003718 -0.007123 0.000000 0.000000 0.000000
# 2 -0.003718 0.009484 -0.001093 0.000000 0.000000 0.000000
# 3 -0.007123 -0.001093 0.015707 0.000000 0.000000 0.000000
# 4 0.000000 0.000000 0.000000 0.027653 0.000000 0.000000
# 5 0.000000 0.000000 0.000000 0.000000 1.965404 0.000000
# 6 0.000000 0.000000 0.000000 0.000000 0.000000 0.030576
#
#
# Mechanical properties :
#
#
# Convention : Reuss Voigt Hill
#
# Bulk Modulus (GPa) = 53.31014 54.27445 53.79230
# Shear Modulus (GPa) = 2.38507 26.29488 14.33997
#
# Velocity S-wave (km/s) = 1.04097 3.45638 2.55247
# Velocity P-wave (km/s) = 5.06609 6.37082 5.75555
#
# Compressibility (1/GPa) = 0.01875816
#
# Stress axis : x y z
#
# Youngs Moduli (GPa) = 57.35768 105.44573 63.66498
#
# Poissons Ratio (x) = 0.39205 0.45348
# Poissons Ratio (y) = 0.21326 0.06956
# Poissons Ratio (z) = 0.40855 0.11521
#
# Static dielectric constant tensor:
#      x y z
#    x 1.817500 0.000000 0.000000 
#    y 0.000000 1.846640 0.000000 
#    z 0.000000 0.000000 1.809700 
# 
# From -- ./inp_files/14868.got.cif
#   From: 2010.05.17/outbox.cif.g08.bks.cpg/sg73_8_cif.got.tgz:14868.got - 2010.06.03 17:35:07.
