data_PCOD9532437
_publ_section_title
;
Structure prediction by ZEFSAII (Michael W. Deem and Ramdas Pophale) SiO2 
 PCOD9532437
Probable space group: I B C A 
;
_chemical_formula_sum "Si O2"
_cell_formula_units_Z 56
_cell_length_a 26.205703
_cell_length_b 18.617709
_cell_length_c 4.911836
_cell_angle_alpha 90.000000
_cell_angle_beta 90.000000
_cell_angle_gamma 90.000000
_cell_volume 2396.436416
_symmetry_space_group_name_H-M "I B C A "
_symmetry_group_IT_number 73
_symmetry_cell_setting 'orthorhombic'
loop_
_space_group_symop_operation_xyz
x,y,z
-x,1/2-y,z
x,-y,1/2-z
1/2-x,y,-z
-x,-y,-z
x,1/2+y,-z
-x,y,1/2+z
1/2+x,-y,z
1/2+x,1/2+y,1/2+z
1/2-x,-y,1/2+z
1/2+x,1/2-y,-z
-x,1/2+y,1/2-z
1/2-x,1/2-y,1/2-z
1/2+x,y,1/2-z
1/2-x,1/2+y,z
x,1/2-y,1/2+z
loop_
_atom_site_type_symbol
_atom_site_label
_atom_site_fract_x
_atom_site_fract_y
_atom_site_fract_z
Si Si1 0.361473 0.301542 0.580603
Si Si2 0.038083 0.000000 0.250000
Si Si3 0.379086 0.569208 0.552889
Si Si4 0.750000 0.304008 0.000000
Si Si5 0.286952 0.000000 0.750000
O O1 0.368044 0.267770 0.281063
O O2 0.388718 0.363741 0.750436
O O3 0.304917 0.337514 0.549475
O O4 0.077529 0.063925 0.321509
O O5 0.000000 0.000000 0.500000
O O6 0.383204 0.500000 0.750000
O O7 0.325091 0.558027 0.394372
O O8 0.750000 0.250000 0.250000
O O9 0.250000 0.976864 0.500000
#
# Coordination Sequence:
#
# PCOD9532437 Si02
#       5
#    16   8  16   8   8
#     4  10  23  39  63  92 136 184 228 281 334 399
#     4  11  24  45  74 104 128 165 222 295 350 422
#     4  11  25  43  72 102 133 177 238 278 350 414
#     4   8  16  36  54  82 124 178 226 256 310 392
#     4  11  24  41  60  98 140 179 216 287 338 394
#
# _framework density 23.368031999999999
#
# number of rings (size 3 to 8) (size 9 to 14) (size 15 to 20)
#    0.000    1.714    2.857    0.000    8.000    2.286 
#   10.286    0.000    0.000    5.143    0.000    0.000 
#    0.000    0.000    0.000    0.000    0.000    0.000 
#
# Total GULP energy -155894.449948 kJ/mol
# GULP energy per Si atom -5567.658927 kJ/mol
# Density = 2.331485 g / cm^3
# Si number density = 23.368032 Si / 1000 Ang^3
#
#
#
# Elastic Constant Matrix: (Units=GPa)
#
#
# Indices 1 2 3 4 5 6 
#
# 1 98.6687 7.4827 42.3733 0.0000 0.0000 0.0000
# 2 7.4827 71.5510 18.8702 0.0000 0.0000 0.0000
# 3 42.3733 18.8702 198.1221 0.0000 0.0000 0.0000
# 4 0.0000 0.0000 0.0000 55.5303 0.0000 0.0000
# 5 0.0000 0.0000 0.0000 0.0000 63.6719 0.0000
# 6 0.0000 0.0000 0.0000 0.0000 0.0000 8.4018
#
#
#
# Elastic Compliance Matrix: (Units=1/GPa)
#
#
# Indices 1 2 3 4 5 6 
#
# 1 0.011181 -0.000553 -0.002339 0.000000 0.000000 0.000000
# 2 -0.000553 0.014363 -0.001250 0.000000 0.000000 0.000000
# 3 -0.002339 -0.001250 0.005667 0.000000 0.000000 0.000000
# 4 0.000000 0.000000 0.000000 0.018008 0.000000 0.000000
# 5 0.000000 0.000000 0.000000 0.000000 0.015706 0.000000
# 6 0.000000 0.000000 0.000000 0.000000 0.000000 0.119022
#
#
# Mechanical properties :
#
#
# Convention : Reuss Voigt Hill
#
# Bulk Modulus (GPa) = 43.61287 56.19934 49.90611
# Shear Modulus (GPa) = 25.01594 45.49517 35.25556
#
# Velocity S-wave (km/s) = 3.27543 4.41715 3.88842
# Velocity P-wave (km/s) = 5.74531 7.07933 6.44692
#
# Compressibility (1/GPa) = 0.02292901
#
# Stress axis : x y z
#
# Youngs Moduli (GPa) = 89.43580 69.62110 176.47155
#
# Poissons Ratio (x) = 0.03847 0.41272
# Poissons Ratio (y) = 0.04941 0.22057
# Poissons Ratio (z) = 0.20917 0.08702
#
# Static dielectric constant tensor:
#      x y z
#    x 1.974240 0.000000 0.000000 
#    y 0.000000 2.058440 0.000000 
#    z 0.000000 0.000000 1.933890 
# 
# From -- ./inp_files/2461.got.cif
#   From: 2010.05.17/outbox.cif.g08.bks.cpg/sg73_2_cif.got.tgz:2461.got - 2010.06.03 17:35:07.
