data_PCOD9532953
_publ_section_title
;
Structure prediction by ZEFSAII (Michael W. Deem and Ramdas Pophale) SiO2 
 PCOD9532953
Probable space group: I B C A 
;
_chemical_formula_sum "Si O2"
_cell_formula_units_Z 96
_cell_length_a 21.788561
_cell_length_b 13.530864
_cell_length_c 14.052014
_cell_angle_alpha 90.000000
_cell_angle_beta 90.000000
_cell_angle_gamma 90.000000
_cell_volume 4142.787445
_symmetry_space_group_name_H-M "I B C A "
_symmetry_group_IT_number 73
_symmetry_cell_setting 'orthorhombic'
loop_
_space_group_symop_operation_xyz
x,y,z
-x,1/2-y,z
x,-y,1/2-z
1/2-x,y,-z
-x,-y,-z
x,1/2+y,-z
-x,y,1/2+z
1/2+x,-y,z
1/2+x,1/2+y,1/2+z
1/2-x,-y,1/2+z
1/2+x,1/2-y,-z
-x,1/2+y,1/2-z
1/2-x,1/2-y,1/2-z
1/2+x,y,1/2-z
1/2-x,1/2+y,z
x,1/2-y,1/2+z
loop_
_atom_site_type_symbol
_atom_site_label
_atom_site_fract_x
_atom_site_fract_y
_atom_site_fract_z
Si Si1 0.800074 0.708783 0.380098
Si Si2 0.053613 0.519543 0.636374
Si Si3 0.328823 0.895266 0.800481
Si Si4 0.538734 0.151988 0.517501
Si Si5 0.707587 0.579418 0.090756
Si Si6 0.169413 0.631999 0.075023
O O1 0.833667 0.685338 0.282266
O O2 0.823138 0.813969 0.419858
O O3 0.815303 0.630602 0.462297
O O4 0.725297 0.694055 0.377858
O O5 0.043458 0.500000 0.750000
O O6 0.115789 0.412639 0.873858
O O7 0.054362 0.417650 0.574661
O O8 0.000623 0.584129 0.588677
O O9 0.332672 0.000000 0.750000
O O10 0.258577 0.105492 0.668209
O O11 0.500000 0.250000 0.492737
O O12 0.601641 0.175699 0.574534
O O13 0.670628 0.480655 0.111781
O O14 0.750000 0.560335 0.000000
#
# Coordination Sequence:
#
# PCOD9532953 Si02
#       6
#    16  16  16  16  16  16
#     4  11  23  38  67 105 135 184 230 293 370 436
#     4  10  24  47  72 100 139 195 249 302 368 436
#     4  11  21  41  66  95 137 180 228 291 363 433
#     4  11  26  46  73 100 143 200 248 309 368 444
#     4  12  21  37  64  98 141 178 220 294 358 431
#     4  11  22  42  65 100 141 177 238 291 366 436
#
# _framework density 23.172802999999998
#
# number of rings (size 3 to 8) (size 9 to 14) (size 15 to 20)
#    0.000    1.000    5.000    3.500    2.333    3.333 
#    3.000    0.000    0.000    0.000    0.000    0.000 
#    0.000    0.000    0.000    0.000    0.000    0.000 
#
# Total GULP energy -267639.047115 kJ/mol
# GULP energy per Si atom -5575.813482 kJ/mol
# Density = 2.312006 g / cm^3
# Si number density = 23.172803 Si / 1000 Ang^3
#
#
#
# Elastic Constant Matrix: (Units=GPa)
#
#
# Indices 1 2 3 4 5 6 
#
# 1 101.6848 42.7541 22.9893 0.0000 0.0000 0.0000
# 2 42.7541 165.6237 32.7047 0.0000 0.0000 0.0000
# 3 22.9893 32.7047 78.1592 0.0000 0.0000 0.0000
# 4 0.0000 0.0000 0.0000 31.3099 0.0000 0.0000
# 5 0.0000 0.0000 0.0000 0.0000 30.7844 0.0000
# 6 0.0000 0.0000 0.0000 0.0000 0.0000 58.1416
#
#
#
# Elastic Compliance Matrix: (Units=1/GPa)
#
#
# Indices 1 2 3 4 5 6 
#
# 1 0.011403 -0.002487 -0.002313 0.000000 0.000000 0.000000
# 2 -0.002487 0.007124 -0.002249 0.000000 0.000000 0.000000
# 3 -0.002313 -0.002249 0.014416 0.000000 0.000000 0.000000
# 4 0.000000 0.000000 0.000000 0.031939 0.000000 0.000000
# 5 0.000000 0.000000 0.000000 0.000000 0.032484 0.000000
# 6 0.000000 0.000000 0.000000 0.000000 0.000000 0.017199
#
#
# Mechanical properties :
#
#
# Convention : Reuss Voigt Hill
#
# Bulk Modulus (GPa) = 53.06830 60.26265 56.66548
# Shear Modulus (GPa) = 37.05197 40.51516 38.78356
#
# Velocity S-wave (km/s) = 4.00302 4.18591 4.09549
# Velocity P-wave (km/s) = 6.65705 7.03027 6.84621
#
# Compressibility (1/GPa) = 0.01884364
#
# Stress axis : x y z
#
# Youngs Moduli (GPa) = 87.69694 140.37270 69.36674
#
# Poissons Ratio (x) = 0.34907 0.16048
# Poissons Ratio (y) = 0.21808 0.15604
# Poissons Ratio (z) = 0.20288 0.31576
#
# Static dielectric constant tensor:
#      x y z
#    x 2.121460 0.000000 0.000000 
#    y 0.000000 1.852930 0.000000 
#    z 0.000000 0.000000 1.944150 
# 
# From -- ./inp_files/18631.got.cif
#   From: 2010.05.17/outbox.cif.g08.bks.cpg/sg73_10_cif.got.tgz:18631.got - 2010.06.03 17:35:07.
