data_PCOD9532628
_publ_section_title
;
Structure prediction by ZEFSAII (Michael W. Deem and Ramdas Pophale) SiO2 
 PCOD9532628
Probable space group: I B C A 
;
_chemical_formula_sum "Si O2"
_cell_formula_units_Z 72
_cell_length_a 14.889162
_cell_length_b 20.384370
_cell_length_c 11.614499
_cell_angle_alpha 90.000000
_cell_angle_beta 90.000000
_cell_angle_gamma 90.000000
_cell_volume 3525.072308
_symmetry_space_group_name_H-M "I B C A "
_symmetry_group_IT_number 73
_symmetry_cell_setting 'orthorhombic'
loop_
_space_group_symop_operation_xyz
x,y,z
-x,1/2-y,z
x,-y,1/2-z
1/2-x,y,-z
-x,-y,-z
x,1/2+y,-z
-x,y,1/2+z
1/2+x,-y,z
1/2+x,1/2+y,1/2+z
1/2-x,-y,1/2+z
1/2+x,1/2-y,-z
-x,1/2+y,1/2-z
1/2-x,1/2-y,1/2-z
1/2+x,y,1/2-z
1/2-x,1/2+y,z
x,1/2-y,1/2+z
loop_
_atom_site_type_symbol
_atom_site_label
_atom_site_fract_x
_atom_site_fract_y
_atom_site_fract_z
Si Si1 0.750000 0.733750 0.000000
Si Si2 0.928655 0.191370 0.879353
Si Si3 0.776055 0.044797 0.362270
Si Si4 0.141922 0.659848 0.858403
Si Si5 0.962620 0.070142 0.460991
O O1 0.828220 0.697023 0.069046
O O2 0.690177 0.780774 0.078702
O O3 0.915100 0.190373 0.743313
O O4 0.000000 0.250000 0.911964
O O5 0.964951 0.119625 0.910441
O O6 0.750000 0.026882 0.500000
O O7 0.723950 0.111154 0.330702
O O8 0.881950 0.057345 0.372164
O O9 0.757195 0.000000 0.250000
O O10 0.079973 0.612999 0.936001
O O11 0.000000 0.000000 0.500000
#
# Coordination Sequence:
#
# PCOD9532628 Si02
#       5
#     8  16  16  16  16
#     4  12  24  52  68 106 144 194 242 312 374 436
#     4  12  27  44  77 106 140 196 250 303 374 450
#     4  10  23  45  73 102 150 191 243 305 379 441
#     4  11  24  47  71 100 148 184 247 308 369 445
#     4  11  26  46  71 106 148 190 242 310 374 449
#
# _framework density 20.425114000000001
#
# number of rings (size 3 to 8) (size 9 to 14) (size 15 to 20)
#    0.000    0.889    5.556    0.667   12.444    1.778 
#    0.000    0.000    0.000    0.000    0.000    0.000 
#    0.000    0.000    0.000    0.000    0.000    0.000 
#
# Total GULP energy -200623.353719 kJ/mol
# GULP energy per Si atom -5572.870937 kJ/mol
# Density = 2.037863 g / cm^3
# Si number density = 20.425114 Si / 1000 Ang^3
#
#
#
# Elastic Constant Matrix: (Units=GPa)
#
#
# Indices 1 2 3 4 5 6 
#
# 1 104.4496 46.4711 31.5242 0.0000 0.0000 0.0000
# 2 46.4711 82.8316 42.6579 0.0000 0.0000 0.0000
# 3 31.5242 42.6579 59.2221 0.0000 0.0000 -0.0001
# 4 0.0000 0.0000 0.0000 136.9780 0.0000 -0.0001
# 5 0.0000 0.0000 0.0000 0.0000 -109.3225 -0.0001
# 6 0.0000 0.0000 -0.0001 -0.0001 -0.0001 -278.9835
#
#
#
# Elastic Compliance Matrix: (Units=1/GPa)
#
#
# Indices 1 2 3 4 5 6 
#
# 1 0.013016 -0.005936 -0.002652 0.000000 0.000000 0.000000
# 2 -0.005936 0.021899 -0.012614 0.000000 0.000000 0.000000
# 3 -0.002652 -0.012614 0.027384 0.000000 0.000000 0.000000
# 4 0.000000 0.000000 0.000000 0.007300 0.000000 0.000000
# 5 0.000000 0.000000 0.000000 0.000000 -0.009147 0.000000
# 6 0.000000 0.000000 0.000000 0.000000 0.000000 -0.003584
#
#
# Mechanical properties :
#
#
# Convention : Reuss Voigt Hill
#
# Bulk Modulus (GPa) = 50.26959 54.20108 52.23533
# Shear Modulus (GPa) = 47.21245 -41.87560 2.66842
#
# Velocity S-wave (km/s) = 4.81301 -4.53283 1.14424
# Velocity P-wave (km/s) = 7.45331 0.89514 5.23214
#
# Compressibility (1/GPa) = 0.01989274
#
# Stress axis : x y z
#
# Youngs Moduli (GPa) = 76.83076 45.66332 36.51816
#
# Poissons Ratio (x) = 0.27107 0.09686
# Poissons Ratio (y) = 0.45608 0.46065
# Poissons Ratio (z) = 0.20379 0.57601
#
# Static dielectric constant tensor:
#      x y z
#    x 1.757090 0.000000 0.000000 
#    y 0.000000 1.862790 0.000000 
#    z 0.000000 0.000000 1.732520 
# 
# From -- ./inp_files/10611.got.cif
#   From: 2010.05.17/outbox.cif.g08.bks.cpg/sg73_6_cif.got.tgz:10611.got - 2010.06.03 17:35:07.
