data_PCOD9532189
_publ_section_title
;
Structure prediction by ZEFSAII (Michael W. Deem and Ramdas Pophale) SiO2 
 PCOD9532189
Probable space group: I B C A 
;
_chemical_formula_sum "Si O2"
_cell_formula_units_Z 72
_cell_length_a 12.635285
_cell_length_b 10.604215
_cell_length_c 25.470962
_cell_angle_alpha 90.000000
_cell_angle_beta 90.000000
_cell_angle_gamma 90.000000
_cell_volume 3412.784885
_symmetry_space_group_name_H-M "I B C A "
_symmetry_group_IT_number 73
_symmetry_cell_setting 'orthorhombic'
loop_
_space_group_symop_operation_xyz
x,y,z
-x,1/2-y,z
x,-y,1/2-z
1/2-x,y,-z
-x,-y,-z
x,1/2+y,-z
-x,y,1/2+z
1/2+x,-y,z
1/2+x,1/2+y,1/2+z
1/2-x,-y,1/2+z
1/2+x,1/2-y,-z
-x,1/2+y,1/2-z
1/2-x,1/2-y,1/2-z
1/2+x,y,1/2-z
1/2-x,1/2+y,z
x,1/2-y,1/2+z
loop_
_atom_site_type_symbol
_atom_site_label
_atom_site_fract_x
_atom_site_fract_y
_atom_site_fract_z
Si Si1 0.000000 0.750000 0.016531
Si Si2 0.645791 0.527132 0.305539
Si Si3 0.713117 0.295748 0.662083
Si Si4 0.388195 0.296314 0.415537
Si Si5 0.529904 0.563025 0.892376
O O1 0.994291 0.869956 0.054178
O O2 0.098067 0.746957 0.975807
O O3 0.589170 0.500000 0.250000
O O4 0.732157 0.416097 0.311000
O O5 0.697397 0.666502 0.305909
O O6 0.567247 0.523290 0.355296
O O7 0.788303 0.259198 0.613361
O O8 0.600591 0.339722 0.640377
O O9 0.500000 0.250000 0.390446
O O10 0.396141 0.445818 0.408343
#
# Coordination Sequence:
#
# PCOD9532189 Si02
#       5
#     8  16  16  16  16
#     4  10  22  42  70 102 134 190 234 286 358 432
#     4  12  26  46  70 100 136 186 235 299 354 411
#     4  12  24  46  71 103 140 181 240 292 348 432
#     4  10  23  42  69  99 139 186 221 289 356 423
#     4  12  23  46  68  99 147 175 239 295 349 430
#
# _framework density 21.097141000000001
#
# number of rings (size 3 to 8) (size 9 to 14) (size 15 to 20)
#    0.667    0.000    6.667    1.333    0.000    1.778 
#    8.000    2.222    0.000    0.000    0.000    0.000 
#    0.000    0.000    0.000    0.000    0.000    0.000 
#
# Total GULP energy -200989.241495 kJ/mol
# GULP energy per Si atom -5583.034486 kJ/mol
# Density = 2.104912 g / cm^3
# Si number density = 21.097141 Si / 1000 Ang^3
#
#
#
# Elastic Constant Matrix: (Units=GPa)
#
#
# Indices 1 2 3 4 5 6 
#
# 1 63.3001 20.2488 17.6271 0.0000 0.0000 0.0000
# 2 20.2488 132.7435 33.9535 0.0000 0.0000 0.0000
# 3 17.6271 33.9535 86.3155 0.0000 0.0000 0.0000
# 4 0.0000 0.0000 0.0000 -29.6453 0.0000 0.0000
# 5 0.0000 0.0000 0.0000 0.0000 -7.2016 0.0000
# 6 0.0000 0.0000 0.0000 0.0000 0.0000 31.8884
#
#
#
# Elastic Compliance Matrix: (Units=1/GPa)
#
#
# Indices 1 2 3 4 5 6 
#
# 1 0.017178 -0.001916 -0.002754 0.000000 0.000000 0.000000
# 2 -0.001916 0.008590 -0.002988 0.000000 0.000000 0.000000
# 3 -0.002754 -0.002988 0.013323 0.000000 0.000000 0.000000
# 4 0.000000 0.000000 0.000000 -0.033732 0.000000 0.000000
# 5 0.000000 0.000000 0.000000 0.000000 -0.138858 0.000000
# 6 0.000000 0.000000 0.000000 0.000000 0.000000 0.031359
#
#
# Mechanical properties :
#
#
# Convention : Reuss Voigt Hill
#
# Bulk Modulus (GPa) = 42.06120 47.33531 44.69825
# Shear Modulus (GPa) = -63.37200 13.04360 -25.16420
#
# Velocity S-wave (km/s) = -5.48666 2.48919 -3.45741
# Velocity P-wave (km/s) = 4.48973 5.54499 2.30101
#
# Compressibility (1/GPa) = 0.02377488
#
# Stress axis : x y z
#
# Youngs Moduli (GPa) = 58.21540 116.41771 75.05738
#
# Poissons Ratio (x) = 0.22303 0.20673
# Poissons Ratio (y) = 0.11153 0.22425
# Poissons Ratio (z) = 0.16035 0.34782
#
# Static dielectric constant tensor:
#      x y z
#    x 1.737280 0.000000 0.000000 
#    y 0.000000 1.789430 0.000000 
#    z 0.000000 0.000000 1.757620 
# 
# From -- ./inp_files/32029.got.cif
#   From: 2010.05.17/outbox.cif.g08.bks.cpg/sg73_17_cif.got.tgz:32029.got - 2010.06.03 17:35:07.
