data_PCOD9532973
_publ_section_title
;
Structure prediction by ZEFSAII (Michael W. Deem and Ramdas Pophale) SiO2 
 PCOD9532973
Probable space group: I B C A 
;
_chemical_formula_sum "Si O2"
_cell_formula_units_Z 64
_cell_length_a 22.030951
_cell_length_b 11.261349
_cell_length_c 11.108691
_cell_angle_alpha 90.000000
_cell_angle_beta 90.000000
_cell_angle_gamma 90.000000
_cell_volume 2756.046553
_symmetry_space_group_name_H-M "I B C A "
_symmetry_group_IT_number 73
_symmetry_cell_setting 'orthorhombic'
loop_
_space_group_symop_operation_xyz
x,y,z
-x,1/2-y,z
x,-y,1/2-z
1/2-x,y,-z
-x,-y,-z
x,1/2+y,-z
-x,y,1/2+z
1/2+x,-y,z
1/2+x,1/2+y,1/2+z
1/2-x,-y,1/2+z
1/2+x,1/2-y,-z
-x,1/2+y,1/2-z
1/2-x,1/2-y,1/2-z
1/2+x,y,1/2-z
1/2-x,1/2+y,z
x,1/2-y,1/2+z
loop_
_atom_site_type_symbol
_atom_site_label
_atom_site_fract_x
_atom_site_fract_y
_atom_site_fract_z
Si Si1 0.361720 0.900503 0.500813
Si Si2 0.929207 0.243640 0.167997
Si Si3 0.750000 0.251281 0.000000
Si Si4 0.337767 0.103720 0.666118
Si Si5 0.877127 0.500000 0.750000
O O1 0.414125 0.807576 0.539404
O O2 0.302332 0.834287 0.551408
O O3 0.347206 0.930467 0.362055
O O4 0.372423 0.025081 0.566104
O O5 0.886107 0.316926 0.261151
O O6 0.000000 0.250000 0.194977
O O7 0.912546 0.105858 0.182999
O O8 0.784094 0.173457 0.899921
O O9 0.311744 0.000000 0.750000
#
# Coordination Sequence:
#
# PCOD9532973 Si02
#       5
#    16  16   8  16   8
#     4  11  26  48  75 114 153 203 258 321 389 466
#     4  11  27  49  78 113 155 203 265 320 388 466
#     4  12  22  50  72 114 152 196 260 316 392 472
#     4  10  24  48  74 111 155 200 256 324 390 461
#     4  12  26  48  78 114 154 206 258 314 402 446
#
# _framework density 23.22167
#
# number of rings (size 3 to 8) (size 9 to 14) (size 15 to 20)
#    0.000    1.000    2.500    2.250    5.250    6.000 
#   24.750    0.000    0.000    0.000    0.000    0.000 
#    0.000    0.000    0.000    0.000    0.000    0.000 
#
# Total GULP energy -178579.714067 kJ/mol
# GULP energy per Si atom -5580.616065 kJ/mol
# Density = 2.316882 g / cm^3
# Si number density = 23.221670 Si / 1000 Ang^3
#
#
#
# Elastic Constant Matrix: (Units=GPa)
#
#
# Indices 1 2 3 4 5 6 
#
# 1 132.7244 67.2107 47.4910 0.0000 0.0000 0.0000
# 2 67.2107 165.6933 59.3617 0.0000 0.0000 0.0000
# 3 47.4910 59.3617 125.8512 0.0000 0.0000 0.0000
# 4 0.0000 0.0000 0.0000 40.9845 0.0000 0.0000
# 5 0.0000 0.0000 0.0000 0.0000 15.7829 0.0000
# 6 0.0000 0.0000 0.0000 0.0000 0.0000 13.2809
#
#
#
# Elastic Compliance Matrix: (Units=1/GPa)
#
#
# Indices 1 2 3 4 5 6 
#
# 1 0.009978 -0.003247 -0.002234 0.000000 0.000000 0.000000
# 2 -0.003247 0.008319 -0.002699 0.000000 0.000000 0.000000
# 3 -0.002234 -0.002699 0.010062 0.000000 0.000000 0.000000
# 4 0.000000 0.000000 0.000000 0.024399 0.000000 0.000000
# 5 0.000000 0.000000 0.000000 0.000000 0.063360 0.000000
# 6 0.000000 0.000000 0.000000 0.000000 0.000000 0.075296
#
#
# Mechanical properties :
#
#
# Convention : Reuss Voigt Hill
#
# Bulk Modulus (GPa) = 83.33388 85.82174 84.57781
# Shear Modulus (GPa) = 23.61014 30.69002 27.15008
#
# Velocity S-wave (km/s) = 3.19208 3.63934 3.42302
# Velocity P-wave (km/s) = 7.03917 7.39578 7.21968
#
# Compressibility (1/GPa) = 0.01199992
#
# Stress axis : x y z
#
# Youngs Moduli (GPa) = 100.22052 120.20323 99.38682
#
# Poissons Ratio (x) = 0.39032 0.22200
# Poissons Ratio (y) = 0.32543 0.26821
# Poissons Ratio (z) = 0.22386 0.32439
#
# Static dielectric constant tensor:
#      x y z
#    x 1.831500 0.000000 0.000000 
#    y 0.000000 1.898970 0.000000 
#    z 0.000000 0.000000 2.049960 
# 
# From -- ./inp_files/9465.got.cif
#   From: 2010.05.17/outbox.cif.g08.bks.cpg/sg73_5_cif.got.tgz:9465.got - 2010.06.03 17:35:07.
