data_PCOD9532369
_publ_section_title
;
Structure prediction by ZEFSAII (Michael W. Deem and Ramdas Pophale) SiO2 
 PCOD9532369
Probable space group: I B C A 
;
_chemical_formula_sum "Si O2"
_cell_formula_units_Z 80
_cell_length_a 30.963140
_cell_length_b 20.262865
_cell_length_c 5.400158
_cell_angle_alpha 90.000000
_cell_angle_beta 90.000000
_cell_angle_gamma 90.000000
_cell_volume 3388.069529
_symmetry_space_group_name_H-M "I B C A "
_symmetry_group_IT_number 73
_symmetry_cell_setting 'orthorhombic'
loop_
_space_group_symop_operation_xyz
x,y,z
-x,1/2-y,z
x,-y,1/2-z
1/2-x,y,-z
-x,-y,-z
x,1/2+y,-z
-x,y,1/2+z
1/2+x,-y,z
1/2+x,1/2+y,1/2+z
1/2-x,-y,1/2+z
1/2+x,1/2-y,-z
-x,1/2+y,1/2-z
1/2-x,1/2-y,1/2-z
1/2+x,y,1/2-z
1/2-x,1/2+y,z
x,1/2-y,1/2+z
loop_
_atom_site_type_symbol
_atom_site_label
_atom_site_fract_x
_atom_site_fract_y
_atom_site_fract_z
Si Si1 0.674602 0.069732 0.337599
Si Si2 0.609235 0.869134 0.508360
Si Si3 0.181469 0.211300 0.737503
Si Si4 0.635473 0.000000 0.750000
Si Si5 0.250000 0.384587 0.000000
Si Si6 0.016821 0.325807 0.828749
O O1 0.669540 0.052299 0.623368
O O2 0.719497 0.077580 0.195412
O O3 0.655286 0.000000 0.250000
O O4 0.642043 0.122882 0.224596
O O5 0.634658 0.821214 0.694975
O O6 0.565415 0.835799 0.420488
O O7 0.605518 0.943483 0.621096
O O8 0.186533 0.264850 0.517516
O O9 0.219138 0.160655 0.666961
O O10 0.000000 0.250000 0.801394
O O11 0.988871 0.355379 0.054916
#
# Coordination Sequence:
#
# PCOD9532369 Si02
#       6
#    16  16  16   8   8  16
#     4   9  21  45  66 101 132 190 237 303 355 431
#     4  10  24  43  74 100 145 186 242 303 367 447
#     4  11  26  43  69  99 143 190 237 297 368 436
#     4  10  22  46  76 100 140 192 252 296 368 440
#     4  10  22  46  62 102 142 180 244 304 362 432
#     4  10  24  42  69 108 144 180 234 297 366 439
#
# _framework density 23.612266000000002
#
# number of rings (size 3 to 8) (size 9 to 14) (size 15 to 20)
#    0.000    2.000    0.000    0.600   14.000    0.000 
#   23.400    1.000    0.000    0.000    0.000    0.000 
#    0.000    0.000    0.000    0.000    0.000    0.000 
#
# Total GULP energy -222934.061184 kJ/mol
# GULP energy per Si atom -5573.351530 kJ/mol
# Density = 2.355852 g / cm^3
# Si number density = 23.612266 Si / 1000 Ang^3
#
#
#
# Elastic Constant Matrix: (Units=GPa)
#
#
# Indices 1 2 3 4 5 6 
#
# 1 79.9681 24.5989 -15.0935 0.0000 0.0000 0.0000
# 2 24.5989 71.6692 26.9377 0.0000 0.0000 0.0000
# 3 -15.0935 26.9377 69.5799 0.0000 0.0000 0.0000
# 4 0.0000 0.0000 0.0000 43.3644 0.0000 0.0000
# 5 0.0000 0.0000 0.0000 0.0000 18.9552 0.0000
# 6 0.0000 0.0000 0.0000 0.0000 0.0000 27.4480
#
#
#
# Elastic Compliance Matrix: (Units=1/GPa)
#
#
# Indices 1 2 3 4 5 6 
#
# 1 0.016244 -0.008075 0.006650 0.000000 0.000000 0.000000
# 2 -0.008075 0.020343 -0.009627 0.000000 0.000000 0.000000
# 3 0.006650 -0.009627 0.019542 0.000000 0.000000 0.000000
# 4 0.000000 0.000000 0.000000 0.023060 0.000000 0.000000
# 5 0.000000 0.000000 0.000000 0.000000 0.052756 0.000000
# 6 0.000000 0.000000 0.000000 0.000000 0.000000 0.036433
#
#
# Mechanical properties :
#
#
# Convention : Reuss Voigt Hill
#
# Bulk Modulus (GPa) = 29.39100 32.67817 31.03459
# Shear Modulus (GPa) = 24.77409 30.27178 27.52294
#
# Velocity S-wave (km/s) = 3.24266 3.58444 3.41782
# Velocity P-wave (km/s) = 5.14724 5.56781 5.36165
#
# Compressibility (1/GPa) = 0.03402402
#
# Stress axis : x y z
#
# Youngs Moduli (GPa) = 61.56125 49.15680 51.17260
#
# Poissons Ratio (x) = 0.39693 -0.34029
# Poissons Ratio (y) = 0.49710 0.49266
# Poissons Ratio (z) = -0.40937 0.47325
#
# Static dielectric constant tensor:
#      x y z
#    x 1.851570 0.000000 0.000000 
#    y 0.000000 1.859070 0.000000 
#    z 0.000000 0.000000 4.036990 
# 
# From -- ./inp_files/3079.got.cif
#   From: 2010.05.17/outbox.cif.g08.bks.cpg/sg73_2_cif.got.tgz:3079.got - 2010.06.03 17:35:07.
