data_PCOD9532103
_publ_section_title
;
Structure prediction by ZEFSAII (Michael W. Deem and Ramdas Pophale) SiO2 
 PCOD9532103
Probable space group: I B C A 
;
_chemical_formula_sum "Si O2"
_cell_formula_units_Z 96
_cell_length_a 14.012839
_cell_length_b 19.800721
_cell_length_c 14.308799
_cell_angle_alpha 90.000000
_cell_angle_beta 90.000000
_cell_angle_gamma 90.000000
_cell_volume 3970.181120
_symmetry_space_group_name_H-M "I B C A "
_symmetry_group_IT_number 73
_symmetry_cell_setting 'orthorhombic'
loop_
_space_group_symop_operation_xyz
x,y,z
-x,1/2-y,z
x,-y,1/2-z
1/2-x,y,-z
-x,-y,-z
x,1/2+y,-z
-x,y,1/2+z
1/2+x,-y,z
1/2+x,1/2+y,1/2+z
1/2-x,-y,1/2+z
1/2+x,1/2-y,-z
-x,1/2+y,1/2-z
1/2-x,1/2-y,1/2-z
1/2+x,y,1/2-z
1/2-x,1/2+y,z
x,1/2-y,1/2+z
loop_
_atom_site_type_symbol
_atom_site_label
_atom_site_fract_x
_atom_site_fract_y
_atom_site_fract_z
Si Si1 0.583289 0.595948 0.983108
Si Si2 0.212567 0.444238 0.676982
Si Si3 0.839504 0.702945 0.277148
Si Si4 0.500000 0.250000 0.637304
Si Si5 0.750000 0.495315 0.500000
Si Si6 0.503806 0.492785 0.355088
Si Si7 0.137245 0.248078 0.015167
O O1 0.679056 0.557647 0.952452
O O2 0.560670 0.559156 0.080823
O O3 0.606560 0.673659 0.000572
O O4 0.508338 0.564414 0.909012
O O5 0.243232 0.500000 0.750000
O O6 0.207530 0.370433 0.718959
O O7 0.275172 0.454326 0.584213
O O8 0.101402 0.459120 0.652646
O O9 0.750000 0.750000 0.250000
O O10 0.879514 0.722270 0.379976
O O11 0.927118 0.709014 0.204063
O O12 0.426045 0.287096 0.565664
O O13 0.539013 0.500000 0.250000
O O14 0.250000 0.241035 0.000000
#
# Coordination Sequence:
#
# PCOD9532103 Si02
#       7
#    16  16  16   8   8  16  16
#     4  10  22  41  68 106 140 192 245 313 389 468
#     4  10  25  45  72 103 148 196 254 318 384 475
#     4  12  29  52  76 116 156 209 268 331 406 489
#     4  12  30  50  78 112 158 210 264 332 406 478
#     4  10  22  42  70 102 146 190 242 312 386 458
#     4   9  21  40  64 100 142 183 245 309 378 459
#     4  12  27  49  79 110 159 208 264 332 410 486
#
# _framework density 24.180256
#
# number of rings (size 3 to 8) (size 9 to 14) (size 15 to 20)
#    0.000    1.333    2.500    0.500   15.167    0.667 
#    6.000    0.000    0.000    0.000    0.000    0.000 
#    0.000    0.000    0.000    0.000    0.000    0.000 
#
# Total GULP energy -268116.629822 kJ/mol
# GULP energy per Si atom -5585.763121 kJ/mol
# Density = 2.412522 g / cm^3
# Si number density = 24.180256 Si / 1000 Ang^3
#
#
#
# Elastic Constant Matrix: (Units=GPa)
#
#
# Indices 1 2 3 4 5 6 
#
# 1 82.2822 36.7434 10.5742 0.0000 0.0000 0.0000
# 2 36.7434 153.7921 52.2417 -0.0001 -0.0001 0.0000
# 3 10.5742 52.2417 182.3560 -0.0002 -0.0001 -0.0001
# 4 0.0000 -0.0001 -0.0002 23.7337 -0.0001 0.0000
# 5 0.0000 -0.0001 -0.0001 -0.0001 37.8711 0.0000
# 6 0.0000 0.0000 -0.0001 0.0000 0.0000 20.5278
#
#
#
# Elastic Compliance Matrix: (Units=1/GPa)
#
#
# Indices 1 2 3 4 5 6 
#
# 1 0.013609 -0.003305 0.000158 0.000000 0.000000 0.000000
# 2 -0.003305 0.008006 -0.002102 0.000000 0.000000 0.000000
# 3 0.000158 -0.002102 0.006077 0.000000 0.000000 0.000000
# 4 0.000000 0.000000 0.000000 0.042134 0.000000 0.000000
# 5 0.000000 0.000000 0.000000 0.000000 0.026405 0.000000
# 6 0.000000 0.000000 0.000000 0.000000 0.000000 0.048714
#
#
# Mechanical properties :
#
#
# Convention : Reuss Voigt Hill
#
# Bulk Modulus (GPa) = 58.16250 68.61656 63.38953
# Shear Modulus (GPa) = 31.02222 37.68459 34.35340
#
# Velocity S-wave (km/s) = 3.58572 3.95205 3.77333
# Velocity P-wave (km/s) = 6.42255 7.01881 6.72729
#
# Compressibility (1/GPa) = 0.01719321
#
# Stress axis : x y z
#
# Youngs Moduli (GPa) = 73.48157 124.90823 164.56050
#
# Poissons Ratio (x) = 0.41281 -0.02595
# Poissons Ratio (y) = 0.24285 0.34589
# Poissons Ratio (z) = -0.01159 0.26254
#
# Static dielectric constant tensor:
#      x y z
#    x 2.095180 0.000000 0.000000 
#    y 0.000000 1.923720 0.000000 
#    z 0.000000 0.000000 1.984060 
# 
# From -- ./inp_files/17100.got.cif
#   From: 2010.05.17/outbox.cif.g08.bks.cpg/sg73_9_cif.got.tgz:17100.got - 2010.06.03 17:35:07.
