data_PCOD9532145
_publ_section_title
;
Structure prediction by ZEFSAII (Michael W. Deem and Ramdas Pophale) SiO2 
 PCOD9532145
Probable space group: I B C A 
;
_chemical_formula_sum "Si O2"
_cell_formula_units_Z 64
_cell_length_a 28.854836
_cell_length_b 10.834549
_cell_length_c 8.745511
_cell_angle_alpha 90.000000
_cell_angle_beta 90.000000
_cell_angle_gamma 90.000000
_cell_volume 2734.101535
_symmetry_space_group_name_H-M "I B C A "
_symmetry_group_IT_number 73
_symmetry_cell_setting 'orthorhombic'
loop_
_space_group_symop_operation_xyz
x,y,z
-x,1/2-y,z
x,-y,1/2-z
1/2-x,y,-z
-x,-y,-z
x,1/2+y,-z
-x,y,1/2+z
1/2+x,-y,z
1/2+x,1/2+y,1/2+z
1/2-x,-y,1/2+z
1/2+x,1/2-y,-z
-x,1/2+y,1/2-z
1/2-x,1/2-y,1/2-z
1/2+x,y,1/2-z
1/2-x,1/2+y,z
x,1/2-y,1/2+z
loop_
_atom_site_type_symbol
_atom_site_label
_atom_site_fract_x
_atom_site_fract_y
_atom_site_fract_z
Si Si1 0.935312 0.847249 0.946895
Si Si2 0.500000 0.750000 0.315435
Si Si3 0.876043 0.500000 0.250000
Si Si4 0.786452 0.638590 0.761609
Si Si5 0.154885 0.786723 0.053947
O O1 0.961250 0.805701 0.793768
O O2 0.907434 0.967476 0.896911
O O3 0.896175 0.749420 0.996802
O O4 0.974374 0.849439 0.076844
O O5 0.847911 0.619036 0.196631
O O6 0.767212 0.500000 0.750000
O O7 0.750000 0.750000 0.750000
O O8 0.821293 0.663627 0.620527
O O9 0.814637 0.655655 0.919141
#
# Coordination Sequence:
#
# PCOD9532145 Si02
#       5
#    16   8   8  16  16
#     4  11  22  43  67 103 145 194 245 309 363 447
#     4  10  22  42  66 102 148 186 254 304 372 430
#     4  12  24  42  80 104 142 202 248 302 382 448
#     4  12  29  48  79 113 150 195 249 310 376 454
#     4  12  25  49  75 107 151 196 253 303 378 452
#
# _framework density 23.408055999999998
#
# number of rings (size 3 to 8) (size 9 to 14) (size 15 to 20)
#    0.000    0.500    5.000    2.250    1.750    3.000 
#    0.000    0.000    0.000    0.000    0.000    0.000 
#    0.000    0.000    0.000    0.000    0.000    0.000 
#
# Total GULP energy -179096.452968 kJ/mol
# GULP energy per Si atom -5596.764155 kJ/mol
# Density = 2.335478 g / cm^3
# Si number density = 23.408056 Si / 1000 Ang^3
#
#
#
# Elastic Constant Matrix: (Units=GPa)
#
#
# Indices 1 2 3 4 5 6 
#
# 1 113.9786 44.1007 43.2352 0.0000 0.0000 0.0000
# 2 44.1007 132.6874 24.3088 0.0000 0.0000 0.0000
# 3 43.2352 24.3088 105.3008 0.0000 0.0000 0.0000
# 4 0.0000 0.0000 0.0000 19.2381 0.0000 0.0000
# 5 0.0000 0.0000 0.0000 0.0000 31.8017 0.0000
# 6 0.0000 0.0000 0.0000 0.0000 0.0000 25.3140
#
#
#
# Elastic Compliance Matrix: (Units=1/GPa)
#
#
# Indices 1 2 3 4 5 6 
#
# 1 0.011486 -0.003084 -0.004004 0.000000 0.000000 0.000000
# 2 -0.003084 0.008697 -0.000742 0.000000 0.000000 0.000000
# 3 -0.004004 -0.000742 0.011312 0.000000 0.000000 0.000000
# 4 0.000000 0.000000 0.000000 0.051980 0.000000 0.000000
# 5 0.000000 0.000000 0.000000 0.000000 0.031445 0.000000
# 6 0.000000 0.000000 0.000000 0.000000 0.000000 0.039504
#
#
# Mechanical properties :
#
#
# Convention : Reuss Voigt Hill
#
# Bulk Modulus (GPa) = 63.14760 63.91735 63.53248
# Shear Modulus (GPa) = 28.51260 31.29223 29.90241
#
# Velocity S-wave (km/s) = 3.49387 3.66021 3.57801
# Velocity P-wave (km/s) = 6.58115 6.72517 6.65355
#
# Compressibility (1/GPa) = 0.01583592
#
# Stress axis : x y z
#
# Youngs Moduli (GPa) = 87.06559 114.97763 88.40350
#
# Poissons Ratio (x) = 0.35458 0.35396
# Poissons Ratio (y) = 0.26850 0.06556
# Poissons Ratio (z) = 0.34860 0.08527
#
# Static dielectric constant tensor:
#      x y z
#    x 1.916260 0.000000 0.000000 
#    y 0.000000 1.919720 0.000000 
#    z 0.000000 0.000000 1.878690 
# 
# From -- ./inp_files/4036.got.cif
#   From: 2010.05.17/outbox.cif.g08.bks.cpg/sg73_3_cif.got.tgz:4036.got - 2010.06.03 17:35:07.
