data_PCOD9532287
_publ_section_title
;
Structure prediction by ZEFSAII (Michael W. Deem and Ramdas Pophale) SiO2 
 PCOD9532287
Probable space group: I B C A 
;
_chemical_formula_sum "Si O2"
_cell_formula_units_Z 64
_cell_length_a 16.369231
_cell_length_b 15.978292
_cell_length_c 10.004093
_cell_angle_alpha 90.000000
_cell_angle_beta 90.000000
_cell_angle_gamma 90.000000
_cell_volume 2616.594061
_symmetry_space_group_name_H-M "I B C A "
_symmetry_group_IT_number 73
_symmetry_cell_setting 'orthorhombic'
loop_
_space_group_symop_operation_xyz
x,y,z
-x,1/2-y,z
x,-y,1/2-z
1/2-x,y,-z
-x,-y,-z
x,1/2+y,-z
-x,y,1/2+z
1/2+x,-y,z
1/2+x,1/2+y,1/2+z
1/2-x,-y,1/2+z
1/2+x,1/2-y,-z
-x,1/2+y,1/2-z
1/2-x,1/2-y,1/2-z
1/2+x,y,1/2-z
1/2-x,1/2+y,z
x,1/2-y,1/2+z
loop_
_atom_site_type_symbol
_atom_site_label
_atom_site_fract_x
_atom_site_fract_y
_atom_site_fract_z
Si Si1 0.097050 0.524851 0.610019
Si Si2 0.906848 0.278232 0.434299
Si Si3 0.057742 0.000000 0.750000
Si Si4 0.158560 0.666748 0.289917
Si Si5 0.750000 0.063164 0.000000
O O1 0.137664 0.500000 0.750000
O O2 0.089993 0.624260 0.603318
O O3 0.168404 0.507011 0.505125
O O4 0.007102 0.487167 0.628597
O O5 0.882768 0.278591 0.590872
O O6 0.844795 0.225270 0.340993
O O7 0.000000 0.250000 0.415098
O O8 0.106133 0.085748 0.753653
O O9 0.233810 0.623492 0.371524
#
# Coordination Sequence:
#
# PCOD9532287 Si02
#       5
#    16  16   8  16   8
#     4   9  21  41  62  96 134 173 230 277 339 406
#     4  11  21  42  69  99 137 176 228 288 328 405
#     4  10  22  44  68 100 130 180 232 284 332 416
#     4  11  25  43  70 100 139 178 232 277 348 403
#     4  10  24  42  64  98 146 176 226 282 348 408
#
# _framework density 24.459278000000001
#
# number of rings (size 3 to 8) (size 9 to 14) (size 15 to 20)
#    0.750    1.000    2.500    0.750    1.750    8.000 
#    9.000    1.250    0.000    0.000    0.000    0.000 
#    0.000    0.000    0.000    0.000    0.000    0.000 
#
# Total GULP energy -178250.698237 kJ/mol
# GULP energy per Si atom -5570.334320 kJ/mol
# Density = 2.440361 g / cm^3
# Si number density = 24.459278 Si / 1000 Ang^3
#
#
#
# Elastic Constant Matrix: (Units=GPa)
#
#
# Indices 1 2 3 4 5 6 
#
# 1 99.3422 26.8938 3.2969 0.0000 0.0000 0.0000
# 2 26.8938 64.0891 29.8328 0.0000 0.0000 0.0000
# 3 3.2969 29.8328 120.4478 0.0000 0.0000 0.0000
# 4 0.0000 0.0000 0.0000 50.6414 0.0000 0.0000
# 5 0.0000 0.0000 0.0000 0.0000 40.9402 0.0000
# 6 0.0000 0.0000 0.0000 0.0000 0.0000 2.1667
#
#
#
# Elastic Compliance Matrix: (Units=1/GPa)
#
#
# Indices 1 2 3 4 5 6 
#
# 1 0.011460 -0.005271 0.000992 0.000000 0.000000 0.000000
# 2 -0.005271 0.020061 -0.004824 0.000000 0.000000 0.000000
# 3 0.000992 -0.004824 0.009470 0.000000 0.000000 0.000000
# 4 0.000000 0.000000 0.000000 0.019747 0.000000 0.000000
# 5 0.000000 0.000000 0.000000 0.000000 0.024426 0.000000
# 6 0.000000 0.000000 0.000000 0.000000 0.000000 0.461540
#
#
# Mechanical properties :
#
#
# Convention : Reuss Voigt Hill
#
# Bulk Modulus (GPa) = 43.88978 44.88066 44.38522
# Shear Modulus (GPa) = 8.73355 33.67337 21.20346
#
# Velocity S-wave (km/s) = 1.89167 3.71443 2.94749
# Velocity P-wave (km/s) = 4.77013 6.06506 5.45615
#
# Compressibility (1/GPa) = 0.02278435
#
# Stress axis : x y z
#
# Youngs Moduli (GPa) = 87.25868 49.84855 105.59514
#
# Poissons Ratio (x) = 0.26274 -0.10473
# Poissons Ratio (y) = 0.45991 0.50944
# Poissons Ratio (z) = -0.08654 0.24049
#
# Static dielectric constant tensor:
#      x y z
#    x 2.051220 0.000000 0.000000 
#    y 0.000000 1.863080 0.000000 
#    z 0.000000 0.000000 2.174370 
# 
# From -- ./inp_files/11616.got.cif
#   From: 2010.05.17/outbox.cif.g08.bks.cpg/sg73_6_cif.got.tgz:11616.got - 2010.06.03 17:35:07.
