data_PCOD9532615
_publ_section_title
;
Structure prediction by ZEFSAII (Michael W. Deem and Ramdas Pophale) SiO2 
 PCOD9532615
Probable space group: I B C A 
;
_chemical_formula_sum "Si O2"
_cell_formula_units_Z 112
_cell_length_a 11.526812
_cell_length_b 28.013150
_cell_length_c 14.443834
_cell_angle_alpha 90.000000
_cell_angle_beta 90.000000
_cell_angle_gamma 90.000000
_cell_volume 4663.947416
_symmetry_space_group_name_H-M "I B C A "
_symmetry_group_IT_number 73
_symmetry_cell_setting 'orthorhombic'
loop_
_space_group_symop_operation_xyz
x,y,z
-x,1/2-y,z
x,-y,1/2-z
1/2-x,y,-z
-x,-y,-z
x,1/2+y,-z
-x,y,1/2+z
1/2+x,-y,z
1/2+x,1/2+y,1/2+z
1/2-x,-y,1/2+z
1/2+x,1/2-y,-z
-x,1/2+y,1/2-z
1/2-x,1/2-y,1/2-z
1/2+x,y,1/2-z
1/2-x,1/2+y,z
x,1/2-y,1/2+z
loop_
_atom_site_type_symbol
_atom_site_label
_atom_site_fract_x
_atom_site_fract_y
_atom_site_fract_z
Si Si1 0.302977 0.757387 0.398395
Si Si2 0.980868 0.418830 0.831729
Si Si3 0.077839 0.209775 0.640195
Si Si4 0.104252 0.399133 0.127269
Si Si5 0.710990 0.021668 0.154968
Si Si6 0.585737 0.455971 0.981220
Si Si7 0.003703 0.184557 0.340712
O O1 0.250000 0.760247 0.500000
O O2 0.195811 0.737961 0.338625
O O3 0.371659 0.805511 0.373599
O O4 0.403513 0.718289 0.388411
O O5 0.915357 0.406113 0.737437
O O6 0.085562 0.455911 0.818385
O O7 0.039678 0.369008 0.859237
O O8 0.899836 0.434110 0.916656
O O9 0.114229 0.157238 0.602979
O O10 0.000000 0.250000 0.587717
O O11 0.003623 0.197049 0.731782
O O12 0.209030 0.436744 0.110481
O O13 0.988653 0.418051 0.077437
O O14 0.763354 0.000000 0.250000
O O15 0.683045 0.979693 0.082712
O O16 0.500000 0.500000 0.000000
#
# Coordination Sequence:
#
# PCOD9532615 Si02
#       7
#    16  16  16  16  16  16  16
#     4  11  24  40  68 105 140 188 237 301 372 422
#     4  10  23  45  69 102 139 181 238 294 363 431
#     4  11  24  45  76  99 142 194 248 294 366 445
#     4  11  25  45  69 106 140 190 237 297 367 430
#     4  11  23  43  71  94 139 184 230 294 360 434
#     4  10  24  43  69 100 140 178 237 294 353 430
#     4  10  23  45  68  99 147 186 241 306 357 451
#
# _framework density 24.013994
#
# number of rings (size 3 to 8) (size 9 to 14) (size 15 to 20)
#    0.000    1.429    2.857    1.286    8.000    2.286 
#    2.571    2.857    0.000    0.000    0.000    0.000 
#    0.000    0.000    0.000    0.000    0.000    0.000 
#
# Total GULP energy -312821.631296 kJ/mol
# GULP energy per Si atom -5586.100559 kJ/mol
# Density = 2.395934 g / cm^3
# Si number density = 24.013994 Si / 1000 Ang^3
#
#
#
# Elastic Constant Matrix: (Units=GPa)
#
#
# Indices 1 2 3 4 5 6 
#
# 1 94.0919 41.9347 10.7913 0.0000 0.0000 0.0000
# 2 41.9347 113.2565 22.2977 0.0001 0.0000 0.0000
# 3 10.7913 22.2977 93.4098 -0.0002 0.0001 0.0000
# 4 0.0000 0.0001 -0.0002 9.6805 0.0001 0.0000
# 5 0.0000 0.0000 0.0001 0.0001 28.9857 0.0000
# 6 0.0000 0.0000 0.0000 0.0000 0.0000 39.7245
#
#
#
# Elastic Compliance Matrix: (Units=1/GPa)
#
#
# Indices 1 2 3 4 5 6 
#
# 1 0.012740 -0.004646 -0.000363 0.000000 0.000000 0.000000
# 2 -0.004646 0.010959 -0.002079 0.000000 0.000000 0.000000
# 3 -0.000363 -0.002079 0.011244 0.000000 0.000000 0.000000
# 4 0.000000 0.000000 0.000000 0.103300 0.000000 0.000000
# 5 0.000000 0.000000 0.000000 0.000000 0.034500 0.000000
# 6 0.000000 0.000000 0.000000 0.000000 0.000000 0.025173
#
#
# Mechanical properties :
#
#
# Convention : Reuss Voigt Hill
#
# Bulk Modulus (GPa) = 48.15314 50.08953 49.12134
# Shear Modulus (GPa) = 22.82956 30.72711 26.77834
#
# Velocity S-wave (km/s) = 3.08665 3.58096 3.34295
# Velocity P-wave (km/s) = 5.72703 6.16453 5.94980
#
# Compressibility (1/GPa) = 0.02076708
#
# Stress axis : x y z
#
# Youngs Moduli (GPa) = 78.49277 91.24893 88.93808
#
# Poissons Ratio (x) = 0.42392 0.03227
# Poissons Ratio (y) = 0.36466 0.18493
# Poissons Ratio (z) = 0.02848 0.18973
#
# Static dielectric constant tensor:
#      x y z
#    x 1.951420 0.000000 0.000000 
#    y 0.000000 1.949250 0.000000 
#    z 0.000000 0.000000 1.976960 
# 
# From -- ./inp_files/16334.got.cif
#   From: 2010.05.17/outbox.cif.g08.bks.cpg/sg73_9_cif.got.tgz:16334.got - 2010.06.03 17:35:07.
