data_PCOD9532072
_publ_section_title
;
Structure prediction by ZEFSAII (Michael W. Deem and Ramdas Pophale) SiO2 
 PCOD9532072
Probable space group: I B C A 
;
_chemical_formula_sum "Si O2"
_cell_formula_units_Z 88
_cell_length_a 10.284109
_cell_length_b 12.207188
_cell_length_c 33.344794
_cell_angle_alpha 90.000000
_cell_angle_beta 90.000000
_cell_angle_gamma 90.000000
_cell_volume 4186.107172
_symmetry_space_group_name_H-M "I B C A "
_symmetry_group_IT_number 73
_symmetry_cell_setting 'orthorhombic'
loop_
_space_group_symop_operation_xyz
x,y,z
-x,1/2-y,z
x,-y,1/2-z
1/2-x,y,-z
-x,-y,-z
x,1/2+y,-z
-x,y,1/2+z
1/2+x,-y,z
1/2+x,1/2+y,1/2+z
1/2-x,-y,1/2+z
1/2+x,1/2-y,-z
-x,1/2+y,1/2-z
1/2-x,1/2-y,1/2-z
1/2+x,y,1/2-z
1/2-x,1/2+y,z
x,1/2-y,1/2+z
loop_
_atom_site_type_symbol
_atom_site_label
_atom_site_fract_x
_atom_site_fract_y
_atom_site_fract_z
Si Si1 0.636087 0.696469 0.196979
Si Si2 0.092368 0.047338 0.091792
Si Si3 0.500000 0.250000 0.461979
Si Si4 0.614258 0.338310 0.213683
Si Si5 0.117356 0.926743 0.015329
Si Si6 0.838772 0.501255 0.856522
O O1 0.500000 0.750000 0.183442
O O2 0.607432 0.633747 0.239021
O O3 0.742975 0.786956 0.207142
O O4 0.695493 0.616811 0.163923
O O5 0.071063 0.158529 0.065683
O O6 0.955933 0.024180 0.113145
O O7 0.118391 0.942592 0.062810
O O8 0.214178 0.052540 0.122015
O O9 0.597949 0.312715 0.492193
O O10 0.500000 0.250000 0.207459
O O11 0.604748 0.430188 0.180120
O O12 0.250000 0.978021 0.000000
O O13 0.000000 0.000000 0.000000
#
# Coordination Sequence:
#
# PCOD9532072 Si02
#       6
#    16  16   8  16  16  16
#     4  10  22  41  66  90 131 183 221 257 322 386
#     4  11  25  42  66  99 128 167 213 276 331 389
#     4  10  24  44  70  90 128 176 212 264 332 406
#     4  10  22  41  63  94 130 178 224 260 312 395
#     4  10  22  45  67  92 126 167 220 259 323 406
#     4  12  24  41  64 100 139 164 218 279 332 373
#
# _framework density 21.021919
#
# number of rings (size 3 to 8) (size 9 to 14) (size 15 to 20)
#    0.000    1.455    0.000    4.909    3.818    4.364 
#    8.182    7.273    0.000    0.000    0.000    0.000 
#    0.000    0.000    0.000    0.000    0.000    0.000 
#
# Total GULP energy -245595.243136 kJ/mol
# GULP energy per Si atom -5581.710071 kJ/mol
# Density = 2.097407 g / cm^3
# Si number density = 21.021919 Si / 1000 Ang^3
#
#
#
# Elastic Constant Matrix: (Units=GPa)
#
#
# Indices 1 2 3 4 5 6 
#
# 1 104.5667 18.4752 9.2784 0.0000 0.0000 0.0000
# 2 18.4752 68.5657 43.0829 0.0000 0.0000 0.0000
# 3 9.2784 43.0829 92.6263 0.0000 0.0000 0.0000
# 4 0.0000 0.0000 0.0000 44.8822 0.0000 0.0000
# 5 0.0000 0.0000 0.0000 0.0000 43.9407 0.0000
# 6 0.0000 0.0000 0.0000 0.0000 0.0000 20.3351
#
#
#
# Elastic Compliance Matrix: (Units=1/GPa)
#
#
# Indices 1 2 3 4 5 6 
#
# 1 0.010050 -0.002932 0.000357 0.000000 0.000000 0.000000
# 2 -0.002932 0.021463 -0.009689 0.000000 0.000000 0.000000
# 3 0.000357 -0.009689 0.015267 0.000000 0.000000 0.000000
# 4 0.000000 0.000000 0.000000 0.022281 0.000000 0.000000
# 5 0.000000 0.000000 0.000000 0.000000 0.022758 0.000000
# 6 0.000000 0.000000 0.000000 0.000000 0.000000 0.049176
#
#
# Mechanical properties :
#
#
# Convention : Reuss Voigt Hill
#
# Bulk Modulus (GPa) = 44.94211 45.27019 45.10615
# Shear Modulus (GPa) = 28.91180 34.82641 31.86910
#
# Velocity S-wave (km/s) = 3.71255 4.07464 3.89780
# Velocity P-wave (km/s) = 6.30892 6.61199 6.46223
#
# Compressibility (1/GPa) = 0.02225085
#
# Stress axis : x y z
#
# Youngs Moduli (GPa) = 99.50561 46.59211 65.50082
#
# Poissons Ratio (x) = 0.13663 -0.02340
# Poissons Ratio (y) = 0.29179 0.63465
# Poissons Ratio (z) = -0.03555 0.45144
#
# Static dielectric constant tensor:
#      x y z
#    x 1.718330 0.000000 0.000000 
#    y 0.000000 2.068330 0.000000 
#    z 0.000000 0.000000 1.806040 
# 
# From -- ./inp_files/33912.got.cif
#   From: 2010.05.17/outbox.cif.g08.bks.cpg/sg73_17_cif.got.tgz:33912.got - 2010.06.03 17:35:07.
