data_PCOD9532987
_publ_section_title
;
Structure prediction by ZEFSAII (Michael W. Deem and Ramdas Pophale) SiO2 
 PCOD9532987
Probable space group: I B C A 
;
_chemical_formula_sum "Si O2"
_cell_formula_units_Z 64
_cell_length_a 24.135077
_cell_length_b 8.608312
_cell_length_c 13.841805
_cell_angle_alpha 90.000000
_cell_angle_beta 90.000000
_cell_angle_gamma 90.000000
_cell_volume 2875.804869
_symmetry_space_group_name_H-M "I B C A "
_symmetry_group_IT_number 73
_symmetry_cell_setting 'orthorhombic'
loop_
_space_group_symop_operation_xyz
x,y,z
-x,1/2-y,z
x,-y,1/2-z
1/2-x,y,-z
-x,-y,-z
x,1/2+y,-z
-x,y,1/2+z
1/2+x,-y,z
1/2+x,1/2+y,1/2+z
1/2-x,-y,1/2+z
1/2+x,1/2-y,-z
-x,1/2+y,1/2-z
1/2-x,1/2-y,1/2-z
1/2+x,y,1/2-z
1/2-x,1/2+y,z
x,1/2-y,1/2+z
loop_
_atom_site_type_symbol
_atom_site_label
_atom_site_fract_x
_atom_site_fract_y
_atom_site_fract_z
Si Si1 0.802992 0.614635 0.430575
Si Si2 0.033685 0.981317 0.865447
Si Si3 0.269669 0.112996 0.318108
Si Si4 0.071561 0.344140 0.541569
O O1 0.750000 0.605419 0.500000
O O2 0.783020 0.483514 0.355180
O O3 0.801595 0.795927 0.399458
O O4 0.865870 0.593110 0.458762
O O5 0.064097 0.829175 0.913649
O O6 0.969328 0.946397 0.891073
O O7 0.042031 0.000000 0.750000
O O8 0.051454 0.128235 0.931226
O O9 0.250000 0.250000 0.250000
O O10 0.304869 0.000000 0.250000
#
# Coordination Sequence:
#
# PCOD9532987 Si02
#       4
#    16  16  16  16
#     4  11  23  40  67  97 139 185 225 286 359 422
#     4  10  24  49  74 105 140 186 243 305 364 422
#     4   9  21  41  59  92 134 176 234 281 337 423
#     4  10  25  45  73 104 141 186 241 298 363 439
#
# _framework density 22.254640999999999
#
# number of rings (size 3 to 8) (size 9 to 14) (size 15 to 20)
#    0.000    2.000    0.000    0.750    7.000   12.000 
#    9.000    0.000    0.000    0.000    0.000    0.000 
#    0.000    0.000    0.000    0.000    0.000    0.000 
#
# Total GULP energy -178173.791190 kJ/mol
# GULP energy per Si atom -5567.930975 kJ/mol
# Density = 2.220399 g / cm^3
# Si number density = 22.254641 Si / 1000 Ang^3
#
#
#
# Elastic Constant Matrix: (Units=GPa)
#
#
# Indices 1 2 3 4 5 6 
#
# 1 171.0179 43.8621 59.8222 0.0000 0.0000 0.0000
# 2 43.8621 116.4534 66.9886 0.0000 0.0000 0.0000
# 3 59.8222 66.9886 171.9319 0.0000 0.0000 0.0000
# 4 0.0000 0.0000 0.0000 34.5076 0.0000 0.0000
# 5 0.0000 0.0000 0.0000 0.0000 -5.1652 0.0000
# 6 0.0000 0.0000 0.0000 0.0000 0.0000 24.8343
#
#
#
# Elastic Compliance Matrix: (Units=1/GPa)
#
#
# Indices 1 2 3 4 5 6 
#
# 1 0.006872 -0.001563 -0.001782 0.000000 0.000000 0.000000
# 2 -0.001563 0.011423 -0.003907 0.000000 0.000000 0.000000
# 3 -0.001782 -0.003907 0.007958 0.000000 0.000000 0.000000
# 4 0.000000 0.000000 0.000000 0.028979 0.000000 0.000000
# 5 0.000000 0.000000 0.000000 0.000000 -0.193603 0.000000
# 6 0.000000 0.000000 0.000000 0.000000 0.000000 0.040267
#
#
# Mechanical properties :
#
#
# Convention : Reuss Voigt Hill
#
# Bulk Modulus (GPa) = 85.11018 88.97211 87.04115
# Shear Modulus (GPa) = -62.74805 30.08402 -16.33201
#
# Velocity S-wave (km/s) = -5.31570 3.68068 -2.71194
# Velocity P-wave (km/s) = 0.80698 7.62425 5.42127
#
# Compressibility (1/GPa) = 0.01174948
#
# Stress axis : x y z
#
# Youngs Moduli (GPa) = 145.52753 87.54053 125.65275
#
# Poissons Ratio (x) = 0.13684 0.22389
# Poissons Ratio (y) = 0.22749 0.49091
# Poissons Ratio (z) = 0.25931 0.34201
#
# Static dielectric constant tensor:
#      x y z
#    x 1.931300 0.000000 0.000000 
#    y 0.000000 1.872680 0.000000 
#    z 0.000000 0.000000 1.870580 
# 
# From -- ./inp_files/6834.got.cif
#   From: 2010.05.17/outbox.cif.g08.bks.cpg/sg73_4_cif.got.tgz:6834.got - 2010.06.03 17:35:07.
