data_PCOD9532582
_publ_section_title
;
Structure prediction by ZEFSAII (Michael W. Deem and Ramdas Pophale) SiO2 
 PCOD9532582
Probable space group: I B C A 
;
_chemical_formula_sum "Si O2"
_cell_formula_units_Z 80
_cell_length_a 23.014108
_cell_length_b 12.787857
_cell_length_c 12.287797
_cell_angle_alpha 90.000000
_cell_angle_beta 90.000000
_cell_angle_gamma 90.000000
_cell_volume 3616.312445
_symmetry_space_group_name_H-M "I B C A "
_symmetry_group_IT_number 73
_symmetry_cell_setting 'orthorhombic'
loop_
_space_group_symop_operation_xyz
x,y,z
-x,1/2-y,z
x,-y,1/2-z
1/2-x,y,-z
-x,-y,-z
x,1/2+y,-z
-x,y,1/2+z
1/2+x,-y,z
1/2+x,1/2+y,1/2+z
1/2-x,-y,1/2+z
1/2+x,1/2-y,-z
-x,1/2+y,1/2-z
1/2-x,1/2-y,1/2-z
1/2+x,y,1/2-z
1/2-x,1/2+y,z
x,1/2-y,1/2+z
loop_
_atom_site_type_symbol
_atom_site_label
_atom_site_fract_x
_atom_site_fract_y
_atom_site_fract_z
Si Si1 0.800678 0.384249 0.423338
Si Si2 0.114682 0.050197 0.030170
Si Si3 0.525435 0.640930 0.378127
Si Si4 0.230608 0.000000 0.750000
Si Si5 0.151460 0.320745 0.340121
Si Si6 0.935176 0.500000 0.250000
O O1 0.750000 0.341017 0.500000
O O2 0.853319 0.439477 0.487860
O O3 0.770252 0.475118 0.353442
O O4 0.825268 0.295780 0.344485
O O5 0.103227 0.055634 0.157891
O O6 0.053137 0.066234 0.969891
O O7 0.151679 0.137534 0.966292
O O8 0.500000 0.750000 0.422410
O O9 0.583555 0.669383 0.308750
O O10 0.476522 0.582513 0.310473
O O11 0.190456 0.899729 0.727805
#
# Coordination Sequence:
#
# PCOD9532582 Si02
#       6
#    16  16  16   8  16   8
#     4  12  24  45  75  98 143 183 232 286 361 412
#     4  10  25  45  66 101 143 170 240 286 344 425
#     4  10  23  44  68  99 142 181 230 284 363 408
#     4  12  24  48  70 104 134 186 230 298 344 428
#     4  10  25  44  67 103 136 182 230 287 351 425
#     4  12  22  44  70 100 130 190 224 294 340 422
#
# _framework density 22.121981999999999
#
# number of rings (size 3 to 8) (size 9 to 14) (size 15 to 20)
#    1.200    0.000    2.000    3.600    2.800    0.800 
#   10.800    0.000    0.000    0.000    0.000    0.000 
#    0.000    0.000    0.000    0.000    0.000    0.000 
#
# Total GULP energy -223224.930816 kJ/mol
# GULP energy per Si atom -5580.623270 kJ/mol
# Density = 2.207163 g / cm^3
# Si number density = 22.121982 Si / 1000 Ang^3
#
#
#
# Elastic Constant Matrix: (Units=GPa)
#
#
# Indices 1 2 3 4 5 6 
#
# 1 100.7105 43.9628 24.2118 0.0000 0.0000 0.0000
# 2 43.9628 78.0603 -6.9436 0.0000 0.0000 0.0000
# 3 24.2118 -6.9436 59.3985 0.0000 0.0000 0.0000
# 4 0.0000 0.0000 0.0000 20.6537 0.0000 0.0000
# 5 0.0000 0.0000 0.0000 0.0000 24.3733 0.0000
# 6 0.0000 0.0000 0.0000 0.0000 0.0000 28.5873
#
#
#
# Elastic Compliance Matrix: (Units=1/GPa)
#
#
# Indices 1 2 3 4 5 6 
#
# 1 0.016001 -0.009693 -0.007655 0.000000 0.000000 0.000000
# 2 -0.009693 0.018816 0.006150 0.000000 0.000000 0.000000
# 3 -0.007655 0.006150 0.020675 0.000000 0.000000 0.000000
# 4 0.000000 0.000000 0.000000 0.048417 0.000000 0.000000
# 5 0.000000 0.000000 0.000000 0.000000 0.041029 0.000000
# 6 0.000000 0.000000 0.000000 0.000000 0.000000 0.034981
#
#
# Mechanical properties :
#
#
# Convention : Reuss Voigt Hill
#
# Bulk Modulus (GPa) = 30.21376 40.07013 35.14194
# Shear Modulus (GPa) = 23.43612 26.51874 24.97743
#
# Velocity S-wave (km/s) = 3.25838 3.46605 3.36382
# Velocity P-wave (km/s) = 5.27669 5.84556 5.56840
#
# Compressibility (1/GPa) = 0.03309751
#
# Stress axis : x y z
#
# Youngs Moduli (GPa) = 62.49652 53.14502 48.36800
#
# Poissons Ratio (x) = 0.51511 0.37027
# Poissons Ratio (y) = 0.60575 -0.29748
# Poissons Ratio (z) = 0.47843 -0.32687
#
# Static dielectric constant tensor:
#      x y z
#    x 1.818650 0.000000 0.000000 
#    y 0.000000 1.783050 0.000000 
#    z 0.000000 0.000000 1.821720 
# 
# From -- ./inp_files/19196.got.cif
#   From: 2010.05.17/outbox.cif.g08.bks.cpg/sg73_10_cif.got.tgz:19196.got - 2010.06.03 17:35:07.
