data_PCOD9532984
_publ_section_title
;
Structure prediction by ZEFSAII (Michael W. Deem and Ramdas Pophale) SiO2 
 PCOD9532984
Probable space group: I B C A 
;
_chemical_formula_sum "Si O2"
_cell_formula_units_Z 64
_cell_length_a 13.644131
_cell_length_b 8.990730
_cell_length_c 21.989879
_cell_angle_alpha 90.000000
_cell_angle_beta 90.000000
_cell_angle_gamma 90.000000
_cell_volume 2697.513804
_symmetry_space_group_name_H-M "I B C A "
_symmetry_group_IT_number 73
_symmetry_cell_setting 'orthorhombic'
loop_
_space_group_symop_operation_xyz
x,y,z
-x,1/2-y,z
x,-y,1/2-z
1/2-x,y,-z
-x,-y,-z
x,1/2+y,-z
-x,y,1/2+z
1/2+x,-y,z
1/2+x,1/2+y,1/2+z
1/2-x,-y,1/2+z
1/2+x,1/2-y,-z
-x,1/2+y,1/2-z
1/2-x,1/2-y,1/2-z
1/2+x,y,1/2-z
1/2-x,1/2+y,z
x,1/2-y,1/2+z
loop_
_atom_site_type_symbol
_atom_site_label
_atom_site_fract_x
_atom_site_fract_y
_atom_site_fract_z
Si Si1 0.349078 0.885345 0.576816
Si Si2 0.750000 0.143172 0.000000
Si Si3 0.415539 0.000000 0.250000
Si Si4 0.454838 0.105104 0.643174
Si Si5 0.737304 0.188288 0.817105
O O1 0.333497 0.753584 0.527240
O O2 0.299148 0.810712 0.635561
O O3 0.292725 0.028792 0.549435
O O4 0.450977 0.956949 0.601148
O O5 0.487021 0.908138 0.293584
O O6 0.346862 0.930279 0.197505
O O7 0.500000 0.250000 0.610783
O O8 0.342584 0.131824 0.662058
O O9 0.750000 0.250000 0.750000
#
# Coordination Sequence:
#
# PCOD9532984 Si02
#       5
#    16   8   8  16  16
#     4  11  24  47  81 108 154 206 262 326 388 464
#     4  10  24  48  82 114 142 220 274 320 396 448
#     4  12  26  44  72 112 168 204 250 318 404 492
#     4  12  26  43  71 117 154 196 260 318 392 483
#     4  12  24  45  75 112 156 206 248 326 411 474
#
# _framework density 23.725549000000001
#
# number of rings (size 3 to 8) (size 9 to 14) (size 15 to 20)
#    0.000    0.500    5.000    3.750    0.000    0.000 
#    0.000    1.250    0.000    0.000    0.000    0.000 
#    0.000    0.000    0.000    0.000    0.000    0.000 
#
# Total GULP energy -178565.484037 kJ/mol
# GULP energy per Si atom -5580.171376 kJ/mol
# Density = 2.367155 g / cm^3
# Si number density = 23.725549 Si / 1000 Ang^3
#
#
#
# Elastic Constant Matrix: (Units=GPa)
#
#
# Indices 1 2 3 4 5 6 
#
# 1 111.7542 69.8169 45.5928 0.0000 0.0000 0.0000
# 2 69.8169 161.6543 61.5984 0.0000 0.0000 0.0000
# 3 45.5928 61.5984 122.5795 0.0000 0.0000 0.0000
# 4 0.0000 0.0000 0.0000 58.4746 0.0000 0.0000
# 5 0.0000 0.0000 0.0000 0.0000 15.5625 0.0000
# 6 0.0000 0.0000 0.0000 0.0000 0.0000 35.5209
#
#
#
# Elastic Compliance Matrix: (Units=1/GPa)
#
#
# Indices 1 2 3 4 5 6 
#
# 1 0.012827 -0.004603 -0.002458 0.000000 0.000000 0.000000
# 2 -0.004603 0.009303 -0.002963 0.000000 0.000000 0.000000
# 3 -0.002458 -0.002963 0.010561 0.000000 0.000000 0.000000
# 4 0.000000 0.000000 0.000000 0.017101 0.000000 0.000000
# 5 0.000000 0.000000 0.000000 0.000000 0.064257 0.000000
# 6 0.000000 0.000000 0.000000 0.000000 0.000000 0.028152
#
#
# Mechanical properties :
#
#
# Convention : Reuss Voigt Hill
#
# Bulk Modulus (GPa) = 79.09281 83.33380 81.21331
# Shear Modulus (GPa) = 30.03667 36.51028 33.27347
#
# Velocity S-wave (km/s) = 3.56196 3.92709 3.74897
# Velocity P-wave (km/s) = 7.09406 7.46746 7.28315
#
# Compressibility (1/GPa) = 0.01264337
#
# Stress axis : x y z
#
# Youngs Moduli (GPa) = 77.96266 107.49084 94.68859
#
# Poissons Ratio (x) = 0.49481 0.23271
# Poissons Ratio (y) = 0.35888 0.28055
# Poissons Ratio (z) = 0.19160 0.31848
#
# Static dielectric constant tensor:
#      x y z
#    x 1.780270 0.000000 0.000000 
#    y 0.000000 1.928390 0.000000 
#    z 0.000000 0.000000 1.902050 
# 
# From -- ./inp_files/29278.got.cif
#   From: 2010.05.17/outbox.cif.g08.bks.cpg/sg73_15_cif.got.tgz:29278.got - 2010.06.03 17:35:07.
