data_PCOD9532619
_publ_section_title
;
Structure prediction by ZEFSAII (Michael W. Deem and Ramdas Pophale) SiO2 
 PCOD9532619
Probable space group: I B C A 
;
_chemical_formula_sum "Si O2"
_cell_formula_units_Z 112
_cell_length_a 9.925137
_cell_length_b 31.938426
_cell_length_c 15.036993
_cell_angle_alpha 90.000000
_cell_angle_beta 90.000000
_cell_angle_gamma 90.000000
_cell_volume 4766.625336
_symmetry_space_group_name_H-M "I B C A "
_symmetry_group_IT_number 73
_symmetry_cell_setting 'orthorhombic'
loop_
_space_group_symop_operation_xyz
x,y,z
-x,1/2-y,z
x,-y,1/2-z
1/2-x,y,-z
-x,-y,-z
x,1/2+y,-z
-x,y,1/2+z
1/2+x,-y,z
1/2+x,1/2+y,1/2+z
1/2-x,-y,1/2+z
1/2+x,1/2-y,-z
-x,1/2+y,1/2-z
1/2-x,1/2-y,1/2-z
1/2+x,y,1/2-z
1/2-x,1/2+y,z
x,1/2-y,1/2+z
loop_
_atom_site_type_symbol
_atom_site_label
_atom_site_fract_x
_atom_site_fract_y
_atom_site_fract_z
Si Si1 0.121719 0.281344 0.959415
Si Si2 0.742885 0.138840 0.600107
Si Si3 0.059722 0.452234 0.076088
Si Si4 0.631846 0.030344 0.111279
Si Si5 0.497836 0.300642 0.372005
Si Si6 0.600446 0.585709 0.722490
Si Si7 0.980000 0.831729 0.683463
O O1 0.000000 0.250000 0.944049
O O2 0.133180 0.304624 0.866030
O O3 0.250000 0.257965 0.000000
O O4 0.085495 0.312322 0.041290
O O5 0.750000 0.123289 0.500000
O O6 0.857909 0.174008 0.617161
O O7 0.768420 0.099796 0.666488
O O8 0.601574 0.160728 0.616624
O O9 0.206509 0.470724 0.100409
O O10 0.942269 0.486520 0.092004
O O11 0.016708 0.417375 0.147683
O O12 0.073569 0.441530 0.971320
O O13 0.604740 0.046894 0.210441
O O14 0.500000 0.250000 0.375369
O O15 0.540814 0.311642 0.272495
O O16 0.577367 0.624158 0.787882
#
# Coordination Sequence:
#
# PCOD9532619 Si02
#       7
#    16  16  16  16  16  16  16
#     4  11  26  45  70  98 130 178 227 291 347 413
#     4  11  24  44  64  98 140 179 230 284 343 418
#     4  10  23  45  71 104 141 180 235 288 333 413
#     4  10  23  45  71 105 138 183 233 283 344 402
#     4  10  24  41  66  96 127 174 227 283 346 411
#     4  11  25  41  69 102 140 191 223 284 348 414
#     4  11  25  43  65  98 139 178 227 282 348 419
#
# _framework density 23.496707000000001
#
# number of rings (size 3 to 8) (size 9 to 14) (size 15 to 20)
#    0.000    1.429    1.429    1.714   10.000    4.000 
#    5.143    0.000    0.000    0.000    0.000    0.000 
#    0.000    0.000    0.000    0.000    0.000    0.000 
#
# Total GULP energy -312647.783209 kJ/mol
# GULP energy per Si atom -5582.996129 kJ/mol
# Density = 2.344323 g / cm^3
# Si number density = 23.496707 Si / 1000 Ang^3
#
#
#
# Elastic Constant Matrix: (Units=GPa)
#
#
# Indices 1 2 3 4 5 6 
#
# 1 66.4487 3.0886 14.5515 0.0002 0.0000 0.0000
# 2 3.0886 56.7870 28.7203 0.0001 0.0000 0.0000
# 3 14.5515 28.7203 142.2596 0.0002 0.0001 -0.0001
# 4 0.0002 0.0001 0.0002 0.7974 0.0000 0.0000
# 5 0.0000 0.0000 0.0001 0.0000 27.9491 0.0000
# 6 0.0000 0.0000 -0.0001 0.0000 0.0000 13.4193
#
#
#
# Elastic Compliance Matrix: (Units=1/GPa)
#
#
# Indices 1 2 3 4 5 6 
#
# 1 0.015394 -0.000046 -0.001565 -0.000003 0.000000 0.000000
# 2 -0.000046 0.019612 -0.003955 -0.000001 0.000000 0.000000
# 3 -0.001565 -0.003955 0.007988 -0.000002 0.000000 0.000000
# 4 -0.000003 -0.000001 -0.000002 1.254082 0.000000 -0.000003
# 5 0.000000 0.000000 0.000000 0.000000 0.035779 0.000000
# 6 0.000000 0.000000 0.000000 -0.000003 0.000000 0.074520
#
#
# Mechanical properties :
#
#
# Convention : Reuss Voigt Hill
#
# Bulk Modulus (GPa) = 31.38459 39.80182 35.59320
# Shear Modulus (GPa) = 3.49864 23.04214 13.27039
#
# Velocity S-wave (km/s) = 1.22157 3.13494 2.37908
# Velocity P-wave (km/s) = 3.92118 5.48451 4.76736
#
# Compressibility (1/GPa) = 0.03186278
#
# Stress axis : x y z
#
# Youngs Moduli (GPa) = 64.95980 50.98843 125.18859
#
# Poissons Ratio (x) = 0.00232 0.19598
# Poissons Ratio (y) = 0.00296 0.49510
# Poissons Ratio (z) = 0.10169 0.20165
#
# Static dielectric constant tensor:
#      x y z
#    x 1.933430 0.000000 0.000000 
#    y 0.000000 1.920320 0.000000 
#    z 0.000000 0.000000 1.951740 
# 
# From -- ./inp_files/16357.got.cif
#   From: 2010.05.17/outbox.cif.g08.bks.cpg/sg73_9_cif.got.tgz:16357.got - 2010.06.03 17:35:07.
