data_PCOD9532471
_publ_section_title
;
Structure prediction by ZEFSAII (Michael W. Deem and Ramdas Pophale) SiO2 
 PCOD9532471
Probable space group: I B C A 
;
_chemical_formula_sum "Si O2"
_cell_formula_units_Z 96
_cell_length_a 22.626254
_cell_length_b 24.956726
_cell_length_c 8.761380
_cell_angle_alpha 90.000000
_cell_angle_beta 90.000000
_cell_angle_gamma 90.000000
_cell_volume 4947.351715
_symmetry_space_group_name_H-M "I B C A "
_symmetry_group_IT_number 73
_symmetry_cell_setting 'orthorhombic'
loop_
_space_group_symop_operation_xyz
x,y,z
-x,1/2-y,z
x,-y,1/2-z
1/2-x,y,-z
-x,-y,-z
x,1/2+y,-z
-x,y,1/2+z
1/2+x,-y,z
1/2+x,1/2+y,1/2+z
1/2-x,-y,1/2+z
1/2+x,1/2-y,-z
-x,1/2+y,1/2-z
1/2-x,1/2-y,1/2-z
1/2+x,y,1/2-z
1/2-x,1/2+y,z
x,1/2-y,1/2+z
loop_
_atom_site_type_symbol
_atom_site_label
_atom_site_fract_x
_atom_site_fract_y
_atom_site_fract_z
Si Si1 0.946645 0.813626 0.060338
Si Si2 0.470818 0.538371 0.623564
Si Si3 0.868603 0.104518 0.965191
Si Si4 0.924802 0.702368 0.919699
Si Si5 0.809117 0.002658 0.570336
Si Si6 0.592928 0.412616 0.871739
O O1 0.938681 0.804464 0.240499
O O2 0.917898 0.764195 0.967153
O O3 0.918152 0.868248 0.999595
O O4 0.016087 0.814014 0.015214
O O5 0.442781 0.500000 0.750000
O O6 0.500000 0.500000 0.500000
O O7 0.425870 0.578432 0.546414
O O8 0.528376 0.568814 0.687248
O O9 0.875575 0.107701 0.782089
O O10 0.820752 0.057480 0.992063
O O11 0.870337 0.164229 0.032671
O O12 0.750000 0.026649 0.500000
O O13 0.868169 0.038861 0.559381
O O14 0.798918 0.000000 0.750000
#
# Coordination Sequence:
#
# PCOD9532471 Si02
#       6
#    16  16  16  16  16  16
#     4  11  22  35  54  80 116 152 191 228 278 335
#     4  12  21  32  50  80 116 147 183 222 276 341
#     4  11  22  36  56  80 116 150 186 231 283 333
#     4  11  22  35  53  81 114 154 189 230 276 335
#     4  10  23  41  59  82 113 148 188 235 282 334
#     4  11  21  37  55  81 115 151 184 231 283 334
#
# _framework density 19.404319999999998
#
# number of rings (size 3 to 8) (size 9 to 14) (size 15 to 20)
#    0.000    1.000    5.000    4.500    2.333    2.000 
#    0.000    0.000    0.000    1.000    0.000    7.000 
#    0.000    0.000    0.000    0.000    0.000    0.000 
#
# Total GULP energy -267896.580860 kJ/mol
# GULP energy per Si atom -5581.178768 kJ/mol
# Density = 1.936016 g / cm^3
# Si number density = 19.404320 Si / 1000 Ang^3
#
#
#
# Elastic Constant Matrix: (Units=GPa)
#
#
# Indices 1 2 3 4 5 6 
#
# 1 58.7827 12.8747 5.9350 0.0000 0.0000 0.0000
# 2 12.8747 80.7108 23.1509 0.0000 0.0000 0.0000
# 3 5.9350 23.1509 95.0395 0.0000 0.0000 0.0000
# 4 0.0000 0.0000 0.0000 33.8403 0.0000 0.0000
# 5 0.0000 0.0000 0.0000 0.0000 15.5222 0.0000
# 6 0.0000 0.0000 0.0000 0.0000 0.0000 10.5624
#
#
#
# Elastic Compliance Matrix: (Units=1/GPa)
#
#
# Indices 1 2 3 4 5 6 
#
# 1 0.017645 -0.002686 -0.000448 0.000000 0.000000 0.000000
# 2 -0.002686 0.013730 -0.003177 0.000000 0.000000 0.000000
# 3 -0.000448 -0.003177 0.011324 0.000000 0.000000 0.000000
# 4 0.000000 0.000000 0.000000 0.029551 0.000000 0.000000
# 5 0.000000 0.000000 0.000000 0.000000 0.064424 0.000000
# 6 0.000000 0.000000 0.000000 0.000000 0.000000 0.094676
#
#
# Mechanical properties :
#
#
# Convention : Reuss Voigt Hill
#
# Bulk Modulus (GPa) = 33.24739 35.38380 34.31560
# Shear Modulus (GPa) = 19.68536 24.82313 22.25424
#
# Velocity S-wave (km/s) = 3.18855 3.58055 3.39022
# Velocity P-wave (km/s) = 5.54320 5.94713 5.74871
#
# Compressibility (1/GPa) = 0.03007755
#
# Stress axis : x y z
#
# Youngs Moduli (GPa) = 56.67212 72.83516 88.31039
#
# Poissons Ratio (x) = 0.19566 0.03952
# Poissons Ratio (y) = 0.15224 0.28053
# Poissons Ratio (z) = 0.02536 0.23137
#
# Static dielectric constant tensor:
#      x y z
#    x 1.719580 0.000000 0.000000 
#    y 0.000000 1.760320 0.000000 
#    z 0.000000 0.000000 1.689810 
# 
# From -- ./inp_files/7183.got.cif
#   From: 2010.05.17/outbox.cif.g08.bks.cpg/sg73_4_cif.got.tgz:7183.got - 2010.06.03 17:35:07.
