data_PCOD9532491
_publ_section_title
;
Structure prediction by ZEFSAII (Michael W. Deem and Ramdas Pophale) SiO2 
 PCOD9532491
Probable space group: I B C A 
;
_chemical_formula_sum "Si O2"
_cell_formula_units_Z 72
_cell_length_a 28.591311
_cell_length_b 17.822622
_cell_length_c 5.481780
_cell_angle_alpha 90.000000
_cell_angle_beta 90.000000
_cell_angle_gamma 90.000000
_cell_volume 2793.362302
_symmetry_space_group_name_H-M "I B C A "
_symmetry_group_IT_number 73
_symmetry_cell_setting 'orthorhombic'
loop_
_space_group_symop_operation_xyz
x,y,z
-x,1/2-y,z
x,-y,1/2-z
1/2-x,y,-z
-x,-y,-z
x,1/2+y,-z
-x,y,1/2+z
1/2+x,-y,z
1/2+x,1/2+y,1/2+z
1/2-x,-y,1/2+z
1/2+x,1/2-y,-z
-x,1/2+y,1/2-z
1/2-x,1/2-y,1/2-z
1/2+x,y,1/2-z
1/2-x,1/2+y,z
x,1/2-y,1/2+z
loop_
_atom_site_type_symbol
_atom_site_label
_atom_site_fract_x
_atom_site_fract_y
_atom_site_fract_z
Si Si1 0.413900 0.936835 0.411963
Si Si2 0.118467 0.288794 0.197389
Si Si3 0.479200 0.838615 0.690128
Si Si4 0.278116 0.657657 0.743198
Si Si5 0.826097 0.500000 0.750000
O O1 0.401522 0.871022 0.221240
O O2 0.431701 0.887448 0.638477
O O3 0.440346 0.000000 0.250000
O O4 0.363288 0.975752 0.459918
O O5 0.101662 0.244852 0.440646
O O6 0.174060 0.294221 0.234803
O O7 0.500000 0.750000 0.694826
O O8 0.496281 0.866796 0.946184
O O9 0.250000 0.678522 0.500000
O O10 0.294727 0.572012 0.705688
O O11 0.250000 0.661450 0.000000
#
# Coordination Sequence:
#
# PCOD9532491 Si02
#       5
#    16  16  16  16   8
#     4   9  22  45  69  99 139 175 230 281 328 410
#     4  11  25  42  67  98 136 184 226 277 347 395
#     4  10  23  41  68 101 133 174 219 268 345 397
#     4  11  22  40  66  94 134 176 227 283 332 394
#     4   8  20  42  62  98 130 182 222 272 344 390
#
# _framework density 25.775390000000002
#
# number of rings (size 3 to 8) (size 9 to 14) (size 15 to 20)
#    0.667    1.333    0.000    2.000    6.222    3.556 
#    0.000   10.000    0.000    0.000    0.000    0.000 
#    0.000    0.000    0.000    0.000    0.000    0.000 
#
# Total GULP energy -200423.035622 kJ/mol
# GULP energy per Si atom -5567.306545 kJ/mol
# Density = 2.571672 g / cm^3
# Si number density = 25.775390 Si / 1000 Ang^3
#
#
#
# Elastic Constant Matrix: (Units=GPa)
#
#
# Indices 1 2 3 4 5 6 
#
# 1 63.6892 27.3172 38.9156 0.0000 0.0000 0.0000
# 2 27.3172 162.1922 54.1394 0.0000 0.0000 0.0000
# 3 38.9156 54.1394 172.7764 0.0000 0.0000 0.0000
# 4 0.0000 0.0000 0.0000 15.8814 0.0000 0.0000
# 5 0.0000 0.0000 0.0000 0.0000 25.5827 0.0000
# 6 0.0000 0.0000 0.0000 0.0000 0.0000 67.0305
#
#
#
# Elastic Compliance Matrix: (Units=1/GPa)
#
#
# Indices 1 2 3 4 5 6 
#
# 1 0.018744 -0.001952 -0.003610 0.000000 0.000000 0.000000
# 2 -0.001952 0.007089 -0.001782 0.000000 0.000000 0.000000
# 3 -0.003610 -0.001782 0.007159 0.000000 0.000000 0.000000
# 4 0.000000 0.000000 0.000000 0.062967 0.000000 0.000000
# 5 0.000000 0.000000 0.000000 0.000000 0.039089 0.000000
# 6 0.000000 0.000000 0.000000 0.000000 0.000000 0.014919
#
#
# Mechanical properties :
#
#
# Convention : Reuss Voigt Hill
#
# Bulk Modulus (GPa) = 54.63015 71.04468 62.83742
# Shear Modulus (GPa) = 29.28145 40.25128 34.76637
#
# Velocity S-wave (km/s) = 3.37415 3.95602 3.67661
# Velocity P-wave (km/s) = 6.03495 6.96345 6.51576
#
# Compressibility (1/GPa) = 0.01830491
#
# Stress axis : x y z
#
# Youngs Moduli (GPa) = 53.34914 141.06361 139.67868
#
# Poissons Ratio (x) = 0.27535 0.50428
# Poissons Ratio (y) = 0.10413 0.24886
# Poissons Ratio (z) = 0.19261 0.25133
#
# Static dielectric constant tensor:
#      x y z
#    x 2.208750 0.000000 0.000000 
#    y 0.000000 2.074880 0.000000 
#    z 0.000000 0.000000 1.978180 
# 
# From -- ./inp_files/3015.got.cif
#   From: 2010.05.17/outbox.cif.g08.bks.cpg/sg73_2_cif.got.tgz:3015.got - 2010.06.03 17:35:07.
