data_PCOD9532936
_publ_section_title
;
Structure prediction by ZEFSAII (Michael W. Deem and Ramdas Pophale) SiO2 
 PCOD9532936
Probable space group: I B C A 
;
_chemical_formula_sum "Si O2"
_cell_formula_units_Z 80
_cell_length_a 8.410086
_cell_length_b 18.384713
_cell_length_c 20.715187
_cell_angle_alpha 90.000000
_cell_angle_beta 90.000000
_cell_angle_gamma 90.000000
_cell_volume 3202.920429
_symmetry_space_group_name_H-M "I B C A "
_symmetry_group_IT_number 73
_symmetry_cell_setting 'orthorhombic'
loop_
_space_group_symop_operation_xyz
x,y,z
-x,1/2-y,z
x,-y,1/2-z
1/2-x,y,-z
-x,-y,-z
x,1/2+y,-z
-x,y,1/2+z
1/2+x,-y,z
1/2+x,1/2+y,1/2+z
1/2-x,-y,1/2+z
1/2+x,1/2-y,-z
-x,1/2+y,1/2-z
1/2-x,1/2-y,1/2-z
1/2+x,y,1/2-z
1/2-x,1/2+y,z
x,1/2-y,1/2+z
loop_
_atom_site_type_symbol
_atom_site_label
_atom_site_fract_x
_atom_site_fract_y
_atom_site_fract_z
Si Si1 0.750000 0.241746 0.000000
Si Si2 0.844848 0.891989 0.580055
Si Si3 0.824095 0.433595 0.200292
Si Si4 0.337556 0.866206 0.196154
Si Si5 0.500000 0.750000 0.102239
Si Si6 0.667860 0.973553 0.935274
O O1 0.851255 0.184289 0.956352
O O2 0.634942 0.279974 0.947874
O O3 0.823168 0.883282 0.656270
O O4 0.991619 0.943603 0.566333
O O5 0.685917 0.938562 0.562840
O O6 0.793749 0.500000 0.250000
O O7 0.729735 0.364601 0.231213
O O8 0.755449 0.449544 0.129991
O O9 0.012294 0.420613 0.197271
O O10 0.410441 0.803165 0.151373
O O11 0.750000 0.945578 0.000000
#
# Coordination Sequence:
#
# PCOD9532936 Si02
#       6
#     8  16  16  16   8  16
#     4  10  24  46  72  98 148 188 256 316 374 434
#     4  11  23  41  66 108 146 190 236 306 372 468
#     4  12  25  43  72 106 149 196 240 313 385 464
#     4  11  25  46  72 104 148 199 261 307 373 459
#     4  10  26  48  74 104 144 208 258 322 372 456
#     4  12  25  39  69 111 155 189 237 301 396 466
#
# _framework density 24.977205999999999
#
# number of rings (size 3 to 8) (size 9 to 14) (size 15 to 20)
#    0.000    0.800    3.000    3.600    5.600    2.400 
#    0.000    0.000    0.000    0.000    0.000    0.000 
#    0.000    0.000    0.000    0.000    0.000    0.000 
#
# Total GULP energy -223487.779185 kJ/mol
# GULP energy per Si atom -5587.194480 kJ/mol
# Density = 2.492036 g / cm^3
# Si number density = 24.977206 Si / 1000 Ang^3
#
#
#
# Elastic Constant Matrix: (Units=GPa)
#
#
# Indices 1 2 3 4 5 6 
#
# 1 108.5946 18.0552 41.5296 0.0000 0.0000 0.0000
# 2 18.0552 37.6886 33.9065 0.0000 0.0000 0.0000
# 3 41.5296 33.9065 189.2460 0.0000 0.0000 0.0000
# 4 0.0000 0.0000 0.0000 37.1410 0.0000 0.0000
# 5 0.0000 0.0000 0.0000 0.0000 53.0166 0.0000
# 6 0.0000 0.0000 0.0000 0.0000 0.0000 29.8837
#
#
#
# Elastic Compliance Matrix: (Units=1/GPa)
#
#
# Indices 1 2 3 4 5 6 
#
# 1 0.010426 -0.003500 -0.001661 0.000000 0.000000 0.000000
# 2 -0.003500 0.032807 -0.005110 0.000000 0.000000 0.000000
# 3 -0.001661 -0.005110 0.006564 0.000000 0.000000 0.000000
# 4 0.000000 0.000000 0.000000 0.026924 0.000000 0.000000
# 5 0.000000 0.000000 0.000000 0.000000 0.018862 0.000000
# 6 0.000000 0.000000 0.000000 0.000000 0.000000 0.033463
#
#
# Mechanical properties :
#
#
# Convention : Reuss Voigt Hill
#
# Bulk Modulus (GPa) = 34.18219 58.05685 46.11952
# Shear Modulus (GPa) = 31.37941 40.14411 35.76176
#
# Velocity S-wave (km/s) = 3.54831 4.01338 3.78799
# Velocity P-wave (km/s) = 5.52290 6.69109 6.13486
#
# Compressibility (1/GPa) = 0.02925500
#
# Stress axis : x y z
#
# Youngs Moduli (GPa) = 95.91716 30.48110 152.34447
#
# Poissons Ratio (x) = 0.10670 0.25300
# Poissons Ratio (y) = 0.33576 0.77845
# Poissons Ratio (z) = 0.15929 0.15575
#
# Static dielectric constant tensor:
#      x y z
#    x 1.983940 0.000000 0.000000 
#    y 0.000000 2.080930 0.000000 
#    z 0.000000 0.000000 2.009060 
# 
# From -- ./inp_files/28293.got.cif
#   From: 2010.05.17/outbox.cif.g08.bks.cpg/sg73_15_cif.got.tgz:28293.got - 2010.06.03 17:35:07.
