data_PCOD9532143
_publ_section_title
;
Structure prediction by ZEFSAII (Michael W. Deem and Ramdas Pophale) SiO2 
 PCOD9532143
Probable space group: I B C A 
;
_chemical_formula_sum "Si O2"
_cell_formula_units_Z 120
_cell_length_a 8.244118
_cell_length_b 23.354891
_cell_length_c 28.216301
_cell_angle_alpha 90.000000
_cell_angle_beta 90.000000
_cell_angle_gamma 90.000000
_cell_volume 5432.780062
_symmetry_space_group_name_H-M "I B C A "
_symmetry_group_IT_number 73
_symmetry_cell_setting 'orthorhombic'
loop_
_space_group_symop_operation_xyz
x,y,z
-x,1/2-y,z
x,-y,1/2-z
1/2-x,y,-z
-x,-y,-z
x,1/2+y,-z
-x,y,1/2+z
1/2+x,-y,z
1/2+x,1/2+y,1/2+z
1/2-x,-y,1/2+z
1/2+x,1/2-y,-z
-x,1/2+y,1/2-z
1/2-x,1/2-y,1/2-z
1/2+x,y,1/2-z
1/2-x,1/2+y,z
x,1/2-y,1/2+z
loop_
_atom_site_type_symbol
_atom_site_label
_atom_site_fract_x
_atom_site_fract_y
_atom_site_fract_z
Si Si1 0.817022 0.777495 0.447071
Si Si2 0.193115 0.340569 0.445511
Si Si3 0.363001 0.120229 0.785842
Si Si4 0.529273 0.816731 0.800412
Si Si5 0.871130 0.130999 0.892948
Si Si6 0.687531 0.478991 0.357157
Si Si7 0.401562 0.581855 0.117654
Si Si8 0.780707 0.000000 0.250000
O O1 0.750000 0.790076 0.500000
O O2 0.703325 0.725365 0.428918
O O3 0.779806 0.833687 0.415808
O O4 0.000000 0.750000 0.448086
O O5 0.250000 0.340279 0.500000
O O6 0.335194 0.375125 0.419923
O O7 0.018663 0.367046 0.431513
O O8 0.456301 0.151468 0.744768
O O9 0.461026 0.112785 0.834504
O O10 0.211467 0.159291 0.801558
O O11 0.312673 0.058210 0.764544
O O12 0.500000 0.750000 0.793770
O O13 0.440167 0.835162 0.848101
O O14 0.819219 0.069640 0.870913
O O15 0.542999 0.462481 0.392451
O O16 0.751533 0.541915 0.367810
O O17 0.640201 0.482992 0.300973
#
# Coordination Sequence:
#
# PCOD9532143 Si02
#       8
#    16  16  16  16  16  16  16   8
#     4  11  23  43  72 105 138 184 238 293 353 425
#     4  11  23  45  71  99 139 185 234 292 356 423
#     4  11  24  41  68  93 139 176 236 284 355 420
#     4  12  25  44  62  98 139 189 225 286 357 439
#     4  12  24  44  69 103 138 184 235 294 352 422
#     4  11  24  41  68  97 139 172 233 285 351 423
#     4  11  24  43  66 101 132 179 228 289 351 422
#     4  10  22  42  66 100 128 184 234 290 342 420
#
# _framework density 22.088139000000002
#
# number of rings (size 3 to 8) (size 9 to 14) (size 15 to 20)
#    0.000    0.800    2.667    5.600    1.867    2.667 
#    0.000    3.333    0.000    0.000    0.000    0.000 
#    0.000    0.000    0.000    0.000    0.000    0.000 
#
# Total GULP energy -335035.950685 kJ/mol
# GULP energy per Si atom -5583.932511 kJ/mol
# Density = 2.203787 g / cm^3
# Si number density = 22.088139 Si / 1000 Ang^3
#
#
#
# Elastic Constant Matrix: (Units=GPa)
#
#
# Indices 1 2 3 4 5 6 
#
# 1 61.4014 -5.2514 7.5311 0.0000 0.0000 0.0000
# 2 -5.2514 83.4243 30.4121 0.0000 0.0000 0.0000
# 3 7.5311 30.4121 83.8791 0.0000 0.0000 0.0000
# 4 0.0000 0.0000 0.0000 34.3085 0.0000 0.0000
# 5 0.0000 0.0000 0.0000 0.0000 72.2500 0.0000
# 6 0.0000 0.0000 0.0000 0.0000 0.0000 40.5697
#
#
#
# Elastic Compliance Matrix: (Units=1/GPa)
#
#
# Indices 1 2 3 4 5 6 
#
# 1 0.016710 0.001842 -0.002168 0.000000 0.000000 0.000000
# 2 0.001842 0.014016 -0.005247 0.000000 0.000000 0.000000
# 3 -0.002168 -0.005247 0.014019 0.000000 0.000000 0.000000
# 4 0.000000 0.000000 0.000000 0.029147 0.000000 0.000000
# 5 0.000000 0.000000 0.000000 0.000000 0.013841 0.000000
# 6 0.000000 0.000000 0.000000 0.000000 0.000000 0.024649
#
#
# Mechanical properties :
#
#
# Convention : Reuss Voigt Hill
#
# Bulk Modulus (GPa) = 29.76331 32.67647 31.21989
# Shear Modulus (GPa) = 37.11205 42.49318 39.80262
#
# Velocity S-wave (km/s) = 4.10345 4.39087 4.24959
# Velocity P-wave (km/s) = 5.99626 6.36649 6.18414
#
# Compressibility (1/GPa) = 0.03359841
#
# Stress axis : x y z
#
# Youngs Moduli (GPa) = 59.84518 71.34862 71.33155
#
# Poissons Ratio (x) = -0.13144 0.15467
# Poissons Ratio (y) = -0.11025 0.37428
# Poissons Ratio (z) = 0.12976 0.37437
#
# Static dielectric constant tensor:
#      x y z
#    x 1.967800 0.000000 0.000000 
#    y 0.000000 1.988330 0.000000 
#    z 0.000000 0.000000 1.874940 
# 
# From -- ./inp_files/31425.got.cif
#   From: 2010.05.17/outbox.cif.g08.bks.cpg/sg73_16_cif.got.tgz:31425.got - 2010.06.03 17:35:07.
