data_PCOD9532448
_publ_section_title
;
Structure prediction by ZEFSAII (Michael W. Deem and Ramdas Pophale) SiO2 
 PCOD9532448
Probable space group: I B C A 
;
_chemical_formula_sum "Si O2"
_cell_formula_units_Z 72
_cell_length_a 5.665088
_cell_length_b 38.803959
_cell_length_c 13.497589
_cell_angle_alpha 90.000000
_cell_angle_beta 90.000000
_cell_angle_gamma 90.000000
_cell_volume 2967.145869
_symmetry_space_group_name_H-M "I B C A "
_symmetry_group_IT_number 73
_symmetry_cell_setting 'orthorhombic'
loop_
_space_group_symop_operation_xyz
x,y,z
-x,1/2-y,z
x,-y,1/2-z
1/2-x,y,-z
-x,-y,-z
x,1/2+y,-z
-x,y,1/2+z
1/2+x,-y,z
1/2+x,1/2+y,1/2+z
1/2-x,-y,1/2+z
1/2+x,1/2-y,-z
-x,1/2+y,1/2-z
1/2-x,1/2-y,1/2-z
1/2+x,y,1/2-z
1/2-x,1/2+y,z
x,1/2-y,1/2+z
loop_
_atom_site_type_symbol
_atom_site_label
_atom_site_fract_x
_atom_site_fract_y
_atom_site_fract_z
Si Si1 0.250000 0.862565 0.000000
Si Si2 0.751144 0.267981 0.879853
Si Si3 0.351078 0.658395 0.113454
Si Si4 0.889133 0.013572 0.361207
Si Si5 0.626366 0.591583 0.395623
O O1 0.395552 0.888257 0.930092
O O2 0.122170 0.838964 0.918193
O O3 0.500000 0.250000 0.855298
O O4 0.745844 0.307185 0.839248
O O5 0.000000 0.250000 0.854709
O O6 0.750000 0.270499 0.000000
O O7 0.284033 0.621219 0.158246
O O8 0.250000 0.655749 0.000000
O O9 0.914834 0.054762 0.349583
O O10 0.875262 0.000000 0.250000
O O11 0.631460 0.002832 0.404704
O O12 0.750000 0.582699 0.500000
#
# Coordination Sequence:
#
# PCOD9532448 Si02
#       5
#     8  16  16  16  16
#     4   8  16  28  46  66  96 130 176 218 258 300
#     4   9  17  23  35  56  88 129 171 205 243 292
#     4   8  16  26  41  62  93 131 174 212 253 299
#     4  10  23  40  56  75 103 136 167 212 273 322
#     4   9  19  32  51  75 100 134 178 220 260 313
#
# _framework density 24.265743000000001
#
# number of rings (size 3 to 8) (size 9 to 14) (size 15 to 20)
#    0.000    3.556    0.000    0.000   17.111    0.889 
#    0.000    0.000    0.000    0.000    0.000    0.000 
#    0.000    0.000    0.000   24.000    0.000   32.444 
#
# Total GULP energy -200517.336628 kJ/mol
# GULP energy per Si atom -5569.926017 kJ/mol
# Density = 2.421051 g / cm^3
# Si number density = 24.265743 Si / 1000 Ang^3
#
#
#
# Elastic Constant Matrix: (Units=GPa)
#
#
# Indices 1 2 3 4 5 6 
#
# 1 151.9764 65.5802 5.0331 0.0000 0.0000 0.0000
# 2 65.5802 214.4308 6.3181 0.0000 0.0000 0.0000
# 3 5.0331 6.3181 50.5172 0.0000 0.0000 0.0000
# 4 0.0000 0.0000 0.0000 17.7222 0.0000 0.0000
# 5 0.0000 0.0000 0.0000 0.0000 -5.5330 0.0000
# 6 0.0000 0.0000 0.0000 0.0000 0.0000 19.7558
#
#
#
# Elastic Compliance Matrix: (Units=1/GPa)
#
#
# Indices 1 2 3 4 5 6 
#
# 1 0.007591 -0.002308 -0.000468 0.000000 0.000000 0.000000
# 2 -0.002308 0.005382 -0.000443 0.000000 0.000000 0.000000
# 3 -0.000468 -0.000443 0.019897 0.000000 0.000000 0.000000
# 4 0.000000 0.000000 0.000000 0.056426 0.000000 0.000000
# 5 0.000000 0.000000 0.000000 0.000000 -0.180734 0.000000
# 6 0.000000 0.000000 0.000000 0.000000 0.000000 0.050618
#
#
# Mechanical properties :
#
#
# Convention : Reuss Voigt Hill
#
# Bulk Modulus (GPa) = 37.83100 63.42082 50.62591
# Shear Modulus (GPa) = -195.54783 29.05519 -83.24632
#
# Velocity S-wave (km/s) = -8.98671 3.46406 -5.86350
# Velocity P-wave (km/s) = 9.59464 6.49556 4.99323
#
# Compressibility (1/GPa) = 0.02643335
#
# Stress axis : x y z
#
# Youngs Moduli (GPa) = 131.72876 185.79045 50.25817
#
# Poissons Ratio (x) = 0.42879 0.02351
# Poissons Ratio (y) = 0.30402 0.02228
# Poissons Ratio (z) = 0.06161 0.08235
#
# Static dielectric constant tensor:
#      x y z
#    x 2.371180 0.000000 0.000000 
#    y 0.000000 1.920510 0.000000 
#    z 0.000000 0.000000 1.896590 
# 
# From -- ./inp_files/28041.got.cif
#   From: 2010.05.17/outbox.cif.g08.bks.cpg/sg73_15_cif.got.tgz:28041.got - 2010.06.03 17:35:07.
