data_PCOD9532028
_publ_section_title
;
Structure prediction by ZEFSAII (Michael W. Deem and Ramdas Pophale) SiO2 
 PCOD9532028
Probable space group: I B C A 
;
_chemical_formula_sum "Si O2"
_cell_formula_units_Z 64
_cell_length_a 18.082657
_cell_length_b 21.926336
_cell_length_c 7.370964
_cell_angle_alpha 90.000000
_cell_angle_beta 90.000000
_cell_angle_gamma 90.000000
_cell_volume 2922.487078
_symmetry_space_group_name_H-M "I B C A "
_symmetry_group_IT_number 73
_symmetry_cell_setting 'orthorhombic'
loop_
_space_group_symop_operation_xyz
x,y,z
-x,1/2-y,z
x,-y,1/2-z
1/2-x,y,-z
-x,-y,-z
x,1/2+y,-z
-x,y,1/2+z
1/2+x,-y,z
1/2+x,1/2+y,1/2+z
1/2-x,-y,1/2+z
1/2+x,1/2-y,-z
-x,1/2+y,1/2-z
1/2-x,1/2-y,1/2-z
1/2+x,y,1/2-z
1/2-x,1/2+y,z
x,1/2-y,1/2+z
loop_
_atom_site_type_symbol
_atom_site_label
_atom_site_fract_x
_atom_site_fract_y
_atom_site_fract_z
Si Si1 0.250000 0.438599 0.000000
Si Si2 0.560543 0.304486 0.135296
Si Si3 0.924355 0.632078 0.265910
Si Si4 0.823400 0.175942 0.072053
Si Si5 0.865382 0.000000 0.750000
O O1 0.211619 0.389341 0.136328
O O2 0.188112 0.479620 0.912033
O O3 0.500000 0.250000 0.114927
O O4 0.510085 0.357743 0.219259
O O5 0.626908 0.293573 0.275014
O O6 0.590015 0.327935 0.944373
O O7 0.875269 0.657109 0.098068
O O8 0.909630 0.561013 0.296191
O O9 0.750000 0.210362 0.000000
#
# Coordination Sequence:
#
# PCOD9532028 Si02
#       5
#     8  16  16  16   8
#     4   8  20  40  66 100 144 178 228 302 352 436
#     4  12  25  44  73  98 145 195 244 295 353 424
#     4  11  24  42  70 105 139 187 236 296 365 425
#     4   9  22  46  69 102 139 179 246 291 352 430
#     4  10  22  40  68 104 142 182 232 298 374 426
#
# _framework density 21.899156000000001
#
# number of rings (size 3 to 8) (size 9 to 14) (size 15 to 20)
#    0.750    1.000    2.500    0.750    3.500    3.000 
#    0.000    1.250    2.750    0.000    0.000    0.000 
#    0.000    0.000    0.000    0.000    0.000    0.000 
#
# Total GULP energy -178595.134376 kJ/mol
# GULP energy per Si atom -5581.097949 kJ/mol
# Density = 2.184931 g / cm^3
# Si number density = 21.899156 Si / 1000 Ang^3
#
#
#
# Elastic Constant Matrix: (Units=GPa)
#
#
# Indices 1 2 3 4 5 6 
#
# 1 93.5958 35.3683 27.9839 0.0000 0.0000 0.0000
# 2 35.3683 135.7478 38.6269 0.0000 0.0000 0.0000
# 3 27.9839 38.6269 103.2683 0.0000 0.0000 0.0000
# 4 0.0000 0.0000 0.0000 23.9263 0.0000 0.0000
# 5 0.0000 0.0000 0.0000 0.0000 21.1850 0.0000
# 6 0.0000 0.0000 0.0000 0.0000 0.0000 113.5055
#
#
#
# Elastic Compliance Matrix: (Units=1/GPa)
#
#
# Indices 1 2 3 4 5 6 
#
# 1 0.012361 -0.002537 -0.002400 0.000000 0.000000 0.000000
# 2 -0.002537 0.008765 -0.002591 0.000000 0.000000 0.000000
# 3 -0.002400 -0.002591 0.011303 0.000000 0.000000 0.000000
# 4 0.000000 0.000000 0.000000 0.041795 0.000000 0.000000
# 5 0.000000 0.000000 0.000000 0.000000 0.047203 0.000000
# 6 0.000000 0.000000 0.000000 0.000000 0.000000 0.008810
#
#
# Mechanical properties :
#
#
# Convention : Reuss Voigt Hill
#
# Bulk Modulus (GPa) = 57.56630 59.61891 58.59260
# Shear Modulus (GPa) = 33.09389 47.09889 40.09639
#
# Velocity S-wave (km/s) = 3.89163 4.64261 4.28361
# Velocity P-wave (km/s) = 6.82181 7.48478 7.16097
#
# Compressibility (1/GPa) = 0.01737128
#
# Stress axis : x y z
#
# Youngs Moduli (GPa) = 80.90087 114.09068 88.47144
#
# Poissons Ratio (x) = 0.28950 0.21237
# Poissons Ratio (y) = 0.20529 0.22922
# Poissons Ratio (z) = 0.19420 0.29559
#
# Static dielectric constant tensor:
#      x y z
#    x 1.826730 0.000000 0.000000 
#    y 0.000000 1.836400 0.000000 
#    z 0.000000 0.000000 1.850150 
# 
# From -- ./inp_files/5970.got.cif
#   From: 2010.05.17/outbox.cif.g08.bks.cpg/sg73_3_cif.got.tgz:5970.got - 2010.06.03 17:35:07.
