data_PCOD9532455
_publ_section_title
;
Structure prediction by ZEFSAII (Michael W. Deem and Ramdas Pophale) SiO2 
 PCOD9532455
Probable space group: I B C A 
;
_chemical_formula_sum "Si O2"
_cell_formula_units_Z 120
_cell_length_a 29.536634
_cell_length_b 8.818225
_cell_length_c 19.211850
_cell_angle_alpha 90.000000
_cell_angle_beta 90.000000
_cell_angle_gamma 90.000000
_cell_volume 5003.931599
_symmetry_space_group_name_H-M "I B C A "
_symmetry_group_IT_number 73
_symmetry_cell_setting 'orthorhombic'
loop_
_space_group_symop_operation_xyz
x,y,z
-x,1/2-y,z
x,-y,1/2-z
1/2-x,y,-z
-x,-y,-z
x,1/2+y,-z
-x,y,1/2+z
1/2+x,-y,z
1/2+x,1/2+y,1/2+z
1/2-x,-y,1/2+z
1/2+x,1/2-y,-z
-x,1/2+y,1/2-z
1/2-x,1/2-y,1/2-z
1/2+x,y,1/2-z
1/2-x,1/2+y,z
x,1/2-y,1/2+z
loop_
_atom_site_type_symbol
_atom_site_label
_atom_site_fract_x
_atom_site_fract_y
_atom_site_fract_z
Si Si1 0.850266 0.677951 0.752866
Si Si2 0.568197 0.359398 0.723434
Si Si3 0.050030 0.828595 0.064043
Si Si4 0.139111 0.346021 0.394557
Si Si5 0.196644 0.970428 0.993553
Si Si6 0.500000 0.250000 0.327610
Si Si7 0.575796 0.879897 0.582829
Si Si8 0.657537 0.308976 0.903430
O O1 0.837933 0.500000 0.750000
O O2 0.904258 0.708088 0.743931
O O3 0.839942 0.732166 0.673707
O O4 0.833118 0.763452 0.822316
O O5 0.598443 0.500000 0.750000
O O6 0.552053 0.376138 0.644791
O O7 0.527624 0.354931 0.776412
O O8 0.098990 0.741661 0.066570
O O9 0.000000 0.750000 0.054631
O O10 0.059691 0.926206 0.994689
O O11 0.180396 0.398397 0.441119
O O12 0.110272 0.501987 0.381921
O O13 0.179740 0.819007 0.954144
O O14 0.250000 0.964303 0.000000
O O15 0.173349 0.028433 0.065949
O O16 0.469217 0.145409 0.375088
O O17 0.603803 0.721670 0.586533
#
# Coordination Sequence:
#
# PCOD9532455 Si02
#       8
#    16  16  16  16  16   8  16  16
#     4  11  20  44  70  91 130 186 224 262 342 413
#     4  11  26  39  59  94 134 178 237 286 325 385
#     4  11  23  39  56  91 132 172 219 279 330 382
#     4  10  23  40  65  91 128 177 224 268 333 406
#     4  11  23  43  71 104 132 169 218 283 345 413
#     4  12  22  38  56  88 130 182 230 268 330 388
#     4  11  22  36  62  88 125 174 225 269 319 394
#     4  11  23  43  70 101 134 171 219 274 337 413
#
# _framework density 23.981144
#
# number of rings (size 3 to 8) (size 9 to 14) (size 15 to 20)
#    0.000    1.067    6.667    0.400    1.867    4.267 
#    0.000    0.667    0.000    0.000    0.000    0.000 
#    0.000    0.000    0.000    0.000    0.000    0.000 
#
# Total GULP energy -334156.973759 kJ/mol
# GULP energy per Si atom -5569.282896 kJ/mol
# Density = 2.392656 g / cm^3
# Si number density = 23.981144 Si / 1000 Ang^3
#
#
#
# Elastic Constant Matrix: (Units=GPa)
#
#
# Indices 1 2 3 4 5 6 
#
# 1 78.2158 11.8235 15.5021 0.0000 0.0000 0.0000
# 2 11.8235 43.1564 41.9974 0.0000 0.0000 0.0000
# 3 15.5021 41.9974 171.8228 0.0000 0.0000 0.0000
# 4 0.0000 0.0000 0.0000 19.4914 0.0000 0.0000
# 5 0.0000 0.0000 0.0000 0.0000 12.4930 0.0000
# 6 0.0000 0.0000 0.0000 0.0000 0.0000 13.2519
#
#
#
# Elastic Compliance Matrix: (Units=1/GPa)
#
#
# Indices 1 2 3 4 5 6 
#
# 1 0.013359 -0.003263 -0.000408 0.000000 0.000000 0.000000
# 2 -0.003263 0.031200 -0.007332 0.000000 0.000000 0.000000
# 3 -0.000408 -0.007332 0.007649 0.000000 0.000000 0.000000
# 4 0.000000 0.000000 0.000000 0.051305 0.000000 0.000000
# 5 0.000000 0.000000 0.000000 0.000000 0.080045 0.000000
# 6 0.000000 0.000000 0.000000 0.000000 0.000000 0.075461
#
#
# Mechanical properties :
#
#
# Convention : Reuss Voigt Hill
#
# Bulk Modulus (GPa) = 33.10919 47.98234 40.54576
# Shear Modulus (GPa) = 17.17672 23.97205 20.57438
#
# Velocity S-wave (km/s) = 2.67921 3.16511 2.93224
# Velocity P-wave (km/s) = 4.83810 5.78005 5.32992
#
# Compressibility (1/GPa) = 0.03020310
#
# Stress axis : x y z
#
# Youngs Moduli (GPa) = 74.85461 32.05090 130.74017
#
# Poissons Ratio (x) = 0.10459 0.05330
# Poissons Ratio (y) = 0.24427 0.95854
# Poissons Ratio (z) = 0.03052 0.23499
#
# Static dielectric constant tensor:
#      x y z
#    x 1.897110 0.000000 0.000000 
#    y 0.000000 2.292120 0.000000 
#    z 0.000000 0.000000 2.011510 
# 
# From -- ./inp_files/24172.got.cif
#   From: 2010.05.17/outbox.cif.g08.bks.cpg/sg73_13_cif.got.tgz:24172.got - 2010.06.03 17:35:07.
