data_PCOD9532691
_publ_section_title
;
Structure prediction by ZEFSAII (Michael W. Deem and Ramdas Pophale) SiO2 
 PCOD9532691
Probable space group: I B C A 
;
_chemical_formula_sum "Si O2"
_cell_formula_units_Z 88
_cell_length_a 19.021126
_cell_length_b 19.403682
_cell_length_c 8.803209
_cell_angle_alpha 90.000000
_cell_angle_beta 90.000000
_cell_angle_gamma 90.000000
_cell_volume 3249.087323
_symmetry_space_group_name_H-M "I B C A "
_symmetry_group_IT_number 73
_symmetry_cell_setting 'orthorhombic'
loop_
_space_group_symop_operation_xyz
x,y,z
-x,1/2-y,z
x,-y,1/2-z
1/2-x,y,-z
-x,-y,-z
x,1/2+y,-z
-x,y,1/2+z
1/2+x,-y,z
1/2+x,1/2+y,1/2+z
1/2-x,-y,1/2+z
1/2+x,1/2-y,-z
-x,1/2+y,1/2-z
1/2-x,1/2-y,1/2-z
1/2+x,y,1/2-z
1/2-x,1/2+y,z
x,1/2-y,1/2+z
loop_
_atom_site_type_symbol
_atom_site_label
_atom_site_fract_x
_atom_site_fract_y
_atom_site_fract_z
Si Si1 0.790425 0.169464 0.186016
Si Si2 0.250000 0.210433 0.000000
Si Si3 0.860756 0.111126 0.822145
Si Si4 0.919975 0.400743 0.757781
Si Si5 0.509801 0.829038 0.495161
Si Si6 0.163128 0.034215 0.021568
O O1 0.791129 0.172151 0.369190
O O2 0.714096 0.144825 0.140022
O O3 0.853067 0.119090 0.157280
O O4 0.800250 0.242450 0.106094
O O5 0.854090 0.094943 0.642063
O O6 0.861225 0.035616 0.896365
O O7 0.922601 0.159279 0.883893
O O8 0.980306 0.388283 0.627252
O O9 0.887138 0.457925 0.873274
O O10 0.946355 0.345873 0.882327
O O11 0.500000 0.750000 0.551264
O O12 0.250000 0.031055 0.000000
#
# Coordination Sequence:
#
# PCOD9532691 Si02
#       6
#    16   8  16  16  16  16
#     4  11  23  44  73 115 153 213 264 348 411 484
#     4  10  24  36  68 110 154 200 268 324 408 482
#     4  11  26  49  82 120 164 210 279 340 421 491
#     4  12  27  49  78 114 168 216 277 339 421 490
#     4  12  30  51  77 115 168 227 279 332 416 506
#     4  11  25  49  85 126 161 211 278 356 416 494
#
# _framework density 27.084527999999999
#
# number of rings (size 3 to 8) (size 9 to 14) (size 15 to 20)
#    0.000    0.727    1.818    3.818   11.455    1.455 
#    0.000    0.909    0.000    0.000    0.000    0.000 
#    0.000    0.000    0.000    0.000    0.000    0.000 
#
# Total GULP energy -245680.689124 kJ/mol
# GULP energy per Si atom -5583.652026 kJ/mol
# Density = 2.702288 g / cm^3
# Si number density = 27.084528 Si / 1000 Ang^3
#
#
#
# Elastic Constant Matrix: (Units=GPa)
#
#
# Indices 1 2 3 4 5 6 
#
# 1 131.8980 29.4929 37.5975 0.0000 0.0000 0.0000
# 2 29.4929 80.8147 34.3069 0.0000 0.0000 0.0000
# 3 37.5975 34.3069 163.5330 0.0000 0.0000 0.0000
# 4 0.0000 0.0000 0.0000 -632.4851 0.0000 0.0000
# 5 0.0000 0.0000 0.0000 0.0000 50.8820 0.0000
# 6 0.0000 0.0000 0.0000 0.0000 0.0000 37.8883
#
#
#
# Elastic Compliance Matrix: (Units=1/GPa)
#
#
# Indices 1 2 3 4 5 6 
#
# 1 0.008553 -0.002510 -0.001440 0.000000 0.000000 0.000000
# 2 -0.002510 0.014320 -0.002427 0.000000 0.000000 0.000000
# 3 -0.001440 -0.002427 0.006955 0.000000 0.000000 0.000000
# 4 0.000000 0.000000 0.000000 -0.001581 0.000000 0.000000
# 5 0.000000 0.000000 0.000000 0.000000 0.019653 0.000000
# 6 0.000000 0.000000 0.000000 0.000000 0.000000 0.026393
#
#
# Mechanical properties :
#
#
# Convention : Reuss Voigt Hill
#
# Bulk Modulus (GPa) = 58.56681 64.33782 61.45231
# Shear Modulus (GPa) = 53.91384 -90.41975 -18.25295
#
# Velocity S-wave (km/s) = 4.46643 -5.78418 -2.59882
# Velocity P-wave (km/s) = 6.94761 4.56103 3.70583
#
# Compressibility (1/GPa) = 0.01707452
#
# Stress axis : x y z
#
# Youngs Moduli (GPa) = 116.91319 69.83031 143.77772
#
# Poissons Ratio (x) = 0.17529 0.20702
# Poissons Ratio (y) = 0.29348 0.34896
# Poissons Ratio (z) = 0.16834 0.16948
#
# Static dielectric constant tensor:
#      x y z
#    x 2.108400 0.000000 0.000000 
#    y 0.000000 2.241690 0.000000 
#    z 0.000000 0.000000 2.233780 
# 
# From -- ./inp_files/6309.got.cif
#   From: 2010.05.17/outbox.cif.g08.bks.cpg/sg73_4_cif.got.tgz:6309.got - 2010.06.03 17:35:07.
