data_PCOD9532385
_publ_section_title
;
Structure prediction by ZEFSAII (Michael W. Deem and Ramdas Pophale) SiO2 
 PCOD9532385
Probable space group: I B C A 
;
_chemical_formula_sum "Si O2"
_cell_formula_units_Z 48
_cell_length_a 19.562586
_cell_length_b 8.520490
_cell_length_c 12.487529
_cell_angle_alpha 90.000000
_cell_angle_beta 90.000000
_cell_angle_gamma 90.000000
_cell_volume 2081.456528
_symmetry_space_group_name_H-M "I B C A "
_symmetry_group_IT_number 73
_symmetry_cell_setting 'orthorhombic'
loop_
_space_group_symop_operation_xyz
x,y,z
-x,1/2-y,z
x,-y,1/2-z
1/2-x,y,-z
-x,-y,-z
x,1/2+y,-z
-x,y,1/2+z
1/2+x,-y,z
1/2+x,1/2+y,1/2+z
1/2-x,-y,1/2+z
1/2+x,1/2-y,-z
-x,1/2+y,1/2-z
1/2-x,1/2-y,1/2-z
1/2+x,y,1/2-z
1/2-x,1/2+y,z
x,1/2-y,1/2+z
loop_
_atom_site_type_symbol
_atom_site_label
_atom_site_fract_x
_atom_site_fract_y
_atom_site_fract_z
Si Si1 0.000000 0.750000 0.300812
Si Si2 0.115508 0.042792 0.627778
Si Si3 0.675100 0.356241 0.953281
Si Si4 0.392423 0.000000 0.750000
O O1 0.958965 0.877686 0.369496
O O2 0.942469 0.651031 0.238235
O O3 0.165510 0.178752 0.585725
O O4 0.131752 0.000000 0.750000
O O5 0.123093 0.101904 0.951332
O O6 0.654013 0.464965 0.853001
O O7 0.750000 0.381135 0.000000
#
# Coordination Sequence:
#
# PCOD9532385 Si02
#       4
#     8  16  16   8
#     4  10  22  46  72 112 146 186 250 302 378 434
#     4  11  26  46  73 106 148 196 245 307 365 438
#     4  11  27  46  73 109 150 200 244 302 371 438
#     4  10  24  44  74 108 148 192 244 306 362 440
#
# _framework density 23.060773999999999
#
# number of rings (size 3 to 8) (size 9 to 14) (size 15 to 20)
#    0.000    1.333    1.667    1.000   11.667    8.000 
#    0.000    0.000    0.000    0.000    0.000    0.000 
#    0.000    0.000    0.000    0.000    0.000    0.000 
#
# Total GULP energy -134263.890279 kJ/mol
# GULP energy per Si atom -5594.328762 kJ/mol
# Density = 2.300829 g / cm^3
# Si number density = 23.060774 Si / 1000 Ang^3
#
#
#
# Elastic Constant Matrix: (Units=GPa)
#
#
# Indices 1 2 3 4 5 6 
#
# 1 131.3831 57.5978 60.5191 0.0000 0.0000 0.0000
# 2 57.5978 92.3890 60.6880 0.0000 0.0000 0.0000
# 3 60.5191 60.6880 168.9348 0.0000 0.0000 0.0000
# 4 0.0000 0.0000 0.0000 32.7537 0.0000 0.0000
# 5 0.0000 0.0000 0.0000 0.0000 12.8230 0.0000
# 6 0.0000 0.0000 0.0000 0.0000 0.0000 22.6316
#
#
#
# Elastic Compliance Matrix: (Units=1/GPa)
#
#
# Indices 1 2 3 4 5 6 
#
# 1 0.010930 -0.005552 -0.001921 0.000000 0.000000 0.000000
# 2 -0.005552 0.016987 -0.004113 0.000000 0.000000 0.000000
# 3 -0.001921 -0.004113 0.008085 0.000000 0.000000 0.000000
# 4 0.000000 0.000000 0.000000 0.030531 0.000000 0.000000
# 5 0.000000 0.000000 0.000000 0.000000 0.077985 0.000000
# 6 0.000000 0.000000 0.000000 0.000000 0.000000 0.044186
#
#
# Mechanical properties :
#
#
# Convention : Reuss Voigt Hill
#
# Bulk Modulus (GPa) = 77.94666 83.36852 80.65759
# Shear Modulus (GPa) = 23.13153 27.90180 25.51667
#
# Velocity S-wave (km/s) = 3.17056 3.48217 3.33001
# Velocity P-wave (km/s) = 6.87584 7.23861 7.05956
#
# Compressibility (1/GPa) = 0.01282929
#
# Stress axis : x y z
#
# Youngs Moduli (GPa) = 91.48818 58.86744 123.68065
#
# Poissons Ratio (x) = 0.32686 0.23760
# Poissons Ratio (y) = 0.50798 0.50875
# Poissons Ratio (z) = 0.17575 0.24215
#
# Static dielectric constant tensor:
#      x y z
#    x 1.882670 0.000000 0.000000 
#    y 0.000000 1.912920 0.000000 
#    z 0.000000 0.000000 1.829470 
# 
# From -- ./inp_files/12399.got.cif
#   From: 2010.05.17/outbox.cif.g08.bks.cpg/sg73_7_cif.got.tgz:12399.got - 2010.06.03 17:35:07.
