data_PCOD9532334
_publ_section_title
;
Structure prediction by ZEFSAII (Michael W. Deem and Ramdas Pophale) SiO2 
 PCOD9532334
Probable space group: I B C A 
;
_chemical_formula_sum "Si O2"
_cell_formula_units_Z 56
_cell_length_a 14.861340
_cell_length_b 9.021749
_cell_length_c 14.581753
_cell_angle_alpha 90.000000
_cell_angle_beta 90.000000
_cell_angle_gamma 90.000000
_cell_volume 1955.052606
_symmetry_space_group_name_H-M "I B C A "
_symmetry_group_IT_number 73
_symmetry_cell_setting 'orthorhombic'
loop_
_space_group_symop_operation_xyz
x,y,z
-x,1/2-y,z
x,-y,1/2-z
1/2-x,y,-z
-x,-y,-z
x,1/2+y,-z
-x,y,1/2+z
1/2+x,-y,z
1/2+x,1/2+y,1/2+z
1/2-x,-y,1/2+z
1/2+x,1/2-y,-z
-x,1/2+y,1/2-z
1/2-x,1/2-y,1/2-z
1/2+x,y,1/2-z
1/2-x,1/2+y,z
x,1/2-y,1/2+z
loop_
_atom_site_type_symbol
_atom_site_label
_atom_site_fract_x
_atom_site_fract_y
_atom_site_fract_z
Si Si1 0.380361 0.264361 0.183868
Si Si2 0.597420 0.928569 0.993238
Si Si3 0.697461 0.711399 0.089518
Si Si4 0.479247 0.000000 0.250000
O O1 0.406101 0.189565 0.088026
O O2 0.275483 0.304422 0.165577
O O3 0.446161 0.401739 0.196665
O O4 0.406054 0.137772 0.260897
O O5 0.658621 0.058796 0.949972
O O6 0.623991 0.844439 0.088086
O O7 0.500000 0.000000 0.000000
O O8 0.750000 0.775032 0.000000
#
# Coordination Sequence:
#
# PCOD9532334 Si02
#       4
#    16  16  16   8
#     4  10  24  50  76 114 161 218 291 328 417 499
#     4  11  24  45  85 126 163 205 262 362 437 493
#     4  10  22  44  76 121 160 197 270 351 422 480
#     4  10  24  50  78 104 166 240 274 328 398 526
#
# _framework density 28.643733000000001
#
# number of rings (size 3 to 8) (size 9 to 14) (size 15 to 20)
#    0.000    1.714    0.000    3.429   16.000    0.000 
#   10.286   10.000    0.000    0.000    0.000    0.000 
#    0.000    0.000    0.000    0.000    0.000    0.000 
#
# Total GULP energy -156120.087993 kJ/mol
# GULP energy per Si atom -5575.717428 kJ/mol
# Density = 2.857854 g / cm^3
# Si number density = 28.643733 Si / 1000 Ang^3
#
#
#
# Elastic Constant Matrix: (Units=GPa)
#
#
# Indices 1 2 3 4 5 6 
#
# 1 263.2781 149.2003 51.3748 0.0000 0.0000 0.0000
# 2 149.2003 235.2948 66.8058 0.0000 0.0000 0.0000
# 3 51.3748 66.8058 67.1588 0.0000 0.0000 0.0000
# 4 0.0000 0.0000 0.0000 75.3889 0.0000 0.0000
# 5 0.0000 0.0000 0.0000 0.0000 56.3761 0.0000
# 6 0.0000 0.0000 0.0000 0.0000 0.0000 73.3645
#
#
#
# Elastic Compliance Matrix: (Units=1/GPa)
#
#
# Indices 1 2 3 4 5 6 
#
# 1 0.005989 -0.003479 -0.001120 0.000000 0.000000 0.000000
# 2 -0.003479 0.007944 -0.005241 0.000000 0.000000 0.000000
# 3 -0.001120 -0.005241 0.020960 0.000000 0.000000 0.000000
# 4 0.000000 0.000000 0.000000 0.013265 0.000000 0.000000
# 5 0.000000 0.000000 0.000000 0.000000 0.017738 0.000000
# 6 0.000000 0.000000 0.000000 0.000000 0.000000 0.013631
#
#
# Mechanical properties :
#
#
# Convention : Reuss Voigt Hill
#
# Bulk Modulus (GPa) = 65.73541 122.27706 94.00624
# Shear Modulus (GPa) = 47.94892 60.91595 54.43244
#
# Velocity S-wave (km/s) = 4.09586 4.61659 4.36400
# Velocity P-wave (km/s) = 6.73552 8.43794 7.63433
#
# Compressibility (1/GPa) = 0.01521250
#
# Stress axis : x y z
#
# Youngs Moduli (GPa) = 166.98448 125.87710 47.70937
#
# Poissons Ratio (x) = 0.43797 0.05344
# Poissons Ratio (y) = 0.58100 0.25004
# Poissons Ratio (z) = 0.18703 0.65971
#
# Static dielectric constant tensor:
#      x y z
#    x 2.597850 0.000000 0.000000 
#    y 0.000000 2.335170 0.000000 
#    z 0.000000 0.000000 2.844430 
# 
# From -- ./inp_files/22249.got.cif
#   From: 2010.05.17/outbox.cif.g08.bks.cpg/sg73_12_cif.got.tgz:22249.got - 2010.06.03 17:35:07.
