data_PCOD9532724
_publ_section_title
;
Structure prediction by ZEFSAII (Michael W. Deem and Ramdas Pophale) SiO2 
 PCOD9532724
Probable space group: I B C A 
;
_chemical_formula_sum "Si O2"
_cell_formula_units_Z 120
_cell_length_a 22.072238
_cell_length_b 19.342776
_cell_length_c 12.654856
_cell_angle_alpha 90.000000
_cell_angle_beta 90.000000
_cell_angle_gamma 90.000000
_cell_volume 5402.843409
_symmetry_space_group_name_H-M "I B C A "
_symmetry_group_IT_number 73
_symmetry_cell_setting 'orthorhombic'
loop_
_space_group_symop_operation_xyz
x,y,z
-x,1/2-y,z
x,-y,1/2-z
1/2-x,y,-z
-x,-y,-z
x,1/2+y,-z
-x,y,1/2+z
1/2+x,-y,z
1/2+x,1/2+y,1/2+z
1/2-x,-y,1/2+z
1/2+x,1/2-y,-z
-x,1/2+y,1/2-z
1/2-x,1/2-y,1/2-z
1/2+x,y,1/2-z
1/2-x,1/2+y,z
x,1/2-y,1/2+z
loop_
_atom_site_type_symbol
_atom_site_label
_atom_site_fract_x
_atom_site_fract_y
_atom_site_fract_z
Si Si1 0.496150 0.950945 0.340247
Si Si2 0.603337 0.253439 0.571621
Si Si3 0.796100 0.687308 0.716673
Si Si4 0.402408 0.010577 0.496118
Si Si5 0.529633 0.682614 0.753637
Si Si6 0.617762 0.857939 0.074940
Si Si7 0.683415 0.865166 0.551906
Si Si8 0.750000 0.350269 0.000000
O O1 0.437101 0.985190 0.391202
O O2 0.484517 0.879771 0.278725
O O3 0.522264 0.000000 0.250000
O O4 0.546993 0.950823 0.432072
O O5 0.647056 0.225743 0.664581
O O6 0.552776 0.294579 0.632679
O O7 0.579221 0.187302 0.507658
O O8 0.640110 0.306564 0.497882
O O9 0.750000 0.750000 0.750000
O O10 0.810527 0.647182 0.823406
O O11 0.775773 0.635686 0.620498
O O12 0.381695 0.939213 0.551465
O O13 0.347198 0.061547 0.474164
O O14 0.500000 0.750000 0.701731
O O15 0.586691 0.655690 0.686490
O O16 0.684502 0.827740 0.049309
O O17 0.750000 0.858550 0.500000
#
# Coordination Sequence:
#
# PCOD9532724 Si02
#       8
#    16  16  16  16  16  16  16   8
#     4  11  24  48  73  95 144 198 234 311 390 443
#     4  11  23  42  67 106 146 179 246 312 375 447
#     4  11  20  41  66 101 143 194 231 296 374 451
#     4  11  26  46  71 103 143 192 255 301 379 464
#     4  12  25  43  73 108 140 193 255 317 379 451
#     4  11  25  44  70 104 144 196 240 310 379 458
#     4  12  25  42  75 110 145 197 253 309 381 462
#     4  10  24  40  66  98 148 190 240 298 380 440
#
# _framework density 22.210528
#
# number of rings (size 3 to 8) (size 9 to 14) (size 15 to 20)
#    0.000    0.800    4.000    4.000    1.867    5.867 
#    0.000    0.000    0.000    0.000    0.000    0.000 
#    0.000    0.000    0.000    0.000    0.000    0.000 
#
# Total GULP energy -334393.884889 kJ/mol
# GULP energy per Si atom -5573.231415 kJ/mol
# Density = 2.215998 g / cm^3
# Si number density = 22.210528 Si / 1000 Ang^3
#
#
#
# Elastic Constant Matrix: (Units=GPa)
#
#
# Indices 1 2 3 4 5 6 
#
# 1 51.0571 12.3301 28.3585 0.0000 0.0000 0.0000
# 2 12.3301 129.3134 34.0225 0.0000 0.0000 0.0000
# 3 28.3585 34.0225 131.8173 0.0000 0.0000 0.0000
# 4 0.0000 0.0000 0.0000 10.5047 0.0000 0.0000
# 5 0.0000 0.0000 0.0000 0.0000 30.1301 0.0000
# 6 0.0000 0.0000 0.0000 0.0000 0.0000 12.7078
#
#
#
# Elastic Compliance Matrix: (Units=1/GPa)
#
#
# Indices 1 2 3 4 5 6 
#
# 1 0.022347 -0.000929 -0.004568 0.000000 0.000000 0.000000
# 2 -0.000929 0.008335 -0.001951 0.000000 0.000000 0.000000
# 3 -0.004568 -0.001951 0.009073 0.000000 0.000000 0.000000
# 4 0.000000 0.000000 0.000000 0.095196 0.000000 0.000000
# 5 0.000000 0.000000 0.000000 0.000000 0.033189 0.000000
# 6 0.000000 0.000000 0.000000 0.000000 0.000000 0.078692
#
#
# Mechanical properties :
#
#
# Convention : Reuss Voigt Hill
#
# Bulk Modulus (GPa) = 40.22781 51.29002 45.75891
# Shear Modulus (GPa) = 18.51746 26.50028 22.50887
#
# Velocity S-wave (km/s) = 2.89056 3.45793 3.18690
# Velocity P-wave (km/s) = 5.41219 6.25187 5.84712
#
# Compressibility (1/GPa) = 0.02485843
#
# Stress axis : x y z
#
# Youngs Moduli (GPa) = 44.74785 119.97357 110.22123
#
# Poissons Ratio (x) = 0.11146 0.50348
# Poissons Ratio (y) = 0.04157 0.21509
# Poissons Ratio (z) = 0.20441 0.23413
#
# Static dielectric constant tensor:
#      x y z
#    x 1.872350 0.000000 0.000000 
#    y 0.000000 1.865610 0.000000 
#    z 0.000000 0.000000 1.807840 
# 
# From -- ./inp_files/14348.got.cif
#   From: 2010.05.17/outbox.cif.g08.bks.cpg/sg73_8_cif.got.tgz:14348.got - 2010.06.03 17:35:07.
