data_PCOD9532295
_publ_section_title
;
Structure prediction by ZEFSAII (Michael W. Deem and Ramdas Pophale) SiO2 
 PCOD9532295
Probable space group: I B C A 
;
_chemical_formula_sum "Si O2"
_cell_formula_units_Z 96
_cell_length_a 13.975142
_cell_length_b 13.842871
_cell_length_c 21.460333
_cell_angle_alpha 90.000000
_cell_angle_beta 90.000000
_cell_angle_gamma 90.000000
_cell_volume 4151.632067
_symmetry_space_group_name_H-M "I B C A "
_symmetry_group_IT_number 73
_symmetry_cell_setting 'orthorhombic'
loop_
_space_group_symop_operation_xyz
x,y,z
-x,1/2-y,z
x,-y,1/2-z
1/2-x,y,-z
-x,-y,-z
x,1/2+y,-z
-x,y,1/2+z
1/2+x,-y,z
1/2+x,1/2+y,1/2+z
1/2-x,-y,1/2+z
1/2+x,1/2-y,-z
-x,1/2+y,1/2-z
1/2-x,1/2-y,1/2-z
1/2+x,y,1/2-z
1/2-x,1/2+y,z
x,1/2-y,1/2+z
loop_
_atom_site_type_symbol
_atom_site_label
_atom_site_fract_x
_atom_site_fract_y
_atom_site_fract_z
Si Si1 0.992005 0.594412 0.292064
Si Si2 0.350120 0.343163 0.614966
Si Si3 0.637023 0.228959 0.749404
Si Si4 0.863601 0.892769 0.908169
Si Si5 0.862090 0.768351 0.497492
Si Si6 0.608992 0.011805 0.979076
O O1 0.002942 0.500000 0.250000
O O2 0.920407 0.671892 0.259574
O O3 0.938639 0.572603 0.357008
O O4 0.092371 0.652416 0.298780
O O5 0.386966 0.320872 0.683320
O O6 0.234093 0.350628 0.620763
O O7 0.387700 0.258979 0.568348
O O8 0.376573 0.443142 0.580395
O O9 0.750000 0.250000 0.750000
O O10 0.907986 0.807521 0.950220
O O11 0.835919 0.972941 0.959287
O O12 0.750000 0.741894 0.500000
O O13 0.870311 0.875916 0.473584
O O14 0.500000 0.000000 0.000000
#
# Coordination Sequence:
#
# PCOD9532295 Si02
#       6
#    16  16  16  16  16  16
#     4  11  27  46  73 106 144 190 251 308 370 449
#     4  10  22  44  69  98 141 185 240 302 360 453
#     4  11  25  49  71 104 144 196 250 306 377 441
#     4  10  22  45  67  99 141 180 239 296 360 443
#     4   9  20  41  69  96 132 182 227 292 369 431
#     4  11  24  37  66 108 139 181 236 299 377 430
#
# _framework density 23.123436999999999
#
# number of rings (size 3 to 8) (size 9 to 14) (size 15 to 20)
#    0.000    1.667    1.667    2.500    4.667    7.333 
#    0.000    0.000    0.000    0.000    0.000    0.000 
#    0.000    0.000    0.000    0.000    0.000    0.000 
#
# Total GULP energy -268236.684270 kJ/mol
# GULP energy per Si atom -5588.264256 kJ/mol
# Density = 2.307081 g / cm^3
# Si number density = 23.123437 Si / 1000 Ang^3
#
#
#
# Elastic Constant Matrix: (Units=GPa)
#
#
# Indices 1 2 3 4 5 6 
#
# 1 105.9107 3.2536 11.3575 0.0000 0.0000 0.0000
# 2 3.2536 135.0801 37.9681 0.0000 0.0000 0.0000
# 3 11.3575 37.9681 105.1730 0.0000 0.0000 0.0000
# 4 0.0000 0.0000 0.0000 23.4500 0.0000 0.0000
# 5 0.0000 0.0000 0.0000 0.0000 26.1654 0.0000
# 6 0.0000 0.0000 0.0000 0.0000 0.0000 26.7895
#
#
#
# Elastic Compliance Matrix: (Units=1/GPa)
#
#
# Indices 1 2 3 4 5 6 
#
# 1 0.009553 0.000067 -0.001056 0.000000 0.000000 0.000000
# 2 0.000067 0.008240 -0.002982 0.000000 0.000000 0.000000
# 3 -0.001056 -0.002982 0.010699 0.000000 0.000000 0.000000
# 4 0.000000 0.000000 0.000000 0.042644 0.000000 0.000000
# 5 0.000000 0.000000 0.000000 0.000000 0.038218 0.000000
# 6 0.000000 0.000000 0.000000 0.000000 0.000000 0.037328
#
#
# Mechanical properties :
#
#
# Convention : Reuss Voigt Hill
#
# Bulk Modulus (GPa) = 48.66268 50.14691 49.40480
# Shear Modulus (GPa) = 30.96495 34.85329 32.90912
#
# Velocity S-wave (km/s) = 3.66336 3.88657 3.77662
# Velocity P-wave (km/s) = 6.24372 6.47103 6.35839
#
# Compressibility (1/GPa) = 0.02054963
#
# Stress axis : x y z
#
# Youngs Moduli (GPa) = 104.67827 121.36654 93.47052
#
# Poissons Ratio (x) = -0.00809 0.09868
# Poissons Ratio (y) = -0.00697 0.27870
# Poissons Ratio (z) = 0.11051 0.36188
#
# Static dielectric constant tensor:
#      x y z
#    x 1.917970 0.000000 0.000000 
#    y 0.000000 1.866540 0.000000 
#    z 0.000000 0.000000 1.928930 
# 
# From -- ./inp_files/26012.got.cif
#   From: 2010.05.17/outbox.cif.g08.bks.cpg/sg73_14_cif.got.tgz:26012.got - 2010.06.03 17:35:07.
