data_PCOD9532539
_publ_section_title
;
Structure prediction by ZEFSAII (Michael W. Deem and Ramdas Pophale) SiO2 
 PCOD9532539
Probable space group: I B C A 
;
_chemical_formula_sum "Si O2"
_cell_formula_units_Z 72
_cell_length_a 9.572872
_cell_length_b 23.077996
_cell_length_c 14.104166
_cell_angle_alpha 90.000000
_cell_angle_beta 90.000000
_cell_angle_gamma 90.000000
_cell_volume 3115.930458
_symmetry_space_group_name_H-M "I B C A "
_symmetry_group_IT_number 73
_symmetry_cell_setting 'orthorhombic'
loop_
_space_group_symop_operation_xyz
x,y,z
-x,1/2-y,z
x,-y,1/2-z
1/2-x,y,-z
-x,-y,-z
x,1/2+y,-z
-x,y,1/2+z
1/2+x,-y,z
1/2+x,1/2+y,1/2+z
1/2-x,-y,1/2+z
1/2+x,1/2-y,-z
-x,1/2+y,1/2-z
1/2-x,1/2-y,1/2-z
1/2+x,y,1/2-z
1/2-x,1/2+y,z
x,1/2-y,1/2+z
loop_
_atom_site_type_symbol
_atom_site_label
_atom_site_fract_x
_atom_site_fract_y
_atom_site_fract_z
Si Si1 0.775288 0.500000 0.750000
Si Si2 0.492722 0.316086 0.657679
Si Si3 0.718690 0.130496 0.267221
Si Si4 0.394802 0.540917 0.555221
Si Si5 0.395826 0.357335 0.461079
O O1 0.697445 0.560873 0.727450
O O2 0.865247 0.484508 0.658317
O O3 0.500000 0.250000 0.689665
O O4 0.380547 0.353391 0.718404
O O5 0.642358 0.346129 0.674132
O O6 0.440987 0.317377 0.548602
O O7 0.647340 0.163256 0.356809
O O8 0.250000 0.544868 0.500000
O O9 0.500000 0.500000 0.500000
O O10 0.475012 0.601058 0.556505
O O11 0.250000 0.386505 0.500000
#
# Coordination Sequence:
#
# PCOD9532539 Si02
#       5
#     8  16  16  16  16
#     4  12  26  44  70 102 144 182 222 282 354 420
#     4  11  24  45  71  99 135 181 233 286 344 407
#     4  11  24  44  69 102 138 180 229 285 347 419
#     4  12  24  40  64  95 134 181 228 278 342 419
#     4  10  23  43  63  92 133 174 225 283 337 400
#
# _framework density 23.107063
#
# number of rings (size 3 to 8) (size 9 to 14) (size 15 to 20)
#    0.000    0.889    0.000    8.000    0.000    7.111 
#    0.000   12.222    0.000    0.000    0.000    0.000 
#    0.000    0.000    0.000    0.000    0.000    0.000 
#
# Total GULP energy -201238.786697 kJ/mol
# GULP energy per Si atom -5589.966297 kJ/mol
# Density = 2.305447 g / cm^3
# Si number density = 23.107063 Si / 1000 Ang^3
#
#
#
# Elastic Constant Matrix: (Units=GPa)
#
#
# Indices 1 2 3 4 5 6 
#
# 1 85.8999 17.4979 38.9612 0.0000 0.0000 0.0000
# 2 17.4979 104.3310 8.5638 0.0001 0.0000 0.0000
# 3 38.9612 8.5638 120.7930 0.0000 0.0001 0.0000
# 4 0.0000 0.0001 0.0000 24.6670 0.0000 0.0000
# 5 0.0000 0.0000 0.0001 0.0000 37.7633 0.0000
# 6 0.0000 0.0000 0.0000 0.0000 0.0000 15.8940
#
#
#
# Elastic Compliance Matrix: (Units=1/GPa)
#
#
# Indices 1 2 3 4 5 6 
#
# 1 0.014037 -0.001994 -0.004386 0.000000 0.000000 0.000000
# 2 -0.001994 0.009924 -0.000060 0.000000 0.000000 0.000000
# 3 -0.004386 -0.000060 0.009698 0.000000 0.000000 0.000000
# 4 0.000000 0.000000 0.000000 0.040540 0.000000 0.000000
# 5 0.000000 0.000000 0.000000 0.000000 0.026481 0.000000
# 6 0.000000 0.000000 0.000000 0.000000 0.000000 0.062917
#
#
# Mechanical properties :
#
#
# Convention : Reuss Voigt Hill
#
# Bulk Modulus (GPa) = 48.12906 49.00774 48.56840
# Shear Modulus (GPa) = 27.26223 32.06494 29.66359
#
# Velocity S-wave (km/s) = 3.43858 3.72918 3.58683
# Velocity P-wave (km/s) = 6.05302 6.30852 6.18209
#
# Compressibility (1/GPa) = 0.02077747
#
# Stress axis : x y z
#
# Youngs Moduli (GPa) = 71.23972 100.76285 103.11767
#
# Poissons Ratio (x) = 0.20094 0.45230
# Poissons Ratio (y) = 0.14207 0.00623
# Poissons Ratio (z) = 0.31247 0.00608
#
# Static dielectric constant tensor:
#      x y z
#    x 1.715580 0.000000 0.000000 
#    y 0.000000 3.607070 0.000000 
#    z 0.000000 0.000000 1.874010 
# 
# From -- ./inp_files/15518.got.cif
#   From: 2010.05.17/outbox.cif.g08.bks.cpg/sg73_8_cif.got.tgz:15518.got - 2010.06.03 17:35:07.
