data_PCOD9532188
_publ_section_title
;
Structure prediction by ZEFSAII (Michael W. Deem and Ramdas Pophale) SiO2 
 PCOD9532188
Probable space group: I B C A 
;
_chemical_formula_sum "Si O2"
_cell_formula_units_Z 120
_cell_length_a 11.945556
_cell_length_b 18.514359
_cell_length_c 24.201982
_cell_angle_alpha 90.000000
_cell_angle_beta 90.000000
_cell_angle_gamma 90.000000
_cell_volume 5352.614704
_symmetry_space_group_name_H-M "I B C A "
_symmetry_group_IT_number 73
_symmetry_cell_setting 'orthorhombic'
loop_
_space_group_symop_operation_xyz
x,y,z
-x,1/2-y,z
x,-y,1/2-z
1/2-x,y,-z
-x,-y,-z
x,1/2+y,-z
-x,y,1/2+z
1/2+x,-y,z
1/2+x,1/2+y,1/2+z
1/2-x,-y,1/2+z
1/2+x,1/2-y,-z
-x,1/2+y,1/2-z
1/2-x,1/2-y,1/2-z
1/2+x,y,1/2-z
1/2-x,1/2+y,z
x,1/2-y,1/2+z
loop_
_atom_site_type_symbol
_atom_site_label
_atom_site_fract_x
_atom_site_fract_y
_atom_site_fract_z
Si Si1 0.972230 0.516290 0.685279
Si Si2 0.792041 0.420862 0.632714
Si Si3 0.405598 0.502098 0.418490
Si Si4 0.913139 0.806159 0.436223
Si Si5 0.561158 0.893012 0.984586
Si Si6 0.992781 0.163626 0.275722
Si Si7 0.239349 0.833738 0.236018
Si Si8 0.250000 0.708669 0.000000
O O1 0.990878 0.500000 0.750000
O O2 0.852448 0.484909 0.666539
O O3 0.988790 0.602267 0.677183
O O4 0.731582 0.634142 0.825554
O O5 0.708338 0.453551 0.587746
O O6 0.883087 0.372322 0.602151
O O7 0.061297 0.480559 0.643711
O O8 0.396096 0.438300 0.462273
O O9 0.506389 0.551734 0.442141
O O10 0.809063 0.759035 0.455298
O O11 0.000000 0.750000 0.409757
O O12 0.967263 0.839462 0.491400
O O13 0.662524 0.842159 0.967910
O O14 0.869551 0.145210 0.250125
O O15 0.000000 0.250000 0.289293
O O16 0.111149 0.148813 0.242982
O O17 0.250000 0.750000 0.250000
#
# Coordination Sequence:
#
# PCOD9532188 Si02
#       8
#    16  16  16  16  16  16  16   8
#     4  12  25  45  69 104 149 190 245 304 367 440
#     4  12  24  43  70 105 140 198 246 304 373 447
#     4  11  25  43  72 103 142 185 242 305 375 439
#     4  10  22  43  65 100 142 182 233 298 374 441
#     4  10  23  45  70 103 140 181 242 307 372 448
#     4  10  22  45  68  97 138 194 249 304 370 437
#     4  10  22  43  67  96 140 194 245 307 366 435
#     4  10  22  42  70 100 142 184 230 304 370 454
#
# _framework density 22.418949999999999
#
# number of rings (size 3 to 8) (size 9 to 14) (size 15 to 20)
#    0.000    1.333    4.000    0.800    1.867    3.200 
#    4.800    0.667    0.000    0.000    0.000    0.000 
#    0.000    0.000    0.000    0.000    0.000    0.000 
#
# Total GULP energy -334187.182763 kJ/mol
# GULP energy per Si atom -5569.786379 kJ/mol
# Density = 2.236792 g / cm^3
# Si number density = 22.418950 Si / 1000 Ang^3
#
#
#
# Elastic Constant Matrix: (Units=GPa)
#
#
# Indices 1 2 3 4 5 6 
#
# 1 137.3954 46.0270 34.2347 0.0000 0.0000 0.0000
# 2 46.0270 116.5343 32.8378 0.0000 0.0000 0.0000
# 3 34.2347 32.8378 63.2945 0.0000 0.0000 0.0000
# 4 0.0000 0.0000 0.0000 30.9827 0.0000 0.0000
# 5 0.0000 0.0000 0.0000 0.0000 15.6698 0.0000
# 6 0.0000 0.0000 0.0000 0.0000 0.0000 20.1273
#
#
#
# Elastic Compliance Matrix: (Units=1/GPa)
#
#
# Indices 1 2 3 4 5 6 
#
# 1 0.009021 -0.002563 -0.003550 0.000000 0.000000 0.000000
# 2 -0.002563 0.010779 -0.004206 0.000000 0.000000 0.000000
# 3 -0.003550 -0.004206 0.019901 0.000000 0.000000 0.000000
# 4 0.000000 0.000000 0.000000 0.032276 0.000000 0.000000
# 5 0.000000 0.000000 0.000000 0.000000 0.063817 0.000000
# 6 0.000000 0.000000 0.000000 0.000000 0.000000 0.049684
#
#
# Mechanical properties :
#
#
# Convention : Reuss Voigt Hill
#
# Bulk Modulus (GPa) = 52.45460 60.38035 56.41747
# Shear Modulus (GPa) = 23.53282 26.96431 25.24856
#
# Velocity S-wave (km/s) = 3.24340 3.47183 3.35955
# Velocity P-wave (km/s) = 6.12163 6.56221 6.34575
#
# Compressibility (1/GPa) = 0.01906411
#
# Stress axis : x y z
#
# Youngs Moduli (GPa) = 110.84881 92.77703 50.24824
#
# Poissons Ratio (x) = 0.23777 0.17837
# Poissons Ratio (y) = 0.28408 0.21134
# Poissons Ratio (z) = 0.39349 0.39020
#
# Static dielectric constant tensor:
#      x y z
#    x 1.902110 0.000000 0.000000 
#    y 0.000000 1.812680 0.000000 
#    z 0.000000 0.000000 1.840760 
# 
# From -- ./inp_files/34126.got.cif
#   From: 2010.05.17/outbox.cif.g08.bks.cpg/sg73_18_cif.got.tgz:34126.got - 2010.06.03 17:35:07.
