data_PCOD9532838
_publ_section_title
;
Structure prediction by ZEFSAII (Michael W. Deem and Ramdas Pophale) SiO2 
 PCOD9532838
Probable space group: I B C A 
;
_chemical_formula_sum "Si O2"
_cell_formula_units_Z 72
_cell_length_a 9.206766
_cell_length_b 20.777076
_cell_length_c 16.125482
_cell_angle_alpha 90.000000
_cell_angle_beta 90.000000
_cell_angle_gamma 90.000000
_cell_volume 3084.638242
_symmetry_space_group_name_H-M "I B C A "
_symmetry_group_IT_number 73
_symmetry_cell_setting 'orthorhombic'
loop_
_space_group_symop_operation_xyz
x,y,z
-x,1/2-y,z
x,-y,1/2-z
1/2-x,y,-z
-x,-y,-z
x,1/2+y,-z
-x,y,1/2+z
1/2+x,-y,z
1/2+x,1/2+y,1/2+z
1/2-x,-y,1/2+z
1/2+x,1/2-y,-z
-x,1/2+y,1/2-z
1/2-x,1/2-y,1/2-z
1/2+x,y,1/2-z
1/2-x,1/2+y,z
x,1/2-y,1/2+z
loop_
_atom_site_type_symbol
_atom_site_label
_atom_site_fract_x
_atom_site_fract_y
_atom_site_fract_z
Si Si1 0.000000 0.250000 0.809481
Si Si2 0.690722 0.340143 0.591797
Si Si3 0.180718 0.933739 0.409604
Si Si4 0.991779 0.948538 0.147729
Si Si5 0.970294 0.371638 0.692817
O O1 0.866797 0.224962 0.865520
O O2 0.038281 0.190792 0.750187
O O3 0.750000 0.330416 0.500000
O O4 0.554006 0.388389 0.594878
O O5 0.816606 0.374622 0.646218
O O6 0.250000 0.928251 0.500000
O O7 0.319193 0.952040 0.355170
O O8 0.097711 0.871177 0.375429
O O9 0.063960 0.990467 0.396647
O O10 0.017423 0.928399 0.243512
#
# Coordination Sequence:
#
# PCOD9532838 Si02
#       5
#     8  16  16  16  16
#     4  10  24  44  68  96 132 180 234 288 346 422
#     4  11  23  43  68  98 135 179 233 296 351 410
#     4  12  24  41  68 102 137 175 223 284 345 414
#     4  11  23  41  65  98 136 178 223 276 347 424
#     4  11  24  44  67  95 134 181 229 282 349 424
#
# _framework density 23.341470999999999
#
# number of rings (size 3 to 8) (size 9 to 14) (size 15 to 20)
#    0.000    0.889    0.000    8.000    0.000    4.444 
#    0.000    5.556    0.000    0.000    0.000    1.556 
#    0.000    0.000    0.000    0.000    0.000    0.000 
#
# Total GULP energy -201318.164893 kJ/mol
# GULP energy per Si atom -5592.171247 kJ/mol
# Density = 2.328835 g / cm^3
# Si number density = 23.341471 Si / 1000 Ang^3
#
#
#
# Elastic Constant Matrix: (Units=GPa)
#
#
# Indices 1 2 3 4 5 6 
#
# 1 142.1099 26.3028 32.8607 0.0000 0.0000 0.0000
# 2 26.3028 81.4967 44.9740 0.0000 0.0000 0.0000
# 3 32.8607 44.9740 128.8987 0.0000 0.0000 0.0000
# 4 0.0000 0.0000 0.0000 25.5930 0.0000 0.0000
# 5 0.0000 0.0000 0.0000 0.0000 -29.1181 0.0000
# 6 0.0000 0.0000 0.0000 0.0000 0.0000 41.7754
#
#
#
# Elastic Compliance Matrix: (Units=1/GPa)
#
#
# Indices 1 2 3 4 5 6 
#
# 1 0.007669 -0.001729 -0.001352 0.000000 0.000000 0.000000
# 2 -0.001729 0.015586 -0.004997 0.000000 0.000000 0.000000
# 3 -0.001352 -0.004997 0.009846 0.000000 0.000000 0.000000
# 4 0.000000 0.000000 0.000000 0.039073 0.000000 0.000000
# 5 0.000000 0.000000 0.000000 0.000000 -0.034343 0.000000
# 6 0.000000 0.000000 0.000000 0.000000 0.000000 0.023938
#
#
# Mechanical properties :
#
#
# Convention : Reuss Voigt Hill
#
# Bulk Modulus (GPa) = 59.01405 62.30890 60.66148
# Shear Modulus (GPa) = 59.82635 24.20793 42.01714
#
# Velocity S-wave (km/s) = 5.06819 3.22393 4.24737
# Velocity P-wave (km/s) = 7.71923 6.37266 7.07804
#
# Compressibility (1/GPa) = 0.01694512
#
# Stress axis : x y z
#
# Youngs Moduli (GPa) = 130.38710 64.15870 101.56105
#
# Poissons Ratio (x) = 0.11095 0.13730
# Poissons Ratio (y) = 0.22548 0.50754
# Poissons Ratio (z) = 0.17626 0.32063
#
# Static dielectric constant tensor:
#      x y z
#    x 1.849780 0.000000 0.000000 
#    y 0.000000 1.967880 0.000000 
#    z 0.000000 0.000000 1.918600 
# 
# From -- ./inp_files/5320.got.cif
#   From: 2010.05.17/outbox.cif.g08.bks.cpg/sg73_3_cif.got.tgz:5320.got - 2010.06.03 17:35:07.
