data_PCOD9532290
_publ_section_title
;
Structure prediction by ZEFSAII (Michael W. Deem and Ramdas Pophale) SiO2 
 PCOD9532290
Probable space group: I B C A 
;
_chemical_formula_sum "Si O2"
_cell_formula_units_Z 96
_cell_length_a 23.063271
_cell_length_b 8.418338
_cell_length_c 24.027187
_cell_angle_alpha 90.000000
_cell_angle_beta 90.000000
_cell_angle_gamma 90.000000
_cell_volume 4664.984332
_symmetry_space_group_name_H-M "I B C A "
_symmetry_group_IT_number 73
_symmetry_cell_setting 'orthorhombic'
loop_
_space_group_symop_operation_xyz
x,y,z
-x,1/2-y,z
x,-y,1/2-z
1/2-x,y,-z
-x,-y,-z
x,1/2+y,-z
-x,y,1/2+z
1/2+x,-y,z
1/2+x,1/2+y,1/2+z
1/2-x,-y,1/2+z
1/2+x,1/2-y,-z
-x,1/2+y,1/2-z
1/2-x,1/2-y,1/2-z
1/2+x,y,1/2-z
1/2-x,1/2+y,z
x,1/2-y,1/2+z
loop_
_atom_site_type_symbol
_atom_site_label
_atom_site_fract_x
_atom_site_fract_y
_atom_site_fract_z
Si Si1 0.746236 0.166085 0.627774
Si Si2 0.545737 0.604961 0.194805
Si Si3 0.181708 0.597430 0.306759
Si Si4 0.532284 0.014025 0.573670
Si Si5 0.423519 0.832710 0.980101
Si Si6 0.798281 0.062660 0.952104
O O1 0.777009 0.253181 0.679647
O O2 0.714773 0.293906 0.589764
O O3 0.700901 0.030849 0.646307
O O4 0.794662 0.090416 0.587397
O O5 0.500000 0.750000 0.194222
O O6 0.536677 0.500000 0.250000
O O7 0.614377 0.649037 0.192985
O O8 0.536622 0.501702 0.139207
O O9 0.191837 0.500000 0.250000
O O10 0.467177 0.056922 0.555473
O O11 0.569201 0.159348 0.546846
O O12 0.553914 0.854944 0.542985
O O13 0.359673 0.900255 0.978010
O O14 0.750000 0.049222 0.000000
#
# Coordination Sequence:
#
# PCOD9532290 Si02
#       6
#    16  16  16  16  16  16
#     4  10  23  40  63  97 128 176 216 270 331 390
#     4  11  27  46  70  98 135 178 227 283 338 399
#     4  10  22  44  68  95 128 170 222 280 328 390
#     4  10  24  43  67  97 130 176 222 276 328 399
#     4  10  24  40  66  95 133 174 219 269 334 398
#     4  11  24  37  60  95 135 173 213 263 327 397
#
# _framework density 20.578847
#
# number of rings (size 3 to 8) (size 9 to 14) (size 15 to 20)
#    0.000    1.667    0.000    2.000   18.667    0.000 
#    0.000    0.833    0.000    0.000    0.000    0.000 
#    0.000    0.000    0.000    0.000    0.000    0.000 
#
# Total GULP energy -268063.470721 kJ/mol
# GULP energy per Si atom -5584.655640 kJ/mol
# Density = 2.053201 g / cm^3
# Si number density = 20.578847 Si / 1000 Ang^3
#
#
#
# Elastic Constant Matrix: (Units=GPa)
#
#
# Indices 1 2 3 4 5 6 
#
# 1 137.6281 48.6992 41.4906 0.0000 0.0000 0.0000
# 2 48.6992 59.6175 19.1796 0.0000 0.0000 0.0000
# 3 41.4906 19.1796 124.2435 0.0000 0.0000 0.0000
# 4 0.0000 0.0000 0.0000 18.8713 0.0000 0.0000
# 5 0.0000 0.0000 0.0000 0.0000 15.2731 0.0000
# 6 0.0000 0.0000 0.0000 0.0000 0.0000 20.7965
#
#
#
# Elastic Compliance Matrix: (Units=1/GPa)
#
#
# Indices 1 2 3 4 5 6 
#
# 1 0.010846 -0.008097 -0.002372 0.000000 0.000000 0.000000
# 2 -0.008097 0.023694 -0.000954 0.000000 0.000000 0.000000
# 3 -0.002372 -0.000954 0.008988 0.000000 0.000000 0.000000
# 4 0.000000 0.000000 0.000000 0.052991 0.000000 0.000000
# 5 0.000000 0.000000 0.000000 0.000000 0.065475 0.000000
# 6 0.000000 0.000000 0.000000 0.000000 0.000000 0.048085
#
#
# Mechanical properties :
#
#
# Convention : Reuss Voigt Hill
#
# Bulk Modulus (GPa) = 48.34828 60.02532 54.18680
# Shear Modulus (GPa) = 20.84914 25.12950 22.98932
#
# Velocity S-wave (km/s) = 3.18643 3.49826 3.34598
# Velocity P-wave (km/s) = 6.08958 6.74899 6.42775
#
# Compressibility (1/GPa) = 0.02068326
#
# Stress axis : x y z
#
# Youngs Moduli (GPa) = 92.19975 42.20434 111.25805
#
# Poissons Ratio (x) = 0.34171 0.26392
# Poissons Ratio (y) = 0.74650 0.10613
# Poissons Ratio (z) = 0.21871 0.04026
#
# Static dielectric constant tensor:
#      x y z
#    x 1.727530 0.000000 0.000000 
#    y 0.000000 1.853200 0.000000 
#    z 0.000000 0.000000 1.738120 
# 
# From -- ./inp_files/30293.got.cif
#   From: 2010.05.17/outbox.cif.g08.bks.cpg/sg73_16_cif.got.tgz:30293.got - 2010.06.03 17:35:07.
