data_PCOD9532980
_publ_section_title
;
Structure prediction by ZEFSAII (Michael W. Deem and Ramdas Pophale) SiO2 
 PCOD9532980
Probable space group: I B C A 
;
_chemical_formula_sum "Si O2"
_cell_formula_units_Z 72
_cell_length_a 25.398541
_cell_length_b 8.102601
_cell_length_c 13.900818
_cell_angle_alpha 90.000000
_cell_angle_beta 90.000000
_cell_angle_gamma 90.000000
_cell_volume 2860.708327
_symmetry_space_group_name_H-M "I B C A "
_symmetry_group_IT_number 73
_symmetry_cell_setting 'orthorhombic'
loop_
_space_group_symop_operation_xyz
x,y,z
-x,1/2-y,z
x,-y,1/2-z
1/2-x,y,-z
-x,-y,-z
x,1/2+y,-z
-x,y,1/2+z
1/2+x,-y,z
1/2+x,1/2+y,1/2+z
1/2-x,-y,1/2+z
1/2+x,1/2-y,-z
-x,1/2+y,1/2-z
1/2-x,1/2-y,1/2-z
1/2+x,y,1/2-z
1/2-x,1/2+y,z
x,1/2-y,1/2+z
loop_
_atom_site_type_symbol
_atom_site_label
_atom_site_fract_x
_atom_site_fract_y
_atom_site_fract_z
Si Si1 0.419922 0.447507 0.413907
Si Si2 0.308712 0.271443 0.386263
Si Si3 0.416666 0.165567 0.125942
Si Si4 0.828274 0.500000 0.750000
Si Si5 0.750000 0.473259 0.500000
Si Si6 0.000000 0.750000 0.781911
O O1 0.366727 0.346600 0.388817
O O2 0.409873 0.639405 0.393542
O O3 0.432880 0.418242 0.525884
O O4 0.465894 0.371337 0.348642
O O5 0.300039 0.159752 0.293249
O O6 0.298577 0.143283 0.473374
O O7 0.267210 0.414513 0.410501
O O8 0.365458 0.072657 0.165616
O O9 0.459464 0.162142 0.209947
#
# Coordination Sequence:
#
# PCOD9532980 Si02
#       6
#    16  16  16   8   8   8
#     4  12  27  50  77 111 160 200 247 312 382 441
#     4  11  24  46  75 109 149 194 246 314 374 451
#     4  12  28  46  76 110 156 203 252 304 369 454
#     4  12  26  46  74 110 148 198 258 306 378 444
#     4  10  24  48  76 106 144 196 252 308 386 448
#     4  12  28  46  76 116 150 200 256 302 364 464
#
# _framework density 25.168592
#
# number of rings (size 3 to 8) (size 9 to 14) (size 15 to 20)
#    0.000    0.444    2.222    5.333    3.111    4.444 
#    0.000    0.000    0.000    0.000    0.000    0.000 
#    0.000    0.000    0.000    0.000    0.000    0.000 
#
# Total GULP energy -201938.385815 kJ/mol
# GULP energy per Si atom -5609.399606 kJ/mol
# Density = 2.511131 g / cm^3
# Si number density = 25.168592 Si / 1000 Ang^3
#
#
#
# Elastic Constant Matrix: (Units=GPa)
#
#
# Indices 1 2 3 4 5 6 
#
# 1 97.8920 74.6043 44.1807 0.0000 0.0000 0.0000
# 2 74.6043 189.6506 68.8050 0.0000 0.0000 0.0000
# 3 44.1807 68.8050 143.6601 0.0000 0.0000 0.0000
# 4 0.0000 0.0000 0.0000 37.9546 0.0000 0.0000
# 5 0.0000 0.0000 0.0000 0.0000 26.7729 0.0000
# 6 0.0000 0.0000 0.0000 0.0000 0.0000 40.2706
#
#
#
# Elastic Compliance Matrix: (Units=1/GPa)
#
#
# Indices 1 2 3 4 5 6 
#
# 1 0.015134 -0.005162 -0.002182 0.000000 0.000000 0.000000
# 2 -0.005162 0.008142 -0.002312 0.000000 0.000000 0.000000
# 3 -0.002182 -0.002312 0.008739 0.000000 0.000000 0.000000
# 4 0.000000 0.000000 0.000000 0.026347 0.000000 0.000000
# 5 0.000000 0.000000 0.000000 0.000000 0.037351 0.000000
# 6 0.000000 0.000000 0.000000 0.000000 0.000000 0.024832
#
#
# Mechanical properties :
#
#
# Convention : Reuss Voigt Hill
#
# Bulk Modulus (GPa) = 78.71853 89.59808 84.15831
# Shear Modulus (GPa) = 34.69990 37.24046 35.97018
#
# Velocity S-wave (km/s) = 3.71711 3.85078 3.78454
# Velocity P-wave (km/s) = 7.05457 7.44633 7.25309
#
# Compressibility (1/GPa) = 0.01270349
#
# Stress axis : x y z
#
# Youngs Moduli (GPa) = 66.07668 122.81639 114.42458
#
# Poissons Ratio (x) = 0.63394 0.24968
# Poissons Ratio (y) = 0.34107 0.26458
# Poissons Ratio (z) = 0.14418 0.28398
#
# Static dielectric constant tensor:
#      x y z
#    x 1.963230 0.000000 0.000000 
#    y 0.000000 1.976330 0.000000 
#    z 0.000000 0.000000 1.970560 
# 
# From -- ./inp_files/19968.got.cif
#   From: 2010.05.17/outbox.cif.g08.bks.cpg/sg73_10_cif.got.tgz:19968.got - 2010.06.03 17:35:07.
