data_PCOD9532748
_publ_section_title
;
Structure prediction by ZEFSAII (Michael W. Deem and Ramdas Pophale) SiO2 
 PCOD9532748
Probable space group: I B C A 
;
_chemical_formula_sum "Si O2"
_cell_formula_units_Z 104
_cell_length_a 26.102720
_cell_length_b 8.283690
_cell_length_c 23.334242
_cell_angle_alpha 90.000000
_cell_angle_beta 90.000000
_cell_angle_gamma 90.000000
_cell_volume 5045.489426
_symmetry_space_group_name_H-M "I B C A "
_symmetry_group_IT_number 73
_symmetry_cell_setting 'orthorhombic'
loop_
_space_group_symop_operation_xyz
x,y,z
-x,1/2-y,z
x,-y,1/2-z
1/2-x,y,-z
-x,-y,-z
x,1/2+y,-z
-x,y,1/2+z
1/2+x,-y,z
1/2+x,1/2+y,1/2+z
1/2-x,-y,1/2+z
1/2+x,1/2-y,-z
-x,1/2+y,1/2-z
1/2-x,1/2-y,1/2-z
1/2+x,y,1/2-z
1/2-x,1/2+y,z
x,1/2-y,1/2+z
loop_
_atom_site_type_symbol
_atom_site_label
_atom_site_fract_x
_atom_site_fract_y
_atom_site_fract_z
Si Si1 0.686527 0.692964 0.939003
Si Si2 0.728315 0.000000 0.250000
Si Si3 0.077934 0.460476 0.966434
Si Si4 0.185687 0.309695 0.310362
Si Si5 0.500000 0.750000 0.890464
Si Si6 0.558613 0.195103 0.916380
Si Si7 0.250000 0.053011 0.000000
Si Si8 0.925139 0.470177 0.813898
O O1 0.631525 0.626461 0.955425
O O2 0.687619 0.751307 0.874905
O O3 0.729689 0.558435 0.949336
O O4 0.703130 0.838706 0.979782
O O5 0.767952 0.067329 0.297508
O O6 0.695157 0.151953 0.229049
O O7 0.082762 0.642703 0.943350
O O8 0.034448 0.366251 0.930300
O O9 0.064304 0.440111 0.033664
O O10 0.130471 0.391487 0.303321
O O11 0.462166 0.647424 0.849929
O O12 0.500000 0.250000 0.907707
O O13 0.579554 0.125560 0.856321
O O14 0.946722 0.500000 0.750000
#
# Coordination Sequence:
#
# PCOD9532748 Si02
#       8
#    16   8  16  16   8  16   8  16
#     4  11  23  42  66 101 134 180 217 282 343 423
#     4  10  24  46  72  98 132 184 238 302 342 424
#     4  12  24  43  74 106 138 183 233 282 358 424
#     4  11  23  46  71  99 134 178 237 291 354 416
#     4  12  24  46  70 100 144 180 230 296 344 422
#     4  12  25  44  70 102 143 185 230 292 346 421
#     4  10  24  42  62  96 146 172 212 278 352 404
#     4  12  28  47  68 100 142 186 234 290 353 422
#
# _framework density 20.612469999999998
#
# number of rings (size 3 to 8) (size 9 to 14) (size 15 to 20)
#    0.000    0.615    4.615    3.231    3.231    1.231 
#    4.154    0.000    0.000    0.000    0.000    0.000 
#    0.000    0.000    0.000    0.000    0.000    0.000 
#
# Total GULP energy -290790.039115 kJ/mol
# GULP energy per Si atom -5592.116137 kJ/mol
# Density = 2.056556 g / cm^3
# Si number density = 20.612470 Si / 1000 Ang^3
#
#
#
# Elastic Constant Matrix: (Units=GPa)
#
#
# Indices 1 2 3 4 5 6 
#
# 1 104.9081 35.1981 34.1706 0.0000 0.0000 0.0000
# 2 35.1981 100.7854 40.6502 0.0000 0.0000 0.0000
# 3 34.1706 40.6502 127.5295 0.0000 0.0000 0.0000
# 4 0.0000 0.0000 0.0000 26.4582 0.0000 0.0000
# 5 0.0000 0.0000 0.0000 0.0000 48.7933 0.0000
# 6 0.0000 0.0000 0.0000 0.0000 0.0000 23.8069
#
#
#
# Elastic Compliance Matrix: (Units=1/GPa)
#
#
# Indices 1 2 3 4 5 6 
#
# 1 0.011233 -0.003109 -0.002019 0.000000 0.000000 0.000000
# 2 -0.003109 0.012246 -0.003071 0.000000 0.000000 0.000000
# 3 -0.002019 -0.003071 0.009361 0.000000 0.000000 0.000000
# 4 0.000000 0.000000 0.000000 0.037796 0.000000 0.000000
# 5 0.000000 0.000000 0.000000 0.000000 0.020495 0.000000
# 6 0.000000 0.000000 0.000000 0.000000 0.000000 0.042005
#
#
# Mechanical properties :
#
#
# Convention : Reuss Voigt Hill
#
# Bulk Modulus (GPa) = 60.81298 61.47340 61.14319
# Shear Modulus (GPa) = 32.25558 34.69195 33.47377
#
# Velocity S-wave (km/s) = 3.96012 4.10696 4.03421
# Velocity P-wave (km/s) = 7.10472 7.23724 7.17129
#
# Compressibility (1/GPa) = 0.01644386
#
# Stress axis : x y z
#
# Youngs Moduli (GPa) = 89.02569 81.65809 106.82614
#
# Poissons Ratio (x) = 0.25384 0.21567
# Poissons Ratio (y) = 0.27675 0.32802
# Poissons Ratio (z) = 0.17973 0.25074
#
# Static dielectric constant tensor:
#      x y z
#    x 1.729210 0.000000 0.000000 
#    y 0.000000 1.789600 0.000000 
#    z 0.000000 0.000000 1.724650 
# 
# From -- ./inp_files/27620.got.cif
#   From: 2010.05.17/outbox.cif.g08.bks.cpg/sg73_14_cif.got.tgz:27620.got - 2010.06.03 17:35:07.
