data_PCOD9532922
_publ_section_title
;
Structure prediction by ZEFSAII (Michael W. Deem and Ramdas Pophale) SiO2 
 PCOD9532922
Probable space group: I B C A 
;
_chemical_formula_sum "Si O2"
_cell_formula_units_Z 72
_cell_length_a 5.032724
_cell_length_b 20.457457
_cell_length_c 28.522735
_cell_angle_alpha 90.000000
_cell_angle_beta 90.000000
_cell_angle_gamma 90.000000
_cell_volume 2936.607664
_symmetry_space_group_name_H-M "I B C A "
_symmetry_group_IT_number 73
_symmetry_cell_setting 'orthorhombic'
loop_
_space_group_symop_operation_xyz
x,y,z
-x,1/2-y,z
x,-y,1/2-z
1/2-x,y,-z
-x,-y,-z
x,1/2+y,-z
-x,y,1/2+z
1/2+x,-y,z
1/2+x,1/2+y,1/2+z
1/2-x,-y,1/2+z
1/2+x,1/2-y,-z
-x,1/2+y,1/2-z
1/2-x,1/2-y,1/2-z
1/2+x,y,1/2-z
1/2-x,1/2+y,z
x,1/2-y,1/2+z
loop_
_atom_site_type_symbol
_atom_site_label
_atom_site_fract_x
_atom_site_fract_y
_atom_site_fract_z
Si Si1 0.218644 0.665942 0.780817
Si Si2 0.750000 0.204993 0.500000
Si Si3 0.256791 0.457539 0.341973
Si Si4 0.000000 0.750000 0.142373
Si Si5 0.478447 0.129746 0.580303
Si Si6 0.250000 0.547636 0.500000
O O1 0.424288 0.676080 0.738365
O O2 0.270519 0.592494 0.799049
O O3 0.295022 0.712742 0.823828
O O4 0.500000 0.250000 0.489957
O O5 0.318461 0.338929 0.543845
O O6 0.061919 0.519887 0.341016
O O7 0.143982 0.418704 0.386721
O O8 0.876191 0.691701 0.110668
O O9 0.271675 0.091773 0.546936
O O10 0.500000 0.500000 0.500000
#
# Coordination Sequence:
#
# PCOD9532922 Si02
#       6
#    16   8  16   8  16   8
#     4  11  24  46  71 102 139 184 232 291 366 437
#     4  12  26  46  70 106 146 194 244 298 358 438
#     4  11  25  45  71 104 141 185 239 299 354 426
#     4  10  24  46  70 106 142 186 232 302 364 436
#     4  11  25  47  72 106 146 191 244 299 365 426
#     4  12  26  48  74 102 142 196 246 298 352 424
#
# _framework density 24.518087000000001
#
# number of rings (size 3 to 8) (size 9 to 14) (size 15 to 20)
#    0.000    0.889    1.111    4.667    0.000    6.222 
#    8.000    0.000    0.000    0.000    0.000    0.000 
#    0.000    0.000    0.000    0.000    0.000    0.000 
#
# Total GULP energy -201904.003146 kJ/mol
# GULP energy per Si atom -5608.444532 kJ/mol
# Density = 2.446228 g / cm^3
# Si number density = 24.518087 Si / 1000 Ang^3
#
#
#
# Elastic Constant Matrix: (Units=GPa)
#
#
# Indices 1 2 3 4 5 6 
#
# 1 101.0563 19.8296 11.6201 0.0000 0.0000 0.0000
# 2 19.8296 119.6826 53.8348 0.0000 0.0000 0.0000
# 3 11.6201 53.8348 111.6050 0.0000 0.0000 0.0000
# 4 0.0000 0.0000 0.0000 55.9656 0.0000 0.0000
# 5 0.0000 0.0000 0.0000 0.0000 13.8014 0.0000
# 6 0.0000 0.0000 0.0000 0.0000 0.0000 26.7903
#
#
#
# Elastic Compliance Matrix: (Units=1/GPa)
#
#
# Indices 1 2 3 4 5 6 
#
# 1 0.010237 -0.001554 -0.000316 0.000000 0.000000 0.000000
# 2 -0.001554 0.010907 -0.005099 0.000000 0.000000 0.000000
# 3 -0.000316 -0.005099 0.011453 0.000000 0.000000 0.000000
# 4 0.000000 0.000000 0.000000 0.017868 0.000000 0.000000
# 5 0.000000 0.000000 0.000000 0.000000 0.072457 0.000000
# 6 0.000000 0.000000 0.000000 0.000000 0.000000 0.037327
#
#
# Mechanical properties :
#
#
# Convention : Reuss Voigt Hill
#
# Bulk Modulus (GPa) = 53.59788 55.87923 54.73855
# Shear Modulus (GPa) = 27.71534 35.78208 31.74871
#
# Velocity S-wave (km/s) = 3.36580 3.82437 3.60239
# Velocity P-wave (km/s) = 6.08381 6.50704 6.29898
#
# Compressibility (1/GPa) = 0.01865745
#
# Stress axis : x y z
#
# Youngs Moduli (GPa) = 97.68735 91.68792 87.31483
#
# Poissons Ratio (x) = 0.14246 0.02762
# Poissons Ratio (y) = 0.15179 0.44524
# Poissons Ratio (z) = 0.03090 0.46754
#
# Static dielectric constant tensor:
#      x y z
#    x 1.879830 0.000000 0.000000 
#    y 0.000000 1.972670 0.000000 
#    z 0.000000 0.000000 1.930930 
# 
# From -- ./inp_files/27451.got.cif
#   From: 2010.05.17/outbox.cif.g08.bks.cpg/sg73_14_cif.got.tgz:27451.got - 2010.06.03 17:35:07.
