data_PCOD9532052
_publ_section_title
;
Structure prediction by ZEFSAII (Michael W. Deem and Ramdas Pophale) SiO2 
 PCOD9532052
Probable space group: I B C A 
;
_chemical_formula_sum "Si O2"
_cell_formula_units_Z 88
_cell_length_a 11.634198
_cell_length_b 23.342195
_cell_length_c 14.214451
_cell_angle_alpha 90.000000
_cell_angle_beta 90.000000
_cell_angle_gamma 90.000000
_cell_volume 3860.186026
_symmetry_space_group_name_H-M "I B C A "
_symmetry_group_IT_number 73
_symmetry_cell_setting 'orthorhombic'
loop_
_space_group_symop_operation_xyz
x,y,z
-x,1/2-y,z
x,-y,1/2-z
1/2-x,y,-z
-x,-y,-z
x,1/2+y,-z
-x,y,1/2+z
1/2+x,-y,z
1/2+x,1/2+y,1/2+z
1/2-x,-y,1/2+z
1/2+x,1/2-y,-z
-x,1/2+y,1/2-z
1/2-x,1/2-y,1/2-z
1/2+x,y,1/2-z
1/2-x,1/2+y,z
x,1/2-y,1/2+z
loop_
_atom_site_type_symbol
_atom_site_label
_atom_site_fract_x
_atom_site_fract_y
_atom_site_fract_z
Si Si1 0.965061 0.923925 0.669714
Si Si2 0.780217 0.112113 0.097402
Si Si3 0.141913 0.668635 0.219410
Si Si4 0.000000 0.750000 0.821651
Si Si5 0.499113 0.547593 0.108331
Si Si6 0.155193 0.655429 0.918830
O O1 0.835332 0.908517 0.645978
O O2 0.982408 0.940845 0.779034
O O3 0.048185 0.868833 0.662034
O O4 0.989593 0.978973 0.604511
O O5 0.847557 0.147789 0.173564
O O6 0.871787 0.062436 0.076051
O O7 0.750000 0.142488 0.000000
O O8 0.097030 0.731263 0.244360
O O9 0.262182 0.656084 0.171700
O O10 0.940378 0.797029 0.890509
O O11 0.408879 0.594108 0.066051
O O12 0.250000 0.668419 0.000000
#
# Coordination Sequence:
#
# PCOD9532052 Si02
#       6
#    16  16  16   8  16  16
#     4  10  22  40  72  97 141 189 228 288 366 431
#     4  11  23  40  66 100 139 185 227 285 357 433
#     4  11  24  47  73 101 140 186 238 302 364 430
#     4  12  24  50  68 104 140 188 252 298 360 426
#     4  10  23  43  64 104 142 182 238 288 358 439
#     4  12  27  46  73 106 144 188 242 307 361 429
#
# _framework density 22.796831000000001
#
# number of rings (size 3 to 8) (size 9 to 14) (size 15 to 20)
#    0.000    1.091    5.455    0.545    5.091    4.364 
#    0.000    0.000    0.000    0.000    0.000    0.000 
#    0.000    0.000    0.000    0.000    0.000    0.000 
#
# Total GULP energy -245204.771867 kJ/mol
# GULP energy per Si atom -5572.835724 kJ/mol
# Density = 2.274494 g / cm^3
# Si number density = 22.796831 Si / 1000 Ang^3
#
#
#
# Elastic Constant Matrix: (Units=GPa)
#
#
# Indices 1 2 3 4 5 6 
#
# 1 148.1460 38.5118 25.7476 0.0000 0.0000 0.0000
# 2 38.5118 65.5815 16.4300 0.0001 0.0000 0.0000
# 3 25.7476 16.4300 91.0988 0.0002 0.0000 0.0000
# 4 0.0000 0.0001 0.0002 16.3170 0.0000 0.0000
# 5 0.0000 0.0000 0.0000 0.0000 35.8269 0.0000
# 6 0.0000 0.0000 0.0000 0.0000 0.0000 13.5402
#
#
#
# Elastic Compliance Matrix: (Units=1/GPa)
#
#
# Indices 1 2 3 4 5 6 
#
# 1 0.008160 -0.004413 -0.001510 0.000000 0.000000 0.000000
# 2 -0.004413 0.018357 -0.002063 0.000000 0.000000 0.000000
# 3 -0.001510 -0.002063 0.011776 0.000000 0.000000 0.000000
# 4 0.000000 0.000000 0.000000 0.061286 0.000000 0.000000
# 5 0.000000 0.000000 0.000000 0.000000 0.027912 0.000000
# 6 0.000000 0.000000 0.000000 0.000000 0.000000 0.073854
#
#
# Mechanical properties :
#
#
# Convention : Reuss Voigt Hill
#
# Bulk Modulus (GPa) = 44.80541 51.80056 48.30298
# Shear Modulus (GPa) = 22.24611 28.07929 25.16270
#
# Velocity S-wave (km/s) = 3.12724 3.51339 3.32592
# Velocity P-wave (km/s) = 5.72157 6.26343 5.99862
#
# Compressibility (1/GPa) = 0.02231873
#
# Stress axis : x y z
#
# Youngs Moduli (GPa) = 122.55069 54.47561 84.91790
#
# Poissons Ratio (x) = 0.24042 0.12825
# Poissons Ratio (y) = 0.54087 0.17521
# Poissons Ratio (z) = 0.18509 0.11240
#
# Static dielectric constant tensor:
#      x y z
#    x 1.796890 0.000000 0.000000 
#    y 0.000000 2.035690 0.000000 
#    z 0.000000 0.000000 1.920500 
# 
# From -- ./inp_files/16137.got.cif
#   From: 2010.05.17/outbox.cif.g08.bks.cpg/sg73_9_cif.got.tgz:16137.got - 2010.06.03 17:35:07.
