data_PCOD9532969
_publ_section_title
;
Structure prediction by ZEFSAII (Michael W. Deem and Ramdas Pophale) SiO2 
 PCOD9532969
Probable space group: I B C A 
;
_chemical_formula_sum "Si O2"
_cell_formula_units_Z 64
_cell_length_a 7.587279
_cell_length_b 23.380140
_cell_length_c 15.764006
_cell_angle_alpha 90.000000
_cell_angle_beta 90.000000
_cell_angle_gamma 90.000000
_cell_volume 2796.402960
_symmetry_space_group_name_H-M "I B C A "
_symmetry_group_IT_number 73
_symmetry_cell_setting 'orthorhombic'
loop_
_space_group_symop_operation_xyz
x,y,z
-x,1/2-y,z
x,-y,1/2-z
1/2-x,y,-z
-x,-y,-z
x,1/2+y,-z
-x,y,1/2+z
1/2+x,-y,z
1/2+x,1/2+y,1/2+z
1/2-x,-y,1/2+z
1/2+x,1/2-y,-z
-x,1/2+y,1/2-z
1/2-x,1/2-y,1/2-z
1/2+x,y,1/2-z
1/2-x,1/2+y,z
x,1/2-y,1/2+z
loop_
_atom_site_type_symbol
_atom_site_label
_atom_site_fract_x
_atom_site_fract_y
_atom_site_fract_z
Si Si1 0.987778 0.810921 0.119062
Si Si2 0.250000 0.607787 0.000000
Si Si3 0.450311 0.571373 0.150891
Si Si4 0.113981 0.693173 0.311515
Si Si5 0.300628 0.000000 0.250000
O O1 0.191955 0.817875 0.148589
O O2 0.000000 0.750000 0.072414
O O3 0.881856 0.854749 0.059826
O O4 0.881267 0.804207 0.208333
O O5 0.368998 0.569137 0.059365
O O6 0.511812 0.635660 0.164708
O O7 0.590759 0.522232 0.170085
O O8 0.306946 0.555075 0.221574
O O9 0.000000 0.750000 0.337612
#
# Coordination Sequence:
#
# PCOD9532969 Si02
#       5
#    16   8  16  16   8
#     4  11  23  40  65 100 141 181 222 271 337 410
#     4  12  26  40  62 100 140 172 218 286 350 398
#     4  11  24  44  69  98 129 172 226 280 341 399
#     4  11  22  44  75 100 131 181 234 276 326 411
#     4  10  24  48  72  88 124 182 236 276 318 412
#
# _framework density 22.886544000000001
#
# number of rings (size 3 to 8) (size 9 to 14) (size 15 to 20)
#    0.000    1.000    0.000    9.000    0.000    7.000 
#    0.000    1.250    0.000    0.000    0.000    0.000 
#    0.000    0.000    0.000    0.000    0.000    0.000 
#
# Total GULP energy -178692.589252 kJ/mol
# GULP energy per Si atom -5584.143414 kJ/mol
# Density = 2.283445 g / cm^3
# Si number density = 22.886544 Si / 1000 Ang^3
#
#
#
# Elastic Constant Matrix: (Units=GPa)
#
#
# Indices 1 2 3 4 5 6 
#
# 1 162.2113 66.3328 55.4001 0.0000 0.0000 0.0000
# 2 66.3328 107.0548 23.6574 0.0000 0.0000 0.0000
# 3 55.4001 23.6574 82.2552 0.0000 -0.0001 0.0001
# 4 0.0000 0.0000 0.0000 1.6264 0.0000 0.0000
# 5 0.0000 0.0000 -0.0001 0.0000 72.8321 0.0000
# 6 0.0000 0.0000 0.0001 0.0000 0.0000 -2.8537
#
#
#
# Elastic Compliance Matrix: (Units=1/GPa)
#
#
# Indices 1 2 3 4 5 6 
#
# 1 0.010044 -0.005049 -0.005313 0.000000 0.000000 0.000000
# 2 -0.005049 0.012514 -0.000198 0.000000 0.000000 0.000000
# 3 -0.005313 -0.000198 0.015792 0.000000 0.000000 0.000001
# 4 0.000000 0.000000 0.000000 0.614856 0.000000 0.000009
# 5 0.000000 0.000000 0.000000 0.000000 0.013730 0.000000
# 6 0.000000 0.000000 0.000001 0.000009 0.000000 -0.350423
#
#
# Mechanical properties :
#
#
# Convention : Reuss Voigt Hill
#
# Bulk Modulus (GPa) = 58.03949 71.36690 64.70319
# Shear Modulus (GPa) = 14.56127 28.06304 21.31215
#
# Velocity S-wave (km/s) = 2.52511 3.50548 3.05488
# Velocity P-wave (km/s) = 5.82377 6.90182 6.38559
#
# Compressibility (1/GPa) = 0.01722965
#
# Stress axis : x y z
#
# Youngs Moduli (GPa) = 99.56128 79.91356 63.32183
#
# Poissons Ratio (x) = 0.40352 0.33640
# Poissons Ratio (y) = 0.50273 0.01255
# Poissons Ratio (z) = 0.52892 0.01583
#
# Static dielectric constant tensor:
#      x y z
#    x 2.001200 0.000000 0.000000 
#    y 0.000000 1.931630 0.000000 
#    z 0.000000 0.000000 1.904090 
# 
# From -- ./inp_files/15469.got.cif
#   From: 2010.05.17/outbox.cif.g08.bks.cpg/sg73_8_cif.got.tgz:15469.got - 2010.06.03 17:35:07.
