data_PCOD9532470
_publ_section_title
;
Structure prediction by ZEFSAII (Michael W. Deem and Ramdas Pophale) SiO2 
 PCOD9532470
Probable space group: I B C A 
;
_chemical_formula_sum "Si O2"
_cell_formula_units_Z 104
_cell_length_a 20.417376
_cell_length_b 8.751507
_cell_length_c 27.267570
_cell_angle_alpha 90.000000
_cell_angle_beta 90.000000
_cell_angle_gamma 90.000000
_cell_volume 4872.246002
_symmetry_space_group_name_H-M "I B C A "
_symmetry_group_IT_number 73
_symmetry_cell_setting 'orthorhombic'
loop_
_space_group_symop_operation_xyz
x,y,z
-x,1/2-y,z
x,-y,1/2-z
1/2-x,y,-z
-x,-y,-z
x,1/2+y,-z
-x,y,1/2+z
1/2+x,-y,z
1/2+x,1/2+y,1/2+z
1/2-x,-y,1/2+z
1/2+x,1/2-y,-z
-x,1/2+y,1/2-z
1/2-x,1/2-y,1/2-z
1/2+x,y,1/2-z
1/2-x,1/2+y,z
x,1/2-y,1/2+z
loop_
_atom_site_type_symbol
_atom_site_label
_atom_site_fract_x
_atom_site_fract_y
_atom_site_fract_z
Si Si1 0.105700 0.239812 0.308860
Si Si2 0.952040 0.471971 0.650346
Si Si3 0.692356 0.841017 0.651491
Si Si4 0.182810 0.500000 0.250000
Si Si5 0.000000 0.250000 0.989739
Si Si6 0.060451 0.970141 0.433352
Si Si7 0.188130 0.004904 0.373351
Si Si8 0.519446 0.500000 0.750000
O O1 0.065247 0.347307 0.346303
O O2 0.142756 0.363877 0.275886
O O3 0.062173 0.132256 0.274653
O O4 0.152750 0.128224 0.338502
O O5 0.883392 0.385472 0.641696
O O6 0.009736 0.441582 0.611831
O O7 0.977354 0.434679 0.705011
O O8 0.714387 0.914132 0.703739
O O9 0.699015 0.659630 0.651628
O O10 0.742055 0.920845 0.613578
O O11 0.952039 0.343580 0.025456
O O12 0.960873 0.130213 0.956956
O O13 0.134695 0.974680 0.415258
#
# Coordination Sequence:
#
# PCOD9532470 Si02
#       8
#    16  16  16   8   8  16  16   8
#     4  11  23  39  59  94 137 192 231 281 315 385
#     4  11  23  42  66 101 146 180 233 275 330 399
#     4  11  25  42  61  96 136 191 229 281 322 396
#     4  10  23  41  58  90 143 189 252 268 317 381
#     4  10  24  44  78 108 134 158 224 288 370 408
#     4  11  23  46  75 106 132 174 218 291 347 418
#     4  12  25  44  69  92 135 180 229 281 343 393
#     4  12  23  37  62 102 145 191 226 274 323 395
#
# _framework density 21.345392
#
# number of rings (size 3 to 8) (size 9 to 14) (size 15 to 20)
#    0.000    0.923    1.538    6.923    0.000    4.308 
#    5.538    0.000    0.000   15.692    0.000    0.000 
#    0.000    0.000    0.000    0.000    0.000    0.000 
#
# Total GULP energy -290872.994233 kJ/mol
# GULP energy per Si atom -5593.711428 kJ/mol
# Density = 2.129681 g / cm^3
# Si number density = 21.345392 Si / 1000 Ang^3
#
#
#
# Elastic Constant Matrix: (Units=GPa)
#
#
# Indices 1 2 3 4 5 6 
#
# 1 60.8742 5.3183 10.5052 0.0000 0.0000 0.0000
# 2 5.3183 119.2666 4.8760 0.0000 0.0000 0.0000
# 3 10.5052 4.8760 63.3109 0.0000 0.0000 0.0000
# 4 0.0000 0.0000 0.0000 17.8367 0.0000 0.0000
# 5 0.0000 0.0000 0.0000 0.0000 14.7244 0.0000
# 6 0.0000 0.0000 0.0000 0.0000 0.0000 25.2017
#
#
#
# Elastic Compliance Matrix: (Units=1/GPa)
#
#
# Indices 1 2 3 4 5 6 
#
# 1 0.016961 -0.000643 -0.002765 0.000000 0.000000 0.000000
# 2 -0.000643 0.008435 -0.000543 0.000000 0.000000 0.000000
# 3 -0.002765 -0.000543 0.016296 0.000000 0.000000 0.000000
# 4 0.000000 0.000000 0.000000 0.056064 0.000000 0.000000
# 5 0.000000 0.000000 0.000000 0.000000 0.067914 0.000000
# 6 0.000000 0.000000 0.000000 0.000000 0.000000 0.039680
#
#
# Mechanical properties :
#
#
# Convention : Reuss Voigt Hill
#
# Bulk Modulus (GPa) = 29.59470 31.65009 30.62239
# Shear Modulus (GPa) = 22.27018 26.40270 24.33644
#
# Velocity S-wave (km/s) = 3.23356 3.52081 3.38024
# Velocity P-wave (km/s) = 5.27598 5.60250 5.44169
#
# Compressibility (1/GPa) = 0.03378983
#
# Stress axis : x y z
#
# Youngs Moduli (GPa) = 58.95999 118.54724 61.36606
#
# Poissons Ratio (x) = 0.07626 0.16966
# Poissons Ratio (y) = 0.03793 0.03332
# Poissons Ratio (z) = 0.16301 0.06436
#
# Static dielectric constant tensor:
#      x y z
#    x 1.832720 0.000000 0.000000 
#    y 0.000000 1.776030 0.000000 
#    z 0.000000 0.000000 1.772630 
# 
# From -- ./inp_files/34690.got.cif
#   From: 2010.05.17/outbox.cif.g08.bks.cpg/sg73_18_cif.got.tgz:34690.got - 2010.06.03 17:35:07.
