data_PCOD9532692
_publ_section_title
;
Structure prediction by ZEFSAII (Michael W. Deem and Ramdas Pophale) SiO2 
 PCOD9532692
Probable space group: I B C A 
;
_chemical_formula_sum "Si O2"
_cell_formula_units_Z 72
_cell_length_a 16.189102
_cell_length_b 23.774612
_cell_length_c 7.784598
_cell_angle_alpha 90.000000
_cell_angle_beta 90.000000
_cell_angle_gamma 90.000000
_cell_volume 2996.210956
_symmetry_space_group_name_H-M "I B C A "
_symmetry_group_IT_number 73
_symmetry_cell_setting 'orthorhombic'
loop_
_space_group_symop_operation_xyz
x,y,z
-x,1/2-y,z
x,-y,1/2-z
1/2-x,y,-z
-x,-y,-z
x,1/2+y,-z
-x,y,1/2+z
1/2+x,-y,z
1/2+x,1/2+y,1/2+z
1/2-x,-y,1/2+z
1/2+x,1/2-y,-z
-x,1/2+y,1/2-z
1/2-x,1/2-y,1/2-z
1/2+x,y,1/2-z
1/2-x,1/2+y,z
x,1/2-y,1/2+z
loop_
_atom_site_type_symbol
_atom_site_label
_atom_site_fract_x
_atom_site_fract_y
_atom_site_fract_z
Si Si1 0.587162 0.143887 0.632984
Si Si2 0.562460 0.921082 0.536685
Si Si3 0.154465 0.188874 0.169822
Si Si4 0.250000 0.208486 0.500000
Si Si5 0.000000 0.250000 0.769446
Si Si6 0.562454 0.500000 0.750000
O O1 0.608936 0.114934 0.815428
O O2 0.501079 0.117932 0.567758
O O3 0.654511 0.142061 0.480369
O O4 0.570220 0.210332 0.652670
O O5 0.606715 0.960383 0.392877
O O6 0.499848 0.960810 0.642547
O O7 0.197722 0.176199 0.352744
O O8 0.057414 0.202114 0.190432
O O9 0.192842 0.247298 0.102409
#
# Coordination Sequence:
#
# PCOD9532692 Si02
#       6
#    16  16  16   8   8   8
#     4  11  20  30  51  83 108 150 203 248 299 382
#     4   9  18  30  51  77 109 153 183 245 320 394
#     4  11  22  37  51  74 112 161 208 250 307 380
#     4  10  24  38  50  68 114 180 194 248 326 370
#     4  12  22  32  56  82 120 150 200 264 302 370
#     4   8  16  34  46  70 120 148 168 240 338 392
#
# _framework density 24.030349000000001
#
# number of rings (size 3 to 8) (size 9 to 14) (size 15 to 20)
#    0.000    1.778    4.444    0.667    0.000    0.000 
#    0.000    0.000    0.000    0.000    0.000    0.000 
#    0.000   12.444    0.000    0.444    0.000    0.000 
#
# Total GULP energy -200448.142199 kJ/mol
# GULP energy per Si atom -5568.003950 kJ/mol
# Density = 2.397565 g / cm^3
# Si number density = 24.030349 Si / 1000 Ang^3
#
#
#
# Elastic Constant Matrix: (Units=GPa)
#
#
# Indices 1 2 3 4 5 6 
#
# 1 70.0190 -6.0087 45.3029 0.0000 0.0000 0.0000
# 2 -6.0087 85.2810 66.9323 0.0000 0.0000 0.0000
# 3 45.3029 66.9323 237.1397 0.0000 0.0000 0.0000
# 4 0.0000 0.0000 0.0000-2409.0814 0.0000 -0.0001
# 5 0.0000 0.0000 0.0000 0.0000 34.6050 0.0000
# 6 0.0000 0.0000 0.0000 -0.0001 0.0000 13.5870
#
#
#
# Elastic Compliance Matrix: (Units=1/GPa)
#
#
# Indices 1 2 3 4 5 6 
#
# 1 0.017843 0.005052 -0.004835 0.000000 0.000000 0.000000
# 2 0.005052 0.016493 -0.005620 0.000000 0.000000 0.000000
# 3 -0.004835 -0.005620 0.006727 0.000000 0.000000 0.000000
# 4 0.000000 0.000000 0.000000 -0.000415 0.000000 0.000000
# 5 0.000000 0.000000 0.000000 0.000000 0.028898 0.000000
# 6 0.000000 0.000000 0.000000 0.000000 0.000000 0.073600
#
#
# Mechanical properties :
#
#
# Convention : Reuss Voigt Hill
#
# Bulk Modulus (GPa) = 33.05055 67.21032 50.13043
# Shear Modulus (GPa) = 30.48094 -453.09700 -211.30803
#
# Velocity S-wave (km/s) = 3.56537 -13.74632 -9.38748
# Velocity P-wave (km/s) = 5.54371 14.96392 9.82818
#
# Compressibility (1/GPa) = 0.03025668
#
# Stress axis : x y z
#
# Youngs Moduli (GPa) = 56.04333 60.63266 148.65956
#
# Poissons Ratio (x) = -0.30629 0.71871
# Poissons Ratio (y) = -0.28311 0.83548
# Poissons Ratio (z) = 0.27095 0.34076
#
# Static dielectric constant tensor:
#      x y z
#    x 1.815710 0.000000 0.000000 
#    y 0.000000 2.073110 0.000000 
#    z 0.000000 0.000000 2.358700 
# 
# From -- ./inp_files/5490.got.cif
#   From: 2010.05.17/outbox.cif.g08.bks.cpg/sg73_3_cif.got.tgz:5490.got - 2010.06.03 17:35:07.
