data_PCOD9532894
_publ_section_title
;
Structure prediction by ZEFSAII (Michael W. Deem and Ramdas Pophale) SiO2 
 PCOD9532894
Probable space group: I B C A 
;
_chemical_formula_sum "Si O2"
_cell_formula_units_Z 96
_cell_length_a 19.508707
_cell_length_b 9.248816
_cell_length_c 23.071972
_cell_angle_alpha 90.000000
_cell_angle_beta 90.000000
_cell_angle_gamma 90.000000
_cell_volume 4162.932237
_symmetry_space_group_name_H-M "I B C A "
_symmetry_group_IT_number 73
_symmetry_cell_setting 'orthorhombic'
loop_
_space_group_symop_operation_xyz
x,y,z
-x,1/2-y,z
x,-y,1/2-z
1/2-x,y,-z
-x,-y,-z
x,1/2+y,-z
-x,y,1/2+z
1/2+x,-y,z
1/2+x,1/2+y,1/2+z
1/2-x,-y,1/2+z
1/2+x,1/2-y,-z
-x,1/2+y,1/2-z
1/2-x,1/2-y,1/2-z
1/2+x,y,1/2-z
1/2-x,1/2+y,z
x,1/2-y,1/2+z
loop_
_atom_site_type_symbol
_atom_site_label
_atom_site_fract_x
_atom_site_fract_y
_atom_site_fract_z
Si Si1 0.793260 0.000000 0.750000
Si Si2 0.000000 0.250000 0.255136
Si Si3 0.384070 0.279567 0.324376
Si Si4 0.221058 0.434112 0.130226
Si Si5 0.954611 0.063675 0.859010
Si Si6 0.043338 0.611244 0.036918
Si Si7 0.834404 0.737424 0.585755
O O1 0.836611 0.871904 0.780131
O O2 0.752096 0.935007 0.695521
O O3 0.061098 0.303786 0.214595
O O4 0.027922 0.124215 0.296129
O O5 0.343132 0.172875 0.365417
O O6 0.424061 0.404310 0.358850
O O7 0.200012 0.598996 0.117049
O O8 0.274955 0.360038 0.085458
O O9 0.896139 0.172462 0.883600
O O10 0.023143 0.070566 0.897089
O O11 0.123198 0.656330 0.033840
O O12 0.000000 0.750000 0.022369
O O13 0.000000 0.500000 0.000000
#
# Coordination Sequence:
#
# PCOD9532894 Si02
#       7
#     8   8  16  16  16  16  16
#     4  12  22  38  58  92 140 190 238 258 312 400
#     4  12  22  36  62  94 140 186 226 284 324 386
#     4  12  25  38  61  95 141 187 240 268 325 395
#     4  12  25  38  62  97 139 189 222 272 326 407
#     4  11  22  43  66  93 137 178 228 292 339 392
#     4  10  24  45  76  99 125 166 222 292 358 407
#     4  11  22  43  67  95 135 173 222 278 349 401
#
# _framework density 23.060669000000001
#
# number of rings (size 3 to 8) (size 9 to 14) (size 15 to 20)
#    0.000    0.667    7.500    0.500    4.667    2.667 
#    0.000    0.000    0.000   21.000    0.000    0.000 
#    0.000    0.000    0.000    0.000    0.000    0.000 
#
# Total GULP energy -267831.625907 kJ/mol
# GULP energy per Si atom -5579.825540 kJ/mol
# Density = 2.300818 g / cm^3
# Si number density = 23.060669 Si / 1000 Ang^3
#
#
#
# Elastic Constant Matrix: (Units=GPa)
#
#
# Indices 1 2 3 4 5 6 
#
# 1 76.6753 15.3650 5.4805 0.0000 0.0000 0.0000
# 2 15.3650 90.3608 8.2297 0.0000 0.0000 0.0000
# 3 5.4805 8.2297 14.6934 0.0000 0.0000 0.0000
# 4 0.0000 0.0000 0.0000 18.5554 0.0000 0.0000
# 5 0.0000 0.0000 0.0000 0.0000 12.5117 0.0000
# 6 0.0000 0.0000 0.0000 0.0000 0.0000 48.3395
#
#
#
# Elastic Compliance Matrix: (Units=1/GPa)
#
#
# Indices 1 2 3 4 5 6 
#
# 1 0.013723 -0.001968 -0.004017 0.000000 0.000000 0.000000
# 2 -0.001968 0.011944 -0.005956 0.000000 0.000000 0.000000
# 3 -0.004017 -0.005956 0.072892 0.000000 0.000000 0.000000
# 4 0.000000 0.000000 0.000000 0.053893 0.000000 0.000000
# 5 0.000000 0.000000 0.000000 0.000000 0.079925 0.000000
# 6 0.000000 0.000000 0.000000 0.000000 0.000000 0.020687
#
#
# Mechanical properties :
#
#
# Convention : Reuss Voigt Hill
#
# Bulk Modulus (GPa) = 13.39067 26.65330 20.02198
# Shear Modulus (GPa) = 16.56527 26.05829 21.31178
#
# Velocity S-wave (km/s) = 2.68308 3.36518 3.04330
# Velocity P-wave (km/s) = 3.92656 5.16548 4.58803
#
# Compressibility (1/GPa) = 0.07467885
#
# Stress axis : x y z
#
# Youngs Moduli (GPa) = 72.86813 83.72575 13.71899
#
# Poissons Ratio (x) = 0.16475 0.05510
# Poissons Ratio (y) = 0.14338 0.08171
# Poissons Ratio (z) = 0.29268 0.49864
#
# Static dielectric constant tensor:
#      x y z
#    x 1.826600 0.000000 0.000000 
#    y 0.000000 1.779020 0.000000 
#    z 0.000000 0.000000 2.257070 
# 
# From -- ./inp_files/32633.got.cif
#   From: 2010.05.17/outbox.cif.g08.bks.cpg/sg73_17_cif.got.tgz:32633.got - 2010.06.03 17:35:07.
