data_PCOD9532395
_publ_section_title
;
Structure prediction by ZEFSAII (Michael W. Deem and Ramdas Pophale) SiO2 
 PCOD9532395
Probable space group: I B C A 
;
_chemical_formula_sum "Si O2"
_cell_formula_units_Z 72
_cell_length_a 10.177206
_cell_length_b 26.667312
_cell_length_c 9.316813
_cell_angle_alpha 90.000000
_cell_angle_beta 90.000000
_cell_angle_gamma 90.000000
_cell_volume 2528.571194
_symmetry_space_group_name_H-M "I B C A "
_symmetry_group_IT_number 73
_symmetry_cell_setting 'orthorhombic'
loop_
_space_group_symop_operation_xyz
x,y,z
-x,1/2-y,z
x,-y,1/2-z
1/2-x,y,-z
-x,-y,-z
x,1/2+y,-z
-x,y,1/2+z
1/2+x,-y,z
1/2+x,1/2+y,1/2+z
1/2-x,-y,1/2+z
1/2+x,1/2-y,-z
-x,1/2+y,1/2-z
1/2-x,1/2-y,1/2-z
1/2+x,y,1/2-z
1/2-x,1/2+y,z
x,1/2-y,1/2+z
loop_
_atom_site_type_symbol
_atom_site_label
_atom_site_fract_x
_atom_site_fract_y
_atom_site_fract_z
Si Si1 0.750000 0.432376 0.000000
Si Si2 0.331773 0.000000 0.250000
Si Si3 0.595638 0.183975 0.684883
Si Si4 0.000000 0.250000 0.570008
Si Si5 0.968766 0.942179 0.474091
Si Si6 0.684110 0.865961 0.350856
O O1 0.712339 0.354867 0.223858
O O2 0.897067 0.410173 0.015703
O O3 0.250681 0.971259 0.367997
O O4 0.410222 0.952037 0.182930
O O5 0.585448 0.214275 0.535555
O O6 0.596977 0.222155 0.819430
O O7 0.450665 0.160120 0.693008
O O8 0.867779 0.919717 0.589132
O O9 0.000000 0.000000 0.500000
O O10 0.750000 0.846516 0.500000
#
# Coordination Sequence:
#
# PCOD9532395 Si02
#       6
#     8   8  16   8  16  16
#     4  10  22  48  76 116 152 228 300 388 454 542
#     4  10  22  46  82 116 156 224 314 388 478 538
#     4  11  26  53  91 138 191 244 297 391 459 602
#     4  10  24  52  96 144 186 250 306 360 516 586
#     4  10  25  49  78 118 172 241 310 393 458 553
#     4  12  28  54  81 136 191 237 316 388 465 549
#
# _framework density 28.474578000000001
#
# number of rings (size 3 to 8) (size 9 to 14) (size 15 to 20)
#    0.000    1.333    2.222    0.667    6.222    9.778 
#   16.000    0.000    0.000    0.000    0.000    0.000 
#    0.000    0.000    0.000    0.000    0.000    0.000 
#
# Total GULP energy -201326.301809 kJ/mol
# GULP energy per Si atom -5592.397272 kJ/mol
# Density = 2.840977 g / cm^3
# Si number density = 28.474578 Si / 1000 Ang^3
#
#
#
# Elastic Constant Matrix: (Units=GPa)
#
#
# Indices 1 2 3 4 5 6 
#
# 1 193.2813 36.3471 46.8712 0.0113 -0.0080 -0.0038
# 2 36.3471 111.1950 39.0256 0.0080 -0.0067 -0.0029
# 3 46.8712 39.0256 160.2007 0.0203 -0.0176 -0.0086
# 4 0.0113 0.0080 0.0203 48.9102 -0.0016 0.0000
# 5 -0.0080 -0.0067 -0.0176 -0.0016 66.1894 0.0000
# 6 -0.0038 -0.0029 -0.0086 0.0000 0.0000 38.6285
#
#
#
# Elastic Compliance Matrix: (Units=1/GPa)
#
#
# Indices 1 2 3 4 5 6 
#
# 1 0.005765 -0.001413 -0.001342 -0.000001 0.000000 0.000000
# 2 -0.001413 0.010180 -0.002066 0.000000 0.000000 0.000000
# 3 -0.001342 -0.002066 0.007138 -0.000002 0.000002 0.000001
# 4 -0.000001 0.000000 -0.000002 0.020446 0.000001 0.000000
# 5 0.000000 0.000000 0.000002 0.000001 0.015108 0.000000
# 6 0.000000 0.000000 0.000001 0.000000 0.000000 0.025888
#
#
# Mechanical properties :
#
#
# Convention : Reuss Voigt Hill
#
# Bulk Modulus (GPa) = 74.40820 78.79608 76.60214
# Shear Modulus (GPa) = 50.68437 53.57450 52.12944
#
# Velocity S-wave (km/s) = 4.22357 4.34231 4.28335
# Velocity P-wave (km/s) = 7.06915 7.27141 7.17099
#
# Compressibility (1/GPa) = 0.01343938
#
# Stress axis : x y z
#
# Youngs Moduli (GPa) = 173.45643 98.22735 140.08841
#
# Poissons Ratio (x) = 0.13883 0.18806
# Poissons Ratio (y) = 0.24515 0.28949
# Poissons Ratio (z) = 0.23286 0.20299
#
# Static dielectric constant tensor:
#      x y z
#    x 2.474650 0.000000 0.000000 
#    y 0.000000 2.283330 0.000000 
#    z 0.000000 0.000000 2.427040 
# 
# From -- ./inp_files/9768.got.cif
#   From: 2010.05.17/outbox.cif.g08.bks.cpg/sg73_5_cif.got.tgz:9768.got - 2010.06.03 17:35:07.
