data_PCOD9532865
_publ_section_title
;
Structure prediction by ZEFSAII (Michael W. Deem and Ramdas Pophale) SiO2 
 PCOD9532865
Probable space group: I B C A 
;
_chemical_formula_sum "Si O2"
_cell_formula_units_Z 96
_cell_length_a 24.759419
_cell_length_b 8.117828
_cell_length_c 22.344307
_cell_angle_alpha 90.000000
_cell_angle_beta 90.000000
_cell_angle_gamma 90.000000
_cell_volume 4491.042701
_symmetry_space_group_name_H-M "I B C A "
_symmetry_group_IT_number 73
_symmetry_cell_setting 'orthorhombic'
loop_
_space_group_symop_operation_xyz
x,y,z
-x,1/2-y,z
x,-y,1/2-z
1/2-x,y,-z
-x,-y,-z
x,1/2+y,-z
-x,y,1/2+z
1/2+x,-y,z
1/2+x,1/2+y,1/2+z
1/2-x,-y,1/2+z
1/2+x,1/2-y,-z
-x,1/2+y,1/2-z
1/2-x,1/2-y,1/2-z
1/2+x,y,1/2-z
1/2-x,1/2+y,z
x,1/2-y,1/2+z
loop_
_atom_site_type_symbol
_atom_site_label
_atom_site_fract_x
_atom_site_fract_y
_atom_site_fract_z
Si Si1 0.775553 0.413162 0.313567
Si Si2 0.565297 0.050179 0.818025
Si Si3 0.057849 0.554724 0.818161
Si Si4 0.322500 0.065626 0.139762
Si Si5 0.312065 0.717209 0.984161
Si Si6 0.649493 0.024232 0.410346
O O1 0.785405 0.500000 0.250000
O O2 0.711957 0.421144 0.328508
O O3 0.802757 0.234630 0.325978
O O4 0.801738 0.530913 0.363434
O O5 0.564178 0.247862 0.821297
O O6 0.503539 0.999313 0.831264
O O7 0.575991 0.000000 0.750000
O O8 0.614044 0.969402 0.854129
O O9 0.071077 0.500000 0.750000
O O10 0.097686 0.494421 0.869503
O O11 0.310049 0.081865 0.069252
O O12 0.339578 0.868717 0.951779
O O13 0.250000 0.751754 0.000000
O O14 0.345727 0.672043 0.043120
#
# Coordination Sequence:
#
# PCOD9532865 Si02
#       6
#    16  16  16  16  16  16
#     4  11  24  40  64 104 140 171 215 290 352 414
#     4  10  24  44  73 102 139 180 226 287 361 427
#     4  10  24  47  72 102 138 180 231 293 357 413
#     4  11  25  41  67 103 134 181 227 279 345 427
#     4  11  24  43  63  99 136 185 234 274 346 408
#     4  11  25  40  70  94 133 182 224 285 331 415
#
# _framework density 21.375882000000001
#
# number of rings (size 3 to 8) (size 9 to 14) (size 15 to 20)
#    0.000    1.333    1.667    2.000   14.000    0.000 
#    0.000    0.833    0.000    0.000    0.000    0.000 
#    0.000    0.000    0.000    0.000    0.000    0.000 
#
# Total GULP energy -268291.668398 kJ/mol
# GULP energy per Si atom -5589.409758 kJ/mol
# Density = 2.132723 g / cm^3
# Si number density = 21.375882 Si / 1000 Ang^3
#
#
#
# Elastic Constant Matrix: (Units=GPa)
#
#
# Indices 1 2 3 4 5 6 
#
# 1 137.1368 39.4975 80.6880 0.0000 0.0000 0.0000
# 2 39.4975 74.4570 44.1227 0.0000 0.0000 0.0000
# 3 80.6880 44.1227 148.2874 0.0000 0.0000 0.0000
# 4 0.0000 0.0000 0.0000 35.9457 0.0000 0.0000
# 5 0.0000 0.0000 0.0000 0.0000 58.4209 0.0000
# 6 0.0000 0.0000 0.0000 0.0000 0.0000 28.2354
#
#
#
# Elastic Compliance Matrix: (Units=1/GPa)
#
#
# Indices 1 2 3 4 5 6 
#
# 1 0.011196 -0.002828 -0.005251 0.000000 0.000000 0.000000
# 2 -0.002828 0.017020 -0.003526 0.000000 0.000000 0.000000
# 3 -0.005251 -0.003526 0.010650 0.000000 0.000000 0.000000
# 4 0.000000 0.000000 0.000000 0.027820 0.000000 0.000000
# 5 0.000000 0.000000 0.000000 0.000000 0.017117 0.000000
# 6 0.000000 0.000000 0.000000 0.000000 0.000000 0.035417
#
#
# Mechanical properties :
#
#
# Convention : Reuss Voigt Hill
#
# Bulk Modulus (GPa) = 63.86676 76.49974 70.18325
# Shear Modulus (GPa) = 33.86490 37.55859 35.71175
#
# Velocity S-wave (km/s) = 3.98459 4.19627 4.09180
# Velocity P-wave (km/s) = 7.14927 7.70349 7.43155
#
# Compressibility (1/GPa) = 0.01565760
#
# Stress axis : x y z
#
# Youngs Moduli (GPa) = 89.31998 58.75516 93.89903
#
# Poissons Ratio (x) = 0.16613 0.49303
# Poissons Ratio (y) = 0.25256 0.33105
# Poissons Ratio (z) = 0.46898 0.20715
#
# Static dielectric constant tensor:
#      x y z
#    x 1.832730 0.000000 0.000000 
#    y 0.000000 1.901160 0.000000 
#    z 0.000000 0.000000 1.754590 
# 
# From -- ./inp_files/27527.got.cif
#   From: 2010.05.17/outbox.cif.g08.bks.cpg/sg73_14_cif.got.tgz:27527.got - 2010.06.03 17:35:07.
