data_PCOD9532553
_publ_section_title
;
Structure prediction by ZEFSAII (Michael W. Deem and Ramdas Pophale) SiO2 
 PCOD9532553
Probable space group: I B C A 
;
_chemical_formula_sum "Si O2"
_cell_formula_units_Z 96
_cell_length_a 15.222212
_cell_length_b 21.265545
_cell_length_c 14.822402
_cell_angle_alpha 90.000000
_cell_angle_beta 90.000000
_cell_angle_gamma 90.000000
_cell_volume 4798.139508
_symmetry_space_group_name_H-M "I B C A "
_symmetry_group_IT_number 73
_symmetry_cell_setting 'orthorhombic'
loop_
_space_group_symop_operation_xyz
x,y,z
-x,1/2-y,z
x,-y,1/2-z
1/2-x,y,-z
-x,-y,-z
x,1/2+y,-z
-x,y,1/2+z
1/2+x,-y,z
1/2+x,1/2+y,1/2+z
1/2-x,-y,1/2+z
1/2+x,1/2-y,-z
-x,1/2+y,1/2-z
1/2-x,1/2-y,1/2-z
1/2+x,y,1/2-z
1/2-x,1/2+y,z
x,1/2-y,1/2+z
loop_
_atom_site_type_symbol
_atom_site_label
_atom_site_fract_x
_atom_site_fract_y
_atom_site_fract_z
Si Si1 0.085803 0.112403 0.201364
Si Si2 0.766560 0.568834 0.758285
Si Si3 0.501923 0.576565 0.512002
Si Si4 0.821947 0.357490 0.572166
Si Si5 0.077908 0.637324 0.168544
Si Si6 0.098402 0.745392 0.296094
O O1 0.164819 0.069401 0.233462
O O2 0.126850 0.182804 0.209625
O O3 0.997846 0.112436 0.262377
O O4 0.056308 0.093581 0.101770
O O5 0.804893 0.500000 0.750000
O O6 0.778449 0.593632 0.858891
O O7 0.827115 0.609761 0.692377
O O8 0.500000 0.500000 0.500000
O O9 0.405669 0.607600 0.527781
O O10 0.546137 0.613368 0.428099
O O11 0.750000 0.337607 0.500000
O O12 0.849911 0.299206 0.635694
O O13 0.088421 0.710390 0.199253
O O14 0.000000 0.750000 0.334723
#
# Coordination Sequence:
#
# PCOD9532553 Si02
#       6
#    16  16  16  16  16  16
#     4  11  24  45  68  98 134 177 222 281 331 396
#     4  11  24  42  65  93 136 173 219 273 335 403
#     4  12  25  42  69 100 136 174 226 272 343 409
#     4  11  23  43  67  98 130 178 219 276 340 401
#     4  10  23  43  67  96 127 182 212 276 339 394
#     4   9  19  47  64  91 134 167 220 274 326 394
#
# _framework density 20.007756000000001
#
# number of rings (size 3 to 8) (size 9 to 14) (size 15 to 20)
#    0.000    1.333    5.000    2.000    4.667    3.333 
#   15.000    0.000    0.000    0.000    0.000    0.000 
#    0.000    0.000    0.000    0.000    0.000    0.000 
#
# Total GULP energy -267800.769864 kJ/mol
# GULP energy per Si atom -5579.182705 kJ/mol
# Density = 1.996222 g / cm^3
# Si number density = 20.007756 Si / 1000 Ang^3
#
#
#
# Elastic Constant Matrix: (Units=GPa)
#
#
# Indices 1 2 3 4 5 6 
#
# 1 53.4028 9.7957 -11.8912 0.0001 0.0000 0.0000
# 2 9.7957 108.8619 18.0953 0.0001 0.0000 0.0000
# 3 -11.8912 18.0953 58.6430 0.0003 0.0000 0.0000
# 4 0.0001 0.0001 0.0003 10.5589 0.0000 0.0000
# 5 0.0000 0.0000 0.0000 0.0000 20.7144 0.0000
# 6 0.0000 0.0000 0.0000 0.0000 0.0000 21.6462
#
#
#
# Elastic Compliance Matrix: (Units=1/GPa)
#
#
# Indices 1 2 3 4 5 6 
#
# 1 0.020310 -0.002648 0.004935 0.000000 0.000000 0.000000
# 2 -0.002648 0.010028 -0.003631 0.000000 0.000000 0.000000
# 3 0.004935 -0.003631 0.019174 -0.000001 0.000000 0.000000
# 4 0.000000 0.000000 -0.000001 0.094707 0.000000 0.000000
# 5 0.000000 0.000000 0.000000 0.000000 0.048276 0.000000
# 6 0.000000 0.000000 0.000000 0.000000 0.000000 0.046197
#
#
# Mechanical properties :
#
#
# Convention : Reuss Voigt Hill
#
# Bulk Modulus (GPa) = 21.35643 28.10081 24.72862
# Shear Modulus (GPa) = 19.45625 24.24444 21.85035
#
# Velocity S-wave (km/s) = 3.12177 3.48480 3.30827
# Velocity P-wave (km/s) = 4.86736 5.50156 5.19415
#
# Compressibility (1/GPa) = 0.04682431
#
# Stress axis : x y z
#
# Youngs Moduli (GPa) = 49.23610 99.72269 52.15512
#
# Poissons Ratio (x) = 0.26406 -0.25741
# Poissons Ratio (y) = 0.13038 0.18939
# Poissons Ratio (z) = -0.24300 0.36211
#
# Static dielectric constant tensor:
#      x y z
#    x 1.693660 0.000000 0.000000 
#    y 0.000000 1.855110 0.000000 
#    z 0.000000 0.000000 1.704820 
# 
# From -- ./inp_files/17031.got.cif
#   From: 2010.05.17/outbox.cif.g08.bks.cpg/sg73_9_cif.got.tgz:17031.got - 2010.06.03 17:35:07.
