data_PCOD9532074
_publ_section_title
;
Structure prediction by ZEFSAII (Michael W. Deem and Ramdas Pophale) SiO2 
 PCOD9532074
Probable space group: I B C A 
;
_chemical_formula_sum "Si O2"
_cell_formula_units_Z 80
_cell_length_a 21.497253
_cell_length_b 13.358277
_cell_length_c 11.801965
_cell_angle_alpha 90.000000
_cell_angle_beta 90.000000
_cell_angle_gamma 90.000000
_cell_volume 3389.126153
_symmetry_space_group_name_H-M "I B C A "
_symmetry_group_IT_number 73
_symmetry_cell_setting 'orthorhombic'
loop_
_space_group_symop_operation_xyz
x,y,z
-x,1/2-y,z
x,-y,1/2-z
1/2-x,y,-z
-x,-y,-z
x,1/2+y,-z
-x,y,1/2+z
1/2+x,-y,z
1/2+x,1/2+y,1/2+z
1/2-x,-y,1/2+z
1/2+x,1/2-y,-z
-x,1/2+y,1/2-z
1/2-x,1/2-y,1/2-z
1/2+x,y,1/2-z
1/2-x,1/2+y,z
x,1/2-y,1/2+z
loop_
_atom_site_type_symbol
_atom_site_label
_atom_site_fract_x
_atom_site_fract_y
_atom_site_fract_z
Si Si1 0.623871 0.945071 0.408152
Si Si2 0.684941 0.744674 0.813134
Si Si3 0.508339 0.629138 0.323000
Si Si4 0.908930 0.160711 0.130931
Si Si5 0.612576 0.352068 0.999709
O O1 0.669686 0.870502 0.343193
O O2 0.556116 0.920312 0.357198
O O3 0.623345 0.910347 0.539723
O O4 0.634206 0.063263 0.412583
O O5 0.750000 0.750000 0.750000
O O6 0.636364 0.796594 0.727498
O O7 0.670166 0.804896 0.929846
O O8 0.500000 0.750000 0.325888
O O9 0.534159 0.609810 0.196747
O O10 0.561757 0.604183 0.413574
O O11 0.923066 0.260800 0.060506
#
# Coordination Sequence:
#
# PCOD9532074 Si02
#       5
#    16  16  16  16  16
#     4  11  23  41  64 100 131 176 233 277 341 414
#     4  10  23  44  66  92 127 179 229 288 355 398
#     4  11  20  38  60  97 132 182 209 270 345 420
#     4  10  22  41  64  86 139 170 220 277 350 405
#     4  10  23  41  64  97 133 173 231 277 338 417
#
# _framework density 23.604904999999999
#
# number of rings (size 3 to 8) (size 9 to 14) (size 15 to 20)
#    0.000    1.600    6.000    0.600    2.800    7.200 
#    3.600    6.000    0.000    0.000    0.000    0.000 
#    0.000    0.000    0.000    0.000    0.000    0.000 
#
# Total GULP energy -223820.869743 kJ/mol
# GULP energy per Si atom -5595.521744 kJ/mol
# Density = 2.355118 g / cm^3
# Si number density = 23.604905 Si / 1000 Ang^3
#
#
#
# Elastic Constant Matrix: (Units=GPa)
#
#
# Indices 1 2 3 4 5 6 
#
# 1 110.6243 29.6367 34.0229 0.0000 0.0000 0.0000
# 2 29.6367 104.1248 25.6327 0.0000 0.0000 0.0000
# 3 34.0229 25.6327 102.3541 0.0000 0.0000 0.0000
# 4 0.0000 0.0000 0.0000 36.8313 0.0000 0.0000
# 5 0.0000 0.0000 0.0000 0.0000 14.5071 0.0000
# 6 0.0000 0.0000 0.0000 0.0000 0.0000 18.8373
#
#
#
# Elastic Compliance Matrix: (Units=1/GPa)
#
#
# Indices 1 2 3 4 5 6 
#
# 1 0.010554 -0.002281 -0.002937 0.000000 0.000000 0.000000
# 2 -0.002281 0.010728 -0.001928 0.000000 0.000000 0.000000
# 3 -0.002937 -0.001928 0.011229 0.000000 0.000000 0.000000
# 4 0.000000 0.000000 0.000000 0.027151 0.000000 0.000000
# 5 0.000000 0.000000 0.000000 0.000000 0.068932 0.000000
# 6 0.000000 0.000000 0.000000 0.000000 0.000000 0.053086
#
#
# Mechanical properties :
#
#
# Convention : Reuss Voigt Hill
#
# Bulk Modulus (GPa) = 54.88965 55.07643 54.98304
# Shear Modulus (GPa) = 24.74696 29.22253 26.98475
#
# Velocity S-wave (km/s) = 3.24139 3.52232 3.38477
# Velocity P-wave (km/s) = 6.10842 6.31867 6.21443
#
# Compressibility (1/GPa) = 0.01821837
#
# Stress axis : x y z
#
# Youngs Moduli (GPa) = 94.75126 93.21580 89.05365
#
# Poissons Ratio (x) = 0.21262 0.26155
# Poissons Ratio (y) = 0.21612 0.17173
# Poissons Ratio (z) = 0.27828 0.17976
#
# Static dielectric constant tensor:
#      x y z
#    x 1.866400 0.000000 0.000000 
#    y 0.000000 1.956970 0.000000 
#    z 0.000000 0.000000 1.969480 
# 
# From -- ./inp_files/13411.got.cif
#   From: 2010.05.17/outbox.cif.g08.bks.cpg/sg73_7_cif.got.tgz:13411.got - 2010.06.03 17:35:07.
