data_PCOD9532712
_publ_section_title
;
Structure prediction by ZEFSAII (Michael W. Deem and Ramdas Pophale) SiO2 
 PCOD9532712
Probable space group: I B C A 
;
_chemical_formula_sum "Si O2"
_cell_formula_units_Z 72
_cell_length_a 16.969371
_cell_length_b 9.499214
_cell_length_c 20.752447
_cell_angle_alpha 90.000000
_cell_angle_beta 90.000000
_cell_angle_gamma 90.000000
_cell_volume 3345.204942
_symmetry_space_group_name_H-M "I B C A "
_symmetry_group_IT_number 73
_symmetry_cell_setting 'orthorhombic'
loop_
_space_group_symop_operation_xyz
x,y,z
-x,1/2-y,z
x,-y,1/2-z
1/2-x,y,-z
-x,-y,-z
x,1/2+y,-z
-x,y,1/2+z
1/2+x,-y,z
1/2+x,1/2+y,1/2+z
1/2-x,-y,1/2+z
1/2+x,1/2-y,-z
-x,1/2+y,1/2-z
1/2-x,1/2-y,1/2-z
1/2+x,y,1/2-z
1/2-x,1/2+y,z
x,1/2-y,1/2+z
loop_
_atom_site_type_symbol
_atom_site_label
_atom_site_fract_x
_atom_site_fract_y
_atom_site_fract_z
Si Si1 0.713880 0.768663 0.930644
Si Si2 0.813014 0.500000 0.250000
Si Si3 0.803524 0.041330 0.137279
Si Si4 0.576955 0.349677 0.653754
Si Si5 0.979916 0.913517 0.316799
O O1 0.773055 0.694402 0.880855
O O2 0.630570 0.706759 0.904520
O O3 0.706149 0.935161 0.921888
O O4 0.750000 0.736136 0.000000
O O5 0.752314 0.527364 0.308083
O O6 0.868131 0.376460 0.281852
O O7 0.892843 0.056165 0.158355
O O8 0.500000 0.250000 0.662707
O O9 0.543974 0.505467 0.639701
O O10 0.000000 0.750000 0.312148
O O11 0.983970 0.000000 0.250000
#
# Coordination Sequence:
#
# PCOD9532712 Si02
#       5
#    16   8  16  16  16
#     4  11  26  47  70  98 143 198 255 302 357 435
#     4  10  24  38  70 108 144 184 232 290 376 442
#     4  11  25  44  73 104 146 192 246 300 372 441
#     4  11  23  43  69 104 148 190 234 307 377 436
#     4  12  26  41  70 112 157 188 236 298 381 452
#
# _framework density 21.523346
#
# number of rings (size 3 to 8) (size 9 to 14) (size 15 to 20)
#    0.000    0.889    4.444    1.333    6.222    3.556 
#    0.000    2.222    0.000    0.000    0.000    0.000 
#    0.000    0.000    0.000    0.000    0.000    0.000 
#
# Total GULP energy -200771.365979 kJ/mol
# GULP energy per Si atom -5576.982388 kJ/mol
# Density = 2.147436 g / cm^3
# Si number density = 21.523346 Si / 1000 Ang^3
#
#
#
# Elastic Constant Matrix: (Units=GPa)
#
#
# Indices 1 2 3 4 5 6 
#
# 1 103.7640 18.9891 45.2140 0.0000 0.0000 0.0000
# 2 18.9891 128.4300 30.5261 0.0000 0.0000 0.0000
# 3 45.2140 30.5261 93.1936 0.0000 0.0000 0.0000
# 4 0.0000 0.0000 0.0000 17.8697 0.0000 0.0000
# 5 0.0000 0.0000 0.0000 0.0000 23.0585 0.0000
# 6 0.0000 0.0000 0.0000 0.0000 0.0000 19.8578
#
#
#
# Elastic Compliance Matrix: (Units=1/GPa)
#
#
# Indices 1 2 3 4 5 6 
#
# 1 0.012243 -0.000432 -0.005798 0.000000 0.000000 0.000000
# 2 -0.000432 0.008459 -0.002561 0.000000 0.000000 0.000000
# 3 -0.005798 -0.002561 0.014382 0.000000 0.000000 0.000000
# 4 0.000000 0.000000 0.000000 0.055960 0.000000 0.000000
# 5 0.000000 0.000000 0.000000 0.000000 0.043368 0.000000
# 6 0.000000 0.000000 0.000000 0.000000 0.000000 0.050358
#
#
# Mechanical properties :
#
#
# Convention : Reuss Voigt Hill
#
# Bulk Modulus (GPa) = 57.13867 57.20512 57.17190
# Shear Modulus (GPa) = 24.01681 27.53442 25.77562
#
# Velocity S-wave (km/s) = 3.34406 3.58058 3.46434
# Velocity P-wave (km/s) = 6.44323 6.61287 6.52860
#
# Compressibility (1/GPa) = 0.01750128
#
# Stress axis : x y z
#
# Youngs Moduli (GPa) = 81.68038 118.21757 69.52948
#
# Poissons Ratio (x) = 0.05107 0.40315
# Poissons Ratio (y) = 0.03529 0.17808
# Poissons Ratio (z) = 0.47360 0.30278
#
# Static dielectric constant tensor:
#      x y z
#    x 1.821240 0.000000 0.000000 
#    y 0.000000 1.791020 0.000000 
#    z 0.000000 0.000000 1.853230 
# 
# From -- ./inp_files/22976.got.cif
#   From: 2010.05.17/outbox.cif.g08.bks.cpg/sg73_12_cif.got.tgz:22976.got - 2010.06.03 17:35:07.
