data_PCOD9532015
_publ_section_title
;
Structure prediction by ZEFSAII (Michael W. Deem and Ramdas Pophale) SiO2 
 PCOD9532015
Probable space group: I B C A 
;
_chemical_formula_sum "Si O2"
_cell_formula_units_Z 120
_cell_length_a 17.639355
_cell_length_b 11.894502
_cell_length_c 26.486972
_cell_angle_alpha 90.000000
_cell_angle_beta 90.000000
_cell_angle_gamma 90.000000
_cell_volume 5557.267176
_symmetry_space_group_name_H-M "I B C A "
_symmetry_group_IT_number 73
_symmetry_cell_setting 'orthorhombic'
loop_
_space_group_symop_operation_xyz
x,y,z
-x,1/2-y,z
x,-y,1/2-z
1/2-x,y,-z
-x,-y,-z
x,1/2+y,-z
-x,y,1/2+z
1/2+x,-y,z
1/2+x,1/2+y,1/2+z
1/2-x,-y,1/2+z
1/2+x,1/2-y,-z
-x,1/2+y,1/2-z
1/2-x,1/2-y,1/2-z
1/2+x,y,1/2-z
1/2-x,1/2+y,z
x,1/2-y,1/2+z
loop_
_atom_site_type_symbol
_atom_site_label
_atom_site_fract_x
_atom_site_fract_y
_atom_site_fract_z
Si Si1 0.336616 0.011394 0.097051
Si Si2 0.810242 0.500000 0.250000
Si Si3 0.417393 0.948046 0.306013
Si Si4 0.091418 0.438835 0.838718
Si Si5 0.722931 0.687921 0.299749
Si Si6 0.665998 0.695885 0.024351
Si Si7 0.317180 0.369009 0.387406
Si Si8 0.910511 0.755763 0.578380
O O1 0.374022 0.979623 0.150945
O O2 0.247520 0.039264 0.099795
O O3 0.374556 0.132109 0.084454
O O4 0.348845 0.916604 0.055941
O O5 0.862933 0.574279 0.213762
O O6 0.756096 0.564139 0.287931
O O7 0.502814 0.931195 0.325264
O O8 0.366429 0.834232 0.304160
O O9 0.418216 0.000000 0.250000
O O10 0.115029 0.562344 0.860507
O O11 0.115225 0.347404 0.880243
O O12 0.750000 0.750000 0.250000
O O13 0.771419 0.716448 0.349572
O O14 0.659830 0.800181 0.063182
O O15 0.750000 0.696184 0.000000
O O16 0.610190 0.704185 0.977391
O O17 0.000000 0.750000 0.584280
#
# Coordination Sequence:
#
# PCOD9532015 Si02
#       8
#    16   8  16  16  16  16  16  16
#     4  11  26  47  72 107 142 191 246 305 372 450
#     4  10  22  40  66 102 138 180 242 294 368 432
#     4  11  23  45  72 103 146 193 235 299 374 447
#     4  11  24  44  71 105 147 187 241 310 361 452
#     4  10  23  39  69 100 138 185 238 297 361 446
#     4  12  27  45  75 104 145 188 249 310 369 445
#     4  10  25  44  69 108 140 185 245 304 365 434
#     4  12  27  45  73 103 143 194 241 304 380 440
#
# _framework density 21.593347000000001
#
# number of rings (size 3 to 8) (size 9 to 14) (size 15 to 20)
#    0.000    1.067    4.000    0.800    9.333    1.600 
#    0.000    0.000    0.000    0.000    0.000    0.000 
#    0.000    0.000    0.000    0.000    0.000    0.000 
#
# Total GULP energy -335199.131339 kJ/mol
# GULP energy per Si atom -5586.652189 kJ/mol
# Density = 2.154420 g / cm^3
# Si number density = 21.593347 Si / 1000 Ang^3
#
#
#
# Elastic Constant Matrix: (Units=GPa)
#
#
# Indices 1 2 3 4 5 6 
#
# 1 112.6050 41.0485 31.7052 0.0000 0.0000 0.0000
# 2 41.0485 81.2498 63.4816 0.0000 0.0000 0.0000
# 3 31.7052 63.4816 171.5411 0.0000 0.0000 0.0000
# 4 0.0000 0.0000 0.0000 56.0127 0.0000 0.0000
# 5 0.0000 0.0000 0.0000 0.0000 43.1823 0.0000
# 6 0.0000 0.0000 0.0000 0.0000 0.0000 16.4102
#
#
#
# Elastic Compliance Matrix: (Units=1/GPa)
#
#
# Indices 1 2 3 4 5 6 
#
# 1 0.010885 -0.005525 0.000033 0.000000 0.000000 0.000000
# 2 -0.005525 0.020118 -0.006424 0.000000 0.000000 0.000000
# 3 0.000033 -0.006424 0.008201 0.000000 0.000000 0.000000
# 4 0.000000 0.000000 0.000000 0.017853 0.000000 0.000000
# 5 0.000000 0.000000 0.000000 0.000000 0.023158 0.000000
# 6 0.000000 0.000000 0.000000 0.000000 0.000000 0.060938
#
#
# Mechanical properties :
#
#
# Convention : Reuss Voigt Hill
#
# Bulk Modulus (GPa) = 65.05377 70.87405 67.96391
# Shear Modulus (GPa) = 29.39289 38.39842 33.89566
#
# Velocity S-wave (km/s) = 3.69345 4.22151 3.96628
# Velocity P-wave (km/s) = 6.95564 7.52695 7.24692
#
# Compressibility (1/GPa) = 0.01537190
#
# Stress axis : x y z
#
# Youngs Moduli (GPa) = 91.86565 49.70647 121.94061
#
# Poissons Ratio (x) = 0.27463 -0.00399
# Poissons Ratio (y) = 0.50756 0.78333
# Poissons Ratio (z) = -0.00301 0.31931
#
# Static dielectric constant tensor:
#      x y z
#    x 1.802810 0.000000 0.000000 
#    y 0.000000 1.852160 0.000000 
#    z 0.000000 0.000000 1.852600 
# 
# From -- ./inp_files/32455.got.cif
#   From: 2010.05.17/outbox.cif.g08.bks.cpg/sg73_17_cif.got.tgz:32455.got - 2010.06.03 17:35:07.
