data_PCOD9532135
_publ_section_title
;
Structure prediction by ZEFSAII (Michael W. Deem and Ramdas Pophale) SiO2 
 PCOD9532135
Probable space group: I B C A 
;
_chemical_formula_sum "Si O2"
_cell_formula_units_Z 80
_cell_length_a 25.195538
_cell_length_b 9.591654
_cell_length_c 15.183307
_cell_angle_alpha 90.000000
_cell_angle_beta 90.000000
_cell_angle_gamma 90.000000
_cell_volume 3669.302474
_symmetry_space_group_name_H-M "I B C A "
_symmetry_group_IT_number 73
_symmetry_cell_setting 'orthorhombic'
loop_
_space_group_symop_operation_xyz
x,y,z
-x,1/2-y,z
x,-y,1/2-z
1/2-x,y,-z
-x,-y,-z
x,1/2+y,-z
-x,y,1/2+z
1/2+x,-y,z
1/2+x,1/2+y,1/2+z
1/2-x,-y,1/2+z
1/2+x,1/2-y,-z
-x,1/2+y,1/2-z
1/2-x,1/2-y,1/2-z
1/2+x,y,1/2-z
1/2-x,1/2+y,z
x,1/2-y,1/2+z
loop_
_atom_site_type_symbol
_atom_site_label
_atom_site_fract_x
_atom_site_fract_y
_atom_site_fract_z
Si Si1 0.302642 0.800719 0.800073
Si Si2 0.626289 0.810924 0.954066
Si Si3 0.053239 0.072894 0.540779
Si Si4 0.563661 0.500000 0.750000
Si Si5 0.000000 0.250000 0.192603
Si Si6 0.344252 0.078355 0.862643
O O1 0.250000 0.750000 0.750000
O O2 0.331225 0.716520 0.877291
O O3 0.341132 0.811411 0.716106
O O4 0.301030 0.957648 0.842441
O O5 0.590593 0.944545 0.933259
O O6 0.587425 0.682245 0.981021
O O7 0.657417 0.853419 0.043379
O O8 0.036704 0.162216 0.625927
O O9 0.000000 0.000000 0.500000
O O10 0.529748 0.361411 0.748297
O O11 0.599458 0.490509 0.837793
#
# Coordination Sequence:
#
# PCOD9532135 Si02
#       6
#    16  16  16   8   8  16
#     4  10  24  47  74 106 144 193 258 332 400 470
#     4  12  23  47  76 108 156 213 249 330 397 471
#     4  12  23  42  70 114 157 212 265 305 386 492
#     4  10  22  42  64 102 158 206 252 324 364 470
#     4  12  24  40  64 110 162 208 278 300 386 460
#     4  10  23  48  71 102 151 191 259 329 403 461
#
# _framework density 21.802509000000001
#
# number of rings (size 3 to 8) (size 9 to 14) (size 15 to 20)
#    0.000    1.200    6.000    0.000    2.800    4.000 
#    7.200    4.000    0.000    0.000    0.000    0.000 
#    0.000    0.000    0.000    0.000    0.000    0.000 
#
# Total GULP energy -223180.322500 kJ/mol
# GULP energy per Si atom -5579.508062 kJ/mol
# Density = 2.175289 g / cm^3
# Si number density = 21.802509 Si / 1000 Ang^3
#
#
#
# Elastic Constant Matrix: (Units=GPa)
#
#
# Indices 1 2 3 4 5 6 
#
# 1 108.0811 77.8321 79.3661 0.0000 0.0000 0.0000
# 2 77.8321 146.6933 78.5580 0.0000 0.0000 0.0000
# 3 79.3661 78.5580 180.0207 0.0000 0.0000 0.0000
# 4 0.0000 0.0000 0.0000 49.0468 0.0000 0.0000
# 5 0.0000 0.0000 0.0000 0.0000 20.6206 0.0000
# 6 0.0000 0.0000 0.0000 0.0000 0.0000 35.4708
#
#
#
# Elastic Compliance Matrix: (Units=1/GPa)
#
#
# Indices 1 2 3 4 5 6 
#
# 1 0.017702 -0.006803 -0.004836 0.000000 0.000000 0.000000
# 2 -0.006803 0.011510 -0.002024 0.000000 0.000000 0.000000
# 3 -0.004836 -0.002024 0.008570 0.000000 0.000000 0.000000
# 4 0.000000 0.000000 0.000000 0.020389 0.000000 0.000000
# 5 0.000000 0.000000 0.000000 0.000000 0.048495 0.000000
# 6 0.000000 0.000000 0.000000 0.000000 0.000000 0.028192
#
#
# Mechanical properties :
#
#
# Convention : Reuss Voigt Hill
#
# Bulk Modulus (GPa) = 95.62194 100.70083 98.16138
# Shear Modulus (GPa) = 30.18078 34.29689 32.23884
#
# Velocity S-wave (km/s) = 3.72463 3.97050 3.84953
# Velocity P-wave (km/s) = 7.90257 8.20413 8.05476
#
# Compressibility (1/GPa) = 0.01045785
#
# Stress axis : x y z
#
# Youngs Moduli (GPa) = 56.49054 86.88105 116.68631
#
# Poissons Ratio (x) = 0.59102 0.56427
# Poissons Ratio (y) = 0.38428 0.23614
# Poissons Ratio (z) = 0.27318 0.17582
#
# Static dielectric constant tensor:
#      x y z
#    x 1.924830 0.000000 0.000000 
#    y 0.000000 2.039470 0.000000 
#    z 0.000000 0.000000 1.795500 
# 
# From -- ./inp_files/23838.got.cif
#   From: 2010.05.17/outbox.cif.g08.bks.cpg/sg73_12_cif.got.tgz:23838.got - 2010.06.03 17:35:07.
