data_PCOD9532372
_publ_section_title
;
Structure prediction by ZEFSAII (Michael W. Deem and Ramdas Pophale) SiO2 
 PCOD9532372
Probable space group: I B C A 
;
_chemical_formula_sum "Si O2"
_cell_formula_units_Z 56
_cell_length_a 10.078613
_cell_length_b 21.738388
_cell_length_c 9.251516
_cell_angle_alpha 90.000000
_cell_angle_beta 90.000000
_cell_angle_gamma 90.000000
_cell_volume 2026.940544
_symmetry_space_group_name_H-M "I B C A "
_symmetry_group_IT_number 73
_symmetry_cell_setting 'orthorhombic'
loop_
_space_group_symop_operation_xyz
x,y,z
-x,1/2-y,z
x,-y,1/2-z
1/2-x,y,-z
-x,-y,-z
x,1/2+y,-z
-x,y,1/2+z
1/2+x,-y,z
1/2+x,1/2+y,1/2+z
1/2-x,-y,1/2+z
1/2+x,1/2-y,-z
-x,1/2+y,1/2-z
1/2-x,1/2-y,1/2-z
1/2+x,y,1/2-z
1/2-x,1/2+y,z
x,1/2-y,1/2+z
loop_
_atom_site_type_symbol
_atom_site_label
_atom_site_fract_x
_atom_site_fract_y
_atom_site_fract_z
Si Si1 0.585370 0.969448 0.583751
Si Si2 0.796819 0.644080 0.775279
Si Si3 0.367255 0.256136 0.100518
Si Si4 0.250000 0.939752 0.500000
O O1 0.750000 0.982822 0.500000
O O2 0.619748 0.898836 0.620182
O O3 0.580284 0.000000 0.750000
O O4 0.569198 0.039089 0.490093
O O5 0.668901 0.676327 0.845385
O O6 0.875325 0.704304 0.722889
O O7 0.755569 0.600409 0.643311
O O8 0.500000 0.250000 0.013720
O O9 0.250000 0.235079 0.000000
#
# Coordination Sequence:
#
# PCOD9532372 Si02
#       4
#    16  16  16   8
#     4  10  24  43  73 109 149 206 256 335 416 502
#     4  10  24  47  70 113 151 209 267 340 410 507
#     4  11  26  46  78 113 158 219 275 348 420 497
#     4  10  22  46  66 102 154 188 260 328 412 498
#
# _framework density 27.627846999999999
#
# number of rings (size 3 to 8) (size 9 to 14) (size 15 to 20)
#    0.000    1.714    1.429    0.000    6.000   12.571 
#    0.000    0.000    0.000    0.000    0.000    0.000 
#    0.000    0.000    0.000    0.000    0.000    0.000 
#
# Total GULP energy -156120.187180 kJ/mol
# GULP energy per Si atom -5575.720971 kJ/mol
# Density = 2.756496 g / cm^3
# Si number density = 27.627847 Si / 1000 Ang^3
#
#
#
# Elastic Constant Matrix: (Units=GPa)
#
#
# Indices 1 2 3 4 5 6 
#
# 1 194.9469 91.6716 83.6781 0.0000 0.0000 0.0000
# 2 91.6716 237.8633 115.6532 0.0001 0.0000 0.0000
# 3 83.6781 115.6532 151.9827 0.0000 0.0001 0.0002
# 4 0.0000 0.0001 0.0000 60.0347 0.0000 0.0000
# 5 0.0000 0.0000 0.0001 0.0000 40.9662 0.0000
# 6 0.0000 0.0000 0.0002 0.0000 0.0000 41.6089
#
#
#
# Elastic Compliance Matrix: (Units=1/GPa)
#
#
# Indices 1 2 3 4 5 6 
#
# 1 0.006962 -0.001301 -0.002843 0.000000 0.000000 0.000000
# 2 -0.001301 0.006916 -0.004547 0.000000 0.000000 0.000000
# 3 -0.002843 -0.004547 0.011605 0.000000 0.000000 0.000000
# 4 0.000000 0.000000 0.000000 0.016657 0.000000 0.000000
# 5 0.000000 0.000000 0.000000 0.000000 0.024410 0.000000
# 6 0.000000 0.000000 0.000000 0.000000 0.000000 0.024033
#
#
# Mechanical properties :
#
#
# Convention : Reuss Voigt Hill
#
# Bulk Modulus (GPa) = 123.43318 129.64428 126.53873
# Shear Modulus (GPa) = 45.18136 48.10795 46.64465
#
# Velocity S-wave (km/s) = 4.04834 4.17740 4.11338
# Velocity P-wave (km/s) = 8.16248 8.38419 8.27408
#
# Compressibility (1/GPa) = 0.00810155
#
# Stress axis : x y z
#
# Youngs Moduli (GPa) = 143.64560 144.59102 86.16931
#
# Poissons Ratio (x) = 0.18805 0.24500
# Poissons Ratio (y) = 0.18682 0.39180
# Poissons Ratio (z) = 0.40842 0.65743
#
# Static dielectric constant tensor:
#      x y z
#    x 3.891770 0.000000 0.000000 
#    y 0.000000 2.013820 0.000000 
#    z 0.000000 0.000000 2.197060 
# 
# From -- ./inp_files/9375.got.cif
#   From: 2010.05.17/outbox.cif.g08.bks.cpg/sg73_5_cif.got.tgz:9375.got - 2010.06.03 17:35:07.
