data_PCOD9532938
_publ_section_title
;
Structure prediction by ZEFSAII (Michael W. Deem and Ramdas Pophale) SiO2 
 PCOD9532938
Probable space group: I B C A 
;
_chemical_formula_sum "Si O2"
_cell_formula_units_Z 72
_cell_length_a 13.450531
_cell_length_b 8.929765
_cell_length_c 23.268198
_cell_angle_alpha 90.000000
_cell_angle_beta 90.000000
_cell_angle_gamma 90.000000
_cell_volume 2794.745145
_symmetry_space_group_name_H-M "I B C A "
_symmetry_group_IT_number 73
_symmetry_cell_setting 'orthorhombic'
loop_
_space_group_symop_operation_xyz
x,y,z
-x,1/2-y,z
x,-y,1/2-z
1/2-x,y,-z
-x,-y,-z
x,1/2+y,-z
-x,y,1/2+z
1/2+x,-y,z
1/2+x,1/2+y,1/2+z
1/2-x,-y,1/2+z
1/2+x,1/2-y,-z
-x,1/2+y,1/2-z
1/2-x,1/2-y,1/2-z
1/2+x,y,1/2-z
1/2-x,1/2+y,z
x,1/2-y,1/2+z
loop_
_atom_site_type_symbol
_atom_site_label
_atom_site_fract_x
_atom_site_fract_y
_atom_site_fract_z
Si Si1 0.364859 0.170007 0.705899
Si Si2 0.860335 0.064945 0.472434
Si Si3 0.500000 0.750000 0.386254
Si Si4 0.604608 0.264921 0.922150
Si Si5 0.223761 0.898621 0.322516
O O1 0.450704 0.137279 0.660461
O O2 0.328578 0.337991 0.698005
O O3 0.359999 0.137997 0.773487
O O4 0.273104 0.076233 0.679499
O O5 0.750000 0.096611 0.500000
O O6 0.921789 0.110938 0.529227
O O7 0.913843 0.172377 0.424730
O O8 0.862553 0.894010 0.449992
O O9 0.500000 0.250000 0.889355
O O10 0.688500 0.334822 0.882197
#
# Coordination Sequence:
#
# PCOD9532938 Si02
#       5
#    16  16   8  16  16
#     4  10  24  47  73 108 148 195 255 319 387 470
#     4  12  28  48  72 109 152 207 255 320 391 455
#     4  12  26  48  78 112 152 198 264 322 386 476
#     4  12  26  45  73 104 148 196 256 319 382 459
#     4  10  24  46  73 106 148 199 252 314 396 456
#
# _framework density 25.762637000000002
#
# number of rings (size 3 to 8) (size 9 to 14) (size 15 to 20)
#    0.000    0.889    1.111    4.000   10.889    0.000 
#    0.000    0.000    0.000    0.000    0.000    0.000 
#    0.000    0.000    0.000    0.000    0.000    0.000 
#
# Total GULP energy -200720.271144 kJ/mol
# GULP energy per Si atom -5575.563087 kJ/mol
# Density = 2.570400 g / cm^3
# Si number density = 25.762637 Si / 1000 Ang^3
#
#
#
# Elastic Constant Matrix: (Units=GPa)
#
#
# Indices 1 2 3 4 5 6 
#
# 1 92.3051 7.6790 34.3878 0.0000 0.0000 0.0000
# 2 7.6790 86.9363 32.6609 0.0000 0.0000 0.0000
# 3 34.3878 32.6609 187.9632 0.0000 0.0000 0.0000
# 4 0.0000 0.0000 0.0000 36.1569 0.0000 0.0000
# 5 0.0000 0.0000 0.0000 0.0000 38.6454 0.0000
# 6 0.0000 0.0000 0.0000 0.0000 0.0000 24.1088
#
#
#
# Elastic Compliance Matrix: (Units=1/GPa)
#
#
# Indices 1 2 3 4 5 6 
#
# 1 0.011631 -0.000244 -0.002085 0.000000 0.000000 0.000000
# 2 -0.000244 0.012311 -0.002095 0.000000 0.000000 0.000000
# 3 -0.002085 -0.002095 0.006066 0.000000 0.000000 0.000000
# 4 0.000000 0.000000 0.000000 0.027657 0.000000 0.000000
# 5 0.000000 0.000000 0.000000 0.000000 0.025876 0.000000
# 6 0.000000 0.000000 0.000000 0.000000 0.000000 0.041479
#
#
# Mechanical properties :
#
#
# Convention : Reuss Voigt Hill
#
# Bulk Modulus (GPa) = 47.25941 57.40668 52.33305
# Shear Modulus (GPa) = 35.48086 39.28068 37.38077
#
# Velocity S-wave (km/s) = 3.71512 3.90900 3.81329
# Velocity P-wave (km/s) = 6.06521 6.53490 6.30443
#
# Compressibility (1/GPa) = 0.02115981
#
# Stress axis : x y z
#
# Youngs Moduli (GPa) = 85.97810 81.22734 164.86164
#
# Poissons Ratio (x) = 0.01981 0.34382
# Poissons Ratio (y) = 0.02097 0.34532
# Poissons Ratio (z) = 0.17931 0.17014
#
# Static dielectric constant tensor:
#      x y z
#    x 2.138140 0.000000 0.000000 
#    y 0.000000 2.071270 0.000000 
#    z 0.000000 0.000000 2.025140 
# 
# From -- ./inp_files/15505.got.cif
#   From: 2010.05.17/outbox.cif.g08.bks.cpg/sg73_8_cif.got.tgz:15505.got - 2010.06.03 17:35:07.
