data_PCOD9532267
_publ_section_title
;
Structure prediction by ZEFSAII (Michael W. Deem and Ramdas Pophale) SiO2 
 PCOD9532267
Probable space group: I B C A 
;
_chemical_formula_sum "Si O2"
_cell_formula_units_Z 120
_cell_length_a 19.051725
_cell_length_b 11.201187
_cell_length_c 25.555413
_cell_angle_alpha 90.000000
_cell_angle_beta 90.000000
_cell_angle_gamma 90.000000
_cell_volume 5453.574569
_symmetry_space_group_name_H-M "I B C A "
_symmetry_group_IT_number 73
_symmetry_cell_setting 'orthorhombic'
loop_
_space_group_symop_operation_xyz
x,y,z
-x,1/2-y,z
x,-y,1/2-z
1/2-x,y,-z
-x,-y,-z
x,1/2+y,-z
-x,y,1/2+z
1/2+x,-y,z
1/2+x,1/2+y,1/2+z
1/2-x,-y,1/2+z
1/2+x,1/2-y,-z
-x,1/2+y,1/2-z
1/2-x,1/2-y,1/2-z
1/2+x,y,1/2-z
1/2-x,1/2+y,z
x,1/2-y,1/2+z
loop_
_atom_site_type_symbol
_atom_site_label
_atom_site_fract_x
_atom_site_fract_y
_atom_site_fract_z
Si Si1 0.350258 0.071748 0.105545
Si Si2 0.871488 0.500000 0.250000
Si Si3 0.422770 0.072738 0.302517
Si Si4 0.056882 0.498094 0.849279
Si Si5 0.809109 0.731010 0.294252
Si Si6 0.669277 0.517663 0.994547
Si Si7 0.309597 0.370781 0.398722
Si Si8 0.069326 0.695670 0.568978
O O1 0.265863 0.068525 0.108928
O O2 0.382720 0.203544 0.096763
O O3 0.379834 0.008812 0.156654
O O4 0.364770 0.005141 0.050825
O O5 0.916985 0.560694 0.204811
O O6 0.826818 0.595047 0.280933
O O7 0.376377 0.185599 0.286682
O O8 0.436220 0.000000 0.250000
O O9 0.496407 0.089686 0.332351
O O10 0.120804 0.565975 0.876763
O O11 0.035347 0.393270 0.888011
O O12 0.750000 0.750000 0.250000
O O13 0.797668 0.739445 0.357717
O O14 0.676644 0.392401 0.961070
O O15 0.621374 0.614320 0.965245
O O16 0.750000 0.561232 0.000000
O O17 0.000000 0.750000 0.541145
#
# Coordination Sequence:
#
# PCOD9532267 Si02
#       8
#    16   8  16  16  16  16  16  16
#     4  11  24  43  72 102 140 182 246 301 373 445
#     4  10  24  42  64  94 132 190 234 294 344 422
#     4  12  26  43  66 104 142 190 239 293 367 442
#     4  10  22  44  65  93 138 181 240 289 360 432
#     4  11  26  41  70 100 147 185 241 300 364 430
#     4   9  22  45  72  99 139 182 245 303 371 436
#     4   9  22  43  67 100 133 182 240 298 360 437
#     4  11  23  41  71 104 140 190 235 304 374 444
#
# _framework density 22.003917999999999
#
# number of rings (size 3 to 8) (size 9 to 14) (size 15 to 20)
#    0.000    1.600    2.000    0.800    8.400    7.467 
#    0.000    0.000    0.000    0.000    0.000    0.000 
#    0.000    0.000    0.000    0.000    0.000    0.000 
#
# Total GULP energy -334025.773831 kJ/mol
# GULP energy per Si atom -5567.096231 kJ/mol
# Density = 2.195384 g / cm^3
# Si number density = 22.003918 Si / 1000 Ang^3
#
#
#
# Elastic Constant Matrix: (Units=GPa)
#
#
# Indices 1 2 3 4 5 6 
#
# 1 110.4407 31.2099 37.2860 0.0000 0.0000 0.0000
# 2 31.2099 65.8077 25.6801 0.0000 0.0000 0.0000
# 3 37.2860 25.6801 98.8357 0.0000 0.0000 0.0000
# 4 0.0000 0.0000 0.0000 26.7365 0.0000 0.0000
# 5 0.0000 0.0000 0.0000 0.0000 388.2628 0.0000
# 6 0.0000 0.0000 0.0000 0.0000 0.0000 32.9844
#
#
#
# Elastic Compliance Matrix: (Units=1/GPa)
#
#
# Indices 1 2 3 4 5 6 
#
# 1 0.011294 -0.004110 -0.003193 0.000000 0.000000 0.000000
# 2 -0.004110 0.018406 -0.003232 0.000000 0.000000 0.000000
# 3 -0.003193 -0.003232 0.012162 0.000000 0.000000 0.000000
# 4 0.000000 0.000000 0.000000 0.037402 0.000000 0.000000
# 5 0.000000 0.000000 0.000000 0.000000 0.002576 0.000000
# 6 0.000000 0.000000 0.000000 0.000000 0.000000 0.030317
#
#
# Mechanical properties :
#
#
# Convention : Reuss Voigt Hill
#
# Bulk Modulus (GPa) = 48.09421 51.49291 49.79356
# Shear Modulus (GPa) = 35.67398 101.65728 68.66563
#
# Velocity S-wave (km/s) = 4.03085 6.80440 5.59230
# Velocity P-wave (km/s) = 6.60062 9.22961 8.02353
#
# Compressibility (1/GPa) = 0.02079252
#
# Stress axis : x y z
#
# Youngs Moduli (GPa) = 88.54162 54.32912 82.22353
#
# Poissons Ratio (x) = 0.22332 0.26252
# Poissons Ratio (y) = 0.36394 0.26573
# Poissons Ratio (z) = 0.28269 0.17558
#
# Static dielectric constant tensor:
#      x y z
#    x 1.884780 0.000000 0.000000 
#    y 0.000000 1.816890 0.000000 
#    z 0.000000 0.000000 1.887870 
# 
# From -- ./inp_files/32454.got.cif
#   From: 2010.05.17/outbox.cif.g08.bks.cpg/sg73_17_cif.got.tgz:32454.got - 2010.06.03 17:35:07.
