data_PCOD9532379
_publ_section_title
;
Structure prediction by ZEFSAII (Michael W. Deem and Ramdas Pophale) SiO2 
 PCOD9532379
Probable space group: I B C A 
;
_chemical_formula_sum "Si O2"
_cell_formula_units_Z 112
_cell_length_a 13.829292
_cell_length_b 27.642864
_cell_length_c 14.066419
_cell_angle_alpha 90.000000
_cell_angle_beta 90.000000
_cell_angle_gamma 90.000000
_cell_volume 5377.328069
_symmetry_space_group_name_H-M "I B C A "
_symmetry_group_IT_number 73
_symmetry_cell_setting 'orthorhombic'
loop_
_space_group_symop_operation_xyz
x,y,z
-x,1/2-y,z
x,-y,1/2-z
1/2-x,y,-z
-x,-y,-z
x,1/2+y,-z
-x,y,1/2+z
1/2+x,-y,z
1/2+x,1/2+y,1/2+z
1/2-x,-y,1/2+z
1/2+x,1/2-y,-z
-x,1/2+y,1/2-z
1/2-x,1/2-y,1/2-z
1/2+x,y,1/2-z
1/2-x,1/2+y,z
x,1/2-y,1/2+z
loop_
_atom_site_type_symbol
_atom_site_label
_atom_site_fract_x
_atom_site_fract_y
_atom_site_fract_z
Si Si1 0.750000 0.091360 0.500000
Si Si2 0.551960 0.385981 0.323929
Si Si3 0.139825 0.946926 0.318768
Si Si4 0.042884 0.198749 0.521938
Si Si5 0.437936 0.032913 0.572020
Si Si6 0.250000 0.328679 0.000000
Si Si7 0.748389 0.578791 0.125259
Si Si8 0.432385 0.128749 0.108556
O O1 0.796793 0.060617 0.585469
O O2 0.664601 0.121806 0.547978
O O3 0.446601 0.408743 0.313202
O O4 0.539595 0.341956 0.396388
O O5 0.631585 0.424478 0.363476
O O6 0.587050 0.369026 0.220538
O O7 0.209999 0.936396 0.229282
O O8 0.083647 0.996794 0.341344
O O9 0.155560 0.203252 0.500471
O O10 0.000000 0.250000 0.549142
O O11 0.989075 0.174638 0.432295
O O12 0.328206 0.052825 0.556501
O O13 0.501881 0.080509 0.591925
O O14 0.500000 0.000000 0.500000
O O15 0.257042 0.365425 0.090240
#
# Coordination Sequence:
#
# PCOD9532379 Si02
#       8
#     8  16  16  16  16   8  16  16
#     4  12  24  42  68 100 140 190 234 290 354 412
#     4  11  24  44  71  98 143 189 232 295 358 424
#     4  12  24  43  63 102 142 187 242 284 345 417
#     4  11  24  45  73 103 136 177 236 300 367 441
#     4  12  24  41  64  98 138 187 241 282 333 422
#     4  10  22  46  70 100 136 188 232 290 376 424
#     4  11  24  41  68  98 142 190 233 286 349 421
#     4  12  24  46  69  99 145 185 229 301 357 417
#
# _framework density 20.828187
#
# number of rings (size 3 to 8) (size 9 to 14) (size 15 to 20)
#    0.000    0.571    7.143    0.429    2.000    2.857 
#    2.571    0.000    0.000    5.143    0.000    0.000 
#    0.000    0.000    0.000    0.000    0.000    0.000 
#
# Total GULP energy -312392.207459 kJ/mol
# GULP energy per Si atom -5578.432276 kJ/mol
# Density = 2.078078 g / cm^3
# Si number density = 20.828187 Si / 1000 Ang^3
#
#
#
# Elastic Constant Matrix: (Units=GPa)
#
#
# Indices 1 2 3 4 5 6 
#
# 1 122.0555 32.8424 19.2661 0.0000 0.0000 0.0000
# 2 32.8424 60.5986 6.3082 0.0000 0.0000 0.0000
# 3 19.2661 6.3082 107.1041 0.0000 0.0000 0.0000
# 4 0.0000 0.0000 0.0000 6.3400 0.0000 0.0000
# 5 0.0000 0.0000 0.0000 0.0000 32.4767 0.0000
# 6 0.0000 0.0000 0.0000 0.0000 0.0000 28.6726
#
#
#
# Elastic Compliance Matrix: (Units=1/GPa)
#
#
# Indices 1 2 3 4 5 6 
#
# 1 0.009814 -0.005167 -0.001461 0.000000 0.000000 0.000000
# 2 -0.005167 0.019324 -0.000209 0.000000 0.000000 0.000000
# 3 -0.001461 -0.000209 0.009612 0.000000 0.000000 0.000000
# 4 0.000000 0.000000 0.000000 0.157728 0.000000 0.000000
# 5 0.000000 0.000000 0.000000 0.000000 0.030791 0.000000
# 6 0.000000 0.000000 0.000000 0.000000 0.000000 0.034876
#
#
# Mechanical properties :
#
#
# Convention : Reuss Voigt Hill
#
# Bulk Modulus (GPa) = 39.87771 45.17686 42.52729
# Shear Modulus (GPa) = 17.59463 28.92064 23.25764
#
# Velocity S-wave (km/s) = 2.90961 3.73035 3.34525
# Velocity P-wave (km/s) = 5.52045 6.34754 5.94839
#
# Compressibility (1/GPa) = 0.02507667
#
# Stress axis : x y z
#
# Youngs Moduli (GPa) = 101.89679 51.74934 104.03861
#
# Poissons Ratio (x) = 0.26737 0.15200
# Poissons Ratio (y) = 0.52647 0.02172
# Poissons Ratio (z) = 0.14887 0.01080
#
# Static dielectric constant tensor:
#      x y z
#    x 1.763200 0.000000 0.000000 
#    y 0.000000 1.736840 0.000000 
#    z 0.000000 0.000000 1.867540 
# 
# From -- ./inp_files/17303.got.cif
#   From: 2010.05.17/outbox.cif.g08.bks.cpg/sg73_9_cif.got.tgz:17303.got - 2010.06.03 17:35:07.
