data_PCOD9532436
_publ_section_title
;
Structure prediction by ZEFSAII (Michael W. Deem and Ramdas Pophale) SiO2 
 PCOD9532436
Probable space group: I B C A 
;
_chemical_formula_sum "Si O2"
_cell_formula_units_Z 56
_cell_length_a 24.146633
_cell_length_b 5.374706
_cell_length_c 19.653422
_cell_angle_alpha 90.000000
_cell_angle_beta 90.000000
_cell_angle_gamma 90.000000
_cell_volume 2550.641807
_symmetry_space_group_name_H-M "I B C A "
_symmetry_group_IT_number 73
_symmetry_cell_setting 'orthorhombic'
loop_
_space_group_symop_operation_xyz
x,y,z
-x,1/2-y,z
x,-y,1/2-z
1/2-x,y,-z
-x,-y,-z
x,1/2+y,-z
-x,y,1/2+z
1/2+x,-y,z
1/2+x,1/2+y,1/2+z
1/2-x,-y,1/2+z
1/2+x,1/2-y,-z
-x,1/2+y,1/2-z
1/2-x,1/2-y,1/2-z
1/2+x,y,1/2-z
1/2-x,1/2+y,z
x,1/2-y,1/2+z
loop_
_atom_site_type_symbol
_atom_site_label
_atom_site_fract_x
_atom_site_fract_y
_atom_site_fract_z
Si Si1 0.280536 0.008895 0.168106
Si Si2 0.000000 0.750000 0.204636
Si Si3 0.108060 0.736680 0.112196
Si Si4 0.654303 0.593750 0.520511
O O1 0.242169 0.240892 0.144772
O O2 0.342307 0.085771 0.147190
O O3 0.278416 0.000000 0.250000
O O4 0.997588 0.500000 0.250000
O O5 0.945952 0.762205 0.156944
O O6 0.130350 0.014328 0.093084
O O7 0.104521 0.623747 0.035782
O O8 0.684984 0.350701 0.491838
#
# Coordination Sequence:
#
# PCOD9532436 Si02
#       4
#    16   8  16  16
#     4  10  23  39  63  89 121 172 207 250 307 361
#     4  12  30  40  66  98 124 172 198 258 322 356
#     4  10  23  44  64  92 134 150 222 255 307 387
#     4   8  20  37  65  90 118 170 199 253 324 352
#
# _framework density 21.955259999999999
#
# number of rings (size 3 to 8) (size 9 to 14) (size 15 to 20)
#    1.714    0.571    0.000    0.857    8.000    4.571 
#    0.000    4.286    0.000    0.000    0.000    0.000 
#    0.000    0.000    0.000    0.000    0.000    0.000 
#
# Total GULP energy -155904.540545 kJ/mol
# GULP energy per Si atom -5568.019305 kJ/mol
# Density = 2.190529 g / cm^3
# Si number density = 21.955260 Si / 1000 Ang^3
#
#
#
# Elastic Constant Matrix: (Units=GPa)
#
#
# Indices 1 2 3 4 5 6 
#
# 1 158.4278 45.8650 51.0662 0.0000 0.0000 0.0000
# 2 45.8650 171.9374 22.1672 0.0000 0.0000 0.0000
# 3 51.0662 22.1672 66.0908 0.0000 0.0000 0.0000
# 4 0.0000 0.0000 0.0000 28.4239 0.0000 0.0000
# 5 0.0000 0.0000 0.0000 0.0000 29.8692 0.0000
# 6 0.0000 0.0000 0.0000 0.0000 0.0000 16.3185
#
#
#
# Elastic Compliance Matrix: (Units=1/GPa)
#
#
# Indices 1 2 3 4 5 6 
#
# 1 0.008776 -0.001533 -0.006267 0.000000 0.000000 0.000000
# 2 -0.001533 0.006347 -0.000944 0.000000 0.000000 0.000000
# 3 -0.006267 -0.000944 0.020289 0.000000 0.000000 0.000000
# 4 0.000000 0.000000 0.000000 0.035182 0.000000 0.000000
# 5 0.000000 0.000000 0.000000 0.000000 0.033479 0.000000
# 6 0.000000 0.000000 0.000000 0.000000 0.000000 0.061280
#
#
# Mechanical properties :
#
#
# Convention : Reuss Voigt Hill
#
# Bulk Modulus (GPa) = 55.79028 70.51699 63.15364
# Shear Modulus (GPa) = 26.48092 33.41283 29.94687
#
# Velocity S-wave (km/s) = 3.47671 3.90533 3.69724
# Velocity P-wave (km/s) = 6.44847 7.24733 6.85954
#
# Compressibility (1/GPa) = 0.01792427
#
# Stress axis : x y z
#
# Youngs Moduli (GPa) = 113.95049 157.56099 49.28694
#
# Poissons Ratio (x) = 0.24155 0.30886
# Poissons Ratio (y) = 0.17469 0.04654
# Poissons Ratio (z) = 0.71408 0.14877
#
# Static dielectric constant tensor:
#      x y z
#    x 1.738640 0.000000 0.000000 
#    y 0.000000 1.971420 0.000000 
#    z 0.000000 0.000000 1.862300 
# 
# From -- ./inp_files/1508.got.cif
#   From: 2010.05.17/outbox.cif.g08.bks.cpg/sg73_1_cif.got.tgz:1508.got - 2010.06.03 17:35:07.
