data_PCOD9532850
_publ_section_title
;
Structure prediction by ZEFSAII (Michael W. Deem and Ramdas Pophale) SiO2 
 PCOD9532850
Probable space group: I B C A 
;
_chemical_formula_sum "Si O2"
_cell_formula_units_Z 112
_cell_length_a 14.762461
_cell_length_b 30.166001
_cell_length_c 10.840988
_cell_angle_alpha 90.000000
_cell_angle_beta 90.000000
_cell_angle_gamma 90.000000
_cell_volume 4827.756621
_symmetry_space_group_name_H-M "I B C A "
_symmetry_group_IT_number 73
_symmetry_cell_setting 'orthorhombic'
loop_
_space_group_symop_operation_xyz
x,y,z
-x,1/2-y,z
x,-y,1/2-z
1/2-x,y,-z
-x,-y,-z
x,1/2+y,-z
-x,y,1/2+z
1/2+x,-y,z
1/2+x,1/2+y,1/2+z
1/2-x,-y,1/2+z
1/2+x,1/2-y,-z
-x,1/2+y,1/2-z
1/2-x,1/2-y,1/2-z
1/2+x,y,1/2-z
1/2-x,1/2+y,z
x,1/2-y,1/2+z
loop_
_atom_site_type_symbol
_atom_site_label
_atom_site_fract_x
_atom_site_fract_y
_atom_site_fract_z
Si Si1 0.968595 0.392006 0.354536
Si Si2 0.250000 0.021991 0.000000
Si Si3 0.691025 0.178368 0.744390
Si Si4 0.494561 0.840237 0.114445
Si Si5 0.664863 0.088482 0.636452
Si Si6 0.000000 0.250000 0.021638
Si Si7 0.684896 0.542161 0.805711
Si Si8 0.177862 0.228467 0.389973
O O1 0.991037 0.366334 0.483532
O O2 0.883931 0.424450 0.369823
O O3 0.955764 0.363541 0.229299
O O4 0.062517 0.416745 0.320039
O O5 0.169730 0.057703 0.984681
O O6 0.250515 0.987456 0.890416
O O7 0.609008 0.166545 0.837151
O O8 0.686092 0.141014 0.638791
O O9 0.783858 0.185525 0.819240
O O10 0.674691 0.227123 0.691148
O O11 0.538083 0.791314 0.098002
O O12 0.745535 0.069538 0.721285
O O13 0.922508 0.226387 0.942901
O O14 0.629283 0.500000 0.750000
O O15 0.250000 0.235839 0.500000
#
# Coordination Sequence:
#
# PCOD9532850 Si02
#       8
#    16   8  16  16  16   8  16  16
#     4  11  27  47  77 110 147 200 250 312 381 456
#     4  10  24  44  70 110 140 200 244 314 382 450
#     4  10  24  46  70 104 147 199 249 304 375 446
#     4  11  26  48  72 113 146 196 254 304 377 442
#     4  10  24  45  71 106 150 188 252 303 382 452
#     4  12  24  44  74 100 154 188 256 314 360 454
#     4  10  25  45  71 107 143 190 247 311 384 448
#     4  11  24  45  68 108 144 202 251 303 380 429
#
# _framework density 23.199180999999999
#
# number of rings (size 3 to 8) (size 9 to 14) (size 15 to 20)
#    0.000    1.429    1.429    1.714   11.000    5.714 
#    0.000    0.000    0.000    0.000    0.000    0.000 
#    0.000    0.000    0.000    0.000    0.000    0.000 
#
# Total GULP energy -312091.704944 kJ/mol
# GULP energy per Si atom -5573.066160 kJ/mol
# Density = 2.314638 g / cm^3
# Si number density = 23.199181 Si / 1000 Ang^3
#
#
#
# Elastic Constant Matrix: (Units=GPa)
#
#
# Indices 1 2 3 4 5 6 
#
# 1 96.0029 17.7030 7.8763 -0.0001 0.0000 -0.0003
# 2 17.7030 81.9623 25.3768 0.0000 0.0000 0.0000
# 3 7.8763 25.3768 84.7227 -0.0006 0.0005 0.0012
# 4 -0.0001 0.0000 -0.0006 25.0760 0.0001 0.0005
# 5 0.0000 0.0000 0.0005 0.0001 21.3483 0.0003
# 6 -0.0003 0.0000 0.0012 0.0005 0.0003 -0.9859
#
#
#
# Elastic Compliance Matrix: (Units=1/GPa)
#
#
# Indices 1 2 3 4 5 6 
#
# 1 0.010857 -0.002240 -0.000338 0.000000 0.000000 -0.000004
# 2 -0.002240 0.013910 -0.003958 0.000000 0.000000 -0.000005
# 3 -0.000338 -0.003958 0.013020 0.000000 0.000000 0.000016
# 4 0.000000 0.000000 0.000000 0.039879 0.000000 0.000022
# 5 0.000000 0.000000 0.000000 0.000000 0.046842 0.000016
# 6 -0.000004 -0.000005 0.000016 0.000022 0.000016 -1.014253
#
#
# Mechanical properties :
#
#
# Convention : Reuss Voigt Hill
#
# Bulk Modulus (GPa) = 40.46296 40.51115 40.48705
# Shear Modulus (GPa) = -5.75750 23.20311 8.72280
#
# Velocity S-wave (km/s) = -1.57707 3.16598 1.94117
# Velocity P-wave (km/s) = 3.76340 5.55561 4.74489
#
# Compressibility (1/GPa) = 0.02471396
#
# Stress axis : x y z
#
# Youngs Moduli (GPa) = 92.10455 71.89003 76.80334
#
# Poissons Ratio (x) = 0.16106 0.02598
# Poissons Ratio (y) = 0.20634 0.30400
# Poissons Ratio (z) = 0.03116 0.28456
#
# Static dielectric constant tensor:
#      x y z
#    x 1.913930 0.000000 0.000000 
#    y 0.000000 1.897470 0.000000 
#    z 0.000000 0.000000 2.150500 
# 
# From -- ./inp_files/11279.got.cif
#   From: 2010.05.17/outbox.cif.g08.bks.cpg/sg73_6_cif.got.tgz:11279.got - 2010.06.03 17:35:07.
