data_PCOD9532100
_publ_section_title
;
Structure prediction by ZEFSAII (Michael W. Deem and Ramdas Pophale) SiO2 
 PCOD9532100
Probable space group: I B C A 
;
_chemical_formula_sum "Si O2"
_cell_formula_units_Z 72
_cell_length_a 14.149579
_cell_length_b 22.946322
_cell_length_c 9.631299
_cell_angle_alpha 90.000000
_cell_angle_beta 90.000000
_cell_angle_gamma 90.000000
_cell_volume 3127.097825
_symmetry_space_group_name_H-M "I B C A "
_symmetry_group_IT_number 73
_symmetry_cell_setting 'orthorhombic'
loop_
_space_group_symop_operation_xyz
x,y,z
-x,1/2-y,z
x,-y,1/2-z
1/2-x,y,-z
-x,-y,-z
x,1/2+y,-z
-x,y,1/2+z
1/2+x,-y,z
1/2+x,1/2+y,1/2+z
1/2-x,-y,1/2+z
1/2+x,1/2-y,-z
-x,1/2+y,1/2-z
1/2-x,1/2-y,1/2-z
1/2+x,y,1/2-z
1/2-x,1/2+y,z
x,1/2-y,1/2+z
loop_
_atom_site_type_symbol
_atom_site_label
_atom_site_fract_x
_atom_site_fract_y
_atom_site_fract_z
Si Si1 0.342585 0.679593 0.793164
Si Si2 0.388170 0.758353 0.030840
Si Si3 0.184642 0.123981 0.379599
Si Si4 0.492038 0.918985 0.264904
Si Si5 0.000000 0.500000 0.500000
O O1 0.350356 0.733694 0.685828
O O2 0.253347 0.642177 0.745101
O O3 0.436393 0.641433 0.763830
O O4 0.346671 0.704720 0.945928
O O5 0.500000 0.750000 0.031665
O O6 0.357729 0.817916 0.952475
O O7 0.250000 0.095684 0.500000
O O8 0.098341 0.085596 0.327208
O O9 0.499717 0.945447 0.112386
O O10 0.445366 0.960332 0.380397
#
# Coordination Sequence:
#
# PCOD9532100 Si02
#       5
#    16  16  16  16   8
#     4  11  24  40  64  97 137 179 223 274 338 411
#     4  11  21  38  62  98 137 183 220 267 331 408
#     4  10  22  41  66  99 140 179 225 279 333 415
#     4  11  23  47  69  98 135 177 236 289 355 406
#     4  10  24  44  74  96 128 176 226 306 348 398
#
# _framework density 23.024542
#
# number of rings (size 3 to 8) (size 9 to 14) (size 15 to 20)
#    0.000    1.333    2.222    4.000    0.000    0.000 
#    0.000   14.444    0.000    0.000    0.000    0.000 
#    0.000    0.000    0.000    0.000    0.000    0.000 
#
# Total GULP energy -200423.741809 kJ/mol
# GULP energy per Si atom -5567.326161 kJ/mol
# Density = 2.297214 g / cm^3
# Si number density = 23.024542 Si / 1000 Ang^3
#
#
#
# Elastic Constant Matrix: (Units=GPa)
#
#
# Indices 1 2 3 4 5 6 
#
# 1 88.1493 -2.2027 1.5089 0.0001 0.0000 0.0000
# 2 -2.2027 39.9718 32.8105 0.0001 0.0000 0.0000
# 3 1.5089 32.8105 116.4784 0.0000 0.0000 0.0000
# 4 0.0001 0.0001 0.0000 2.9061 -0.0001 0.0000
# 5 0.0000 0.0000 0.0000 -0.0001 25.8436 0.0001
# 6 0.0000 0.0000 0.0000 0.0000 0.0001 -19.6593
#
#
#
# Elastic Compliance Matrix: (Units=1/GPa)
#
#
# Indices 1 2 3 4 5 6 
#
# 1 0.011376 0.000973 -0.000421 -0.000001 0.000000 0.000000
# 2 0.000973 0.032625 -0.009203 -0.000002 0.000000 0.000000
# 3 -0.000421 -0.009203 0.011183 0.000001 0.000000 0.000000
# 4 -0.000001 -0.000002 0.000001 0.344098 0.000001 0.000000
# 5 0.000000 0.000000 0.000000 0.000001 0.038694 0.000000
# 6 0.000000 0.000000 0.000000 0.000000 0.000000 -0.050867
#
#
# Mechanical properties :
#
#
# Convention : Reuss Voigt Hill
#
# Bulk Modulus (GPa) = 26.39813 34.31479 30.35646
# Shear Modulus (GPa) = 11.98926 15.98360 13.98643
#
# Velocity S-wave (km/s) = 2.28440 2.63762 2.46734
# Velocity P-wave (km/s) = 4.29512 4.92057 4.61844
#
# Compressibility (1/GPa) = 0.03788147
#
# Stress axis : x y z
#
# Youngs Moduli (GPa) = 87.90510 30.65112 89.42114
#
# Poissons Ratio (x) = -0.02982 0.03768
# Poissons Ratio (y) = -0.08551 0.82292
# Poissons Ratio (z) = 0.03704 0.28207
#
# Static dielectric constant tensor:
#      x y z
#    x 1.892170 0.000000 0.000000 
#    y 0.000000 0.419110 0.000000 
#    z 0.000000 0.000000 1.928820 
# 
# From -- ./inp_files/4836.got.cif
#   From: 2010.05.17/outbox.cif.g08.bks.cpg/sg73_3_cif.got.tgz:4836.got - 2010.06.03 17:35:07.
