data_PCOD9532297
_publ_section_title
;
Structure prediction by ZEFSAII (Michael W. Deem and Ramdas Pophale) SiO2 
 PCOD9532297
Probable space group: I B C A 
;
_chemical_formula_sum "Si O2"
_cell_formula_units_Z 88
_cell_length_a 8.890428
_cell_length_b 19.320499
_cell_length_c 23.931873
_cell_angle_alpha 90.000000
_cell_angle_beta 90.000000
_cell_angle_gamma 90.000000
_cell_volume 4110.718122
_symmetry_space_group_name_H-M "I B C A "
_symmetry_group_IT_number 73
_symmetry_cell_setting 'orthorhombic'
loop_
_space_group_symop_operation_xyz
x,y,z
-x,1/2-y,z
x,-y,1/2-z
1/2-x,y,-z
-x,-y,-z
x,1/2+y,-z
-x,y,1/2+z
1/2+x,-y,z
1/2+x,1/2+y,1/2+z
1/2-x,-y,1/2+z
1/2+x,1/2-y,-z
-x,1/2+y,1/2-z
1/2-x,1/2-y,1/2-z
1/2+x,y,1/2-z
1/2-x,1/2+y,z
x,1/2-y,1/2+z
loop_
_atom_site_type_symbol
_atom_site_label
_atom_site_fract_x
_atom_site_fract_y
_atom_site_fract_z
Si Si1 0.000000 0.750000 0.503060
Si Si2 0.268856 0.264064 0.917032
Si Si3 0.239206 0.914957 0.933430
Si Si4 0.706117 0.056521 0.298980
Si Si5 0.525399 0.476026 0.124268
Si Si6 0.161151 0.286741 0.701012
O O1 0.118703 0.720001 0.547390
O O2 0.119803 0.779331 0.457648
O O3 0.327396 0.342800 0.909702
O O4 0.256440 0.225867 0.858514
O O5 0.404387 0.929305 0.907912
O O6 0.129773 0.977622 0.915874
O O7 0.250000 0.911576 0.000000
O O8 0.860277 0.062460 0.334179
O O9 0.654467 0.132853 0.282448
O O10 0.728385 0.000000 0.250000
O O11 0.576974 0.026249 0.338513
O O12 0.250000 0.250000 0.750000
O O13 0.000000 0.250000 0.694782
#
# Coordination Sequence:
#
# PCOD9532297 Si02
#       6
#     8  16  16  16  16  16
#     4  10  22  44  70 100 132 196 214 292 348 440
#     4  11  24  44  71 102 145 177 240 285 367 421
#     4  11  22  43  68 103 143 182 234 287 354 429
#     4  11  26  46  73  95 138 188 241 289 356 423
#     4  10  25  42  69  96 137 188 235 289 342 429
#     4  12  30  45  71 107 144 183 239 307 361 430
#
# _framework density 21.407451999999999
#
# number of rings (size 3 to 8) (size 9 to 14) (size 15 to 20)
#    0.000    1.091    2.727    2.182   14.000    0.000 
#    0.000    0.000    0.000    0.000    0.000    0.000 
#    0.000    0.000    0.000    0.000    0.000    0.000 
#
# Total GULP energy -245379.786536 kJ/mol
# GULP energy per Si atom -5576.813330 kJ/mol
# Density = 2.135873 g / cm^3
# Si number density = 21.407452 Si / 1000 Ang^3
#
#
#
# Elastic Constant Matrix: (Units=GPa)
#
#
# Indices 1 2 3 4 5 6 
#
# 1 114.0309 35.4530 33.9068 0.0000 0.0000 0.0000
# 2 35.4530 114.9409 42.4817 0.0000 0.0000 0.0000
# 3 33.9068 42.4817 132.4971 0.0000 0.0000 0.0000
# 4 0.0000 0.0000 0.0000 58.0573 0.0000 0.0000
# 5 0.0000 0.0000 0.0000 0.0000 27.4593 0.0000
# 6 0.0000 0.0000 0.0000 0.0000 0.0000 17.1848
#
#
#
# Elastic Compliance Matrix: (Units=1/GPa)
#
#
# Indices 1 2 3 4 5 6 
#
# 1 0.010061 -0.002441 -0.001792 0.000000 0.000000 0.000000
# 2 -0.002441 0.010462 -0.002730 0.000000 0.000000 0.000000
# 3 -0.001792 -0.002730 0.008881 0.000000 0.000000 0.000000
# 4 0.000000 0.000000 0.000000 0.017224 0.000000 0.000000
# 5 0.000000 0.000000 0.000000 0.000000 0.036417 0.000000
# 6 0.000000 0.000000 0.000000 0.000000 0.000000 0.058191
#
#
# Mechanical properties :
#
#
# Convention : Reuss Voigt Hill
#
# Bulk Modulus (GPa) = 64.60441 65.01688 64.81064
# Shear Modulus (GPa) = 31.18716 37.18211 34.18463
#
# Velocity S-wave (km/s) = 3.82099 4.17211 4.00040
# Velocity P-wave (km/s) = 7.05058 7.32432 7.18875
#
# Compressibility (1/GPa) = 0.01547882
#
# Stress axis : x y z
#
# Youngs Moduli (GPa) = 99.39012 95.58473 112.59814
#
# Poissons Ratio (x) = 0.23332 0.20179
# Poissons Ratio (y) = 0.24261 0.30736
# Poissons Ratio (z) = 0.17812 0.26091
#
# Static dielectric constant tensor:
#      x y z
#    x 1.809730 0.000000 0.000000 
#    y 0.000000 1.844360 0.000000 
#    z 0.000000 0.000000 1.770170 
# 
# From -- ./inp_files/28335.got.cif
#   From: 2010.05.17/outbox.cif.g08.bks.cpg/sg73_15_cif.got.tgz:28335.got - 2010.06.03 17:35:07.
