data_PCOD9532007
_publ_section_title
;
Structure prediction by ZEFSAII (Michael W. Deem and Ramdas Pophale) SiO2 
 PCOD9532007
Probable space group: I B C A 
;
_chemical_formula_sum "Si O2"
_cell_formula_units_Z 56
_cell_length_a 14.953187
_cell_length_b 16.496006
_cell_length_c 9.350011
_cell_angle_alpha 90.000000
_cell_angle_beta 90.000000
_cell_angle_gamma 90.000000
_cell_volume 2306.347227
_symmetry_space_group_name_H-M "I B C A "
_symmetry_group_IT_number 73
_symmetry_cell_setting 'orthorhombic'
loop_
_space_group_symop_operation_xyz
x,y,z
-x,1/2-y,z
x,-y,1/2-z
1/2-x,y,-z
-x,-y,-z
x,1/2+y,-z
-x,y,1/2+z
1/2+x,-y,z
1/2+x,1/2+y,1/2+z
1/2-x,-y,1/2+z
1/2+x,1/2-y,-z
-x,1/2+y,1/2-z
1/2-x,1/2-y,1/2-z
1/2+x,y,1/2-z
1/2-x,1/2+y,z
x,1/2-y,1/2+z
loop_
_atom_site_type_symbol
_atom_site_label
_atom_site_fract_x
_atom_site_fract_y
_atom_site_fract_z
Si Si1 0.389533 0.595990 0.268166
Si Si2 0.250000 0.724143 0.000000
Si Si3 0.975317 0.090589 0.052501
Si Si4 0.686839 0.853507 0.725716
O O1 0.404483 0.500000 0.250000
O O2 0.437121 0.630085 0.408875
O O3 0.440285 0.630362 0.130501
O O4 0.284289 0.605854 0.284855
O O5 0.304499 0.779003 0.113824
O O6 0.186635 0.674040 0.108978
O O7 0.895054 0.092996 0.169283
O O8 0.000000 0.000000 0.000000
#
# Coordination Sequence:
#
# PCOD9532007 Si02
#       4
#    16   8  16  16
#     4  10  22  40  65 100 135 179 231 304 371 428
#     4  10  24  42  74  96 140 204 238 296 364 466
#     4  10  22  41  66 100 138 177 239 303 366 440
#     4  11  22  47  68  99 141 187 248 291 375 443
#
# _framework density 24.280819000000001
#
# number of rings (size 3 to 8) (size 9 to 14) (size 15 to 20)
#    0.000    1.714    2.857    0.000    4.000    3.429 
#    5.143    8.571    0.000    0.000    0.000    0.000 
#    0.000    0.000    0.000    0.000    0.000    0.000 
#
# Total GULP energy -156314.630140 kJ/mol
# GULP energy per Si atom -5582.665362 kJ/mol
# Density = 2.422555 g / cm^3
# Si number density = 24.280819 Si / 1000 Ang^3
#
#
#
# Elastic Constant Matrix: (Units=GPa)
#
#
# Indices 1 2 3 4 5 6 
#
# 1 141.1198 41.1252 81.3080 0.0000 0.0000 0.0000
# 2 41.1252 34.9472 56.0603 0.0000 0.0000 0.0000
# 3 81.3080 56.0603 215.9351 0.0000 0.0000 0.0000
# 4 0.0000 0.0000 0.0000 46.2198 0.0000 0.0000
# 5 0.0000 0.0000 0.0000 0.0000 61.9256 0.0000
# 6 0.0000 0.0000 0.0000 0.0000 0.0000 -150.3111
#
#
#
# Elastic Compliance Matrix: (Units=1/GPa)
#
#
# Indices 1 2 3 4 5 6 
#
# 1 0.011006 -0.010803 -0.001340 0.000000 0.000000 0.000000
# 2 -0.010803 0.059640 -0.011416 0.000000 0.000000 0.000000
# 3 -0.001340 -0.011416 0.008099 0.000000 0.000000 0.000000
# 4 0.000000 0.000000 0.000000 0.021636 0.000000 0.000000
# 5 0.000000 0.000000 0.000000 0.000000 0.016148 0.000000
# 6 0.000000 0.000000 0.000000 0.000000 0.000000 -0.006653
#
#
# Mechanical properties :
#
#
# Convention : Reuss Voigt Hill
#
# Bulk Modulus (GPa) = 31.61701 83.22101 57.41901
# Shear Modulus (GPa) = 29.84431 5.80077 17.82254
#
# Velocity S-wave (km/s) = 3.50970 1.54733 2.71221
# Velocity P-wave (km/s) = 5.42896 6.12708 5.78856
#
# Compressibility (1/GPa) = 0.03162854
#
# Stress axis : x y z
#
# Youngs Moduli (GPa) = 90.85755 16.76731 123.46950
#
# Poissons Ratio (x) = 0.18114 0.16541
# Poissons Ratio (y) = 0.98153 1.40950
# Poissons Ratio (z) = 0.12172 0.19141
#
# Static dielectric constant tensor:
#      x y z
#    x 1.957370 0.000000 0.000000 
#    y 0.000000 1.989150 0.000000 
#    z 0.000000 0.000000 1.959570 
# 
# From -- ./inp_files/4513.got.cif
#   From: 2010.05.17/outbox.cif.g08.bks.cpg/sg73_3_cif.got.tgz:4513.got - 2010.06.03 17:35:07.
