data_PCOD9532887
_publ_section_title
;
Structure prediction by ZEFSAII (Michael W. Deem and Ramdas Pophale) SiO2 
 PCOD9532887
Probable space group: I B C A 
;
_chemical_formula_sum "Si O2"
_cell_formula_units_Z 56
_cell_length_a 14.945250
_cell_length_b 13.623319
_cell_length_c 9.988111
_cell_angle_alpha 90.000000
_cell_angle_beta 90.000000
_cell_angle_gamma 90.000000
_cell_volume 2033.618436
_symmetry_space_group_name_H-M "I B C A "
_symmetry_group_IT_number 73
_symmetry_cell_setting 'orthorhombic'
loop_
_space_group_symop_operation_xyz
x,y,z
-x,1/2-y,z
x,-y,1/2-z
1/2-x,y,-z
-x,-y,-z
x,1/2+y,-z
-x,y,1/2+z
1/2+x,-y,z
1/2+x,1/2+y,1/2+z
1/2-x,-y,1/2+z
1/2+x,1/2-y,-z
-x,1/2+y,1/2-z
1/2-x,1/2-y,1/2-z
1/2+x,y,1/2-z
1/2-x,1/2+y,z
x,1/2-y,1/2+z
loop_
_atom_site_type_symbol
_atom_site_label
_atom_site_fract_x
_atom_site_fract_y
_atom_site_fract_z
Si Si1 0.804437 0.075106 0.644548
Si Si2 0.750000 0.744904 0.000000
Si Si3 0.508957 0.365883 0.717255
Si Si4 0.102118 0.079414 0.534876
O O1 0.751408 0.175263 0.619299
O O2 0.896353 0.108148 0.715494
O O3 0.761203 0.000000 0.750000
O O4 0.839375 0.013755 0.514494
O O5 0.835093 0.674612 0.993506
O O6 0.500000 0.250000 0.708944
O O7 0.518779 0.408827 0.568492
O O8 0.434190 0.407787 0.816170
#
# Coordination Sequence:
#
# PCOD9532887 Si02
#       4
#    16   8  16  16
#     4  10  24  45  71 105 142 191 246 295 359 431
#     4  12  24  48  72 104 152 190 236 302 366 440
#     4  11  22  45  72 105 143 187 245 298 352 426
#     4  11  25  46  76 106 144 190 243 300 362 427
#
# _framework density 27.537122
#
# number of rings (size 3 to 8) (size 9 to 14) (size 15 to 20)
#    0.000    1.143    2.857    2.571    0.000    4.571 
#    5.143    0.000    0.000    0.000    0.000    0.000 
#    0.000    0.000    0.000    0.000    0.000    0.000 
#
# Total GULP energy -157145.748952 kJ/mol
# GULP energy per Si atom -5612.348177 kJ/mol
# Density = 2.747445 g / cm^3
# Si number density = 27.537122 Si / 1000 Ang^3
#
#
#
# Elastic Constant Matrix: (Units=GPa)
#
#
# Indices 1 2 3 4 5 6 
#
# 1 103.9075 42.7940 68.3807 0.0000 0.0000 0.0000
# 2 42.7940 211.6549 74.6170 0.0000 0.0000 0.0000
# 3 68.3807 74.6170 147.1143 0.0000 0.0000 0.0000
# 4 0.0000 0.0000 0.0000 62.7452 0.0000 0.0000
# 5 0.0000 0.0000 0.0000 0.0000 32.2554 0.0000
# 6 0.0000 0.0000 0.0000 0.0000 0.0000 36.4421
#
#
#
# Elastic Compliance Matrix: (Units=1/GPa)
#
#
# Indices 1 2 3 4 5 6 
#
# 1 0.013938 -0.000650 -0.006149 0.000000 0.000000 0.000000
# 2 -0.000650 0.005784 -0.002631 0.000000 0.000000 0.000000
# 3 -0.006149 -0.002631 0.010990 0.000000 0.000000 0.000000
# 4 0.000000 0.000000 0.000000 0.015937 0.000000 0.000000
# 5 0.000000 0.000000 0.000000 0.000000 0.031003 0.000000
# 6 0.000000 0.000000 0.000000 0.000000 0.000000 0.027441
#
#
# Mechanical properties :
#
#
# Convention : Reuss Voigt Hill
#
# Bulk Modulus (GPa) = 84.37967 92.69558 88.53762
# Shear Modulus (GPa) = 39.09170 44.74753 41.91961
#
# Velocity S-wave (km/s) = 3.77185 4.03549 3.90589
# Velocity P-wave (km/s) = 7.04825 7.44639 7.25005
#
# Compressibility (1/GPa) = 0.01185120
#
# Stress axis : x y z
#
# Youngs Moduli (GPa) = 71.74470 172.89668 90.99133
#
# Poissons Ratio (x) = 0.11246 0.55949
# Poissons Ratio (y) = 0.04667 0.23942
# Poissons Ratio (z) = 0.44114 0.45493
#
# Static dielectric constant tensor:
#      x y z
#    x 2.173590 0.000000 0.000000 
#    y 0.000000 2.068280 0.000000 
#    z 0.000000 0.000000 2.252600 
# 
# From -- ./inp_files/10233.got.cif
#   From: 2010.05.17/outbox.cif.g08.bks.cpg/sg73_6_cif.got.tgz:10233.got - 2010.06.03 17:35:07.
