data_PCOD9532527
_publ_section_title
;
Structure prediction by ZEFSAII (Michael W. Deem and Ramdas Pophale) SiO2 
 PCOD9532527
Probable space group: I B C A 
;
_chemical_formula_sum "Si O2"
_cell_formula_units_Z 112
_cell_length_a 14.672745
_cell_length_b 11.520453
_cell_length_c 28.406816
_cell_angle_alpha 90.000000
_cell_angle_beta 90.000000
_cell_angle_gamma 90.000000
_cell_volume 4801.793558
_symmetry_space_group_name_H-M "I B C A "
_symmetry_group_IT_number 73
_symmetry_cell_setting 'orthorhombic'
loop_
_space_group_symop_operation_xyz
x,y,z
-x,1/2-y,z
x,-y,1/2-z
1/2-x,y,-z
-x,-y,-z
x,1/2+y,-z
-x,y,1/2+z
1/2+x,-y,z
1/2+x,1/2+y,1/2+z
1/2-x,-y,1/2+z
1/2+x,1/2-y,-z
-x,1/2+y,1/2-z
1/2-x,1/2-y,1/2-z
1/2+x,y,1/2-z
1/2-x,1/2+y,z
x,1/2-y,1/2+z
loop_
_atom_site_type_symbol
_atom_site_label
_atom_site_fract_x
_atom_site_fract_y
_atom_site_fract_z
Si Si1 0.548800 0.992483 0.803259
Si Si2 0.595416 0.317665 0.378343
Si Si3 0.661788 0.465902 0.697344
Si Si4 0.350676 0.434391 0.477211
Si Si5 0.402491 0.234093 0.143658
Si Si6 0.772416 0.875883 0.877884
Si Si7 0.142501 0.324172 0.013976
O O1 0.585574 0.077643 0.842832
O O2 0.581794 0.000000 0.750000
O O3 0.440492 0.018178 0.803733
O O4 0.568950 0.862576 0.818860
O O5 0.500000 0.250000 0.383728
O O6 0.668392 0.228991 0.357548
O O7 0.630684 0.350620 0.430387
O O8 0.693209 0.500000 0.750000
O O9 0.641055 0.339620 0.673848
O O10 0.729903 0.527399 0.661531
O O11 0.250000 0.439027 0.500000
O O12 0.329190 0.423101 0.421904
O O13 0.394690 0.559807 0.488240
O O14 0.393343 0.309170 0.491928
O O15 0.500000 0.250000 0.117914
O O16 0.325343 0.178471 0.110405
O O17 0.250000 0.316256 0.000000
#
# Coordination Sequence:
#
# PCOD9532527 Si02
#       7
#    16  16  16  16  16  16  16
#     4  10  23  42  69 101 146 196 244 301 370 447
#     4  11  23  43  72 105 144 197 250 302 379 460
#     4  10  23  43  66 102 146 191 245 309 371 451
#     4   9  20  38  64  97 129 179 228 299 367 435
#     4  10  25  43  64 101 146 189 248 305 374 443
#     4  11  24  41  70  99 141 187 245 305 370 459
#     4   9  20  39  66  98 136 178 245 296 377 448
#
# _framework density 23.324618999999998
#
# number of rings (size 3 to 8) (size 9 to 14) (size 15 to 20)
#    0.000    2.000    1.429    0.000    8.000    5.143 
#    0.000    2.857    0.000   13.714    0.000    4.000 
#    0.000    0.000    0.000    0.000    0.000    0.000 
#
# Total GULP energy -312445.521148 kJ/mol
# GULP energy per Si atom -5579.384306 kJ/mol
# Density = 2.327153 g / cm^3
# Si number density = 23.324619 Si / 1000 Ang^3
#
#
#
# Elastic Constant Matrix: (Units=GPa)
#
#
# Indices 1 2 3 4 5 6 
#
# 1 104.2187 38.7303 22.6969 0.0000 0.0000 0.0000
# 2 38.7303 150.6815 58.6988 0.0000 0.0000 0.0000
# 3 22.6969 58.6988 104.2316 0.0000 0.0000 0.0000
# 4 0.0000 0.0000 0.0000 6.4602 0.0000 0.0000
# 5 0.0000 0.0000 0.0000 0.0000 28.5784 0.0000
# 6 0.0000 0.0000 0.0000 0.0000 0.0000 42.1271
#
#
#
# Elastic Compliance Matrix: (Units=1/GPa)
#
#
# Indices 1 2 3 4 5 6 
#
# 1 0.010689 -0.002358 -0.001000 0.000000 0.000000 0.000000
# 2 -0.002358 0.009022 -0.004567 0.000000 0.000000 0.000000
# 3 -0.001000 -0.004567 0.012384 0.000000 0.000000 0.000000
# 4 0.000000 0.000000 0.000000 0.154793 0.000000 0.000000
# 5 0.000000 0.000000 0.000000 0.000000 0.034991 0.000000
# 6 0.000000 0.000000 0.000000 0.000000 0.000000 0.023738
#
#
# Mechanical properties :
#
#
# Convention : Reuss Voigt Hill
#
# Bulk Modulus (GPa) = 61.55780 66.59822 64.07801
# Shear Modulus (GPa) = 18.73487 31.36688 25.05087
#
# Velocity S-wave (km/s) = 2.83719 3.67113 3.28076
# Velocity P-wave (km/s) = 6.09770 6.82527 6.47172
#
# Compressibility (1/GPa) = 0.01624489
#
# Stress axis : x y z
#
# Youngs Moduli (GPa) = 93.55208 110.84258 80.75088
#
# Poissons Ratio (x) = 0.26137 0.08072
# Poissons Ratio (y) = 0.22060 0.36881
# Poissons Ratio (z) = 0.09352 0.50624
#
# Static dielectric constant tensor:
#      x y z
#    x 2.070750 0.000000 0.000000 
#    y 0.000000 1.931490 0.000000 
#    z 0.000000 0.000000 1.898560 
# 
# From -- ./inp_files/34314.got.cif
#   From: 2010.05.17/outbox.cif.g08.bks.cpg/sg73_18_cif.got.tgz:34314.got - 2010.06.03 17:35:07.
