data_PCOD9532146
_publ_section_title
;
Structure prediction by ZEFSAII (Michael W. Deem and Ramdas Pophale) SiO2 
 PCOD9532146
Probable space group: I B C A 
;
_chemical_formula_sum "Si O2"
_cell_formula_units_Z 56
_cell_length_a 13.142982
_cell_length_b 9.144084
_cell_length_c 20.606042
_cell_angle_alpha 90.000000
_cell_angle_beta 90.000000
_cell_angle_gamma 90.000000
_cell_volume 2476.445078
_symmetry_space_group_name_H-M "I B C A "
_symmetry_group_IT_number 73
_symmetry_cell_setting 'orthorhombic'
loop_
_space_group_symop_operation_xyz
x,y,z
-x,1/2-y,z
x,-y,1/2-z
1/2-x,y,-z
-x,-y,-z
x,1/2+y,-z
-x,y,1/2+z
1/2+x,-y,z
1/2+x,1/2+y,1/2+z
1/2-x,-y,1/2+z
1/2+x,1/2-y,-z
-x,1/2+y,1/2-z
1/2-x,1/2-y,1/2-z
1/2+x,y,1/2-z
1/2-x,1/2+y,z
x,1/2-y,1/2+z
loop_
_atom_site_type_symbol
_atom_site_label
_atom_site_fract_x
_atom_site_fract_y
_atom_site_fract_z
Si Si1 0.193223 0.606044 0.187808
Si Si2 0.500000 0.250000 0.994304
Si Si3 0.590747 0.334390 0.766609
Si Si4 0.149549 0.499606 0.452784
O O1 0.181942 0.500000 0.250000
O O2 0.307825 0.664658 0.191573
O O3 0.118930 0.741930 0.201964
O O4 0.180785 0.523064 0.121357
O O5 0.419443 0.355955 0.958927
O O6 0.425236 0.136935 0.031387
O O7 0.500000 0.250000 0.800115
O O8 0.563465 0.500000 0.750000
O O9 0.250000 0.503251 0.500000
#
# Coordination Sequence:
#
# PCOD9532146 Si02
#       4
#    16   8  16  16
#     4  10  24  47  71 107 147 194 243 308 376 434
#     4  10  26  48  76 112 138 204 260 298 386 450
#     4  10  22  42  66 103 148 189 239 304 362 448
#     4  11  25  51  76 107 155 196 250 318 370 454
#
# _framework density 22.613059
#
# number of rings (size 3 to 8) (size 9 to 14) (size 15 to 20)
#    0.000    1.714    0.000    1.714    2.000   14.857 
#   30.857    0.000    0.000    0.000    0.000    0.000 
#    0.000    0.000    0.000    0.000    0.000    0.000 
#
# Total GULP energy -156571.403458 kJ/mol
# GULP energy per Si atom -5591.835838 kJ/mol
# Density = 2.256159 g / cm^3
# Si number density = 22.613059 Si / 1000 Ang^3
#
#
#
# Elastic Constant Matrix: (Units=GPa)
#
#
# Indices 1 2 3 4 5 6 
#
# 1 180.1345 74.4683 69.7530 0.0000 0.0000 0.0000
# 2 74.4683 173.3128 63.2586 0.0000 0.0000 0.0000
# 3 69.7530 63.2586 168.6153 0.0000 0.0000 0.0000
# 4 0.0000 0.0000 0.0000 13.2519 0.0000 0.0000
# 5 0.0000 0.0000 0.0000 0.0000 -14.4314 0.0000
# 6 0.0000 0.0000 0.0000 0.0000 0.0000 49.2606
#
#
#
# Elastic Compliance Matrix: (Units=1/GPa)
#
#
# Indices 1 2 3 4 5 6 
#
# 1 0.007370 -0.002380 -0.002156 0.000000 0.000000 0.000000
# 2 -0.002380 0.007454 -0.001812 0.000000 0.000000 0.000000
# 3 -0.002156 -0.001812 0.007502 0.000000 0.000000 0.000000
# 4 0.000000 0.000000 0.000000 0.075461 0.000000 0.000000
# 5 0.000000 0.000000 0.000000 0.000000 -0.069293 0.000000
# 6 0.000000 0.000000 0.000000 0.000000 0.000000 0.020300
#
#
# Mechanical properties :
#
#
# Convention : Reuss Voigt Hill
#
# Bulk Modulus (GPa) = 103.83472 104.11361 103.97416
# Shear Modulus (GPa) = 77.28014 30.58840 53.93427
#
# Velocity S-wave (km/s) = 5.85228 3.68188 4.88904
# Velocity P-wave (km/s) = 9.57514 8.01351 8.82892
#
# Compressibility (1/GPa) = 0.00963069
#
# Stress axis : x y z
#
# Youngs Moduli (GPa) = 135.68314 134.15963 133.29152
#
# Poissons Ratio (x) = 0.31927 0.28738
# Poissons Ratio (y) = 0.32290 0.24151
# Poissons Ratio (z) = 0.29254 0.24309
#
# Static dielectric constant tensor:
#      x y z
#    x 1.888720 0.000000 0.000000 
#    y 0.000000 1.887170 0.000000 
#    z 0.000000 0.000000 1.826450 
# 
# From -- ./inp_files/4458.got.cif
#   From: 2010.05.17/outbox.cif.g08.bks.cpg/sg73_3_cif.got.tgz:4458.got - 2010.06.03 17:35:07.
