data_PCOD9532265
_publ_section_title
;
Structure prediction by ZEFSAII (Michael W. Deem and Ramdas Pophale) SiO2 
 PCOD9532265
Probable space group: I B C A 
;
_chemical_formula_sum "Si O2"
_cell_formula_units_Z 80
_cell_length_a 5.118166
_cell_length_b 23.399978
_cell_length_c 25.209861
_cell_angle_alpha 90.000000
_cell_angle_beta 90.000000
_cell_angle_gamma 90.000000
_cell_volume 3019.258292
_symmetry_space_group_name_H-M "I B C A "
_symmetry_group_IT_number 73
_symmetry_cell_setting 'orthorhombic'
loop_
_space_group_symop_operation_xyz
x,y,z
-x,1/2-y,z
x,-y,1/2-z
1/2-x,y,-z
-x,-y,-z
x,1/2+y,-z
-x,y,1/2+z
1/2+x,-y,z
1/2+x,1/2+y,1/2+z
1/2-x,-y,1/2+z
1/2+x,1/2-y,-z
-x,1/2+y,1/2-z
1/2-x,1/2-y,1/2-z
1/2+x,y,1/2-z
1/2-x,1/2+y,z
x,1/2-y,1/2+z
loop_
_atom_site_type_symbol
_atom_site_label
_atom_site_fract_x
_atom_site_fract_y
_atom_site_fract_z
Si Si1 0.991235 0.814608 0.168516
Si Si2 0.714576 0.576749 0.782561
Si Si3 0.401840 0.599417 0.134800
Si Si4 0.203402 0.151271 0.445016
Si Si5 0.913628 0.038543 0.439630
O O1 0.383726 0.937911 0.165232
O O2 0.082043 0.817192 0.106198
O O3 0.000000 0.750000 0.186468
O O4 0.711581 0.846421 0.166471
O O5 0.424917 0.561042 0.763119
O O6 0.671024 0.644271 0.795934
O O7 0.539384 0.623562 0.081965
O O8 0.150131 0.561983 0.119599
O O9 0.250000 0.184356 0.500000
O O10 0.018000 0.098211 0.462869
O O11 0.638738 0.007410 0.449754
#
# Coordination Sequence:
#
# PCOD9532265 Si02
#       5
#    16  16  16  16  16
#     4  10  23  42  63  96 134 178 226 280 334 403
#     4  11  22  40  68  98 128 169 214 272 339 397
#     4  10  22  44  64  95 132 172 216 276 336 404
#     4  10  23  42  63  96 134 178 226 280 334 403
#     4  11  22  40  68  98 128 169 214 272 339 397
#
# _framework density 26.496573999999999
#
# number of rings (size 3 to 8) (size 9 to 14) (size 15 to 20)
#    0.000    1.600    4.000    0.000    0.000    8.000 
#    3.600    0.000    0.000    3.600    0.000    0.000 
#    0.000    0.000    0.000    0.000    0.000    0.000 
#
# Total GULP energy -223188.927449 kJ/mol
# GULP energy per Si atom -5579.723186 kJ/mol
# Density = 2.643627 g / cm^3
# Si number density = 26.496574 Si / 1000 Ang^3
#
#
#
# Elastic Constant Matrix: (Units=GPa)
#
#
# Indices 1 2 3 4 5 6 
#
# 1 175.6513 20.3604 16.9234 0.0000 0.0000 0.0000
# 2 20.3604 123.0033 -7.6787 0.0000 0.0000 0.0000
# 3 16.9234 -7.6787 117.2187 0.0000 0.0000 0.0000
# 4 0.0000 0.0000 0.0000 17.0611 0.0000 0.0000
# 5 0.0000 0.0000 0.0000 0.0000 48.9214 0.0000
# 6 0.0000 0.0000 0.0000 0.0000 0.0000 16.9371
#
#
#
# Elastic Compliance Matrix: (Units=1/GPa)
#
#
# Indices 1 2 3 4 5 6 
#
# 1 0.005902 -0.001034 -0.000920 0.000000 0.000000 0.000000
# 2 -0.001034 0.008345 0.000696 0.000000 0.000000 0.000000
# 3 -0.000920 0.000696 0.008709 0.000000 0.000000 0.000000
# 4 0.000000 0.000000 0.000000 0.058613 0.000000 0.000000
# 5 0.000000 0.000000 0.000000 0.000000 0.020441 0.000000
# 6 0.000000 0.000000 0.000000 0.000000 0.000000 0.059042
#
#
# Mechanical properties :
#
#
# Convention : Reuss Voigt Hill
#
# Bulk Modulus (GPa) = 48.92535 52.78703 50.85619
# Shear Modulus (GPa) = 29.34604 42.33514 35.84059
#
# Velocity S-wave (km/s) = 3.33158 4.00153 3.68183
# Velocity P-wave (km/s) = 5.77097 6.42769 6.10816
#
# Compressibility (1/GPa) = 0.02043930
#
# Stress axis : x y z
#
# Youngs Moduli (GPa) = 169.44544 119.83918 114.81783
#
# Poissons Ratio (x) = 0.12395 0.10561
# Poissons Ratio (y) = 0.17526 -0.07991
# Poissons Ratio (z) = 0.15585 -0.08340
#
# Static dielectric constant tensor:
#      x y z
#    x 2.153040 0.000000 0.000000 
#    y 0.000000 2.037680 0.000000 
#    z 0.000000 0.000000 2.333110 
# 
# From -- ./inp_files/30920.got.cif
#   From: 2010.05.17/outbox.cif.g08.bks.cpg/sg73_16_cif.got.tgz:30920.got - 2010.06.03 17:35:07.
