data_PCOD9532919
_publ_section_title
;
Structure prediction by ZEFSAII (Michael W. Deem and Ramdas Pophale) SiO2 
 PCOD9532919
Probable space group: I B C A 
;
_chemical_formula_sum "Si O2"
_cell_formula_units_Z 104
_cell_length_a 9.781908
_cell_length_b 25.842907
_cell_length_c 19.492067
_cell_angle_alpha 90.000000
_cell_angle_beta 90.000000
_cell_angle_gamma 90.000000
_cell_volume 4927.456899
_symmetry_space_group_name_H-M "I B C A "
_symmetry_group_IT_number 73
_symmetry_cell_setting 'orthorhombic'
loop_
_space_group_symop_operation_xyz
x,y,z
-x,1/2-y,z
x,-y,1/2-z
1/2-x,y,-z
-x,-y,-z
x,1/2+y,-z
-x,y,1/2+z
1/2+x,-y,z
1/2+x,1/2+y,1/2+z
1/2-x,-y,1/2+z
1/2+x,1/2-y,-z
-x,1/2+y,1/2-z
1/2-x,1/2-y,1/2-z
1/2+x,y,1/2-z
1/2-x,1/2+y,z
x,1/2-y,1/2+z
loop_
_atom_site_type_symbol
_atom_site_label
_atom_site_fract_x
_atom_site_fract_y
_atom_site_fract_z
Si Si1 0.037126 0.991941 0.144135
Si Si2 0.218721 0.337527 0.388450
Si Si3 0.306935 0.649859 0.256572
Si Si4 0.575744 0.800173 0.387478
Si Si5 0.250000 0.256650 0.500000
Si Si6 0.947910 0.081939 0.230642
Si Si7 0.717286 0.043948 0.578563
O O1 0.004157 0.953504 0.207150
O O2 0.942784 0.967362 0.086403
O O3 0.191987 0.004303 0.123981
O O4 0.975044 0.047544 0.164637
O O5 0.247190 0.321257 0.309918
O O6 0.292473 0.297584 0.440105
O O7 0.255674 0.397493 0.399225
O O8 0.055170 0.335959 0.402427
O O9 0.323090 0.676597 0.330531
O O10 0.207504 0.599942 0.262565
O O11 0.458226 0.632396 0.234402
O O12 0.500000 0.750000 0.356434
O O13 0.646946 0.780056 0.457348
O O14 0.750000 0.037178 0.500000
#
# Coordination Sequence:
#
# PCOD9532919 Si02
#       7
#    16  16  16  16   8  16  16
#     4  11  22  40  62 100 132 180 233 271 330 402
#     4  11  22  44  69  98 140 175 232 295 342 403
#     4  12  21  43  69 102 132 179 225 292 343 402
#     4  10  24  46  70 101 133 174 234 293 345 423
#     4  10  24  48  66  92 134 182 214 284 364 404
#     4  11  22  38  69  96 137 173 223 287 340 389
#     4  12  23  40  65  93 139 186 224 273 333 407
#
# _framework density 21.106221999999999
#
# number of rings (size 3 to 8) (size 9 to 14) (size 15 to 20)
#    0.000    0.923    5.385    1.385    0.000    4.923 
#   11.077    0.000    3.385    0.000    0.000    0.000 
#    0.000    0.000    0.000    0.000    0.000    0.000 
#
# Total GULP energy -289897.347616 kJ/mol
# GULP energy per Si atom -5574.948993 kJ/mol
# Density = 2.105818 g / cm^3
# Si number density = 21.106222 Si / 1000 Ang^3
#
#
#
# Elastic Constant Matrix: (Units=GPa)
#
#
# Indices 1 2 3 4 5 6 
#
# 1 74.9700 30.9094 30.9202 0.0000 0.0000 0.0000
# 2 30.9094 62.9167 41.9176 0.0000 0.0000 0.0000
# 3 30.9202 41.9176 98.1638 -0.0001 0.0000 0.0000
# 4 0.0000 0.0000 -0.0001 33.8153 0.0000 0.0000
# 5 0.0000 0.0000 0.0000 0.0000 33.6971 0.0000
# 6 0.0000 0.0000 0.0000 0.0000 0.0000 38.4666
#
#
#
# Elastic Compliance Matrix: (Units=1/GPa)
#
#
# Indices 1 2 3 4 5 6 
#
# 1 0.017163 -0.006750 -0.002523 0.000000 0.000000 0.000000
# 2 -0.006750 0.024869 -0.008493 0.000000 0.000000 0.000000
# 3 -0.002523 -0.008493 0.014609 0.000000 0.000000 0.000000
# 4 0.000000 0.000000 0.000000 0.029572 0.000000 0.000000
# 5 0.000000 0.000000 0.000000 0.000000 0.029676 0.000000
# 6 0.000000 0.000000 0.000000 0.000000 0.000000 0.025997
#
#
# Mechanical properties :
#
#
# Convention : Reuss Voigt Hill
#
# Bulk Modulus (GPa) = 47.37966 49.28280 48.33123
# Shear Modulus (GPa) = 27.10702 30.01602 28.56152
#
# Velocity S-wave (km/s) = 3.58762 3.77522 3.68261
# Velocity P-wave (km/s) = 6.29748 6.51181 6.40554
#
# Compressibility (1/GPa) = 0.02110611
#
# Stress axis : x y z
#
# Youngs Moduli (GPa) = 58.26655 40.21115 68.45277
#
# Poissons Ratio (x) = 0.27144 0.17274
# Poissons Ratio (y) = 0.39332 0.58138
# Poissons Ratio (z) = 0.14703 0.34152
#
# Static dielectric constant tensor:
#      x y z
#    x 1.769030 0.000000 0.000000 
#    y 0.000000 1.815880 0.000000 
#    z 0.000000 0.000000 1.806340 
# 
# From -- ./inp_files/24976.got.cif
#   From: 2010.05.17/outbox.cif.g08.bks.cpg/sg73_13_cif.got.tgz:24976.got - 2010.06.03 17:35:07.
