data_PCOD9532787
_publ_section_title
;
Structure prediction by ZEFSAII (Michael W. Deem and Ramdas Pophale) SiO2 
 PCOD9532787
Probable space group: I B C A 
;
_chemical_formula_sum "Si O2"
_cell_formula_units_Z 72
_cell_length_a 10.347944
_cell_length_b 21.959846
_cell_length_c 13.811035
_cell_angle_alpha 90.000000
_cell_angle_beta 90.000000
_cell_angle_gamma 90.000000
_cell_volume 3138.409327
_symmetry_space_group_name_H-M "I B C A "
_symmetry_group_IT_number 73
_symmetry_cell_setting 'orthorhombic'
loop_
_space_group_symop_operation_xyz
x,y,z
-x,1/2-y,z
x,-y,1/2-z
1/2-x,y,-z
-x,-y,-z
x,1/2+y,-z
-x,y,1/2+z
1/2+x,-y,z
1/2+x,1/2+y,1/2+z
1/2-x,-y,1/2+z
1/2+x,1/2-y,-z
-x,1/2+y,1/2-z
1/2-x,1/2-y,1/2-z
1/2+x,y,1/2-z
1/2-x,1/2+y,z
x,1/2-y,1/2+z
loop_
_atom_site_type_symbol
_atom_site_label
_atom_site_fract_x
_atom_site_fract_y
_atom_site_fract_z
Si Si1 0.250000 0.563970 0.500000
Si Si2 0.049093 0.868113 0.902864
Si Si3 0.629500 0.610054 0.427333
Si Si4 0.449366 0.498190 0.140834
Si Si5 0.120027 0.712247 0.227126
O O1 0.306219 0.609782 0.578865
O O2 0.351855 0.523429 0.442187
O O3 0.979772 0.857546 0.005444
O O4 0.054327 0.816618 0.823433
O O5 0.985515 0.931825 0.871986
O O6 0.750000 0.600630 0.500000
O O7 0.568865 0.549044 0.377396
O O8 0.661817 0.656763 0.342163
O O9 0.396912 0.500000 0.250000
O O10 0.250000 0.750000 0.250000
O O11 0.000000 0.750000 0.182270
#
# Coordination Sequence:
#
# PCOD9532787 Si02
#       5
#     8  16  16  16  16
#     4  10  24  42  72 112 146 188 242 300 384 470
#     4  11  26  46  72 111 149 193 242 311 377 451
#     4  11  25  47  76 110 150 194 247 312 385 455
#     4  11  24  45  76 112 153 189 238 305 399 455
#     4  12  29  51  75 108 146 205 265 311 370 448
#
# _framework density 22.941558000000001
#
# number of rings (size 3 to 8) (size 9 to 14) (size 15 to 20)
#    0.000    0.889    2.222    4.000   12.444    5.333 
#    0.000    0.000    0.000    0.000    0.000    0.000 
#    0.000    0.000    0.000    0.000    0.000    0.000 
#
# Total GULP energy -201077.352306 kJ/mol
# GULP energy per Si atom -5585.482008 kJ/mol
# Density = 2.288934 g / cm^3
# Si number density = 22.941558 Si / 1000 Ang^3
#
#
#
# Elastic Constant Matrix: (Units=GPa)
#
#
# Indices 1 2 3 4 5 6 
#
# 1 86.2953 50.2628 5.1312 0.0000 0.0000 0.0000
# 2 50.2628 117.3395 54.7139 -0.0001 0.0000 0.0000
# 3 5.1312 54.7139 102.8363 -0.0001 0.0000 0.0000
# 4 0.0000 -0.0001 -0.0001 44.8675 0.0000 0.0000
# 5 0.0000 0.0000 0.0000 0.0000 32.2144 0.0000
# 6 0.0000 0.0000 0.0000 0.0000 0.0000 52.3538
#
#
#
# Elastic Compliance Matrix: (Units=1/GPa)
#
#
# Indices 1 2 3 4 5 6 
#
# 1 0.016548 -0.008915 0.003918 0.000000 0.000000 0.000000
# 2 -0.008915 0.016137 -0.008141 0.000000 0.000000 0.000000
# 3 0.003918 -0.008141 0.013860 0.000000 0.000000 0.000000
# 4 0.000000 0.000000 0.000000 0.022288 0.000000 0.000000
# 5 0.000000 0.000000 0.000000 0.000000 0.031042 0.000000
# 6 0.000000 0.000000 0.000000 0.000000 0.000000 0.019101
#
#
# Mechanical properties :
#
#
# Convention : Reuss Voigt Hill
#
# Bulk Modulus (GPa) = 49.33842 58.52075 53.92959
# Shear Modulus (GPa) = 32.89301 38.97803 35.93552
#
# Velocity S-wave (km/s) = 3.79063 4.12638 3.96206
# Velocity P-wave (km/s) = 6.38054 6.94742 6.67001
#
# Compressibility (1/GPa) = 0.02026818
#
# Stress axis : x y z
#
# Youngs Moduli (GPa) = 60.43137 61.96941 72.14990
#
# Poissons Ratio (x) = 0.55245 -0.28265
# Poissons Ratio (y) = 0.53874 0.58736
# Poissons Ratio (z) = -0.23674 0.50448
#
# Static dielectric constant tensor:
#      x y z
#    x 2.036060 0.000000 0.000000 
#    y 0.000000 1.839560 0.000000 
#    z 0.000000 0.000000 2.181450 
# 
# From -- ./inp_files/20604.got.cif
#   From: 2010.05.17/outbox.cif.g08.bks.cpg/sg73_11_cif.got.tgz:20604.got - 2010.06.03 17:35:07.
