data_PCOD9532051
_publ_section_title
;
Structure prediction by ZEFSAII (Michael W. Deem and Ramdas Pophale) SiO2 
 PCOD9532051
Probable space group: I B C A 
;
_chemical_formula_sum "Si O2"
_cell_formula_units_Z 96
_cell_length_a 14.130785
_cell_length_b 18.000109
_cell_length_c 14.086318
_cell_angle_alpha 90.000000
_cell_angle_beta 90.000000
_cell_angle_gamma 90.000000
_cell_volume 3582.934856
_symmetry_space_group_name_H-M "I B C A "
_symmetry_group_IT_number 73
_symmetry_cell_setting 'orthorhombic'
loop_
_space_group_symop_operation_xyz
x,y,z
-x,1/2-y,z
x,-y,1/2-z
1/2-x,y,-z
-x,-y,-z
x,1/2+y,-z
-x,y,1/2+z
1/2+x,-y,z
1/2+x,1/2+y,1/2+z
1/2-x,-y,1/2+z
1/2+x,1/2-y,-z
-x,1/2+y,1/2-z
1/2-x,1/2-y,1/2-z
1/2+x,y,1/2-z
1/2-x,1/2+y,z
x,1/2-y,1/2+z
loop_
_atom_site_type_symbol
_atom_site_label
_atom_site_fract_x
_atom_site_fract_y
_atom_site_fract_z
Si Si1 0.054926 0.873617 0.100220
Si Si2 0.455944 0.594209 0.188428
Si Si3 0.697972 0.014905 0.091511
Si Si4 0.825478 0.366628 0.691741
Si Si5 0.313294 0.239604 0.128065
Si Si6 0.079845 0.811733 0.460375
O O1 0.139595 0.915841 0.048210
O O2 0.094740 0.794684 0.136997
O O3 0.036188 0.914349 0.199474
O O4 0.969797 0.874225 0.026746
O O5 0.381374 0.537464 0.139282
O O6 0.566884 0.610858 0.164294
O O7 0.404156 0.667390 0.147754
O O8 0.764355 0.058942 0.167632
O O9 0.750000 0.979688 0.000000
O O10 0.773951 0.297081 0.639033
O O11 0.820029 0.329830 0.798142
O O12 0.334677 0.210354 0.024217
O O13 0.000000 0.750000 0.458880
#
# Coordination Sequence:
#
# PCOD9532051 Si02
#       6
#    16  16  16  16  16  16
#     4  10  22  45  74 110 155 201 263 328 400 486
#     4  12  25  45  78 115 153 216 268 326 402 492
#     4  11  26  50  68 106 157 211 275 326 387 481
#     4  10  22  44  81 105 156 212 253 332 404 478
#     4   9  20  45  74 116 153 196 267 330 411 483
#     4  10  22  40  72 112 152 196 256 331 397 474
#
# _framework density 26.793678
#
# number of rings (size 3 to 8) (size 9 to 14) (size 15 to 20)
#    0.000    1.667    1.667    1.500    2.333    2.667 
#   12.000    6.667    0.000    0.000    0.000    0.000 
#    0.000    0.000    0.000    0.000    0.000    0.000 
#
# Total GULP energy -267548.947794 kJ/mol
# GULP energy per Si atom -5573.936412 kJ/mol
# Density = 2.673269 g / cm^3
# Si number density = 26.793678 Si / 1000 Ang^3
#
#
#
# Elastic Constant Matrix: (Units=GPa)
#
#
# Indices 1 2 3 4 5 6 
#
# 1 152.5859 70.9317 21.2459 0.0000 0.0000 0.0000
# 2 70.9317 75.8188 27.6698 0.0000 0.0000 0.0000
# 3 21.2459 27.6698 93.3076 0.0001 0.0000 0.0000
# 4 0.0000 0.0000 0.0001 -6.7324 0.0000 0.0000
# 5 0.0000 0.0000 0.0000 0.0000 38.1239 0.0000
# 6 0.0000 0.0000 0.0000 0.0000 0.0000 45.9625
#
#
#
# Elastic Compliance Matrix: (Units=1/GPa)
#
#
# Indices 1 2 3 4 5 6 
#
# 1 0.011632 -0.011119 0.000649 0.000000 0.000000 0.000000
# 2 -0.011119 0.025419 -0.005006 0.000000 0.000000 0.000000
# 3 0.000649 -0.005006 0.012054 0.000000 0.000000 0.000000
# 4 0.000000 0.000000 0.000000 -0.148535 0.000000 0.000000
# 5 0.000000 0.000000 0.000000 0.000000 0.026230 0.000000
# 6 0.000000 0.000000 0.000000 0.000000 0.000000 0.021757
#
#
# Mechanical properties :
#
#
# Convention : Reuss Voigt Hill
#
# Bulk Modulus (GPa) = 55.09009 62.37857 58.73433
# Shear Modulus (GPa) = -346.28324 28.92846 -158.67739
#
# Velocity S-wave (km/s) = -11.38074 3.28941 -7.70393
# Velocity P-wave (km/s) = 12.33246 6.14480 7.56078
#
# Compressibility (1/GPa) = 0.01815208
#
# Stress axis : x y z
#
# Youngs Moduli (GPa) = 85.96759 39.34105 82.95988
#
# Poissons Ratio (x) = 0.43744 -0.05382
# Poissons Ratio (y) = 0.95589 0.41529
# Poissons Ratio (z) = -0.05577 0.19694
#
# Static dielectric constant tensor:
#      x y z
#    x 2.068840 0.000000 0.000000 
#    y 0.000000 2.219230 0.000000 
#    z 0.000000 0.000000 2.128550 
# 
# From -- ./inp_files/17069.got.cif
#   From: 2010.05.17/outbox.cif.g08.bks.cpg/sg73_9_cif.got.tgz:17069.got - 2010.06.03 17:35:07.
