data_PCOD9532532
_publ_section_title
;
Structure prediction by ZEFSAII (Michael W. Deem and Ramdas Pophale) SiO2 
 PCOD9532532
Probable space group: I B C A 
;
_chemical_formula_sum "Si O2"
_cell_formula_units_Z 96
_cell_length_a 15.551166
_cell_length_b 23.446415
_cell_length_c 10.083638
_cell_angle_alpha 90.000000
_cell_angle_beta 90.000000
_cell_angle_gamma 90.000000
_cell_volume 3676.686929
_symmetry_space_group_name_H-M "I B C A "
_symmetry_group_IT_number 73
_symmetry_cell_setting 'orthorhombic'
loop_
_space_group_symop_operation_xyz
x,y,z
-x,1/2-y,z
x,-y,1/2-z
1/2-x,y,-z
-x,-y,-z
x,1/2+y,-z
-x,y,1/2+z
1/2+x,-y,z
1/2+x,1/2+y,1/2+z
1/2-x,-y,1/2+z
1/2+x,1/2-y,-z
-x,1/2+y,1/2-z
1/2-x,1/2-y,1/2-z
1/2+x,y,1/2-z
1/2-x,1/2+y,z
x,1/2-y,1/2+z
loop_
_atom_site_type_symbol
_atom_site_label
_atom_site_fract_x
_atom_site_fract_y
_atom_site_fract_z
Si Si1 0.414313 0.784938 0.073640
Si Si2 0.819176 0.218943 0.342264
Si Si3 0.910214 0.608700 0.103740
Si Si4 0.657011 0.485680 0.950400
Si Si5 0.427694 0.062754 0.204743
Si Si6 0.748403 0.895383 0.231940
O O1 0.500000 0.750000 0.055041
O O2 0.347326 0.751271 0.975605
O O3 0.427312 0.848016 0.014669
O O4 0.393351 0.786246 0.229904
O O5 0.750000 0.250000 0.250000
O O6 0.781048 0.155533 0.361344
O O7 0.898214 0.541979 0.070806
O O8 0.818339 0.628786 0.161829
O O9 0.992822 0.606066 0.201290
O O10 0.689127 0.444123 0.833735
O O11 0.750000 0.506787 0.000000
O O12 0.607669 0.446409 0.055356
O O13 0.338806 0.078116 0.280513
O O14 0.456291 0.000000 0.250000
#
# Coordination Sequence:
#
# PCOD9532532 Si02
#       6
#    16  16  16  16  16  16
#     4  12  29  52  78 119 157 216 278 349 413 500
#     4  12  27  51  82 110 158 209 276 337 421 486
#     4  12  25  45  74 107 155 202 268 333 409 490
#     4  10  23  42  70 109 152 202 257 327 412 501
#     4  11  24  42  68 111 156 203 263 326 411 495
#     4  11  24  46  75 105 152 206 262 329 412 496
#
# _framework density 26.110464
#
# number of rings (size 3 to 8) (size 9 to 14) (size 15 to 20)
#    0.000    0.667    1.667    6.000    4.667    5.333 
#    3.000    0.000    0.000    0.000    0.000    0.000 
#    0.000    0.000    0.000    0.000    0.000    0.000 
#
# Total GULP energy -268625.986647 kJ/mol
# GULP energy per Si atom -5596.374722 kJ/mol
# Density = 2.605104 g / cm^3
# Si number density = 26.110464 Si / 1000 Ang^3
#
#
#
# Elastic Constant Matrix: (Units=GPa)
#
#
# Indices 1 2 3 4 5 6 
#
# 1 130.5819 25.8280 30.3804 0.0000 0.0000 0.0000
# 2 25.8280 133.0304 28.1760 0.0000 0.0000 0.0000
# 3 30.3804 28.1760 97.4257 0.0001 0.0000 0.0000
# 4 0.0000 0.0000 0.0001 16.9118 0.0000 0.0000
# 5 0.0000 0.0000 0.0000 0.0000 37.8262 0.0000
# 6 0.0000 0.0000 0.0000 0.0000 0.0000 37.4731
#
#
#
# Elastic Compliance Matrix: (Units=1/GPa)
#
#
# Indices 1 2 3 4 5 6 
#
# 1 0.008419 -0.001149 -0.002293 0.000000 0.000000 0.000000
# 2 -0.001149 0.008164 -0.002003 0.000000 0.000000 0.000000
# 3 -0.002293 -0.002003 0.011559 0.000000 0.000000 0.000000
# 4 0.000000 0.000000 0.000000 0.059130 0.000000 0.000000
# 5 0.000000 0.000000 0.000000 0.000000 0.026437 0.000000
# 6 0.000000 0.000000 0.000000 0.000000 0.000000 0.026686
#
#
# Mechanical properties :
#
#
# Convention : Reuss Voigt Hill
#
# Bulk Modulus (GPa) = 57.96395 58.86742 58.41569
# Shear Modulus (GPa) = 31.84015 36.88582 34.36298
#
# Velocity S-wave (km/s) = 3.49584 3.76265 3.63169
# Velocity P-wave (km/s) = 6.20824 6.43981 6.32508
#
# Compressibility (1/GPa) = 0.01725210
#
# Stress axis : x y z
#
# Youngs Moduli (GPa) = 118.78276 122.48374 86.51634
#
# Poissons Ratio (x) = 0.14072 0.19838
# Poissons Ratio (y) = 0.13646 0.17329
# Poissons Ratio (z) = 0.27237 0.24533
#
# Static dielectric constant tensor:
#      x y z
#    x 2.122400 0.000000 0.000000 
#    y 0.000000 2.073010 0.000000 
#    z 0.000000 0.000000 2.129820 
# 
# From -- ./inp_files/12020.got.cif
#   From: 2010.05.17/outbox.cif.g08.bks.cpg/sg73_7_cif.got.tgz:12020.got - 2010.06.03 17:35:07.
