data_PCOD9532362
_publ_section_title
;
Structure prediction by ZEFSAII (Michael W. Deem and Ramdas Pophale) SiO2 
 PCOD9532362
Probable space group: I B C A 
;
_chemical_formula_sum "Si O2"
_cell_formula_units_Z 64
_cell_length_a 10.644621
_cell_length_b 9.076939
_cell_length_c 26.589093
_cell_angle_alpha 90.000000
_cell_angle_beta 90.000000
_cell_angle_gamma 90.000000
_cell_volume 2569.053468
_symmetry_space_group_name_H-M "I B C A "
_symmetry_group_IT_number 73
_symmetry_cell_setting 'orthorhombic'
loop_
_space_group_symop_operation_xyz
x,y,z
-x,1/2-y,z
x,-y,1/2-z
1/2-x,y,-z
-x,-y,-z
x,1/2+y,-z
-x,y,1/2+z
1/2+x,-y,z
1/2+x,1/2+y,1/2+z
1/2-x,-y,1/2+z
1/2+x,1/2-y,-z
-x,1/2+y,1/2-z
1/2-x,1/2-y,1/2-z
1/2+x,y,1/2-z
1/2-x,1/2+y,z
x,1/2-y,1/2+z
loop_
_atom_site_type_symbol
_atom_site_label
_atom_site_fract_x
_atom_site_fract_y
_atom_site_fract_z
Si Si1 0.649509 0.500000 0.250000
Si Si2 0.500000 0.750000 0.634967
Si Si3 0.387938 0.475760 0.433807
Si Si4 0.500000 0.750000 0.993510
Si Si5 0.743442 0.385445 0.651806
Si Si6 0.500000 0.250000 0.695453
O O1 0.736864 0.478894 0.298140
O O2 0.558453 0.629908 0.267394
O O3 0.515612 0.594450 0.606117
O O4 0.361289 0.725333 0.656157
O O5 0.394893 0.338582 0.473225
O O6 0.434697 0.621442 0.461807
O O7 0.268132 0.523265 0.400347
O O8 0.611232 0.305629 0.659646
#
# Coordination Sequence:
#
# PCOD9532362 Si02
#       6
#     8   8  16   8  16   8
#     4  12  26  46  72 110 152 202 254 310 374 448
#     4  11  25  46  73 111 156 197 249 310 377 453
#     4  10  22  45  74 107 147 192 243 306 373 444
#     4   9  21  46  77 109 142 189 249 310 375 443
#     4  12  25  46  76 112 152 199 252 311 375 452
#     4  12  26  46  74 106 150 202 256 308 368 448
#
# _framework density 24.911898999999998
#
# number of rings (size 3 to 8) (size 9 to 14) (size 15 to 20)
#    0.000    1.000    0.000    6.000    0.000    2.000 
#    0.000   22.500    0.000    0.000    0.000    0.000 
#    0.000    0.000    0.000    0.000    0.000    0.000 
#
# Total GULP energy -178653.439109 kJ/mol
# GULP energy per Si atom -5582.919972 kJ/mol
# Density = 2.485520 g / cm^3
# Si number density = 24.911899 Si / 1000 Ang^3
#
#
#
# Elastic Constant Matrix: (Units=GPa)
#
#
# Indices 1 2 3 4 5 6 
#
# 1 161.6697 56.9972 57.5900 0.0000 0.0000 0.0000
# 2 56.9972 149.7465 67.1811 0.0000 0.0000 0.0000
# 3 57.5900 67.1811 121.6045 0.0000 0.0000 0.0000
# 4 0.0000 0.0000 0.0000 -307.0983 0.0000 0.0000
# 5 0.0000 0.0000 0.0000 0.0000 -22.1243 0.0000
# 6 0.0000 0.0000 0.0000 0.0000 0.0000 37.1600
#
#
#
# Elastic Compliance Matrix: (Units=1/GPa)
#
#
# Indices 1 2 3 4 5 6 
#
# 1 0.007766 -0.001736 -0.002719 0.000000 0.000000 0.000000
# 2 -0.001736 0.009267 -0.004297 0.000000 0.000000 0.000000
# 3 -0.002719 -0.004297 0.011885 0.000000 0.000000 0.000000
# 4 0.000000 0.000000 0.000000 -0.003256 0.000000 0.000000
# 5 0.000000 0.000000 0.000000 0.000000 -0.045199 0.000000
# 6 0.000000 0.000000 0.000000 0.000000 0.000000 0.026911
#
#
# Mechanical properties :
#
#
# Convention : Reuss Voigt Hill
#
# Bulk Modulus (GPa) = 87.61620 88.50636 88.06128
# Shear Modulus (GPa) = 174.32930 -41.66236 66.33347
#
# Velocity S-wave (km/s) = 8.37438 -4.09392 5.16576
# Velocity P-wave (km/s) = 11.34697 3.64115 8.42650
#
# Compressibility (1/GPa) = 0.01141341
#
# Stress axis : x y z
#
# Youngs Moduli (GPa) = 128.76613 107.91379 84.14046
#
# Poissons Ratio (x) = 0.18737 0.22875
# Poissons Ratio (y) = 0.22357 0.36156
# Poissons Ratio (z) = 0.35007 0.46372
#
# Static dielectric constant tensor:
#      x y z
#    x 1.719890 0.000000 0.000000 
#    y 0.000000 1.983250 0.000000 
#    z 0.000000 0.000000 2.109880 
# 
# From -- ./inp_files/9085.got.cif
#   From: 2010.05.17/outbox.cif.g08.bks.cpg/sg73_5_cif.got.tgz:9085.got - 2010.06.03 17:35:07.
