data_PCOD9532121
_publ_section_title
;
Structure prediction by ZEFSAII (Michael W. Deem and Ramdas Pophale) SiO2 
 PCOD9532121
Probable space group: I B C A 
;
_chemical_formula_sum "Si O2"
_cell_formula_units_Z 104
_cell_length_a 9.114936
_cell_length_b 23.864188
_cell_length_c 20.650577
_cell_angle_alpha 90.000000
_cell_angle_beta 90.000000
_cell_angle_gamma 90.000000
_cell_volume 4491.924791
_symmetry_space_group_name_H-M "I B C A "
_symmetry_group_IT_number 73
_symmetry_cell_setting 'orthorhombic'
loop_
_space_group_symop_operation_xyz
x,y,z
-x,1/2-y,z
x,-y,1/2-z
1/2-x,y,-z
-x,-y,-z
x,1/2+y,-z
-x,y,1/2+z
1/2+x,-y,z
1/2+x,1/2+y,1/2+z
1/2-x,-y,1/2+z
1/2+x,1/2-y,-z
-x,1/2+y,1/2-z
1/2-x,1/2-y,1/2-z
1/2+x,y,1/2-z
1/2-x,1/2+y,z
x,1/2-y,1/2+z
loop_
_atom_site_type_symbol
_atom_site_label
_atom_site_fract_x
_atom_site_fract_y
_atom_site_fract_z
Si Si1 0.118974 0.065208 0.770363
Si Si2 0.738774 0.176415 0.318275
Si Si3 0.078291 0.371383 0.000842
Si Si4 0.934899 0.430112 0.628611
Si Si5 0.000000 0.250000 0.260654
Si Si6 0.403980 0.458831 0.111593
Si Si7 0.870795 0.711202 0.455593
O O1 0.233295 0.111842 0.795530
O O2 0.055502 0.087033 0.702585
O O3 0.994456 0.061380 0.825452
O O4 0.164418 0.000000 0.750000
O O5 0.607477 0.208820 0.280415
O O6 0.704233 0.181697 0.394282
O O7 0.888403 0.210710 0.301374
O O8 0.051028 0.382632 0.076466
O O9 0.955375 0.325781 0.990151
O O10 0.250000 0.358729 0.000000
O O11 0.055734 0.423159 0.951962
O O12 0.769551 0.453582 0.620042
O O13 0.049502 0.477085 0.607725
O O14 0.750000 0.741253 0.500000
O O15 0.000000 0.750000 0.428761
#
# Coordination Sequence:
#
# PCOD9532121 Si02
#       7
#    16  16  16  16   8  16  16
#     4  10  24  41  67 106 147 184 238 308 376 449
#     4  11  25  49  74 107 146 194 253 306 390 451
#     4  10  23  44  67  96 137 192 241 300 368 447
#     4  10  23  39  68  96 140 184 244 294 359 455
#     4  10  26  48  76 104 140 198 246 312 368 458
#     4  10  22  42  61 101 137 190 232 294 374 440
#     4  12  27  46  72 105 143 193 252 323 380 450
#
# _framework density 23.152657000000001
#
# number of rings (size 3 to 8) (size 9 to 14) (size 15 to 20)
#    0.000    1.538    0.769    1.846    5.385    9.231 
#    2.769    0.000    0.000    0.000    0.000    0.000 
#    0.000    0.000    0.000    0.000    0.000    0.000 
#
# Total GULP energy -290320.365439 kJ/mol
# GULP energy per Si atom -5583.083951 kJ/mol
# Density = 2.309996 g / cm^3
# Si number density = 23.152657 Si / 1000 Ang^3
#
#
#
# Elastic Constant Matrix: (Units=GPa)
#
#
# Indices 1 2 3 4 5 6 
#
# 1 129.4435 53.7481 34.2065 0.0000 0.0000 0.0000
# 2 53.7481 90.7582 43.5022 0.0000 0.0000 0.0000
# 3 34.2065 43.5022 112.1623 0.0000 0.0000 0.0000
# 4 0.0000 0.0000 0.0000 23.0145 0.0000 0.0000
# 5 0.0000 0.0000 0.0000 0.0000 27.4134 0.0000
# 6 0.0000 0.0000 0.0000 0.0000 0.0000 46.1096
#
#
#
# Elastic Compliance Matrix: (Units=1/GPa)
#
#
# Indices 1 2 3 4 5 6 
#
# 1 0.010327 -0.005658 -0.000955 0.000000 0.000000 0.000000
# 2 -0.005658 0.016634 -0.004726 0.000000 0.000000 0.000000
# 3 -0.000955 -0.004726 0.011040 0.000000 0.000000 0.000000
# 4 0.000000 0.000000 0.000000 0.043451 0.000000 0.000000
# 5 0.000000 0.000000 0.000000 0.000000 0.036479 0.000000
# 6 0.000000 0.000000 0.000000 0.000000 0.000000 0.021687
#
#
# Mechanical properties :
#
#
# Convention : Reuss Voigt Hill
#
# Bulk Modulus (GPa) = 65.26111 66.14196 65.70153
# Shear Modulus (GPa) = 29.86782 32.70132 31.28457
#
# Velocity S-wave (km/s) = 3.59561 3.76230 3.67990
# Velocity P-wave (km/s) = 6.74436 6.89224 6.81870
#
# Compressibility (1/GPa) = 0.01532306
#
# Stress axis : x y z
#
# Youngs Moduli (GPa) = 96.83239 60.11641 90.58043
#
# Poissons Ratio (x) = 0.34014 0.08650
# Poissons Ratio (y) = 0.54789 0.42809
# Poissons Ratio (z) = 0.09248 0.28412
#
# Static dielectric constant tensor:
#      x y z
#    x 2.204730 0.000000 0.000000 
#    y 0.000000 1.961210 0.000000 
#    z 0.000000 0.000000 1.793780 
# 
# From -- ./inp_files/24959.got.cif
#   From: 2010.05.17/outbox.cif.g08.bks.cpg/sg73_13_cif.got.tgz:24959.got - 2010.06.03 17:35:07.
