data_PCOD9532910
_publ_section_title
;
Structure prediction by ZEFSAII (Michael W. Deem and Ramdas Pophale) SiO2 
 PCOD9532910
Probable space group: I B C A 
;
_chemical_formula_sum "Si O2"
_cell_formula_units_Z 72
_cell_length_a 13.193521
_cell_length_b 9.316692
_cell_length_c 24.807133
_cell_angle_alpha 90.000000
_cell_angle_beta 90.000000
_cell_angle_gamma 90.000000
_cell_volume 3049.292083
_symmetry_space_group_name_H-M "I B C A "
_symmetry_group_IT_number 73
_symmetry_cell_setting 'orthorhombic'
loop_
_space_group_symop_operation_xyz
x,y,z
-x,1/2-y,z
x,-y,1/2-z
1/2-x,y,-z
-x,-y,-z
x,1/2+y,-z
-x,y,1/2+z
1/2+x,-y,z
1/2+x,1/2+y,1/2+z
1/2-x,-y,1/2+z
1/2+x,1/2-y,-z
-x,1/2+y,1/2-z
1/2-x,1/2-y,1/2-z
1/2+x,y,1/2-z
1/2-x,1/2+y,z
x,1/2-y,1/2+z
loop_
_atom_site_type_symbol
_atom_site_label
_atom_site_fract_x
_atom_site_fract_y
_atom_site_fract_z
Si Si1 0.414070 0.904839 0.030156
Si Si2 0.000000 0.250000 0.353414
Si Si3 0.842503 0.680375 0.557013
Si Si4 0.164707 0.284913 0.128233
Si Si5 0.665807 0.523300 0.813347
O O1 0.425902 0.852179 0.092225
O O2 0.327009 0.021408 0.037246
O O3 0.388048 0.779581 0.989165
O O4 0.500000 0.000000 0.000000
O O5 0.078986 0.325879 0.393432
O O6 0.070268 0.132358 0.322994
O O7 0.741112 0.742486 0.580535
O O8 0.231943 0.398940 0.163101
O O9 0.147613 0.134579 0.159975
O O10 0.679232 0.500000 0.750000
#
# Coordination Sequence:
#
# PCOD9532910 Si02
#       5
#    16   8  16  16  16
#     4  12  24  41  68 111 154 201 244 301 385 465
#     4  10  24  46  68 106 154 182 250 320 376 456
#     4  11  24  43  66 104 149 195 248 302 375 468
#     4  11  25  46  77 106 150 199 258 319 380 462
#     4  11  25  51  78 110 145 200 265 331 389 448
#
# _framework density 23.612038999999999
#
# number of rings (size 3 to 8) (size 9 to 14) (size 15 to 20)
#    0.000    0.889    4.444    1.333    6.222    3.556 
#    4.000    2.222    0.000    0.000    0.000    0.000 
#    0.000    0.000    0.000    0.000    0.000    0.000 
#
# Total GULP energy -200985.047808 kJ/mol
# GULP energy per Si atom -5582.917995 kJ/mol
# Density = 2.355830 g / cm^3
# Si number density = 23.612039 Si / 1000 Ang^3
#
#
#
# Elastic Constant Matrix: (Units=GPa)
#
#
# Indices 1 2 3 4 5 6 
#
# 1 58.7245 19.7939 55.1081 0.0000 0.0000 0.0000
# 2 19.7939 191.4260 99.5034 0.0000 0.0000 0.0000
# 3 55.1081 99.5034 187.8971 0.0000 0.0000 0.0000
# 4 0.0000 0.0000 0.0000 46.0987 0.0000 0.0000
# 5 0.0000 0.0000 0.0000 0.0000 16.2031 0.0000
# 6 0.0000 0.0000 0.0000 0.0000 0.0000 -16.4806
#
#
#
# Elastic Compliance Matrix: (Units=1/GPa)
#
#
# Indices 1 2 3 4 5 6 
#
# 1 0.023851 0.001614 -0.007850 0.000000 0.000000 0.000000
# 2 0.001614 0.007317 -0.004348 0.000000 0.000000 0.000000
# 3 -0.007850 -0.004348 0.009927 0.000000 0.000000 0.000000
# 4 0.000000 0.000000 0.000000 0.021693 0.000000 0.000000
# 5 0.000000 0.000000 0.000000 0.000000 0.061717 0.000000
# 6 0.000000 0.000000 0.000000 0.000000 0.000000 -0.060677
#
#
# Mechanical properties :
#
#
# Convention : Reuss Voigt Hill
#
# Bulk Modulus (GPa) = 50.18290 87.42873 68.80581
# Shear Modulus (GPa) = 54.56197 26.74037 40.65117
#
# Velocity S-wave (km/s) = 4.81226 3.36890 4.15375
# Velocity P-wave (km/s) = 7.22332 7.22774 7.22553
#
# Compressibility (1/GPa) = 0.01992711
#
# Stress axis : x y z
#
# Youngs Moduli (GPa) = 41.92649 136.66144 100.73346
#
# Poissons Ratio (x) = -0.22060 0.79077
# Poissons Ratio (y) = -0.06768 0.43803
# Poissons Ratio (z) = 0.32913 0.59426
#
# Static dielectric constant tensor:
#      x y z
#    x 2.001630 0.000000 0.000000 
#    y 0.000000 1.997750 0.000000 
#    z 0.000000 0.000000 1.860820 
# 
# From -- ./inp_files/32039.got.cif
#   From: 2010.05.17/outbox.cif.g08.bks.cpg/sg73_17_cif.got.tgz:32039.got - 2010.06.03 17:35:07.
