data_PCOD9532209
_publ_section_title
;
Structure prediction by ZEFSAII (Michael W. Deem and Ramdas Pophale) SiO2 
 PCOD9532209
Probable space group: I B C A 
;
_chemical_formula_sum "Si O2"
_cell_formula_units_Z 72
_cell_length_a 23.102592
_cell_length_b 5.001580
_cell_length_c 23.993641
_cell_angle_alpha 90.000000
_cell_angle_beta 90.000000
_cell_angle_gamma 90.000000
_cell_volume 2772.452311
_symmetry_space_group_name_H-M "I B C A "
_symmetry_group_IT_number 73
_symmetry_cell_setting 'orthorhombic'
loop_
_space_group_symop_operation_xyz
x,y,z
-x,1/2-y,z
x,-y,1/2-z
1/2-x,y,-z
-x,-y,-z
x,1/2+y,-z
-x,y,1/2+z
1/2+x,-y,z
1/2+x,1/2+y,1/2+z
1/2-x,-y,1/2+z
1/2+x,1/2-y,-z
-x,1/2+y,1/2-z
1/2-x,1/2-y,1/2-z
1/2+x,y,1/2-z
1/2-x,1/2+y,z
x,1/2-y,1/2+z
loop_
_atom_site_type_symbol
_atom_site_label
_atom_site_fract_x
_atom_site_fract_y
_atom_site_fract_z
Si Si1 0.344130 0.588934 0.463984
Si Si2 0.943086 0.818198 0.892580
Si Si3 0.500000 0.250000 0.687662
Si Si4 0.619950 0.904854 0.806309
Si Si5 0.283730 0.526917 0.354733
O O1 0.342885 0.394854 0.517214
O O2 0.400444 0.493847 0.430037
O O3 0.292328 0.535268 0.421188
O O4 0.903088 0.605326 0.856314
O O5 0.000000 0.750000 0.930115
O O6 0.979114 0.005883 0.850359
O O7 0.440507 0.292367 0.718596
O O8 0.650666 0.000000 0.750000
O O9 0.659313 0.667375 0.830383
O O10 0.268782 0.225457 0.338918
#
# Coordination Sequence:
#
# PCOD9532209 Si02
#       5
#    16  16   8  16  16
#     4  12  26  46  75 106 142 191 251 312 378 445
#     4  10  23  44  68 108 156 197 246 311 381 465
#     4  10  22  42  74 104 152 196 242 316 384 452
#     4  11  25  44  74 110 152 200 254 309 381 465
#     4  12  27  50  75 104 149 194 247 316 372 443
#
# _framework density 25.96979
#
# number of rings (size 3 to 8) (size 9 to 14) (size 15 to 20)
#    0.000    0.889    2.222    4.000    7.778    4.444 
#    0.000    0.000    0.000    0.000    0.000    0.000 
#    0.000    0.000    0.000    0.000    0.000    0.000 
#
# Total GULP energy -200930.830968 kJ/mol
# GULP energy per Si atom -5581.411971 kJ/mol
# Density = 2.591068 g / cm^3
# Si number density = 25.969790 Si / 1000 Ang^3
#
#
#
# Elastic Constant Matrix: (Units=GPa)
#
#
# Indices 1 2 3 4 5 6 
#
# 1 130.9143 27.2171 32.3445 0.0000 0.0000 0.0000
# 2 27.2171 78.3032 10.6217 0.0000 0.0000 0.0000
# 3 32.3445 10.6217 70.4751 0.0000 0.0000 0.0000
# 4 0.0000 0.0000 0.0000 46.1173 0.0000 0.0000
# 5 0.0000 0.0000 0.0000 0.0000 -50.0971 0.0000
# 6 0.0000 0.0000 0.0000 0.0000 0.0000 49.1464
#
#
#
# Elastic Compliance Matrix: (Units=1/GPa)
#
#
# Indices 1 2 3 4 5 6 
#
# 1 0.009127 -0.002659 -0.003788 0.000000 0.000000 0.000000
# 2 -0.002659 0.013812 -0.000861 0.000000 0.000000 0.000000
# 3 -0.003788 -0.000861 0.016058 0.000000 0.000000 0.000000
# 4 0.000000 0.000000 0.000000 0.021684 0.000000 0.000000
# 5 0.000000 0.000000 0.000000 0.000000 -0.019961 0.000000
# 6 0.000000 0.000000 0.000000 0.000000 0.000000 0.020347
#
#
# Mechanical properties :
#
#
# Convention : Reuss Voigt Hill
#
# Bulk Modulus (GPa) = 41.01685 46.67324 43.84504
# Shear Modulus (GPa) = 59.65848 23.00062 41.32955
#
# Velocity S-wave (km/s) = 4.79814 2.97925 3.99362
# Velocity P-wave (km/s) = 6.82089 5.46312 6.17941
#
# Compressibility (1/GPa) = 0.02438023
#
# Stress axis : x y z
#
# Youngs Moduli (GPa) = 109.56189 72.40173 62.27479
#
# Poissons Ratio (x) = 0.19249 0.23591
# Poissons Ratio (y) = 0.29129 0.05365
# Poissons Ratio (z) = 0.41505 0.06237
#
# Static dielectric constant tensor:
#      x y z
#    x 2.258060 0.000000 0.000000 
#    y 0.000000 2.627080 0.000000 
#    z 0.000000 0.000000 2.138900 
# 
# From -- ./inp_files/2144.got.cif
#   From: 2010.05.17/outbox.cif.g08.bks.cpg/sg73_2_cif.got.tgz:2144.got - 2010.06.03 17:35:07.
