data_PCOD9532399
_publ_section_title
;
Structure prediction by ZEFSAII (Michael W. Deem and Ramdas Pophale) SiO2 
 PCOD9532399
Probable space group: I B C A 
;
_chemical_formula_sum "Si O2"
_cell_formula_units_Z 88
_cell_length_a 20.205857
_cell_length_b 18.556354
_cell_length_c 9.303058
_cell_angle_alpha 90.000000
_cell_angle_beta 90.000000
_cell_angle_gamma 90.000000
_cell_volume 3488.154017
_symmetry_space_group_name_H-M "I B C A "
_symmetry_group_IT_number 73
_symmetry_cell_setting 'orthorhombic'
loop_
_space_group_symop_operation_xyz
x,y,z
-x,1/2-y,z
x,-y,1/2-z
1/2-x,y,-z
-x,-y,-z
x,1/2+y,-z
-x,y,1/2+z
1/2+x,-y,z
1/2+x,1/2+y,1/2+z
1/2-x,-y,1/2+z
1/2+x,1/2-y,-z
-x,1/2+y,1/2-z
1/2-x,1/2-y,1/2-z
1/2+x,y,1/2-z
1/2-x,1/2+y,z
x,1/2-y,1/2+z
loop_
_atom_site_type_symbol
_atom_site_label
_atom_site_fract_x
_atom_site_fract_y
_atom_site_fract_z
Si Si1 0.695772 0.206085 0.623653
Si Si2 0.604138 0.564460 0.661713
Si Si3 0.211412 0.358194 0.857243
Si Si4 0.000000 0.250000 0.978243
Si Si5 0.872088 0.557052 0.652798
Si Si6 0.975935 0.349979 0.712650
O O1 0.750000 0.207470 0.500000
O O2 0.729466 0.181841 0.772364
O O3 0.665692 0.286244 0.619962
O O4 0.654597 0.134408 0.599265
O O5 0.572477 0.500000 0.750000
O O6 0.669945 0.589997 0.750758
O O7 0.612956 0.528536 0.505217
O O8 0.549583 0.627175 0.665395
O O9 0.250000 0.386587 0.000000
O O10 0.953277 0.206374 0.090587
O O11 0.976391 0.309978 0.865318
O O12 0.831175 0.500000 0.750000
O O13 0.929712 0.581162 0.762907
#
# Coordination Sequence:
#
# PCOD9532399 Si02
#       6
#    16  16  16   8  16  16
#     4  10  22  47  72 101 141 183 243 301 363 428
#     4  12  28  47  69 105 151 193 240 301 364 444
#     4  10  24  45  75 106 136 186 239 309 366 426
#     4  10  24  42  70 112 130 192 240 306 354 430
#     4  12  28  46  71 104 147 200 239 300 368 441
#     4  11  25  46  73 105 149 183 245 303 373 435
#
# _framework density 25.228244
#
# number of rings (size 3 to 8) (size 9 to 14) (size 15 to 20)
#    0.000    1.091    3.636    0.545   10.182    2.182 
#    0.000    0.000    0.000    0.000    0.000    0.000 
#    0.000    0.000    0.000    0.000    0.000    0.000 
#
# Total GULP energy -245141.103674 kJ/mol
# GULP energy per Si atom -5571.388720 kJ/mol
# Density = 2.517082 g / cm^3
# Si number density = 25.228244 Si / 1000 Ang^3
#
#
#
# Elastic Constant Matrix: (Units=GPa)
#
#
# Indices 1 2 3 4 5 6 
#
# 1 23.8460 -6.2822 15.9230 0.0000 0.0000 0.0000
# 2 -6.2822 71.7614 29.4427 0.0000 0.0000 0.0000
# 3 15.9230 29.4427 188.5821 0.0000 0.0000 0.0000
# 4 0.0000 0.0000 0.0000 43.6102 0.0000 0.0000
# 5 0.0000 0.0000 0.0000 0.0000 11.3733 0.0000
# 6 0.0000 0.0000 0.0000 0.0000 0.0000 -66.9989
#
#
#
# Elastic Compliance Matrix: (Units=1/GPa)
#
#
# Indices 1 2 3 4 5 6 
#
# 1 0.046823 0.006113 -0.004908 0.000000 0.000000 0.000000
# 2 0.006113 0.015687 -0.002965 0.000000 0.000000 0.000000
# 3 -0.004908 -0.002965 0.006180 0.000000 0.000000 0.000000
# 4 0.000000 0.000000 0.000000 0.022930 0.000000 0.000000
# 5 0.000000 0.000000 0.000000 0.000000 0.087925 0.000000
# 6 0.000000 0.000000 0.000000 0.000000 0.000000 -0.014926
#
#
# Mechanical properties :
#
#
# Convention : Reuss Voigt Hill
#
# Bulk Modulus (GPa) = 15.34465 40.26184 27.80324
# Shear Modulus (GPa) = 26.33464 13.93731 20.13598
#
# Velocity S-wave (km/s) = 3.23438 2.35297 2.82822
# Velocity P-wave (km/s) = 4.47703 4.83484 4.65937
#
# Compressibility (1/GPa) = 0.06516931
#
# Stress axis : x y z
#
# Youngs Moduli (GPa) = 21.35688 63.74785 161.80998
#
# Poissons Ratio (x) = -0.38967 0.79415
# Poissons Ratio (y) = -0.13055 0.47981
# Poissons Ratio (z) = 0.10482 0.18903
#
# Static dielectric constant tensor:
#      x y z
#    x 2.133810 0.000000 0.000000 
#    y 0.000000 2.015030 0.000000 
#    z 0.000000 0.000000 2.071010 
# 
# From -- ./inp_files/7082.got.cif
#   From: 2010.05.17/outbox.cif.g08.bks.cpg/sg73_4_cif.got.tgz:7082.got - 2010.06.03 17:35:07.
