data_PCOD9532084
_publ_section_title
;
Structure prediction by ZEFSAII (Michael W. Deem and Ramdas Pophale) SiO2 
 PCOD9532084
Probable space group: I B C A 
;
_chemical_formula_sum "Si O2"
_cell_formula_units_Z 112
_cell_length_a 30.315518
_cell_length_b 5.416033
_cell_length_c 27.086232
_cell_angle_alpha 90.000000
_cell_angle_beta 90.000000
_cell_angle_gamma 90.000000
_cell_volume 4447.284258
_symmetry_space_group_name_H-M "I B C A "
_symmetry_group_IT_number 73
_symmetry_cell_setting 'orthorhombic'
loop_
_space_group_symop_operation_xyz
x,y,z
-x,1/2-y,z
x,-y,1/2-z
1/2-x,y,-z
-x,-y,-z
x,1/2+y,-z
-x,y,1/2+z
1/2+x,-y,z
1/2+x,1/2+y,1/2+z
1/2-x,-y,1/2+z
1/2+x,1/2-y,-z
-x,1/2+y,1/2-z
1/2-x,1/2-y,1/2-z
1/2+x,y,1/2-z
1/2-x,1/2+y,z
x,1/2-y,1/2+z
loop_
_atom_site_type_symbol
_atom_site_label
_atom_site_fract_x
_atom_site_fract_y
_atom_site_fract_z
Si Si1 0.233788 0.831341 0.056036
Si Si2 0.633223 0.610441 0.928749
Si Si3 0.436476 0.000000 0.250000
Si Si4 0.769286 0.025525 0.307418
Si Si5 0.000000 0.750000 0.327683
Si Si6 0.870778 0.867035 0.174942
Si Si7 0.574226 0.221333 0.890019
Si Si8 0.440973 0.607327 0.973115
O O1 0.236626 0.553830 0.077328
O O2 0.183666 0.923314 0.057806
O O3 0.250000 0.793942 0.000000
O O4 0.630264 0.678628 0.870614
O O5 0.601866 0.371752 0.930306
O O6 0.611182 0.825407 0.961854
O O7 0.469730 0.088014 0.292274
O O8 0.402663 0.185208 0.221563
O O9 0.742726 0.258374 0.328616
O O10 0.820895 0.084889 0.309468
O O11 0.755692 0.000000 0.250000
O O12 0.036754 0.876240 0.362375
O O13 0.891672 0.109818 0.149204
O O14 0.548983 0.998178 0.918284
O O15 0.455688 0.375486 0.007147
#
# Coordination Sequence:
#
# PCOD9532084 Si02
#       8
#    16  16   8  16   8  16  16  16
#     4  10  25  41  63 100 142 191 245 301 357 433
#     4  11  25  41  71 102 150 194 249 311 379 441
#     4  10  22  46  74 110 142 196 252 314 386 488
#     4  10  22  41  65  96 135 192 247 305 357 439
#     4  10  24  46  78 110 154 190 254 318 408 464
#     4  10  23  42  66 104 150 192 256 308 391 443
#     4  10  24  46  68 111 149 197 241 332 383 465
#     4  11  23  42  75 105 138 194 244 292 366 453
#
# _framework density 25.183907999999999
#
# number of rings (size 3 to 8) (size 9 to 14) (size 15 to 20)
#    0.000    1.714    2.143    0.000   12.000    1.143 
#    0.000    0.714    0.000    0.000    0.000    0.000 
#    0.000    0.000    0.000    0.000    0.000    0.000 
#
# Total GULP energy -312543.476163 kJ/mol
# GULP energy per Si atom -5581.133503 kJ/mol
# Density = 2.512659 g / cm^3
# Si number density = 25.183908 Si / 1000 Ang^3
#
#
#
# Elastic Constant Matrix: (Units=GPa)
#
#
# Indices 1 2 3 4 5 6 
#
# 1 114.0224 23.7198 0.6703 0.0000 0.0000 0.0000
# 2 23.7198 133.1119 18.9158 0.0000 0.0000 0.0000
# 3 0.6703 18.9158 73.1421 0.0000 0.0000 0.0000
# 4 0.0000 0.0000 0.0000 -117.9500 0.0000 0.0000
# 5 0.0000 0.0000 0.0000 0.0000 -0.4380 0.0000
# 6 0.0000 0.0000 0.0000 0.0000 0.0000 30.5021
#
#
#
# Elastic Compliance Matrix: (Units=1/GPa)
#
#
# Indices 1 2 3 4 5 6 
#
# 1 0.009116 -0.001674 0.000349 0.000000 0.000000 0.000000
# 2 -0.001674 0.008107 -0.002081 0.000000 0.000000 0.000000
# 3 0.000349 -0.002081 0.014207 0.000000 0.000000 0.000000
# 4 0.000000 0.000000 0.000000 -0.008478 0.000000 0.000000
# 5 0.000000 0.000000 0.000000 0.000000 -2.283342 0.000000
# 6 0.000000 0.000000 0.000000 0.000000 0.000000 0.032785
#
#
# Mechanical properties :
#
#
# Convention : Reuss Voigt Hill
#
# Bulk Modulus (GPa) = 40.62029 45.20979 42.91504
# Shear Modulus (GPa) = -2.25980 0.88753 -0.68613
#
# Velocity S-wave (km/s) = -0.94830 0.59429 -0.52253
# Velocity P-wave (km/s) = 3.86852 4.29671 4.08823
#
# Compressibility (1/GPa) = 0.02461824
#
# Stress axis : x y z
#
# Youngs Moduli (GPa) = 109.69215 123.35720 70.38769
#
# Poissons Ratio (x) = 0.20652 -0.02459
# Poissons Ratio (y) = 0.18364 0.14649
# Poissons Ratio (z) = -0.03833 0.25672
#
# Static dielectric constant tensor:
#      x y z
#    x 1.965640 0.000000 0.000000 
#    y 0.000000 2.085750 0.000000 
#    z 0.000000 0.000000 2.133190 
# 
# From -- ./inp_files/34938.got.cif
#   From: 2010.05.17/outbox.cif.g08.bks.cpg/sg73_18_cif.got.tgz:34938.got - 2010.06.03 17:35:07.
