data_PCOD9532273
_publ_section_title
;
Structure prediction by ZEFSAII (Michael W. Deem and Ramdas Pophale) SiO2 
 PCOD9532273
Probable space group: I B C A 
;
_chemical_formula_sum "Si O2"
_cell_formula_units_Z 120
_cell_length_a 16.149429
_cell_length_b 26.984899
_cell_length_c 13.366864
_cell_angle_alpha 90.000000
_cell_angle_beta 90.000000
_cell_angle_gamma 90.000000
_cell_volume 5825.155159
_symmetry_space_group_name_H-M "I B C A "
_symmetry_group_IT_number 73
_symmetry_cell_setting 'orthorhombic'
loop_
_space_group_symop_operation_xyz
x,y,z
-x,1/2-y,z
x,-y,1/2-z
1/2-x,y,-z
-x,-y,-z
x,1/2+y,-z
-x,y,1/2+z
1/2+x,-y,z
1/2+x,1/2+y,1/2+z
1/2-x,-y,1/2+z
1/2+x,1/2-y,-z
-x,1/2+y,1/2-z
1/2-x,1/2-y,1/2-z
1/2+x,y,1/2-z
1/2-x,1/2+y,z
x,1/2-y,1/2+z
loop_
_atom_site_type_symbol
_atom_site_label
_atom_site_fract_x
_atom_site_fract_y
_atom_site_fract_z
Si Si1 0.167859 0.472719 0.548287
Si Si2 0.138565 0.936112 0.898903
Si Si3 0.040774 0.196593 0.932565
Si Si4 0.345040 0.230487 0.243999
Si Si5 0.542946 0.389876 0.906794
Si Si6 0.271604 0.336048 0.897261
Si Si7 0.901751 0.665397 0.217594
Si Si8 0.741416 0.000000 0.750000
O O1 0.250000 0.449773 0.500000
O O2 0.145565 0.521630 0.484119
O O3 0.095736 0.433421 0.543962
O O4 0.197921 0.484798 0.659978
O O5 0.193007 0.888902 0.925565
O O6 0.179667 0.959186 0.798530
O O7 0.047193 0.913633 0.890507
O O8 0.120885 0.208610 0.861362
O O9 0.000000 0.250000 0.959135
O O10 0.974925 0.168158 0.862145
O O11 0.050127 0.159608 0.025406
O O12 0.250000 0.250000 0.250000
O O13 0.342327 0.190019 0.330836
O O14 0.399132 0.279130 0.264133
O O15 0.581490 0.375072 0.800457
O O16 0.186642 0.341559 0.835785
O O17 0.250000 0.307620 0.000000
#
# Coordination Sequence:
#
# PCOD9532273 Si02
#       8
#    16  16  16  16  16  16  16   8
#     4  10  24  43  63  92 124 162 214 266 322 391
#     4  11  24  41  63  93 125 166 216 265 328 404
#     4  10  23  42  62  91 131 169 207 263 325 386
#     4   9  21  39  60  90 125 164 215 262 313 393
#     4  12  25  40  66  95 128 167 211 271 329 391
#     4  11  21  39  65  91 124 169 217 267 326 390
#     4  10  23  39  60  93 125 164 217 264 322 397
#     4  10  22  44  66  84 124 164 202 274 328 372
#
# _framework density 20.60031
#
# number of rings (size 3 to 8) (size 9 to 14) (size 15 to 20)
#    0.000    1.600    0.000    4.000    0.000   13.867 
#    0.000    0.000    0.000    0.000    0.000    0.000 
#    0.000    0.000    0.000    0.000    0.000    0.000 
#
# Total GULP energy -334844.233558 kJ/mol
# GULP energy per Si atom -5580.737226 kJ/mol
# Density = 2.055342 g / cm^3
# Si number density = 20.600310 Si / 1000 Ang^3
#
#
#
# Elastic Constant Matrix: (Units=GPa)
#
#
# Indices 1 2 3 4 5 6 
#
# 1 77.2179 10.7933 11.0580 0.0000 0.0000 0.0000
# 2 10.7933 75.6436 19.3758 0.0000 0.0000 0.0000
# 3 11.0580 19.3758 70.7608 0.0002 0.0000 0.0000
# 4 0.0000 0.0000 0.0002 1.7852 0.0000 0.0000
# 5 0.0000 0.0000 0.0000 0.0000 5.5181 0.0000
# 6 0.0000 0.0000 0.0000 0.0000 0.0000 26.3604
#
#
#
# Elastic Compliance Matrix: (Units=1/GPa)
#
#
# Indices 1 2 3 4 5 6 
#
# 1 0.013399 -0.001479 -0.001689 0.000000 0.000000 0.000000
# 2 -0.001479 0.014380 -0.003706 0.000000 0.000000 0.000000
# 3 -0.001689 -0.003706 0.015411 -0.000001 0.000000 0.000000
# 4 0.000000 0.000000 -0.000001 0.560173 -0.000002 -0.000001
# 5 0.000000 0.000000 0.000000 -0.000002 0.181222 0.000000
# 6 0.000000 0.000000 0.000000 -0.000001 0.000000 0.037936
#
#
# Mechanical properties :
#
#
# Convention : Reuss Voigt Hill
#
# Bulk Modulus (GPa) = 33.96609 34.00850 33.98730
# Shear Modulus (GPa) = 5.90958 18.89241 12.40099
#
# Velocity S-wave (km/s) = 1.69556 3.03164 2.45619
# Velocity P-wave (km/s) = 4.51189 5.36647 4.95763
#
# Compressibility (1/GPa) = 0.02944112
#
# Stress axis : x y z
#
# Youngs Moduli (GPa) = 74.63255 69.53929 64.88896
#
# Poissons Ratio (x) = 0.10287 0.10959
# Poissons Ratio (y) = 0.11040 0.24051
# Poissons Ratio (z) = 0.12604 0.25775
#
# Static dielectric constant tensor:
#      x y z
#    x 1.766700 0.000000 0.000000 
#    y 0.000000 1.723710 0.000000 
#    z 0.000000 0.000000 1.865090 
# 
# From -- ./inp_files/12244.got.cif
#   From: 2010.05.17/outbox.cif.g08.bks.cpg/sg73_7_cif.got.tgz:12244.got - 2010.06.03 17:35:07.
