data_PCOD9532613
_publ_section_title
;
Structure prediction by ZEFSAII (Michael W. Deem and Ramdas Pophale) SiO2 
 PCOD9532613
Probable space group: I B C A 
;
_chemical_formula_sum "Si O2"
_cell_formula_units_Z 120
_cell_length_a 18.177747
_cell_length_b 9.992112
_cell_length_c 26.008825
_cell_angle_alpha 90.000000
_cell_angle_beta 90.000000
_cell_angle_gamma 90.000000
_cell_volume 4724.089103
_symmetry_space_group_name_H-M "I B C A "
_symmetry_group_IT_number 73
_symmetry_cell_setting 'orthorhombic'
loop_
_space_group_symop_operation_xyz
x,y,z
-x,1/2-y,z
x,-y,1/2-z
1/2-x,y,-z
-x,-y,-z
x,1/2+y,-z
-x,y,1/2+z
1/2+x,-y,z
1/2+x,1/2+y,1/2+z
1/2-x,-y,1/2+z
1/2+x,1/2-y,-z
-x,1/2+y,1/2-z
1/2-x,1/2-y,1/2-z
1/2+x,y,1/2-z
1/2-x,1/2+y,z
x,1/2-y,1/2+z
loop_
_atom_site_type_symbol
_atom_site_label
_atom_site_fract_x
_atom_site_fract_y
_atom_site_fract_z
Si Si1 0.307551 0.295316 0.672479
Si Si2 0.935517 0.592479 0.025319
Si Si3 0.128185 0.183603 0.570945
Si Si4 0.000000 0.750000 0.620945
Si Si5 0.086966 0.006406 0.661123
Si Si6 0.655589 0.613290 0.656588
Si Si7 0.202613 0.387395 0.915846
Si Si8 0.918466 0.740515 0.261185
O O1 0.333728 0.447475 0.675235
O O2 0.220234 0.292743 0.679721
O O3 0.318709 0.251938 0.612740
O O4 0.357271 0.229183 0.716626
O O5 0.957191 0.657535 0.079360
O O6 0.850951 0.550451 0.040783
O O7 0.914602 0.700832 0.981798
O O8 0.000000 0.500000 0.000000
O O9 0.124817 0.312676 0.606645
O O10 0.213582 0.136689 0.566237
O O11 0.087869 0.072208 0.605119
O O12 0.039770 0.869715 0.653178
O O13 0.079785 0.874881 0.797272
O O14 0.691362 0.481067 0.634271
O O15 0.594141 0.615420 0.700045
O O16 0.000000 0.750000 0.240539
#
# Coordination Sequence:
#
# PCOD9532613 Si02
#       8
#    16  16  16   8  16  16  16  16
#     4  11  23  47  71  99 140 187 237 295 362 423
#     4  12  26  42  67 106 140 193 238 289 362 435
#     4  10  23  45  68 100 139 186 241 297 355 417
#     4  12  26  44  72 104 148 194 238 298 360 436
#     4  11  23  47  69  99 147 183 236 295 361 421
#     4  10  24  44  73 101 139 187 236 301 358 427
#     4  11  24  44  71 102 139 183 242 300 353 430
#     4  11  27  45  72 105 139 187 233 295 368 438
#
# _framework density 25.401720999999998
#
# number of rings (size 3 to 8) (size 9 to 14) (size 15 to 20)
#    0.000    1.067    4.000    1.200    4.667    0.533 
#    6.000    1.333    0.000    0.000    0.000    0.000 
#    0.000    0.000    0.000    0.000    0.000    0.000 
#
# Total GULP energy -334229.832423 kJ/mol
# GULP energy per Si atom -5570.497207 kJ/mol
# Density = 2.534391 g / cm^3
# Si number density = 25.401721 Si / 1000 Ang^3
#
#
#
# Elastic Constant Matrix: (Units=GPa)
#
#
# Indices 1 2 3 4 5 6 
#
# 1 74.0832 -2.7586 44.4707 0.0000 0.0000 0.0000
# 2 -2.7586 46.5670 0.1435 0.0000 0.0000 0.0000
# 3 44.4707 0.1435 105.6652 0.0000 0.0000 0.0000
# 4 0.0000 0.0000 0.0000 16.9384 0.0000 0.0000
# 5 0.0000 0.0000 0.0000 0.0000 41.3439 0.0000
# 6 0.0000 0.0000 0.0000 0.0000 0.0000 24.2948
#
#
#
# Elastic Compliance Matrix: (Units=1/GPa)
#
#
# Indices 1 2 3 4 5 6 
#
# 1 0.018117 0.001097 -0.007626 0.000000 0.000000 0.000000
# 2 0.001097 0.021541 -0.000491 0.000000 0.000000 0.000000
# 3 -0.007626 -0.000491 0.012674 0.000000 0.000000 0.000000
# 4 0.000000 0.000000 0.000000 0.059038 0.000000 0.000000
# 5 0.000000 0.000000 0.000000 0.000000 0.024187 0.000000
# 6 0.000000 0.000000 0.000000 0.000000 0.000000 0.041161
#
#
# Mechanical properties :
#
#
# Convention : Reuss Voigt Hill
#
# Bulk Modulus (GPa) = 26.11552 34.44737 30.28145
# Shear Modulus (GPa) = 24.56728 28.81275 26.69001
#
# Velocity S-wave (km/s) = 3.11328 3.37157 3.24499
# Velocity P-wave (km/s) = 4.81940 5.36163 5.09773
#
# Compressibility (1/GPa) = 0.03829140
#
# Stress axis : x y z
#
# Youngs Moduli (GPa) = 55.19645 46.42324 78.90062
#
# Poissons Ratio (x) = -0.05092 0.60172
# Poissons Ratio (y) = -0.06054 0.03873
# Poissons Ratio (z) = 0.42095 0.02279
#
# Static dielectric constant tensor:
#      x y z
#    x 2.380510 0.000000 0.000000 
#    y 0.000000 2.112300 0.000000 
#    z 0.000000 0.000000 2.041180 
# 
# From -- ./inp_files/32443.got.cif
#   From: 2010.05.17/outbox.cif.g08.bks.cpg/sg73_17_cif.got.tgz:32443.got - 2010.06.03 17:35:07.
