data_PCOD9532418
_publ_section_title
;
Structure prediction by ZEFSAII (Michael W. Deem and Ramdas Pophale) SiO2 
 PCOD9532418
Probable space group: I B C A 
;
_chemical_formula_sum "Si O2"
_cell_formula_units_Z 112
_cell_length_a 28.931980
_cell_length_b 14.212865
_cell_length_c 13.412641
_cell_angle_alpha 90.000000
_cell_angle_beta 90.000000
_cell_angle_gamma 90.000000
_cell_volume 5515.362827
_symmetry_space_group_name_H-M "I B C A "
_symmetry_group_IT_number 73
_symmetry_cell_setting 'orthorhombic'
loop_
_space_group_symop_operation_xyz
x,y,z
-x,1/2-y,z
x,-y,1/2-z
1/2-x,y,-z
-x,-y,-z
x,1/2+y,-z
-x,y,1/2+z
1/2+x,-y,z
1/2+x,1/2+y,1/2+z
1/2-x,-y,1/2+z
1/2+x,1/2-y,-z
-x,1/2+y,1/2-z
1/2-x,1/2-y,1/2-z
1/2+x,y,1/2-z
1/2-x,1/2+y,z
x,1/2-y,1/2+z
loop_
_atom_site_type_symbol
_atom_site_label
_atom_site_fract_x
_atom_site_fract_y
_atom_site_fract_z
Si Si1 0.155010 0.836058 0.049794
Si Si2 0.278972 0.293092 0.412860
Si Si3 0.277257 0.855766 0.788380
Si Si4 0.577330 0.690252 0.411593
Si Si5 0.196637 0.000000 0.750000
Si Si6 0.117633 0.991346 0.907811
Si Si7 0.534523 0.901633 0.717059
Si Si8 0.500000 0.250000 0.934030
O O1 0.186168 0.889569 0.130880
O O2 0.120193 0.761690 0.101116
O O3 0.186315 0.777658 0.969111
O O4 0.128261 0.916057 0.991282
O O5 0.250000 0.344762 0.500000
O O6 0.300704 0.348613 0.320659
O O7 0.240372 0.237447 0.347356
O O8 0.231149 0.915711 0.774684
O O9 0.596972 0.589168 0.445695
O O10 0.549541 0.663285 0.310634
O O11 0.543600 0.733344 0.494120
O O12 0.163255 0.015568 0.843816
O O13 0.081162 0.939715 0.835438
O O14 0.507471 0.839696 0.637182
O O15 0.510522 0.000000 0.750000
#
# Coordination Sequence:
#
# PCOD9532418 Si02
#       8
#    16  16  16  16   8  16  16   8
#     4  11  23  42  63  95 141 173 227 287 336 401
#     4   9  20  36  57  88 120 173 221 274 323 385
#     4  10  23  36  59  91 128 175 231 273 326 384
#     4  11  25  42  73 100 128 183 220 285 348 421
#     4  12  22  40  64  88 134 182 232 276 332 406
#     4  11  23  41  66  96 137 180 223 280 350 407
#     4  10  23  45  68 102 136 176 222 280 350 428
#     4  12  24  46  74 106 130 170 234 276 362 430
#
# _framework density 20.306913999999999
#
# number of rings (size 3 to 8) (size 9 to 14) (size 15 to 20)
#    0.000    1.429    5.000    0.429    8.000    3.429 
#    2.571    0.000    0.000    0.000    0.000    0.000 
#    0.000    0.000    0.000    0.000    0.000    0.000 
#
# Total GULP energy -312248.556877 kJ/mol
# GULP energy per Si atom -5575.867087 kJ/mol
# Density = 2.026069 g / cm^3
# Si number density = 20.306914 Si / 1000 Ang^3
#
#
#
# Elastic Constant Matrix: (Units=GPa)
#
#
# Indices 1 2 3 4 5 6 
#
# 1 35.7701 21.3171 11.1878 0.0000 0.0000 0.0000
# 2 21.3171 50.2538 16.7987 0.0000 0.0000 0.0000
# 3 11.1878 16.7987 69.7105 0.0000 0.0000 0.0000
# 4 0.0000 0.0000 0.0000 31.6986 0.0000 0.0000
# 5 0.0000 0.0000 0.0000 0.0000 6.3048 0.0000
# 6 0.0000 0.0000 0.0000 0.0000 0.0000 28.6496
#
#
#
# Elastic Compliance Matrix: (Units=1/GPa)
#
#
# Indices 1 2 3 4 5 6 
#
# 1 0.037778 -0.015225 -0.002394 0.000000 0.000000 0.000000
# 2 -0.015225 0.027778 -0.004250 0.000000 0.000000 0.000000
# 3 -0.002394 -0.004250 0.015754 0.000000 0.000000 0.000000
# 4 0.000000 0.000000 0.000000 0.031547 0.000000 0.000000
# 5 0.000000 0.000000 0.000000 0.000000 0.158610 0.000000
# 6 0.000000 0.000000 0.000000 0.000000 0.000000 0.034905
#
#
# Mechanical properties :
#
#
# Convention : Reuss Voigt Hill
#
# Bulk Modulus (GPa) = 26.61630 28.26018 27.43824
# Shear Modulus (GPa) = 13.78799 20.42597 17.10698
#
# Velocity S-wave (km/s) = 2.60855 3.17497 2.90560
# Velocity P-wave (km/s) = 4.71256 5.23329 4.97974
#
# Compressibility (1/GPa) = 0.03757096
#
# Stress axis : x y z
#
# Youngs Moduli (GPa) = 26.47017 35.99964 63.47769
#
# Poissons Ratio (x) = 0.54809 0.15198
# Poissons Ratio (y) = 0.40300 0.26981
# Poissons Ratio (z) = 0.06337 0.15302
#
# Static dielectric constant tensor:
#      x y z
#    x 1.735710 0.000000 0.000000 
#    y 0.000000 1.746300 0.000000 
#    z 0.000000 0.000000 1.857760 
# 
# From -- ./inp_files/14836.got.cif
#   From: 2010.05.17/outbox.cif.g08.bks.cpg/sg73_8_cif.got.tgz:14836.got - 2010.06.03 17:35:07.
