data_PCOD9532651
_publ_section_title
;
Structure prediction by ZEFSAII (Michael W. Deem and Ramdas Pophale) SiO2 
 PCOD9532651
Probable space group: I B C A 
;
_chemical_formula_sum "Si O2"
_cell_formula_units_Z 96
_cell_length_a 13.967396
_cell_length_b 14.662732
_cell_length_c 20.454177
_cell_angle_alpha 90.000000
_cell_angle_beta 90.000000
_cell_angle_gamma 90.000000
_cell_volume 4189.019219
_symmetry_space_group_name_H-M "I B C A "
_symmetry_group_IT_number 73
_symmetry_cell_setting 'orthorhombic'
loop_
_space_group_symop_operation_xyz
x,y,z
-x,1/2-y,z
x,-y,1/2-z
1/2-x,y,-z
-x,-y,-z
x,1/2+y,-z
-x,y,1/2+z
1/2+x,-y,z
1/2+x,1/2+y,1/2+z
1/2-x,-y,1/2+z
1/2+x,1/2-y,-z
-x,1/2+y,1/2-z
1/2-x,1/2-y,1/2-z
1/2+x,y,1/2-z
1/2-x,1/2+y,z
x,1/2-y,1/2+z
loop_
_atom_site_type_symbol
_atom_site_label
_atom_site_fract_x
_atom_site_fract_y
_atom_site_fract_z
Si Si1 0.843909 0.999800 0.531161
Si Si2 0.047184 0.576786 0.207260
Si Si3 0.796539 0.700896 0.069862
Si Si4 0.532144 0.941845 0.592376
Si Si5 0.326051 0.708965 0.702719
Si Si6 0.000000 0.250000 0.647758
Si Si7 0.000000 0.250000 0.875600
O O1 0.750000 0.047309 0.500000
O O2 0.809274 0.907899 0.565141
O O3 0.909997 0.964767 0.472193
O O4 0.918371 0.048245 0.579084
O O5 0.991916 0.500000 0.250000
O O6 0.074198 0.512260 0.145465
O O7 0.125566 0.622710 0.257152
O O8 0.998683 0.661227 0.170539
O O9 0.729478 0.709453 0.133247
O O10 0.901230 0.746485 0.082584
O O11 0.750000 0.729484 0.000000
O O12 0.541200 0.836128 0.610396
O O13 0.250000 0.750000 0.750000
O O14 0.413236 0.779442 0.693116
#
# Coordination Sequence:
#
# PCOD9532651 Si02
#       7
#    16  16  16  16  16   8   8
#     4  10  23  46  72 105 148 189 255 308 380 467
#     4  12  26  47  78 108 155 202 256 330 386 462
#     4  11  25  46  78 113 156 201 257 323 391 472
#     4  11  25  47  71 108 143 203 244 318 392 452
#     4  12  27  47  74 110 147 199 263 313 385 470
#     4  12  25  47  70 104 155 185 254 316 381 459
#     4  12  25  53  80 114 157 209 262 322 401 473
#
# _framework density 22.917058000000001
#
# number of rings (size 3 to 8) (size 9 to 14) (size 15 to 20)
#    0.000    0.667    5.000    2.500    0.000    4.000 
#    0.000    1.667    0.000    0.000    0.000    0.000 
#    0.000    0.000    0.000    0.000    0.000    0.000 
#
# Total GULP energy -267490.812976 kJ/mol
# GULP energy per Si atom -5572.725270 kJ/mol
# Density = 2.286490 g / cm^3
# Si number density = 22.917058 Si / 1000 Ang^3
#
#
#
# Elastic Constant Matrix: (Units=GPa)
#
#
# Indices 1 2 3 4 5 6 
#
# 1 165.6521 17.4589 68.6471 0.0000 0.0000 0.0000
# 2 17.4589 91.7881 35.8783 0.0000 0.0000 0.0000
# 3 68.6471 35.8783 155.3377 0.0000 0.0000 0.0000
# 4 0.0000 0.0000 0.0000 -15.1924 0.0000 0.0000
# 5 0.0000 0.0000 0.0000 0.0000 8.8205 0.0000
# 6 0.0000 0.0000 0.0000 0.0000 0.0000 29.4150
#
#
#
# Elastic Compliance Matrix: (Units=1/GPa)
#
#
# Indices 1 2 3 4 5 6 
#
# 1 0.007392 -0.000142 -0.003234 0.000000 0.000000 0.000000
# 2 -0.000142 0.011979 -0.002704 0.000000 0.000000 0.000000
# 3 -0.003234 -0.002704 0.008491 0.000000 0.000000 0.000000
# 4 0.000000 0.000000 0.000000 -0.065823 0.000000 0.000000
# 5 0.000000 0.000000 0.000000 0.000000 0.113372 0.000000
# 6 0.000000 0.000000 0.000000 0.000000 0.000000 0.033996
#
#
# Mechanical properties :
#
#
# Convention : Reuss Voigt Hill
#
# Bulk Modulus (GPa) = 63.68550 72.97185 68.32868
# Shear Modulus (GPa) = 39.43197 23.99486 31.71342
#
# Velocity S-wave (km/s) = 4.15256 3.23930 3.72403
# Velocity P-wave (km/s) = 7.13033 6.77507 6.95497
#
# Compressibility (1/GPa) = 0.01570216
#
# Stress axis : x y z
#
# Youngs Moduli (GPa) = 135.28467 83.48229 117.76872
#
# Poissons Ratio (x) = 0.01185 0.38084
# Poissons Ratio (y) = 0.01920 0.31844
# Poissons Ratio (z) = 0.43749 0.22573
#
# Static dielectric constant tensor:
#      x y z
#    x 1.845370 0.000000 0.000000 
#    y 0.000000 1.879290 0.000000 
#    z 0.000000 0.000000 1.936450 
# 
# From -- ./inp_files/26043.got.cif
#   From: 2010.05.17/outbox.cif.g08.bks.cpg/sg73_14_cif.got.tgz:26043.got - 2010.06.03 17:35:07.
