data_PCOD9532330
_publ_section_title
;
Structure prediction by ZEFSAII (Michael W. Deem and Ramdas Pophale) SiO2 
 PCOD9532330
Probable space group: I B C A 
;
_chemical_formula_sum "Si O2"
_cell_formula_units_Z 96
_cell_length_a 11.115944
_cell_length_b 22.002133
_cell_length_c 17.374941
_cell_angle_alpha 90.000000
_cell_angle_beta 90.000000
_cell_angle_gamma 90.000000
_cell_volume 4249.467131
_symmetry_space_group_name_H-M "I B C A "
_symmetry_group_IT_number 73
_symmetry_cell_setting 'orthorhombic'
loop_
_space_group_symop_operation_xyz
x,y,z
-x,1/2-y,z
x,-y,1/2-z
1/2-x,y,-z
-x,-y,-z
x,1/2+y,-z
-x,y,1/2+z
1/2+x,-y,z
1/2+x,1/2+y,1/2+z
1/2-x,-y,1/2+z
1/2+x,1/2-y,-z
-x,1/2+y,1/2-z
1/2-x,1/2-y,1/2-z
1/2+x,y,1/2-z
1/2-x,1/2+y,z
x,1/2-y,1/2+z
loop_
_atom_site_type_symbol
_atom_site_label
_atom_site_fract_x
_atom_site_fract_y
_atom_site_fract_z
Si Si1 0.634827 0.729893 0.054704
Si Si2 0.365889 0.568767 0.283215
Si Si3 0.909890 0.901193 0.121148
Si Si4 0.009404 0.890755 0.952400
Si Si5 0.302370 0.975948 0.085980
Si Si6 0.307264 0.165759 0.846814
O O1 0.500000 0.750000 0.025550
O O2 0.615145 0.658109 0.061037
O O3 0.655547 0.764506 0.136122
O O4 0.750000 0.743280 0.000000
O O5 0.364301 0.500000 0.250000
O O6 0.499860 0.583343 0.311250
O O7 0.276687 0.562804 0.355654
O O8 0.329624 0.625672 0.229185
O O9 0.833034 0.841096 0.134722
O O10 0.812523 0.954976 0.113348
O O11 0.981339 0.897718 0.041647
O O12 0.060223 0.952535 0.917343
O O13 0.890565 0.867286 0.910819
O O14 0.250000 0.973265 0.000000
#
# Coordination Sequence:
#
# PCOD9532330 Si02
#       6
#    16  16  16  16  16  16
#     4  10  22  44  75 105 140 188 249 312 369 440
#     4  12  27  43  64 104 150 195 232 300 375 448
#     4  12  25  42  71 105 141 188 244 296 374 449
#     4  11  23  43  75 100 140 182 242 306 363 440
#     4  12  24  42  67 105 143 185 241 296 360 449
#     4  11  24  43  70  99 142 187 235 300 373 435
#
# _framework density 22.591068
#
# number of rings (size 3 to 8) (size 9 to 14) (size 15 to 20)
#    0.000    0.667    3.333    5.500    4.667    0.000 
#    0.000    0.833    3.667    0.000    0.000    0.000 
#    0.000    0.000    0.000    0.000    0.000    0.000 
#
# Total GULP energy -268190.336918 kJ/mol
# GULP energy per Si atom -5587.298686 kJ/mol
# Density = 2.253965 g / cm^3
# Si number density = 22.591068 Si / 1000 Ang^3
#
#
#
# Elastic Constant Matrix: (Units=GPa)
#
#
# Indices 1 2 3 4 5 6 
#
# 1 99.4168 22.8624 36.2228 0.0000 0.0000 0.0000
# 2 22.8624 69.3193 30.3088 0.0000 0.0000 0.0000
# 3 36.2228 30.3088 91.7914 0.0000 0.0000 -0.0001
# 4 0.0000 0.0000 0.0000 17.8750 0.0000 0.0000
# 5 0.0000 0.0000 0.0000 0.0000 3.4991 0.0000
# 6 0.0000 0.0000 -0.0001 0.0000 0.0000 46.3338
#
#
#
# Elastic Compliance Matrix: (Units=1/GPa)
#
#
# Indices 1 2 3 4 5 6 
#
# 1 0.012031 -0.002211 -0.004017 0.000000 0.000000 0.000000
# 2 -0.002211 0.017267 -0.004829 0.000000 0.000000 0.000000
# 3 -0.004017 -0.004829 0.014074 0.000000 0.000000 0.000000
# 4 0.000000 0.000000 0.000000 0.055944 0.000000 0.000000
# 5 0.000000 0.000000 0.000000 0.000000 0.285790 0.000000
# 6 0.000000 0.000000 0.000000 0.000000 0.000000 0.021583
#
#
# Mechanical properties :
#
#
# Convention : Reuss Voigt Hill
#
# Bulk Modulus (GPa) = 47.04426 48.81283 47.92855
# Shear Modulus (GPa) = 11.47083 24.95048 18.21065
#
# Velocity S-wave (km/s) = 2.25580 3.32692 2.84227
# Velocity P-wave (km/s) = 5.25874 6.03423 5.65978
#
# Compressibility (1/GPa) = 0.02125658
#
# Stress axis : x y z
#
# Youngs Moduli (GPa) = 83.11870 57.91537 71.05285
#
# Poissons Ratio (x) = 0.12807 0.28545
# Poissons Ratio (y) = 0.18381 0.34309
# Poissons Ratio (z) = 0.33393 0.27965
#
# Static dielectric constant tensor:
#      x y z
#    x 1.825140 0.000000 0.000000 
#    y 0.000000 1.859410 0.000000 
#    z 0.000000 0.000000 1.815020 
# 
# From -- ./inp_files/12007.got.cif
#   From: 2010.05.17/outbox.cif.g08.bks.cpg/sg73_7_cif.got.tgz:12007.got - 2010.06.03 17:35:07.
