data_PCOD9532901
_publ_section_title
;
Structure prediction by ZEFSAII (Michael W. Deem and Ramdas Pophale) SiO2 
 PCOD9532901
Probable space group: I B C A 
;
_chemical_formula_sum "Si O2"
_cell_formula_units_Z 88
_cell_length_a 22.254120
_cell_length_b 7.339969
_cell_length_c 20.226334
_cell_angle_alpha 90.000000
_cell_angle_beta 90.000000
_cell_angle_gamma 90.000000
_cell_volume 3303.861444
_symmetry_space_group_name_H-M "I B C A "
_symmetry_group_IT_number 73
_symmetry_cell_setting 'orthorhombic'
loop_
_space_group_symop_operation_xyz
x,y,z
-x,1/2-y,z
x,-y,1/2-z
1/2-x,y,-z
-x,-y,-z
x,1/2+y,-z
-x,y,1/2+z
1/2+x,-y,z
1/2+x,1/2+y,1/2+z
1/2-x,-y,1/2+z
1/2+x,1/2-y,-z
-x,1/2+y,1/2-z
1/2-x,1/2-y,1/2-z
1/2+x,y,1/2-z
1/2-x,1/2+y,z
x,1/2-y,1/2+z
loop_
_atom_site_type_symbol
_atom_site_label
_atom_site_fract_x
_atom_site_fract_y
_atom_site_fract_z
Si Si1 0.813507 0.138236 0.622627
Si Si2 0.126129 0.843170 0.051217
Si Si3 0.000000 0.250000 0.436276
Si Si4 0.515727 0.544120 0.177453
Si Si5 0.250000 0.735050 0.000000
Si Si6 0.847094 0.955032 0.162689
Si Si7 0.746121 0.500000 0.750000
O O1 0.759672 0.128604 0.568759
O O2 0.820127 0.348892 0.641338
O O3 0.868960 0.039115 0.586538
O O4 0.797525 0.020769 0.687082
O O5 0.184987 0.832808 0.005034
O O6 0.139109 0.690586 0.106263
O O7 0.061153 0.787402 0.023303
O O8 0.999447 0.417022 0.384274
O O9 0.500000 0.750000 0.162385
O O10 0.487521 0.500000 0.250000
O O11 0.586654 0.511547 0.184954
O O12 0.799716 0.872089 0.216224
#
# Coordination Sequence:
#
# PCOD9532901 Si02
#       7
#    16  16   8  16   8  16   8
#     4  12  27  43  71 104 142 187 242 300 378 439
#     4  11  26  47  73 102 142 192 242 303 368 440
#     4  10  24  46  66 100 142 188 244 304 362 440
#     4  11  21  38  65  96 138 193 242 289 359 437
#     4  12  26  48  76 108 142 192 252 308 368 448
#     4  11  25  42  66 101 145 184 239 303 360 432
#     4  12  24  42  66 106 146 186 232 312 382 426
#
# _framework density 26.6355
#
# number of rings (size 3 to 8) (size 9 to 14) (size 15 to 20)
#    0.000    0.727    3.636    3.273    5.091    0.000 
#    3.273    0.909    2.000    0.000    0.000    0.000 
#    0.000    0.000    0.000    0.000    0.000    0.000 
#
# Total GULP energy -245572.937030 kJ/mol
# GULP energy per Si atom -5581.203114 kJ/mol
# Density = 2.657488 g / cm^3
# Si number density = 26.635500 Si / 1000 Ang^3
#
#
#
# Elastic Constant Matrix: (Units=GPa)
#
#
# Indices 1 2 3 4 5 6 
#
# 1 142.2314 3.1276 29.7058 0.0000 0.0000 0.0000
# 2 3.1276 158.8890 36.4847 0.0000 0.0000 0.0000
# 3 29.7058 36.4847 120.3760 0.0000 0.0000 0.0000
# 4 0.0000 0.0000 0.0000 13.8910 0.0000 0.0000
# 5 0.0000 0.0000 0.0000 0.0000 60.3109 0.0000
# 6 0.0000 0.0000 0.0000 0.0000 0.0000 14.3421
#
#
#
# Elastic Compliance Matrix: (Units=1/GPa)
#
#
# Indices 1 2 3 4 5 6 
#
# 1 0.007426 0.000295 -0.001922 0.000000 0.000000 0.000000
# 2 0.000295 0.006776 -0.002127 0.000000 0.000000 0.000000
# 3 -0.001922 -0.002127 0.009426 0.000000 0.000000 0.000000
# 4 0.000000 0.000000 0.000000 0.071989 0.000000 0.000000
# 5 0.000000 0.000000 0.000000 0.000000 0.016581 0.000000
# 6 0.000000 0.000000 0.000000 0.000000 0.000000 0.069725
#
#
# Mechanical properties :
#
#
# Convention : Reuss Voigt Hill
#
# Bulk Modulus (GPa) = 62.02997 62.23695 62.13346
# Shear Modulus (GPa) = 25.66691 41.18734 33.42713
#
# Velocity S-wave (km/s) = 3.10762 3.93661 3.54642
# Velocity P-wave (km/s) = 6.01792 6.63923 6.33620
#
# Compressibility (1/GPa) = 0.01612124
#
# Stress axis : x y z
#
# Youngs Moduli (GPa) = 134.66715 147.57490 106.08784
#
# Poissons Ratio (x) = -0.04356 0.20389
# Poissons Ratio (y) = -0.03975 0.22561
# Poissons Ratio (z) = 0.25882 0.31384
#
# Static dielectric constant tensor:
#      x y z
#    x 2.126250 0.000000 0.000000 
#    y 0.000000 2.214640 0.000000 
#    z 0.000000 0.000000 2.198670 
# 
# From -- ./inp_files/30080.got.cif
#   From: 2010.05.17/outbox.cif.g08.bks.cpg/sg73_16_cif.got.tgz:30080.got - 2010.06.03 17:35:07.
