data_PCOD9532056
_publ_section_title
;
Structure prediction by ZEFSAII (Michael W. Deem and Ramdas Pophale) SiO2 
 PCOD9532056
Probable space group: I B C A 
;
_chemical_formula_sum "Si O2"
_cell_formula_units_Z 80
_cell_length_a 13.220765
_cell_length_b 17.666223
_cell_length_c 13.599036
_cell_angle_alpha 90.000000
_cell_angle_beta 90.000000
_cell_angle_gamma 90.000000
_cell_volume 3176.204212
_symmetry_space_group_name_H-M "I B C A "
_symmetry_group_IT_number 73
_symmetry_cell_setting 'orthorhombic'
loop_
_space_group_symop_operation_xyz
x,y,z
-x,1/2-y,z
x,-y,1/2-z
1/2-x,y,-z
-x,-y,-z
x,1/2+y,-z
-x,y,1/2+z
1/2+x,-y,z
1/2+x,1/2+y,1/2+z
1/2-x,-y,1/2+z
1/2+x,1/2-y,-z
-x,1/2+y,1/2-z
1/2-x,1/2-y,1/2-z
1/2+x,y,1/2-z
1/2-x,1/2+y,z
x,1/2-y,1/2+z
loop_
_atom_site_type_symbol
_atom_site_label
_atom_site_fract_x
_atom_site_fract_y
_atom_site_fract_z
Si Si1 0.750000 0.869027 0.500000
Si Si2 0.882228 0.489577 0.431286
Si Si3 0.110805 0.656664 0.166707
Si Si4 0.034490 0.648325 0.482736
Si Si5 0.968538 0.500000 0.750000
Si Si6 0.000000 0.750000 0.814779
Si Si7 0.750000 0.125066 0.500000
O O1 0.849744 0.820421 0.478791
O O2 0.788626 0.928933 0.584211
O O3 0.839577 0.567028 0.472105
O O4 0.061357 0.559987 0.485362
O O5 0.950857 0.501832 0.338474
O O6 0.097123 0.575346 0.222809
O O7 0.909628 0.778311 0.245772
O O8 0.210150 0.663440 0.099437
O O9 0.020275 0.663457 0.085548
O O10 0.977938 0.681886 0.389966
#
# Coordination Sequence:
#
# PCOD9532056 Si02
#       7
#     8  16  16  16   8   8   8
#     4   7  16  40  69 100 141 201 242 312 403 454
#     4   8  19  40  71 109 146 189 245 330 401 457
#     4  11  27  45  72 116 148 208 259 336 403 467
#     4   9  21  46  71  99 155 198 257 325 390 476
#     4  10  22  40  78 114 144 180 276 324 394 476
#     4  12  26  46  72 102 154 210 266 304 390 500
#     4  11  24  44  73 110 157 189 262 338 409 458
#
# _framework density 25.187297000000001
#
# number of rings (size 3 to 8) (size 9 to 14) (size 15 to 20)
#    1.200    1.200    0.000    0.600    5.600    4.000 
#    0.000    6.000    0.000    0.000    0.000    0.000 
#    0.000    0.000    0.000    0.000    0.000    0.000 
#
# Total GULP energy -223109.676257 kJ/mol
# GULP energy per Si atom -5577.741906 kJ/mol
# Density = 2.512997 g / cm^3
# Si number density = 25.187297 Si / 1000 Ang^3
#
#
#
# Elastic Constant Matrix: (Units=GPa)
#
#
# Indices 1 2 3 4 5 6 
#
# 1 97.1986 47.2471 64.4290 0.0001 0.0000 0.0000
# 2 47.2471 111.2494 65.3492 -0.0001 0.0000 0.0000
# 3 64.4290 65.3492 162.1389 -0.0003 0.0000 -0.0001
# 4 0.0001 -0.0001 -0.0003 44.3559 0.0000 0.0000
# 5 0.0000 0.0000 0.0000 0.0000 48.2965 0.0000
# 6 0.0000 0.0000 -0.0001 0.0000 0.0000 25.7956
#
#
#
# Elastic Compliance Matrix: (Units=1/GPa)
#
#
# Indices 1 2 3 4 5 6 
#
# 1 0.015091 -0.003782 -0.004472 0.000000 0.000000 0.000000
# 2 -0.003782 0.012725 -0.003626 0.000000 0.000000 0.000000
# 3 -0.004472 -0.003626 0.009406 0.000000 0.000000 0.000000
# 4 0.000000 0.000000 0.000000 0.022545 0.000000 0.000000
# 5 0.000000 0.000000 0.000000 0.000000 0.020705 0.000000
# 6 0.000000 0.000000 0.000000 0.000000 0.000000 0.038766
#
#
# Mechanical properties :
#
#
# Convention : Reuss Voigt Hill
#
# Bulk Modulus (GPa) = 74.28522 80.51527 77.40025
# Shear Modulus (GPa) = 33.90135 36.59370 35.24752
#
# Velocity S-wave (km/s) = 3.67273 3.81578 3.74494
# Velocity P-wave (km/s) = 6.89510 7.17284 7.03534
#
# Compressibility (1/GPa) = 0.01346163
#
# Stress axis : x y z
#
# Youngs Moduli (GPa) = 66.26370 78.58627 106.31333
#
# Poissons Ratio (x) = 0.29721 0.47548
# Poissons Ratio (y) = 0.25061 0.38548
# Poissons Ratio (z) = 0.29636 0.28494
#
# Static dielectric constant tensor:
#      x y z
#    x 2.244050 0.000000 0.000000 
#    y 0.000000 2.143930 0.000000 
#    z 0.000000 0.000000 1.990890 
# 
# From -- ./inp_files/16906.got.cif
#   From: 2010.05.17/outbox.cif.g08.bks.cpg/sg73_9_cif.got.tgz:16906.got - 2010.06.03 17:35:07.
