data_PCOD9532554
_publ_section_title
;
Structure prediction by ZEFSAII (Michael W. Deem and Ramdas Pophale) SiO2 
 PCOD9532554
Probable space group: I B C A 
;
_chemical_formula_sum "Si O2"
_cell_formula_units_Z 104
_cell_length_a 21.878573
_cell_length_b 24.204727
_cell_length_c 9.105139
_cell_angle_alpha 90.000000
_cell_angle_beta 90.000000
_cell_angle_gamma 90.000000
_cell_volume 4821.761902
_symmetry_space_group_name_H-M "I B C A "
_symmetry_group_IT_number 73
_symmetry_cell_setting 'orthorhombic'
loop_
_space_group_symop_operation_xyz
x,y,z
-x,1/2-y,z
x,-y,1/2-z
1/2-x,y,-z
-x,-y,-z
x,1/2+y,-z
-x,y,1/2+z
1/2+x,-y,z
1/2+x,1/2+y,1/2+z
1/2-x,-y,1/2+z
1/2+x,1/2-y,-z
-x,1/2+y,1/2-z
1/2-x,1/2-y,1/2-z
1/2+x,y,1/2-z
1/2-x,1/2+y,z
x,1/2-y,1/2+z
loop_
_atom_site_type_symbol
_atom_site_label
_atom_site_fract_x
_atom_site_fract_y
_atom_site_fract_z
Si Si1 0.663530 0.043167 0.109277
Si Si2 0.540415 0.195441 0.654642
Si Si3 0.857789 0.187143 0.582766
Si Si4 0.750000 0.394543 0.000000
Si Si5 0.635549 0.809566 0.614107
Si Si6 0.208033 0.918782 0.807751
Si Si7 0.423382 0.863957 0.847820
O O1 0.721565 0.082064 0.142812
O O2 0.599855 0.074265 0.130528
O O3 0.667396 0.000000 0.250000
O O4 0.673849 0.040836 0.928118
O O5 0.500000 0.250000 0.634408
O O6 0.602352 0.196248 0.562677
O O7 0.567540 0.192337 0.817118
O O8 0.494299 0.145819 0.621784
O O9 0.802122 0.145462 0.564072
O O10 0.837354 0.248468 0.630770
O O11 0.907205 0.159198 0.688978
O O12 0.782435 0.428826 0.868221
O O13 0.675428 0.859375 0.679572
O O14 0.621258 0.827039 0.448740
#
# Coordination Sequence:
#
# PCOD9532554 Si02
#       7
#    16  16  16   8  16  16  16
#     4  10  23  47  72  94 125 179 233 301 371 417
#     4  12  22  38  61  95 139 197 241 276 336 423
#     4  12  23  38  61  98 143 194 228 281 339 431
#     4  12  24  40  60 100 146 178 230 280 372 420
#     4  11  22  39  61  95 139 189 235 278 345 408
#     4  10  23  43  67  98 133 172 230 298 359 433
#     4  11  23  37  64  93 136 177 240 290 339 410
#
# _framework density 21.568878999999999
#
# number of rings (size 3 to 8) (size 9 to 14) (size 15 to 20)
#    0.000    0.923    6.154    0.923    0.000    4.308 
#    0.000    0.000    0.000    9.231    0.000    0.000 
#    0.000    0.000    0.000    0.000    0.000    0.000 
#
# Total GULP energy -289560.834926 kJ/mol
# GULP energy per Si atom -5568.477595 kJ/mol
# Density = 2.151979 g / cm^3
# Si number density = 21.568879 Si / 1000 Ang^3
#
#
#
# Elastic Constant Matrix: (Units=GPa)
#
#
# Indices 1 2 3 4 5 6 
#
# 1 64.8109 57.8224 6.0648 0.0000 0.0000 0.0000
# 2 57.8224 104.6358 45.9643 0.0000 0.0000 0.0000
# 3 6.0648 45.9643 116.6987 0.0000 0.0000 0.0000
# 4 0.0000 0.0000 0.0000 23.1560 0.0000 0.0000
# 5 0.0000 0.0000 0.0000 0.0000 32.4115 0.0000
# 6 0.0000 0.0000 0.0000 0.0000 0.0000 19.4050
#
#
#
# Elastic Compliance Matrix: (Units=1/GPa)
#
#
# Indices 1 2 3 4 5 6 
#
# 1 0.034502 -0.022102 0.006912 0.000000 0.000000 0.000000
# 2 -0.022102 0.025716 -0.008980 0.000000 0.000000 0.000000
# 3 0.006912 -0.008980 0.011747 0.000000 0.000000 0.000000
# 4 0.000000 0.000000 0.000000 0.043185 0.000000 0.000000
# 5 0.000000 0.000000 0.000000 0.000000 0.030853 0.000000
# 6 0.000000 0.000000 0.000000 0.000000 0.000000 0.051533
#
#
# Mechanical properties :
#
#
# Convention : Reuss Voigt Hill
#
# Bulk Modulus (GPa) = 42.32926 56.20537 49.26732
# Shear Modulus (GPa) = 19.70439 26.74743 23.22591
#
# Velocity S-wave (km/s) = 3.02579 3.52532 3.28506
# Velocity P-wave (km/s) = 5.64579 6.53342 6.10576
#
# Compressibility (1/GPa) = 0.02362432
#
# Stress axis : x y z
#
# Youngs Moduli (GPa) = 28.98402 38.88689 85.12959
#
# Poissons Ratio (x) = 0.85949 -0.58846
# Poissons Ratio (y) = 0.64062 0.76446
# Poissons Ratio (z) = -0.20035 0.34920
#
# Static dielectric constant tensor:
#      x y z
#    x 1.712220 0.000000 0.000000 
#    y 0.000000 1.827000 0.000000 
#    z 0.000000 0.000000 1.901730 
# 
# From -- ./inp_files/6580.got.cif
#   From: 2010.05.17/outbox.cif.g08.bks.cpg/sg73_4_cif.got.tgz:6580.got - 2010.06.03 17:35:07.
