data_PCOD9532955
_publ_section_title
;
Structure prediction by ZEFSAII (Michael W. Deem and Ramdas Pophale) SiO2 
 PCOD9532955
Probable space group: I B C A 
;
_chemical_formula_sum "Si O2"
_cell_formula_units_Z 64
_cell_length_a 21.444863
_cell_length_b 7.203621
_cell_length_c 17.591439
_cell_angle_alpha 90.000000
_cell_angle_beta 90.000000
_cell_angle_gamma 90.000000
_cell_volume 2717.537203
_symmetry_space_group_name_H-M "I B C A "
_symmetry_group_IT_number 73
_symmetry_cell_setting 'orthorhombic'
loop_
_space_group_symop_operation_xyz
x,y,z
-x,1/2-y,z
x,-y,1/2-z
1/2-x,y,-z
-x,-y,-z
x,1/2+y,-z
-x,y,1/2+z
1/2+x,-y,z
1/2+x,1/2+y,1/2+z
1/2-x,-y,1/2+z
1/2+x,1/2-y,-z
-x,1/2+y,1/2-z
1/2-x,1/2-y,1/2-z
1/2+x,y,1/2-z
1/2-x,1/2+y,z
x,1/2-y,1/2+z
loop_
_atom_site_type_symbol
_atom_site_label
_atom_site_fract_x
_atom_site_fract_y
_atom_site_fract_z
Si Si1 0.644470 0.926996 0.667057
Si Si2 0.186437 0.315174 0.453742
Si Si3 0.123208 0.541247 0.903041
Si Si4 0.503111 0.032129 0.838955
O O1 0.688494 0.012747 0.603483
O O2 0.662043 0.000000 0.750000
O O3 0.638548 0.704236 0.657888
O O4 0.575456 0.014292 0.650275
O O5 0.250000 0.298311 0.500000
O O6 0.132528 0.356255 0.516116
O O7 0.169648 0.131369 0.407229
O O8 0.054357 0.458749 0.887802
O O9 0.500000 0.250000 0.854703
O O10 0.489177 0.000000 0.750000
#
# Coordination Sequence:
#
# PCOD9532955 Si02
#       4
#    16  16  16  16
#     4  10  24  47  72 107 143 179 239 294 361 439
#     4  12  26  45  70  97 142 194 248 294 349 415
#     4  11  24  42  70 102 140 187 232 296 363 422
#     4   9  21  40  67 105 142 178 225 293 373 436
#
# _framework density 23.550733999999999
#
# number of rings (size 3 to 8) (size 9 to 14) (size 15 to 20)
#    0.000    1.500    2.500    0.750   10.500    2.000 
#    4.500    2.500    0.000    0.000    0.000    0.000 
#    0.000    0.000    0.000    0.000    0.000    0.000 
#
# Total GULP energy -178878.222916 kJ/mol
# GULP energy per Si atom -5589.944466 kJ/mol
# Density = 2.349713 g / cm^3
# Si number density = 23.550734 Si / 1000 Ang^3
#
#
#
# Elastic Constant Matrix: (Units=GPa)
#
#
# Indices 1 2 3 4 5 6 
#
# 1 127.3096 14.9594 45.4912 0.0000 0.0000 0.0000
# 2 14.9594 73.5886 -9.5897 0.0000 0.0000 0.0000
# 3 45.4912 -9.5897 70.5623 0.0000 0.0000 0.0000
# 4 0.0000 0.0000 0.0000 40.1283 0.0000 0.0000
# 5 0.0000 0.0000 0.0000 0.0000 42.5181 0.0000
# 6 0.0000 0.0000 0.0000 0.0000 0.0000 27.2308
#
#
#
# Elastic Compliance Matrix: (Units=1/GPa)
#
#
# Indices 1 2 3 4 5 6 
#
# 1 0.010893 -0.003186 -0.007456 0.000000 0.000000 0.000000
# 2 -0.003186 0.014766 0.004061 0.000000 0.000000 0.000000
# 3 -0.007456 0.004061 0.019531 0.000000 0.000000 0.000000
# 4 0.000000 0.000000 0.000000 0.024920 0.000000 0.000000
# 5 0.000000 0.000000 0.000000 0.000000 0.023519 0.000000
# 6 0.000000 0.000000 0.000000 0.000000 0.000000 0.036723
#
#
# Mechanical properties :
#
#
# Convention : Reuss Voigt Hill
#
# Bulk Modulus (GPa) = 31.22322 41.46470 36.34396
# Shear Modulus (GPa) = 32.42734 36.68209 34.55471
#
# Velocity S-wave (km/s) = 3.71470 3.95090 3.83462
# Velocity P-wave (km/s) = 5.62897 6.20141 5.92212
#
# Compressibility (1/GPa) = 0.03202744
#
# Stress axis : x y z
#
# Youngs Moduli (GPa) = 91.79811 67.72351 51.20176
#
# Poissons Ratio (x) = 0.21577 0.38176
# Poissons Ratio (y) = 0.29248 -0.20792
# Poissons Ratio (z) = 0.68444 -0.27501
#
# Static dielectric constant tensor:
#      x y z
#    x 1.959040 0.000000 0.000000 
#    y 0.000000 1.935490 0.000000 
#    z 0.000000 0.000000 1.853070 
# 
# From -- ./inp_files/6889.got.cif
#   From: 2010.05.17/outbox.cif.g08.bks.cpg/sg73_4_cif.got.tgz:6889.got - 2010.06.03 17:35:07.
