data_PCOD9532997
_publ_section_title
;
Structure prediction by ZEFSAII (Michael W. Deem and Ramdas Pophale) SiO2 
 PCOD9532997
Probable space group: I B C A 
;
_chemical_formula_sum "Si O2"
_cell_formula_units_Z 56
_cell_length_a 9.375131
_cell_length_b 17.936727
_cell_length_c 12.718475
_cell_angle_alpha 90.000000
_cell_angle_beta 90.000000
_cell_angle_gamma 90.000000
_cell_volume 2138.728140
_symmetry_space_group_name_H-M "I B C A "
_symmetry_group_IT_number 73
_symmetry_cell_setting 'orthorhombic'
loop_
_space_group_symop_operation_xyz
x,y,z
-x,1/2-y,z
x,-y,1/2-z
1/2-x,y,-z
-x,-y,-z
x,1/2+y,-z
-x,y,1/2+z
1/2+x,-y,z
1/2+x,1/2+y,1/2+z
1/2-x,-y,1/2+z
1/2+x,1/2-y,-z
-x,1/2+y,1/2-z
1/2-x,1/2-y,1/2-z
1/2+x,y,1/2-z
1/2-x,1/2+y,z
x,1/2-y,1/2+z
loop_
_atom_site_type_symbol
_atom_site_label
_atom_site_fract_x
_atom_site_fract_y
_atom_site_fract_z
Si Si1 0.170885 0.905060 0.327552
Si Si2 0.338608 0.648508 0.397847
Si Si3 0.048636 0.520656 0.116241
Si Si4 0.250000 0.792364 0.500000
O O1 0.222062 0.867050 0.219005
O O2 0.163992 0.844092 0.419410
O O3 0.023335 0.951146 0.321784
O O4 0.285626 0.967961 0.361316
O O5 0.250000 0.617682 0.500000
O O6 0.485257 0.604719 0.382588
O O7 0.340321 0.735164 0.427970
O O8 0.000000 0.500000 0.000000
#
# Coordination Sequence:
#
# PCOD9532997 Si02
#       4
#    16  16  16   8
#     4  12  25  51  78 113 149 199 254 313 378 440
#     4  10  26  45  74 113 151 194 248 310 382 445
#     4  12  25  47  78 111 149 198 256 316 368 445
#     4  10  24  50  76 108 160 192 254 302 384 458
#
# _framework density 26.183788
#
# number of rings (size 3 to 8) (size 9 to 14) (size 15 to 20)
#    0.857    0.000    2.857    3.429    0.000   10.286 
#    0.000    0.000    0.000    0.000    0.000    0.000 
#    0.000    0.000    0.000    0.000    0.000    0.000 
#
# Total GULP energy -156431.141017 kJ/mol
# GULP energy per Si atom -5586.826465 kJ/mol
# Density = 2.612419 g / cm^3
# Si number density = 26.183788 Si / 1000 Ang^3
#
#
#
# Elastic Constant Matrix: (Units=GPa)
#
#
# Indices 1 2 3 4 5 6 
#
# 1 93.3096 40.3818 3.9066 0.0000 0.0000 0.0000
# 2 40.3818 200.6672 78.9361 0.0000 0.0000 0.0000
# 3 3.9066 78.9361 204.2187 0.0000 0.0000 0.0000
# 4 0.0000 0.0000 0.0000 74.7849 0.0000 0.0000
# 5 0.0000 0.0000 0.0000 0.0000 30.7066 0.0000
# 6 0.0000 0.0000 0.0000 0.0000 0.0000 16.0084
#
#
#
# Elastic Compliance Matrix: (Units=1/GPa)
#
#
# Indices 1 2 3 4 5 6 
#
# 1 0.011855 -0.002708 0.000820 0.000000 0.000000 0.000000
# 2 -0.002708 0.006496 -0.002459 0.000000 0.000000 0.000000
# 3 0.000820 -0.002459 0.005831 0.000000 0.000000 0.000000
# 4 0.000000 0.000000 0.000000 0.013372 0.000000 0.000000
# 5 0.000000 0.000000 0.000000 0.000000 0.032566 0.000000
# 6 0.000000 0.000000 0.000000 0.000000 0.000000 0.062467
#
#
# Mechanical properties :
#
#
# Convention : Reuss Voigt Hill
#
# Bulk Modulus (GPa) = 64.56777 82.73828 73.65302
# Shear Modulus (GPa) = 34.14285 49.29805 41.72045
#
# Velocity S-wave (km/s) = 3.61497 4.34380 3.99603
# Velocity P-wave (km/s) = 6.49130 7.53829 7.03430
#
# Compressibility (1/GPa) = 0.01548760
#
# Stress axis : x y z
#
# Youngs Moduli (GPa) = 84.35463 153.94965 171.48340
#
# Poissons Ratio (x) = 0.41692 -0.14062
# Poissons Ratio (y) = 0.22845 0.42167
# Poissons Ratio (z) = -0.06917 0.37855
#
# Static dielectric constant tensor:
#      x y z
#    x 2.134520 0.000000 0.000000 
#    y 0.000000 1.994420 0.000000 
#    z 0.000000 0.000000 2.292770 
# 
# From -- ./inp_files/10365.got.cif
#   From: 2010.05.17/outbox.cif.g08.bks.cpg/sg73_6_cif.got.tgz:10365.got - 2010.06.03 17:35:07.
