data_PCOD9532328
_publ_section_title
;
Structure prediction by ZEFSAII (Michael W. Deem and Ramdas Pophale) SiO2 
 PCOD9532328
Probable space group: I B C A 
;
_chemical_formula_sum "Si O2"
_cell_formula_units_Z 64
_cell_length_a 26.082822
_cell_length_b 17.988490
_cell_length_c 5.639130
_cell_angle_alpha 90.000000
_cell_angle_beta 90.000000
_cell_angle_gamma 90.000000
_cell_volume 2645.826691
_symmetry_space_group_name_H-M "I B C A "
_symmetry_group_IT_number 73
_symmetry_cell_setting 'orthorhombic'
loop_
_space_group_symop_operation_xyz
x,y,z
-x,1/2-y,z
x,-y,1/2-z
1/2-x,y,-z
-x,-y,-z
x,1/2+y,-z
-x,y,1/2+z
1/2+x,-y,z
1/2+x,1/2+y,1/2+z
1/2-x,-y,1/2+z
1/2+x,1/2-y,-z
-x,1/2+y,1/2-z
1/2-x,1/2-y,1/2-z
1/2+x,y,1/2-z
1/2-x,1/2+y,z
x,1/2-y,1/2+z
loop_
_atom_site_type_symbol
_atom_site_label
_atom_site_fract_x
_atom_site_fract_y
_atom_site_fract_z
Si Si1 0.637782 0.075108 0.098294
Si Si2 0.971693 0.154736 0.383059
Si Si3 0.938741 0.000000 0.250000
Si Si4 0.873280 0.263368 0.310130
Si Si5 0.250000 0.454489 0.000000
O O1 0.615747 0.148880 0.215822
O O2 0.639221 0.000000 0.250000
O O3 0.696375 0.088140 0.021728
O O4 0.599172 0.053445 0.894201
O O5 0.921440 0.207424 0.346477
O O6 0.997619 0.170541 0.637717
O O7 0.967437 0.064091 0.394330
O O8 0.845963 0.257812 0.565826
O O9 0.254621 0.500000 0.750000
#
# Coordination Sequence:
#
# PCOD9532328 Si02
#       5
#    16  16   8  16   8
#     4  11  25  46  78 109 144 193 241 298 366 439
#     4  12  28  48  70 103 142 192 245 302 361 424
#     4  12  24  48  76 102 144 184 248 302 358 432
#     4  12  26  48  71 103 148 191 237 292 371 424
#     4  10  22  44  74 112 146 184 242 300 364 436
#
# _framework density 24.189036000000002
#
# number of rings (size 3 to 8) (size 9 to 14) (size 15 to 20)
#    0.000    0.500    3.750    3.750    3.500    3.000 
#    0.000    1.250    0.000    0.000    0.000    0.000 
#    0.000    0.000    0.000    0.000    0.000    0.000 
#
# Total GULP energy -178621.556468 kJ/mol
# GULP energy per Si atom -5581.923640 kJ/mol
# Density = 2.413398 g / cm^3
# Si number density = 24.189036 Si / 1000 Ang^3
#
#
#
# Elastic Constant Matrix: (Units=GPa)
#
#
# Indices 1 2 3 4 5 6 
#
# 1 50.7580 43.6078 33.7154 0.0000 0.0000 0.0000
# 2 43.6078 221.9550 35.6156 0.0000 0.0000 0.0000
# 3 33.7154 35.6156 171.0765 0.0000 0.0000 0.0000
# 4 0.0000 0.0000 0.0000 33.1132 0.0000 0.0000
# 5 0.0000 0.0000 0.0000 0.0000 24.7475 0.0000
# 6 0.0000 0.0000 0.0000 0.0000 0.0000 44.3325
#
#
#
# Elastic Compliance Matrix: (Units=1/GPa)
#
#
# Indices 1 2 3 4 5 6 
#
# 1 0.026404 -0.004503 -0.004266 0.000000 0.000000 0.000000
# 2 -0.004503 0.005429 -0.000243 0.000000 0.000000 0.000000
# 3 -0.004266 -0.000243 0.006737 0.000000 0.000000 0.000000
# 4 0.000000 0.000000 0.000000 0.030199 0.000000 0.000000
# 5 0.000000 0.000000 0.000000 0.000000 0.040408 0.000000
# 6 0.000000 0.000000 0.000000 0.000000 0.000000 0.022557
#
#
# Mechanical properties :
#
#
# Convention : Reuss Voigt Hill
#
# Bulk Modulus (GPa) = 48.67232 74.40746 61.53989
# Shear Modulus (GPa) = 31.92718 42.49535 37.21127
#
# Velocity S-wave (km/s) = 3.63699 4.19597 3.92644
# Velocity P-wave (km/s) = 6.14835 7.36902 6.78619
#
# Compressibility (1/GPa) = 0.02054556
#
# Stress axis : x y z
#
# Youngs Moduli (GPa) = 37.87339 184.19271 148.44175
#
# Poissons Ratio (x) = 0.82943 0.63327
# Poissons Ratio (y) = 0.17054 0.03604
# Poissons Ratio (z) = 0.16157 0.04472
#
# Static dielectric constant tensor:
#      x y z
#    x 1.976130 0.000000 0.000000 
#    y 0.000000 2.105510 0.000000 
#    z 0.000000 0.000000 3.403280 
# 
# From -- ./inp_files/2934.got.cif
#   From: 2010.05.17/outbox.cif.g08.bks.cpg/sg73_2_cif.got.tgz:2934.got - 2010.06.03 17:35:07.
