data_PCOD9532678
_publ_section_title
;
Structure prediction by ZEFSAII (Michael W. Deem and Ramdas Pophale) SiO2 
 PCOD9532678
Probable space group: I B C A 
;
_chemical_formula_sum "Si O2"
_cell_formula_units_Z 72
_cell_length_a 23.294505
_cell_length_b 8.369159
_cell_length_c 15.686701
_cell_angle_alpha 90.000000
_cell_angle_beta 90.000000
_cell_angle_gamma 90.000000
_cell_volume 3058.207322
_symmetry_space_group_name_H-M "I B C A "
_symmetry_group_IT_number 73
_symmetry_cell_setting 'orthorhombic'
loop_
_space_group_symop_operation_xyz
x,y,z
-x,1/2-y,z
x,-y,1/2-z
1/2-x,y,-z
-x,-y,-z
x,1/2+y,-z
-x,y,1/2+z
1/2+x,-y,z
1/2+x,1/2+y,1/2+z
1/2-x,-y,1/2+z
1/2+x,1/2-y,-z
-x,1/2+y,1/2-z
1/2-x,1/2-y,1/2-z
1/2+x,y,1/2-z
1/2-x,1/2+y,z
x,1/2-y,1/2+z
loop_
_atom_site_type_symbol
_atom_site_label
_atom_site_fract_x
_atom_site_fract_y
_atom_site_fract_z
Si Si1 0.147279 0.500000 0.750000
Si Si2 0.250000 0.218808 0.500000
Si Si3 0.067036 0.916374 0.910846
Si Si4 0.058994 0.465468 0.604175
Si Si5 0.250000 0.750000 0.250000
Si Si6 0.189360 0.957901 0.608208
O O1 0.105460 0.529383 0.669917
O O2 0.188211 0.651538 0.762512
O O3 0.198409 0.331405 0.468776
O O4 0.227305 0.110776 0.577841
O O5 0.067189 0.725844 0.901198
O O6 0.008164 0.987259 0.872653
O O7 0.124971 0.992034 0.875835
O O8 0.066979 0.957046 0.011559
O O9 0.281161 0.877170 0.312969
#
# Coordination Sequence:
#
# PCOD9532678 Si02
#       6
#     8   8  16  16   8  16
#     4  12  30  52  68 110 156 194 242 324 370 452
#     4  10  24  40  74 106 146 200 240 300 370 434
#     4  10  23  48  82 109 142 201 249 304 365 457
#     4  10  25  50  76 112 150 189 254 304 373 445
#     4  12  30  46  70 106 150 200 246 310 376 438
#     4  11  24  45  70 108 145 192 252 300 367 442
#
# _framework density 23.543202999999998
#
# number of rings (size 3 to 8) (size 9 to 14) (size 15 to 20)
#    0.000    1.333    0.000    2.667   18.667    0.000 
#    8.000    0.000    0.000    0.000    0.000    0.000 
#    0.000    0.000    0.000    0.000    0.000    0.000 
#
# Total GULP energy -200785.941205 kJ/mol
# GULP energy per Si atom -5577.387256 kJ/mol
# Density = 2.348962 g / cm^3
# Si number density = 23.543203 Si / 1000 Ang^3
#
#
#
# Elastic Constant Matrix: (Units=GPa)
#
#
# Indices 1 2 3 4 5 6 
#
# 1 250.2685 62.7758 66.3384 0.0000 0.0000 0.0000
# 2 62.7758 68.1221 18.8665 0.0000 0.0000 0.0000
# 3 66.3384 18.8665 40.3210 0.0000 0.0000 0.0000
# 4 0.0000 0.0000 0.0000 -161.5894 0.0000 0.0000
# 5 0.0000 0.0000 0.0000 0.0000 33.2834 0.0000
# 6 0.0000 0.0000 0.0000 0.0000 0.0000 -17.2021
#
#
#
# Elastic Compliance Matrix: (Units=1/GPa)
#
#
# Indices 1 2 3 4 5 6 
#
# 1 0.008055 -0.004311 -0.011236 0.000000 0.000000 0.000000
# 2 -0.004311 0.019173 -0.001878 0.000000 0.000000 0.000000
# 3 -0.011236 -0.001878 0.044166 0.000000 0.000000 0.000000
# 4 0.000000 0.000000 0.000000 -0.006189 0.000000 0.000000
# 5 0.000000 0.000000 0.000000 0.000000 0.030045 0.000000
# 6 0.000000 0.000000 0.000000 0.000000 0.000000 -0.058133
#
#
# Mechanical properties :
#
#
# Convention : Reuss Voigt Hill
#
# Bulk Modulus (GPa) = 27.36451 72.74145 50.05298
# Shear Modulus (GPa) = 59.41863 -15.05288 22.18287
#
# Velocity S-wave (km/s) = 5.02921 -2.53132 3.07289
# Velocity P-wave (km/s) = 6.73589 4.73504 5.82206
#
# Compressibility (1/GPa) = 0.03654368
#
# Stress axis : x y z
#
# Youngs Moduli (GPa) = 124.13922 52.15776 22.64208
#
# Poissons Ratio (x) = 0.22488 0.25441
# Poissons Ratio (y) = 0.53522 0.04251
# Poissons Ratio (z) = 1.39482 0.09793
#
# Static dielectric constant tensor:
#      x y z
#    x 1.860530 0.000000 0.000000 
#    y 0.000000 1.912340 0.000000 
#    z 0.000000 0.000000 2.001820 
# 
# From -- ./inp_files/22984.got.cif
#   From: 2010.05.17/outbox.cif.g08.bks.cpg/sg73_12_cif.got.tgz:22984.got - 2010.06.03 17:35:07.
