data_PCOD9532288
_publ_section_title
;
Structure prediction by ZEFSAII (Michael W. Deem and Ramdas Pophale) SiO2 
 PCOD9532288
Probable space group: I B C A 
;
_chemical_formula_sum "Si O2"
_cell_formula_units_Z 96
_cell_length_a 15.215410
_cell_length_b 21.906560
_cell_length_c 13.605329
_cell_angle_alpha 90.000000
_cell_angle_beta 90.000000
_cell_angle_gamma 90.000000
_cell_volume 4534.891420
_symmetry_space_group_name_H-M "I B C A "
_symmetry_group_IT_number 73
_symmetry_cell_setting 'orthorhombic'
loop_
_space_group_symop_operation_xyz
x,y,z
-x,1/2-y,z
x,-y,1/2-z
1/2-x,y,-z
-x,-y,-z
x,1/2+y,-z
-x,y,1/2+z
1/2+x,-y,z
1/2+x,1/2+y,1/2+z
1/2-x,-y,1/2+z
1/2+x,1/2-y,-z
-x,1/2+y,1/2-z
1/2-x,1/2-y,1/2-z
1/2+x,y,1/2-z
1/2-x,1/2+y,z
x,1/2-y,1/2+z
loop_
_atom_site_type_symbol
_atom_site_label
_atom_site_fract_x
_atom_site_fract_y
_atom_site_fract_z
Si Si1 0.750000 0.921523 0.500000
Si Si2 0.380993 0.850027 0.860193
Si Si3 0.033001 0.618670 0.835956
Si Si4 0.432505 0.389702 0.557790
Si Si5 0.000000 0.250000 0.596598
Si Si6 0.658150 0.227664 0.556224
Si Si7 0.383574 0.983167 0.147091
O O1 0.694597 0.881459 0.423532
O O2 0.682216 0.960171 0.564278
O O3 0.399602 0.879309 0.754285
O O4 0.472520 0.860925 0.918155
O O5 0.356787 0.778513 0.860423
O O6 0.993772 0.687479 0.842071
O O7 0.956218 0.568542 0.828869
O O8 0.077785 0.605524 0.940624
O O9 0.361171 0.340554 0.594062
O O10 0.427728 0.455535 0.605905
O O11 0.084294 0.257971 0.526405
O O12 0.750000 0.232084 0.500000
O O13 0.338154 0.000000 0.250000
#
# Coordination Sequence:
#
# PCOD9532288 Si02
#       7
#     8  16  16  16   8  16  16
#     4  12  28  46  70 108 144 186 238 324 358 432
#     4  12  23  45  76  99 144 190 245 296 374 445
#     4  11  24  42  73 104 133 199 241 286 367 450
#     4  11  24  46  70 100 150 194 241 304 360 456
#     4  10  22  44  68 104 146 182 242 298 372 442
#     4  11  22  43  73 106 143 191 241 308 379 429
#     4  12  26  47  72 104 142 191 249 296 371 446
#
# _framework density 21.169194000000001
#
# number of rings (size 3 to 8) (size 9 to 14) (size 15 to 20)
#    0.000    0.667    7.500    0.500    3.500    1.333 
#    3.000    3.333    0.000    0.000    0.000    0.000 
#    0.000    0.000    0.000    0.000    0.000    0.000 
#
# Total GULP energy -268333.772037 kJ/mol
# GULP energy per Si atom -5590.286917 kJ/mol
# Density = 2.112101 g / cm^3
# Si number density = 21.169194 Si / 1000 Ang^3
#
#
#
# Elastic Constant Matrix: (Units=GPa)
#
#
# Indices 1 2 3 4 5 6 
#
# 1 80.0307 40.7084 4.2785 0.0000 0.0000 0.0000
# 2 40.7084 157.7521 44.2271 -0.0001 0.0000 0.0000
# 3 4.2785 44.2271 97.3722 -0.0003 0.0000 0.0001
# 4 0.0000 -0.0001 -0.0003 6.0739 0.0000 0.0000
# 5 0.0000 0.0000 0.0000 0.0000 23.7841 0.0000
# 6 0.0000 0.0000 0.0001 0.0000 0.0000 1.4323
#
#
#
# Elastic Compliance Matrix: (Units=1/GPa)
#
#
# Indices 1 2 3 4 5 6 
#
# 1 0.014508 -0.004085 0.001218 0.000000 0.000000 0.000000
# 2 -0.004085 0.008414 -0.003642 0.000000 0.000000 0.000000
# 3 0.001218 -0.003642 0.011871 0.000000 0.000000 -0.000001
# 4 0.000000 0.000000 0.000000 0.164639 0.000000 -0.000004
# 5 0.000000 0.000000 0.000000 0.000000 0.042045 0.000000
# 6 0.000000 0.000000 -0.000001 -0.000004 0.000000 0.698160
#
#
# Mechanical properties :
#
#
# Convention : Reuss Voigt Hill
#
# Bulk Modulus (GPa) = 45.92624 57.06480 51.49552
# Shear Modulus (GPa) = 5.20880 22.65414 13.93147
#
# Velocity S-wave (km/s) = 1.57032 3.27486 2.56813
# Velocity P-wave (km/s) = 5.00298 6.42765 5.75953
#
# Compressibility (1/GPa) = 0.02177405
#
# Stress axis : x y z
#
# Youngs Moduli (GPa) = 68.92680 118.84274 84.24070
#
# Poissons Ratio (x) = 0.48552 -0.10262
# Poissons Ratio (y) = 0.28159 0.30684
# Poissons Ratio (z) = -0.08396 0.43287
#
# Static dielectric constant tensor:
#      x y z
#    x 1.745610 0.000000 0.000000 
#    y 0.000000 1.811720 0.000000 
#    z 0.000000 0.000000 1.792950 
# 
# From -- ./inp_files/17127.got.cif
#   From: 2010.05.17/outbox.cif.g08.bks.cpg/sg73_9_cif.got.tgz:17127.got - 2010.06.03 17:35:07.
