data_PCOD9532915
_publ_section_title
;
Structure prediction by ZEFSAII (Michael W. Deem and Ramdas Pophale) SiO2 
 PCOD9532915
Probable space group: I B C A 
;
_chemical_formula_sum "Si O2"
_cell_formula_units_Z 96
_cell_length_a 17.755692
_cell_length_b 19.847999
_cell_length_c 11.572584
_cell_angle_alpha 90.000000
_cell_angle_beta 90.000000
_cell_angle_gamma 90.000000
_cell_volume 4078.351693
_symmetry_space_group_name_H-M "I B C A "
_symmetry_group_IT_number 73
_symmetry_cell_setting 'orthorhombic'
loop_
_space_group_symop_operation_xyz
x,y,z
-x,1/2-y,z
x,-y,1/2-z
1/2-x,y,-z
-x,-y,-z
x,1/2+y,-z
-x,y,1/2+z
1/2+x,-y,z
1/2+x,1/2+y,1/2+z
1/2-x,-y,1/2+z
1/2+x,1/2-y,-z
-x,1/2+y,1/2-z
1/2-x,1/2-y,1/2-z
1/2+x,y,1/2-z
1/2-x,1/2+y,z
x,1/2-y,1/2+z
loop_
_atom_site_type_symbol
_atom_site_label
_atom_site_fract_x
_atom_site_fract_y
_atom_site_fract_z
Si Si1 0.180425 0.540568 0.073666
Si Si2 0.962746 0.951296 0.346633
Si Si3 0.358672 0.217494 0.694348
Si Si4 0.165989 0.368940 0.222095
Si Si5 0.750000 0.161811 0.000000
Si Si6 0.000000 0.750000 0.055423
Si Si7 0.595577 0.859423 0.080738
O O1 0.106119 0.493259 0.093256
O O2 0.202898 0.573979 0.196690
O O3 0.250000 0.511178 0.000000
O O4 0.155383 0.607174 0.003711
O O5 0.920934 0.890119 0.282460
O O6 0.031414 0.917124 0.410685
O O7 0.995754 0.000000 0.250000
O O8 0.334009 0.291636 0.737941
O O9 0.303957 0.201115 0.588057
O O10 0.441526 0.213569 0.639377
O O11 0.363502 0.166361 0.802682
O O12 0.197900 0.374776 0.093281
O O13 0.948320 0.797050 0.975921
#
# Coordination Sequence:
#
# PCOD9532915 Si02
#       7
#    16  16  16  16   8   8  16
#     4  11  25  46  73 102 147 193 241 302 365 435
#     4  10  24  46  69 101 142 186 246 299 350 428
#     4  12  25  43  72 109 146 184 238 299 381 442
#     4  11  24  45  68 104 144 184 239 297 363 439
#     4  12  26  42  72 104 148 188 228 298 370 452
#     4  12  24  44  74 108 142 186 234 310 368 442
#     4  12  24  45  75 108 141 191 242 303 367 445
#
# _framework density 23.538920999999998
#
# number of rings (size 3 to 8) (size 9 to 14) (size 15 to 20)
#    0.000    0.667    1.667    6.500    4.667    0.000 
#    3.000    2.500    0.000    0.000    0.000    0.000 
#    0.000    0.000    0.000    0.000    0.000    0.000 
#
# Total GULP energy -268191.833428 kJ/mol
# GULP energy per Si atom -5587.329863 kJ/mol
# Density = 2.348535 g / cm^3
# Si number density = 23.538921 Si / 1000 Ang^3
#
#
#
# Elastic Constant Matrix: (Units=GPa)
#
#
# Indices 1 2 3 4 5 6 
#
# 1 47.9758 37.5463 21.2480 0.0000 0.0000 0.0000
# 2 37.5463 107.9252 68.7568 0.0000 0.0000 0.0000
# 3 21.2480 68.7568 139.4331 0.0000 0.0000 0.0000
# 4 0.0000 0.0000 0.0000 220.4894 0.0000 0.0000
# 5 0.0000 0.0000 0.0000 0.0000 13.6275 0.0000
# 6 0.0000 0.0000 0.0000 0.0000 0.0000 27.5757
#
#
#
# Elastic Compliance Matrix: (Units=1/GPa)
#
#
# Indices 1 2 3 4 5 6 
#
# 1 0.028703 -0.010497 0.000802 0.000000 0.000000 0.000000
# 2 -0.010497 0.017348 -0.006955 0.000000 0.000000 0.000000
# 3 0.000802 -0.006955 0.010479 0.000000 0.000000 0.000000
# 4 0.000000 0.000000 0.000000 0.004535 0.000000 0.000000
# 5 0.000000 0.000000 0.000000 0.000000 0.073381 0.000000
# 6 0.000000 0.000000 0.000000 0.000000 0.000000 0.036264
#
#
# Mechanical properties :
#
#
# Convention : Reuss Voigt Hill
#
# Bulk Modulus (GPa) = 43.04500 61.15961 52.10231
# Shear Modulus (GPa) = 23.61221 63.52405 43.56813
#
# Velocity S-wave (km/s) = 3.17063 5.20052 4.30687
# Velocity P-wave (km/s) = 5.63297 7.88031 6.84944
#
# Compressibility (1/GPa) = 0.02323150
#
# Stress axis : x y z
#
# Youngs Moduli (GPa) = 34.83909 57.64222 95.42509
#
# Poissons Ratio (x) = 0.60505 -0.07653
# Poissons Ratio (y) = 0.36569 0.66370
# Poissons Ratio (z) = -0.02794 0.40091
#
# Static dielectric constant tensor:
#      x y z
#    x 1.996690 0.000000 0.000000 
#    y 0.000000 1.932730 0.000000 
#    z 0.000000 0.000000 1.917140 
# 
# From -- ./inp_files/12918.got.cif
#   From: 2010.05.17/outbox.cif.g08.bks.cpg/sg73_7_cif.got.tgz:12918.got - 2010.06.03 17:35:07.
