data_PCOD9532608
_publ_section_title
;
Structure prediction by ZEFSAII (Michael W. Deem and Ramdas Pophale) SiO2 
 PCOD9532608
Probable space group: I B C A 
;
_chemical_formula_sum "Si O2"
_cell_formula_units_Z 120
_cell_length_a 18.591514
_cell_length_b 18.086224
_cell_length_c 18.228887
_cell_angle_alpha 90.000000
_cell_angle_beta 90.000000
_cell_angle_gamma 90.000000
_cell_volume 6129.468480
_symmetry_space_group_name_H-M "I B C A "
_symmetry_group_IT_number 73
_symmetry_cell_setting 'orthorhombic'
loop_
_space_group_symop_operation_xyz
x,y,z
-x,1/2-y,z
x,-y,1/2-z
1/2-x,y,-z
-x,-y,-z
x,1/2+y,-z
-x,y,1/2+z
1/2+x,-y,z
1/2+x,1/2+y,1/2+z
1/2-x,-y,1/2+z
1/2+x,1/2-y,-z
-x,1/2+y,1/2-z
1/2-x,1/2-y,1/2-z
1/2+x,y,1/2-z
1/2-x,1/2+y,z
x,1/2-y,1/2+z
loop_
_atom_site_type_symbol
_atom_site_label
_atom_site_fract_x
_atom_site_fract_y
_atom_site_fract_z
Si Si1 0.640661 0.369441 0.371382
Si Si2 0.133781 0.556451 0.887606
Si Si3 0.727162 0.499584 0.332901
Si Si4 0.961461 0.316217 0.915904
Si Si5 0.543581 0.500000 0.750000
Si Si6 0.091146 0.407166 0.292100
Si Si7 0.418914 0.277954 0.424814
Si Si8 0.938508 0.439956 0.488932
O O1 0.714226 0.417964 0.366623
O O2 0.611437 0.376414 0.287936
O O3 0.636400 0.283497 0.394593
O O4 0.592113 0.408918 0.434371
O O5 0.219504 0.552339 0.876747
O O6 0.091642 0.533201 0.814121
O O7 0.103059 0.637919 0.905411
O O8 0.118431 0.489520 0.944648
O O9 0.757214 0.500000 0.250000
O O10 0.647467 0.531870 0.320626
O O11 0.908097 0.350765 0.858422
O O12 0.000000 0.250000 0.874640
O O13 0.021105 0.374328 0.945391
O O14 0.923594 0.281509 0.987049
O O15 0.488383 0.440752 0.715386
O O16 0.500000 0.250000 0.401186
O O17 0.000000 0.500000 0.500000
#
# Coordination Sequence:
#
# PCOD9532608 Si02
#       8
#    16  16  16  16   8  16  16  16
#     4  11  22  42  67  90 136 180 217 269 359 401
#     4  12  25  39  70 101 132 177 234 275 336 408
#     4  10  23  45  65  96 140 176 224 277 331 407
#     4  11  22  39  60  97 138 161 217 291 333 384
#     4  12  20  36  68 102 124 170 238 282 320 400
#     4  11  22  40  69  96 129 184 222 274 340 407
#     4  11  22  40  66  99 135 172 220 289 342 394
#     4  12  20  38  65  97 128 171 223 285 326 384
#
# _framework density 19.577553999999999
#
# number of rings (size 3 to 8) (size 9 to 14) (size 15 to 20)
#    0.000    0.800    8.000    2.400    0.000    2.133 
#    0.000    4.000    2.933    0.000    0.000    0.000 
#    0.000    0.000    0.000    0.000    0.000    0.000 
#
# Total GULP energy -334293.195867 kJ/mol
# GULP energy per Si atom -5571.553264 kJ/mol
# Density = 1.953299 g / cm^3
# Si number density = 19.577554 Si / 1000 Ang^3
#
#
#
# Elastic Constant Matrix: (Units=GPa)
#
#
# Indices 1 2 3 4 5 6 
#
# 1 53.0737 19.9195 20.0333 0.0000 0.0000 0.0000
# 2 19.9195 117.5120 37.3682 0.0000 0.0000 0.0000
# 3 20.0333 37.3682 80.9313 0.0000 0.0000 0.0000
# 4 0.0000 0.0000 0.0000 38.0169 0.0000 0.0000
# 5 0.0000 0.0000 0.0000 0.0000 6.5686 0.0000
# 6 0.0000 0.0000 0.0000 0.0000 0.0000 26.5164
#
#
#
# Elastic Compliance Matrix: (Units=1/GPa)
#
#
# Indices 1 2 3 4 5 6 
#
# 1 0.021286 -0.002265 -0.004223 0.000000 0.000000 0.000000
# 2 -0.002265 0.010215 -0.004156 0.000000 0.000000 0.000000
# 3 -0.004223 -0.004156 0.015320 0.000000 0.000000 0.000000
# 4 0.000000 0.000000 0.000000 0.026304 0.000000 0.000000
# 5 0.000000 0.000000 0.000000 0.000000 0.152239 0.000000
# 6 0.000000 0.000000 0.000000 0.000000 0.000000 0.037713
#
#
# Mechanical properties :
#
#
# Convention : Reuss Voigt Hill
#
# Bulk Modulus (GPa) = 39.16484 45.12879 42.14681
# Shear Modulus (GPa) = 17.07202 25.83343 21.45273
#
# Velocity S-wave (km/s) = 2.95620 3.63649 3.31385
# Velocity P-wave (km/s) = 5.63033 6.38228 6.01806
#
# Compressibility (1/GPa) = 0.02553311
#
# Stress axis : x y z
#
# Youngs Moduli (GPa) = 46.97923 97.89205 65.27228
#
# Poissons Ratio (x) = 0.22175 0.27565
# Poissons Ratio (y) = 0.10642 0.27127
# Poissons Ratio (z) = 0.19840 0.40684
#
# Static dielectric constant tensor:
#      x y z
#    x 1.777460 0.000000 0.000000 
#    y 0.000000 1.469690 0.000000 
#    z 0.000000 0.000000 1.737550 
# 
# From -- ./inp_files/22683.got.cif
#   From: 2010.05.17/outbox.cif.g08.bks.cpg/sg73_12_cif.got.tgz:22683.got - 2010.06.03 17:35:07.
