data_PCOD9532316
_publ_section_title
;
Structure prediction by ZEFSAII (Michael W. Deem and Ramdas Pophale) SiO2 
 PCOD9532316
Probable space group: I B C A 
;
_chemical_formula_sum "Si O2"
_cell_formula_units_Z 56
_cell_length_a 16.393201
_cell_length_b 10.889538
_cell_length_c 13.011592
_cell_angle_alpha 90.000000
_cell_angle_beta 90.000000
_cell_angle_gamma 90.000000
_cell_volume 2322.756347
_symmetry_space_group_name_H-M "I B C A "
_symmetry_group_IT_number 73
_symmetry_cell_setting 'orthorhombic'
loop_
_space_group_symop_operation_xyz
x,y,z
-x,1/2-y,z
x,-y,1/2-z
1/2-x,y,-z
-x,-y,-z
x,1/2+y,-z
-x,y,1/2+z
1/2+x,-y,z
1/2+x,1/2+y,1/2+z
1/2-x,-y,1/2+z
1/2+x,1/2-y,-z
-x,1/2+y,1/2-z
1/2-x,1/2-y,1/2-z
1/2+x,y,1/2-z
1/2-x,1/2+y,z
x,1/2-y,1/2+z
loop_
_atom_site_type_symbol
_atom_site_label
_atom_site_fract_x
_atom_site_fract_y
_atom_site_fract_z
Si Si1 0.838714 0.155289 0.173145
Si Si2 0.500000 0.750000 0.752733
Si Si3 0.792598 0.827068 0.092796
Si Si4 0.552635 0.935314 0.913819
O O1 0.915124 0.248041 0.191302
O O2 0.799940 0.134543 0.286864
O O3 0.766656 0.210375 0.105387
O O4 0.885024 0.039756 0.125108
O O5 0.502158 0.873082 0.822174
O O6 0.886704 0.822685 0.056715
O O7 0.750000 0.902083 0.000000
O O8 0.500000 0.000000 0.000000
#
# Coordination Sequence:
#
# PCOD9532316 Si02
#       4
#    16   8  16  16
#     4  10  24  46  70 104 155 187 257 312 380 456
#     4  10  22  44  72 104 142 200 246 318 380 452
#     4  10  23  45  71 106 143 197 249 313 374 457
#     4  11  26  46  73 111 150 198 256 309 390 458
#
# _framework density 24.109286999999998
#
# number of rings (size 3 to 8) (size 9 to 14) (size 15 to 20)
#    0.000    1.714    0.000    3.429   12.000    1.143 
#   10.286    0.000    0.000    0.000    0.000    0.000 
#    0.000    0.000    0.000    0.000    0.000    0.000 
#
# Total GULP energy -155902.180574 kJ/mol
# GULP energy per Si atom -5567.935020 kJ/mol
# Density = 2.405441 g / cm^3
# Si number density = 24.109287 Si / 1000 Ang^3
#
#
#
# Elastic Constant Matrix: (Units=GPa)
#
#
# Indices 1 2 3 4 5 6 
#
# 1 122.7998 67.6451 78.1153 0.0000 0.0000 0.0000
# 2 67.6451 107.4072 44.5117 0.0000 0.0000 0.0000
# 3 78.1153 44.5117 154.9660 0.0000 0.0000 0.0000
# 4 0.0000 0.0000 0.0000 34.9258 0.0000 0.0000
# 5 0.0000 0.0000 0.0000 0.0000 68.6825 0.0000
# 6 0.0000 0.0000 0.0000 0.0000 0.0000 67.5170
#
#
#
# Elastic Compliance Matrix: (Units=1/GPa)
#
#
# Indices 1 2 3 4 5 6 
#
# 1 0.016175 -0.007728 -0.005934 0.000000 0.000000 0.000000
# 2 -0.007728 0.014261 -0.000201 0.000000 0.000000 0.000000
# 3 -0.005934 -0.000201 0.009502 0.000000 0.000000 0.000000
# 4 0.000000 0.000000 0.000000 0.028632 0.000000 0.000000
# 5 0.000000 0.000000 0.000000 0.000000 0.014560 0.000000
# 6 0.000000 0.000000 0.000000 0.000000 0.000000 0.014811
#
#
# Mechanical properties :
#
#
# Convention : Reuss Voigt Hill
#
# Bulk Modulus (GPa) = 81.88245 85.07972 83.48108
# Shear Modulus (GPa) = 38.53998 47.21845 42.87921
#
# Velocity S-wave (km/s) = 4.00253 4.43031 4.22184
# Velocity P-wave (km/s) = 7.44292 7.84449 7.64634
#
# Compressibility (1/GPa) = 0.01221263
#
# Stress axis : x y z
#
# Youngs Moduli (GPa) = 61.82446 70.12359 105.24399
#
# Poissons Ratio (x) = 0.54191 0.62449
# Poissons Ratio (y) = 0.47777 0.02112
# Poissons Ratio (z) = 0.36685 0.01407
#
# Static dielectric constant tensor:
#      x y z
#    x 1.976470 0.000000 0.000000 
#    y 0.000000 2.075130 0.000000 
#    z 0.000000 0.000000 2.074170 
# 
# From -- ./inp_files/10225.got.cif
#   From: 2010.05.17/outbox.cif.g08.bks.cpg/sg73_6_cif.got.tgz:10225.got - 2010.06.03 17:35:07.
