data_PCOD9532586
_publ_section_title
;
Structure prediction by ZEFSAII (Michael W. Deem and Ramdas Pophale) SiO2 
 PCOD9532586
Probable space group: I B C A 
;
_chemical_formula_sum "Si O2"
_cell_formula_units_Z 120
_cell_length_a 24.115878
_cell_length_b 8.531123
_cell_length_c 23.547525
_cell_angle_alpha 90.000000
_cell_angle_beta 90.000000
_cell_angle_gamma 90.000000
_cell_volume 4844.562335
_symmetry_space_group_name_H-M "I B C A "
_symmetry_group_IT_number 73
_symmetry_cell_setting 'orthorhombic'
loop_
_space_group_symop_operation_xyz
x,y,z
-x,1/2-y,z
x,-y,1/2-z
1/2-x,y,-z
-x,-y,-z
x,1/2+y,-z
-x,y,1/2+z
1/2+x,-y,z
1/2+x,1/2+y,1/2+z
1/2-x,-y,1/2+z
1/2+x,1/2-y,-z
-x,1/2+y,1/2-z
1/2-x,1/2-y,1/2-z
1/2+x,y,1/2-z
1/2-x,1/2+y,z
x,1/2-y,1/2+z
loop_
_atom_site_type_symbol
_atom_site_label
_atom_site_fract_x
_atom_site_fract_y
_atom_site_fract_z
Si Si1 0.805567 0.030643 0.130406
Si Si2 0.416511 0.200501 0.369627
Si Si3 0.627462 0.481275 0.940588
Si Si4 0.065296 0.765415 0.131439
Si Si5 0.698706 0.500000 0.250000
Si Si6 0.551335 0.000746 0.542703
Si Si7 0.879446 0.189920 0.748047
Si Si8 0.739931 0.819406 0.062561
O O1 0.870298 0.063204 0.139626
O O2 0.781801 0.188291 0.104467
O O3 0.773851 0.988899 0.188547
O O4 0.795820 0.891109 0.087228
O O5 0.394688 0.312637 0.419535
O O6 0.464244 0.108360 0.402892
O O7 0.417577 0.283958 0.308734
O O8 0.599975 0.588687 0.892994
O O9 0.693506 0.457224 0.939945
O O10 0.603685 0.531755 0.001572
O O11 0.065638 0.660069 0.074265
O O12 0.091272 0.754394 0.194233
O O13 0.000000 0.750000 0.144282
O O14 0.668016 0.327454 0.256108
O O15 0.500000 0.000000 0.500000
O O16 0.865573 0.000000 0.750000
O O17 0.750000 0.757999 0.000000
#
# Coordination Sequence:
#
# PCOD9532586 Si02
#       8
#    16  16  16  16   8  16  16  16
#     4  10  23  44  69 109 146 193 254 311 381 467
#     4  10  23  46  69 104 147 191 246 314 383 452
#     4  11  24  44  70 102 150 196 239 314 385 455
#     4  12  25  46  69 107 143 194 253 309 389 455
#     4  10  24  48  76 110 152 200 256 314 392 458
#     4  12  25  43  69 102 146 194 246 305 380 458
#     4  11  23  48  78 111 151 199 258 322 389 458
#     4  11  24  42  69 108 151 195 254 312 386 467
#
# _framework density 24.770038
#
# number of rings (size 3 to 8) (size 9 to 14) (size 15 to 20)
#    0.000    1.067    2.667    3.600    0.000    5.867 
#    6.000    2.667    0.000    0.000    0.000    0.000 
#    0.000    0.000    0.000    0.000    0.000    0.000 
#
# Total GULP energy -334470.499791 kJ/mol
# GULP energy per Si atom -5574.508330 kJ/mol
# Density = 2.471366 g / cm^3
# Si number density = 24.770038 Si / 1000 Ang^3
#
#
#
# Elastic Constant Matrix: (Units=GPa)
#
#
# Indices 1 2 3 4 5 6 
#
# 1 43.8473 17.5949 8.3662 0.0000 0.0000 0.0000
# 2 17.5949 98.1217 55.8636 0.0000 0.0000 0.0000
# 3 8.3662 55.8636 181.2521 0.0000 0.0000 0.0000
# 4 0.0000 0.0000 0.0000 123.1198 0.0000 0.0000
# 5 0.0000 0.0000 0.0000 0.0000 17.5084 0.0000
# 6 0.0000 0.0000 0.0000 0.0000 0.0000 15.2525
#
#
#
# Elastic Compliance Matrix: (Units=1/GPa)
#
#
# Indices 1 2 3 4 5 6 
#
# 1 0.024586 -0.004563 0.000272 0.000000 0.000000 0.000000
# 2 -0.004563 0.013207 -0.003860 0.000000 0.000000 0.000000
# 3 0.000272 -0.003860 0.006694 0.000000 0.000000 0.000000
# 4 0.000000 0.000000 0.000000 0.008122 0.000000 0.000000
# 5 0.000000 0.000000 0.000000 0.000000 0.057116 0.000000
# 6 0.000000 0.000000 0.000000 0.000000 0.000000 0.065563
#
#
# Mechanical properties :
#
#
# Convention : Reuss Voigt Hill
#
# Bulk Modulus (GPa) = 35.48104 54.09673 44.78888
# Shear Modulus (GPa) = 24.87734 47.26923 36.07328
#
# Velocity S-wave (km/s) = 3.17256 4.37317 3.82033
# Velocity P-wave (km/s) = 5.27024 6.88379 6.13033
#
# Compressibility (1/GPa) = 0.02818407
#
# Stress axis : x y z
#
# Youngs Moduli (GPa) = 40.67396 75.71564 149.38029
#
# Poissons Ratio (x) = 0.34551 -0.04058
# Poissons Ratio (y) = 0.18561 0.57661
# Poissons Ratio (z) = -0.01105 0.29226
#
# Static dielectric constant tensor:
#      x y z
#    x 2.178940 0.000000 0.000000 
#    y 0.000000 2.054240 0.000000 
#    z 0.000000 0.000000 1.921190 
# 
# From -- ./inp_files/30537.got.cif
#   From: 2010.05.17/outbox.cif.g08.bks.cpg/sg73_16_cif.got.tgz:30537.got - 2010.06.03 17:35:07.
