data_PCOD9532784
_publ_section_title
;
Structure prediction by ZEFSAII (Michael W. Deem and Ramdas Pophale) SiO2 
 PCOD9532784
Probable space group: I B C A 
;
_chemical_formula_sum "Si O2"
_cell_formula_units_Z 88
_cell_length_a 16.099622
_cell_length_b 9.125951
_cell_length_c 26.933647
_cell_angle_alpha 90.000000
_cell_angle_beta 90.000000
_cell_angle_gamma 90.000000
_cell_volume 3957.208888
_symmetry_space_group_name_H-M "I B C A "
_symmetry_group_IT_number 73
_symmetry_cell_setting 'orthorhombic'
loop_
_space_group_symop_operation_xyz
x,y,z
-x,1/2-y,z
x,-y,1/2-z
1/2-x,y,-z
-x,-y,-z
x,1/2+y,-z
-x,y,1/2+z
1/2+x,-y,z
1/2+x,1/2+y,1/2+z
1/2-x,-y,1/2+z
1/2+x,1/2-y,-z
-x,1/2+y,1/2-z
1/2-x,1/2-y,1/2-z
1/2+x,y,1/2-z
1/2-x,1/2+y,z
x,1/2-y,1/2+z
loop_
_atom_site_type_symbol
_atom_site_label
_atom_site_fract_x
_atom_site_fract_y
_atom_site_fract_z
Si Si1 0.245611 0.859224 0.167756
Si Si2 0.133091 0.924891 0.917272
Si Si3 0.903473 0.752711 0.614824
Si Si4 0.649460 0.381431 0.793861
Si Si5 0.565241 0.381001 0.518023
Si Si6 0.500000 0.750000 0.644206
O O1 0.293045 0.858413 0.115303
O O2 0.156806 0.782821 0.160466
O O3 0.305624 0.779579 0.207644
O O4 0.220807 0.026466 0.177791
O O5 0.132601 0.876807 0.974455
O O6 0.051637 0.857131 0.891217
O O7 0.124909 0.099671 0.910165
O O8 0.896464 0.880761 0.572940
O O9 0.000000 0.750000 0.630051
O O10 0.632319 0.500000 0.750000
O O11 0.564517 0.344060 0.822663
O O12 0.500000 0.250000 0.520819
O O13 0.500000 0.500000 0.500000
#
# Coordination Sequence:
#
# PCOD9532784 Si02
#       6
#    16  16  16  16  16   8
#     4  11  24  43  71  98 135 178 221 283 353 413
#     4  11  21  41  62  99 133 176 227 276 334 402
#     4  11  22  40  65  94 132 179 231 272 337 403
#     4  11  24  47  70 103 136 174 222 288 350 413
#     4  11  21  35  62  95 133 177 226 278 324 394
#     4  10  24  42  72 100 138 180 228 274 338 424
#
# _framework density 22.237897
#
# number of rings (size 3 to 8) (size 9 to 14) (size 15 to 20)
#    0.000    1.091    6.364    1.636    0.000    0.727 
#    4.909    3.636    0.000    0.000    0.000    0.000 
#    0.000    0.000    0.000    0.000    0.000    0.000 
#
# Total GULP energy -245209.759274 kJ/mol
# GULP energy per Si atom -5572.949074 kJ/mol
# Density = 2.218728 g / cm^3
# Si number density = 22.237897 Si / 1000 Ang^3
#
#
#
# Elastic Constant Matrix: (Units=GPa)
#
#
# Indices 1 2 3 4 5 6 
#
# 1 83.1636 13.3062 19.2014 0.0000 0.0000 0.0000
# 2 13.3062 58.6323 0.7753 0.0000 0.0000 0.0000
# 3 19.2014 0.7753 56.7995 0.0000 0.0000 0.0000
# 4 0.0000 0.0000 0.0000 29.3534 0.0000 0.0000
# 5 0.0000 0.0000 0.0000 0.0000 32.7493 0.0000
# 6 0.0000 0.0000 0.0000 0.0000 0.0000 37.1638
#
#
#
# Elastic Compliance Matrix: (Units=1/GPa)
#
#
# Indices 1 2 3 4 5 6 
#
# 1 0.013556 -0.003016 -0.004541 0.000000 0.000000 0.000000
# 2 -0.003016 0.017730 0.000778 0.000000 0.000000 0.000000
# 3 -0.004541 0.000778 0.019130 0.000000 0.000000 0.000000
# 4 0.000000 0.000000 0.000000 0.034068 0.000000 0.000000
# 5 0.000000 0.000000 0.000000 0.000000 0.030535 0.000000
# 6 0.000000 0.000000 0.000000 0.000000 0.000000 0.026908
#
#
# Mechanical properties :
#
#
# Convention : Reuss Voigt Hill
#
# Bulk Modulus (GPa) = 27.13286 29.46238 28.29762
# Shear Modulus (GPa) = 29.80242 30.87413 30.33828
#
# Velocity S-wave (km/s) = 3.66480 3.73011 3.69760
# Velocity P-wave (km/s) = 5.48956 5.64173 5.56617
#
# Compressibility (1/GPa) = 0.03685567
#
# Stress axis : x y z
#
# Youngs Moduli (GPa) = 73.76998 56.40259 52.27273
#
# Poissons Ratio (x) = 0.17013 0.23739
# Poissons Ratio (y) = 0.22251 -0.04065
# Poissons Ratio (z) = 0.33502 -0.04386
#
# Static dielectric constant tensor:
#      x y z
#    x 1.819990 0.000000 0.000000 
#    y 0.000000 1.854120 0.000000 
#    z 0.000000 0.000000 1.930620 
# 
# From -- ./inp_files/34499.got.cif
#   From: 2010.05.17/outbox.cif.g08.bks.cpg/sg73_18_cif.got.tgz:34499.got - 2010.06.03 17:35:07.
