data_PCOD9532331
_publ_section_title
;
Structure prediction by ZEFSAII (Michael W. Deem and Ramdas Pophale) SiO2 
 PCOD9532331
Probable space group: I B C A 
;
_chemical_formula_sum "Si O2"
_cell_formula_units_Z 48
_cell_length_a 11.387586
_cell_length_b 10.026071
_cell_length_c 18.291562
_cell_angle_alpha 90.000000
_cell_angle_beta 90.000000
_cell_angle_gamma 90.000000
_cell_volume 2088.397858
_symmetry_space_group_name_H-M "I B C A "
_symmetry_group_IT_number 73
_symmetry_cell_setting 'orthorhombic'
loop_
_space_group_symop_operation_xyz
x,y,z
-x,1/2-y,z
x,-y,1/2-z
1/2-x,y,-z
-x,-y,-z
x,1/2+y,-z
-x,y,1/2+z
1/2+x,-y,z
1/2+x,1/2+y,1/2+z
1/2-x,-y,1/2+z
1/2+x,1/2-y,-z
-x,1/2+y,1/2-z
1/2-x,1/2-y,1/2-z
1/2+x,y,1/2-z
1/2-x,1/2+y,z
x,1/2-y,1/2+z
loop_
_atom_site_type_symbol
_atom_site_label
_atom_site_fract_x
_atom_site_fract_y
_atom_site_fract_z
Si Si1 0.197826 0.006205 0.831676
Si Si2 0.632435 0.722306 0.625904
Si Si3 0.122319 0.929478 0.517891
O O1 0.207056 0.853139 0.856562
O O2 0.149697 0.000000 0.750000
O O3 0.316832 0.091989 0.834480
O O4 0.123577 0.082248 0.894582
O O5 0.500000 0.750000 0.649285
O O6 0.629536 0.692867 0.538851
O O7 0.250000 0.997538 0.500000
O O8 0.000000 0.000000 0.500000
#
# Coordination Sequence:
#
# PCOD9532331 Si02
#       3
#    16  16  16
#     4  11  25  47  75 112 157 204 266 341 407 476
#     4  11  24  47  74 107 157 208 268 319 412 493
#     4  10  22  44  75 106 150 201 263 318 393 483
#
# _framework density 22.984126
#
# number of rings (size 3 to 8) (size 9 to 14) (size 15 to 20)
#    0.000    1.333    3.333    1.000    0.000   13.333 
#    0.000    3.333    0.000    0.000    0.000    0.000 
#    0.000    0.000    0.000    0.000    0.000    0.000 
#
# Total GULP energy -133794.548923 kJ/mol
# GULP energy per Si atom -5574.772872 kJ/mol
# Density = 2.293181 g / cm^3
# Si number density = 22.984126 Si / 1000 Ang^3
#
#
#
# Elastic Constant Matrix: (Units=GPa)
#
#
# Indices 1 2 3 4 5 6 
#
# 1 138.6877 49.9844 10.0608 0.0000 0.0000 0.0000
# 2 49.9844 156.6568 45.4028 0.0000 0.0000 0.0000
# 3 10.0608 45.4028 176.5902 0.0000 0.0000 0.0000
# 4 0.0000 0.0000 0.0000 24.8927 0.0000 0.0000
# 5 0.0000 0.0000 0.0000 0.0000 11.9461 0.0000
# 6 0.0000 0.0000 0.0000 0.0000 0.0000 28.8637
#
#
#
# Elastic Compliance Matrix: (Units=1/GPa)
#
#
# Indices 1 2 3 4 5 6 
#
# 1 0.008155 -0.002666 0.000221 0.000000 0.000000 0.000000
# 2 -0.002666 0.007769 -0.001846 0.000000 0.000000 0.000000
# 3 0.000221 -0.001846 0.006125 0.000000 0.000000 0.000000
# 4 0.000000 0.000000 0.000000 0.040172 0.000000 0.000000
# 5 0.000000 0.000000 0.000000 0.000000 0.083709 0.000000
# 6 0.000000 0.000000 0.000000 0.000000 0.000000 0.034646
#
#
# Mechanical properties :
#
#
# Convention : Reuss Voigt Hill
#
# Bulk Modulus (GPa) = 74.25363 75.87008 75.06186
# Shear Modulus (GPa) = 25.82015 37.57293 31.69654
#
# Velocity S-wave (km/s) = 3.35534 4.04757 3.71760
# Velocity P-wave (km/s) = 6.88387 7.41115 7.15237
#
# Compressibility (1/GPa) = 0.01346735
#
# Stress axis : x y z
#
# Youngs Moduli (GPa) = 122.61930 128.71757 163.27177
#
# Poissons Ratio (x) = 0.34318 -0.03606
# Poissons Ratio (y) = 0.32692 0.30133
# Poissons Ratio (z) = -0.02708 0.23756
#
# Static dielectric constant tensor:
#      x y z
#    x 1.898430 0.000000 0.000000 
#    y 0.000000 1.906520 0.000000 
#    z 0.000000 0.000000 1.913240 
# 
# From -- ./inp_files/9263.got.cif
#   From: 2010.05.17/outbox.cif.g08.bks.cpg/sg73_5_cif.got.tgz:9263.got - 2010.06.03 17:35:07.
