data_PCOD9532943
_publ_section_title
;
Structure prediction by ZEFSAII (Michael W. Deem and Ramdas Pophale) SiO2 
 PCOD9532943
Probable space group: I B C A 
;
_chemical_formula_sum "Si O2"
_cell_formula_units_Z 120
_cell_length_a 22.474480
_cell_length_b 27.753505
_cell_length_c 8.749950
_cell_angle_alpha 90.000000
_cell_angle_beta 90.000000
_cell_angle_gamma 90.000000
_cell_volume 5457.742752
_symmetry_space_group_name_H-M "I B C A "
_symmetry_group_IT_number 73
_symmetry_cell_setting 'orthorhombic'
loop_
_space_group_symop_operation_xyz
x,y,z
-x,1/2-y,z
x,-y,1/2-z
1/2-x,y,-z
-x,-y,-z
x,1/2+y,-z
-x,y,1/2+z
1/2+x,-y,z
1/2+x,1/2+y,1/2+z
1/2-x,-y,1/2+z
1/2+x,1/2-y,-z
-x,1/2+y,1/2-z
1/2-x,1/2-y,1/2-z
1/2+x,y,1/2-z
1/2-x,1/2+y,z
x,1/2-y,1/2+z
loop_
_atom_site_type_symbol
_atom_site_label
_atom_site_fract_x
_atom_site_fract_y
_atom_site_fract_z
Si Si1 0.220636 0.204694 0.167481
Si Si2 0.475993 0.550949 0.063270
Si Si3 0.362585 0.036345 0.125423
Si Si4 0.421495 0.697750 0.213940
Si Si5 0.261338 0.099296 0.185324
Si Si6 0.174667 0.534087 0.616439
Si Si7 0.500000 0.750000 0.465327
Si Si8 0.937646 0.405743 0.361911
O O1 0.250000 0.250000 0.250000
O O2 0.148393 0.207201 0.175200
O O3 0.242278 0.152844 0.232540
O O4 0.250000 0.205300 0.000000
O O5 0.411391 0.555842 0.988654
O O6 0.518109 0.593731 0.003564
O O7 0.500000 0.500000 0.000000
O O8 0.468382 0.557774 0.242106
O O9 0.328728 0.081275 0.197957
O O10 0.389136 0.000000 0.250000
O O11 0.318138 0.001457 0.027679
O O12 0.449017 0.727543 0.356579
O O13 0.464746 0.712253 0.073655
O O14 0.426815 0.642809 0.269641
O O15 0.226534 0.062428 0.296066
O O16 0.250000 0.095663 0.000000
O O17 0.149810 0.500000 0.750000
O O18 0.124094 0.572535 0.579712
#
# Coordination Sequence:
#
# PCOD9532943 Si02
#       8
#    16  16  16  16  16  16   8  16
#     4  11  25  47  74 102 139 182 236 299 363 431
#     4  12  23  40  63  96 137 179 226 275 340 400
#     4  12  26  41  63  99 138 181 235 283 330 415
#     4  11  23  47  71 104 140 177 239 291 369 437
#     4  11  23  42  68  96 131 181 234 278 353 414
#     4  12  21  42  67  93 136 186 220 280 340 407
#     4  10  24  46  76 102 136 184 224 312 370 432
#     4  12  23  40  67  97 134 181 224 279 346 423
#
# _framework density 21.987110000000001
#
# number of rings (size 3 to 8) (size 9 to 14) (size 15 to 20)
#    0.000    0.533    5.333    3.200    1.867    0.000 
#    7.200    0.000    0.000    0.000    0.000    0.000 
#    0.000    0.000    0.000    0.000    0.000    0.000 
#
# Total GULP energy -335108.194826 kJ/mol
# GULP energy per Si atom -5585.136580 kJ/mol
# Density = 2.193707 g / cm^3
# Si number density = 21.987110 Si / 1000 Ang^3
#
#
#
# Elastic Constant Matrix: (Units=GPa)
#
#
# Indices 1 2 3 4 5 6 
#
# 1 137.2254 50.6670 26.8836 0.0000 0.0000 0.0000
# 2 50.6670 108.4765 22.5625 0.0000 0.0000 0.0000
# 3 26.8836 22.5625 63.7495 0.0000 0.0000 0.0000
# 4 0.0000 0.0000 0.0000 33.3765 0.0000 0.0000
# 5 0.0000 0.0000 0.0000 0.0000 30.4169 0.0000
# 6 0.0000 0.0000 0.0000 0.0000 0.0000 30.4158
#
#
#
# Elastic Compliance Matrix: (Units=1/GPa)
#
#
# Indices 1 2 3 4 5 6 
#
# 1 0.009171 -0.003756 -0.002538 0.000000 0.000000 0.000000
# 2 -0.003756 0.011489 -0.002482 0.000000 0.000000 0.000000
# 3 -0.002538 -0.002482 0.017635 0.000000 0.000000 0.000000
# 4 0.000000 0.000000 0.000000 0.029961 0.000000 0.000000
# 5 0.000000 0.000000 0.000000 0.000000 0.032876 0.000000
# 6 0.000000 0.000000 0.000000 0.000000 0.000000 0.032878
#
#
# Mechanical properties :
#
#
# Convention : Reuss Voigt Hill
#
# Bulk Modulus (GPa) = 48.20957 56.63084 52.42021
# Shear Modulus (GPa) = 31.55002 32.79773 32.17387
#
# Velocity S-wave (km/s) = 3.79216 3.86642 3.82947
# Velocity P-wave (km/s) = 6.41466 6.76347 6.59137
#
# Compressibility (1/GPa) = 0.02074277
#
# Stress axis : x y z
#
# Youngs Moduli (GPa) = 109.03608 87.03862 56.70396
#
# Poissons Ratio (x) = 0.32689 0.14393
# Poissons Ratio (y) = 0.40951 0.14077
# Poissons Ratio (z) = 0.27677 0.21607
#
# Static dielectric constant tensor:
#      x y z
#    x 1.828500 0.000000 0.000000 
#    y 0.000000 1.816350 0.000000 
#    z 0.000000 0.000000 1.868630 
# 
# From -- ./inp_files/7394.got.cif
#   From: 2010.05.17/outbox.cif.g08.bks.cpg/sg73_4_cif.got.tgz:7394.got - 2010.06.03 17:35:07.
