data_PCOD9532377
_publ_section_title
;
Structure prediction by ZEFSAII (Michael W. Deem and Ramdas Pophale) SiO2 
 PCOD9532377
Probable space group: I B C A 
;
_chemical_formula_sum "Si O2"
_cell_formula_units_Z 112
_cell_length_a 31.071037
_cell_length_b 12.440766
_cell_length_c 13.155732
_cell_angle_alpha 90.000000
_cell_angle_beta 90.000000
_cell_angle_gamma 90.000000
_cell_volume 5085.315324
_symmetry_space_group_name_H-M "I B C A "
_symmetry_group_IT_number 73
_symmetry_cell_setting 'orthorhombic'
loop_
_space_group_symop_operation_xyz
x,y,z
-x,1/2-y,z
x,-y,1/2-z
1/2-x,y,-z
-x,-y,-z
x,1/2+y,-z
-x,y,1/2+z
1/2+x,-y,z
1/2+x,1/2+y,1/2+z
1/2-x,-y,1/2+z
1/2+x,1/2-y,-z
-x,1/2+y,1/2-z
1/2-x,1/2-y,1/2-z
1/2+x,y,1/2-z
1/2-x,1/2+y,z
x,1/2-y,1/2+z
loop_
_atom_site_type_symbol
_atom_site_label
_atom_site_fract_x
_atom_site_fract_y
_atom_site_fract_z
Si Si1 0.735405 0.684865 0.347747
Si Si2 0.325309 0.568912 0.146081
Si Si3 0.587246 0.047968 0.612826
Si Si4 0.954062 0.855525 0.300570
Si Si5 0.250000 0.152012 0.500000
Si Si6 0.820064 0.494137 0.581754
Si Si7 0.417315 0.861511 0.609181
Si Si8 0.529183 0.000000 0.250000
O O1 0.750000 0.750000 0.250000
O O2 0.780555 0.628874 0.374552
O O3 0.721163 0.771601 0.430804
O O4 0.699422 0.594019 0.354574
O O5 0.322062 0.500000 0.250000
O O6 0.368140 0.641879 0.150367
O O7 0.329038 0.505531 0.039872
O O8 0.579587 0.124281 0.709401
O O9 0.632048 0.983216 0.621988
O O10 0.584779 0.118118 0.511182
O O11 0.552115 0.952886 0.619007
O O12 0.943822 0.744027 0.356049
O O13 0.998644 0.893540 0.245689
O O14 0.219476 0.088387 0.577319
O O15 0.439601 0.967573 0.657636
#
# Coordination Sequence:
#
# PCOD9532377 Si02
#       8
#    16  16  16  16   8  16  16   8
#     4  12  26  38  62  96 128 185 225 273 336 395
#     4  11  22  44  61  95 132 170 230 278 334 404
#     4   9  24  42  66  98 139 181 226 288 338 412
#     4  10  24  45  68 103 135 175 230 273 353 416
#     4  12  22  42  62  86 132 172 230 284 320 400
#     4  11  23  43  61  91 137 176 229 282 339 390
#     4  11  23  42  71 102 135 181 220 284 345 408
#     4  10  22  46  68  98 136 164 220 276 330 422
#
# _framework density 22.0242
#
# number of rings (size 3 to 8) (size 9 to 14) (size 15 to 20)
#    0.000    1.429    3.571    1.286    4.000    4.571 
#    0.000    2.857    0.000    0.000    0.000    0.000 
#    0.000    0.000    0.000    0.000    0.000    0.000 
#
# Total GULP energy -311796.035391 kJ/mol
# GULP energy per Si atom -5567.786346 kJ/mol
# Density = 2.197407 g / cm^3
# Si number density = 22.024200 Si / 1000 Ang^3
#
#
#
# Elastic Constant Matrix: (Units=GPa)
#
#
# Indices 1 2 3 4 5 6 
#
# 1 70.7947 1.2463 -3.4840 0.0000 0.0000 0.0000
# 2 1.2463 74.1441 23.7451 0.0000 0.0000 0.0000
# 3 -3.4840 23.7451 96.9026 0.0000 0.0000 0.0000
# 4 0.0000 0.0000 0.0000 36.3783 0.0000 0.0000
# 5 0.0000 0.0000 0.0000 0.0000 22.7796 0.0000
# 6 0.0000 0.0000 0.0000 0.0000 0.0000 15.0645
#
#
#
# Elastic Compliance Matrix: (Units=1/GPa)
#
#
# Indices 1 2 3 4 5 6 
#
# 1 0.014163 -0.000435 0.000616 0.000000 0.000000 0.000000
# 2 -0.000435 0.014649 -0.003605 0.000000 0.000000 0.000000
# 3 0.000616 -0.003605 0.011225 0.000000 0.000000 0.000000
# 4 0.000000 0.000000 0.000000 0.027489 0.000000 0.000000
# 5 0.000000 0.000000 0.000000 0.000000 0.043899 0.000000
# 6 0.000000 0.000000 0.000000 0.000000 0.000000 0.066381
#
#
# Mechanical properties :
#
#
# Convention : Reuss Voigt Hill
#
# Bulk Modulus (GPa) = 30.13111 31.65069 30.89090
# Shear Modulus (GPa) = 25.54681 29.53341 27.54011
#
# Velocity S-wave (km/s) = 3.40949 3.66587 3.54000
# Velocity P-wave (km/s) = 5.40464 5.68509 5.54664
#
# Compressibility (1/GPa) = 0.03318829
#
# Stress axis : x y z
#
# Youngs Moduli (GPa) = 70.60490 68.26316 89.08503
#
# Poissons Ratio (x) = 0.02972 -0.05487
# Poissons Ratio (y) = 0.03074 0.32118
# Poissons Ratio (z) = -0.04348 0.24611
#
# Static dielectric constant tensor:
#      x y z
#    x 1.860230 0.000000 0.000000 
#    y 0.000000 1.846210 0.000000 
#    z 0.000000 0.000000 1.762590 
# 
# From -- ./inp_files/20075.got.cif
#   From: 2010.05.17/outbox.cif.g08.bks.cpg/sg73_11_cif.got.tgz:20075.got - 2010.06.03 17:35:07.
