data_PCOD9532151
_publ_section_title
;
Structure prediction by ZEFSAII (Michael W. Deem and Ramdas Pophale) SiO2 
 PCOD9532151
Probable space group: I B C A 
;
_chemical_formula_sum "Si O2"
_cell_formula_units_Z 64
_cell_length_a 9.185312
_cell_length_b 11.355022
_cell_length_c 27.229660
_cell_angle_alpha 90.000000
_cell_angle_beta 90.000000
_cell_angle_gamma 90.000000
_cell_volume 2840.037740
_symmetry_space_group_name_H-M "I B C A "
_symmetry_group_IT_number 73
_symmetry_cell_setting 'orthorhombic'
loop_
_space_group_symop_operation_xyz
x,y,z
-x,1/2-y,z
x,-y,1/2-z
1/2-x,y,-z
-x,-y,-z
x,1/2+y,-z
-x,y,1/2+z
1/2+x,-y,z
1/2+x,1/2+y,1/2+z
1/2-x,-y,1/2+z
1/2+x,1/2-y,-z
-x,1/2+y,1/2-z
1/2-x,1/2-y,1/2-z
1/2+x,y,1/2-z
1/2-x,1/2+y,z
x,1/2-y,1/2+z
loop_
_atom_site_type_symbol
_atom_site_label
_atom_site_fract_x
_atom_site_fract_y
_atom_site_fract_z
Si Si1 0.798010 0.447873 0.944171
Si Si2 0.587741 0.082523 0.185595
Si Si3 0.000000 0.750000 0.100988
Si Si4 0.148625 0.000000 0.750000
Si Si5 0.493602 0.113281 0.887071
O O1 0.909943 0.340488 0.932763
O O2 0.650361 0.413290 0.917871
O O3 0.872428 0.560275 0.918308
O O4 0.750000 0.468112 0.000000
O O5 0.592986 0.173247 0.140322
O O6 0.740206 0.062035 0.211978
O O7 0.456467 0.097792 0.224688
O O8 0.532467 0.960671 0.161742
O O9 0.500000 0.250000 0.877713
#
# Coordination Sequence:
#
# PCOD9532151 Si02
#       5
#    16  16   8   8  16
#     4  11  26  46  72 106 143 185 246 288 352 429
#     4  10  22  44  63 102 135 182 233 286 361 413
#     4  10  24  42  74  98 146 184 228 302 356 422
#     4  10  22  42  66  94 140 174 242 292 336 438
#     4  11  26  45  73 101 146 191 229 299 361 421
#
# _framework density 22.534911999999998
#
# number of rings (size 3 to 8) (size 9 to 14) (size 15 to 20)
#    0.000    1.500    0.000    3.750   12.250    2.000 
#    9.000    0.000    0.000    0.000    0.000    0.000 
#    0.000    0.000    0.000    0.000    0.000    0.000 
#
# Total GULP energy -178919.505084 kJ/mol
# GULP energy per Si atom -5591.234534 kJ/mol
# Density = 2.248362 g / cm^3
# Si number density = 22.534912 Si / 1000 Ang^3
#
#
#
# Elastic Constant Matrix: (Units=GPa)
#
#
# Indices 1 2 3 4 5 6 
#
# 1 29.2947 -27.0928 -6.6892 0.0000 0.0000 0.0000
# 2 -27.0928 104.4125 8.7010 0.0000 0.0000 0.0000
# 3 -6.6892 8.7010 75.1675 0.0000 0.0000 0.0000
# 4 0.0000 0.0000 0.0000 -103.5444 0.0000 0.0000
# 5 0.0000 0.0000 0.0000 0.0000 -54.9168 0.0000
# 6 0.0000 0.0000 0.0000 0.0000 0.0000 8.3182
#
#
#
# Elastic Compliance Matrix: (Units=1/GPa)
#
#
# Indices 1 2 3 4 5 6 
#
# 1 0.045453 0.011568 0.002706 0.000000 0.000000 0.000000
# 2 0.011568 0.012615 -0.000431 0.000000 0.000000 0.000000
# 3 0.002706 -0.000431 0.013594 0.000000 0.000000 0.000000
# 4 0.000000 0.000000 0.000000 -0.009658 0.000000 0.000000
# 5 0.000000 0.000000 0.000000 0.000000 -0.018209 0.000000
# 6 0.000000 0.000000 0.000000 0.000000 0.000000 0.120218
#
#
# Mechanical properties :
#
#
# Convention : Reuss Voigt Hill
#
# Bulk Modulus (GPa) = 10.06553 17.63475 13.85014
# Shear Modulus (GPa) = 29.50856 -14.43154 7.53851
#
# Velocity S-wave (km/s) = 3.62257 -2.53337 1.83099
# Velocity P-wave (km/s) = 4.68761 0.84546 3.26028
#
# Compressibility (1/GPa) = 0.09934899
#
# Stress axis : x y z
#
# Youngs Moduli (GPa) = 22.00091 79.27032 73.56035
#
# Poissons Ratio (x) = -0.91704 -0.19904
# Poissons Ratio (y) = -0.25452 0.03169
# Poissons Ratio (z) = -0.05953 0.03415
#
# Static dielectric constant tensor:
#      x y z
#    x 1.837150 0.000000 0.000000 
#    y 0.000000 1.867540 0.000000 
#    z 0.000000 0.000000 4.469900 
# 
# From -- ./inp_files/4030.got.cif
#   From: 2010.05.17/outbox.cif.g08.bks.cpg/sg73_3_cif.got.tgz:4030.got - 2010.06.03 17:35:07.
