data_PCOD9532806
_publ_section_title
;
Structure prediction by ZEFSAII (Michael W. Deem and Ramdas Pophale) SiO2 
 PCOD9532806
Probable space group: I B C A 
;
_chemical_formula_sum "Si O2"
_cell_formula_units_Z 120
_cell_length_a 25.728678
_cell_length_b 8.651344
_cell_length_c 22.364278
_cell_angle_alpha 90.000000
_cell_angle_beta 90.000000
_cell_angle_gamma 90.000000
_cell_volume 4978.011951
_symmetry_space_group_name_H-M "I B C A "
_symmetry_group_IT_number 73
_symmetry_cell_setting 'orthorhombic'
loop_
_space_group_symop_operation_xyz
x,y,z
-x,1/2-y,z
x,-y,1/2-z
1/2-x,y,-z
-x,-y,-z
x,1/2+y,-z
-x,y,1/2+z
1/2+x,-y,z
1/2+x,1/2+y,1/2+z
1/2-x,-y,1/2+z
1/2+x,1/2-y,-z
-x,1/2+y,1/2-z
1/2-x,1/2-y,1/2-z
1/2+x,y,1/2-z
1/2-x,1/2+y,z
x,1/2-y,1/2+z
loop_
_atom_site_type_symbol
_atom_site_label
_atom_site_fract_x
_atom_site_fract_y
_atom_site_fract_z
Si Si1 0.416686 0.133166 0.323603
Si Si2 0.000000 0.750000 0.410216
Si Si3 0.311565 0.241730 0.365272
Si Si4 0.969192 0.401631 0.414418
Si Si5 0.418831 0.723193 0.810912
Si Si6 0.802993 0.760969 0.139312
Si Si7 0.702180 0.506914 0.043159
Si Si8 0.145788 0.518098 0.564982
O O1 0.447532 0.232290 0.371654
O O2 0.355004 0.148570 0.329822
O O3 0.430229 0.202039 0.258899
O O4 0.429682 0.952088 0.334241
O O5 0.993472 0.569393 0.431424
O O6 0.254800 0.235350 0.334597
O O7 0.303718 0.179729 0.432917
O O8 0.340400 0.403088 0.380416
O O9 0.953677 0.351390 0.344936
O O10 0.910773 0.410379 0.437796
O O11 0.000000 0.250000 0.437328
O O12 0.356494 0.750647 0.822887
O O13 0.813344 0.651308 0.082083
O O14 0.795602 0.922584 0.106173
O O15 0.750000 0.478591 0.000000
O O16 0.654652 0.458107 0.001781
#
# Coordination Sequence:
#
# PCOD9532806 Si02
#       8
#    16   8  16  16  16  16  16  16
#     4  11  24  42  68  97 132 178 232 277 342 405
#     4  12  24  44  74 104 124 174 234 294 332 400
#     4  12  22  40  64  99 136 173 225 279 324 413
#     4  11  24  46  72  99 136 175 229 291 344 400
#     4  10  24  43  66  99 132 180 221 277 347 409
#     4  11  22  40  64  96 140 175 218 274 334 403
#     4  12  22  38  67  99 129 179 225 272 331 399
#     4  11  24  38  62 103 132 174 221 276 342 398
#
# _framework density 24.106009
#
# number of rings (size 3 to 8) (size 9 to 14) (size 15 to 20)
#    0.000    0.800    6.667    0.800    0.933    1.067 
#    0.000    0.000    1.467    4.800    0.000    0.000 
#    0.000    0.000    0.000    0.000    0.000    0.000 
#
# Total GULP energy -334224.406404 kJ/mol
# GULP energy per Si atom -5570.406773 kJ/mol
# Density = 2.405114 g / cm^3
# Si number density = 24.106009 Si / 1000 Ang^3
#
#
#
# Elastic Constant Matrix: (Units=GPa)
#
#
# Indices 1 2 3 4 5 6 
#
# 1 131.4954 29.9303 -10.1759 0.0000 0.0000 0.0000
# 2 29.9303 116.0864 12.6123 0.0000 0.0000 0.0000
# 3 -10.1759 12.6123 17.0088 0.0000 0.0000 0.0000
# 4 0.0000 0.0000 0.0000 60.6310 0.0000 0.0000
# 5 0.0000 0.0000 0.0000 0.0000 9.1868 0.0000
# 6 0.0000 0.0000 0.0000 0.0000 0.0000 33.7407
#
#
#
# Elastic Compliance Matrix: (Units=1/GPa)
#
#
# Indices 1 2 3 4 5 6 
#
# 1 0.008909 -0.003128 0.007649 0.000000 0.000000 0.000000
# 2 -0.003128 0.010467 -0.009633 0.000000 0.000000 0.000000
# 3 0.007649 -0.009633 0.070512 0.000000 0.000000 0.000000
# 4 0.000000 0.000000 0.000000 0.016493 0.000000 0.000000
# 5 0.000000 0.000000 0.000000 0.000000 0.108851 0.000000
# 6 0.000000 0.000000 0.000000 0.000000 0.000000 0.029638
#
#
# Mechanical properties :
#
#
# Convention : Reuss Voigt Hill
#
# Bulk Modulus (GPa) = 12.55257 36.59155 24.57206
# Shear Modulus (GPa) = 17.75257 36.19331 26.97294
#
# Velocity S-wave (km/s) = 2.71668 3.87902 3.34867
# Velocity P-wave (km/s) = 3.88060 5.93926 5.01666
#
# Compressibility (1/GPa) = 0.07966497
#
# Stress axis : x y z
#
# Youngs Moduli (GPa) = 112.24915 95.53511 14.18189
#
# Poissons Ratio (x) = 0.29883 -0.10848
# Poissons Ratio (y) = 0.35111 0.13662
# Poissons Ratio (z) = -0.85863 0.92030
#
# Static dielectric constant tensor:
#      x y z
#    x 1.982080 0.000000 0.000000 
#    y 0.000000 2.050400 0.000000 
#    z 0.000000 0.000000 1.928610 
# 
# From -- ./inp_files/30515.got.cif
#   From: 2010.05.17/outbox.cif.g08.bks.cpg/sg73_16_cif.got.tgz:30515.got - 2010.06.03 17:35:07.
