data_PCOD9532226
_publ_section_title
;
Structure prediction by ZEFSAII (Michael W. Deem and Ramdas Pophale) SiO2 
 PCOD9532226
Probable space group: I B C A 
;
_chemical_formula_sum "Si O2"
_cell_formula_units_Z 120
_cell_length_a 24.289722
_cell_length_b 27.303275
_cell_length_c 8.098869
_cell_angle_alpha 90.000000
_cell_angle_beta 90.000000
_cell_angle_gamma 90.000000
_cell_volume 5371.080505
_symmetry_space_group_name_H-M "I B C A "
_symmetry_group_IT_number 73
_symmetry_cell_setting 'orthorhombic'
loop_
_space_group_symop_operation_xyz
x,y,z
-x,1/2-y,z
x,-y,1/2-z
1/2-x,y,-z
-x,-y,-z
x,1/2+y,-z
-x,y,1/2+z
1/2+x,-y,z
1/2+x,1/2+y,1/2+z
1/2-x,-y,1/2+z
1/2+x,1/2-y,-z
-x,1/2+y,1/2-z
1/2-x,1/2-y,1/2-z
1/2+x,y,1/2-z
1/2-x,1/2+y,z
x,1/2-y,1/2+z
loop_
_atom_site_type_symbol
_atom_site_label
_atom_site_fract_x
_atom_site_fract_y
_atom_site_fract_z
Si Si1 0.369656 0.310458 0.640763
Si Si2 0.250000 0.429409 0.000000
Si Si3 0.263830 0.139463 0.193445
Si Si4 0.354581 0.525519 0.407913
Si Si5 0.667190 0.205746 0.265536
Si Si6 0.030211 0.363768 0.480917
Si Si7 0.447883 0.026580 0.080453
Si Si8 0.583764 0.628597 0.846721
O O1 0.329212 0.352249 0.711961
O O2 0.349721 0.304932 0.452718
O O3 0.353426 0.259816 0.725735
O O4 0.433319 0.325199 0.622837
O O5 0.242929 0.397853 0.832513
O O6 0.194851 0.460155 0.025912
O O7 0.231203 0.190080 0.237439
O O8 0.250000 0.127014 0.000000
O O9 0.327579 0.500000 0.250000
O O10 0.395648 0.483825 0.468962
O O11 0.391084 0.574549 0.375745
O O12 0.632891 0.167846 0.152691
O O13 0.040060 0.416756 0.399986
O O14 0.054502 0.367784 0.666141
O O15 0.964732 0.356893 0.472990
O O16 0.436864 0.000000 0.250000
O O17 0.500000 0.000000 0.000000
#
# Coordination Sequence:
#
# PCOD9532226 Si02
#       8
#    16   8  16  16  16  16  16  16
#     4  10  24  40  67 101 138 181 230 298 354 417
#     4  12  28  46  76 102 134 204 224 294 382 410
#     4  10  23  45  73 102 138 181 245 298 346 432
#     4  12  26  48  68 101 142 179 240 294 349 442
#     4  10  22  43  65  97 139 183 228 291 356 420
#     4  11  24  41  67 102 134 181 231 295 356 410
#     4  12  24  41  71 102 134 182 233 285 354 427
#     4  11  23  43  68  96 136 181 231 292 348 424
#
# _framework density 22.341873
#
# number of rings (size 3 to 8) (size 9 to 14) (size 15 to 20)
#    0.000    1.067    4.000    1.600    3.733    2.133 
#    1.200    2.667    0.000    0.000    0.000    0.000 
#    0.000    0.000    0.000    0.000    0.000    0.000 
#
# Total GULP energy -335269.754760 kJ/mol
# GULP energy per Si atom -5587.829246 kJ/mol
# Density = 2.229102 g / cm^3
# Si number density = 22.341873 Si / 1000 Ang^3
#
#
#
# Elastic Constant Matrix: (Units=GPa)
#
#
# Indices 1 2 3 4 5 6 
#
# 1 103.8926 6.3039 7.4018 0.0000 0.0000 0.0000
# 2 6.3039 34.7989 0.4093 0.0000 0.0000 0.0000
# 3 7.4018 0.4093 33.8085 0.0000 0.0000 0.0000
# 4 0.0000 0.0000 0.0000 20.8824 0.0000 0.0000
# 5 0.0000 0.0000 0.0000 0.0000 28.7699 0.0000
# 6 0.0000 0.0000 0.0000 0.0000 0.0000 20.6186
#
#
#
# Elastic Compliance Matrix: (Units=1/GPa)
#
#
# Indices 1 2 3 4 5 6 
#
# 1 0.009885 -0.001766 -0.002143 0.000000 0.000000 0.000000
# 2 -0.001766 0.029056 0.000035 0.000000 0.000000 0.000000
# 3 -0.002143 0.000035 0.030047 0.000000 0.000000 0.000000
# 4 0.000000 0.000000 0.000000 0.047887 0.000000 0.000000
# 5 0.000000 0.000000 0.000000 0.000000 0.034759 0.000000
# 6 0.000000 0.000000 0.000000 0.000000 0.000000 0.048500
#
#
# Mechanical properties :
#
#
# Convention : Reuss Voigt Hill
#
# Bulk Modulus (GPa) = 16.32894 22.30334 19.31614
# Shear Modulus (GPa) = 21.90155 24.61320 23.25737
#
# Velocity S-wave (km/s) = 3.13436 3.32273 3.22992
# Velocity P-wave (km/s) = 4.51923 4.97244 4.75124
#
# Compressibility (1/GPa) = 0.06124098
#
# Stress axis : x y z
#
# Youngs Moduli (GPa) = 101.16219 34.41637 33.28117
#
# Poissons Ratio (x) = 0.06076 0.07131
# Poissons Ratio (y) = 0.17860 -0.00116
# Poissons Ratio (z) = 0.21677 -0.00120
#
# Static dielectric constant tensor:
#      x y z
#    x 1.839940 0.000000 0.000000 
#    y 0.000000 1.798990 0.000000 
#    z 0.000000 0.000000 1.863130 
# 
# From -- ./inp_files/7403.got.cif
#   From: 2010.05.17/outbox.cif.g08.bks.cpg/sg73_4_cif.got.tgz:7403.got - 2010.06.03 17:35:07.
