data_PCOD9532174
_publ_section_title
;
Structure prediction by ZEFSAII (Michael W. Deem and Ramdas Pophale) SiO2 
 PCOD9532174
Probable space group: I B C A 
;
_chemical_formula_sum "Si O2"
_cell_formula_units_Z 88
_cell_length_a 22.981544
_cell_length_b 19.310211
_cell_length_c 9.300529
_cell_angle_alpha 90.000000
_cell_angle_beta 90.000000
_cell_angle_gamma 90.000000
_cell_volume 4127.374472
_symmetry_space_group_name_H-M "I B C A "
_symmetry_group_IT_number 73
_symmetry_cell_setting 'orthorhombic'
loop_
_space_group_symop_operation_xyz
x,y,z
-x,1/2-y,z
x,-y,1/2-z
1/2-x,y,-z
-x,-y,-z
x,1/2+y,-z
-x,y,1/2+z
1/2+x,-y,z
1/2+x,1/2+y,1/2+z
1/2-x,-y,1/2+z
1/2+x,1/2-y,-z
-x,1/2+y,1/2-z
1/2-x,1/2-y,1/2-z
1/2+x,y,1/2-z
1/2-x,1/2+y,z
x,1/2-y,1/2+z
loop_
_atom_site_type_symbol
_atom_site_label
_atom_site_fract_x
_atom_site_fract_y
_atom_site_fract_z
Si Si1 0.705366 0.720886 0.109797
Si Si2 0.457639 0.637792 0.297032
Si Si3 0.750000 0.091200 0.000000
Si Si4 0.127130 0.248680 0.870842
Si Si5 0.573319 0.890382 0.966913
Si Si6 0.369593 0.974847 0.913445
O O1 0.735206 0.646084 0.128095
O O2 0.677942 0.753776 0.250632
O O3 0.750000 0.760079 0.000000
O O4 0.649286 0.710594 0.009800
O O5 0.432449 0.715098 0.321696
O O6 0.521030 0.618241 0.354206
O O7 0.414798 0.587353 0.386823
O O8 0.451130 0.625102 0.126970
O O9 0.807540 0.048542 0.972243
O O10 0.117907 0.169774 0.919439
O O11 0.602623 0.965328 0.986869
O O12 0.359723 0.000000 0.750000
#
# Coordination Sequence:
#
# PCOD9532174 Si02
#       6
#    16  16   8  16  16  16
#     4  10  23  40  68  95 137 176 220 275 338 404
#     4  11  23  44  66  94 138 182 226 292 349 415
#     4  10  22  42  68  94 134 184 224 292 338 414
#     4  12  22  42  66 103 137 172 228 280 343 415
#     4  11  26  40  69 100 134 182 232 285 349 418
#     4  10  23  45  64  95 135 181 232 287 348 417
#
# _framework density 21.321059000000002
#
# number of rings (size 3 to 8) (size 9 to 14) (size 15 to 20)
#    0.545    0.727    3.636    1.636    2.545    2.909 
#    1.636    1.818    0.000    0.000    0.000    0.000 
#    0.000    0.000    0.000    0.000    0.000    0.000 
#
# Total GULP energy -245287.632876 kJ/mol
# GULP energy per Si atom -5574.718929 kJ/mol
# Density = 2.127253 g / cm^3
# Si number density = 21.321059 Si / 1000 Ang^3
#
#
#
# Elastic Constant Matrix: (Units=GPa)
#
#
# Indices 1 2 3 4 5 6 
#
# 1 95.3482 34.6235 36.8474 0.0000 0.0000 0.0000
# 2 34.6235 90.5567 28.6680 0.0000 0.0000 0.0000
# 3 36.8474 28.6680 74.8374 0.0000 0.0000 0.0000
# 4 0.0000 0.0000 0.0000 23.1658 0.0000 0.0000
# 5 0.0000 0.0000 0.0000 0.0000 32.1862 0.0000
# 6 0.0000 0.0000 0.0000 0.0000 0.0000 -36.5085
#
#
#
# Elastic Compliance Matrix: (Units=1/GPa)
#
#
# Indices 1 2 3 4 5 6 
#
# 1 0.013904 -0.003583 -0.005473 0.000000 0.000000 0.000000
# 2 -0.003583 0.013490 -0.003403 0.000000 0.000000 0.000000
# 3 -0.005473 -0.003403 0.017361 0.000000 0.000000 0.000000
# 4 0.000000 0.000000 0.000000 0.043167 0.000000 0.000000
# 5 0.000000 0.000000 0.000000 0.000000 0.031069 0.000000
# 6 0.000000 0.000000 0.000000 0.000000 0.000000 -0.027391
#
#
# Mechanical properties :
#
#
# Convention : Reuss Voigt Hill
#
# Bulk Modulus (GPa) = 50.41525 51.22447 50.81986
# Shear Modulus (GPa) = 40.60649 14.47558 27.54103
#
# Velocity S-wave (km/s) = 4.36882 2.60846 3.59796
# Velocity P-wave (km/s) = 7.01041 5.75756 6.41465
#
# Compressibility (1/GPa) = 0.01983527
#
# Stress axis : x y z
#
# Youngs Moduli (GPa) = 71.92033 74.12718 57.60071
#
# Poissons Ratio (x) = 0.26563 0.31526
# Poissons Ratio (y) = 0.25772 0.19604
# Poissons Ratio (z) = 0.39364 0.25228
#
# Static dielectric constant tensor:
#      x y z
#    x 1.798410 0.000000 0.000000 
#    y 0.000000 1.800640 0.000000 
#    z 0.000000 0.000000 1.785980 
# 
# From -- ./inp_files/7067.got.cif
#   From: 2010.05.17/outbox.cif.g08.bks.cpg/sg73_4_cif.got.tgz:7067.got - 2010.06.03 17:35:07.
