data_PCOD9532994
_publ_section_title
;
Structure prediction by ZEFSAII (Michael W. Deem and Ramdas Pophale) SiO2 
 PCOD9532994
Probable space group: I B C A 
;
_chemical_formula_sum "Si O2"
_cell_formula_units_Z 72
_cell_length_a 12.745042
_cell_length_b 27.784949
_cell_length_c 9.159389
_cell_angle_alpha 90.000000
_cell_angle_beta 90.000000
_cell_angle_gamma 90.000000
_cell_volume 3243.525965
_symmetry_space_group_name_H-M "I B C A "
_symmetry_group_IT_number 73
_symmetry_cell_setting 'orthorhombic'
loop_
_space_group_symop_operation_xyz
x,y,z
-x,1/2-y,z
x,-y,1/2-z
1/2-x,y,-z
-x,-y,-z
x,1/2+y,-z
-x,y,1/2+z
1/2+x,-y,z
1/2+x,1/2+y,1/2+z
1/2-x,-y,1/2+z
1/2+x,1/2-y,-z
-x,1/2+y,1/2-z
1/2-x,1/2-y,1/2-z
1/2+x,y,1/2-z
1/2-x,1/2+y,z
x,1/2-y,1/2+z
loop_
_atom_site_type_symbol
_atom_site_label
_atom_site_fract_x
_atom_site_fract_y
_atom_site_fract_z
Si Si1 0.250000 0.734197 0.000000
Si Si2 0.601572 0.784900 0.259342
Si Si3 0.793176 0.448930 0.835024
Si Si4 0.473769 0.463827 0.125136
Si Si5 0.670698 0.120245 0.125294
O O1 0.321317 0.761990 0.881292
O O2 0.164125 0.709693 0.893712
O O3 0.500000 0.750000 0.244258
O O4 0.590571 0.839031 0.319667
O O5 0.783648 0.500000 0.750000
O O6 0.917608 0.438890 0.830870
O O7 0.734315 0.404637 0.757457
O O8 0.750000 0.454304 0.000000
O O9 0.434290 0.500000 0.250000
O O10 0.393531 0.424990 0.066619
O O11 0.500000 0.500000 0.000000
O O12 0.750000 0.138011 0.000000
#
# Coordination Sequence:
#
# PCOD9532994 Si02
#       5
#     8  16  16  16  16
#     4  10  24  50  74 102 144 180 242 304 386 442
#     4  11  25  49  76 106 144 188 240 312 378 446
#     4  11  23  42  67 100 148 194 239 295 352 424
#     4  11  23  41  64 103 145 187 233 287 347 416
#     4  12  25  44  72 104 141 190 243 295 363 437
#
# _framework density 22.198063999999999
#
# number of rings (size 3 to 8) (size 9 to 14) (size 15 to 20)
#    0.000    0.889    1.111    7.333    1.556    3.556 
#   16.000    0.000    0.000    0.000    0.000    0.000 
#    0.000    0.000    0.000    0.000    0.000    0.000 
#
# Total GULP energy -200968.731883 kJ/mol
# GULP energy per Si atom -5582.464775 kJ/mol
# Density = 2.214754 g / cm^3
# Si number density = 22.198064 Si / 1000 Ang^3
#
#
#
# Elastic Constant Matrix: (Units=GPa)
#
#
# Indices 1 2 3 4 5 6 
#
# 1 107.7350 33.9049 6.5781 -0.0001 0.0000 -0.0003
# 2 33.9049 103.4637 27.2783 -0.0008 0.0000 0.0003
# 3 6.5781 27.2783 124.5870 -0.0021 -0.0004 -0.0002
# 4 -0.0001 -0.0008 -0.0021 3.8577 0.0001 0.0012
# 5 0.0000 0.0000 -0.0004 0.0001 30.5213 0.0004
# 6 -0.0003 0.0003 -0.0002 0.0012 0.0004 42.2950
#
#
#
# Elastic Compliance Matrix: (Units=1/GPa)
#
#
# Indices 1 2 3 4 5 6 
#
# 1 0.010354 -0.003448 0.000208 0.000000 0.000000 0.000000
# 2 -0.003448 0.011406 -0.002315 0.000001 0.000000 0.000000
# 3 0.000208 -0.002315 0.008522 0.000004 0.000000 0.000000
# 4 0.000000 0.000001 0.000004 0.259223 -0.000001 -0.000008
# 5 0.000000 0.000000 0.000000 -0.000001 0.032764 0.000000
# 6 0.000000 0.000000 0.000000 -0.000008 0.000000 0.023643
#
#
# Mechanical properties :
#
#
# Convention : Reuss Voigt Hill
#
# Bulk Modulus (GPa) = 52.15817 52.36758 52.26287
# Shear Modulus (GPa) = 13.75842 33.20311 23.48077
#
# Velocity S-wave (km/s) = 2.49228 3.87171 3.25589
# Velocity P-wave (km/s) = 5.64178 6.60523 6.14243
#
# Compressibility (1/GPa) = 0.01917245
#
# Stress axis : x y z
#
# Youngs Moduli (GPa) = 96.57696 87.67667 117.33741
#
# Poissons Ratio (x) = 0.30231 -0.02443
# Poissons Ratio (y) = 0.33300 0.27166
# Poissons Ratio (z) = -0.02011 0.20299
#
# Static dielectric constant tensor:
#      x y z
#    x 1.820430 0.000000 0.000000 
#    y 0.000000 1.782160 0.000000 
#    z 0.000000 0.000000 1.897280 
# 
# From -- ./inp_files/4781.got.cif
#   From: 2010.05.17/outbox.cif.g08.bks.cpg/sg73_3_cif.got.tgz:4781.got - 2010.06.03 17:35:07.
