data_PCOD9532200
_publ_section_title
;
Structure prediction by ZEFSAII (Michael W. Deem and Ramdas Pophale) SiO2 
 PCOD9532200
Probable space group: I B C A 
;
_chemical_formula_sum "Si O2"
_cell_formula_units_Z 112
_cell_length_a 30.749407
_cell_length_b 14.351662
_cell_length_c 10.944586
_cell_angle_alpha 90.000000
_cell_angle_beta 90.000000
_cell_angle_gamma 90.000000
_cell_volume 4829.901575
_symmetry_space_group_name_H-M "I B C A "
_symmetry_group_IT_number 73
_symmetry_cell_setting 'orthorhombic'
loop_
_space_group_symop_operation_xyz
x,y,z
-x,1/2-y,z
x,-y,1/2-z
1/2-x,y,-z
-x,-y,-z
x,1/2+y,-z
-x,y,1/2+z
1/2+x,-y,z
1/2+x,1/2+y,1/2+z
1/2-x,-y,1/2+z
1/2+x,1/2-y,-z
-x,1/2+y,1/2-z
1/2-x,1/2-y,1/2-z
1/2+x,y,1/2-z
1/2-x,1/2+y,z
x,1/2-y,1/2+z
loop_
_atom_site_type_symbol
_atom_site_label
_atom_site_fract_x
_atom_site_fract_y
_atom_site_fract_z
Si Si1 0.979678 0.379557 0.618348
Si Si2 0.027054 0.104369 0.876969
Si Si3 0.885360 0.802746 0.444487
Si Si4 0.227116 0.644553 0.629846
Si Si5 0.188317 0.335625 0.257338
Si Si6 0.121069 0.391153 0.447672
Si Si7 0.361793 0.947308 0.875798
O O1 0.996286 0.359298 0.755117
O O2 0.976788 0.492282 0.616598
O O3 0.932507 0.334623 0.599691
O O4 0.009616 0.355199 0.503607
O O5 0.078267 0.122182 0.866903
O O6 0.846055 0.832686 0.354827
O O7 0.880127 0.692461 0.456061
O O8 0.879800 0.846733 0.581303
O O9 0.250000 0.669565 0.500000
O O10 0.203305 0.733540 0.693024
O O11 0.267382 0.617050 0.714468
O O12 0.190175 0.566627 0.617286
O O13 0.163774 0.385562 0.366851
O O14 0.119854 0.487403 0.518012
O O15 0.373053 0.000000 0.750000
#
# Coordination Sequence:
#
# PCOD9532200 Si02
#       7
#    16  16  16  16  16  16  16
#     4  10  22  44  70 102 145 181 238 305 368 438
#     4  10  22  42  71 105 137 187 240 297 366 440
#     4  12  24  47  72 101 147 188 236 309 364 437
#     4  11  23  45  71 107 148 191 242 300 372 424
#     4  11  23  44  76 101 144 190 240 303 357 438
#     4  12  25  43  75 106 137 196 243 291 370 438
#     4  12  27  44  67 106 146 189 245 298 365 439
#
# _framework density 23.188879
#
# number of rings (size 3 to 8) (size 9 to 14) (size 15 to 20)
#    0.000    0.857    5.714    0.857    0.000    4.571 
#    0.000    1.429    0.000    0.000    0.000    0.000 
#    0.000    0.000    0.000    0.000    0.000    0.000 
#
# Total GULP energy -313047.383799 kJ/mol
# GULP energy per Si atom -5590.131854 kJ/mol
# Density = 2.313610 g / cm^3
# Si number density = 23.188879 Si / 1000 Ang^3
#
#
#
# Elastic Constant Matrix: (Units=GPa)
#
#
# Indices 1 2 3 4 5 6 
#
# 1 70.0789 -0.6361 44.5731 0.0000 0.0000 0.0000
# 2 -0.6361 56.6076 -1.9499 0.0000 0.0000 0.0000
# 3 44.5731 -1.9499 120.2282 0.0000 0.0000 0.0000
# 4 0.0000 0.0000 0.0000 -5.0549 0.0000 0.0000
# 5 0.0000 0.0000 0.0000 0.0000 38.1061 0.0000
# 6 0.0000 0.0000 0.0000 0.0000 0.0000 29.2330
#
#
#
# Elastic Compliance Matrix: (Units=1/GPa)
#
#
# Indices 1 2 3 4 5 6 
#
# 1 0.018673 -0.000029 -0.006923 0.000000 0.000000 0.000000
# 2 -0.000029 0.017675 0.000297 0.000000 0.000000 0.000000
# 3 -0.006923 0.000297 0.010889 0.000000 0.000000 0.000000
# 4 0.000000 0.000000 0.000000 -0.197828 0.000000 0.000000
# 5 0.000000 0.000000 0.000000 0.000000 0.026243 0.000000
# 6 0.000000 0.000000 0.000000 0.000000 0.000000 0.034208
#
#
# Mechanical properties :
#
#
# Convention : Reuss Voigt Hill
#
# Bulk Modulus (GPa) = 29.47404 36.76543 33.11974
# Shear Modulus (GPa) = -76.30993 26.11869 -25.09562
#
# Velocity S-wave (km/s) = -5.74277 3.35975 -3.29329
# Velocity P-wave (km/s) = 5.58879 5.56235 0.38394
#
# Compressibility (1/GPa) = 0.03392816
#
# Stress axis : x y z
#
# Youngs Moduli (GPa) = 53.55387 56.57581 91.83566
#
# Poissons Ratio (x) = 0.00162 0.63579
# Poissons Ratio (y) = 0.00153 -0.02730
# Poissons Ratio (z) = 0.37076 -0.01682
#
# Static dielectric constant tensor:
#      x y z
#    x 1.827900 0.000000 0.000000 
#    y 0.000000 1.691540 0.000000 
#    z 0.000000 0.000000 1.902410 
# 
# From -- ./inp_files/14803.got.cif
#   From: 2010.05.17/outbox.cif.g08.bks.cpg/sg73_8_cif.got.tgz:14803.got - 2010.06.03 17:35:07.
