data_PCOD9532430
_publ_section_title
;
Structure prediction by ZEFSAII (Michael W. Deem and Ramdas Pophale) SiO2 
 PCOD9532430
Probable space group: I B C A 
;
_chemical_formula_sum "Si O2"
_cell_formula_units_Z 120
_cell_length_a 26.067314
_cell_length_b 10.132840
_cell_length_c 23.921291
_cell_angle_alpha 90.000000
_cell_angle_beta 90.000000
_cell_angle_gamma 90.000000
_cell_volume 6318.472254
_symmetry_space_group_name_H-M "I B C A "
_symmetry_group_IT_number 73
_symmetry_cell_setting 'orthorhombic'
loop_
_space_group_symop_operation_xyz
x,y,z
-x,1/2-y,z
x,-y,1/2-z
1/2-x,y,-z
-x,-y,-z
x,1/2+y,-z
-x,y,1/2+z
1/2+x,-y,z
1/2+x,1/2+y,1/2+z
1/2-x,-y,1/2+z
1/2+x,1/2-y,-z
-x,1/2+y,1/2-z
1/2-x,1/2-y,1/2-z
1/2+x,y,1/2-z
1/2-x,1/2+y,z
x,1/2-y,1/2+z
loop_
_atom_site_type_symbol
_atom_site_label
_atom_site_fract_x
_atom_site_fract_y
_atom_site_fract_z
Si Si1 0.387926 0.774786 0.936407
Si Si2 0.709205 0.855947 0.371506
Si Si3 0.877373 0.500000 0.750000
Si Si4 0.474627 0.500085 0.437012
Si Si5 0.799192 0.354936 0.134502
Si Si6 0.895798 0.768550 0.932585
Si Si7 0.311468 0.733858 0.252868
Si Si8 0.421408 0.009107 0.126138
O O1 0.333228 0.832275 0.918255
O O2 0.433608 0.881778 0.929902
O O3 0.396761 0.640683 0.901116
O O4 0.387783 0.744844 0.001706
O O5 0.757175 0.758287 0.374436
O O6 0.679939 0.832066 0.312596
O O7 0.728100 0.005355 0.372259
O O8 0.840910 0.371745 0.749830
O O9 0.909530 0.502851 0.692239
O O10 0.500000 0.500000 0.500000
O O11 0.445263 0.362544 0.426597
O O12 0.519386 0.516828 0.391939
O O13 0.846328 0.338674 0.093171
O O14 0.822878 0.345734 0.196769
O O15 0.901610 0.626056 0.903101
O O16 0.250000 0.750000 0.250000
#
# Coordination Sequence:
#
# PCOD9532430 Si02
#       8
#    16  16   8  16  16  16  16  16
#     4  12  24  43  69 103 133 177 233 288 335 413
#     4  11  25  43  67  99 137 180 226 282 350 414
#     4  12  24  46  62 108 140 186 224 286 352 418
#     4  12  24  46  70 100 134 178 244 283 336 405
#     4  11  25  43  67  99 137 180 226 282 350 414
#     4  12  24  43  69 103 133 177 233 288 335 413
#     4  10  23  38  69  91 130 175 237 274 331 404
#     4  12  26  42  71  97 142 180 227 286 350 402
#
# _framework density 18.991931999999998
#
# number of rings (size 3 to 8) (size 9 to 14) (size 15 to 20)
#    0.000    0.533    6.667    1.200    9.333    0.533 
#    0.000    5.333    0.000    0.000    0.000    0.000 
#    0.000    0.000    0.000    0.000    0.000    0.000 
#
# Total GULP energy -335199.654809 kJ/mol
# GULP energy per Si atom -5586.660913 kJ/mol
# Density = 1.894871 g / cm^3
# Si number density = 18.991932 Si / 1000 Ang^3
#
#
#
# Elastic Constant Matrix: (Units=GPa)
#
#
# Indices 1 2 3 4 5 6 
#
# 1 59.4150 1.0306 20.5985 0.0000 0.0000 0.0000
# 2 1.0306 90.7266 0.3522 0.0000 0.0000 0.0000
# 3 20.5985 0.3522 104.9305 0.0000 0.0000 0.0000
# 4 0.0000 0.0000 0.0000 24.2975 0.0000 0.0000
# 5 0.0000 0.0000 0.0000 0.0000 28.5556 0.0000
# 6 0.0000 0.0000 0.0000 0.0000 0.0000 42.2606
#
#
#
# Elastic Compliance Matrix: (Units=1/GPa)
#
#
# Indices 1 2 3 4 5 6 
#
# 1 0.018063 -0.000191 -0.003545 0.000000 0.000000 0.000000
# 2 -0.000191 0.011024 0.000001 0.000000 0.000000 0.000000
# 3 -0.003545 0.000001 0.010226 0.000000 0.000000 0.000000
# 4 0.000000 0.000000 0.000000 0.041156 0.000000 0.000000
# 5 0.000000 0.000000 0.000000 0.000000 0.035019 0.000000
# 6 0.000000 0.000000 0.000000 0.000000 0.000000 0.023663
#
#
# Mechanical properties :
#
#
# Convention : Reuss Voigt Hill
#
# Bulk Modulus (GPa) = 31.40572 33.22606 32.31589
# Shear Modulus (GPa) = 31.79891 34.56214 33.18052
#
# Velocity S-wave (km/s) = 4.09631 4.27058 4.18435
# Velocity P-wave (km/s) = 6.24061 6.46915 6.35591
#
# Compressibility (1/GPa) = 0.03184133
#
# Stress axis : x y z
#
# Youngs Moduli (GPa) = 55.36117 90.70876 97.78920
#
# Poissons Ratio (x) = 0.01736 0.34669
# Poissons Ratio (y) = 0.01060 -0.00006
# Poissons Ratio (z) = 0.19627 -0.00005
#
# Static dielectric constant tensor:
#      x y z
#    x 1.697570 0.000000 0.000000 
#    y 0.000000 1.687630 0.000000 
#    z 0.000000 0.000000 1.676990 
# 
# From -- ./inp_files/8055.got.cif
#   From: 2010.05.17/outbox.cif.g08.bks.cpg/sg73_5_cif.got.tgz:8055.got - 2010.06.03 17:35:07.
