data_PCOD9532473
_publ_section_title
;
Structure prediction by ZEFSAII (Michael W. Deem and Ramdas Pophale) SiO2 
 PCOD9532473
Probable space group: I B C A 
;
_chemical_formula_sum "Si O2"
_cell_formula_units_Z 80
_cell_length_a 21.251773
_cell_length_b 7.971667
_cell_length_c 20.145853
_cell_angle_alpha 90.000000
_cell_angle_beta 90.000000
_cell_angle_gamma 90.000000
_cell_volume 3412.950407
_symmetry_space_group_name_H-M "I B C A "
_symmetry_group_IT_number 73
_symmetry_cell_setting 'orthorhombic'
loop_
_space_group_symop_operation_xyz
x,y,z
-x,1/2-y,z
x,-y,1/2-z
1/2-x,y,-z
-x,-y,-z
x,1/2+y,-z
-x,y,1/2+z
1/2+x,-y,z
1/2+x,1/2+y,1/2+z
1/2-x,-y,1/2+z
1/2+x,1/2-y,-z
-x,1/2+y,1/2-z
1/2-x,1/2-y,1/2-z
1/2+x,y,1/2-z
1/2-x,1/2+y,z
x,1/2-y,1/2+z
loop_
_atom_site_type_symbol
_atom_site_label
_atom_site_fract_x
_atom_site_fract_y
_atom_site_fract_z
Si Si1 0.123242 0.323330 0.672064
Si Si2 0.515053 0.000000 0.250000
Si Si3 0.684160 0.502555 0.367923
Si Si4 0.222498 0.000000 0.250000
Si Si5 0.134043 0.662073 0.590009
Si Si6 0.000000 0.250000 0.864808
Si Si7 0.250000 0.898884 0.000000
O O1 0.059837 0.365720 0.711573
O O2 0.132072 0.143812 0.638150
O O3 0.176874 0.351793 0.727044
O O4 0.135245 0.474870 0.620012
O O5 0.484458 0.901064 0.312140
O O6 0.733779 0.463760 0.311471
O O7 0.658299 0.689354 0.362327
O O8 0.723423 0.491325 0.435741
O O9 0.059450 0.703991 0.588775
O O10 0.183141 0.675388 0.528620
#
# Coordination Sequence:
#
# PCOD9532473 Si02
#       7
#    16   8  16   8  16   8   8
#     4  10  23  41  62 103 142 176 236 306 358 436
#     4   9  22  39  70  96 142 185 237 298 374 432
#     4  12  26  39  71  98 142 185 239 299 381 422
#     4  11  22  37  62 104 138 177 231 310 374 424
#     4  11  26  45  70 101 140 190 243 298 362 437
#     4  10  24  46  68 104 148 192 242 302 360 448
#     4  12  26  48  70 108 142 198 248 310 362 436
#
# _framework density 23.440128999999999
#
# number of rings (size 3 to 8) (size 9 to 14) (size 15 to 20)
#    0.000    1.200    2.000    2.400   14.000    0.000 
#    0.000    1.000    0.000    0.000    0.000    0.000 
#    0.000    0.000    0.000    0.000    0.000    0.000 
#
# Total GULP energy -223067.001825 kJ/mol
# GULP energy per Si atom -5576.675046 kJ/mol
# Density = 2.338678 g / cm^3
# Si number density = 23.440129 Si / 1000 Ang^3
#
#
#
# Elastic Constant Matrix: (Units=GPa)
#
#
# Indices 1 2 3 4 5 6 
#
# 1 133.0433 29.0807 55.1382 0.0000 0.0000 0.0000
# 2 29.0807 90.3502 25.1724 0.0000 0.0000 0.0000
# 3 55.1382 25.1724 109.8523 0.0000 0.0000 0.0000
# 4 0.0000 0.0000 0.0000 18.0771 0.0000 0.0000
# 5 0.0000 0.0000 0.0000 0.0000 32.5657 0.0000
# 6 0.0000 0.0000 0.0000 0.0000 0.0000 22.6825
#
#
#
# Elastic Compliance Matrix: (Units=1/GPa)
#
#
# Indices 1 2 3 4 5 6 
#
# 1 0.009788 -0.001903 -0.004477 0.000000 0.000000 0.000000
# 2 -0.001903 0.012193 -0.001839 0.000000 0.000000 0.000000
# 3 -0.004477 -0.001839 0.011771 0.000000 0.000000 0.000000
# 4 0.000000 0.000000 0.000000 0.055319 0.000000 0.000000
# 5 0.000000 0.000000 0.000000 0.000000 0.030707 0.000000
# 6 0.000000 0.000000 0.000000 0.000000 0.000000 0.044087
#
#
# Mechanical properties :
#
#
# Convention : Reuss Voigt Hill
#
# Bulk Modulus (GPa) = 57.75334 61.33650 59.54492
# Shear Modulus (GPa) = 26.87119 29.58871 28.22995
#
# Velocity S-wave (km/s) = 3.38949 3.55675 3.47413
# Velocity P-wave (km/s) = 6.32537 6.56441 6.44600
#
# Compressibility (1/GPa) = 0.01731502
#
# Stress axis : x y z
#
# Youngs Moduli (GPa) = 102.17012 82.01509 84.95154
#
# Poissons Ratio (x) = 0.15608 0.38029
# Poissons Ratio (y) = 0.19444 0.15621
# Poissons Ratio (z) = 0.45738 0.15081
#
# Static dielectric constant tensor:
#      x y z
#    x 1.927010 0.000000 0.000000 
#    y 0.000000 1.956270 0.000000 
#    z 0.000000 0.000000 1.886590 
# 
# From -- ./inp_files/30049.got.cif
#   From: 2010.05.17/outbox.cif.g08.bks.cpg/sg73_16_cif.got.tgz:30049.got - 2010.06.03 17:35:07.
