data_PCOD9532055
_publ_section_title
;
Structure prediction by ZEFSAII (Michael W. Deem and Ramdas Pophale) SiO2 
 PCOD9532055
Probable space group: I B C A 
;
_chemical_formula_sum "Si O2"
_cell_formula_units_Z 64
_cell_length_a 14.378574
_cell_length_b 13.580159
_cell_length_c 14.244036
_cell_angle_alpha 90.000000
_cell_angle_beta 90.000000
_cell_angle_gamma 90.000000
_cell_volume 2781.337775
_symmetry_space_group_name_H-M "I B C A "
_symmetry_group_IT_number 73
_symmetry_cell_setting 'orthorhombic'
loop_
_space_group_symop_operation_xyz
x,y,z
-x,1/2-y,z
x,-y,1/2-z
1/2-x,y,-z
-x,-y,-z
x,1/2+y,-z
-x,y,1/2+z
1/2+x,-y,z
1/2+x,1/2+y,1/2+z
1/2-x,-y,1/2+z
1/2+x,1/2-y,-z
-x,1/2+y,1/2-z
1/2-x,1/2-y,1/2-z
1/2+x,y,1/2-z
1/2-x,1/2+y,z
x,1/2-y,1/2+z
loop_
_atom_site_type_symbol
_atom_site_label
_atom_site_fract_x
_atom_site_fract_y
_atom_site_fract_z
Si Si1 0.206308 0.600178 0.293554
Si Si2 0.117078 0.812019 0.296386
Si Si3 0.358091 0.848599 0.499212
Si Si4 0.500000 0.750000 0.357634
Si Si5 0.750000 0.538254 0.000000
O O1 0.164685 0.500000 0.250000
O O2 0.143219 0.696631 0.291014
O O3 0.291531 0.624566 0.223987
O O4 0.245905 0.591590 0.399785
O O5 0.090316 0.831550 0.402604
O O6 0.046211 0.829121 0.212421
O O7 0.250000 0.809157 0.500000
O O8 0.419219 0.798243 0.419900
O O9 0.338764 0.964978 0.491910
#
# Coordination Sequence:
#
# PCOD9532055 Si02
#       5
#    16  16  16   8   8
#     4  11  21  43  70  99 135 179 239 290 353 435
#     4  11  24  40  68 100 134 188 230 297 362 413
#     4  10  22  45  70 101 139 186 246 286 362 436
#     4  12  24  42  68 104 146 184 242 300 356 440
#     4  10  22  40  76 100 134 192 238 294 360 428
#
# _framework density 23.010508999999999
#
# number of rings (size 3 to 8) (size 9 to 14) (size 15 to 20)
#    0.750    0.500    2.500    5.250    5.250    0.000 
#    0.000    5.000    0.000    0.000    0.000    0.000 
#    0.000    0.000    0.000    0.000    0.000    0.000 
#
# Total GULP energy -178712.810631 kJ/mol
# GULP energy per Si atom -5584.775332 kJ/mol
# Density = 2.295814 g / cm^3
# Si number density = 23.010509 Si / 1000 Ang^3
#
#
#
# Elastic Constant Matrix: (Units=GPa)
#
#
# Indices 1 2 3 4 5 6 
#
# 1 74.4738 5.9180 30.8904 0.0000 0.0000 0.0000
# 2 5.9180 62.2917 18.6048 0.0000 0.0000 0.0000
# 3 30.8904 18.6048 182.7668 0.0000 0.0000 0.0000
# 4 0.0000 0.0000 0.0000 28.4868 0.0000 0.0000
# 5 0.0000 0.0000 0.0000 0.0000 22.2326 0.0000
# 6 0.0000 0.0000 0.0000 0.0000 0.0000 1.7338
#
#
#
# Elastic Compliance Matrix: (Units=1/GPa)
#
#
# Indices 1 2 3 4 5 6 
#
# 1 0.014466 -0.000664 -0.002377 0.000000 0.000000 0.000000
# 2 -0.000664 0.016587 -0.001576 0.000000 0.000000 0.000000
# 3 -0.002377 -0.001576 0.006034 0.000000 0.000000 0.000000
# 4 0.000000 0.000000 0.000000 0.035104 0.000000 0.000000
# 5 0.000000 0.000000 0.000000 0.000000 0.044979 0.000000
# 6 0.000000 0.000000 0.000000 0.000000 0.000000 0.576767
#
#
# Mechanical properties :
#
#
# Convention : Reuss Voigt Hill
#
# Bulk Modulus (GPa) = 35.90459 47.81765 41.86112
# Shear Modulus (GPa) = 7.01796 28.09857 17.55826
#
# Velocity S-wave (km/s) = 1.74829 3.49824 2.76534
# Velocity P-wave (km/s) = 4.43991 6.09449 5.33177
#
# Compressibility (1/GPa) = 0.02785160
#
# Stress axis : x y z
#
# Youngs Moduli (GPa) = 69.12550 60.28677 165.73496
#
# Poissons Ratio (x) = 0.04005 0.39402
# Poissons Ratio (y) = 0.04592 0.26124
# Poissons Ratio (z) = 0.16434 0.09503
#
# Static dielectric constant tensor:
#      x y z
#    x 1.940830 0.000000 0.000000 
#    y 0.000000 1.883760 0.000000 
#    z 0.000000 0.000000 1.881310 
# 
# From -- ./inp_files/17646.got.cif
#   From: 2010.05.17/outbox.cif.g08.bks.cpg/sg73_9_cif.got.tgz:17646.got - 2010.06.03 17:35:07.
