data_PCOD9532631
_publ_section_title
;
Structure prediction by ZEFSAII (Michael W. Deem and Ramdas Pophale) SiO2 
 PCOD9532631
Probable space group: I B C A 
;
_chemical_formula_sum "Si O2"
_cell_formula_units_Z 80
_cell_length_a 16.987206
_cell_length_b 15.008814
_cell_length_c 12.439668
_cell_angle_alpha 90.000000
_cell_angle_beta 90.000000
_cell_angle_gamma 90.000000
_cell_volume 3171.590576
_symmetry_space_group_name_H-M "I B C A "
_symmetry_group_IT_number 73
_symmetry_cell_setting 'orthorhombic'
loop_
_space_group_symop_operation_xyz
x,y,z
-x,1/2-y,z
x,-y,1/2-z
1/2-x,y,-z
-x,-y,-z
x,1/2+y,-z
-x,y,1/2+z
1/2+x,-y,z
1/2+x,1/2+y,1/2+z
1/2-x,-y,1/2+z
1/2+x,1/2-y,-z
-x,1/2+y,1/2-z
1/2-x,1/2-y,1/2-z
1/2+x,y,1/2-z
1/2-x,1/2+y,z
x,1/2-y,1/2+z
loop_
_atom_site_type_symbol
_atom_site_label
_atom_site_fract_x
_atom_site_fract_y
_atom_site_fract_z
Si Si1 0.309812 0.913315 0.899106
Si Si2 0.911211 0.730055 0.843651
Si Si3 0.967557 0.150683 0.951786
Si Si4 0.133775 0.100264 0.014729
Si Si5 0.316802 0.096013 0.216949
O O1 0.259510 0.905099 0.791932
O O2 0.341319 0.012137 0.923758
O O3 0.250000 0.888237 0.000000
O O4 0.392901 0.864453 0.877590
O O5 0.924213 0.652125 0.932528
O O6 0.873785 0.813633 0.907755
O O7 0.862384 0.684054 0.752247
O O8 0.000000 0.750000 0.808291
O O9 0.000000 0.250000 0.938121
O O10 0.045619 0.091511 0.961326
O O11 0.310222 0.105630 0.089348
O O12 0.355101 0.000000 0.250000
#
# Coordination Sequence:
#
# PCOD9532631 Si02
#       5
#    16  16  16  16  16
#     4  12  22  43  75 107 158 195 255 325 393 449
#     4   9  21  44  74 109 150 197 248 317 389 457
#     4   9  20  44  71 102 146 204 246 311 391 458
#     4  10  23  45  74 104 153 196 256 311 391 476
#     4  12  24  45  77 111 149 202 256 317 392 465
#
# _framework density 25.223936999999999
#
# number of rings (size 3 to 8) (size 9 to 14) (size 15 to 20)
#    0.000    2.000    4.000    0.600    0.000    4.800 
#    7.200   16.000    0.000    0.000    0.000    0.000 
#    0.000    0.000    0.000    0.000    0.000    0.000 
#
# Total GULP energy -223631.502236 kJ/mol
# GULP energy per Si atom -5590.787556 kJ/mol
# Density = 2.516653 g / cm^3
# Si number density = 25.223937 Si / 1000 Ang^3
#
#
#
# Elastic Constant Matrix: (Units=GPa)
#
#
# Indices 1 2 3 4 5 6 
#
# 1 161.0606 79.5728 41.6652 0.0000 0.0000 0.0000
# 2 79.5728 114.7031 61.3209 0.0000 0.0000 0.0000
# 3 41.6652 61.3209 129.9231 0.0000 0.0000 0.0000
# 4 0.0000 0.0000 0.0000 30.8986 0.0000 0.0000
# 5 0.0000 0.0000 0.0000 0.0000 -9.2566 0.0000
# 6 0.0000 0.0000 0.0000 0.0000 0.0000 50.4499
#
#
#
# Elastic Compliance Matrix: (Units=1/GPa)
#
#
# Indices 1 2 3 4 5 6 
#
# 1 0.009447 -0.006599 0.000085 0.000000 0.000000 0.000000
# 2 -0.006599 0.016270 -0.005563 0.000000 0.000000 0.000000
# 3 0.000085 -0.005563 0.010295 0.000000 0.000000 0.000000
# 4 0.000000 0.000000 0.000000 0.032364 0.000000 0.000000
# 5 0.000000 0.000000 0.000000 0.000000 -0.108032 0.000000
# 6 0.000000 0.000000 0.000000 0.000000 0.000000 0.019822
#
#
# Mechanical properties :
#
#
# Convention : Reuss Voigt Hill
#
# Bulk Modulus (GPa) = 84.32818 85.64494 84.98656
# Shear Modulus (GPa) = 604.32825 29.29359 316.81092
#
# Velocity S-wave (km/s) = 15.49533 3.41154 11.21927
# Velocity P-wave (km/s) = 18.80545 7.03887 14.19842
#
# Compressibility (1/GPa) = 0.01185843
#
# Stress axis : x y z
#
# Youngs Moduli (GPa) = 105.85082 61.46194 97.13334
#
# Poissons Ratio (x) = 0.40561 -0.00826
# Poissons Ratio (y) = 0.69854 0.54034
# Poissons Ratio (z) = -0.00901 0.34190
#
# Static dielectric constant tensor:
#      x y z
#    x 2.112600 0.000000 0.000000 
#    y 0.000000 2.021330 0.000000 
#    z 0.000000 0.000000 2.056260 
# 
# From -- ./inp_files/21869.got.cif
#   From: 2010.05.17/outbox.cif.g08.bks.cpg/sg73_11_cif.got.tgz:21869.got - 2010.06.03 17:35:07.
