data_PCOD9532940
_publ_section_title
;
Structure prediction by ZEFSAII (Michael W. Deem and Ramdas Pophale) SiO2 
 PCOD9532940
Probable space group: I B C A 
;
_chemical_formula_sum "Si O2"
_cell_formula_units_Z 120
_cell_length_a 28.813745
_cell_length_b 8.308174
_cell_length_c 24.052940
_cell_angle_alpha 90.000000
_cell_angle_beta 90.000000
_cell_angle_gamma 90.000000
_cell_volume 5758.023855
_symmetry_space_group_name_H-M "I B C A "
_symmetry_group_IT_number 73
_symmetry_cell_setting 'orthorhombic'
loop_
_space_group_symop_operation_xyz
x,y,z
-x,1/2-y,z
x,-y,1/2-z
1/2-x,y,-z
-x,-y,-z
x,1/2+y,-z
-x,y,1/2+z
1/2+x,-y,z
1/2+x,1/2+y,1/2+z
1/2-x,-y,1/2+z
1/2+x,1/2-y,-z
-x,1/2+y,1/2-z
1/2-x,1/2-y,1/2-z
1/2+x,y,1/2-z
1/2-x,1/2+y,z
x,1/2-y,1/2+z
loop_
_atom_site_type_symbol
_atom_site_label
_atom_site_fract_x
_atom_site_fract_y
_atom_site_fract_z
Si Si1 0.053363 0.981298 0.427950
Si Si2 0.541888 0.122833 0.301828
Si Si3 0.704455 0.291132 0.963218
Si Si4 0.369599 0.681596 0.735388
Si Si5 0.344376 0.884167 0.948596
Si Si6 0.313049 0.163326 0.669036
Si Si7 0.712761 0.783469 0.163642
Si Si8 0.500000 0.750000 0.996825
O O1 0.043671 0.960454 0.362459
O O2 0.039404 0.821590 0.462305
O O3 0.106208 0.035211 0.437632
O O4 0.021180 0.115514 0.456648
O O5 0.500000 0.250000 0.300566
O O6 0.589425 0.222150 0.294152
O O7 0.537544 0.000000 0.250000
O O8 0.693929 0.478376 0.956853
O O9 0.710789 0.230702 0.900805
O O10 0.750000 0.267071 0.000000
O O11 0.660629 0.219913 0.996206
O O12 0.383667 0.500000 0.750000
O O13 0.352846 0.783286 0.788785
O O14 0.324273 0.678285 0.696618
O O15 0.329518 0.791502 0.892922
O O16 0.265201 0.253805 0.682879
O O17 0.302627 0.970851 0.670551
#
# Coordination Sequence:
#
# PCOD9532940 Si02
#       8
#    16  16  16  16  16  16  16   8
#     4  11  23  47  71 106 138 184 232 294 357 430
#     4  12  26  48  74 104 143 181 233 297 364 432
#     4  11  22  38  60  95 136 177 227 273 331 401
#     4  12  26  46  68 100 132 178 233 286 349 421
#     4  11  23  38  65  95 135 178 222 278 339 402
#     4  11  23  42  64  97 134 182 225 284 337 410
#     4  11  23  40  66  94 137 182 228 282 339 405
#     4  10  24  46  74 102 140 178 236 288 360 430
#
# _framework density 20.840485000000001
#
# number of rings (size 3 to 8) (size 9 to 14) (size 15 to 20)
#    0.000    0.800    2.000    6.400    2.800    1.067 
#    2.400    0.000    0.000    0.000    0.000    0.000 
#    0.000    0.000    0.000    0.000    0.000    0.000 
#
# Total GULP energy -335575.180736 kJ/mol
# GULP energy per Si atom -5592.919679 kJ/mol
# Density = 2.079305 g / cm^3
# Si number density = 20.840485 Si / 1000 Ang^3
#
#
#
# Elastic Constant Matrix: (Units=GPa)
#
#
# Indices 1 2 3 4 5 6 
#
# 1 102.6027 19.3026 40.0666 0.0000 0.0000 0.0000
# 2 19.3026 54.1696 45.7877 0.0000 0.0000 0.0000
# 3 40.0666 45.7877 149.0241 0.0000 0.0000 0.0000
# 4 0.0000 0.0000 0.0000 24.2139 0.0000 0.0000
# 5 0.0000 0.0000 0.0000 0.0000 20.7797 0.0000
# 6 0.0000 0.0000 0.0000 0.0000 0.0000 37.9013
#
#
#
# Elastic Compliance Matrix: (Units=1/GPa)
#
#
# Indices 1 2 3 4 5 6 
#
# 1 0.011036 -0.001924 -0.002376 0.000000 0.000000 0.000000
# 2 -0.001924 0.025272 -0.007248 0.000000 0.000000 0.000000
# 3 -0.002376 -0.007248 0.009576 0.000000 0.000000 0.000000
# 4 0.000000 0.000000 0.000000 0.041299 0.000000 0.000000
# 5 0.000000 0.000000 0.000000 0.000000 0.048124 0.000000
# 6 0.000000 0.000000 0.000000 0.000000 0.000000 0.026384
#
#
# Mechanical properties :
#
#
# Convention : Reuss Voigt Hill
#
# Bulk Modulus (GPa) = 43.88112 57.34558 50.61335
# Shear Modulus (GPa) = 25.98981 29.95496 27.97238
#
# Velocity S-wave (km/s) = 3.53524 3.79535 3.66760
# Velocity P-wave (km/s) = 6.14535 6.83976 6.50183
#
# Compressibility (1/GPa) = 0.02278884
#
# Stress axis : x y z
#
# Youngs Moduli (GPa) = 90.61127 39.56895 104.42848
#
# Poissons Ratio (x) = 0.07614 0.24812
# Poissons Ratio (y) = 0.17436 0.75685
# Poissons Ratio (z) = 0.21529 0.28678
#
# Static dielectric constant tensor:
#      x y z
#    x 1.720430 0.000000 0.000000 
#    y 0.000000 1.758620 0.000000 
#    z 0.000000 0.000000 1.783570 
# 
# From -- ./inp_files/30524.got.cif
#   From: 2010.05.17/outbox.cif.g08.bks.cpg/sg73_16_cif.got.tgz:30524.got - 2010.06.03 17:35:07.
