data_PCOD9532284
_publ_section_title
;
Structure prediction by ZEFSAII (Michael W. Deem and Ramdas Pophale) SiO2 
 PCOD9532284
Probable space group: I B C A 
;
_chemical_formula_sum "Si O2"
_cell_formula_units_Z 72
_cell_length_a 22.064508
_cell_length_b 15.080738
_cell_length_c 9.368360
_cell_angle_alpha 90.000000
_cell_angle_beta 90.000000
_cell_angle_gamma 90.000000
_cell_volume 3117.313024
_symmetry_space_group_name_H-M "I B C A "
_symmetry_group_IT_number 73
_symmetry_cell_setting 'orthorhombic'
loop_
_space_group_symop_operation_xyz
x,y,z
-x,1/2-y,z
x,-y,1/2-z
1/2-x,y,-z
-x,-y,-z
x,1/2+y,-z
-x,y,1/2+z
1/2+x,-y,z
1/2+x,1/2+y,1/2+z
1/2-x,-y,1/2+z
1/2+x,1/2-y,-z
-x,1/2+y,1/2-z
1/2-x,1/2-y,1/2-z
1/2+x,y,1/2-z
1/2-x,1/2+y,z
x,1/2-y,1/2+z
loop_
_atom_site_type_symbol
_atom_site_label
_atom_site_fract_x
_atom_site_fract_y
_atom_site_fract_z
Si Si1 0.849940 0.730047 0.704299
Si Si2 0.048690 0.594722 0.312109
Si Si3 0.261874 0.876065 0.696048
Si Si4 0.457646 0.831947 0.904467
Si Si5 0.750000 0.965825 0.500000
O O1 0.899404 0.666593 0.777773
O O2 0.799494 0.667468 0.634547
O O3 0.812118 0.800308 0.796431
O O4 0.890797 0.793389 0.606902
O O5 0.065621 0.500000 0.250000
O O6 0.040628 0.591623 0.479975
O O7 0.987336 0.631211 0.239471
O O8 0.283656 0.959500 0.601275
O O9 0.239824 0.901634 0.861107
O O10 0.500000 0.750000 0.952636
#
# Coordination Sequence:
#
# PCOD9532284 Si02
#       5
#    16  16  16  16   8
#     4  10  24  40  70  97 138 181 220 273 340 403
#     4  11  24  43  68  98 132 177 229 283 328 397
#     4  10  24  44  67 103 139 177 219 273 339 407
#     4  10  22  44  67  96 132 176 224 274 343 396
#     4  10  24  44  66  98 142 174 226 274 326 410
#
# _framework density 23.096813999999998
#
# number of rings (size 3 to 8) (size 9 to 14) (size 15 to 20)
#    0.000    1.778    0.000    2.667    9.333    1.778 
#    4.000    0.000    0.000    0.000    0.000    0.000 
#    0.000    0.000    0.000    0.000    0.000    0.000 
#
# Total GULP energy -200424.394410 kJ/mol
# GULP energy per Si atom -5567.344289 kJ/mol
# Density = 2.304424 g / cm^3
# Si number density = 23.096814 Si / 1000 Ang^3
#
#
#
# Elastic Constant Matrix: (Units=GPa)
#
#
# Indices 1 2 3 4 5 6 
#
# 1 84.6085 27.2427 28.5413 0.0000 0.0000 0.0000
# 2 27.2427 105.9083 37.6740 0.0000 0.0000 0.0000
# 3 28.5413 37.6740 100.5175 0.0000 0.0000 0.0000
# 4 0.0000 0.0000 0.0000 38.5488 0.0000 0.0000
# 5 0.0000 0.0000 0.0000 0.0000 -13.9944 0.0000
# 6 0.0000 0.0000 0.0000 0.0000 0.0000 -7.8862
#
#
#
# Elastic Compliance Matrix: (Units=1/GPa)
#
#
# Indices 1 2 3 4 5 6 
#
# 1 0.013601 -0.002452 -0.002943 0.000000 0.000000 0.000000
# 2 -0.002452 0.011337 -0.003553 0.000000 0.000000 0.000000
# 3 -0.002943 -0.003553 0.012116 0.000000 0.000000 0.000000
# 4 0.000000 0.000000 0.000000 0.025941 0.000000 0.000000
# 5 0.000000 0.000000 0.000000 0.000000 -0.071457 0.000000
# 6 0.000000 0.000000 0.000000 0.000000 0.000000 -0.126804
#
#
# Mechanical properties :
#
#
# Convention : Reuss Voigt Hill
#
# Bulk Modulus (GPa) = 52.19631 53.10562 52.65096
# Shear Modulus (GPa) = -45.05117 16.50539 -14.27289
#
# Velocity S-wave (km/s) = -4.42128 2.67613 -2.48858
# Velocity P-wave (km/s) = 1.84814 5.70889 3.81941
#
# Compressibility (1/GPa) = 0.01915844
#
# Stress axis : x y z
#
# Youngs Moduli (GPa) = 73.52193 88.20983 82.53691
#
# Poissons Ratio (x) = 0.21627 0.24292
# Poissons Ratio (y) = 0.18026 0.29324
# Poissons Ratio (z) = 0.21638 0.31339
#
# Static dielectric constant tensor:
#      x y z
#    x 1.852400 0.000000 0.000000 
#    y 0.000000 1.865950 0.000000 
#    z 0.000000 0.000000 1.940510 
# 
# From -- ./inp_files/6945.got.cif
#   From: 2010.05.17/outbox.cif.g08.bks.cpg/sg73_4_cif.got.tgz:6945.got - 2010.06.03 17:35:07.
