data_PCOD9532772
_publ_section_title
;
Structure prediction by ZEFSAII (Michael W. Deem and Ramdas Pophale) SiO2 
 PCOD9532772
Probable space group: I B C A 
;
_chemical_formula_sum "Si O2"
_cell_formula_units_Z 72
_cell_length_a 9.015766
_cell_length_b 18.555049
_cell_length_c 20.428815
_cell_angle_alpha 90.000000
_cell_angle_beta 90.000000
_cell_angle_gamma 90.000000
_cell_volume 3417.495193
_symmetry_space_group_name_H-M "I B C A "
_symmetry_group_IT_number 73
_symmetry_cell_setting 'orthorhombic'
loop_
_space_group_symop_operation_xyz
x,y,z
-x,1/2-y,z
x,-y,1/2-z
1/2-x,y,-z
-x,-y,-z
x,1/2+y,-z
-x,y,1/2+z
1/2+x,-y,z
1/2+x,1/2+y,1/2+z
1/2-x,-y,1/2+z
1/2+x,1/2-y,-z
-x,1/2+y,1/2-z
1/2-x,1/2-y,1/2-z
1/2+x,y,1/2-z
1/2-x,1/2+y,z
x,1/2-y,1/2+z
loop_
_atom_site_type_symbol
_atom_site_label
_atom_site_fract_x
_atom_site_fract_y
_atom_site_fract_z
Si Si1 0.360202 0.196260 0.437005
Si Si2 0.549831 0.000000 0.250000
Si Si3 0.884577 0.035878 0.047920
Si Si4 0.676952 0.737037 0.321187
Si Si5 0.195122 0.929654 0.665714
O O1 0.500000 0.250000 0.442831
O O2 0.250000 0.203270 0.500000
O O3 0.425481 0.115505 0.427937
O O4 0.259383 0.212876 0.373788
O O5 0.656451 0.039730 0.301132
O O6 0.441869 0.056600 0.215092
O O7 0.840665 0.979639 0.103797
O O8 0.750000 0.050302 0.000000
O O9 0.000000 0.000000 0.000000
O O10 0.500000 0.750000 0.318829
O O11 0.750000 0.750000 0.250000
O O12 0.704826 0.655123 0.344954
#
# Coordination Sequence:
#
# PCOD9532772 Si02
#       5
#    16   8  16  16  16
#     4  11  28  48  74 105 148 191 247 302 376 443
#     4  10  24  42  70 102 136 186 240 286 364 428
#     4  11  27  45  73 104 142 187 248 296 360 445
#     4  12  28  46  75 108 151 191 244 306 379 446
#     4  11  25  43  74  99 145 185 241 299 362 438
#
# _framework density 21.068062999999999
#
# number of rings (size 3 to 8) (size 9 to 14) (size 15 to 20)
#    0.000    0.889    0.000    4.000   24.889    0.000 
#    0.000    0.000    0.000    0.000    0.000    0.000 
#    0.000    0.000    0.000    0.000    0.000    0.000 
#
# Total GULP energy -201397.356967 kJ/mol
# GULP energy per Si atom -5594.371027 kJ/mol
# Density = 2.102011 g / cm^3
# Si number density = 21.068063 Si / 1000 Ang^3
#
#
#
# Elastic Constant Matrix: (Units=GPa)
#
#
# Indices 1 2 3 4 5 6 
#
# 1 117.2044 30.5715 34.1441 0.0000 0.0000 0.0000
# 2 30.5715 168.1815 42.2979 0.0000 0.0000 0.0000
# 3 34.1441 42.2979 137.5606 0.0000 0.0000 0.0000
# 4 0.0000 0.0000 0.0000 30.8930 0.0000 0.0000
# 5 0.0000 0.0000 0.0000 0.0000 16.0214 0.0000
# 6 0.0000 0.0000 0.0000 0.0000 0.0000 -23.8994
#
#
#
# Elastic Compliance Matrix: (Units=1/GPa)
#
#
# Indices 1 2 3 4 5 6 
#
# 1 0.009422 -0.001219 -0.001964 0.000000 0.000000 0.000000
# 2 -0.001219 0.006602 -0.001727 0.000000 0.000000 0.000000
# 3 -0.001964 -0.001727 0.008288 0.000000 0.000000 0.000000
# 4 0.000000 0.000000 0.000000 0.032370 0.000000 0.000000
# 5 0.000000 0.000000 0.000000 0.000000 0.062417 0.000000
# 6 0.000000 0.000000 0.000000 0.000000 0.000000 -0.041842
#
#
# Mechanical properties :
#
#
# Convention : Reuss Voigt Hill
#
# Bulk Modulus (GPa) = 69.00423 70.77484 69.88953
# Shear Modulus (GPa) = 54.40239 25.66519 40.03379
#
# Velocity S-wave (km/s) = 5.08707 3.49406 4.36387
# Velocity P-wave (km/s) = 8.20539 7.06713 7.65744
#
# Compressibility (1/GPa) = 0.01449187
#
# Stress axis : x y z
#
# Youngs Moduli (GPa) = 106.13291 151.46991 120.65386
#
# Poissons Ratio (x) = 0.18461 0.23696
# Poissons Ratio (y) = 0.12935 0.20843
# Poissons Ratio (z) = 0.20844 0.26166
#
# Static dielectric constant tensor:
#      x y z
#    x 1.682210 0.000000 0.000000 
#    y 0.000000 1.818000 0.000000 
#    z 0.000000 0.000000 1.735320 
# 
# From -- ./inp_files/5333.got.cif
#   From: 2010.05.17/outbox.cif.g08.bks.cpg/sg73_3_cif.got.tgz:5333.got - 2010.06.03 17:35:07.
