data_PCOD9532314
_publ_section_title
;
Structure prediction by ZEFSAII (Michael W. Deem and Ramdas Pophale) SiO2 
 PCOD9532314
Probable space group: I B C A 
;
_chemical_formula_sum "Si O2"
_cell_formula_units_Z 56
_cell_length_a 18.288036
_cell_length_b 7.912140
_cell_length_c 13.404990
_cell_angle_alpha 90.000000
_cell_angle_beta 90.000000
_cell_angle_gamma 90.000000
_cell_volume 1939.668556
_symmetry_space_group_name_H-M "I B C A "
_symmetry_group_IT_number 73
_symmetry_cell_setting 'orthorhombic'
loop_
_space_group_symop_operation_xyz
x,y,z
-x,1/2-y,z
x,-y,1/2-z
1/2-x,y,-z
-x,-y,-z
x,1/2+y,-z
-x,y,1/2+z
1/2+x,-y,z
1/2+x,1/2+y,1/2+z
1/2-x,-y,1/2+z
1/2+x,1/2-y,-z
-x,1/2+y,1/2-z
1/2-x,1/2-y,1/2-z
1/2+x,y,1/2-z
1/2-x,1/2+y,z
x,1/2-y,1/2+z
loop_
_atom_site_type_symbol
_atom_site_label
_atom_site_fract_x
_atom_site_fract_y
_atom_site_fract_z
Si Si1 0.440828 0.885143 0.363212
Si Si2 0.696833 0.002171 0.081888
Si Si3 0.404895 0.772960 0.064049
Si Si4 0.304790 0.500000 0.750000
O O1 0.500000 0.750000 0.323431
O O2 0.441254 0.842964 0.480382
O O3 0.361308 0.878616 0.310420
O O4 0.448797 0.090648 0.369499
O O5 0.642426 0.861576 0.126245
O O6 0.750193 0.073422 0.166607
O O7 0.750000 0.916976 0.000000
O O8 0.648933 0.123698 0.011667
#
# Coordination Sequence:
#
# PCOD9532314 Si02
#       4
#    16  16  16   8
#     4  11  25  45  68 101 147 206 263 300 372 467
#     4  11  22  41  69 112 149 183 246 322 410 449
#     4  10  22  44  72 102 147 192 247 319 388 461
#     4  12  26  40  78 106 158 190 250 330 388 458
#
# _framework density 28.870909999999999
#
# number of rings (size 3 to 8) (size 9 to 14) (size 15 to 20)
#    0.000    1.143    5.714    1.714    0.000    4.571 
#    0.000    8.571    0.000    0.000    0.000    0.000 
#    0.000    0.000    0.000    0.000    0.000    0.000 
#
# Total GULP energy -156194.495477 kJ/mol
# GULP energy per Si atom -5578.374838 kJ/mol
# Density = 2.880520 g / cm^3
# Si number density = 28.870910 Si / 1000 Ang^3
#
#
#
# Elastic Constant Matrix: (Units=GPa)
#
#
# Indices 1 2 3 4 5 6 
#
# 1 124.0873 48.9333 35.3764 0.0000 0.0000 0.0000
# 2 48.9333 101.6740 2.9836 0.0000 0.0000 0.0000
# 3 35.3764 2.9836 107.3836 0.0000 0.0000 0.0000
# 4 0.0000 0.0000 0.0000 37.5189 0.0000 0.0000
# 5 0.0000 0.0000 0.0000 0.0000 70.0619 0.0000
# 6 0.0000 0.0000 0.0000 0.0000 0.0000 82.3492
#
#
#
# Elastic Compliance Matrix: (Units=1/GPa)
#
#
# Indices 1 2 3 4 5 6 
#
# 1 0.011136 -0.005256 -0.003523 0.000000 0.000000 0.000000
# 2 -0.005256 0.012324 0.001389 0.000000 0.000000 0.000000
# 3 -0.003523 0.001389 0.010434 0.000000 0.000000 0.000000
# 4 0.000000 0.000000 0.000000 0.026653 0.000000 0.000000
# 5 0.000000 0.000000 0.000000 0.000000 0.014273 0.000000
# 6 0.000000 0.000000 0.000000 0.000000 0.000000 0.012143
#
#
# Mechanical properties :
#
#
# Convention : Reuss Voigt Hill
#
# Bulk Modulus (GPa) = 52.31387 56.41459 54.36423
# Shear Modulus (GPa) = 46.24722 54.37612 50.31167
#
# Velocity S-wave (km/s) = 4.00667 4.34455 4.17903
# Velocity P-wave (km/s) = 6.28998 6.68951 6.49282
#
# Compressibility (1/GPa) = 0.01911539
#
# Stress axis : x y z
#
# Youngs Moduli (GPa) = 89.80066 81.14124 95.83805
#
# Poissons Ratio (x) = 0.42648 0.33759
# Poissons Ratio (y) = 0.47199 -0.13313
# Poissons Ratio (z) = 0.31633 -0.11272
#
# Static dielectric constant tensor:
#      x y z
#    x 2.483960 0.000000 0.000000 
#    y 0.000000 2.303680 0.000000 
#    z 0.000000 0.000000 2.205880 
# 
# From -- ./inp_files/18389.got.cif
#   From: 2010.05.17/outbox.cif.g08.bks.cpg/sg73_10_cif.got.tgz:18389.got - 2010.06.03 17:35:07.
