data_PCOD9532985
_publ_section_title
;
Structure prediction by ZEFSAII (Michael W. Deem and Ramdas Pophale) SiO2 
 PCOD9532985
Probable space group: I B C A 
;
_chemical_formula_sum "Si O2"
_cell_formula_units_Z 88
_cell_length_a 22.573245
_cell_length_b 10.028062
_cell_length_c 14.380163
_cell_angle_alpha 90.000000
_cell_angle_beta 90.000000
_cell_angle_gamma 90.000000
_cell_volume 3255.178545
_symmetry_space_group_name_H-M "I B C A "
_symmetry_group_IT_number 73
_symmetry_cell_setting 'orthorhombic'
loop_
_space_group_symop_operation_xyz
x,y,z
-x,1/2-y,z
x,-y,1/2-z
1/2-x,y,-z
-x,-y,-z
x,1/2+y,-z
-x,y,1/2+z
1/2+x,-y,z
1/2+x,1/2+y,1/2+z
1/2-x,-y,1/2+z
1/2+x,1/2-y,-z
-x,1/2+y,1/2-z
1/2-x,1/2-y,1/2-z
1/2+x,y,1/2-z
1/2-x,1/2+y,z
x,1/2-y,1/2+z
loop_
_atom_site_type_symbol
_atom_site_label
_atom_site_fract_x
_atom_site_fract_y
_atom_site_fract_z
Si Si1 0.113632 0.485551 0.964362
Si Si2 0.291123 0.500000 0.750000
Si Si3 0.883656 0.702372 0.816082
Si Si4 0.499480 0.525703 0.646308
Si Si5 0.286323 0.886129 0.592621
Si Si6 0.912354 0.701793 0.601941
O O1 0.154446 0.694416 0.876757
O O2 0.180148 0.473135 0.924509
O O3 0.056107 0.554853 0.915449
O O4 0.124234 0.583564 0.051721
O O5 0.335152 0.412976 0.810594
O O6 0.253441 0.595091 0.816851
O O7 0.946537 0.635038 0.847233
O O8 0.893673 0.742123 0.707269
O O9 0.521650 0.500000 0.750000
O O10 0.472185 0.384118 0.615545
O O11 0.250000 0.845728 0.500000
O O12 0.091636 0.667479 0.538540
#
# Coordination Sequence:
#
# PCOD9532985 Si02
#       6
#    16   8  16  16  16  16
#     4  12  28  48  80 120 165 209 291 350 433 523
#     4  12  24  52  74 112 164 230 270 358 430 516
#     4  11  25  53  83 112 169 218 285 352 446 509
#     4  10  24  48  82 116 165 219 270 362 440 514
#     4  12  30  48  82 121 163 221 290 351 427 532
#     4  11  25  51  78 122 164 222 271 355 436 518
#
# _framework density 27.033846
#
# number of rings (size 3 to 8) (size 9 to 14) (size 15 to 20)
#    0.000    0.727    2.727    3.818    6.364    2.909 
#    0.000    0.000    0.000    0.000    0.000    0.000 
#    0.000    0.000    0.000    0.000    0.000    0.000 
#
# Total GULP energy -245663.594135 kJ/mol
# GULP energy per Si atom -5583.263503 kJ/mol
# Density = 2.697232 g / cm^3
# Si number density = 27.033846 Si / 1000 Ang^3
#
#
#
# Elastic Constant Matrix: (Units=GPa)
#
#
# Indices 1 2 3 4 5 6 
#
# 1 167.4367 61.5329 65.8590 0.0000 0.0000 0.0000
# 2 61.5329 103.6841 42.8416 0.0000 0.0000 0.0000
# 3 65.8590 42.8416 167.2975 0.0000 0.0000 0.0000
# 4 0.0000 0.0000 0.0000 22.6264 0.0000 0.0000
# 5 0.0000 0.0000 0.0000 0.0000 48.4134 0.0000
# 6 0.0000 0.0000 0.0000 0.0000 0.0000 34.6946
#
#
#
# Elastic Compliance Matrix: (Units=1/GPa)
#
#
# Indices 1 2 3 4 5 6 
#
# 1 0.008334 -0.004015 -0.002253 0.000000 0.000000 0.000000
# 2 -0.004015 0.012720 -0.001677 0.000000 0.000000 0.000000
# 3 -0.002253 -0.001677 0.007294 0.000000 0.000000 0.000000
# 4 0.000000 0.000000 0.000000 0.044196 0.000000 0.000000
# 5 0.000000 0.000000 0.000000 0.000000 0.020655 0.000000
# 6 0.000000 0.000000 0.000000 0.000000 0.000000 0.028823
#
#
# Mechanical properties :
#
#
# Convention : Reuss Voigt Hill
#
# Bulk Modulus (GPa) = 80.26473 86.54283 83.40378
# Shear Modulus (GPa) = 35.19526 39.02586 37.11056
#
# Velocity S-wave (km/s) = 3.61209 3.80359 3.70908
# Velocity P-wave (km/s) = 6.86667 7.16742 7.01866
#
# Compressibility (1/GPa) = 0.01245877
#
# Stress axis : x y z
#
# Youngs Moduli (GPa) = 119.99015 78.61384 137.10772
#
# Poissons Ratio (x) = 0.31565 0.30885
# Poissons Ratio (y) = 0.48178 0.22990
# Poissons Ratio (z) = 0.27029 0.13182
#
# Static dielectric constant tensor:
#      x y z
#    x 2.172660 0.000000 0.000000 
#    y 0.000000 1.920050 0.000000 
#    z 0.000000 0.000000 1.849330 
# 
# From -- ./inp_files/18542.got.cif
#   From: 2010.05.17/outbox.cif.g08.bks.cpg/sg73_10_cif.got.tgz:18542.got - 2010.06.03 17:35:07.
