data_PCOD9532410
_publ_section_title
;
Structure prediction by ZEFSAII (Michael W. Deem and Ramdas Pophale) SiO2 
 PCOD9532410
Probable space group: I B C A 
;
_chemical_formula_sum "Si O2"
_cell_formula_units_Z 56
_cell_length_a 16.851822
_cell_length_b 9.399277
_cell_length_c 13.624721
_cell_angle_alpha 90.000000
_cell_angle_beta 90.000000
_cell_angle_gamma 90.000000
_cell_volume 2158.086905
_symmetry_space_group_name_H-M "I B C A "
_symmetry_group_IT_number 73
_symmetry_cell_setting 'orthorhombic'
loop_
_space_group_symop_operation_xyz
x,y,z
-x,1/2-y,z
x,-y,1/2-z
1/2-x,y,-z
-x,-y,-z
x,1/2+y,-z
-x,y,1/2+z
1/2+x,-y,z
1/2+x,1/2+y,1/2+z
1/2-x,-y,1/2+z
1/2+x,1/2-y,-z
-x,1/2+y,1/2-z
1/2-x,1/2-y,1/2-z
1/2+x,y,1/2-z
1/2-x,1/2+y,z
x,1/2-y,1/2+z
loop_
_atom_site_type_symbol
_atom_site_label
_atom_site_fract_x
_atom_site_fract_y
_atom_site_fract_z
Si Si1 0.223338 0.062291 0.640966
Si Si2 0.938690 0.423429 0.927140
Si Si3 0.652211 0.349241 0.900604
Si Si4 0.960053 0.000000 0.750000
O O1 0.216192 0.231040 0.629461
O O2 0.233929 0.000000 0.750000
O O3 0.136631 0.012680 0.608171
O O4 0.297551 0.993911 0.584857
O O5 0.988199 0.409376 0.827306
O O6 0.897038 0.310003 0.000830
O O7 0.000000 0.500000 0.000000
O O8 0.592427 0.389234 0.813048
#
# Coordination Sequence:
#
# PCOD9532410 Si02
#       4
#    16  16  16   8
#     4  12  25  49  74 114 150 198 258 316 384 455
#     4  10  24  47  71 111 152 194 247 312 383 457
#     4  11  26  47  78 111 147 201 255 312 384 452
#     4  10  22  48  72 116 150 198 244 320 384 460
#
# _framework density 25.948910999999999
#
# number of rings (size 3 to 8) (size 9 to 14) (size 15 to 20)
#    0.000    1.143    2.857    1.714    0.000    9.143 
#   10.286    0.000    0.000    0.000    0.000    0.000 
#    0.000    0.000    0.000    0.000    0.000    0.000 
#
# Total GULP energy -156584.368393 kJ/mol
# GULP energy per Si atom -5592.298871 kJ/mol
# Density = 2.588985 g / cm^3
# Si number density = 25.948911 Si / 1000 Ang^3
#
#
#
# Elastic Constant Matrix: (Units=GPa)
#
#
# Indices 1 2 3 4 5 6 
#
# 1 139.1126 34.9308 69.1414 0.0000 0.0000 0.0000
# 2 34.9308 112.6289 42.4735 0.0000 0.0000 0.0000
# 3 69.1414 42.4735 183.7414 0.0000 0.0000 0.0000
# 4 0.0000 0.0000 0.0000 16.4490 0.0000 0.0000
# 5 0.0000 0.0000 0.0000 0.0000 69.5165 0.0000
# 6 0.0000 0.0000 0.0000 0.0000 0.0000 13.2052
#
#
#
# Elastic Compliance Matrix: (Units=1/GPa)
#
#
# Indices 1 2 3 4 5 6 
#
# 1 0.009124 -0.001682 -0.003045 0.000000 0.000000 0.000000
# 2 -0.001682 0.010037 -0.001687 0.000000 0.000000 0.000000
# 3 -0.003045 -0.001687 0.006978 0.000000 0.000000 0.000000
# 4 0.000000 0.000000 0.000000 0.060794 0.000000 0.000000
# 5 0.000000 0.000000 0.000000 0.000000 0.014385 0.000000
# 6 0.000000 0.000000 0.000000 0.000000 0.000000 0.075728
#
#
# Mechanical properties :
#
#
# Convention : Reuss Voigt Hill
#
# Bulk Modulus (GPa) = 75.12178 80.95271 78.03725
# Shear Modulus (GPa) = 25.73214 39.09661 32.41438
#
# Velocity S-wave (km/s) = 3.15246 3.88580 3.53818
# Velocity P-wave (km/s) = 6.50103 7.16919 6.84327
#
# Compressibility (1/GPa) = 0.01331172
#
# Stress axis : x y z
#
# Youngs Moduli (GPa) = 109.60273 99.63613 143.30490
#
# Poissons Ratio (x) = 0.16754 0.43630
# Poissons Ratio (y) = 0.18430 0.24180
# Poissons Ratio (z) = 0.33369 0.16811
#
# Static dielectric constant tensor:
#      x y z
#    x 1.988540 0.000000 0.000000 
#    y 0.000000 -0.446030 0.000000 
#    z 0.000000 0.000000 2.122830 
# 
# From -- ./inp_files/5119.got.cif
#   From: 2010.05.17/outbox.cif.g08.bks.cpg/sg73_3_cif.got.tgz:5119.got - 2010.06.03 17:35:07.
