data_PCOD9532730
_publ_section_title
;
Structure prediction by ZEFSAII (Michael W. Deem and Ramdas Pophale) SiO2 
 PCOD9532730
Probable space group: I B C A 
;
_chemical_formula_sum "Si O2"
_cell_formula_units_Z 56
_cell_length_a 9.757800
_cell_length_b 26.466701
_cell_length_c 9.185501
_cell_angle_alpha 90.000000
_cell_angle_beta 90.000000
_cell_angle_gamma 90.000000
_cell_volume 2372.217865
_symmetry_space_group_name_H-M "I B C A "
_symmetry_group_IT_number 73
_symmetry_cell_setting 'orthorhombic'
loop_
_space_group_symop_operation_xyz
x,y,z
-x,1/2-y,z
x,-y,1/2-z
1/2-x,y,-z
-x,-y,-z
x,1/2+y,-z
-x,y,1/2+z
1/2+x,-y,z
1/2+x,1/2+y,1/2+z
1/2-x,-y,1/2+z
1/2+x,1/2-y,-z
-x,1/2+y,1/2-z
1/2-x,1/2-y,1/2-z
1/2+x,y,1/2-z
1/2-x,1/2+y,z
x,1/2-y,1/2+z
loop_
_atom_site_type_symbol
_atom_site_label
_atom_site_fract_x
_atom_site_fract_y
_atom_site_fract_z
Si Si1 0.307743 0.410832 0.214217
Si Si2 0.339146 0.200553 0.761928
Si Si3 0.500000 0.750000 0.484543
Si Si4 0.959756 0.053950 0.067596
O O1 0.267374 0.353118 0.248921
O O2 0.171230 0.443064 0.177864
O O3 0.405387 0.428219 0.346095
O O4 0.403204 0.413941 0.069620
O O5 0.250000 0.250000 0.750000
O O6 0.432376 0.209168 0.621738
O O7 0.416119 0.212573 0.910693
O O8 0.000000 0.000000 0.000000
#
# Coordination Sequence:
#
# PCOD9532730 Si02
#       4
#    16  16   8  16
#     4  11  27  48  80 110 152 201 253 312 400 453
#     4  11  24  43  72 107 154 195 249 305 374 468
#     4  10  24  40  70 104 158 194 254 302 376 438
#     4  11  27  50  78 110 148 195 262 324 383 458
#
# _framework density 23.6066
#
# number of rings (size 3 to 8) (size 9 to 14) (size 15 to 20)
#    0.000    1.143    0.000    3.429   16.000   10.286 
#    5.143    0.000    0.000    0.000    0.000    0.000 
#    0.000    0.000    0.000    0.000    0.000    0.000 
#
# Total GULP energy -156411.805006 kJ/mol
# GULP energy per Si atom -5586.135893 kJ/mol
# Density = 2.355287 g / cm^3
# Si number density = 23.606600 Si / 1000 Ang^3
#
#
#
# Elastic Constant Matrix: (Units=GPa)
#
#
# Indices 1 2 3 4 5 6 
#
# 1 110.7081 85.5799 60.2575 0.0008 -0.0011 0.0000
# 2 85.5799 198.2191 86.6760 0.0016 -0.0023 0.0000
# 3 60.2575 86.6760 144.9417 0.0054 -0.0070 0.0001
# 4 0.0008 0.0016 0.0054 -12.0140 0.0017 -0.0001
# 5 -0.0011 -0.0023 -0.0070 0.0017 94.6859 0.0001
# 6 0.0000 0.0000 0.0001 -0.0001 0.0001 33.0000
#
#
#
# Elastic Compliance Matrix: (Units=1/GPa)
#
#
# Indices 1 2 3 4 5 6 
#
# 1 0.014516 -0.004913 -0.003097 -0.000001 0.000000 0.000000
# 2 -0.004913 0.008494 -0.003037 -0.000001 0.000000 0.000000
# 3 -0.003097 -0.003037 0.010003 0.000004 0.000001 0.000000
# 4 -0.000001 -0.000001 0.000004 -0.083237 0.000001 0.000000
# 5 0.000000 0.000000 0.000001 0.000001 0.010561 0.000000
# 6 0.000000 0.000000 0.000000 0.000000 0.000000 0.030303
#
#
# Mechanical properties :
#
#
# Convention : Reuss Voigt Hill
#
# Bulk Modulus (GPa) = 91.57994 102.09949 96.83972
# Shear Modulus (GPa) = 305.34482 37.89142 171.61812
#
# Velocity S-wave (km/s) = 11.38543 4.01074 8.53563
# Velocity P-wave (km/s) = 14.55046 8.04937 11.75815
#
# Compressibility (1/GPa) = 0.01091942
#
# Stress axis : x y z
#
# Youngs Moduli (GPa) = 68.88780 117.72825 99.97078
#
# Poissons Ratio (x) = 0.57842 0.30960
# Poissons Ratio (y) = 0.33846 0.30361
# Poissons Ratio (z) = 0.21334 0.35754
#
# Static dielectric constant tensor:
#      x y z
#    x 1.970400 -0.000010 0.000000 
#    y -0.000010 1.742550 0.000020 
#    z 0.000000 0.000020 1.590060 
# 
# From -- ./inp_files/3896.got.cif
#   From: 2010.05.17/outbox.cif.g08.bks.cpg/sg73_2_cif.got.tgz:3896.got - 2010.06.03 17:35:07.
