data_PCOD9532324
_publ_section_title
;
Structure prediction by ZEFSAII (Michael W. Deem and Ramdas Pophale) SiO2 
 PCOD9532324
Probable space group: I B C A 
;
_chemical_formula_sum "Si O2"
_cell_formula_units_Z 104
_cell_length_a 20.027874
_cell_length_b 28.822299
_cell_length_c 9.169426
_cell_angle_alpha 90.000000
_cell_angle_beta 90.000000
_cell_angle_gamma 90.000000
_cell_volume 5293.045407
_symmetry_space_group_name_H-M "I B C A "
_symmetry_group_IT_number 73
_symmetry_cell_setting 'orthorhombic'
loop_
_space_group_symop_operation_xyz
x,y,z
-x,1/2-y,z
x,-y,1/2-z
1/2-x,y,-z
-x,-y,-z
x,1/2+y,-z
-x,y,1/2+z
1/2+x,-y,z
1/2+x,1/2+y,1/2+z
1/2-x,-y,1/2+z
1/2+x,1/2-y,-z
-x,1/2+y,1/2-z
1/2-x,1/2-y,1/2-z
1/2+x,y,1/2-z
1/2-x,1/2+y,z
x,1/2-y,1/2+z
loop_
_atom_site_type_symbol
_atom_site_label
_atom_site_fract_x
_atom_site_fract_y
_atom_site_fract_z
Si Si1 0.577637 0.500000 0.250000
Si Si2 0.409325 0.386280 0.342020
Si Si3 0.870045 0.056104 0.034588
Si Si4 0.250000 0.875508 0.000000
Si Si5 0.992329 0.580468 0.599670
Si Si6 0.750000 0.755921 0.000000
Si Si7 0.306306 0.469551 0.382266
Si Si8 0.807781 0.311343 0.274368
O O1 0.625477 0.458702 0.299427
O O2 0.531533 0.528283 0.361627
O O3 0.437100 0.390753 0.508362
O O4 0.474285 0.396967 0.243024
O O5 0.352796 0.426984 0.331562
O O6 0.372787 0.340515 0.277041
O O7 0.814373 0.092799 0.003307
O O8 0.942160 0.074805 0.997955
O O9 0.854460 0.008031 0.954093
O O10 0.255462 0.846951 0.849475
O O11 0.806051 0.725433 0.089100
O O12 0.717957 0.786156 0.129099
O O13 0.275907 0.500000 0.250000
O O14 0.250000 0.456084 0.500000
#
# Coordination Sequence:
#
# PCOD9532324 Si02
#       8
#     8  16  16   8  16   8  16  16
#     4  12  24  36  58  84 126 196 252 266 304 364
#     4  12  25  42  65  94 131 177 231 276 320 397
#     4  12  23  37  55  87 136 183 226 273 317 354
#     4  11  22  40  65  96 136 172 211 290 326 381
#     4  12  23  41  60  86 128 187 234 272 310 370
#     4   9  22  46  77 106 128 156 189 270 360 449
#     4  12  25  38  56  87 135 179 226 280 326 367
#     4  10  22  44  73 103 128 156 206 265 349 418
#
# _framework density 19.648423999999999
#
# number of rings (size 3 to 8) (size 9 to 14) (size 15 to 20)
#    0.000    0.615    6.923    1.385    2.154    1.231 
#    0.000    0.000    0.000    2.769    0.000    0.000 
#    0.000    0.000    0.000    0.000    0.000    0.000 
#
# Total GULP energy -289553.448290 kJ/mol
# GULP energy per Si atom -5568.335544 kJ/mol
# Density = 1.960370 g / cm^3
# Si number density = 19.648424 Si / 1000 Ang^3
#
#
#
# Elastic Constant Matrix: (Units=GPa)
#
#
# Indices 1 2 3 4 5 6 
#
# 1 86.0823 46.8803 53.3977 0.0000 0.0000 0.0000
# 2 46.8803 87.7204 52.0121 0.0000 0.0000 0.0000
# 3 53.3977 52.0121 123.1648 0.0000 0.0000 0.0000
# 4 0.0000 0.0000 0.0000 36.8384 0.0000 0.0000
# 5 0.0000 0.0000 0.0000 0.0000 33.9178 0.0000
# 6 0.0000 0.0000 0.0000 0.0000 0.0000 17.3743
#
#
#
# Elastic Compliance Matrix: (Units=1/GPa)
#
#
# Indices 1 2 3 4 5 6 
#
# 1 0.018543 -0.006861 -0.005142 0.000000 0.000000 0.000000
# 2 -0.006861 0.017746 -0.004520 0.000000 0.000000 0.000000
# 3 -0.005142 -0.004520 0.012257 0.000000 0.000000 0.000000
# 4 0.000000 0.000000 0.000000 0.027146 0.000000 0.000000
# 5 0.000000 0.000000 0.000000 0.000000 0.029483 0.000000
# 6 0.000000 0.000000 0.000000 0.000000 0.000000 0.057556
#
#
# Mechanical properties :
#
#
# Convention : Reuss Voigt Hill
#
# Bulk Modulus (GPa) = 64.51086 66.83863 65.67475
# Shear Modulus (GPa) = 24.88262 27.27126 26.07694
#
# Velocity S-wave (km/s) = 3.56250 3.72958 3.64700
# Velocity P-wave (km/s) = 7.05874 7.25517 7.15763
#
# Compressibility (1/GPa) = 0.01550127
#
# Stress axis : x y z
#
# Youngs Moduli (GPa) = 53.92921 56.34918 81.58577
#
# Poissons Ratio (x) = 0.38662 0.41949
# Poissons Ratio (y) = 0.37001 0.36874
# Poissons Ratio (z) = 0.27729 0.25468
#
# Static dielectric constant tensor:
#      x y z
#    x 1.702400 0.000000 0.000000 
#    y 0.000000 1.728710 0.000000 
#    z 0.000000 0.000000 1.825120 
# 
# From -- ./inp_files/6594.got.cif
#   From: 2010.05.17/outbox.cif.g08.bks.cpg/sg73_4_cif.got.tgz:6594.got - 2010.06.03 17:35:07.
