data_PCOD9532862
_publ_section_title
;
Structure prediction by ZEFSAII (Michael W. Deem and Ramdas Pophale) SiO2 
 PCOD9532862
Probable space group: I B C A 
;
_chemical_formula_sum "Si O2"
_cell_formula_units_Z 120
_cell_length_a 21.713110
_cell_length_b 20.015501
_cell_length_c 14.002432
_cell_angle_alpha 90.000000
_cell_angle_beta 90.000000
_cell_angle_gamma 90.000000
_cell_volume 6085.439793
_symmetry_space_group_name_H-M "I B C A "
_symmetry_group_IT_number 73
_symmetry_cell_setting 'orthorhombic'
loop_
_space_group_symop_operation_xyz
x,y,z
-x,1/2-y,z
x,-y,1/2-z
1/2-x,y,-z
-x,-y,-z
x,1/2+y,-z
-x,y,1/2+z
1/2+x,-y,z
1/2+x,1/2+y,1/2+z
1/2-x,-y,1/2+z
1/2+x,1/2-y,-z
-x,1/2+y,1/2-z
1/2-x,1/2-y,1/2-z
1/2+x,y,1/2-z
1/2-x,1/2+y,z
x,1/2-y,1/2+z
loop_
_atom_site_type_symbol
_atom_site_label
_atom_site_fract_x
_atom_site_fract_y
_atom_site_fract_z
Si Si1 0.517002 0.078374 0.013900
Si Si2 0.054131 0.072726 0.268602
Si Si3 0.560276 0.292635 0.989750
Si Si4 0.922808 0.400284 0.677689
Si Si5 0.735436 0.105108 0.610738
Si Si6 0.128711 0.295582 0.322565
Si Si7 0.819534 0.000000 0.250000
Si Si8 0.854634 0.818119 0.816572
O O1 0.542316 0.084672 0.120239
O O2 0.459767 0.129287 0.000663
O O3 0.566047 0.102910 0.935133
O O4 0.500000 0.000000 0.000000
O O5 0.095446 0.130581 0.225327
O O6 0.987817 0.072169 0.216612
O O7 0.082874 0.000000 0.250000
O O8 0.500000 0.250000 0.963180
O O9 0.584650 0.270282 0.093141
O O10 0.612554 0.286558 0.909732
O O11 0.909423 0.335368 0.741443
O O12 0.865749 0.448587 0.698442
O O13 0.750000 0.091593 0.500000
O O14 0.676890 0.154109 0.627279
O O15 0.720162 0.039476 0.672145
O O16 0.794259 0.142667 0.653003
O O17 0.159975 0.236013 0.264593
#
# Coordination Sequence:
#
# PCOD9532862 Si02
#       8
#    16  16  16  16  16  16   8  16
#     4  12  22  36  62  98 139 175 220 265 352 418
#     4  12  23  38  63 100 140 171 212 285 349 409
#     4  12  24  39  66 102 136 179 216 278 344 412
#     4  11  21  40  65  95 132 175 216 275 340 407
#     4  11  25  49  74  95 130 189 237 280 340 403
#     4  11  25  44  70  94 135 181 232 277 337 405
#     4  10  24  44  72  94 130 176 232 282 336 412
#     4  12  26  43  67  99 136 176 230 284 336 410
#
# _framework density 19.719199
#
# number of rings (size 3 to 8) (size 9 to 14) (size 15 to 20)
#    0.000    0.533    6.000    2.000    2.800    1.067 
#    0.000    0.000    0.000    0.000    0.000    0.000 
#    0.000    0.000    0.000    0.000    0.000    0.000 
#
# Total GULP energy -335439.465508 kJ/mol
# GULP energy per Si atom -5590.657758 kJ/mol
# Density = 1.967432 g / cm^3
# Si number density = 19.719199 Si / 1000 Ang^3
#
#
#
# Elastic Constant Matrix: (Units=GPa)
#
#
# Indices 1 2 3 4 5 6 
#
# 1 47.6456 1.0972 10.6895 0.0000 0.0000 0.0000
# 2 1.0972 56.2212 16.6587 0.0000 0.0000 0.0000
# 3 10.6895 16.6587 115.2036 0.0000 0.0000 0.0000
# 4 0.0000 0.0000 0.0000 28.0792 0.0000 0.0000
# 5 0.0000 0.0000 0.0000 0.0000 26.1625 0.0000
# 6 0.0000 0.0000 0.0000 0.0000 0.0000 26.0028
#
#
#
# Elastic Compliance Matrix: (Units=1/GPa)
#
#
# Indices 1 2 3 4 5 6 
#
# 1 0.021436 0.000179 -0.002015 0.000000 0.000000 0.000000
# 2 0.000179 0.018585 -0.002704 0.000000 0.000000 0.000000
# 3 -0.002015 -0.002704 0.009258 0.000000 0.000000 0.000000
# 4 0.000000 0.000000 0.000000 0.035614 0.000000 0.000000
# 5 0.000000 0.000000 0.000000 0.000000 0.038223 0.000000
# 6 0.000000 0.000000 0.000000 0.000000 0.000000 0.038457
#
#
# Mechanical properties :
#
#
# Convention : Reuss Voigt Hill
#
# Bulk Modulus (GPa) = 24.87637 30.66235 27.76936
# Shear Modulus (GPa) = 27.16617 28.75724 27.96171
#
# Velocity S-wave (km/s) = 3.71570 3.82296 3.76971
# Velocity P-wave (km/s) = 5.57236 5.92199 5.74983
#
# Compressibility (1/GPa) = 0.04019879
#
# Stress axis : x y z
#
# Youngs Moduli (GPa) = 46.64999 53.80806 108.01201
#
# Poissons Ratio (x) = -0.00961 0.21763
# Poissons Ratio (y) = -0.00834 0.29206
# Poissons Ratio (z) = 0.09399 0.14549
#
# Static dielectric constant tensor:
#      x y z
#    x 1.660480 0.000000 0.000000 
#    y 0.000000 1.728120 0.000000 
#    z 0.000000 0.000000 1.673070 
# 
# From -- ./inp_files/18279.got.cif
#   From: 2010.05.17/outbox.cif.g08.bks.cpg/sg73_10_cif.got.tgz:18279.got - 2010.06.03 17:35:07.
