data_PCOD9532769
_publ_section_title
;
Structure prediction by ZEFSAII (Michael W. Deem and Ramdas Pophale) SiO2 
 PCOD9532769
Probable space group: I B C A 
;
_chemical_formula_sum "Si O2"
_cell_formula_units_Z 80
_cell_length_a 21.918248
_cell_length_b 8.621276
_cell_length_c 17.113293
_cell_angle_alpha 90.000000
_cell_angle_beta 90.000000
_cell_angle_gamma 90.000000
_cell_volume 3233.783728
_symmetry_space_group_name_H-M "I B C A "
_symmetry_group_IT_number 73
_symmetry_cell_setting 'orthorhombic'
loop_
_space_group_symop_operation_xyz
x,y,z
-x,1/2-y,z
x,-y,1/2-z
1/2-x,y,-z
-x,-y,-z
x,1/2+y,-z
-x,y,1/2+z
1/2+x,-y,z
1/2+x,1/2+y,1/2+z
1/2-x,-y,1/2+z
1/2+x,1/2-y,-z
-x,1/2+y,1/2-z
1/2-x,1/2-y,1/2-z
1/2+x,y,1/2-z
1/2-x,1/2+y,z
x,1/2-y,1/2+z
loop_
_atom_site_type_symbol
_atom_site_label
_atom_site_fract_x
_atom_site_fract_y
_atom_site_fract_z
Si Si1 0.281875 0.366011 0.689536
Si Si2 0.560937 0.183371 0.777052
Si Si3 0.836983 0.308485 0.105047
Si Si4 0.110650 0.059833 0.512056
Si Si5 0.410201 0.297740 0.611814
O O1 0.301566 0.500000 0.750000
O O2 0.250000 0.250000 0.750000
O O3 0.224556 0.390575 0.632849
O O4 0.338341 0.310177 0.636944
O O5 0.500000 0.250000 0.816722
O O6 0.618563 0.250743 0.825074
O O7 0.562564 0.263459 0.691629
O O8 0.561696 0.000000 0.750000
O O9 0.868388 0.431171 0.048501
O O10 0.833343 0.151445 0.053301
O O11 0.076262 0.184042 0.459319
O O12 0.074698 0.970525 0.580563
#
# Coordination Sequence:
#
# PCOD9532769 Si02
#       5
#    16  16  16  16  16
#     4  12  23  37  69 104 140 179 224 281 328 403
#     4  12  27  48  74  99 131 176 234 292 340 409
#     4  11  24  44  68 102 138 180 227 274 346 403
#     4  10  24  42  68  98 144 182 219 282 338 416
#     4  11  23  45  67 101 142 178 232 275 345 403
#
# _framework density 24.73882
#
# number of rings (size 3 to 8) (size 9 to 14) (size 15 to 20)
#    0.000    0.800    4.000    3.000    2.800    4.800 
#    0.000    6.000    0.000    0.000    0.000    0.000 
#    0.000    0.000    0.000    0.000    0.000    0.000 
#
# Total GULP energy -223194.861465 kJ/mol
# GULP energy per Si atom -5579.871537 kJ/mol
# Density = 2.468251 g / cm^3
# Si number density = 24.738820 Si / 1000 Ang^3
#
#
#
# Elastic Constant Matrix: (Units=GPa)
#
#
# Indices 1 2 3 4 5 6 
#
# 1 121.0565 17.1390 16.2187 0.0000 0.0000 0.0000
# 2 17.1390 86.4599 24.3430 0.0000 0.0000 0.0000
# 3 16.2187 24.3430 120.4956 0.0000 0.0000 0.0000
# 4 0.0000 0.0000 0.0000 53.7615 0.0000 0.0000
# 5 0.0000 0.0000 0.0000 0.0000 2.6284 0.0000
# 6 0.0000 0.0000 0.0000 0.0000 0.0000 16.3507
#
#
#
# Elastic Compliance Matrix: (Units=1/GPa)
#
#
# Indices 1 2 3 4 5 6 
#
# 1 0.008582 -0.001459 -0.000860 0.000000 0.000000 0.000000
# 2 -0.001459 0.012512 -0.002331 0.000000 0.000000 0.000000
# 3 -0.000860 -0.002331 0.008886 0.000000 0.000000 0.000000
# 4 0.000000 0.000000 0.000000 0.018601 0.000000 0.000000
# 5 0.000000 0.000000 0.000000 0.000000 0.380453 0.000000
# 6 0.000000 0.000000 0.000000 0.000000 0.000000 0.061160
#
#
# Mechanical properties :
#
#
# Convention : Reuss Voigt Hill
#
# Bulk Modulus (GPa) = 48.35953 49.26817 48.81385
# Shear Modulus (GPa) = 9.87386 32.56888 21.22137
#
# Velocity S-wave (km/s) = 1.99998 3.63231 2.93203
# Velocity P-wave (km/s) = 4.99236 6.12782 5.58900
#
# Compressibility (1/GPa) = 0.02067845
#
# Stress axis : x y z
#
# Youngs Moduli (GPa) = 116.51684 79.92551 112.53853
#
# Poissons Ratio (x) = 0.11662 0.09683
# Poissons Ratio (y) = 0.17000 0.26236
# Poissons Ratio (z) = 0.10026 0.18633
#
# Static dielectric constant tensor:
#      x y z
#    x 2.024560 0.000000 0.000000 
#    y 0.000000 2.057460 0.000000 
#    z 0.000000 0.000000 1.985030 
# 
# From -- ./inp_files/23808.got.cif
#   From: 2010.05.17/outbox.cif.g08.bks.cpg/sg73_12_cif.got.tgz:23808.got - 2010.06.03 17:35:07.
