data_PCOD9532560
_publ_section_title
;
Structure prediction by ZEFSAII (Michael W. Deem and Ramdas Pophale) SiO2 
 PCOD9532560
Probable space group: I B C A 
;
_chemical_formula_sum "Si O2"
_cell_formula_units_Z 120
_cell_length_a 27.262245
_cell_length_b 8.744640
_cell_length_c 21.622590
_cell_angle_alpha 90.000000
_cell_angle_beta 90.000000
_cell_angle_gamma 90.000000
_cell_volume 5154.793414
_symmetry_space_group_name_H-M "I B C A "
_symmetry_group_IT_number 73
_symmetry_cell_setting 'orthorhombic'
loop_
_space_group_symop_operation_xyz
x,y,z
-x,1/2-y,z
x,-y,1/2-z
1/2-x,y,-z
-x,-y,-z
x,1/2+y,-z
-x,y,1/2+z
1/2+x,-y,z
1/2+x,1/2+y,1/2+z
1/2-x,-y,1/2+z
1/2+x,1/2-y,-z
-x,1/2+y,1/2-z
1/2-x,1/2-y,1/2-z
1/2+x,y,1/2-z
1/2-x,1/2+y,z
x,1/2-y,1/2+z
loop_
_atom_site_type_symbol
_atom_site_label
_atom_site_fract_x
_atom_site_fract_y
_atom_site_fract_z
Si Si1 0.404510 0.864387 0.894585
Si Si2 0.702816 0.831947 0.367090
Si Si3 0.903275 0.500000 0.750000
Si Si4 0.464445 0.371940 0.393519
Si Si5 0.800960 0.322288 0.102986
Si Si6 0.890082 0.662404 0.962698
Si Si7 0.339447 0.680563 0.242411
Si Si8 0.445388 0.055897 0.118385
O O1 0.354120 0.790307 0.872334
O O2 0.443973 0.735960 0.882502
O O3 0.422224 0.022918 0.863996
O O4 0.396321 0.886752 0.967199
O O5 0.745791 0.738995 0.398382
O O6 0.705466 0.825471 0.292327
O O7 0.702735 0.996059 0.400075
O O8 0.872508 0.337337 0.751231
O O9 0.936429 0.501549 0.688441
O O10 0.500000 0.250000 0.359397
O O11 0.434548 0.277230 0.444306
O O12 0.505392 0.493000 0.413406
O O13 0.838991 0.243547 0.055721
O O14 0.821467 0.297497 0.172320
O O15 0.900195 0.515690 0.920064
O O16 0.358548 0.500000 0.250000
#
# Coordination Sequence:
#
# PCOD9532560 Si02
#       8
#    16  16   8  16  16  16  16  16
#     4  12  24  44  68 105 139 186 244 294 358 440
#     4  11  25  42  69 101 138 185 239 297 365 438
#     4  12  22  44  74 110 148 188 244 306 380 446
#     4  10  24  46  68  97 134 183 236 292 354 421
#     4  11  24  44  66 101 139 185 237 296 366 438
#     4  11  24  44  68  97 144 188 233 295 358 431
#     4  10  23  43  70 101 141 194 244 304 368 436
#     4  11  25  42  74 103 142 183 238 303 363 436
#
# _framework density 23.279302999999999
#
# number of rings (size 3 to 8) (size 9 to 14) (size 15 to 20)
#    0.000    1.067    4.000    1.600    3.733    6.400 
#    0.000    6.667    0.000    0.000    0.000    0.000 
#    0.000    0.000    0.000    0.000    0.000    0.000 
#
# Total GULP energy -334342.091713 kJ/mol
# GULP energy per Si atom -5572.368195 kJ/mol
# Density = 2.322632 g / cm^3
# Si number density = 23.279303 Si / 1000 Ang^3
#
#
#
# Elastic Constant Matrix: (Units=GPa)
#
#
# Indices 1 2 3 4 5 6 
#
# 1 125.7082 54.6342 8.0896 0.0000 0.0000 0.0000
# 2 54.6342 127.4741 14.3619 0.0000 0.0000 0.0000
# 3 8.0896 14.3619 53.0942 0.0000 0.0000 0.0000
# 4 0.0000 0.0000 0.0000 -35.2084 0.0000 0.0000
# 5 0.0000 0.0000 0.0000 0.0000 -38.6672 0.0000
# 6 0.0000 0.0000 0.0000 0.0000 0.0000 37.6871
#
#
#
# Elastic Compliance Matrix: (Units=1/GPa)
#
#
# Indices 1 2 3 4 5 6 
#
# 1 0.009783 -0.004151 -0.000368 0.000000 0.000000 0.000000
# 2 -0.004151 0.009853 -0.002033 0.000000 0.000000 0.000000
# 3 -0.000368 -0.002033 0.019440 0.000000 0.000000 0.000000
# 4 0.000000 0.000000 0.000000 -0.028402 0.000000 0.000000
# 5 0.000000 0.000000 0.000000 0.000000 -0.025862 0.000000
# 6 0.000000 0.000000 0.000000 0.000000 0.000000 0.026534
#
#
# Mechanical properties :
#
#
# Convention : Reuss Voigt Hill
#
# Bulk Modulus (GPa) = 38.50193 51.16089 44.83141
# Shear Modulus (GPa) = 151.02368 8.04169 79.53268
#
# Velocity S-wave (km/s) = 8.06322 1.86063 5.85139
# Velocity P-wave (km/s) = 10.16181 5.16145 8.05925
#
# Compressibility (1/GPa) = 0.02597272
#
# Stress axis : x y z
#
# Youngs Moduli (GPa) = 102.21986 101.49194 51.43952
#
# Poissons Ratio (x) = 0.42134 0.01891
# Poissons Ratio (y) = 0.42436 0.10456
# Poissons Ratio (z) = 0.03758 0.20630
#
# Static dielectric constant tensor:
#      x y z
#    x 1.985490 0.000000 0.000000 
#    y 0.000000 1.979890 0.000000 
#    z 0.000000 0.000000 1.964060 
# 
# From -- ./inp_files/30690.got.cif
#   From: 2010.05.17/outbox.cif.g08.bks.cpg/sg73_16_cif.got.tgz:30690.got - 2010.06.03 17:35:07.
