data_PCOD9532113
_publ_section_title
;
Structure prediction by ZEFSAII (Michael W. Deem and Ramdas Pophale) SiO2 
 PCOD9532113
Probable space group: I B C A 
;
_chemical_formula_sum "Si O2"
_cell_formula_units_Z 88
_cell_length_a 12.106837
_cell_length_b 11.085420
_cell_length_c 26.556575
_cell_angle_alpha 90.000000
_cell_angle_beta 90.000000
_cell_angle_gamma 90.000000
_cell_volume 3564.141280
_symmetry_space_group_name_H-M "I B C A "
_symmetry_group_IT_number 73
_symmetry_cell_setting 'orthorhombic'
loop_
_space_group_symop_operation_xyz
x,y,z
-x,1/2-y,z
x,-y,1/2-z
1/2-x,y,-z
-x,-y,-z
x,1/2+y,-z
-x,y,1/2+z
1/2+x,-y,z
1/2+x,1/2+y,1/2+z
1/2-x,-y,1/2+z
1/2+x,1/2-y,-z
-x,1/2+y,1/2-z
1/2-x,1/2-y,1/2-z
1/2+x,y,1/2-z
1/2-x,1/2+y,z
x,1/2-y,1/2+z
loop_
_atom_site_type_symbol
_atom_site_label
_atom_site_fract_x
_atom_site_fract_y
_atom_site_fract_z
Si Si1 0.200695 0.183900 0.874936
Si Si2 0.394312 0.932665 0.683613
Si Si3 0.000000 0.250000 0.033188
Si Si4 0.662511 0.648268 0.962517
Si Si5 0.029654 0.503806 0.408110
Si Si6 0.651733 0.183196 0.220421
O O1 0.316967 0.147195 0.851737
O O2 0.216861 0.290942 0.914265
O O3 0.127710 0.233139 0.827655
O O4 0.140267 0.074463 0.903263
O O5 0.427715 0.860648 0.734028
O O6 0.493241 0.978228 0.649695
O O7 0.321755 0.051113 0.697573
O O8 0.026303 0.366635 0.065997
O O9 0.894740 0.253281 0.996045
O O10 0.563449 0.568761 0.939852
O O11 0.750000 0.586918 0.000000
O O12 0.750000 0.250000 0.250000
#
# Coordination Sequence:
#
# PCOD9532113 Si02
#       6
#    16  16   8  16  16  16
#     4  11  23  45  73  99 144 187 235 295 356 421
#     4  10  22  41  70 105 141 185 231 286 361 429
#     4  12  28  48  64 106 148 180 248 298 352 434
#     4  12  26  45  74 101 139 192 238 300 355 421
#     4  12  26  45  72 104 142 184 244 292 357 433
#     4   9  20  42  69 101 143 180 232 285 350 430
#
# _framework density 24.690377000000002
#
# number of rings (size 3 to 8) (size 9 to 14) (size 15 to 20)
#    0.000    1.091    3.636    1.636    2.545    3.636 
#    0.000   12.727    0.000    0.000    0.000    0.000 
#    0.000    0.000    0.000    0.000    0.000    0.000 
#
# Total GULP energy -245915.231052 kJ/mol
# GULP energy per Si atom -5588.982524 kJ/mol
# Density = 2.463418 g / cm^3
# Si number density = 24.690377 Si / 1000 Ang^3
#
#
#
# Elastic Constant Matrix: (Units=GPa)
#
#
# Indices 1 2 3 4 5 6 
#
# 1 25.1790 0.2865 15.9908 0.0000 0.0000 0.0000
# 2 0.2865 113.8202 49.1832 0.0000 0.0000 0.0000
# 3 15.9908 49.1832 147.4791 0.0000 0.0000 0.0000
# 4 0.0000 0.0000 0.0000 44.2178 0.0000 0.0000
# 5 0.0000 0.0000 0.0000 0.0000 4.2996 0.0000
# 6 0.0000 0.0000 0.0000 0.0000 0.0000 23.7897
#
#
#
# Elastic Compliance Matrix: (Units=1/GPa)
#
#
# Indices 1 2 3 4 5 6 
#
# 1 0.043134 0.002234 -0.005422 0.000000 0.000000 0.000000
# 2 0.002234 0.010381 -0.003704 0.000000 0.000000 0.000000
# 3 -0.005422 -0.003704 0.008604 0.000000 0.000000 0.000000
# 4 0.000000 0.000000 0.000000 0.022615 0.000000 0.000000
# 5 0.000000 0.000000 0.000000 0.000000 0.232581 0.000000
# 6 0.000000 0.000000 0.000000 0.000000 0.000000 0.042035
#
#
# Mechanical properties :
#
#
# Convention : Reuss Voigt Hill
#
# Bulk Modulus (GPa) = 20.68914 46.37770 33.53342
# Shear Modulus (GPa) = 12.84539 29.19596 21.02067
#
# Velocity S-wave (km/s) = 2.28339 3.44246 2.92099
# Velocity P-wave (km/s) = 3.91784 5.88431 4.99873
#
# Compressibility (1/GPa) = 0.04833455
#
# Stress axis : x y z
#
# Youngs Moduli (GPa) = 23.18378 96.33181 116.22726
#
# Poissons Ratio (x) = -0.21524 0.63019
# Poissons Ratio (y) = -0.05180 0.43053
# Poissons Ratio (z) = 0.12570 0.35683
#
# Static dielectric constant tensor:
#      x y z
#    x 2.010810 0.000000 0.000000 
#    y 0.000000 1.945360 0.000000 
#    z 0.000000 0.000000 1.982060 
# 
# From -- ./inp_files/19258.got.cif
#   From: 2010.05.17/outbox.cif.g08.bks.cpg/sg73_10_cif.got.tgz:19258.got - 2010.06.03 17:35:07.
