data_PCOD9532767
_publ_section_title
;
Structure prediction by ZEFSAII (Michael W. Deem and Ramdas Pophale) SiO2 
 PCOD9532767
Probable space group: I B C A 
;
_chemical_formula_sum "Si O2"
_cell_formula_units_Z 64
_cell_length_a 12.290843
_cell_length_b 8.976716
_cell_length_c 28.093583
_cell_angle_alpha 90.000000
_cell_angle_beta 90.000000
_cell_angle_gamma 90.000000
_cell_volume 3099.604540
_symmetry_space_group_name_H-M "I B C A "
_symmetry_group_IT_number 73
_symmetry_cell_setting 'orthorhombic'
loop_
_space_group_symop_operation_xyz
x,y,z
-x,1/2-y,z
x,-y,1/2-z
1/2-x,y,-z
-x,-y,-z
x,1/2+y,-z
-x,y,1/2+z
1/2+x,-y,z
1/2+x,1/2+y,1/2+z
1/2-x,-y,1/2+z
1/2+x,1/2-y,-z
-x,1/2+y,1/2-z
1/2-x,1/2-y,1/2-z
1/2+x,y,1/2-z
1/2-x,1/2+y,z
x,1/2-y,1/2+z
loop_
_atom_site_type_symbol
_atom_site_label
_atom_site_fract_x
_atom_site_fract_y
_atom_site_fract_z
Si Si1 0.000000 0.750000 0.019261
Si Si2 0.246208 0.500000 0.250000
Si Si3 0.128989 0.246200 0.807672
Si Si4 0.887276 0.304861 0.072463
Si Si5 0.180234 0.874638 0.089801
O O1 0.913713 0.670409 0.052845
O O2 0.927291 0.842941 0.981311
O O3 0.318855 0.375952 0.224423
O O4 0.174359 0.589047 0.211369
O O5 0.160829 0.285711 0.861536
O O6 0.000000 0.250000 0.803487
O O7 0.834225 0.448839 0.096131
O O8 0.798772 0.173777 0.071147
O O9 0.000000 0.250000 0.096500
#
# Coordination Sequence:
#
# PCOD9532767 Si02
#       5
#     8   8  16  16  16
#     4  10  24  42  68  92 140 182 228 280 328 390
#     4  10  24  44  66 102 128 168 212 270 348 394
#     4  11  23  43  71  97 132 169 215 275 328 408
#     4  10  27  41  65  96 139 183 227 279 328 397
#     4  12  23  44  68  99 133 182 230 274 337 399
#
# _framework density 20.647797000000001
#
# number of rings (size 3 to 8) (size 9 to 14) (size 15 to 20)
#    0.750    0.500    1.250    3.750    3.500    4.000 
#    0.000    6.250    0.000    0.000    0.000    0.000 
#    0.000    0.000    0.000    0.000    0.000    0.000 
#
# Total GULP energy -178675.263859 kJ/mol
# GULP energy per Si atom -5583.601996 kJ/mol
# Density = 2.060080 g / cm^3
# Si number density = 20.647797 Si / 1000 Ang^3
#
#
#
# Elastic Constant Matrix: (Units=GPa)
#
#
# Indices 1 2 3 4 5 6 
#
# 1 146.1824 51.7462 23.7499 0.0000 0.0000 0.0000
# 2 51.7462 111.3304 28.4728 0.0000 0.0000 0.0000
# 3 23.7499 28.4728 96.7273 0.0000 0.0000 0.0000
# 4 0.0000 0.0000 0.0000 17.2306 0.0000 0.0000
# 5 0.0000 0.0000 0.0000 0.0000 30.4771 0.0000
# 6 0.0000 0.0000 0.0000 0.0000 0.0000 16.6073
#
#
#
# Elastic Compliance Matrix: (Units=1/GPa)
#
#
# Indices 1 2 3 4 5 6 
#
# 1 0.008272 -0.003596 -0.000972 0.000000 0.000000 0.000000
# 2 -0.003596 0.011277 -0.002437 0.000000 0.000000 0.000000
# 3 -0.000972 -0.002437 0.011294 0.000000 0.000000 0.000000
# 4 0.000000 0.000000 0.000000 0.058036 0.000000 0.000000
# 5 0.000000 0.000000 0.000000 0.000000 0.032811 0.000000
# 6 0.000000 0.000000 0.000000 0.000000 0.000000 0.060214
#
#
# Mechanical properties :
#
#
# Convention : Reuss Voigt Hill
#
# Bulk Modulus (GPa) = 59.40738 62.46419 60.93578
# Shear Modulus (GPa) = 24.81073 29.54777 27.17925
#
# Velocity S-wave (km/s) = 3.47019 3.78701 3.63206
# Velocity P-wave (km/s) = 6.70004 7.03135 6.86769
#
# Compressibility (1/GPa) = 0.01683292
#
# Stress axis : x y z
#
# Youngs Moduli (GPa) = 120.89453 88.67764 88.53991
#
# Poissons Ratio (x) = 0.31888 0.08610
# Poissons Ratio (y) = 0.43473 0.21573
# Poissons Ratio (z) = 0.11757 0.21607
#
# Static dielectric constant tensor:
#      x y z
#    x 1.713890 0.000000 0.000000 
#    y 0.000000 1.770480 0.000000 
#    z 0.000000 0.000000 1.736500 
# 
# From -- ./inp_files/9067.got.cif
#   From: 2010.05.17/outbox.cif.g08.bks.cpg/sg73_5_cif.got.tgz:9067.got - 2010.06.03 17:35:07.
