data_PCOD9532079
_publ_section_title
;
Structure prediction by ZEFSAII (Michael W. Deem and Ramdas Pophale) SiO2 
 PCOD9532079
Probable space group: I B C A 
;
_chemical_formula_sum "Si O2"
_cell_formula_units_Z 72
_cell_length_a 10.957410
_cell_length_b 13.869599
_cell_length_c 22.261352
_cell_angle_alpha 90.000000
_cell_angle_beta 90.000000
_cell_angle_gamma 90.000000
_cell_volume 3383.166361
_symmetry_space_group_name_H-M "I B C A "
_symmetry_group_IT_number 73
_symmetry_cell_setting 'orthorhombic'
loop_
_space_group_symop_operation_xyz
x,y,z
-x,1/2-y,z
x,-y,1/2-z
1/2-x,y,-z
-x,-y,-z
x,1/2+y,-z
-x,y,1/2+z
1/2+x,-y,z
1/2+x,1/2+y,1/2+z
1/2-x,-y,1/2+z
1/2+x,1/2-y,-z
-x,1/2+y,1/2-z
1/2-x,1/2-y,1/2-z
1/2+x,y,1/2-z
1/2-x,1/2+y,z
x,1/2-y,1/2+z
loop_
_atom_site_type_symbol
_atom_site_label
_atom_site_fract_x
_atom_site_fract_y
_atom_site_fract_z
Si Si1 0.719747 0.404036 0.715645
Si Si2 0.334395 0.339466 0.598607
Si Si3 0.750000 0.990563 0.000000
Si Si4 0.111726 0.880068 0.088965
Si Si5 0.126628 0.279627 0.690933
O O1 0.755735 0.500000 0.750000
O O2 0.685619 0.419473 0.646487
O O3 0.821220 0.321098 0.715382
O O4 0.610681 0.646967 0.746468
O O5 0.294677 0.418743 0.551261
O O6 0.472848 0.371800 0.612300
O O7 0.346962 0.229514 0.575115
O O8 0.230871 0.327535 0.649536
O O9 0.645196 0.056252 0.030997
O O10 0.000000 0.250000 0.659947
#
# Coordination Sequence:
#
# PCOD9532079 Si02
#       5
#    16  16   8  16  16
#     4  10  22  41  65 100 134 172 218 278 346 406
#     4  10  23  45  65  94 136 176 220 285 336 396
#     4  12  22  44  66 102 124 178 234 276 334 402
#     4  10  23  43  68  94 135 175 223 277 341 400
#     4  10  23  42  67  99 136 178 223 272 346 424
#
# _framework density 21.281838
#
# number of rings (size 3 to 8) (size 9 to 14) (size 15 to 20)
#    0.000    1.778    0.000    2.667    9.333    0.889 
#   32.000    0.000    0.000    0.000    0.000    0.000 
#    0.000    0.000    0.000    0.000    0.000    0.000 
#
# Total GULP energy -200748.454048 kJ/mol
# GULP energy per Si atom -5576.345946 kJ/mol
# Density = 2.123340 g / cm^3
# Si number density = 21.281838 Si / 1000 Ang^3
#
#
#
# Elastic Constant Matrix: (Units=GPa)
#
#
# Indices 1 2 3 4 5 6 
#
# 1 94.4802 34.1812 43.0630 0.0000 0.0000 0.0000
# 2 34.1812 122.8725 70.6615 0.0000 0.0000 0.0000
# 3 43.0630 70.6615 97.6640 0.0000 0.0000 0.0000
# 4 0.0000 0.0000 0.0000 53.5090 0.0000 0.0000
# 5 0.0000 0.0000 0.0000 0.0000 25.0088 0.0000
# 6 0.0000 0.0000 0.0000 0.0000 0.0000 -24.8809
#
#
#
# Elastic Compliance Matrix: (Units=1/GPa)
#
#
# Indices 1 2 3 4 5 6 
#
# 1 0.013269 -0.000559 -0.005446 0.000000 0.000000 0.000000
# 2 -0.000559 0.013961 -0.009855 0.000000 0.000000 0.000000
# 3 -0.005446 -0.009855 0.019770 0.000000 0.000000 0.000000
# 4 0.000000 0.000000 0.000000 0.018688 0.000000 0.000000
# 5 0.000000 0.000000 0.000000 0.000000 0.039986 0.000000
# 6 0.000000 0.000000 0.000000 0.000000 0.000000 -0.040191
#
#
# Mechanical properties :
#
#
# Convention : Reuss Voigt Hill
#
# Bulk Modulus (GPa) = 65.44163 67.86980 66.65572
# Shear Modulus (GPa) = 48.87742 21.86810 35.37276
#
# Velocity S-wave (km/s) = 4.79756 3.20902 4.08132
# Velocity P-wave (km/s) = 7.84255 6.75948 7.32107
#
# Compressibility (1/GPa) = 0.01528079
#
# Stress axis : x y z
#
# Youngs Moduli (GPa) = 75.36497 71.62656 50.58062
#
# Poissons Ratio (x) = 0.04006 0.27546
# Poissons Ratio (y) = 0.04215 0.49845
# Poissons Ratio (z) = 0.41043 0.70585
#
# Static dielectric constant tensor:
#      x y z
#    x 1.843920 0.000000 0.000000 
#    y 0.000000 1.756620 0.000000 
#    z 0.000000 0.000000 1.805600 
# 
# From -- ./inp_files/31632.got.cif
#   From: 2010.05.17/outbox.cif.g08.bks.cpg/sg73_16_cif.got.tgz:31632.got - 2010.06.03 17:35:07.
