data_PCOD9532417
_publ_section_title
;
Structure prediction by ZEFSAII (Michael W. Deem and Ramdas Pophale) SiO2 
 PCOD9532417
Probable space group: I B C A 
;
_chemical_formula_sum "Si O2"
_cell_formula_units_Z 72
_cell_length_a 20.123377
_cell_length_b 16.393255
_cell_length_c 9.044672
_cell_angle_alpha 90.000000
_cell_angle_beta 90.000000
_cell_angle_gamma 90.000000
_cell_volume 2983.725597
_symmetry_space_group_name_H-M "I B C A "
_symmetry_group_IT_number 73
_symmetry_cell_setting 'orthorhombic'
loop_
_space_group_symop_operation_xyz
x,y,z
-x,1/2-y,z
x,-y,1/2-z
1/2-x,y,-z
-x,-y,-z
x,1/2+y,-z
-x,y,1/2+z
1/2+x,-y,z
1/2+x,1/2+y,1/2+z
1/2-x,-y,1/2+z
1/2+x,1/2-y,-z
-x,1/2+y,1/2-z
1/2-x,1/2-y,1/2-z
1/2+x,y,1/2-z
1/2-x,1/2+y,z
x,1/2-y,1/2+z
loop_
_atom_site_type_symbol
_atom_site_label
_atom_site_fract_x
_atom_site_fract_y
_atom_site_fract_z
Si Si1 0.289229 0.000000 0.750000
Si Si2 0.472171 0.388199 0.506727
Si Si3 0.250000 0.888319 0.500000
Si Si4 0.634244 0.273123 0.892631
Si Si5 0.374877 0.137823 0.590734
Si Si6 0.479000 0.500000 0.750000
O O1 0.335702 0.058913 0.648637
O O2 0.245578 0.945097 0.642807
O O3 0.435082 0.306480 0.460178
O O4 0.547432 0.377016 0.561841
O O5 0.439486 0.439429 0.640839
O O6 0.477526 0.444918 0.361669
O O7 0.187914 0.831328 0.467783
O O8 0.649165 0.181101 0.940215
O O9 0.633370 0.294599 0.720165
#
# Coordination Sequence:
#
# PCOD9532417 Si02
#       6
#     8  16   8  16  16   8
#     4  10  25  49  68  96 131 180 225 290 334 421
#     4  11  22  41  65 104 137 177 219 281 345 406
#     4  10  26  46  68  98 132 178 232 270 344 410
#     4  11  26  43  66  97 138 176 226 281 338 414
#     4  11  25  44  69  98 141 173 227 292 345 403
#     4  10  23  35  68 100 145 170 219 270 352 401
#
# _framework density 24.130904000000001
#
# number of rings (size 3 to 8) (size 9 to 14) (size 15 to 20)
#    0.000    1.333    2.222    1.333   12.444    8.889 
#    0.000    0.000    0.000    0.000    0.000    0.000 
#    0.000    0.000    0.000    0.000    0.000    0.000 
#
# Total GULP energy -201425.429555 kJ/mol
# GULP energy per Si atom -5595.150821 kJ/mol
# Density = 2.407598 g / cm^3
# Si number density = 24.130904 Si / 1000 Ang^3
#
#
#
# Elastic Constant Matrix: (Units=GPa)
#
#
# Indices 1 2 3 4 5 6 
#
# 1 53.5072 0.4768 27.9875 0.0000 0.0000 0.0000
# 2 0.4768 82.3541 37.4367 0.0000 0.0000 0.0000
# 3 27.9875 37.4367 108.1809 0.0000 0.0000 0.0000
# 4 0.0000 0.0000 0.0000 63.4841 0.0000 0.0000
# 5 0.0000 0.0000 0.0000 0.0000 26.8640 0.0000
# 6 0.0000 0.0000 0.0000 0.0000 0.0000 7.3903
#
#
#
# Elastic Compliance Matrix: (Units=1/GPa)
#
#
# Indices 1 2 3 4 5 6 
#
# 1 0.022200 0.002946 -0.006763 0.000000 0.000000 0.000000
# 2 0.002946 0.014800 -0.005884 0.000000 0.000000 0.000000
# 3 -0.006763 -0.005884 0.013030 0.000000 0.000000 0.000000
# 4 0.000000 0.000000 0.000000 0.015752 0.000000 0.000000
# 5 0.000000 0.000000 0.000000 0.000000 0.037225 0.000000
# 6 0.000000 0.000000 0.000000 0.000000 0.000000 0.135312
#
#
# Mechanical properties :
#
#
# Convention : Reuss Voigt Hill
#
# Bulk Modulus (GPa) = 32.64963 41.76044 37.20504
# Shear Modulus (GPa) = 18.66158 31.42375 25.04267
#
# Velocity S-wave (km/s) = 2.78393 3.61254 3.22496
# Velocity P-wave (km/s) = 4.88807 5.89440 5.41467
#
# Compressibility (1/GPa) = 0.03062822
#
# Stress axis : x y z
#
# Youngs Moduli (GPa) = 45.04466 67.56608 76.74880
#
# Poissons Ratio (x) = -0.19903 0.51904
# Poissons Ratio (y) = -0.13269 0.45158
# Poissons Ratio (z) = 0.30463 0.39755
#
# Static dielectric constant tensor:
#      x y z
#    x 1.945710 0.000000 0.000000 
#    y 0.000000 1.978410 0.000000 
#    z 0.000000 0.000000 1.958700 
# 
# From -- ./inp_files/5371.got.cif
#   From: 2010.05.17/outbox.cif.g08.bks.cpg/sg73_3_cif.got.tgz:5371.got - 2010.06.03 17:35:07.
