data_PCOD9532512
_publ_section_title
;
Structure prediction by ZEFSAII (Michael W. Deem and Ramdas Pophale) SiO2 
 PCOD9532512
Probable space group: I B C A 
;
_chemical_formula_sum "Si O2"
_cell_formula_units_Z 88
_cell_length_a 14.649908
_cell_length_b 12.748714
_cell_length_c 19.566772
_cell_angle_alpha 90.000000
_cell_angle_beta 90.000000
_cell_angle_gamma 90.000000
_cell_volume 3654.436839
_symmetry_space_group_name_H-M "I B C A "
_symmetry_group_IT_number 73
_symmetry_cell_setting 'orthorhombic'
loop_
_space_group_symop_operation_xyz
x,y,z
-x,1/2-y,z
x,-y,1/2-z
1/2-x,y,-z
-x,-y,-z
x,1/2+y,-z
-x,y,1/2+z
1/2+x,-y,z
1/2+x,1/2+y,1/2+z
1/2-x,-y,1/2+z
1/2+x,1/2-y,-z
-x,1/2+y,1/2-z
1/2-x,1/2-y,1/2-z
1/2+x,y,1/2-z
1/2-x,1/2+y,z
x,1/2-y,1/2+z
loop_
_atom_site_type_symbol
_atom_site_label
_atom_site_fract_x
_atom_site_fract_y
_atom_site_fract_z
Si Si1 0.000000 0.250000 0.393428
Si Si2 0.445100 0.541965 0.828132
Si Si3 0.894388 0.742100 0.858540
Si Si4 0.269750 0.435156 0.817355
Si Si5 0.120337 0.973202 0.403009
Si Si6 0.640738 0.359549 0.501915
O O1 0.039547 0.337569 0.343044
O O2 0.921081 0.296016 0.443109
O O3 0.454101 0.500000 0.750000
O O4 0.345121 0.509894 0.851028
O O5 0.520092 0.485936 0.873557
O O6 0.823224 0.675613 0.811495
O O7 0.855058 0.855781 0.880495
O O8 0.000000 0.750000 0.832617
O O9 0.896443 0.678221 0.929327
O O10 0.243965 0.500000 0.750000
O O11 0.182298 0.440227 0.864299
O O12 0.126136 0.016685 0.479844
O O13 0.750000 0.338530 0.500000
#
# Coordination Sequence:
#
# PCOD9532512 Si02
#       6
#     8  16  16  16  16  16
#     4  10  24  42  70 102 144 190 242 298 366 428
#     4  10  23  42  66 100 141 187 243 300 354 426
#     4  12  25  46  72 103 145 195 241 294 373 426
#     4  11  25  45  68 104 140 184 246 297 358 434
#     4  11  25  43  71 100 143 187 243 296 358 438
#     4  11  24  44  67 107 143 188 240 298 362 429
#
# _framework density 24.080316
#
# number of rings (size 3 to 8) (size 9 to 14) (size 15 to 20)
#    0.000    1.091    4.545    0.545    2.545    6.545 
#    0.000    0.000    0.000    0.000    0.000    0.000 
#    0.000    0.000    0.000    0.000    0.000    0.000 
#
# Total GULP energy -245714.584451 kJ/mol
# GULP energy per Si atom -5584.422374 kJ/mol
# Density = 2.402551 g / cm^3
# Si number density = 24.080316 Si / 1000 Ang^3
#
#
#
# Elastic Constant Matrix: (Units=GPa)
#
#
# Indices 1 2 3 4 5 6 
#
# 1 129.1159 12.0516 21.1397 0.0000 0.0000 0.0000
# 2 12.0516 128.5633 8.5024 0.0000 0.0000 0.0000
# 3 21.1397 8.5024 83.3231 0.0000 0.0000 0.0000
# 4 0.0000 0.0000 0.0000 54.8228 0.0000 0.0000
# 5 0.0000 0.0000 0.0000 0.0000 23.5542 0.0000
# 6 0.0000 0.0000 0.0000 0.0000 0.0000 17.5953
#
#
#
# Elastic Compliance Matrix: (Units=1/GPa)
#
#
# Indices 1 2 3 4 5 6 
#
# 1 0.008131 -0.000630 -0.001999 0.000000 0.000000 0.000000
# 2 -0.000630 0.007880 -0.000644 0.000000 0.000000 0.000000
# 3 -0.001999 -0.000644 0.012574 0.000000 0.000000 0.000000
# 4 0.000000 0.000000 0.000000 0.018241 0.000000 0.000000
# 5 0.000000 0.000000 0.000000 0.000000 0.042455 0.000000
# 6 0.000000 0.000000 0.000000 0.000000 0.000000 0.056833
#
#
# Mechanical properties :
#
#
# Convention : Reuss Voigt Hill
#
# Bulk Modulus (GPa) = 45.37314 47.15441 46.26378
# Shear Modulus (GPa) = 31.24867 39.14836 35.19852
#
# Velocity S-wave (km/s) = 3.60625 4.03642 3.82738
# Velocity P-wave (km/s) = 6.01858 6.43026 6.22783
#
# Compressibility (1/GPa) = 0.02203947
#
# Stress axis : x y z
#
# Youngs Moduli (GPa) = 122.98589 126.90458 79.52741
#
# Poissons Ratio (x) = 0.07995 0.15894
# Poissons Ratio (y) = 0.07748 0.05123
# Poissons Ratio (z) = 0.24580 0.08176
#
# Static dielectric constant tensor:
#      x y z
#    x 1.888250 0.000000 0.000000 
#    y 0.000000 2.010690 0.000000 
#    z 0.000000 0.000000 1.995510 
# 
# From -- ./inp_files/29396.got.cif
#   From: 2010.05.17/outbox.cif.g08.bks.cpg/sg73_15_cif.got.tgz:29396.got - 2010.06.03 17:35:07.
