data_PCOD9532970
_publ_section_title
;
Structure prediction by ZEFSAII (Michael W. Deem and Ramdas Pophale) SiO2 
 PCOD9532970
Probable space group: I B C A 
;
_chemical_formula_sum "Si O2"
_cell_formula_units_Z 88
_cell_length_a 32.101401
_cell_length_b 21.508539
_cell_length_c 5.367747
_cell_angle_alpha 90.000000
_cell_angle_beta 90.000000
_cell_angle_gamma 90.000000
_cell_volume 3706.183651
_symmetry_space_group_name_H-M "I B C A "
_symmetry_group_IT_number 73
_symmetry_cell_setting 'orthorhombic'
loop_
_space_group_symop_operation_xyz
x,y,z
-x,1/2-y,z
x,-y,1/2-z
1/2-x,y,-z
-x,-y,-z
x,1/2+y,-z
-x,y,1/2+z
1/2+x,-y,z
1/2+x,1/2+y,1/2+z
1/2-x,-y,1/2+z
1/2+x,1/2-y,-z
-x,1/2+y,1/2-z
1/2-x,1/2-y,1/2-z
1/2+x,y,1/2-z
1/2-x,1/2+y,z
x,1/2-y,1/2+z
loop_
_atom_site_type_symbol
_atom_site_label
_atom_site_fract_x
_atom_site_fract_y
_atom_site_fract_z
Si Si1 0.117178 0.500000 0.750000
Si Si2 0.027630 0.500000 0.250000
Si Si3 0.483269 0.679466 0.070737
Si Si4 0.250000 0.467290 0.000000
Si Si5 0.087560 0.396968 0.419318
Si Si6 0.200061 0.287481 0.976587
Si Si7 0.334517 0.589219 0.593848
O O1 0.091174 0.441630 0.656844
O O2 0.145035 0.529256 0.533117
O O3 0.058087 0.439848 0.246202
O O4 0.000000 0.500000 0.500000
O O5 0.500000 0.750000 0.097387
O O6 0.510167 0.651659 0.843992
O O7 0.436281 0.666501 0.983584
O O8 0.231049 0.500000 0.750000
O O9 0.287005 0.430343 0.859281
O O10 0.133552 0.391226 0.308573
O O11 0.191101 0.258052 0.246789
O O12 0.173083 0.349272 0.930502
O O13 0.250000 0.300392 0.000000
#
# Coordination Sequence:
#
# PCOD9532970 Si02
#       7
#     8   8  16   8  16  16  16
#     4  12  25  46  71 116 158 198 246 315 388 465
#     4  12  25  42  69 100 140 190 236 297 380 455
#     4  10  24  49  76 105 143 192 250 313 376 453
#     4  12  26  44  72 112 156 206 256 310 394 454
#     4  12  26  45  72 110 153 192 252 310 384 465
#     4  10  24  48  74 104 143 199 263 314 372 444
#     4  12  26  47  74 111 158 205 253 324 380 464
#
# _framework density 23.7441
#
# number of rings (size 3 to 8) (size 9 to 14) (size 15 to 20)
#    0.000    0.727    3.636    2.727    5.091    0.000 
#    6.545    0.000    0.000    0.000    0.000    0.000 
#    0.000    0.000    0.000    0.000    0.000    0.000 
#
# Total GULP energy -245506.707398 kJ/mol
# GULP energy per Si atom -5579.697895 kJ/mol
# Density = 2.369006 g / cm^3
# Si number density = 23.744100 Si / 1000 Ang^3
#
#
#
# Elastic Constant Matrix: (Units=GPa)
#
#
# Indices 1 2 3 4 5 6 
#
# 1 117.6013 34.5204 29.5225 0.0000 0.0000 0.0000
# 2 34.5204 89.2022 2.8216 0.0000 0.0000 0.0000
# 3 29.5225 2.8216 120.0724 0.0000 0.0000 0.0000
# 4 0.0000 0.0000 0.0000 22.6430 0.0000 0.0000
# 5 0.0000 0.0000 0.0000 0.0000 20.8059 0.0000
# 6 0.0000 0.0000 0.0000 0.0000 0.0000 40.8170
#
#
#
# Elastic Compliance Matrix: (Units=1/GPa)
#
#
# Indices 1 2 3 4 5 6 
#
# 1 0.010256 -0.003892 -0.002430 0.000000 0.000000 0.000000
# 2 -0.003892 0.012696 0.000659 0.000000 0.000000 0.000000
# 3 -0.002430 0.000659 0.008910 0.000000 0.000000 0.000000
# 4 0.000000 0.000000 0.000000 0.044164 0.000000 0.000000
# 5 0.000000 0.000000 0.000000 0.000000 0.048063 0.000000
# 6 0.000000 0.000000 0.000000 0.000000 0.000000 0.024500
#
#
# Mechanical properties :
#
#
# Convention : Reuss Voigt Hill
#
# Bulk Modulus (GPa) = 48.69779 51.17831 49.93805
# Shear Modulus (GPa) = 29.98305 34.18728 32.08517
#
# Velocity S-wave (km/s) = 3.55739 3.79862 3.67998
# Velocity P-wave (km/s) = 6.11778 6.39063 6.25570
#
# Compressibility (1/GPa) = 0.02053481
#
# Stress axis : x y z
#
# Youngs Moduli (GPa) = 97.50547 78.76593 112.22919
#
# Poissons Ratio (x) = 0.30656 0.27274
# Poissons Ratio (y) = 0.37950 -0.07391
# Poissons Ratio (z) = 0.23695 -0.05188
#
# Static dielectric constant tensor:
#      x y z
#    x 1.958690 0.000000 0.000000 
#    y 0.000000 1.805000 0.000000 
#    z 0.000000 0.000000 2.027860 
# 
# From -- ./inp_files/3129.got.cif
#   From: 2010.05.17/outbox.cif.g08.bks.cpg/sg73_2_cif.got.tgz:3129.got - 2010.06.03 17:35:07.
