data_PCOD9532376
_publ_section_title
;
Structure prediction by ZEFSAII (Michael W. Deem and Ramdas Pophale) SiO2 
 PCOD9532376
Probable space group: I B C A 
;
_chemical_formula_sum "Si O2"
_cell_formula_units_Z 104
_cell_length_a 27.066993
_cell_length_b 19.644014
_cell_length_c 9.574967
_cell_angle_alpha 90.000000
_cell_angle_beta 90.000000
_cell_angle_gamma 90.000000
_cell_volume 5091.051983
_symmetry_space_group_name_H-M "I B C A "
_symmetry_group_IT_number 73
_symmetry_cell_setting 'orthorhombic'
loop_
_space_group_symop_operation_xyz
x,y,z
-x,1/2-y,z
x,-y,1/2-z
1/2-x,y,-z
-x,-y,-z
x,1/2+y,-z
-x,y,1/2+z
1/2+x,-y,z
1/2+x,1/2+y,1/2+z
1/2-x,-y,1/2+z
1/2+x,1/2-y,-z
-x,1/2+y,1/2-z
1/2-x,1/2-y,1/2-z
1/2+x,y,1/2-z
1/2-x,1/2+y,z
x,1/2-y,1/2+z
loop_
_atom_site_type_symbol
_atom_site_label
_atom_site_fract_x
_atom_site_fract_y
_atom_site_fract_z
Si Si1 0.667244 0.744490 0.461831
Si Si2 0.561459 0.688239 0.944592
Si Si3 0.806905 0.532969 0.961831
Si Si4 0.697052 0.609353 0.307873
Si Si5 0.613981 0.432414 0.686947
Si Si6 0.000000 0.250000 0.189342
Si Si7 0.305958 0.336262 0.279526
O O1 0.611002 0.768607 0.474308
O O2 0.671687 0.675139 0.372623
O O3 0.690637 0.724815 0.609377
O O4 0.694458 0.803102 0.373842
O O5 0.578056 0.611831 0.909256
O O6 0.537508 0.715168 0.799325
O O7 0.526678 0.698821 0.079570
O O8 0.819705 0.590240 0.847538
O O9 0.812861 0.458328 0.896445
O O10 0.750000 0.541374 0.000000
O O11 0.840928 0.540206 0.094361
O O12 0.756183 0.622495 0.307700
O O13 0.590044 0.500000 0.750000
O O14 0.643577 0.380506 0.789671
#
# Coordination Sequence:
#
# PCOD9532376 Si02
#       7
#    16  16  16  16  16   8  16
#     4  11  23  37  61  90 123 157 211 259 306 352
#     4  10  23  41  69  93 119 153 196 253 328 388
#     4  11  22  36  57  82 124 179 219 244 290 346
#     4  11  23  36  55  85 128 175 216 253 287 344
#     4  11  22  39  64  89 126 165 212 253 302 363
#     4  10  22  46  68  94 118 148 190 256 332 410
#     4  11  23  38  58  88 131 175 215 255 298 342
#
# _framework density 20.427997000000001
#
# number of rings (size 3 to 8) (size 9 to 14) (size 15 to 20)
#    0.000    1.231    1.538    5.538    6.462    0.000 
#    0.000    0.769    0.000    0.000    0.000    0.000 
#    0.000    0.000    0.000    0.000    0.000    0.000 
#
# Total GULP energy -290743.057192 kJ/mol
# GULP energy per Si atom -5591.212638 kJ/mol
# Density = 2.038150 g / cm^3
# Si number density = 20.427997 Si / 1000 Ang^3
#
#
#
# Elastic Constant Matrix: (Units=GPa)
#
#
# Indices 1 2 3 4 5 6 
#
# 1 34.7356 14.8915 2.2445 0.0000 0.0000 0.0000
# 2 14.8915 66.4414 18.0773 0.0000 0.0000 0.0000
# 3 2.2445 18.0773 83.3560 0.0000 0.0000 0.0000
# 4 0.0000 0.0000 0.0000 28.5154 0.0000 0.0000
# 5 0.0000 0.0000 0.0000 0.0000 18.5835 0.0000
# 6 0.0000 0.0000 0.0000 0.0000 0.0000 16.0485
#
#
#
# Elastic Compliance Matrix: (Units=1/GPa)
#
#
# Indices 1 2 3 4 5 6 
#
# 1 0.031891 -0.007348 0.000735 0.000000 0.000000 0.000000
# 2 -0.007348 0.017688 -0.003638 0.000000 0.000000 0.000000
# 3 0.000735 -0.003638 0.012766 0.000000 0.000000 0.000000
# 4 0.000000 0.000000 0.000000 0.035069 0.000000 0.000000
# 5 0.000000 0.000000 0.000000 0.000000 0.053811 0.000000
# 6 0.000000 0.000000 0.000000 0.000000 0.000000 0.062311
#
#
# Mechanical properties :
#
#
# Convention : Reuss Voigt Hill
#
# Bulk Modulus (GPa) = 23.89891 28.32886 26.11388
# Shear Modulus (GPa) = 20.16245 22.58412 21.37329
#
# Velocity S-wave (km/s) = 3.14507 3.32858 3.23813
# Velocity P-wave (km/s) = 4.99130 5.35447 5.17607
#
# Compressibility (1/GPa) = 0.04184291
#
# Stress axis : x y z
#
# Youngs Moduli (GPa) = 31.35636 56.53694 78.33351
#
# Poissons Ratio (x) = 0.41542 -0.05756
# Poissons Ratio (y) = 0.23040 0.28498
# Poissons Ratio (z) = -0.02304 0.20568
#
# Static dielectric constant tensor:
#      x y z
#    x 1.702170 0.000000 0.000000 
#    y 0.000000 1.752440 0.000000 
#    z 0.000000 0.000000 1.781770 
# 
# From -- ./inp_files/7881.got.cif
#   From: 2010.05.17/outbox.cif.g08.bks.cpg/sg73_4_cif.got.tgz:7881.got - 2010.06.03 17:35:07.
