data_PCOD9532594
_publ_section_title
;
Structure prediction by ZEFSAII (Michael W. Deem and Ramdas Pophale) SiO2 
 PCOD9532594
Probable space group: I B C A 
;
_chemical_formula_sum "Si O2"
_cell_formula_units_Z 112
_cell_length_a 23.730256
_cell_length_b 14.746512
_cell_length_c 14.568369
_cell_angle_alpha 90.000000
_cell_angle_beta 90.000000
_cell_angle_gamma 90.000000
_cell_volume 5098.033266
_symmetry_space_group_name_H-M "I B C A "
_symmetry_group_IT_number 73
_symmetry_cell_setting 'orthorhombic'
loop_
_space_group_symop_operation_xyz
x,y,z
-x,1/2-y,z
x,-y,1/2-z
1/2-x,y,-z
-x,-y,-z
x,1/2+y,-z
-x,y,1/2+z
1/2+x,-y,z
1/2+x,1/2+y,1/2+z
1/2-x,-y,1/2+z
1/2+x,1/2-y,-z
-x,1/2+y,1/2-z
1/2-x,1/2-y,1/2-z
1/2+x,y,1/2-z
1/2-x,1/2+y,z
x,1/2-y,1/2+z
loop_
_atom_site_type_symbol
_atom_site_label
_atom_site_fract_x
_atom_site_fract_y
_atom_site_fract_z
Si Si1 0.000000 0.750000 0.767291
Si Si2 0.591002 0.147365 0.358573
Si Si3 0.843319 0.669764 0.169226
Si Si4 0.766454 0.428399 0.596766
Si Si5 0.566030 0.518417 0.484506
Si Si6 0.124485 0.666651 0.463786
Si Si7 0.661759 0.500000 0.250000
Si Si8 0.603579 0.844083 0.827419
O O1 0.972907 0.830484 0.826943
O O2 0.948879 0.714246 0.706649
O O3 0.628740 0.140674 0.266010
O O4 0.592337 0.057173 0.420169
O O5 0.606250 0.238758 0.417321
O O6 0.786122 0.616375 0.148723
O O7 0.841568 0.779269 0.169405
O O8 0.879488 0.663272 0.075019
O O9 0.750000 0.472679 0.500000
O O10 0.811163 0.351224 0.566716
O O11 0.798590 0.497696 0.661814
O O12 0.500000 0.500000 0.500000
O O13 0.590889 0.425642 0.444113
O O14 0.582918 0.598630 0.414165
O O15 0.621751 0.414471 0.249209
#
# Coordination Sequence:
#
# PCOD9532594 Si02
#       8
#     8  16  16  16  16  16   8  16
#     4  10  24  42  68  98 138 192 232 290 352 432
#     4  11  24  44  70 103 143 187 237 297 355 434
#     4  10  24  45  71 101 139 185 239 291 361 422
#     4  10  23  44  72 101 139 189 230 301 358 422
#     4  12  27  41  72 105 142 195 238 295 362 430
#     4  11  23  47  68 101 148 179 238 298 356 429
#     4  12  24  44  72 102 144 178 242 294 350 432
#     4  11  25  45  69 104 140 187 235 292 355 432
#
# _framework density 21.969256999999999
#
# number of rings (size 3 to 8) (size 9 to 14) (size 15 to 20)
#    0.000    1.143    2.857    2.571    6.000    5.714 
#    0.000    2.143    0.000    0.000    0.000    0.000 
#    0.000    0.000    0.000    0.000    0.000    0.000 
#
# Total GULP energy -312365.333514 kJ/mol
# GULP energy per Si atom -5577.952384 kJ/mol
# Density = 2.191925 g / cm^3
# Si number density = 21.969257 Si / 1000 Ang^3
#
#
#
# Elastic Constant Matrix: (Units=GPa)
#
#
# Indices 1 2 3 4 5 6 
#
# 1 90.1219 21.9534 54.7947 0.0000 0.0000 0.0000
# 2 21.9534 66.2575 39.7466 0.0000 0.0000 0.0000
# 3 54.7947 39.7466 160.0280 0.0000 0.0000 0.0000
# 4 0.0000 0.0000 0.0000 38.4407 0.0000 0.0000
# 5 0.0000 0.0000 0.0000 0.0000 53.4466 0.0000
# 6 0.0000 0.0000 0.0000 0.0000 0.0000 3.8418
#
#
#
# Elastic Compliance Matrix: (Units=1/GPa)
#
#
# Indices 1 2 3 4 5 6 
#
# 1 0.014260 -0.002110 -0.004359 0.000000 0.000000 0.000000
# 2 -0.002110 0.018047 -0.003760 0.000000 0.000000 0.000000
# 3 -0.004359 -0.003760 0.008675 0.000000 0.000000 0.000000
# 4 0.000000 0.000000 0.000000 0.026014 0.000000 0.000000
# 5 0.000000 0.000000 0.000000 0.000000 0.018710 0.000000
# 6 0.000000 0.000000 0.000000 0.000000 0.000000 0.260297
#
#
# Mechanical properties :
#
#
# Convention : Reuss Voigt Hill
#
# Bulk Modulus (GPa) = 48.72075 61.04410 54.88242
# Shear Modulus (GPa) = 13.39394 32.47334 22.93364
#
# Velocity S-wave (km/s) = 2.47182 3.84881 3.23444
# Velocity P-wave (km/s) = 5.51103 6.89910 6.24376
#
# Compressibility (1/GPa) = 0.02052514
#
# Stress axis : x y z
#
# Youngs Moduli (GPa) = 70.12513 55.40988 115.27105
#
# Poissons Ratio (x) = 0.11693 0.50243
# Poissons Ratio (y) = 0.14798 0.43341
# Poissons Ratio (z) = 0.30565 0.20834
#
# Static dielectric constant tensor:
#      x y z
#    x 1.808320 0.000000 0.000000 
#    y 0.000000 1.875620 0.000000 
#    z 0.000000 0.000000 1.934390 
# 
# From -- ./inp_files/19435.got.cif
#   From: 2010.05.17/outbox.cif.g08.bks.cpg/sg73_10_cif.got.tgz:19435.got - 2010.06.03 17:35:07.
