data_PCOD9532093
_publ_section_title
;
Structure prediction by ZEFSAII (Michael W. Deem and Ramdas Pophale) SiO2 
 PCOD9532093
Probable space group: I B C A 
;
_chemical_formula_sum "Si O2"
_cell_formula_units_Z 72
_cell_length_a 18.804015
_cell_length_b 16.434271
_cell_length_c 11.811140
_cell_angle_alpha 90.000000
_cell_angle_beta 90.000000
_cell_angle_gamma 90.000000
_cell_volume 3649.999882
_symmetry_space_group_name_H-M "I B C A "
_symmetry_group_IT_number 73
_symmetry_cell_setting 'orthorhombic'
loop_
_space_group_symop_operation_xyz
x,y,z
-x,1/2-y,z
x,-y,1/2-z
1/2-x,y,-z
-x,-y,-z
x,1/2+y,-z
-x,y,1/2+z
1/2+x,-y,z
1/2+x,1/2+y,1/2+z
1/2-x,-y,1/2+z
1/2+x,1/2-y,-z
-x,1/2+y,1/2-z
1/2-x,1/2-y,1/2-z
1/2+x,y,1/2-z
1/2-x,1/2+y,z
x,1/2-y,1/2+z
loop_
_atom_site_type_symbol
_atom_site_label
_atom_site_fract_x
_atom_site_fract_y
_atom_site_fract_z
Si Si1 0.921466 0.377623 0.300231
Si Si2 0.250000 0.365683 0.500000
Si Si3 0.823308 0.778453 0.191162
Si Si4 0.373732 0.461880 0.420024
Si Si5 0.078825 0.920380 0.674634
O O1 0.878887 0.294411 0.306866
O O2 0.882550 0.446086 0.377339
O O3 0.918132 0.409969 0.170991
O O4 0.003549 0.374562 0.335104
O O5 0.302833 0.306337 0.565105
O O6 0.294239 0.424351 0.416854
O O7 0.750000 0.750000 0.250000
O O8 0.863264 0.860427 0.232129
O O9 0.398396 0.448804 0.548783
O O10 0.068869 0.000000 0.750000
#
# Coordination Sequence:
#
# PCOD9532093 Si02
#       5
#    16   8  16  16  16
#     4  11  22  42  68  92 127 171 214 270 317 380
#     4  10  22  42  60  96 132 168 212 274 304 398
#     4  11  24  41  63  94 130 168 214 260 321 381
#     4  10  22  41  66  91 131 164 219 261 325 375
#     4  11  24  42  65  97 129 167 215 266 321 385
#
# _framework density 19.726029
#
# number of rings (size 3 to 8) (size 9 to 14) (size 15 to 20)
#    0.000    1.333    4.444    1.333    0.000    6.222 
#    0.000    2.222    0.000    0.000    0.000    0.000 
#    0.000    0.000    0.000    0.000    0.000    0.000 
#
# Total GULP energy -200815.112467 kJ/mol
# GULP energy per Si atom -5578.197569 kJ/mol
# Density = 1.968113 g / cm^3
# Si number density = 19.726029 Si / 1000 Ang^3
#
#
#
# Elastic Constant Matrix: (Units=GPa)
#
#
# Indices 1 2 3 4 5 6 
#
# 1 73.8425 63.9623 18.4125 0.0000 0.0000 0.0000
# 2 63.9623 103.1301 28.2426 0.0000 0.0000 0.0000
# 3 18.4125 28.2426 71.3267 0.0000 0.0000 0.0000
# 4 0.0000 0.0000 0.0000 23.4045 0.0000 0.0000
# 5 0.0000 0.0000 0.0000 0.0000 30.9371 0.0000
# 6 0.0000 0.0000 0.0000 0.0000 0.0000 43.0777
#
#
#
# Elastic Compliance Matrix: (Units=1/GPa)
#
#
# Indices 1 2 3 4 5 6 
#
# 1 0.029274 -0.018043 -0.000413 0.000000 0.000000 0.000000
# 2 -0.018043 0.021997 -0.004052 0.000000 0.000000 0.000000
# 3 -0.000413 -0.004052 0.015731 0.000000 0.000000 0.000000
# 4 0.000000 0.000000 0.000000 0.042727 0.000000 0.000000
# 5 0.000000 0.000000 0.000000 0.000000 0.032324 0.000000
# 6 0.000000 0.000000 0.000000 0.000000 0.000000 0.023214
#
#
# Mechanical properties :
#
#
# Convention : Reuss Voigt Hill
#
# Bulk Modulus (GPa) = 45.48305 52.17046 48.82675
# Shear Modulus (GPa) = 22.97684 28.66265 25.81975
#
# Velocity S-wave (km/s) = 3.41662 3.81601 3.62182
# Velocity P-wave (km/s) = 6.21866 6.77649 6.50356
#
# Compressibility (1/GPa) = 0.02198621
#
# Stress axis : x y z
#
# Youngs Moduli (GPa) = 34.15986 45.46136 63.56883
#
# Poissons Ratio (x) = 0.82026 0.02623
# Poissons Ratio (y) = 0.61635 0.25759
# Poissons Ratio (z) = 0.01409 0.18422
#
# Static dielectric constant tensor:
#      x y z
#    x 1.744690 0.000000 0.000000 
#    y 0.000000 1.700610 0.000000 
#    z 0.000000 0.000000 1.681920 
# 
# From -- ./inp_files/10646.got.cif
#   From: 2010.05.17/outbox.cif.g08.bks.cpg/sg73_6_cif.got.tgz:10646.got - 2010.06.03 17:35:07.
