data_PCOD9532058
_publ_section_title
;
Structure prediction by ZEFSAII (Michael W. Deem and Ramdas Pophale) SiO2 
 PCOD9532058
Probable space group: I B C A 
;
_chemical_formula_sum "Si O2"
_cell_formula_units_Z 72
_cell_length_a 14.285982
_cell_length_b 25.890082
_cell_length_c 8.775009
_cell_angle_alpha 90.000000
_cell_angle_beta 90.000000
_cell_angle_gamma 90.000000
_cell_volume 3245.570857
_symmetry_space_group_name_H-M "I B C A "
_symmetry_group_IT_number 73
_symmetry_cell_setting 'orthorhombic'
loop_
_space_group_symop_operation_xyz
x,y,z
-x,1/2-y,z
x,-y,1/2-z
1/2-x,y,-z
-x,-y,-z
x,1/2+y,-z
-x,y,1/2+z
1/2+x,-y,z
1/2+x,1/2+y,1/2+z
1/2-x,-y,1/2+z
1/2+x,1/2-y,-z
-x,1/2+y,1/2-z
1/2-x,1/2-y,1/2-z
1/2+x,y,1/2-z
1/2-x,1/2+y,z
x,1/2-y,1/2+z
loop_
_atom_site_type_symbol
_atom_site_label
_atom_site_fract_x
_atom_site_fract_y
_atom_site_fract_z
Si Si1 0.931404 0.677770 0.512951
Si Si2 0.452516 0.918505 0.110053
Si Si3 0.866616 0.946821 0.705959
Si Si4 0.000000 0.750000 0.776747
Si Si5 0.292609 0.401646 0.644905
O O1 0.924706 0.722605 0.386869
O O2 0.839408 0.646545 0.557442
O O3 0.009876 0.637102 0.452577
O O4 0.963080 0.705631 0.666736
O O5 0.545944 0.943349 0.178996
O O6 0.378638 0.918943 0.248511
O O7 0.405238 0.944926 0.964527
O O8 0.795476 0.899956 0.740494
O O9 0.815826 0.000000 0.750000
O O10 0.250000 0.432870 0.500000
#
# Coordination Sequence:
#
# PCOD9532058 Si02
#       5
#    16  16  16   8  16
#     4  11  21  44  73 100 137 188 225 301 364 423
#     4  12  23  48  73  99 150 196 234 299 375 422
#     4  12  26  44  72 107 141 193 250 298 349 439
#     4  10  22  40  80 100 130 182 252 284 356 454
#     4  12  25  44  71 102 151 186 235 300 365 430
#
# _framework density 22.184080000000002
#
# number of rings (size 3 to 8) (size 9 to 14) (size 15 to 20)
#    0.000    0.444    6.667    1.333    0.000    2.667 
#    0.000    1.111    0.000    0.000    0.000    0.000 
#    0.000    0.000    0.000    0.000    0.000    0.000 
#
# Total GULP energy -200816.395439 kJ/mol
# GULP energy per Si atom -5578.233207 kJ/mol
# Density = 2.213359 g / cm^3
# Si number density = 22.184080 Si / 1000 Ang^3
#
#
#
# Elastic Constant Matrix: (Units=GPa)
#
#
# Indices 1 2 3 4 5 6 
#
# 1 129.0008 26.6379 49.8034 -0.0001 0.0000 0.0000
# 2 26.6379 77.6641 54.9557 0.0013 -0.0002 0.0000
# 3 49.8034 54.9557 143.8159 0.0037 -0.0003 -0.0002
# 4 -0.0001 0.0013 0.0037 28.6402 -0.0002 -0.0001
# 5 0.0000 -0.0002 -0.0003 -0.0002 46.3574 0.0000
# 6 0.0000 0.0000 -0.0002 -0.0001 0.0000 17.0035
#
#
#
# Elastic Compliance Matrix: (Units=1/GPa)
#
#
# Indices 1 2 3 4 5 6 
#
# 1 0.009031 -0.001212 -0.002664 0.000000 0.000000 0.000000
# 2 -0.001212 0.017811 -0.006386 0.000000 0.000000 0.000000
# 3 -0.002664 -0.006386 0.010316 -0.000001 0.000000 0.000000
# 4 0.000000 0.000000 -0.000001 0.034916 0.000000 0.000000
# 5 0.000000 0.000000 0.000000 0.000000 0.021572 0.000000
# 6 0.000000 0.000000 0.000000 0.000000 0.000000 0.058812
#
#
# Mechanical properties :
#
#
# Convention : Reuss Voigt Hill
#
# Bulk Modulus (GPa) = 60.12287 68.14163 64.13225
# Shear Modulus (GPa) = 28.00717 33.00580 30.50648
#
# Velocity S-wave (km/s) = 3.55701 3.86140 3.71233
# Velocity P-wave (km/s) = 6.63554 7.11785 6.88092
#
# Compressibility (1/GPa) = 0.01663261
#
# Stress axis : x y z
#
# Youngs Moduli (GPa) = 110.73278 56.14635 96.93513
#
# Poissons Ratio (x) = 0.06807 0.25824
# Poissons Ratio (y) = 0.13424 0.61903
# Poissons Ratio (z) = 0.29500 0.35855
#
# Static dielectric constant tensor:
#      x y z
#    x 1.822200 0.000000 0.000000 
#    y 0.000000 1.893200 0.000000 
#    z 0.000000 0.000000 1.845200 
# 
# From -- ./inp_files/4791.got.cif
#   From: 2010.05.17/outbox.cif.g08.bks.cpg/sg73_3_cif.got.tgz:4791.got - 2010.06.03 17:35:07.
