data_PCOD9532791
_publ_section_title
;
Structure prediction by ZEFSAII (Michael W. Deem and Ramdas Pophale) SiO2 
 PCOD9532791
Probable space group: I B C A 
;
_chemical_formula_sum "Si O2"
_cell_formula_units_Z 56
_cell_length_a 9.098887
_cell_length_b 27.836643
_cell_length_c 10.092809
_cell_angle_alpha 90.000000
_cell_angle_beta 90.000000
_cell_angle_gamma 90.000000
_cell_volume 2556.331584
_symmetry_space_group_name_H-M "I B C A "
_symmetry_group_IT_number 73
_symmetry_cell_setting 'orthorhombic'
loop_
_space_group_symop_operation_xyz
x,y,z
-x,1/2-y,z
x,-y,1/2-z
1/2-x,y,-z
-x,-y,-z
x,1/2+y,-z
-x,y,1/2+z
1/2+x,-y,z
1/2+x,1/2+y,1/2+z
1/2-x,-y,1/2+z
1/2+x,1/2-y,-z
-x,1/2+y,1/2-z
1/2-x,1/2-y,1/2-z
1/2+x,y,1/2-z
1/2-x,1/2+y,z
x,1/2-y,1/2+z
loop_
_atom_site_type_symbol
_atom_site_label
_atom_site_fract_x
_atom_site_fract_y
_atom_site_fract_z
Si Si1 0.660060 0.771423 0.127906
Si Si2 0.319453 0.000000 0.250000
Si Si3 0.565111 0.934719 0.348753
Si Si4 0.097865 0.883256 0.430507
O O1 0.500000 0.750000 0.132064
O O2 0.750000 0.750000 0.250000
O O3 0.632601 0.828439 0.111495
O O4 0.750000 0.755533 0.000000
O O5 0.429346 0.971777 0.347184
O O6 0.215238 0.965118 0.163005
O O7 0.531147 0.896300 0.464475
O O8 0.560587 0.909378 0.205613
O O9 0.250000 0.899544 0.500000
#
# Coordination Sequence:
#
# PCOD9532791 Si02
#       4
#    16   8  16  16
#     4  11  27  48  77 111 150 195 247 308 382 457
#     4  10  24  42  74 104 138 206 242 314 360 442
#     4  11  24  45  69 104 148 188 253 296 372 433
#     4  11  26  46  71 108 146 191 248 301 374 446
#
# _framework density 21.906390999999999
#
# number of rings (size 3 to 8) (size 9 to 14) (size 15 to 20)
#    0.000    1.143    2.857    0.857   12.000    8.000 
#    0.000    0.000    0.000    0.000    0.000    0.000 
#    0.000    0.000    0.000    0.000    0.000    0.000 
#
# Total GULP energy -156432.878930 kJ/mol
# GULP energy per Si atom -5586.888533 kJ/mol
# Density = 2.185653 g / cm^3
# Si number density = 21.906391 Si / 1000 Ang^3
#
#
#
# Elastic Constant Matrix: (Units=GPa)
#
#
# Indices 1 2 3 4 5 6 
#
# 1 144.5845 44.8012 46.4280 0.0003 0.0010 -0.0003
# 2 44.8012 74.0575 55.0692 0.0005 -0.0001 0.0000
# 3 46.4280 55.0692 166.4474 -0.0007 0.0036 0.0007
# 4 0.0003 0.0005 -0.0007 33.6447 0.0005 0.0000
# 5 0.0010 -0.0001 0.0036 0.0005 46.5550 -0.0001
# 6 -0.0003 0.0000 0.0007 0.0000 -0.0001 33.8084
#
#
#
# Elastic Compliance Matrix: (Units=1/GPa)
#
#
# Indices 1 2 3 4 5 6 
#
# 1 0.008612 -0.004541 -0.000900 0.000000 0.000000 0.000000
# 2 -0.004541 0.020303 -0.005451 0.000000 0.000001 0.000000
# 3 -0.000900 -0.005451 0.008062 0.000000 -0.000001 0.000000
# 4 0.000000 0.000000 0.000000 0.029722 0.000000 0.000000
# 5 0.000000 0.000001 -0.000001 0.000000 0.021480 0.000000
# 6 0.000000 0.000000 0.000000 0.000000 0.000000 0.029578
#
#
# Mechanical properties :
#
#
# Convention : Reuss Voigt Hill
#
# Bulk Modulus (GPa) = 65.81194 75.29847 70.55521
# Shear Modulus (GPa) = 34.57653 38.72100 36.64877
#
# Velocity S-wave (km/s) = 3.97719 4.20880 4.09463
# Velocity P-wave (km/s) = 7.15530 7.62012 7.39136
#
# Compressibility (1/GPa) = 0.01519481
#
# Stress axis : x y z
#
# Youngs Moduli (GPa) = 116.11160 49.25333 124.03406
#
# Poissons Ratio (x) = 0.22365 0.11162
# Poissons Ratio (y) = 0.52725 0.67607
# Poissons Ratio (z) = 0.10449 0.26847
#
# Static dielectric constant tensor:
#      x y z
#    x 1.776380 0.000000 0.000020 
#    y 0.000000 2.327090 0.000020 
#    z 0.000020 0.000020 3.483150 
# 
# From -- ./inp_files/9001.got.cif
#   From: 2010.05.17/outbox.cif.g08.bks.cpg/sg73_5_cif.got.tgz:9001.got - 2010.06.03 17:35:07.
