data_PCOD9532558
_publ_section_title
;
Structure prediction by ZEFSAII (Michael W. Deem and Ramdas Pophale) SiO2 
 PCOD9532558
Probable space group: I B C A 
;
_chemical_formula_sum "Si O2"
_cell_formula_units_Z 64
_cell_length_a 16.359573
_cell_length_b 9.566744
_cell_length_c 19.362765
_cell_angle_alpha 90.000000
_cell_angle_beta 90.000000
_cell_angle_gamma 90.000000
_cell_volume 3030.424659
_symmetry_space_group_name_H-M "I B C A "
_symmetry_group_IT_number 73
_symmetry_cell_setting 'orthorhombic'
loop_
_space_group_symop_operation_xyz
x,y,z
-x,1/2-y,z
x,-y,1/2-z
1/2-x,y,-z
-x,-y,-z
x,1/2+y,-z
-x,y,1/2+z
1/2+x,-y,z
1/2+x,1/2+y,1/2+z
1/2-x,-y,1/2+z
1/2+x,1/2-y,-z
-x,1/2+y,1/2-z
1/2-x,1/2-y,1/2-z
1/2+x,y,1/2-z
1/2-x,1/2+y,z
x,1/2-y,1/2+z
loop_
_atom_site_type_symbol
_atom_site_label
_atom_site_fract_x
_atom_site_fract_y
_atom_site_fract_z
Si Si1 0.942501 0.635319 0.995061
Si Si2 0.070579 0.346610 0.231848
Si Si3 0.307364 0.441227 0.886676
Si Si4 0.648861 0.240485 0.127036
O O1 0.859578 0.607209 0.952992
O O2 0.000000 0.750000 0.959694
O O3 0.000000 0.500000 0.000000
O O4 0.083964 0.802835 0.068966
O O5 0.035582 0.500000 0.250000
O O6 0.141950 0.383342 0.178660
O O7 0.106225 0.267246 0.299128
O O8 0.000000 0.250000 0.202221
O O9 0.309674 0.609242 0.888593
O O10 0.218022 0.377606 0.877828
#
# Coordination Sequence:
#
# PCOD9532558 Si02
#       4
#    16  16  16  16
#     4  12  25  43  69  99 135 176 226 281 339 404
#     4  10  23  43  69  98 135 177 229 281 339 403
#     4  11  25  43  66  99 133 179 224 277 341 404
#     4  11  25  43  67  98 137 176 225 279 338 405
#
# _framework density 21.119153000000001
#
# number of rings (size 3 to 8) (size 9 to 14) (size 15 to 20)
#    0.000    1.000    2.500    3.000    7.000    4.000 
#    0.000    0.000    0.000    0.000    0.000    0.000 
#    0.000    0.000    0.000    0.000    0.000    0.000 
#
# Total GULP energy -178876.563097 kJ/mol
# GULP energy per Si atom -5589.892597 kJ/mol
# Density = 2.107109 g / cm^3
# Si number density = 21.119153 Si / 1000 Ang^3
#
#
#
# Elastic Constant Matrix: (Units=GPa)
#
#
# Indices 1 2 3 4 5 6 
#
# 1 80.3785 62.4709 11.9894 0.0000 0.0000 0.0000
# 2 62.4709 117.3159 40.8109 0.0000 0.0000 0.0000
# 3 11.9894 40.8109 110.5398 0.0000 0.0000 0.0000
# 4 0.0000 0.0000 0.0000 21.6535 0.0000 0.0000
# 5 0.0000 0.0000 0.0000 0.0000 23.3526 0.0000
# 6 0.0000 0.0000 0.0000 0.0000 0.0000 55.0044
#
#
#
# Elastic Compliance Matrix: (Units=1/GPa)
#
#
# Indices 1 2 3 4 5 6 
#
# 1 0.021679 -0.012307 0.002192 0.000000 0.000000 0.000000
# 2 -0.012307 0.016766 -0.004855 0.000000 0.000000 0.000000
# 3 0.002192 -0.004855 0.010601 0.000000 0.000000 0.000000
# 4 0.000000 0.000000 0.000000 0.046182 0.000000 0.000000
# 5 0.000000 0.000000 0.000000 0.000000 0.042822 0.000000
# 6 0.000000 0.000000 0.000000 0.000000 0.000000 0.018180
#
#
# Mechanical properties :
#
#
# Convention : Reuss Voigt Hill
#
# Bulk Modulus (GPa) = 52.33639 59.86407 56.10023
# Shear Modulus (GPa) = 25.96872 32.86629 29.41750
#
# Velocity S-wave (km/s) = 3.51041 3.94919 3.73625
# Velocity P-wave (km/s) = 6.42386 7.01443 6.72563
#
# Compressibility (1/GPa) = 0.01910717
#
# Stress axis : x y z
#
# Youngs Moduli (GPa) = 46.12756 59.64330 94.32820
#
# Poissons Ratio (x) = 0.73401 -0.20679
# Poissons Ratio (y) = 0.56768 0.45799
# Poissons Ratio (z) = -0.10112 0.28958
#
# Static dielectric constant tensor:
#      x y z
#    x 1.707850 0.000000 0.000000 
#    y 0.000000 1.749200 0.000000 
#    z 0.000000 0.000000 1.798100 
# 
# From -- ./inp_files/25203.got.cif
#   From: 2010.05.17/outbox.cif.g08.bks.cpg/sg73_13_cif.got.tgz:25203.got - 2010.06.03 17:35:07.
