data_PCOD9532650
_publ_section_title
;
Structure prediction by ZEFSAII (Michael W. Deem and Ramdas Pophale) SiO2 
 PCOD9532650
Probable space group: I B C A 
;
_chemical_formula_sum "Si O2"
_cell_formula_units_Z 96
_cell_length_a 8.265802
_cell_length_b 24.801064
_cell_length_c 21.924356
_cell_angle_alpha 90.000000
_cell_angle_beta 90.000000
_cell_angle_gamma 90.000000
_cell_volume 4494.507985
_symmetry_space_group_name_H-M "I B C A "
_symmetry_group_IT_number 73
_symmetry_cell_setting 'orthorhombic'
loop_
_space_group_symop_operation_xyz
x,y,z
-x,1/2-y,z
x,-y,1/2-z
1/2-x,y,-z
-x,-y,-z
x,1/2+y,-z
-x,y,1/2+z
1/2+x,-y,z
1/2+x,1/2+y,1/2+z
1/2-x,-y,1/2+z
1/2+x,1/2-y,-z
-x,1/2+y,1/2-z
1/2-x,1/2-y,1/2-z
1/2+x,y,1/2-z
1/2-x,1/2+y,z
x,1/2-y,1/2+z
loop_
_atom_site_type_symbol
_atom_site_label
_atom_site_fract_x
_atom_site_fract_y
_atom_site_fract_z
Si Si1 0.487141 0.488038 0.928729
Si Si2 0.903712 0.437895 0.240712
Si Si3 0.187671 0.402700 0.152546
Si Si4 0.183961 0.684436 0.067804
Si Si5 0.295798 0.193067 0.569697
Si Si6 0.289374 0.926779 0.373195
O O1 0.351474 0.447981 0.899184
O O2 0.649660 0.457784 0.910047
O O3 0.451406 0.545453 0.897555
O O4 0.500000 0.500000 0.000000
O O5 0.952483 0.500000 0.250000
O O6 0.841799 0.412848 0.303659
O O7 0.745318 0.439052 0.196822
O O8 0.035214 0.406928 0.199256
O O9 0.211845 0.347199 0.116692
O O10 0.247479 0.744367 0.082289
O O11 0.227991 0.635907 0.112317
O O12 0.989748 0.687535 0.070613
O O13 0.250000 0.671054 0.000000
O O14 0.250000 0.180452 0.500000
#
# Coordination Sequence:
#
# PCOD9532650 Si02
#       6
#    16  16  16  16  16  16
#     4  11  24  40  61 104 138 172 221 294 359 420
#     4  11  24  45  66  98 140 192 239 282 352 422
#     4  11  26  43  70 101 135 192 235 293 345 430
#     4  10  23  46  72 100 142 186 230 296 372 436
#     4  10  25  45  72 103 140 183 240 298 367 431
#     4  11  25  40  67  97 137 182 229 283 353 430
#
# _framework density 21.359400999999998
#
# number of rings (size 3 to 8) (size 9 to 14) (size 15 to 20)
#    0.000    1.333    1.667    2.000   14.000    0.000 
#    0.000    0.833    0.000    0.000    0.000    0.000 
#    0.000    0.000    0.000    0.000    0.000    0.000 
#
# Total GULP energy -268308.889708 kJ/mol
# GULP energy per Si atom -5589.768536 kJ/mol
# Density = 2.131079 g / cm^3
# Si number density = 21.359401 Si / 1000 Ang^3
#
#
#
# Elastic Constant Matrix: (Units=GPa)
#
#
# Indices 1 2 3 4 5 6 
#
# 1 70.8044 46.0959 52.5085 0.0000 0.0000 0.0000
# 2 46.0959 139.4029 93.8445 0.0000 0.0000 0.0000
# 3 52.5085 93.8445 162.9963 0.0000 0.0000 0.0000
# 4 0.0000 0.0000 0.0000 5.9310 0.0000 0.0000
# 5 0.0000 0.0000 0.0000 0.0000 33.0145 0.0000
# 6 0.0000 0.0000 0.0000 0.0000 0.0000 31.3904
#
#
#
# Elastic Compliance Matrix: (Units=1/GPa)
#
#
# Indices 1 2 3 4 5 6 
#
# 1 0.019631 -0.003648 -0.004224 0.000000 0.000000 0.000000
# 2 -0.003648 0.012391 -0.005959 0.000000 0.000000 0.000000
# 3 -0.004224 -0.005959 0.010927 0.000000 0.000000 0.000000
# 4 0.000000 0.000000 0.000000 0.168606 0.000000 0.000000
# 5 0.000000 0.000000 0.000000 0.000000 0.030290 0.000000
# 6 0.000000 0.000000 0.000000 0.000000 0.000000 0.031857
#
#
# Mechanical properties :
#
#
# Convention : Reuss Voigt Hill
#
# Bulk Modulus (GPa) = 65.41386 84.23351 74.82369
# Shear Modulus (GPa) = 16.31543 26.11747 21.21645
#
# Velocity S-wave (km/s) = 2.76679 3.50060 3.15510
# Velocity P-wave (km/s) = 6.39520 7.47401 6.95555
#
# Compressibility (1/GPa) = 0.01528728
#
# Stress axis : x y z
#
# Youngs Moduli (GPa) = 50.94104 80.70196 91.51922
#
# Poissons Ratio (x) = 0.29439 0.38655
# Poissons Ratio (y) = 0.18583 0.54537
# Poissons Ratio (z) = 0.21516 0.48091
#
# Static dielectric constant tensor:
#      x y z
#    x 1.894370 0.000000 0.000000 
#    y 0.000000 1.746690 0.000000 
#    z 0.000000 0.000000 1.770250 
# 
# From -- ./inp_files/28411.got.cif
#   From: 2010.05.17/outbox.cif.g08.bks.cpg/sg73_15_cif.got.tgz:28411.got - 2010.06.03 17:35:07.
