data_PCOD9532360
_publ_section_title
;
Structure prediction by ZEFSAII (Michael W. Deem and Ramdas Pophale) SiO2 
 PCOD9532360
Probable space group: I B C A 
;
_chemical_formula_sum "Si O2"
_cell_formula_units_Z 56
_cell_length_a 13.292509
_cell_length_b 10.012544
_cell_length_c 15.042103
_cell_angle_alpha 90.000000
_cell_angle_beta 90.000000
_cell_angle_gamma 90.000000
_cell_volume 2001.981034
_symmetry_space_group_name_H-M "I B C A "
_symmetry_group_IT_number 73
_symmetry_cell_setting 'orthorhombic'
loop_
_space_group_symop_operation_xyz
x,y,z
-x,1/2-y,z
x,-y,1/2-z
1/2-x,y,-z
-x,-y,-z
x,1/2+y,-z
-x,y,1/2+z
1/2+x,-y,z
1/2+x,1/2+y,1/2+z
1/2-x,-y,1/2+z
1/2+x,1/2-y,-z
-x,1/2+y,1/2-z
1/2-x,1/2-y,1/2-z
1/2+x,y,1/2-z
1/2-x,1/2+y,z
x,1/2-y,1/2+z
loop_
_atom_site_type_symbol
_atom_site_label
_atom_site_fract_x
_atom_site_fract_y
_atom_site_fract_z
Si Si1 0.321759 0.699639 0.168839
Si Si2 0.111549 0.855406 0.599535
Si Si3 0.368265 0.110256 0.485926
Si Si4 0.984326 0.000000 0.750000
O O1 0.250000 0.750000 0.250000
O O2 0.232261 0.632407 0.112787
O O3 0.374909 0.813716 0.109268
O O4 0.407232 0.598576 0.199612
O O5 0.093912 0.704962 0.565351
O O6 0.054730 0.909155 0.686468
O O7 0.091828 0.961109 0.521567
O O8 0.250000 0.106699 0.500000
#
# Coordination Sequence:
#
# PCOD9532360 Si02
#       4
#    16  16  16   8
#     4  11  24  45  74 106 149 197 251 313 381 451
#     4  11  25  47  76 110 150 197 255 314 383 459
#     4  10  22  45  73 105 148 198 249 312 380 450
#     4  12  26  46  76 110 148 196 248 312 378 460
#
# _framework density 27.972293000000001
#
# number of rings (size 3 to 8) (size 9 to 14) (size 15 to 20)
#    0.000    1.143    0.000    6.857    0.000    8.000 
#    0.000   14.286    0.000    0.000    0.000    0.000 
#    0.000    0.000    0.000    0.000    0.000    0.000 
#
# Total GULP energy -157119.653019 kJ/mol
# GULP energy per Si atom -5611.416179 kJ/mol
# Density = 2.790863 g / cm^3
# Si number density = 27.972293 Si / 1000 Ang^3
#
#
#
# Elastic Constant Matrix: (Units=GPa)
#
#
# Indices 1 2 3 4 5 6 
#
# 1 113.3028 10.0229 3.2350 0.0000 0.0000 0.0000
# 2 10.0229 155.4269 52.3981 0.0000 0.0000 0.0000
# 3 3.2350 52.3981 122.3287 0.0000 0.0000 0.0000
# 4 0.0000 0.0000 0.0000 78.9036 0.0000 0.0000
# 5 0.0000 0.0000 0.0000 0.0000 60.3320 0.0000
# 6 0.0000 0.0000 0.0000 0.0000 0.0000 43.1004
#
#
#
# Elastic Compliance Matrix: (Units=1/GPa)
#
#
# Indices 1 2 3 4 5 6 
#
# 1 0.008877 -0.000577 0.000012 0.000000 0.000000 0.000000
# 2 -0.000577 0.007557 -0.003222 0.000000 0.000000 0.000000
# 3 0.000012 -0.003222 0.009554 0.000000 0.000000 0.000000
# 4 0.000000 0.000000 0.000000 0.012674 0.000000 0.000000
# 5 0.000000 0.000000 0.000000 0.000000 0.016575 0.000000
# 6 0.000000 0.000000 0.000000 0.000000 0.000000 0.023202
#
#
# Mechanical properties :
#
#
# Convention : Reuss Voigt Hill
#
# Bulk Modulus (GPa) = 54.30083 58.04116 56.17099
# Shear Modulus (GPa) = 54.25975 58.16069 56.21022
#
# Velocity S-wave (km/s) = 4.40906 4.56480 4.48760
# Velocity P-wave (km/s) = 6.73604 6.96977 6.85390
#
# Compressibility (1/GPa) = 0.01841592
#
# Stress axis : x y z
#
# Youngs Moduli (GPa) = 112.65622 132.32380 104.66390
#
# Poissons Ratio (x) = 0.07629 -0.00128
# Poissons Ratio (y) = 0.06495 0.33721
# Poissons Ratio (z) = -0.00138 0.42632
#
# Static dielectric constant tensor:
#      x y z
#    x 2.178470 0.000000 0.000000 
#    y 0.000000 2.169370 0.000000 
#    z 0.000000 0.000000 2.396270 
# 
# From -- ./inp_files/15764.got.cif
#   From: 2010.05.17/outbox.cif.g08.bks.cpg/sg73_8_cif.got.tgz:15764.got - 2010.06.03 17:35:07.
