data_PCOD9532606
_publ_section_title
;
Structure prediction by ZEFSAII (Michael W. Deem and Ramdas Pophale) SiO2 
 PCOD9532606
Probable space group: I B C A 
;
_chemical_formula_sum "Si O2"
_cell_formula_units_Z 112
_cell_length_a 13.270213
_cell_length_b 11.070587
_cell_length_c 32.562286
_cell_angle_alpha 90.000000
_cell_angle_beta 90.000000
_cell_angle_gamma 90.000000
_cell_volume 4783.694421
_symmetry_space_group_name_H-M "I B C A "
_symmetry_group_IT_number 73
_symmetry_cell_setting 'orthorhombic'
loop_
_space_group_symop_operation_xyz
x,y,z
-x,1/2-y,z
x,-y,1/2-z
1/2-x,y,-z
-x,-y,-z
x,1/2+y,-z
-x,y,1/2+z
1/2+x,-y,z
1/2+x,1/2+y,1/2+z
1/2-x,-y,1/2+z
1/2+x,1/2-y,-z
-x,1/2+y,1/2-z
1/2-x,1/2-y,1/2-z
1/2+x,y,1/2-z
1/2-x,1/2+y,z
x,1/2-y,1/2+z
loop_
_atom_site_type_symbol
_atom_site_label
_atom_site_fract_x
_atom_site_fract_y
_atom_site_fract_z
Si Si1 0.495105 0.555770 0.045029
Si Si2 0.400598 0.066812 0.322409
Si Si3 0.742886 0.118403 0.301895
Si Si4 0.036806 0.110438 0.374206
Si Si5 0.322061 0.743692 0.539951
Si Si6 0.600596 0.259245 0.751131
Si Si7 0.246932 0.207049 0.626122
O O1 0.483476 0.460866 0.082703
O O2 0.598579 0.633662 0.045752
O O3 0.395916 0.641164 0.044267
O O4 0.500000 0.500000 0.000000
O O5 0.425962 0.161908 0.286983
O O6 0.354982 0.137963 0.361134
O O7 0.304451 0.002224 0.302032
O O8 0.480018 0.970215 0.339542
O O9 0.813230 0.216193 0.279230
O O10 0.640838 0.125486 0.276100
O O11 0.737979 0.170414 0.347590
O O12 0.155465 0.125511 0.364418
O O13 0.000000 0.250000 0.376870
O O14 0.250000 0.740815 0.500000
O O15 0.248824 0.739079 0.578809
O O16 0.500000 0.250000 0.724890
#
# Coordination Sequence:
#
# PCOD9532606 Si02
#       7
#    16  16  16  16  16  16  16
#     4  11  27  46  73 106 142 186 235 292 365 425
#     4  11  24  44  67 103 137 182 238 288 361 429
#     4  10  23  45  64  99 141 175 236 294 361 431
#     4  12  26  43  71 104 144 186 239 293 357 430
#     4  11  26  49  74 105 143 185 241 295 351 426
#     4  10  24  43  70  98 136 182 234 297 361 432
#     4  11  25  43  71  99 139 189 232 296 355 423
#
# _framework density 23.412868
#
# number of rings (size 3 to 8) (size 9 to 14) (size 15 to 20)
#    0.000    1.143    2.857    1.286   10.000    2.857 
#    0.000    1.429    0.000    0.000    0.000    0.000 
#    0.000    0.000    0.000    0.000    0.000    0.000 
#
# Total GULP energy -312823.464748 kJ/mol
# GULP energy per Si atom -5586.133299 kJ/mol
# Density = 2.335958 g / cm^3
# Si number density = 23.412868 Si / 1000 Ang^3
#
#
#
# Elastic Constant Matrix: (Units=GPa)
#
#
# Indices 1 2 3 4 5 6 
#
# 1 77.3049 12.3017 -3.6933 0.0000 0.0000 0.0000
# 2 12.3017 97.8109 20.2171 0.0000 0.0000 0.0000
# 3 -3.6933 20.2171 99.4421 0.0000 0.0000 0.0000
# 4 0.0000 0.0000 0.0000 32.9521 0.0000 0.0000
# 5 0.0000 0.0000 0.0000 0.0000 16.9333 0.0000
# 6 0.0000 0.0000 0.0000 0.0000 0.0000 26.4350
#
#
#
# Elastic Compliance Matrix: (Units=1/GPa)
#
#
# Indices 1 2 3 4 5 6 
#
# 1 0.013271 -0.001849 0.000869 0.000000 0.000000 0.000000
# 2 -0.001849 0.010930 -0.002291 0.000000 0.000000 0.000000
# 3 0.000869 -0.002291 0.010554 0.000000 0.000000 0.000000
# 4 0.000000 0.000000 0.000000 0.030347 0.000000 0.000000
# 5 0.000000 0.000000 0.000000 0.000000 0.059055 0.000000
# 6 0.000000 0.000000 0.000000 0.000000 0.000000 0.037829
#
#
# Mechanical properties :
#
#
# Convention : Reuss Voigt Hill
#
# Bulk Modulus (GPa) = 35.44345 36.91210 36.17777
# Shear Modulus (GPa) = 28.10057 31.64624 29.87340
#
# Velocity S-wave (km/s) = 3.46818 3.68048 3.57590
# Velocity P-wave (km/s) = 5.58650 5.81904 5.70395
#
# Compressibility (1/GPa) = 0.02821396
#
# Stress axis : x y z
#
# Youngs Moduli (GPa) = 75.34949 91.49292 94.74998
#
# Poissons Ratio (x) = 0.16915 -0.08232
# Poissons Ratio (y) = 0.13930 0.21705
# Poissons Ratio (z) = -0.06546 0.20959
#
# Static dielectric constant tensor:
#      x y z
#    x 2.057250 0.000000 0.000000 
#    y 0.000000 2.024070 0.000000 
#    z 0.000000 0.000000 1.883170 
# 
# From -- ./inp_files/34322.got.cif
#   From: 2010.05.17/outbox.cif.g08.bks.cpg/sg73_18_cif.got.tgz:34322.got - 2010.06.03 17:35:07.
