data_PCOD9532763
_publ_section_title
;
Structure prediction by ZEFSAII (Michael W. Deem and Ramdas Pophale) SiO2 
 PCOD9532763
Probable space group: I B C A 
;
_chemical_formula_sum "Si O2"
_cell_formula_units_Z 104
_cell_length_a 19.618053
_cell_length_b 7.814055
_cell_length_c 27.712779
_cell_angle_alpha 90.000000
_cell_angle_beta 90.000000
_cell_angle_gamma 90.000000
_cell_volume 4248.273277
_symmetry_space_group_name_H-M "I B C A "
_symmetry_group_IT_number 73
_symmetry_cell_setting 'orthorhombic'
loop_
_space_group_symop_operation_xyz
x,y,z
-x,1/2-y,z
x,-y,1/2-z
1/2-x,y,-z
-x,-y,-z
x,1/2+y,-z
-x,y,1/2+z
1/2+x,-y,z
1/2+x,1/2+y,1/2+z
1/2-x,-y,1/2+z
1/2+x,1/2-y,-z
-x,1/2+y,1/2-z
1/2-x,1/2-y,1/2-z
1/2+x,y,1/2-z
1/2-x,1/2+y,z
x,1/2-y,1/2+z
loop_
_atom_site_type_symbol
_atom_site_label
_atom_site_fract_x
_atom_site_fract_y
_atom_site_fract_z
Si Si1 0.651542 0.946532 0.696808
Si Si2 0.500000 0.250000 0.001467
Si Si3 0.810344 0.079106 0.928478
Si Si4 0.372561 0.000000 0.750000
Si Si5 0.250000 0.815400 0.500000
Si Si6 0.278390 0.217826 0.673745
Si Si7 0.957027 0.962417 0.926044
Si Si8 0.498042 0.464336 0.178364
O O1 0.682895 0.103291 0.666573
O O2 0.570212 0.958307 0.696106
O O3 0.672497 0.000000 0.750000
O O4 0.697342 0.779103 0.686578
O O5 0.555936 0.297322 0.960239
O O6 0.506962 0.094530 0.038001
O O7 0.808622 0.206933 0.974098
O O8 0.776560 0.134883 0.879110
O O9 0.885930 0.042719 0.912872
O O10 0.777027 0.918280 0.954438
O O11 0.321472 0.881859 0.783841
O O12 0.432242 0.032463 0.791745
O O13 0.995510 0.961769 0.875877
O O14 0.500000 0.250000 0.179573
#
# Coordination Sequence:
#
# PCOD9532763 Si02
#       8
#    16   8  16   8   8  16  16  16
#     4  12  26  46  69 102 141 189 235 288 346 412
#     4  10  24  42  68 104 136 178 228 286 354 418
#     4  11  22  45  69 101 139 179 236 285 352 413
#     4  12  24  44  74 100 140 186 230 286 346 412
#     4  10  24  42  70 104 136 186 228 292 348 426
#     4  12  26  46  73 101 143 188 233 290 349 419
#     4  11  22  45  70 102 139 184 228 291 352 414
#     4  12  24  47  73 103 142 191 230 289 357 420
#
# _framework density 24.480533000000001
#
# number of rings (size 3 to 8) (size 9 to 14) (size 15 to 20)
#    0.000    0.615    5.385    2.308    0.000    0.000 
#   20.769    0.000    0.000    0.000    0.000    0.000 
#    0.000    0.000    0.000    0.000    0.000    0.000 
#
# Total GULP energy -289510.804662 kJ/mol
# GULP energy per Si atom -5567.515474 kJ/mol
# Density = 2.442481 g / cm^3
# Si number density = 24.480533 Si / 1000 Ang^3
#
#
#
# Elastic Constant Matrix: (Units=GPa)
#
#
# Indices 1 2 3 4 5 6 
#
# 1 114.8728 2.3100 21.9940 0.0000 0.0000 0.0000
# 2 2.3100 52.8013 29.5676 0.0000 0.0000 0.0000
# 3 21.9940 29.5676 125.5763 0.0000 0.0000 0.0000
# 4 0.0000 0.0000 0.0000 33.0644 0.0000 0.0000
# 5 0.0000 0.0000 0.0000 0.0000 39.8903 0.0000
# 6 0.0000 0.0000 0.0000 0.0000 0.0000 -83.7746
#
#
#
# Elastic Compliance Matrix: (Units=1/GPa)
#
#
# Indices 1 2 3 4 5 6 
#
# 1 0.009022 0.000565 -0.001713 0.000000 0.000000 0.000000
# 2 0.000565 0.021851 -0.005244 0.000000 0.000000 0.000000
# 3 -0.001713 -0.005244 0.009498 0.000000 0.000000 0.000000
# 4 0.000000 0.000000 0.000000 0.030244 0.000000 0.000000
# 5 0.000000 0.000000 0.000000 0.000000 0.025069 0.000000
# 6 0.000000 0.000000 0.000000 0.000000 0.000000 -0.011937
#
#
# Mechanical properties :
#
#
# Convention : Reuss Voigt Hill
#
# Bulk Modulus (GPa) = 36.25014 44.55483 40.40248
# Shear Modulus (GPa) = 47.29192 13.79460 30.54326
#
# Velocity S-wave (km/s) = 4.40001 2.37638 3.53605
# Velocity P-wave (km/s) = 6.37600 5.07633 5.76292
#
# Compressibility (1/GPa) = 0.02758610
#
# Stress axis : x y z
#
# Youngs Moduli (GPa) = 110.84115 45.76530 105.28551
#
# Poissons Ratio (x) = -0.02584 0.18036
# Poissons Ratio (y) = -0.06258 0.55209
# Poissons Ratio (z) = 0.18988 0.23998
#
# Static dielectric constant tensor:
#      x y z
#    x 1.927890 0.000000 0.000000 
#    y 0.000000 2.508310 0.000000 
#    z 0.000000 0.000000 1.833240 
# 
# From -- ./inp_files/32700.got.cif
#   From: 2010.05.17/outbox.cif.g08.bks.cpg/sg73_17_cif.got.tgz:32700.got - 2010.06.03 17:35:07.
