data_PCOD9532371
_publ_section_title
;
Structure prediction by ZEFSAII (Michael W. Deem and Ramdas Pophale) SiO2 
 PCOD9532371
Probable space group: I B C A 
;
_chemical_formula_sum "Si O2"
_cell_formula_units_Z 88
_cell_length_a 14.997243
_cell_length_b 22.925872
_cell_length_c 10.884772
_cell_angle_alpha 90.000000
_cell_angle_beta 90.000000
_cell_angle_gamma 90.000000
_cell_volume 3742.455355
_symmetry_space_group_name_H-M "I B C A "
_symmetry_group_IT_number 73
_symmetry_cell_setting 'orthorhombic'
loop_
_space_group_symop_operation_xyz
x,y,z
-x,1/2-y,z
x,-y,1/2-z
1/2-x,y,-z
-x,-y,-z
x,1/2+y,-z
-x,y,1/2+z
1/2+x,-y,z
1/2+x,1/2+y,1/2+z
1/2-x,-y,1/2+z
1/2+x,1/2-y,-z
-x,1/2+y,1/2-z
1/2-x,1/2-y,1/2-z
1/2+x,y,1/2-z
1/2-x,1/2+y,z
x,1/2-y,1/2+z
loop_
_atom_site_type_symbol
_atom_site_label
_atom_site_fract_x
_atom_site_fract_y
_atom_site_fract_z
Si Si1 0.764655 0.000000 0.750000
Si Si2 0.584051 0.453196 0.600127
Si Si3 0.602644 0.345810 0.418010
Si Si4 0.000000 0.250000 0.476790
Si Si5 0.651573 0.822858 0.854273
Si Si6 0.386111 0.055072 0.079874
Si Si7 0.250000 0.741373 0.500000
O O1 0.832662 0.048116 0.806838
O O2 0.696479 0.025055 0.649085
O O3 0.594811 0.405803 0.491501
O O4 0.593196 0.517192 0.540278
O O5 0.483024 0.445154 0.649504
O O6 0.516288 0.305318 0.432890
O O7 0.638956 0.349288 0.280666
O O8 0.669519 0.302624 0.487546
O O9 0.927124 0.222085 0.385369
O O10 0.641783 0.878742 0.941758
O O11 0.738764 0.784951 0.884826
#
# Coordination Sequence:
#
# PCOD9532371 Si02
#       7
#     8  16  16   8  16  16   8
#     4  12  26  44  76 106 142 188 242 310 374 438
#     4  11  26  48  71 108 142 192 245 301 377 449
#     4  11  23  44  70  99 143 184 234 295 358 430
#     4  10  22  46  66 102 132 186 240 282 352 438
#     4  11  23  44  69 100 140 187 230 298 355 425
#     4  11  25  46  70 103 145 184 242 301 368 444
#     4  10  26  40  66 106 142 184 242 284 348 436
#
# _framework density 23.513974999999999
#
# number of rings (size 3 to 8) (size 9 to 14) (size 15 to 20)
#    0.000    1.091    1.818    3.273    7.636    1.455 
#    0.000    0.000    0.000    0.000    0.000    0.000 
#    0.000    0.000    0.000    0.000    0.000    0.000 
#
# Total GULP energy -245475.720973 kJ/mol
# GULP energy per Si atom -5578.993658 kJ/mol
# Density = 2.346046 g / cm^3
# Si number density = 23.513975 Si / 1000 Ang^3
#
#
#
# Elastic Constant Matrix: (Units=GPa)
#
#
# Indices 1 2 3 4 5 6 
#
# 1 83.5571 7.7659 2.0903 0.0001 0.0000 0.0000
# 2 7.7659 125.8310 23.0037 -0.0001 0.0000 0.0000
# 3 2.0903 23.0037 58.9488 -0.0004 0.0000 0.0002
# 4 0.0001 -0.0001 -0.0004 33.9266 0.0000 0.0001
# 5 0.0000 0.0000 0.0000 0.0000 25.2695 0.0001
# 6 0.0000 0.0000 0.0002 0.0001 0.0001 91.1778
#
#
#
# Elastic Compliance Matrix: (Units=1/GPa)
#
#
# Indices 1 2 3 4 5 6 
#
# 1 0.012038 -0.000716 -0.000147 0.000000 0.000000 0.000000
# 2 -0.000716 0.008600 -0.003331 0.000000 0.000000 0.000000
# 3 -0.000147 -0.003331 0.018269 0.000000 0.000000 0.000000
# 4 0.000000 0.000000 0.000000 0.029475 0.000000 0.000000
# 5 0.000000 0.000000 0.000000 0.000000 0.039573 0.000000
# 6 0.000000 0.000000 0.000000 0.000000 0.000000 0.010968
#
#
# Mechanical properties :
#
#
# Convention : Reuss Voigt Hill
#
# Bulk Modulus (GPa) = 32.76660 37.11742 34.94201
# Shear Modulus (GPa) = 36.36763 45.77324 41.07043
#
# Velocity S-wave (km/s) = 3.93700 4.41686 4.18382
# Velocity P-wave (km/s) = 5.88488 6.46769 6.18316
#
# Compressibility (1/GPa) = 0.03051888
#
# Stress axis : x y z
#
# Youngs Moduli (GPa) = 83.06963 116.27562 54.73794
#
# Poissons Ratio (x) = 0.08325 0.00807
# Poissons Ratio (y) = 0.05948 0.18232
# Poissons Ratio (z) = 0.01225 0.38728
#
# Static dielectric constant tensor:
#      x y z
#    x 2.474420 0.000000 0.000000 
#    y 0.000000 1.842860 0.000000 
#    z 0.000000 0.000000 1.820200 
# 
# From -- ./inp_files/10991.got.cif
#   From: 2010.05.17/outbox.cif.g08.bks.cpg/sg73_6_cif.got.tgz:10991.got - 2010.06.03 17:35:07.
