data_PCOD9532010
_publ_section_title
;
Structure prediction by ZEFSAII (Michael W. Deem and Ramdas Pophale) SiO2 
 PCOD9532010
Probable space group: I B C A 
;
_chemical_formula_sum "Si O2"
_cell_formula_units_Z 104
_cell_length_a 8.765433
_cell_length_b 21.785878
_cell_length_c 26.531460
_cell_angle_alpha 90.000000
_cell_angle_beta 90.000000
_cell_angle_gamma 90.000000
_cell_volume 5066.518015
_symmetry_space_group_name_H-M "I B C A "
_symmetry_group_IT_number 73
_symmetry_cell_setting 'orthorhombic'
loop_
_space_group_symop_operation_xyz
x,y,z
-x,1/2-y,z
x,-y,1/2-z
1/2-x,y,-z
-x,-y,-z
x,1/2+y,-z
-x,y,1/2+z
1/2+x,-y,z
1/2+x,1/2+y,1/2+z
1/2-x,-y,1/2+z
1/2+x,1/2-y,-z
-x,1/2+y,1/2-z
1/2-x,1/2-y,1/2-z
1/2+x,y,1/2-z
1/2-x,1/2+y,z
x,1/2-y,1/2+z
loop_
_atom_site_type_symbol
_atom_site_label
_atom_site_fract_x
_atom_site_fract_y
_atom_site_fract_z
Si Si1 0.912551 0.185585 0.903668
Si Si2 0.750000 0.872959 0.500000
Si Si3 0.406901 0.592585 0.834822
Si Si4 0.838864 0.007417 0.862308
Si Si5 0.434779 0.071794 0.416417
Si Si6 0.885649 0.297374 0.759476
Si Si7 0.916935 0.687837 0.855710
O O1 0.763700 0.191067 0.867443
O O2 0.000000 0.250000 0.907917
O O3 0.027620 0.133433 0.881649
O O4 0.836750 0.165830 0.956975
O O5 0.622725 0.913453 0.528208
O O6 0.259378 0.549765 0.842239
O O7 0.547476 0.544644 0.825477
O O8 0.368058 0.642620 0.792651
O O9 0.944279 0.981303 0.907241
O O10 0.714834 0.053029 0.884795
O O11 0.488102 0.133497 0.388631
O O12 0.750000 0.250000 0.750000
O O13 0.940842 0.318803 0.704161
O O14 0.000000 0.250000 0.785995
O O15 0.000000 0.750000 0.870961
#
# Coordination Sequence:
#
# PCOD9532010 Si02
#       7
#    16   8  16  16  16  16  16
#     4  11  23  43  69  97 134 172 220 289 339 397
#     4  10  22  42  66  94 136 162 226 276 342 404
#     4  11  22  45  66  97 131 177 222 279 332 398
#     4  10  23  42  68  90 132 177 221 267 336 395
#     4  10  22  43  62  93 126 170 216 273 328 396
#     4  11  24  39  68  98 128 170 223 269 330 405
#     4  10  22  40  65  94 129 171 213 276 329 393
#
# _framework density 20.526917999999998
#
# number of rings (size 3 to 8) (size 9 to 14) (size 15 to 20)
#    0.000    1.538    3.077    2.308    6.462    3.077 
#    0.000    4.615    0.000    0.000    0.000    0.000 
#    0.000    0.000    0.000    0.000    0.000    0.000 
#
# Total GULP energy -290102.188623 kJ/mol
# GULP energy per Si atom -5578.888243 kJ/mol
# Density = 2.048020 g / cm^3
# Si number density = 20.526918 Si / 1000 Ang^3
#
#
#
# Elastic Constant Matrix: (Units=GPa)
#
#
# Indices 1 2 3 4 5 6 
#
# 1 82.8998 53.2316 9.1318 0.0000 0.0000 0.0000
# 2 53.2316 147.1387 46.6925 0.0000 0.0000 0.0000
# 3 9.1318 46.6925 75.2461 0.0000 0.0000 0.0000
# 4 0.0000 0.0000 0.0000 26.3226 0.0000 0.0000
# 5 0.0000 0.0000 0.0000 0.0000 19.1715 0.0000
# 6 0.0000 0.0000 0.0000 0.0000 0.0000 48.0224
#
#
#
# Elastic Compliance Matrix: (Units=1/GPa)
#
#
# Indices 1 2 3 4 5 6 
#
# 1 0.015963 -0.006426 0.002050 0.000000 0.000000 0.000000
# 2 -0.006426 0.011049 -0.006077 0.000000 0.000000 0.000000
# 3 0.002050 -0.006077 0.016812 0.000000 0.000000 0.000000
# 4 0.000000 0.000000 0.000000 0.037990 0.000000 0.000000
# 5 0.000000 0.000000 0.000000 0.000000 0.052161 0.000000
# 6 0.000000 0.000000 0.000000 0.000000 0.000000 0.020824
#
#
# Mechanical properties :
#
#
# Convention : Reuss Voigt Hill
#
# Bulk Modulus (GPa) = 43.63095 58.15515 50.89305
# Shear Modulus (GPa) = 27.27136 31.78522 29.52829
#
# Velocity S-wave (km/s) = 3.64890 3.93932 3.79689
# Velocity P-wave (km/s) = 6.24934 7.00598 6.63845
#
# Compressibility (1/GPa) = 0.02291951
#
# Stress axis : x y z
#
# Youngs Moduli (GPa) = 62.64513 90.50369 59.48258
#
# Poissons Ratio (x) = 0.58154 -0.12194
# Poissons Ratio (y) = 0.40253 0.36145
# Poissons Ratio (z) = -0.12842 0.54995
#
# Static dielectric constant tensor:
#      x y z
#    x 1.297100 0.000000 0.000000 
#    y 0.000000 1.874400 0.000000 
#    z 0.000000 0.000000 1.727740 
# 
# From -- ./inp_files/31278.got.cif
#   From: 2010.05.17/outbox.cif.g08.bks.cpg/sg73_16_cif.got.tgz:31278.got - 2010.06.03 17:35:07.
