data_PCOD9532782
_publ_section_title
;
Structure prediction by ZEFSAII (Michael W. Deem and Ramdas Pophale) SiO2 
 PCOD9532782
Probable space group: I B C A 
;
_chemical_formula_sum "Si O2"
_cell_formula_units_Z 48
_cell_length_a 20.888003
_cell_length_b 10.409603
_cell_length_c 8.035596
_cell_angle_alpha 90.000000
_cell_angle_beta 90.000000
_cell_angle_gamma 90.000000
_cell_volume 1747.226395
_symmetry_space_group_name_H-M "I B C A "
_symmetry_group_IT_number 73
_symmetry_cell_setting 'orthorhombic'
loop_
_space_group_symop_operation_xyz
x,y,z
-x,1/2-y,z
x,-y,1/2-z
1/2-x,y,-z
-x,-y,-z
x,1/2+y,-z
-x,y,1/2+z
1/2+x,-y,z
1/2+x,1/2+y,1/2+z
1/2-x,-y,1/2+z
1/2+x,1/2-y,-z
-x,1/2+y,1/2-z
1/2-x,1/2-y,1/2-z
1/2+x,y,1/2-z
1/2-x,1/2+y,z
x,1/2-y,1/2+z
loop_
_atom_site_type_symbol
_atom_site_label
_atom_site_fract_x
_atom_site_fract_y
_atom_site_fract_z
Si Si1 0.302018 0.101149 0.883658
Si Si2 0.934012 0.794387 0.842754
Si Si3 0.585497 0.972891 0.556435
O O1 0.359010 0.183425 0.794208
O O2 0.275681 0.000000 0.750000
O O3 0.250000 0.170727 0.000000
O O4 0.342443 0.015112 0.014016
O O5 0.924860 0.676929 0.972579
O O6 0.000000 0.750000 0.754969
O O7 0.949612 0.930477 0.929678
O O8 0.574466 0.000000 0.750000
#
# Coordination Sequence:
#
# PCOD9532782 Si02
#       3
#    16  16  16
#     4  10  24  44  74 107 153 199 251 311 381 453
#     4  10  24  43  71 106 149 196 250 311 382 444
#     4  10  24  42  71 107 146 188 251 314 377 451
#
# _framework density 27.472111000000002
#
# number of rings (size 3 to 8) (size 9 to 14) (size 15 to 20)
#    2.000    0.000    0.000    2.000    4.667    4.000 
#    0.000    5.000    0.000    0.000    0.000    0.000 
#    0.000    0.000    0.000    0.000    0.000    0.000 
#
# Total GULP energy -133630.783454 kJ/mol
# GULP energy per Si atom -5567.949311 kJ/mol
# Density = 2.740958 g / cm^3
# Si number density = 27.472111 Si / 1000 Ang^3
#
#
#
# Elastic Constant Matrix: (Units=GPa)
#
#
# Indices 1 2 3 4 5 6 
#
# 1 153.5269 12.6141 59.1774 0.0000 0.0000 0.0000
# 2 12.6141 108.5697 11.8798 0.0000 0.0000 0.0000
# 3 59.1774 11.8798 121.8354 0.0000 0.0000 0.0000
# 4 0.0000 0.0000 0.0000 18.0574 0.0000 0.0000
# 5 0.0000 0.0000 0.0000 0.0000 41.5075 0.0000
# 6 0.0000 0.0000 0.0000 0.0000 0.0000 33.5729
#
#
#
# Elastic Compliance Matrix: (Units=1/GPa)
#
#
# Indices 1 2 3 4 5 6 
#
# 1 0.008042 -0.000512 -0.003856 0.000000 0.000000 0.000000
# 2 -0.000512 0.009343 -0.000662 0.000000 0.000000 0.000000
# 3 -0.003856 -0.000662 0.010145 0.000000 0.000000 0.000000
# 4 0.000000 0.000000 0.000000 0.055379 0.000000 0.000000
# 5 0.000000 0.000000 0.000000 0.000000 0.024092 0.000000
# 6 0.000000 0.000000 0.000000 0.000000 0.000000 0.029786
#
#
# Mechanical properties :
#
#
# Convention : Reuss Voigt Hill
#
# Bulk Modulus (GPa) = 57.24530 61.25272 59.24901
# Shear Modulus (GPa) = 32.75014 38.64494 35.69754
#
# Velocity S-wave (km/s) = 3.45646 3.75467 3.60864
# Velocity P-wave (km/s) = 6.06732 6.41416 6.24315
#
# Compressibility (1/GPa) = 0.01746868
#
# Stress axis : x y z
#
# Youngs Moduli (GPa) = 124.34752 107.03596 98.56734
#
# Poissons Ratio (x) = 0.05485 0.38009
# Poissons Ratio (y) = 0.06372 0.06526
# Poissons Ratio (z) = 0.47950 0.07087
#
# Static dielectric constant tensor:
#      x y z
#    x 2.198110 0.000000 0.000000 
#    y 0.000000 2.106840 0.000000 
#    z 0.000000 0.000000 2.194870 
# 
# From -- ./inp_files/5021.got.cif
#   From: 2010.05.17/outbox.cif.g08.bks.cpg/sg73_3_cif.got.tgz:5021.got - 2010.06.03 17:35:07.
