data_PCOD9532452
_publ_section_title
;
Structure prediction by ZEFSAII (Michael W. Deem and Ramdas Pophale) SiO2 
 PCOD9532452
Probable space group: I B C A 
;
_chemical_formula_sum "Si O2"
_cell_formula_units_Z 104
_cell_length_a 19.747177
_cell_length_b 26.977207
_cell_length_c 9.083780
_cell_angle_alpha 90.000000
_cell_angle_beta 90.000000
_cell_angle_gamma 90.000000
_cell_volume 4839.144724
_symmetry_space_group_name_H-M "I B C A "
_symmetry_group_IT_number 73
_symmetry_cell_setting 'orthorhombic'
loop_
_space_group_symop_operation_xyz
x,y,z
-x,1/2-y,z
x,-y,1/2-z
1/2-x,y,-z
-x,-y,-z
x,1/2+y,-z
-x,y,1/2+z
1/2+x,-y,z
1/2+x,1/2+y,1/2+z
1/2-x,-y,1/2+z
1/2+x,1/2-y,-z
-x,1/2+y,1/2-z
1/2-x,1/2-y,1/2-z
1/2+x,y,1/2-z
1/2-x,1/2+y,z
x,1/2-y,1/2+z
loop_
_atom_site_type_symbol
_atom_site_label
_atom_site_fract_x
_atom_site_fract_y
_atom_site_fract_z
Si Si1 0.250000 0.693977 0.500000
Si Si2 0.534705 0.889354 0.506370
Si Si3 0.922682 0.188064 0.395594
Si Si4 0.352833 0.152042 0.703502
Si Si5 0.883444 0.755247 0.368638
Si Si6 0.329708 0.607756 0.993561
Si Si7 0.557901 0.055113 0.690574
O O1 0.280306 0.660974 0.369339
O O2 0.189000 0.725605 0.428105
O O3 0.476450 0.849084 0.467404
O O4 0.599895 0.867283 0.426569
O O5 0.547351 0.906456 0.673063
O O6 0.505537 0.936746 0.417895
O O7 0.923604 0.204323 0.226706
O O8 0.923707 0.237760 0.489610
O O9 0.850141 0.160888 0.421447
O O10 0.373897 0.205395 0.771300
O O11 0.353825 0.113636 0.837803
O O12 0.374393 0.569412 0.900273
O O13 0.250000 0.599047 0.000000
O O14 0.561781 0.000000 0.750000
#
# Coordination Sequence:
#
# PCOD9532452 Si02
#       7
#     8  16  16  16  16  16  16
#     4  12  24  38  64  96 134 192 252 270 320 398
#     4  11  25  45  67 102 137 171 228 280 358 412
#     4  10  23  40  63  94 135 184 227 283 326 395
#     4  11  25  40  63  98 137 187 228 286 325 401
#     4  11  22  40  59  92 136 186 235 278 318 382
#     4  10  23  43  68  96 137 179 222 278 342 400
#     4  11  24  47  77 103 131 172 219 287 353 436
#
# _framework density 21.491402000000001
#
# number of rings (size 3 to 8) (size 9 to 14) (size 15 to 20)
#    0.000    1.231    1.538    4.615   10.769    0.615 
#    2.769    1.538    0.000    0.923    0.000    0.000 
#    0.000    0.000    0.000    0.000    0.000    0.000 
#
# Total GULP energy -290669.202054 kJ/mol
# GULP energy per Si atom -5589.792347 kJ/mol
# Density = 2.144249 g / cm^3
# Si number density = 21.491402 Si / 1000 Ang^3
#
#
#
# Elastic Constant Matrix: (Units=GPa)
#
#
# Indices 1 2 3 4 5 6 
#
# 1 93.8791 34.8828 21.7697 0.0000 0.0000 0.0000
# 2 34.8828 89.9141 37.9064 0.0000 0.0000 0.0000
# 3 21.7697 37.9064 109.9704 0.0000 0.0000 0.0000
# 4 0.0000 0.0000 0.0000 39.4471 0.0000 0.0000
# 5 0.0000 0.0000 0.0000 0.0000 36.9829 0.0000
# 6 0.0000 0.0000 0.0000 0.0000 0.0000 14.5529
#
#
#
# Elastic Compliance Matrix: (Units=1/GPa)
#
#
# Indices 1 2 3 4 5 6 
#
# 1 0.012529 -0.004464 -0.000942 0.000000 0.000000 0.000000
# 2 -0.004464 0.014603 -0.004150 0.000000 0.000000 0.000000
# 3 -0.000942 -0.004150 0.010710 0.000000 0.000000 0.000000
# 4 0.000000 0.000000 0.000000 0.025350 0.000000 0.000000
# 5 0.000000 0.000000 0.000000 0.000000 0.027040 0.000000
# 6 0.000000 0.000000 0.000000 0.000000 0.000000 0.068715
#
#
# Mechanical properties :
#
#
# Convention : Reuss Voigt Hill
#
# Bulk Modulus (GPa) = 53.38571 53.65351 53.51961
# Shear Modulus (GPa) = 27.12948 31.47687 29.30318
#
# Velocity S-wave (km/s) = 3.55680 3.83120 3.69654
# Velocity P-wave (km/s) = 6.46237 6.67758 6.57085
#
# Compressibility (1/GPa) = 0.01873161
#
# Stress axis : x y z
#
# Youngs Moduli (GPa) = 79.81514 68.47889 93.36859
#
# Poissons Ratio (x) = 0.30567 0.08792
# Poissons Ratio (y) = 0.35627 0.38748
# Poissons Ratio (z) = 0.07515 0.28419
#
# Static dielectric constant tensor:
#      x y z
#    x 1.799340 0.000000 0.000000 
#    y 0.000000 1.797150 0.000000 
#    z 0.000000 0.000000 1.811450 
# 
# From -- ./inp_files/6676.got.cif
#   From: 2010.05.17/outbox.cif.g08.bks.cpg/sg73_4_cif.got.tgz:6676.got - 2010.06.03 17:35:07.
