data_PCOD9532251
_publ_section_title
;
Structure prediction by ZEFSAII (Michael W. Deem and Ramdas Pophale) SiO2 
 PCOD9532251
Probable space group: I B C A 
;
_chemical_formula_sum "Si O2"
_cell_formula_units_Z 88
_cell_length_a 13.002740
_cell_length_b 23.809525
_cell_length_c 14.005744
_cell_angle_alpha 90.000000
_cell_angle_beta 90.000000
_cell_angle_gamma 90.000000
_cell_volume 4336.025163
_symmetry_space_group_name_H-M "I B C A "
_symmetry_group_IT_number 73
_symmetry_cell_setting 'orthorhombic'
loop_
_space_group_symop_operation_xyz
x,y,z
-x,1/2-y,z
x,-y,1/2-z
1/2-x,y,-z
-x,-y,-z
x,1/2+y,-z
-x,y,1/2+z
1/2+x,-y,z
1/2+x,1/2+y,1/2+z
1/2-x,-y,1/2+z
1/2+x,1/2-y,-z
-x,1/2+y,1/2-z
1/2-x,1/2-y,1/2-z
1/2+x,y,1/2-z
1/2-x,1/2+y,z
x,1/2-y,1/2+z
loop_
_atom_site_type_symbol
_atom_site_label
_atom_site_fract_x
_atom_site_fract_y
_atom_site_fract_z
Si Si1 0.065904 0.619279 0.822768
Si Si2 0.782367 0.703333 0.391006
Si Si3 0.649940 0.818100 0.700333
Si Si4 0.128600 0.000000 0.750000
Si Si5 0.285690 0.411981 0.156380
Si Si6 0.459916 0.492482 0.104204
O O1 0.136188 0.652765 0.897046
O O2 0.132640 0.615904 0.727545
O O3 0.058635 0.554699 0.854664
O O4 0.961376 0.652944 0.803556
O O5 0.750000 0.715955 0.500000
O O6 0.840694 0.756151 0.343059
O O7 0.696012 0.686046 0.309721
O O8 0.718192 0.858195 0.630001
O O9 0.202739 0.953225 0.794395
O O10 0.052838 0.971638 0.672173
O O11 0.359165 0.453556 0.097906
O O12 0.500000 0.500000 0.000000
#
# Coordination Sequence:
#
# PCOD9532251 Si02
#       6
#    16  16  16   8  16  16
#     4  11  21  41  65  93 129 170 219 268 329 389
#     4  10  24  43  66  97 127 170 225 272 331 391
#     4  10  22  43  69  91 130 176 212 275 334 389
#     4  12  20  44  62  86 138 170 208 266 322 384
#     4  11  21  41  66  89 131 175 209 261 330 390
#     4  12  25  38  63 100 128 173 220 262 329 396
#
# _framework density 20.295086000000001
#
# number of rings (size 3 to 8) (size 9 to 14) (size 15 to 20)
#    0.000    1.091    5.455    0.545    0.000    6.545 
#    0.000    9.091    0.000    0.000    0.000    0.000 
#    0.000    0.000    0.000    0.000    0.000    0.000 
#
# Total GULP energy -245125.905838 kJ/mol
# GULP energy per Si atom -5571.043315 kJ/mol
# Density = 2.024889 g / cm^3
# Si number density = 20.295086 Si / 1000 Ang^3
#
#
#
# Elastic Constant Matrix: (Units=GPa)
#
#
# Indices 1 2 3 4 5 6 
#
# 1 57.3326 -1.8029 7.3283 0.0000 0.0000 0.0000
# 2 -1.8029 49.4980 -19.1272 0.0001 0.0000 0.0000
# 3 7.3283 -19.1272 68.2620 0.0001 0.0000 0.0000
# 4 0.0000 0.0001 0.0001 7.7787 0.0000 0.0000
# 5 0.0000 0.0000 0.0000 0.0000 10.8649 0.0000
# 6 0.0000 0.0000 0.0000 0.0000 0.0000 35.3554
#
#
#
# Elastic Compliance Matrix: (Units=1/GPa)
#
#
# Indices 1 2 3 4 5 6 
#
# 1 0.017685 -0.000100 -0.001927 0.000000 0.000000 0.000000
# 2 -0.000100 0.022657 0.006359 0.000000 0.000000 0.000000
# 3 -0.001927 0.006359 0.016638 0.000000 0.000000 0.000000
# 4 0.000000 0.000000 0.000000 0.128557 0.000000 0.000000
# 5 0.000000 0.000000 0.000000 0.000000 0.092040 0.000000
# 6 0.000000 0.000000 0.000000 0.000000 0.000000 0.028284
#
#
# Mechanical properties :
#
#
# Convention : Reuss Voigt Hill
#
# Bulk Modulus (GPa) = 15.23365 16.43210 15.83288
# Shear Modulus (GPa) = 15.67016 23.37942 19.52479
#
# Velocity S-wave (km/s) = 2.78171 3.39776 3.10505
# Velocity P-wave (km/s) = 4.22370 4.84842 4.54680
#
# Compressibility (1/GPa) = 0.06564413
#
# Stress axis : x y z
#
# Youngs Moduli (GPa) = 56.54447 44.13739 60.10280
#
# Poissons Ratio (x) = 0.00443 0.11580
# Poissons Ratio (y) = 0.00568 -0.38221
# Poissons Ratio (z) = 0.10895 -0.28068
#
# Static dielectric constant tensor:
#      x y z
#    x 1.736530 0.000000 0.000000 
#    y 0.000000 1.747200 0.000000 
#    z 0.000000 0.000000 1.752850 
# 
# From -- ./inp_files/16148.got.cif
#   From: 2010.05.17/outbox.cif.g08.bks.cpg/sg73_9_cif.got.tgz:16148.got - 2010.06.03 17:35:07.
