data_PCOD9532000
_publ_section_title
;
Structure prediction by ZEFSAII (Michael W. Deem and Ramdas Pophale) SiO2 
 PCOD9532000
Probable space group: I B C A 
;
_chemical_formula_sum "Si O2"
_cell_formula_units_Z 56
_cell_length_a 7.471133
_cell_length_b 14.029611
_cell_length_c 20.839542
_cell_angle_alpha 90.000000
_cell_angle_beta 90.000000
_cell_angle_gamma 90.000000
_cell_volume 2184.340144
_symmetry_space_group_name_H-M "I B C A "
_symmetry_group_IT_number 73
_symmetry_cell_setting 'orthorhombic'
loop_
_space_group_symop_operation_xyz
x,y,z
-x,1/2-y,z
x,-y,1/2-z
1/2-x,y,-z
-x,-y,-z
x,1/2+y,-z
-x,y,1/2+z
1/2+x,-y,z
1/2+x,1/2+y,1/2+z
1/2-x,-y,1/2+z
1/2+x,1/2-y,-z
-x,1/2+y,1/2-z
1/2-x,1/2-y,1/2-z
1/2+x,y,1/2-z
1/2-x,1/2+y,z
x,1/2-y,1/2+z
loop_
_atom_site_type_symbol
_atom_site_label
_atom_site_fract_x
_atom_site_fract_y
_atom_site_fract_z
Si Si1 0.337556 0.078756 0.858934
Si Si2 0.000000 0.750000 0.065231
Si Si3 0.250000 0.102018 0.000000
Si Si4 0.931208 0.371607 0.325846
Si Si5 0.000000 0.750000 0.793522
O O1 0.320003 0.052995 0.934954
O O2 0.487241 0.158776 0.842678
O O3 0.144427 0.118083 0.837366
O O4 0.364851 0.978623 0.824062
O O5 0.094357 0.671775 0.023117
O O6 0.129133 0.809105 0.113235
O O7 0.891597 0.311254 0.262565
#
# Coordination Sequence:
#
# PCOD9532000 Si02
#       5
#    16   8   8  16   8
#     4  11  24  41  65  94 129 169 213 269 325 394
#     4   9  21  40  60  88 127 167 216 268 316 385
#     4  10  22  40  64  94 126 174 218 258 328 386
#     4  10  24  41  62  94 128 167 214 269 328 384
#     4  11  23  42  66  92 127 167 218 270 324 383
#
# _framework density 25.637031
#
# number of rings (size 3 to 8) (size 9 to 14) (size 15 to 20)
#    0.000    1.714    0.000    2.571    0.000   19.429 
#    0.000    0.000    0.000    0.000    0.000    0.000 
#    0.000    0.000    0.000    0.000    0.000    0.000 
#
# Total GULP energy -155979.003851 kJ/mol
# GULP energy per Si atom -5570.678709 kJ/mol
# Density = 2.557868 g / cm^3
# Si number density = 25.637031 Si / 1000 Ang^3
#
#
#
# Elastic Constant Matrix: (Units=GPa)
#
#
# Indices 1 2 3 4 5 6 
#
# 1 60.2269 32.1951 29.3188 0.0000 0.0000 0.0000
# 2 32.1951 208.7350 41.4154 0.0000 0.0000 0.0000
# 3 29.3188 41.4154 167.4686 0.0000 0.0000 0.0000
# 4 0.0000 0.0000 0.0000 44.7633 0.0000 0.0000
# 5 0.0000 0.0000 0.0000 0.0000 18.2235 0.0000
# 6 0.0000 0.0000 0.0000 0.0000 0.0000 35.5312
#
#
#
# Elastic Compliance Matrix: (Units=1/GPa)
#
#
# Indices 1 2 3 4 5 6 
#
# 1 0.019246 -0.002419 -0.002771 0.000000 0.000000 0.000000
# 2 -0.002419 0.005342 -0.000898 0.000000 0.000000 0.000000
# 3 -0.002771 -0.000898 0.006678 0.000000 0.000000 0.000000
# 4 0.000000 0.000000 0.000000 0.022340 0.000000 0.000000
# 5 0.000000 0.000000 0.000000 0.000000 0.054874 0.000000
# 6 0.000000 0.000000 0.000000 0.000000 0.000000 0.028144
#
#
# Mechanical properties :
#
#
# Convention : Reuss Voigt Hill
#
# Bulk Modulus (GPa) = 52.38023 71.36543 61.87283
# Shear Modulus (GPa) = 32.22415 41.93702 37.08059
#
# Velocity S-wave (km/s) = 3.54918 4.04889 3.80724
# Velocity P-wave (km/s) = 6.10503 7.05374 6.59646
#
# Compressibility (1/GPa) = 0.01909117
#
# Stress axis : x y z
#
# Youngs Moduli (GPa) = 51.95930 187.19898 149.73601
#
# Poissons Ratio (x) = 0.45276 0.41495
# Poissons Ratio (y) = 0.12567 0.13441
# Poissons Ratio (z) = 0.14399 0.16804
#
# Static dielectric constant tensor:
#      x y z
#    x 2.275430 0.000000 0.000000 
#    y 0.000000 2.041860 0.000000 
#    z 0.000000 0.000000 2.123590 
# 
# From -- ./inp_files/4488.got.cif
#   From: 2010.05.17/outbox.cif.g08.bks.cpg/sg73_3_cif.got.tgz:4488.got - 2010.06.03 17:35:07.
