data_PCOD9532734
_publ_section_title
;
Structure prediction by ZEFSAII (Michael W. Deem and Ramdas Pophale) SiO2 
 PCOD9532734
Probable space group: I B C A 
;
_chemical_formula_sum "Si O2"
_cell_formula_units_Z 64
_cell_length_a 9.150861
_cell_length_b 13.288440
_cell_length_c 18.765490
_cell_angle_alpha 90.000000
_cell_angle_beta 90.000000
_cell_angle_gamma 90.000000
_cell_volume 2281.896107
_symmetry_space_group_name_H-M "I B C A "
_symmetry_group_IT_number 73
_symmetry_cell_setting 'orthorhombic'
loop_
_space_group_symop_operation_xyz
x,y,z
-x,1/2-y,z
x,-y,1/2-z
1/2-x,y,-z
-x,-y,-z
x,1/2+y,-z
-x,y,1/2+z
1/2+x,-y,z
1/2+x,1/2+y,1/2+z
1/2-x,-y,1/2+z
1/2+x,1/2-y,-z
-x,1/2+y,1/2-z
1/2-x,1/2-y,1/2-z
1/2+x,y,1/2-z
1/2-x,1/2+y,z
x,1/2-y,1/2+z
loop_
_atom_site_type_symbol
_atom_site_label
_atom_site_fract_x
_atom_site_fract_y
_atom_site_fract_z
Si Si1 0.223609 0.097663 0.918000
Si Si2 0.935575 0.397098 0.612742
Si Si3 0.250000 0.219515 0.500000
Si Si4 0.538659 0.882476 0.764309
Si Si5 0.750000 0.250000 0.250000
O O1 0.391381 0.101883 0.891371
O O2 0.168317 0.206255 0.945282
O O3 0.120908 0.010959 0.885479
O O4 0.250000 0.051184 0.000000
O O5 0.862278 0.341831 0.547474
O O6 0.892715 0.338876 0.687235
O O7 0.386402 0.828851 0.772791
O O8 0.675161 0.838054 0.806772
O O9 0.521197 0.000000 0.750000
#
# Coordination Sequence:
#
# PCOD9532734 Si02
#       5
#    16  16   8  16   8
#     4  10  25  40  69 102 144 185 243 291 373 452
#     4  12  25  45  72 105 146 198 239 315 381 451
#     4  10  24  40  72 100 148 184 246 298 368 464
#     4  11  27  48  77 107 154 194 262 323 385 450
#     4  10  26  46  74 108 142 196 260 316 380 468
#
# _framework density 28.046852999999999
#
# number of rings (size 3 to 8) (size 9 to 14) (size 15 to 20)
#    0.750    0.500    1.250    2.250   14.000    0.000 
#    0.000    0.000    5.500    0.000    0.000    0.000 
#    0.000    0.000    0.000    0.000    0.000    0.000 
#
# Total GULP energy -178287.601826 kJ/mol
# GULP energy per Si atom -5571.487557 kJ/mol
# Density = 2.798302 g / cm^3
# Si number density = 28.046853 Si / 1000 Ang^3
#
#
#
# Elastic Constant Matrix: (Units=GPa)
#
#
# Indices 1 2 3 4 5 6 
#
# 1 197.7951 78.9674 50.3059 0.0000 0.0000 0.0000
# 2 78.9674 250.9898 -12.5500 0.0000 0.0000 0.0000
# 3 50.3059 -12.5500 51.6391 0.0000 0.0000 0.0000
# 4 0.0000 0.0000 0.0000 -105.7017 0.0000 0.0000
# 5 0.0000 0.0000 0.0000 0.0000 35.3259 0.0000
# 6 0.0000 0.0000 0.0000 0.0000 0.0000 55.3476
#
#
#
# Elastic Compliance Matrix: (Units=1/GPa)
#
#
# Indices 1 2 3 4 5 6 
#
# 1 0.008677 -0.003191 -0.009229 0.000000 0.000000 0.000000
# 2 -0.003191 0.005207 0.004375 0.000000 0.000000 0.000000
# 3 -0.009229 0.004375 0.029419 0.000000 0.000000 0.000000
# 4 0.000000 0.000000 0.000000 -0.009461 0.000000 0.000000
# 5 0.000000 0.000000 0.000000 0.000000 0.028308 0.000000
# 6 0.000000 0.000000 0.000000 0.000000 0.000000 0.018068
#
#
# Mechanical properties :
#
#
# Convention : Reuss Voigt Hill
#
# Bulk Modulus (GPa) = 36.74887 81.54116 59.14502
# Shear Modulus (GPa) = 47.44762 22.57442 35.01102
#
# Velocity S-wave (km/s) = 4.11752 2.84012 3.53697
# Velocity P-wave (km/s) = 5.97800 6.31596 6.14930
#
# Compressibility (1/GPa) = 0.02721172
#
# Stress axis : x y z
#
# Youngs Moduli (GPa) = 115.24676 192.04664 33.99198
#
# Poissons Ratio (x) = 0.61291 0.31370
# Poissons Ratio (y) = 0.36780 -0.14870
# Poissons Ratio (z) = 1.06357 -0.84012
#
# Static dielectric constant tensor:
#      x y z
#    x 2.298270 0.000000 0.000000 
#    y 0.000000 2.042800 0.000000 
#    z 0.000000 0.000000 2.077560 
# 
# From -- ./inp_files/31037.got.cif
#   From: 2010.05.17/outbox.cif.g08.bks.cpg/sg73_16_cif.got.tgz:31037.got - 2010.06.03 17:35:07.
