data_PCOD9532741
_publ_section_title
;
Structure prediction by ZEFSAII (Michael W. Deem and Ramdas Pophale) SiO2 
 PCOD9532741
Probable space group: I B C A 
;
_chemical_formula_sum "Si O2"
_cell_formula_units_Z 96
_cell_length_a 12.213412
_cell_length_b 16.995025
_cell_length_c 20.801208
_cell_angle_alpha 90.000000
_cell_angle_beta 90.000000
_cell_angle_gamma 90.000000
_cell_volume 4317.649381
_symmetry_space_group_name_H-M "I B C A "
_symmetry_group_IT_number 73
_symmetry_cell_setting 'orthorhombic'
loop_
_space_group_symop_operation_xyz
x,y,z
-x,1/2-y,z
x,-y,1/2-z
1/2-x,y,-z
-x,-y,-z
x,1/2+y,-z
-x,y,1/2+z
1/2+x,-y,z
1/2+x,1/2+y,1/2+z
1/2-x,-y,1/2+z
1/2+x,1/2-y,-z
-x,1/2+y,1/2-z
1/2-x,1/2-y,1/2-z
1/2+x,y,1/2-z
1/2-x,1/2+y,z
x,1/2-y,1/2+z
loop_
_atom_site_type_symbol
_atom_site_label
_atom_site_fract_x
_atom_site_fract_y
_atom_site_fract_z
Si Si1 0.170031 0.381105 0.353736
Si Si2 0.012224 0.019147 0.924656
Si Si3 0.320169 0.676576 0.723476
Si Si4 0.678202 0.710031 0.559872
Si Si5 0.826212 0.472475 0.318472
Si Si6 0.560972 0.651871 0.098143
O O1 0.086847 0.406362 0.408915
O O2 0.117595 0.356298 0.286482
O O3 0.246309 0.311728 0.379965
O O4 0.244358 0.456305 0.336213
O O5 0.906243 0.031627 0.879749
O O6 0.071751 0.940887 0.898446
O O7 0.000000 0.000000 0.000000
O O8 0.250000 0.750000 0.750000
O O9 0.237068 0.608988 0.696638
O O10 0.408053 0.688112 0.667190
O O11 0.750000 0.683066 0.500000
O O12 0.561515 0.668524 0.572875
O O13 0.645540 0.801435 0.552998
O O14 0.379718 0.500000 0.250000
#
# Coordination Sequence:
#
# PCOD9532741 Si02
#       6
#    16  16  16  16  16  16
#     4  11  23  42  69 101 146 188 249 316 368 456
#     4  12  26  43  70 109 147 194 252 309 393 455
#     4  11  23  45  73 108 144 191 251 309 382 447
#     4  11  24  44  69 101 148 198 248 305 384 453
#     4  10  24  41  69 102 141 189 250 311 368 452
#     4  11  24  44  73 101 144 201 244 308 386 453
#
# _framework density 22.23432
#
# number of rings (size 3 to 8) (size 9 to 14) (size 15 to 20)
#    0.000    1.000    5.000    1.000    2.333    1.333 
#    0.000    0.000    0.000    0.000    0.000    0.000 
#    0.000    0.000    0.000    0.000    0.000    0.000 
#
# Total GULP energy -267820.488662 kJ/mol
# GULP energy per Si atom -5579.593514 kJ/mol
# Density = 2.218371 g / cm^3
# Si number density = 22.234320 Si / 1000 Ang^3
#
#
#
# Elastic Constant Matrix: (Units=GPa)
#
#
# Indices 1 2 3 4 5 6 
#
# 1 75.1369 22.3000 73.6678 0.0000 0.0000 0.0000
# 2 22.3000 45.3057 7.4801 0.0000 0.0000 0.0000
# 3 73.6678 7.4801 173.5420 0.0000 0.0000 0.0000
# 4 0.0000 0.0000 0.0000 31.3411 0.0000 0.0000
# 5 0.0000 0.0000 0.0000 0.0000 41.4444 0.0000
# 6 0.0000 0.0000 0.0000 0.0000 0.0000 31.5038
#
#
#
# Elastic Compliance Matrix: (Units=1/GPa)
#
#
# Indices 1 2 3 4 5 6 
#
# 1 0.027984 -0.011898 -0.011366 0.000000 0.000000 0.000000
# 2 -0.011898 0.027289 0.003874 0.000000 0.000000 0.000000
# 3 -0.011366 0.003874 0.010420 0.000000 0.000000 0.000000
# 4 0.000000 0.000000 0.000000 0.031907 0.000000 0.000000
# 5 0.000000 0.000000 0.000000 0.000000 0.024129 0.000000
# 6 0.000000 0.000000 0.000000 0.000000 0.000000 0.031742
#
#
# Mechanical properties :
#
#
# Convention : Reuss Voigt Hill
#
# Bulk Modulus (GPa) = 37.15552 55.65338 46.40445
# Shear Modulus (GPa) = 24.84820 33.56030 29.20425
#
# Velocity S-wave (km/s) = 3.34662 3.88930 3.62812
# Velocity P-wave (km/s) = 5.62853 6.72708 6.20218
#
# Compressibility (1/GPa) = 0.02691390
#
# Stress axis : x y z
#
# Youngs Moduli (GPa) = 35.73440 36.64518 95.96676
#
# Poissons Ratio (x) = 0.43599 1.09079
# Poissons Ratio (y) = 0.42515 -0.37180
# Poissons Ratio (z) = 0.40617 -0.14197
#
# Static dielectric constant tensor:
#      x y z
#    x 1.807420 0.000000 0.000000 
#    y 0.000000 1.844590 0.000000 
#    z 0.000000 0.000000 1.867020 
# 
# From -- ./inp_files/28925.got.cif
#   From: 2010.05.17/outbox.cif.g08.bks.cpg/sg73_15_cif.got.tgz:28925.got - 2010.06.03 17:35:07.
