data_PCOD9532077
_publ_section_title
;
Structure prediction by ZEFSAII (Michael W. Deem and Ramdas Pophale) SiO2 
 PCOD9532077
Probable space group: I B C A 
;
_chemical_formula_sum "Si O2"
_cell_formula_units_Z 120
_cell_length_a 27.847936
_cell_length_b 24.446417
_cell_length_c 8.240553
_cell_angle_alpha 90.000000
_cell_angle_beta 90.000000
_cell_angle_gamma 90.000000
_cell_volume 5610.022262
_symmetry_space_group_name_H-M "I B C A "
_symmetry_group_IT_number 73
_symmetry_cell_setting 'orthorhombic'
loop_
_space_group_symop_operation_xyz
x,y,z
-x,1/2-y,z
x,-y,1/2-z
1/2-x,y,-z
-x,-y,-z
x,1/2+y,-z
-x,y,1/2+z
1/2+x,-y,z
1/2+x,1/2+y,1/2+z
1/2-x,-y,1/2+z
1/2+x,1/2-y,-z
-x,1/2+y,1/2-z
1/2-x,1/2-y,1/2-z
1/2+x,y,1/2-z
1/2-x,1/2+y,z
x,1/2-y,1/2+z
loop_
_atom_site_type_symbol
_atom_site_label
_atom_site_fract_x
_atom_site_fract_y
_atom_site_fract_z
Si Si1 0.372477 0.198658 0.508234
Si Si2 0.287456 0.865126 0.144216
Si Si3 0.846412 0.694744 0.382376
Si Si4 0.027497 0.542794 0.111977
Si Si5 0.250000 0.329436 0.500000
Si Si6 0.121156 0.425018 0.575989
Si Si7 0.649711 0.970422 0.579411
Si Si8 0.929778 0.097821 0.914920
O O1 0.334273 0.173668 0.379785
O O2 0.382158 0.260560 0.455872
O O3 0.349805 0.195941 0.688589
O O4 0.418168 0.158961 0.527100
O O5 0.265140 0.860490 0.328124
O O6 0.308850 0.924860 0.094023
O O7 0.250000 0.851191 0.000000
O O8 0.793880 0.708433 0.446187
O O9 0.853764 0.633103 0.447291
O O10 0.038930 0.500000 0.250000
O O11 0.985124 0.587397 0.129723
O O12 0.075290 0.568297 0.040163
O O13 0.000000 0.500000 0.000000
O O14 0.153079 0.479046 0.547843
O O15 0.099378 0.419753 0.754564
O O16 0.599529 0.939330 0.543069
O O17 0.648899 0.000000 0.750000
#
# Coordination Sequence:
#
# PCOD9532077 Si02
#       8
#    16  16  16  16   8  16  16  16
#     4  10  23  44  68  94 132 168 221 284 346 390
#     4  11  24  45  64  96 131 172 222 278 335 393
#     4  11  24  42  67  96 128 175 224 284 334 406
#     4  12  21  37  65  98 130 170 218 264 320 402
#     4  12  24  42  70  96 130 170 234 270 332 402
#     4  11  23  41  63  94 134 171 224 268 338 398
#     4  11  22  39  60  92 128 169 211 266 328 393
#     4  10  22  41  64  94 133 173 212 277 335 397
#
# _framework density 21.39029
#
# number of rings (size 3 to 8) (size 9 to 14) (size 15 to 20)
#    0.000    1.067    4.000    2.400    0.933    2.133 
#    7.200    0.667    0.000    3.200    0.000    0.000 
#    0.000    0.000    0.000    0.000    0.000    0.000 
#
# Total GULP energy -334482.852910 kJ/mol
# GULP energy per Si atom -5574.714215 kJ/mol
# Density = 2.134161 g / cm^3
# Si number density = 21.390290 Si / 1000 Ang^3
#
#
#
# Elastic Constant Matrix: (Units=GPa)
#
#
# Indices 1 2 3 4 5 6 
#
# 1 50.1949 11.8481 20.9463 0.0000 0.0000 0.0000
# 2 11.8481 105.7660 20.5446 0.0000 0.0000 0.0000
# 3 20.9463 20.5446 95.3775 0.0000 0.0000 0.0000
# 4 0.0000 0.0000 0.0000 23.0875 0.0000 0.0000
# 5 0.0000 0.0000 0.0000 0.0000 18.4037 0.0000
# 6 0.0000 0.0000 0.0000 0.0000 0.0000 19.7401
#
#
#
# Elastic Compliance Matrix: (Units=1/GPa)
#
#
# Indices 1 2 3 4 5 6 
#
# 1 0.022191 -0.001606 -0.004527 0.000000 0.000000 0.000000
# 2 -0.001606 0.009984 -0.001798 0.000000 0.000000 0.000000
# 3 -0.004527 -0.001798 0.011866 0.000000 0.000000 0.000000
# 4 0.000000 0.000000 0.000000 0.043314 0.000000 0.000000
# 5 0.000000 0.000000 0.000000 0.000000 0.054337 0.000000
# 6 0.000000 0.000000 0.000000 0.000000 0.000000 0.050658
#
#
# Mechanical properties :
#
#
# Convention : Reuss Voigt Hill
#
# Bulk Modulus (GPa) = 35.48897 39.77960 37.63428
# Shear Modulus (GPa) = 22.97734 25.44621 24.21178
#
# Velocity S-wave (km/s) = 3.28105 3.45282 3.36803
# Velocity P-wave (km/s) = 5.56605 5.87651 5.72338
#
# Compressibility (1/GPa) = 0.02817777
#
# Stress axis : x y z
#
# Youngs Moduli (GPa) = 45.06373 100.16027 84.27310
#
# Poissons Ratio (x) = 0.16090 0.38154
# Poissons Ratio (y) = 0.07239 0.15151
# Poissons Ratio (z) = 0.20402 0.18007
#
# Static dielectric constant tensor:
#      x y z
#    x 1.820630 0.000000 0.000000 
#    y 0.000000 1.820760 0.000000 
#    z 0.000000 0.000000 1.786010 
# 
# From -- ./inp_files/8575.got.cif
#   From: 2010.05.17/outbox.cif.g08.bks.cpg/sg73_5_cif.got.tgz:8575.got - 2010.06.03 17:35:07.
