data_PCOD9532972
_publ_section_title
;
Structure prediction by ZEFSAII (Michael W. Deem and Ramdas Pophale) SiO2 
 PCOD9532972
Probable space group: I B C A 
;
_chemical_formula_sum "Si O2"
_cell_formula_units_Z 88
_cell_length_a 9.298219
_cell_length_b 15.755077
_cell_length_c 29.039109
_cell_angle_alpha 90.000000
_cell_angle_beta 90.000000
_cell_angle_gamma 90.000000
_cell_volume 4254.059773
_symmetry_space_group_name_H-M "I B C A "
_symmetry_group_IT_number 73
_symmetry_cell_setting 'orthorhombic'
loop_
_space_group_symop_operation_xyz
x,y,z
-x,1/2-y,z
x,-y,1/2-z
1/2-x,y,-z
-x,-y,-z
x,1/2+y,-z
-x,y,1/2+z
1/2+x,-y,z
1/2+x,1/2+y,1/2+z
1/2-x,-y,1/2+z
1/2+x,1/2-y,-z
-x,1/2+y,1/2-z
1/2-x,1/2-y,1/2-z
1/2+x,y,1/2-z
1/2-x,1/2+y,z
x,1/2-y,1/2+z
loop_
_atom_site_type_symbol
_atom_site_label
_atom_site_fract_x
_atom_site_fract_y
_atom_site_fract_z
Si Si1 0.553241 0.083298 0.280063
Si Si2 0.000000 0.250000 0.863096
Si Si3 0.000000 0.250000 0.062501
Si Si4 0.250000 0.678703 0.500000
Si Si5 0.548480 0.923307 0.615538
Si Si6 0.332462 0.318620 0.720159
Si Si7 0.376291 0.412243 0.084346
O O1 0.483316 0.075674 0.330159
O O2 0.720184 0.105437 0.286189
O O3 0.470091 0.152110 0.249100
O O4 0.540367 0.000000 0.250000
O O5 0.124983 0.218977 0.828893
O O6 0.050419 0.330637 0.892009
O O7 0.008402 0.165109 0.093538
O O8 0.141564 0.265311 0.030992
O O9 0.345174 0.617654 0.467622
O O10 0.719176 0.926923 0.606656
O O11 0.471144 0.004059 0.592032
O O12 0.250000 0.250000 0.750000
#
# Coordination Sequence:
#
# PCOD9532972 Si02
#       7
#    16   8   8   8  16  16  16
#     4  12  27  43  66 100 142 187 238 285 342 411
#     4  12  25  45  74 104 144 192 244 293 363 422
#     4  10  25  47  74 104 136 184 230 295 359 434
#     4  10  24  48  74 106 140 180 238 296 376 434
#     4  11  28  44  70 106 143 186 237 290 354 423
#     4  12  25  43  68  97 138 191 237 290 342 415
#     4  11  27  46  73 106 142 184 235 301 364 436
#
# _framework density 20.686122000000001
#
# number of rings (size 3 to 8) (size 9 to 14) (size 15 to 20)
#    0.000    0.727    1.818    3.273   15.273    5.091 
#    0.000    0.000    0.000    0.000    0.000    0.000 
#    0.000    0.000    0.000    0.000    0.000    0.000 
#
# Total GULP energy -246215.477957 kJ/mol
# GULP energy per Si atom -5595.806317 kJ/mol
# Density = 2.063904 g / cm^3
# Si number density = 20.686122 Si / 1000 Ang^3
#
#
#
# Elastic Constant Matrix: (Units=GPa)
#
#
# Indices 1 2 3 4 5 6 
#
# 1 85.2300 62.7947 22.4691 0.0000 0.0000 0.0000
# 2 62.7947 184.7071 72.6841 0.0000 0.0000 0.0000
# 3 22.4691 72.6841 117.3087 0.0000 0.0000 0.0000
# 4 0.0000 0.0000 0.0000 34.8894 0.0000 0.0000
# 5 0.0000 0.0000 0.0000 0.0000 37.1117 0.0000
# 6 0.0000 0.0000 0.0000 0.0000 0.0000 -1.0953
#
#
#
# Elastic Compliance Matrix: (Units=1/GPa)
#
#
# Indices 1 2 3 4 5 6 
#
# 1 0.015668 -0.005482 0.000396 0.000000 0.000000 0.000000
# 2 -0.005482 0.009078 -0.004575 0.000000 0.000000 0.000000
# 3 0.000396 -0.004575 0.011283 0.000000 0.000000 0.000000
# 4 0.000000 0.000000 0.000000 0.028662 0.000000 0.000000
# 5 0.000000 0.000000 0.000000 0.000000 0.026946 0.000000
# 6 0.000000 0.000000 0.000000 0.000000 0.000000 -0.913007
#
#
# Mechanical properties :
#
#
# Convention : Reuss Voigt Hill
#
# Bulk Modulus (GPa) = 59.85616 78.12683 68.99149
# Shear Modulus (GPa) = -6.27762 29.46768 11.59503
#
# Velocity S-wave (km/s) = -1.74393 3.77837 2.37010
# Velocity P-wave (km/s) = 4.99431 7.54218 6.39639
#
# Compressibility (1/GPa) = 0.01670672
#
# Stress axis : x y z
#
# Youngs Moduli (GPa) = 63.82506 110.15698 88.62814
#
# Poissons Ratio (x) = 0.60392 -0.03508
# Poissons Ratio (y) = 0.34991 0.40544
# Poissons Ratio (z) = -0.02527 0.50392
#
# Static dielectric constant tensor:
#      x y z
#    x 1.734520 0.000000 0.000000 
#    y 0.000000 1.729280 0.000000 
#    z 0.000000 0.000000 1.757450 
# 
# From -- ./inp_files/33559.got.cif
#   From: 2010.05.17/outbox.cif.g08.bks.cpg/sg73_17_cif.got.tgz:33559.got - 2010.06.03 17:35:07.
