data_PCOD9532438
_publ_section_title
;
Structure prediction by ZEFSAII (Michael W. Deem and Ramdas Pophale) SiO2 
 PCOD9532438
Probable space group: I B C A 
;
_chemical_formula_sum "Si O2"
_cell_formula_units_Z 88
_cell_length_a 8.225080
_cell_length_b 18.144754
_cell_length_c 26.036632
_cell_angle_alpha 90.000000
_cell_angle_beta 90.000000
_cell_angle_gamma 90.000000
_cell_volume 3885.760419
_symmetry_space_group_name_H-M "I B C A "
_symmetry_group_IT_number 73
_symmetry_cell_setting 'orthorhombic'
loop_
_space_group_symop_operation_xyz
x,y,z
-x,1/2-y,z
x,-y,1/2-z
1/2-x,y,-z
-x,-y,-z
x,1/2+y,-z
-x,y,1/2+z
1/2+x,-y,z
1/2+x,1/2+y,1/2+z
1/2-x,-y,1/2+z
1/2+x,1/2-y,-z
-x,1/2+y,1/2-z
1/2-x,1/2-y,1/2-z
1/2+x,y,1/2-z
1/2-x,1/2+y,z
x,1/2-y,1/2+z
loop_
_atom_site_type_symbol
_atom_site_label
_atom_site_fract_x
_atom_site_fract_y
_atom_site_fract_z
Si Si1 0.821549 0.993816 0.609589
Si Si2 0.563656 0.170532 0.516998
Si Si3 0.972609 0.333739 0.266754
Si Si4 0.383455 0.883826 0.373798
Si Si5 0.250000 0.068359 0.500000
Si Si6 0.315974 0.430138 0.788088
O O1 0.760194 0.977939 0.552206
O O2 0.719740 0.955431 0.655018
O O3 0.992712 0.952530 0.616542
O O4 0.794688 0.080348 0.620027
O O5 0.500000 0.250000 0.499143
O O6 0.750000 0.155146 0.500000
O O7 0.575912 0.169163 0.579090
O O8 0.419251 0.114835 0.500041
O O9 0.790484 0.356128 0.280649
O O10 0.000000 0.250000 0.251190
O O11 0.078839 0.350735 0.318156
O O12 0.010650 0.397647 0.225729
O O13 0.287391 0.500000 0.750000
#
# Coordination Sequence:
#
# PCOD9532438 Si02
#       6
#    16  16  16  16   8  16
#     4  10  23  39  64  93 127 167 220 278 334 401
#     4  11  23  42  66  91 130 180 221 272 344 406
#     4  11  23  41  64  95 134 171 216 277 339 401
#     4  10  23  39  63  93 129 168 215 277 341 394
#     4  10  24  44  62  98 138 160 230 288 328 410
#     4  11  22  41  66  94 127 173 223 273 334 404
#
# _framework density 22.646791
#
# number of rings (size 3 to 8) (size 9 to 14) (size 15 to 20)
#    0.000    1.455    2.727    1.636    6.364    1.455 
#    0.000    0.909    0.000    0.000    0.000    0.000 
#    0.000    0.000    0.000    0.000    0.000    0.000 
#
# Total GULP energy -245492.560066 kJ/mol
# GULP energy per Si atom -5579.376365 kJ/mol
# Density = 2.259525 g / cm^3
# Si number density = 22.646791 Si / 1000 Ang^3
#
#
#
# Elastic Constant Matrix: (Units=GPa)
#
#
# Indices 1 2 3 4 5 6 
#
# 1 84.1251 36.3867 34.8165 0.0000 0.0000 0.0000
# 2 36.3867 94.3516 10.4791 0.0000 0.0000 0.0000
# 3 34.8165 10.4791 104.7018 0.0000 0.0000 0.0000
# 4 0.0000 0.0000 0.0000 11.8035 0.0000 0.0000
# 5 0.0000 0.0000 0.0000 0.0000 17.3852 0.0000
# 6 0.0000 0.0000 0.0000 0.0000 0.0000 41.1586
#
#
#
# Elastic Compliance Matrix: (Units=1/GPa)
#
#
# Indices 1 2 3 4 5 6 
#
# 1 0.016408 -0.005786 -0.004877 0.000000 0.000000 0.000000
# 2 -0.005786 0.012758 0.000647 0.000000 0.000000 0.000000
# 3 -0.004877 0.000647 0.011108 0.000000 0.000000 0.000000
# 4 0.000000 0.000000 0.000000 0.084721 0.000000 0.000000
# 5 0.000000 0.000000 0.000000 0.000000 0.057520 0.000000
# 6 0.000000 0.000000 0.000000 0.000000 0.000000 0.024296
#
#
# Mechanical properties :
#
#
# Convention : Reuss Voigt Hill
#
# Bulk Modulus (GPa) = 49.40182 49.61587 49.50885
# Shear Modulus (GPa) = 21.40493 27.50255 24.45374
#
# Velocity S-wave (km/s) = 3.07769 3.48862 3.28958
# Velocity P-wave (km/s) = 5.87290 6.17928 6.02803
#
# Compressibility (1/GPa) = 0.02024217
#
# Stress axis : x y z
#
# Youngs Moduli (GPa) = 60.94504 78.38089 90.02561
#
# Poissons Ratio (x) = 0.45352 0.43907
# Poissons Ratio (y) = 0.35264 -0.05826
# Poissons Ratio (z) = 0.29724 -0.05073
#
# Static dielectric constant tensor:
#      x y z
#    x 1.907920 0.000000 0.000000 
#    y 0.000000 1.843550 0.000000 
#    z 0.000000 0.000000 1.872050 
# 
# From -- ./inp_files/27208.got.cif
#   From: 2010.05.17/outbox.cif.g08.bks.cpg/sg73_14_cif.got.tgz:27208.got - 2010.06.03 17:35:07.
