data_PCOD9532347
_publ_section_title
;
Structure prediction by ZEFSAII (Michael W. Deem and Ramdas Pophale) SiO2 
 PCOD9532347
Probable space group: I B C A 
;
_chemical_formula_sum "Si O2"
_cell_formula_units_Z 120
_cell_length_a 23.751524
_cell_length_b 27.396955
_cell_length_c 8.926018
_cell_angle_alpha 90.000000
_cell_angle_beta 90.000000
_cell_angle_gamma 90.000000
_cell_volume 5808.333383
_symmetry_space_group_name_H-M "I B C A "
_symmetry_group_IT_number 73
_symmetry_cell_setting 'orthorhombic'
loop_
_space_group_symop_operation_xyz
x,y,z
-x,1/2-y,z
x,-y,1/2-z
1/2-x,y,-z
-x,-y,-z
x,1/2+y,-z
-x,y,1/2+z
1/2+x,-y,z
1/2+x,1/2+y,1/2+z
1/2-x,-y,1/2+z
1/2+x,1/2-y,-z
-x,1/2+y,1/2-z
1/2-x,1/2-y,1/2-z
1/2+x,y,1/2-z
1/2-x,1/2+y,z
x,1/2-y,1/2+z
loop_
_atom_site_type_symbol
_atom_site_label
_atom_site_fract_x
_atom_site_fract_y
_atom_site_fract_z
Si Si1 0.755185 0.197361 0.320644
Si Si2 0.534683 0.801587 0.106457
Si Si3 0.363528 0.660583 0.295645
Si Si4 0.750000 0.579539 0.000000
Si Si5 0.846906 0.355692 0.642685
Si Si6 0.457243 0.866778 0.313789
Si Si7 0.855865 0.949189 0.667082
Si Si8 0.028188 0.036508 0.390004
O O1 0.750000 0.196386 0.500000
O O2 0.750000 0.250000 0.250000
O O3 0.700459 0.170559 0.252718
O O4 0.815419 0.179882 0.258558
O O5 0.500000 0.750000 0.093757
O O6 0.591607 0.804880 0.209766
O O7 0.493223 0.838839 0.189229
O O8 0.548789 0.827326 0.948295
O O9 0.367295 0.664666 0.478578
O O10 0.370370 0.602809 0.253857
O O11 0.705134 0.610129 0.095622
O O12 0.793092 0.551913 0.105244
O O13 0.897894 0.378446 0.735950
O O14 0.491708 0.914883 0.362694
O O15 0.908897 0.950356 0.554392
O O16 0.858439 0.000000 0.750000
O O17 0.032761 0.000000 0.250000
O O18 0.000000 0.000000 0.500000
#
# Coordination Sequence:
#
# PCOD9532347 Si02
#       8
#    16  16  16   8  16  16  16  16
#     4  12  25  45  73 106 140 190 246 300 363 440
#     4  12  27  47  69 106 144 195 243 306 378 448
#     4  11  23  48  75  98 151 188 243 309 366 440
#     4  10  22  46  74 102 146 192 236 310 374 430
#     4  11  23  46  74 104 143 193 246 301 376 431
#     4  12  26  45  73 103 146 192 246 307 376 453
#     4  10  22  45  70 101 147 189 235 302 377 440
#     4  11  25  44  71 106 141 189 247 305 374 452
#
# _framework density 20.659970999999999
#
# number of rings (size 3 to 8) (size 9 to 14) (size 15 to 20)
#    0.000    0.800    4.000    3.600    9.333    0.000 
#    6.000    0.667    0.000    0.000    0.000    0.000 
#    0.000    0.000    0.000    0.000    0.000    0.000 
#
# Total GULP energy -334237.941168 kJ/mol
# GULP energy per Si atom -5570.632353 kJ/mol
# Density = 2.061295 g / cm^3
# Si number density = 20.659971 Si / 1000 Ang^3
#
#
#
# Elastic Constant Matrix: (Units=GPa)
#
#
# Indices 1 2 3 4 5 6 
#
# 1 154.3869 36.9203 43.4726 0.0000 0.0000 0.0000
# 2 36.9203 110.2576 31.9627 0.0000 0.0000 0.0000
# 3 43.4726 31.9627 120.0658 0.0000 0.0000 0.0000
# 4 0.0000 0.0000 0.0000 26.3193 0.0000 0.0000
# 5 0.0000 0.0000 0.0000 0.0000 43.2992 0.0000
# 6 0.0000 0.0000 0.0000 0.0000 0.0000 -2.3557
#
#
#
# Elastic Compliance Matrix: (Units=1/GPa)
#
#
# Indices 1 2 3 4 5 6 
#
# 1 0.007557 -0.001883 -0.002235 0.000000 0.000000 0.000000
# 2 -0.001883 0.010297 -0.002060 0.000000 0.000000 0.000000
# 3 -0.002235 -0.002060 0.009686 0.000000 0.000000 0.000000
# 4 0.000000 0.000000 0.000000 0.037995 0.000000 0.000000
# 5 0.000000 0.000000 0.000000 0.000000 0.023095 0.000000
# 6 0.000000 0.000000 0.000000 0.000000 0.000000 -0.424495
#
#
# Mechanical properties :
#
#
# Convention : Reuss Voigt Hill
#
# Bulk Modulus (GPa) = 65.85010 67.71350 66.78180
# Shear Modulus (GPa) = -15.70110 31.60955 7.95422
#
# Velocity S-wave (km/s) = -2.75976 3.91575 1.96429
# Velocity P-wave (km/s) = 4.66770 7.30004 6.12691
#
# Compressibility (1/GPa) = 0.01518601
#
# Stress axis : x y z
#
# Youngs Moduli (GPa) = 132.33215 97.11484 103.23903
#
# Poissons Ratio (x) = 0.18282 0.23073
# Poissons Ratio (y) = 0.24912 0.21263
# Poissons Ratio (z) = 0.29576 0.20002
#
# Static dielectric constant tensor:
#      x y z
#    x 1.843430 0.000000 0.000000 
#    y 0.000000 1.770780 0.000000 
#    z 0.000000 0.000000 1.790730 
# 
# From -- ./inp_files/7400.got.cif
#   From: 2010.05.17/outbox.cif.g08.bks.cpg/sg73_4_cif.got.tgz:7400.got - 2010.06.03 17:35:07.
