data_PCOD9532210
_publ_section_title
;
Structure prediction by ZEFSAII (Michael W. Deem and Ramdas Pophale) SiO2 
 PCOD9532210
Probable space group: I B C A 
;
_chemical_formula_sum "Si O2"
_cell_formula_units_Z 112
_cell_length_a 12.090102
_cell_length_b 13.723552
_cell_length_c 29.895998
_cell_angle_alpha 90.000000
_cell_angle_beta 90.000000
_cell_angle_gamma 90.000000
_cell_volume 4960.318382
_symmetry_space_group_name_H-M "I B C A "
_symmetry_group_IT_number 73
_symmetry_cell_setting 'orthorhombic'
loop_
_space_group_symop_operation_xyz
x,y,z
-x,1/2-y,z
x,-y,1/2-z
1/2-x,y,-z
-x,-y,-z
x,1/2+y,-z
-x,y,1/2+z
1/2+x,-y,z
1/2+x,1/2+y,1/2+z
1/2-x,-y,1/2+z
1/2+x,1/2-y,-z
-x,1/2+y,1/2-z
1/2-x,1/2-y,1/2-z
1/2+x,y,1/2-z
1/2-x,1/2+y,z
x,1/2-y,1/2+z
loop_
_atom_site_type_symbol
_atom_site_label
_atom_site_fract_x
_atom_site_fract_y
_atom_site_fract_z
Si Si1 0.750000 0.897368 0.000000
Si Si2 0.405111 0.044039 0.873665
Si Si3 0.130951 0.251836 0.293185
Si Si4 0.126165 0.226822 0.069839
Si Si5 0.186389 0.597036 0.779871
Si Si6 0.292805 0.160283 0.621090
Si Si7 0.552267 0.464134 0.046782
Si Si8 0.000000 0.750000 0.575076
O O1 0.671807 0.823604 0.026130
O O2 0.817610 0.961554 0.035512
O O3 0.359729 0.144051 0.893009
O O4 0.396433 0.065638 0.820463
O O5 0.328608 0.950680 0.880765
O O6 0.508321 0.015873 0.907495
O O7 0.136241 0.188530 0.247700
O O8 0.191422 0.357769 0.292300
O O9 0.209387 0.191287 0.327363
O O10 0.000000 0.250000 0.306094
O O11 0.190741 0.318248 0.089254
O O12 0.000000 0.250000 0.063613
O O13 0.199339 0.500000 0.750000
O O14 0.389391 0.231314 0.602985
O O15 0.516202 0.351450 0.050393
O O16 0.500000 0.500000 0.000000
#
# Coordination Sequence:
#
# PCOD9532210 Si02
#       8
#     8  16  16  16  16  16  16   8
#     4  12  26  48  76 110 156 200 266 322 390 482
#     4  11  25  47  76 111 149 201 260 313 395 471
#     4  11  24  44  75 108 150 200 256 318 391 458
#     4  12  28  49  73 110 153 200 249 324 393 464
#     4  11  24  47  72 111 157 198 256 319 388 471
#     4  11  22  46  74 107 146 196 254 323 385 465
#     4  11  24  45  72 107 147 197 252 321 388 465
#     4  10  22  42  74 106 138 192 256 312 388 450
#
# _framework density 22.579196
#
# number of rings (size 3 to 8) (size 9 to 14) (size 15 to 20)
#    0.000    0.857    6.429    0.000    1.000    2.286 
#    2.571    1.429    0.000    0.000    0.000    0.000 
#    0.000    0.000    0.000    0.000    0.000    0.000 
#
# Total GULP energy -312333.088002 kJ/mol
# GULP energy per Si atom -5577.376571 kJ/mol
# Density = 2.252780 g / cm^3
# Si number density = 22.579196 Si / 1000 Ang^3
#
#
#
# Elastic Constant Matrix: (Units=GPa)
#
#
# Indices 1 2 3 4 5 6 
#
# 1 107.0998 17.2567 56.6619 0.0000 0.0000 0.0000
# 2 17.2567 111.4704 41.6592 0.0000 0.0000 0.0000
# 3 56.6619 41.6592 132.9411 0.0000 0.0000 0.0000
# 4 0.0000 0.0000 0.0000 50.8839 0.0000 0.0000
# 5 0.0000 0.0000 0.0000 0.0000 21.7331 0.0000
# 6 0.0000 0.0000 0.0000 0.0000 0.0000 4.4581
#
#
#
# Elastic Compliance Matrix: (Units=1/GPa)
#
#
# Indices 1 2 3 4 5 6 
#
# 1 0.012056 0.000061 -0.005158 0.000000 0.000000 0.000000
# 2 0.000061 0.010161 -0.003210 0.000000 0.000000 0.000000
# 3 -0.005158 -0.003210 0.010726 0.000000 0.000000 0.000000
# 4 0.000000 0.000000 0.000000 0.019653 0.000000 0.000000
# 5 0.000000 0.000000 0.000000 0.000000 0.046013 0.000000
# 6 0.000000 0.000000 0.000000 0.000000 0.000000 0.224310
#
#
# Mechanical properties :
#
#
# Convention : Reuss Voigt Hill
#
# Bulk Modulus (GPa) = 61.23651 64.74077 62.98864
# Shear Modulus (GPa) = 14.49375 31.14392 22.81884
#
# Velocity S-wave (km/s) = 2.53634 3.71795 3.18246
# Velocity P-wave (km/s) = 5.97971 6.86774 6.43905
#
# Compressibility (1/GPa) = 0.01633013
#
# Stress axis : x y z
#
# Youngs Moduli (GPa) = 82.94688 98.41289 93.22808
#
# Poissons Ratio (x) = -0.00602 0.48083
# Poissons Ratio (y) = -0.00507 0.29929
# Poissons Ratio (z) = 0.42781 0.31593
#
# Static dielectric constant tensor:
#      x y z
#    x 1.908910 0.000000 0.000000 
#    y 0.000000 1.839540 0.000000 
#    z 0.000000 0.000000 2.073570 
# 
# From -- ./inp_files/34050.got.cif
#   From: 2010.05.17/outbox.cif.g08.bks.cpg/sg73_18_cif.got.tgz:34050.got - 2010.06.03 17:35:07.
