data_PCOD9532122
_publ_section_title
;
Structure prediction by ZEFSAII (Michael W. Deem and Ramdas Pophale) SiO2 
 PCOD9532122
Probable space group: I B C A 
;
_chemical_formula_sum "Si O2"
_cell_formula_units_Z 48
_cell_length_a 5.219975
_cell_length_b 21.463377
_cell_length_c 16.883862
_cell_angle_alpha 90.000000
_cell_angle_beta 90.000000
_cell_angle_gamma 90.000000
_cell_volume 1891.639050
_symmetry_space_group_name_H-M "I B C A "
_symmetry_group_IT_number 73
_symmetry_cell_setting 'orthorhombic'
loop_
_space_group_symop_operation_xyz
x,y,z
-x,1/2-y,z
x,-y,1/2-z
1/2-x,y,-z
-x,-y,-z
x,1/2+y,-z
-x,y,1/2+z
1/2+x,-y,z
1/2+x,1/2+y,1/2+z
1/2-x,-y,1/2+z
1/2+x,1/2-y,-z
-x,1/2+y,1/2-z
1/2-x,1/2-y,1/2-z
1/2+x,y,1/2-z
1/2-x,1/2+y,z
x,1/2-y,1/2+z
loop_
_atom_site_type_symbol
_atom_site_label
_atom_site_fract_x
_atom_site_fract_y
_atom_site_fract_z
Si Si1 0.243916 0.277675 0.591356
Si Si2 0.179237 0.930932 0.782021
Si Si3 0.518107 0.089176 0.452373
O O1 0.500000 0.250000 0.627229
O O2 0.250000 0.251500 0.500000
O O3 0.176575 0.349722 0.577918
O O4 0.000000 0.250000 0.634443
O O5 0.454843 0.899410 0.769629
O O6 0.083860 0.938847 0.871001
O O7 0.233078 0.000000 0.750000
O O8 0.750000 0.054376 0.500000
O O9 0.250000 0.102158 0.500000
#
# Coordination Sequence:
#
# PCOD9532122 Si02
#       3
#    16  16  16
#     4   9  16  28  49  81 119 148 180 239 304 350
#     4  10  22  42  61  83 121 168 205 249 325 380
#     4  11  21  36  62  93 120 156 214 264 297 362
#
# _framework density 25.374822000000002
#
# number of rings (size 3 to 8) (size 9 to 14) (size 15 to 20)
#    0.000    2.000    0.000    7.000    0.000    0.000 
#    0.000   20.000    0.000    6.000    0.000    0.000 
#    0.000   10.667    0.000    0.000    0.000    0.000 
#
# Total GULP energy -133755.557215 kJ/mol
# GULP energy per Si atom -5573.148217 kJ/mol
# Density = 2.531707 g / cm^3
# Si number density = 25.374822 Si / 1000 Ang^3
#
#
#
# Elastic Constant Matrix: (Units=GPa)
#
#
# Indices 1 2 3 4 5 6 
#
# 1 249.7622 10.7327 26.7692 0.0000 0.0000 0.0000
# 2 10.7327 46.4159 22.8656 0.0000 0.0000 0.0000
# 3 26.7692 22.8656 93.3337 0.0000 0.0000 0.0000
# 4 0.0000 0.0000 0.0000 3.9534 0.0000 0.0000
# 5 0.0000 0.0000 0.0000 0.0000 38.3727 0.0000
# 6 0.0000 0.0000 0.0000 0.0000 0.0000 11.3335
#
#
#
# Elastic Compliance Matrix: (Units=1/GPa)
#
#
# Indices 1 2 3 4 5 6 
#
# 1 0.004138 -0.000423 -0.001083 0.000000 0.000000 0.000000
# 2 -0.000423 0.024545 -0.005892 0.000000 0.000000 0.000000
# 3 -0.001083 -0.005892 0.012468 0.000000 0.000000 0.000000
# 4 0.000000 0.000000 0.000000 0.252947 0.000000 0.000000
# 5 0.000000 0.000000 0.000000 0.000000 0.026060 0.000000
# 6 0.000000 0.000000 0.000000 0.000000 0.000000 0.088234
#
#
# Mechanical properties :
#
#
# Convention : Reuss Voigt Hill
#
# Bulk Modulus (GPa) = 37.94385 56.69408 47.31896
# Shear Modulus (GPa) = 11.57478 32.67487 22.12482
#
# Velocity S-wave (km/s) = 2.13809 3.59233 2.95603
# Velocity P-wave (km/s) = 4.59141 6.29266 5.50811
#
# Compressibility (1/GPa) = 0.02635473
#
# Stress axis : x y z
#
# Youngs Moduli (GPa) = 241.65748 40.74209 80.20338
#
# Poissons Ratio (x) = 0.01724 0.08687
# Poissons Ratio (y) = 0.10228 0.47254
# Poissons Ratio (z) = 0.26175 0.24004
#
# Static dielectric constant tensor:
#      x y z
#    x 2.105770 0.000000 0.000000 
#    y 0.000000 2.179440 0.000000 
#    z 0.000000 0.000000 2.024440 
# 
# From -- ./inp_files/15112.got.cif
#   From: 2010.05.17/outbox.cif.g08.bks.cpg/sg73_8_cif.got.tgz:15112.got - 2010.06.03 17:35:07.
