data_PCOD9532271
_publ_section_title
;
Structure prediction by ZEFSAII (Michael W. Deem and Ramdas Pophale) SiO2 
 PCOD9532271
Probable space group: I B C A 
;
_chemical_formula_sum "Si O2"
_cell_formula_units_Z 88
_cell_length_a 19.739263
_cell_length_b 12.870697
_cell_length_c 15.772022
_cell_angle_alpha 90.000000
_cell_angle_beta 90.000000
_cell_angle_gamma 90.000000
_cell_volume 4007.009518
_symmetry_space_group_name_H-M "I B C A "
_symmetry_group_IT_number 73
_symmetry_cell_setting 'orthorhombic'
loop_
_space_group_symop_operation_xyz
x,y,z
-x,1/2-y,z
x,-y,1/2-z
1/2-x,y,-z
-x,-y,-z
x,1/2+y,-z
-x,y,1/2+z
1/2+x,-y,z
1/2+x,1/2+y,1/2+z
1/2-x,-y,1/2+z
1/2+x,1/2-y,-z
-x,1/2+y,1/2-z
1/2-x,1/2-y,1/2-z
1/2+x,y,1/2-z
1/2-x,1/2+y,z
x,1/2-y,1/2+z
loop_
_atom_site_type_symbol
_atom_site_label
_atom_site_fract_x
_atom_site_fract_y
_atom_site_fract_z
Si Si1 0.648441 0.536414 0.651781
Si Si2 0.422122 0.116900 0.225411
Si Si3 0.000000 0.750000 0.108451
Si Si4 0.576887 0.245595 0.392186
Si Si5 0.145821 0.174343 0.454207
Si Si6 0.775500 0.684266 0.667979
O O1 0.637336 0.500000 0.750000
O O2 0.596214 0.625648 0.622401
O O3 0.648659 0.440335 0.586229
O O4 0.719925 0.597333 0.649254
O O5 0.481660 0.148777 0.162724
O O6 0.425983 0.196189 0.303123
O O7 0.346924 0.130601 0.188739
O O8 0.432329 0.000000 0.250000
O O9 0.073644 0.776230 0.072346
O O10 0.500000 0.250000 0.427793
O O11 0.635199 0.306126 0.445770
O O12 0.205567 0.239211 0.409585
O O13 0.750000 0.750000 0.750000
#
# Coordination Sequence:
#
# PCOD9532271 Si02
#       6
#    16  16   8  16  16  16
#     4  12  25  47  80 103 142 209 250 301 372 447
#     4  11  24  40  72 101 140 186 248 304 360 435
#     4  10  22  44  66 102 136 198 250 298 352 454
#     4  12  27  46  69 115 153 187 248 314 372 450
#     4  11  26  45  74 105 151 189 242 312 381 429
#     4  11  22  47  70 105 138 188 255 295 347 455
#
# _framework density 21.961516
#
# number of rings (size 3 to 8) (size 9 to 14) (size 15 to 20)
#    0.000    0.727    5.455    1.636    2.545    4.364 
#    0.000    3.636    0.000    0.000    0.000    0.000 
#    0.000    0.000    0.000    0.000    0.000    0.000 
#
# Total GULP energy -245745.941755 kJ/mol
# GULP energy per Si atom -5585.135040 kJ/mol
# Density = 2.191153 g / cm^3
# Si number density = 21.961516 Si / 1000 Ang^3
#
#
#
# Elastic Constant Matrix: (Units=GPa)
#
#
# Indices 1 2 3 4 5 6 
#
# 1 120.0459 19.5209 23.5526 0.0000 0.0000 0.0000
# 2 19.5209 124.3791 2.1333 0.0000 0.0000 0.0000
# 3 23.5526 2.1333 20.5541 0.0000 0.0000 0.0000
# 4 0.0000 0.0000 0.0000 22.4635 0.0000 0.0000
# 5 0.0000 0.0000 0.0000 0.0000 31.3465 0.0000
# 6 0.0000 0.0000 0.0000 0.0000 0.0000 51.7868
#
#
#
# Elastic Compliance Matrix: (Units=1/GPa)
#
#
# Indices 1 2 3 4 5 6 
#
# 1 0.011024 -0.001516 -0.012475 0.000000 0.000000 0.000000
# 2 -0.001516 0.008263 0.000880 0.000000 0.000000 0.000000
# 3 -0.012475 0.000880 0.062856 0.000000 0.000000 0.000000
# 4 0.000000 0.000000 0.000000 0.044517 0.000000 0.000000
# 5 0.000000 0.000000 0.000000 0.000000 0.031901 0.000000
# 6 0.000000 0.000000 0.000000 0.000000 0.000000 0.019310
#
#
# Mechanical properties :
#
#
# Convention : Reuss Voigt Hill
#
# Bulk Modulus (GPa) = 17.88275 39.48808 28.68542
# Shear Modulus (GPa) = 22.44828 35.77084 29.10956
#
# Velocity S-wave (km/s) = 3.20060 4.04021 3.64466
# Velocity P-wave (km/s) = 4.67107 6.30746 5.54991
#
# Compressibility (1/GPa) = 0.05591980
#
# Stress axis : x y z
#
# Youngs Moduli (GPa) = 90.70866 121.02416 15.90941
#
# Poissons Ratio (x) = 0.18350 0.19847
# Poissons Ratio (y) = 0.13754 -0.01400
# Poissons Ratio (z) = 1.13161 -0.10648
#
# Static dielectric constant tensor:
#      x y z
#    x 1.800070 0.000000 0.000000 
#    y 0.000000 1.732030 0.000000 
#    z 0.000000 0.000000 1.925710 
# 
# From -- ./inp_files/11905.got.cif
#   From: 2010.05.17/outbox.cif.g08.bks.cpg/sg73_6_cif.got.tgz:11905.got - 2010.06.03 17:35:07.
