data_PCOD9532718
_publ_section_title
;
Structure prediction by ZEFSAII (Michael W. Deem and Ramdas Pophale) SiO2 
 PCOD9532718
Probable space group: I B C A 
;
_chemical_formula_sum "Si O2"
_cell_formula_units_Z 112
_cell_length_a 13.873126
_cell_length_b 30.217608
_cell_length_c 12.341459
_cell_angle_alpha 90.000000
_cell_angle_beta 90.000000
_cell_angle_gamma 90.000000
_cell_volume 5173.696142
_symmetry_space_group_name_H-M "I B C A "
_symmetry_group_IT_number 73
_symmetry_cell_setting 'orthorhombic'
loop_
_space_group_symop_operation_xyz
x,y,z
-x,1/2-y,z
x,-y,1/2-z
1/2-x,y,-z
-x,-y,-z
x,1/2+y,-z
-x,y,1/2+z
1/2+x,-y,z
1/2+x,1/2+y,1/2+z
1/2-x,-y,1/2+z
1/2+x,1/2-y,-z
-x,1/2+y,1/2-z
1/2-x,1/2-y,1/2-z
1/2+x,y,1/2-z
1/2-x,1/2+y,z
x,1/2-y,1/2+z
loop_
_atom_site_type_symbol
_atom_site_label
_atom_site_fract_x
_atom_site_fract_y
_atom_site_fract_z
Si Si1 0.644590 0.156039 0.127224
Si Si2 0.647111 0.112765 0.831915
Si Si3 0.910203 0.301481 0.602079
Si Si4 0.865598 0.436818 0.887687
Si Si5 0.074099 0.428995 0.949060
Si Si6 0.368373 0.794158 0.650190
Si Si7 0.250000 0.010567 0.500000
Si Si8 0.750000 0.359533 0.000000
O O1 0.746492 0.129775 0.133880
O O2 0.573655 0.113912 0.129085
O O3 0.630582 0.189104 0.226503
O O4 0.628795 0.181563 0.013959
O O5 0.600514 0.160236 0.807957
O O6 0.644662 0.078610 0.735220
O O7 0.588812 0.091529 0.931412
O O8 0.850811 0.258301 0.638261
O O9 0.025320 0.296442 0.596250
O O10 0.797939 0.478046 0.913402
O O11 0.830484 0.393384 0.954456
O O12 0.971968 0.450707 0.926116
O O13 0.167274 0.460371 0.942461
O O14 0.296362 0.827138 0.588880
#
# Coordination Sequence:
#
# PCOD9532718 Si02
#       8
#    16  16  16  16  16  16   8   8
#     4  11  22  43  70  93 138 189 231 285 352 421
#     4  11  22  44  68  97 134 187 230 271 357 419
#     4  10  24  40  64  98 138 183 242 288 337 411
#     4  11  25  42  69 101 139 175 228 284 355 419
#     4  11  22  46  72  97 137 182 225 286 343 429
#     4  11  24  40  64 101 137 184 238 290 343 399
#     4  11  24  46  69 104 138 168 227 298 348 417
#     4  11  22  40  61 100 142 176 225 296 340 403
#
# _framework density 21.647964999999999
#
# number of rings (size 3 to 8) (size 9 to 14) (size 15 to 20)
#    0.000    1.143    2.857    4.286    2.000    4.571 
#    0.000    0.000    0.000    0.000    0.000    0.000 
#    0.000    0.000    0.000    0.000    0.000    0.000 
#
# Total GULP energy -312640.403825 kJ/mol
# GULP energy per Si atom -5582.864354 kJ/mol
# Density = 2.159869 g / cm^3
# Si number density = 21.647965 Si / 1000 Ang^3
#
#
#
# Elastic Constant Matrix: (Units=GPa)
#
#
# Indices 1 2 3 4 5 6 
#
# 1 100.2487 41.1407 36.4238 -0.0001 0.0000 -0.0001
# 2 41.1407 156.6742 61.0976 -0.0002 0.0000 0.0000
# 3 36.4238 61.0976 118.9648 -0.0002 0.0002 0.0005
# 4 -0.0001 -0.0002 -0.0002 34.1303 0.0001 0.0000
# 5 0.0000 0.0000 0.0002 0.0001 20.9180 -0.0002
# 6 -0.0001 0.0000 0.0005 0.0000 -0.0002 1.4210
#
#
#
# Elastic Compliance Matrix: (Units=1/GPa)
#
#
# Indices 1 2 3 4 5 6 
#
# 1 0.011754 -0.002105 -0.002518 0.000000 0.000000 0.000002
# 2 -0.002105 0.008358 -0.003648 0.000000 0.000000 0.000001
# 3 -0.002518 -0.003648 0.011050 0.000000 0.000000 -0.000004
# 4 0.000000 0.000000 0.000000 0.029299 0.000000 0.000000
# 5 0.000000 0.000000 0.000000 0.000000 0.047806 0.000006
# 6 0.000002 0.000001 -0.000004 0.000000 0.000006 0.703715
#
#
# Mechanical properties :
#
#
# Convention : Reuss Voigt Hill
#
# Bulk Modulus (GPa) = 68.39453 72.57909 70.48681
# Shear Modulus (GPa) = 5.99954 27.10891 16.55423
#
# Velocity S-wave (km/s) = 1.66656 3.54257 2.76832
# Velocity P-wave (km/s) = 5.94692 7.09456 6.54594
#
# Compressibility (1/GPa) = 0.01462105
#
# Stress axis : x y z
#
# Youngs Moduli (GPa) = 85.07985 119.64705 90.49522
#
# Poissons Ratio (x) = 0.25180 0.22785
# Poissons Ratio (y) = 0.17905 0.33013
# Poissons Ratio (z) = 0.21422 0.43648
#
# Static dielectric constant tensor:
#      x y z
#    x 1.873600 0.000000 0.000000 
#    y 0.000000 1.841170 0.000000 
#    z 0.000000 0.000000 1.773890 
# 
# From -- ./inp_files/11291.got.cif
#   From: 2010.05.17/outbox.cif.g08.bks.cpg/sg73_6_cif.got.tgz:11291.got - 2010.06.03 17:35:07.
