data_PCOD9532275
_publ_section_title
;
Structure prediction by ZEFSAII (Michael W. Deem and Ramdas Pophale) SiO2 
 PCOD9532275
Probable space group: I B C A 
;
_chemical_formula_sum "Si O2"
_cell_formula_units_Z 96
_cell_length_a 26.591588
_cell_length_b 21.196226
_cell_length_c 9.139548
_cell_angle_alpha 90.000000
_cell_angle_beta 90.000000
_cell_angle_gamma 90.000000
_cell_volume 5151.426798
_symmetry_space_group_name_H-M "I B C A "
_symmetry_group_IT_number 73
_symmetry_cell_setting 'orthorhombic'
loop_
_space_group_symop_operation_xyz
x,y,z
-x,1/2-y,z
x,-y,1/2-z
1/2-x,y,-z
-x,-y,-z
x,1/2+y,-z
-x,y,1/2+z
1/2+x,-y,z
1/2+x,1/2+y,1/2+z
1/2-x,-y,1/2+z
1/2+x,1/2-y,-z
-x,1/2+y,1/2-z
1/2-x,1/2-y,1/2-z
1/2+x,y,1/2-z
1/2-x,1/2+y,z
x,1/2-y,1/2+z
loop_
_atom_site_type_symbol
_atom_site_label
_atom_site_fract_x
_atom_site_fract_y
_atom_site_fract_z
Si Si1 0.442363 0.327022 0.442819
Si Si2 0.750000 0.584638 0.000000
Si Si3 0.152588 0.000171 0.927011
Si Si4 0.000000 0.750000 0.192967
Si Si5 0.254065 0.323710 0.726807
Si Si6 0.449519 0.479297 0.419157
Si Si7 0.668491 0.854473 0.994120
O O1 0.464155 0.290721 0.301011
O O2 0.470039 0.297448 0.584861
O O3 0.448614 0.402788 0.429554
O O4 0.382623 0.319699 0.463991
O O5 0.800373 0.542664 0.977962
O O6 0.745466 0.630811 0.862492
O O7 0.149797 0.000000 0.750000
O O8 0.098089 0.987615 0.999352
O O9 0.162426 0.070770 0.982899
O O10 0.250000 0.250000 0.750000
O O11 0.211344 0.340757 0.610816
O O12 0.309381 0.334762 0.661838
O O13 0.449173 0.500000 0.250000
O O14 0.500000 0.500000 0.500000
#
# Coordination Sequence:
#
# PCOD9532275 Si02
#       7
#    16   8  16   8  16  16  16
#     4  10  23  42  66  95 127 170 212 266 312 383
#     4  12  24  40  70  94 124 172 218 260 326 388
#     4  11  24  41  66  95 127 171 214 268 323 378
#     4  10  22  44  66  94 126 174 220 254 314 376
#     4  11  24  43  60  95 128 168 210 264 313 388
#     4  11  24  43  67  99 134 167 211 270 328 381
#     4  10  23  42  63  89 135 161 211 265 323 372
#
# _framework density 18.635612999999999
#
# number of rings (size 3 to 8) (size 9 to 14) (size 15 to 20)
#    0.000    1.333    1.667    3.500    7.000    1.333 
#    0.000    0.000    0.000    0.000    0.000    0.000 
#    0.000    0.000    0.000    0.000    0.000    0.000 
#
# Total GULP energy -267875.299244 kJ/mol
# GULP energy per Si atom -5580.735401 kJ/mol
# Density = 1.859320 g / cm^3
# Si number density = 18.635613 Si / 1000 Ang^3
#
#
#
# Elastic Constant Matrix: (Units=GPa)
#
#
# Indices 1 2 3 4 5 6 
#
# 1 168.9185 66.4014 91.6103 0.0000 0.0000 0.0000
# 2 66.4014 97.2636 57.8630 0.0000 0.0000 0.0000
# 3 91.6103 57.8630 155.2333 0.0000 0.0000 0.0000
# 4 0.0000 0.0000 0.0000 42.4486 0.0000 0.0000
# 5 0.0000 0.0000 0.0000 0.0000 32.2322 0.0000
# 6 0.0000 0.0000 0.0000 0.0000 0.0000 29.8995
#
#
#
# Elastic Compliance Matrix: (Units=1/GPa)
#
#
# Indices 1 2 3 4 5 6 
#
# 1 0.009890 -0.004214 -0.004266 0.000000 0.000000 0.000000
# 2 -0.004214 0.015007 -0.003107 0.000000 0.000000 0.000000
# 3 -0.004266 -0.003107 0.010117 0.000000 0.000000 0.000000
# 4 0.000000 0.000000 0.000000 0.023558 0.000000 0.000000
# 5 0.000000 0.000000 0.000000 0.000000 0.031025 0.000000
# 6 0.000000 0.000000 0.000000 0.000000 0.000000 0.033445
#
#
# Mechanical properties :
#
#
# Convention : Reuss Voigt Hill
#
# Bulk Modulus (GPa) = 84.45436 94.79611 89.62523
# Shear Modulus (GPa) = 33.29732 34.61877 33.95805
#
# Velocity S-wave (km/s) = 4.23159 4.31474 4.27337
# Velocity P-wave (km/s) = 8.32420 8.70640 8.51744
#
# Compressibility (1/GPa) = 0.01184072
#
# Stress axis : x y z
#
# Youngs Moduli (GPa) = 101.11172 66.63771 98.84009
#
# Poissons Ratio (x) = 0.28082 0.42163
# Poissons Ratio (y) = 0.42610 0.30707
# Poissons Ratio (z) = 0.43132 0.20702
#
# Static dielectric constant tensor:
#      x y z
#    x 1.652980 0.000000 0.000000 
#    y 0.000000 1.676490 0.000000 
#    z 0.000000 0.000000 1.628880 
# 
# From -- ./inp_files/7842.got.cif
#   From: 2010.05.17/outbox.cif.g08.bks.cpg/sg73_4_cif.got.tgz:7842.got - 2010.06.03 17:35:07.
