data_PCOD9532468
_publ_section_title
;
Structure prediction by ZEFSAII (Michael W. Deem and Ramdas Pophale) SiO2 
 PCOD9532468
Probable space group: I B C A 
;
_chemical_formula_sum "Si O2"
_cell_formula_units_Z 120
_cell_length_a 12.468714
_cell_length_b 25.116210
_cell_length_c 17.564090
_cell_angle_alpha 90.000000
_cell_angle_beta 90.000000
_cell_angle_gamma 90.000000
_cell_volume 5500.490550
_symmetry_space_group_name_H-M "I B C A "
_symmetry_group_IT_number 73
_symmetry_cell_setting 'orthorhombic'
loop_
_space_group_symop_operation_xyz
x,y,z
-x,1/2-y,z
x,-y,1/2-z
1/2-x,y,-z
-x,-y,-z
x,1/2+y,-z
-x,y,1/2+z
1/2+x,-y,z
1/2+x,1/2+y,1/2+z
1/2-x,-y,1/2+z
1/2+x,1/2-y,-z
-x,1/2+y,1/2-z
1/2-x,1/2-y,1/2-z
1/2+x,y,1/2-z
1/2-x,1/2+y,z
x,1/2-y,1/2+z
loop_
_atom_site_type_symbol
_atom_site_label
_atom_site_fract_x
_atom_site_fract_y
_atom_site_fract_z
Si Si1 0.797761 0.219036 0.367091
Si Si2 0.966845 0.638016 0.994733
Si Si3 0.000000 0.250000 0.971391
Si Si4 0.108416 0.214697 0.696817
Si Si5 0.691307 0.111046 0.431691
Si Si6 0.613314 0.591928 0.156164
Si Si7 0.912308 0.474835 0.171224
Si Si8 0.321220 0.433682 0.077494
O O1 0.898423 0.232981 0.420489
O O2 0.846216 0.218289 0.282468
O O3 0.699896 0.261202 0.359358
O O4 0.749134 0.163011 0.396832
O O5 0.922777 0.599775 0.930483
O O6 0.091773 0.630449 0.982789
O O7 0.955023 0.700354 0.982048
O O8 0.898425 0.617885 0.066327
O O9 0.092989 0.151215 0.687369
O O10 0.000000 0.250000 0.690243
O O11 0.750000 0.079496 0.500000
O O12 0.655538 0.074628 0.361669
O O13 0.532124 0.547697 0.186869
O O14 0.736989 0.576525 0.146248
O O15 0.873600 0.500000 0.250000
O O16 0.898327 0.518538 0.104357
O O17 0.250000 0.443473 0.000000
#
# Coordination Sequence:
#
# PCOD9532468 Si02
#       8
#    16  16   8  16  16  16  16  16
#     4  11  25  40  67 104 140 191 229 283 356 426
#     4  10  23  40  69  99 134 178 224 284 344 417
#     4  12  22  42  64 106 144 180 236 282 352 418
#     4  11  23  43  68  96 145 187 229 286 353 430
#     4  11  23  44  67 105 138 183 238 297 350 422
#     4  10  24  43  66 102 132 178 234 286 355 413
#     4  11  26  44  69  99 134 183 233 293 366 420
#     4  10  23  46  70  99 134 183 233 292 349 419
#
# _framework density 21.816234999999999
#
# number of rings (size 3 to 8) (size 9 to 14) (size 15 to 20)
#    0.000    1.333    2.000    2.800    4.667    7.467 
#    0.000    0.000    0.000    0.000    0.000    0.000 
#    0.000    0.000    0.000    0.000    0.000    0.000 
#
# Total GULP energy -334223.767558 kJ/mol
# GULP energy per Si atom -5570.396126 kJ/mol
# Density = 2.176658 g / cm^3
# Si number density = 21.816235 Si / 1000 Ang^3
#
#
#
# Elastic Constant Matrix: (Units=GPa)
#
#
# Indices 1 2 3 4 5 6 
#
# 1 109.8421 54.9349 38.5444 0.0000 0.0000 0.0000
# 2 54.9349 115.3065 22.0777 0.0000 0.0000 0.0000
# 3 38.5444 22.0777 64.6186 -0.0001 0.0000 0.0000
# 4 0.0000 0.0000 -0.0001 42.6153 0.0000 0.0000
# 5 0.0000 0.0000 0.0000 0.0000 -29.6741 0.0000
# 6 0.0000 0.0000 0.0000 0.0000 0.0000 6.7685
#
#
#
# Elastic Compliance Matrix: (Units=1/GPa)
#
#
# Indices 1 2 3 4 5 6 
#
# 1 0.014152 -0.005485 -0.006567 0.000000 0.000000 0.000000
# 2 -0.005485 0.011405 -0.000625 0.000000 0.000000 0.000000
# 3 -0.006567 -0.000625 0.019606 0.000000 0.000000 0.000000
# 4 0.000000 0.000000 0.000000 0.023466 0.000000 0.000000
# 5 0.000000 0.000000 0.000000 0.000000 -0.033699 0.000000
# 6 0.000000 0.000000 0.000000 0.000000 0.000000 0.147742
#
#
# Mechanical properties :
#
#
# Convention : Reuss Voigt Hill
#
# Bulk Modulus (GPa) = 50.48271 57.87568 54.17920
# Shear Modulus (GPa) = 23.29598 15.55597 19.42597
#
# Velocity S-wave (km/s) = 3.27131 2.67319 2.98726
# Velocity P-wave (km/s) = 6.12036 6.00951 6.06519
#
# Compressibility (1/GPa) = 0.01980876
#
# Stress axis : x y z
#
# Youngs Moduli (GPa) = 70.66365 87.67863 51.00379
#
# Poissons Ratio (x) = 0.48089 0.33496
# Poissons Ratio (y) = 0.38757 0.03189
# Poissons Ratio (z) = 0.46407 0.05482
#
# Static dielectric constant tensor:
#      x y z
#    x 1.974750 0.000000 0.000000 
#    y 0.000000 1.804060 0.000000 
#    z 0.000000 0.000000 1.823520 
# 
# From -- ./inp_files/25616.got.cif
#   From: 2010.05.17/outbox.cif.g08.bks.cpg/sg73_13_cif.got.tgz:25616.got - 2010.06.03 17:35:07.
