data_PCOD9532488
_publ_section_title
;
Structure prediction by ZEFSAII (Michael W. Deem and Ramdas Pophale) SiO2 
 PCOD9532488
Probable space group: I B C A 
;
_chemical_formula_sum "Si O2"
_cell_formula_units_Z 112
_cell_length_a 25.005640
_cell_length_b 19.618746
_cell_length_c 10.788415
_cell_angle_alpha 90.000000
_cell_angle_beta 90.000000
_cell_angle_gamma 90.000000
_cell_volume 5292.573076
_symmetry_space_group_name_H-M "I B C A "
_symmetry_group_IT_number 73
_symmetry_cell_setting 'orthorhombic'
loop_
_space_group_symop_operation_xyz
x,y,z
-x,1/2-y,z
x,-y,1/2-z
1/2-x,y,-z
-x,-y,-z
x,1/2+y,-z
-x,y,1/2+z
1/2+x,-y,z
1/2+x,1/2+y,1/2+z
1/2-x,-y,1/2+z
1/2+x,1/2-y,-z
-x,1/2+y,1/2-z
1/2-x,1/2-y,1/2-z
1/2+x,y,1/2-z
1/2-x,1/2+y,z
x,1/2-y,1/2+z
loop_
_atom_site_type_symbol
_atom_site_label
_atom_site_fract_x
_atom_site_fract_y
_atom_site_fract_z
Si Si1 0.372793 0.129970 0.674201
Si Si2 0.781335 0.260868 0.380330
Si Si3 0.333401 0.881586 0.438262
Si Si4 0.376335 0.067255 0.300339
Si Si5 0.689629 0.978968 0.461081
Si Si6 0.057062 0.168006 0.557583
Si Si7 0.431245 0.669662 0.072983
O O1 0.331042 0.191251 0.652447
O O2 0.337026 0.061844 0.652895
O O3 0.417639 0.138041 0.567779
O O4 0.403293 0.141346 0.802884
O O5 0.750000 0.291357 0.500000
O O6 0.750000 0.250000 0.250000
O O7 0.801851 0.188522 0.432748
O O8 0.332280 0.913268 0.301392
O O9 0.394996 0.863225 0.466378
O O10 0.314188 0.938610 0.535678
O O11 0.347092 0.046153 0.425512
O O12 0.414385 0.129629 0.329787
O O13 0.405711 0.000000 0.250000
O O14 0.750000 0.961098 0.500000
O O15 0.070892 0.248047 0.566521
O O16 0.993934 0.154839 0.563061
#
# Coordination Sequence:
#
# PCOD9532488 Si02
#       7
#    16  16  16  16  16  16  16
#     4  11  24  43  64  99 132 171 233 273 342 425
#     4  12  26  41  69 101 138 181 226 293 350 410
#     4  11  23  43  63  97 135 167 231 274 341 413
#     4   9  21  42  64  90 124 173 215 267 322 410
#     4  10  23  44  66  92 132 180 221 277 342 409
#     4  10  23  41  67  93 133 170 220 272 352 392
#     4  11  24  41  67 100 129 177 214 291 344 404
#
# _framework density 21.161729999999999
#
# number of rings (size 3 to 8) (size 9 to 14) (size 15 to 20)
#    0.000    1.429    1.429    2.571    8.000    1.714 
#    7.714    2.143    0.000    0.000    0.000    0.000 
#    0.000    0.000    0.000    0.000    0.000    0.000 
#
# Total GULP energy -312713.514689 kJ/mol
# GULP energy per Si atom -5584.169905 kJ/mol
# Density = 2.111357 g / cm^3
# Si number density = 21.161730 Si / 1000 Ang^3
#
#
#
# Elastic Constant Matrix: (Units=GPa)
#
#
# Indices 1 2 3 4 5 6 
#
# 1 101.0898 36.9279 26.3265 0.0000 0.0000 0.0000
# 2 36.9279 99.2890 2.5222 0.0000 0.0000 0.0000
# 3 26.3265 2.5222 89.7925 0.0000 0.0000 0.0000
# 4 0.0000 0.0000 0.0000 21.3189 0.0000 0.0000
# 5 0.0000 0.0000 0.0000 0.0000 31.2095 0.0000
# 6 0.0000 0.0000 0.0000 0.0000 0.0000 20.7650
#
#
#
# Elastic Compliance Matrix: (Units=1/GPa)
#
#
# Indices 1 2 3 4 5 6 
#
# 1 0.012473 -0.004549 -0.003529 0.000000 0.000000 0.000000
# 2 -0.004549 0.011738 0.001004 0.000000 0.000000 0.000000
# 3 -0.003529 0.001004 0.012143 0.000000 0.000000 0.000000
# 4 0.000000 0.000000 0.000000 0.046907 0.000000 0.000000
# 5 0.000000 0.000000 0.000000 0.000000 0.032041 0.000000
# 6 0.000000 0.000000 0.000000 0.000000 0.000000 0.048158
#
#
# Mechanical properties :
#
#
# Convention : Reuss Voigt Hill
#
# Bulk Modulus (GPa) = 45.03371 46.85829 45.94600
# Shear Modulus (GPa) = 27.02531 29.61834 28.32182
#
# Velocity S-wave (km/s) = 3.57751 3.74521 3.66232
# Velocity P-wave (km/s) = 6.19610 6.39477 6.29622
#
# Compressibility (1/GPa) = 0.02220559
#
# Stress axis : x y z
#
# Youngs Moduli (GPa) = 80.17185 85.19240 82.34972
#
# Poissons Ratio (x) = 0.38758 0.29063
# Poissons Ratio (y) = 0.36474 -0.08269
# Poissons Ratio (z) = 0.28295 -0.08555
#
# Static dielectric constant tensor:
#      x y z
#    x 1.731070 0.000000 0.000000 
#    y 0.000000 1.811900 0.000000 
#    z 0.000000 0.000000 1.780210 
# 
# From -- ./inp_files/13797.got.cif
#   From: 2010.05.17/outbox.cif.g08.bks.cpg/sg73_7_cif.got.tgz:13797.got - 2010.06.03 17:35:07.
