data_PCOD9532268
_publ_section_title
;
Structure prediction by ZEFSAII (Michael W. Deem and Ramdas Pophale) SiO2 
 PCOD9532268
Probable space group: I B C A 
;
_chemical_formula_sum "Si O2"
_cell_formula_units_Z 112
_cell_length_a 10.631173
_cell_length_b 22.322900
_cell_length_c 23.136674
_cell_angle_alpha 90.000000
_cell_angle_beta 90.000000
_cell_angle_gamma 90.000000
_cell_volume 5490.763354
_symmetry_space_group_name_H-M "I B C A "
_symmetry_group_IT_number 73
_symmetry_cell_setting 'orthorhombic'
loop_
_space_group_symop_operation_xyz
x,y,z
-x,1/2-y,z
x,-y,1/2-z
1/2-x,y,-z
-x,-y,-z
x,1/2+y,-z
-x,y,1/2+z
1/2+x,-y,z
1/2+x,1/2+y,1/2+z
1/2-x,-y,1/2+z
1/2+x,1/2-y,-z
-x,1/2+y,1/2-z
1/2-x,1/2-y,1/2-z
1/2+x,y,1/2-z
1/2-x,1/2+y,z
x,1/2-y,1/2+z
loop_
_atom_site_type_symbol
_atom_site_label
_atom_site_fract_x
_atom_site_fract_y
_atom_site_fract_z
Si Si1 0.000000 0.250000 0.037157
Si Si2 0.215230 0.159991 0.710082
Si Si3 0.902259 0.174684 0.441585
Si Si4 0.142145 0.278872 0.321485
Si Si5 0.444190 0.987678 0.563933
Si Si6 0.090009 0.869663 0.898336
Si Si7 0.870960 0.390414 0.384521
Si Si8 0.250000 0.927962 0.500000
O O1 0.956262 0.191801 0.072513
O O2 0.900129 0.276203 0.991533
O O3 0.260663 0.225820 0.690989
O O4 0.171739 0.168291 0.775666
O O5 0.098302 0.140906 0.670431
O O6 0.330629 0.120435 0.682835
O O7 0.830296 0.197216 0.385434
O O8 0.852739 0.115324 0.472099
O O9 0.038255 0.158985 0.413335
O O10 0.000000 0.250000 0.315803
O O11 0.511107 0.928546 0.587756
O O12 0.301651 0.968663 0.550874
O O13 0.500000 0.000000 0.500000
O O14 0.437528 0.046383 0.603294
O O15 0.264841 0.883593 0.084869
#
# Coordination Sequence:
#
# PCOD9532268 Si02
#       8
#     8  16  16  16  16  16  16   8
#     4  12  22  38  58 100 146 166 214 274 352 400
#     4   9  23  39  66  96 123 176 222 282 336 399
#     4  12  24  39  62  98 138 178 210 279 348 418
#     4  11  20  42  66  94 134 175 223 273 351 414
#     4  12  22  42  65  94 133 184 224 276 325 417
#     4  10  24  41  64 100 132 179 225 280 339 408
#     4  10  22  44  65  94 131 175 227 273 344 388
#     4  12  26  38  56 102 128 182 226 254 346 408
#
# _framework density 20.397891999999999
#
# number of rings (size 3 to 8) (size 9 to 14) (size 15 to 20)
#    0.857    0.286    5.000    0.857    3.000    1.714 
#    2.571    0.000    0.000    5.143    0.000    0.000 
#    0.000    0.000    0.000    0.000    0.000    0.000 
#
# Total GULP energy -311894.836666 kJ/mol
# GULP energy per Si atom -5569.550655 kJ/mol
# Density = 2.035147 g / cm^3
# Si number density = 20.397892 Si / 1000 Ang^3
#
#
#
# Elastic Constant Matrix: (Units=GPa)
#
#
# Indices 1 2 3 4 5 6 
#
# 1 33.6594 9.4718 -5.8210 0.0000 0.0000 0.0000
# 2 9.4718 110.8373 25.0162 0.0000 0.0000 0.0000
# 3 -5.8210 25.0162 65.4460 0.0000 0.0000 0.0000
# 4 0.0000 0.0000 0.0000 29.0827 0.0000 0.0000
# 5 0.0000 0.0000 0.0000 0.0000 23.2778 0.0000
# 6 0.0000 0.0000 0.0000 0.0000 0.0000 33.0404
#
#
#
# Elastic Compliance Matrix: (Units=1/GPa)
#
#
# Indices 1 2 3 4 5 6 
#
# 1 0.031456 -0.003633 0.004186 0.000000 0.000000 0.000000
# 2 -0.003633 0.010294 -0.004258 0.000000 0.000000 0.000000
# 3 0.004186 -0.004258 0.017280 0.000000 0.000000 0.000000
# 4 0.000000 0.000000 0.000000 0.034385 0.000000 0.000000
# 5 0.000000 0.000000 0.000000 0.000000 0.042959 0.000000
# 6 0.000000 0.000000 0.000000 0.000000 0.000000 0.030266
#
#
# Mechanical properties :
#
#
# Convention : Reuss Voigt Hill
#
# Bulk Modulus (GPa) = 19.37219 29.69742 24.53480
# Shear Modulus (GPa) = 26.14315 29.16521 27.65418
#
# Velocity S-wave (km/s) = 3.58391 3.78539 3.68603
# Velocity P-wave (km/s) = 5.16175 5.80485 5.49272
#
# Compressibility (1/GPa) = 0.05162040
#
# Stress axis : x y z
#
# Youngs Moduli (GPa) = 31.79068 97.14688 57.87160
#
# Poissons Ratio (x) = 0.35294 -0.24228
# Poissons Ratio (y) = 0.11550 0.24641
# Poissons Ratio (z) = -0.13309 0.41363
#
# Static dielectric constant tensor:
#      x y z
#    x 1.929980 0.000000 0.000000 
#    y 0.000000 1.783380 0.000000 
#    z 0.000000 0.000000 1.737240 
# 
# From -- ./inp_files/25600.got.cif
#   From: 2010.05.17/outbox.cif.g08.bks.cpg/sg73_13_cif.got.tgz:25600.got - 2010.06.03 17:35:07.
