data_PCOD9532038
_publ_section_title
;
Structure prediction by ZEFSAII (Michael W. Deem and Ramdas Pophale) SiO2 
 PCOD9532038
Probable space group: I B C A 
;
_chemical_formula_sum "Si O2"
_cell_formula_units_Z 104
_cell_length_a 18.095010
_cell_length_b 16.474103
_cell_length_c 16.427344
_cell_angle_alpha 90.000000
_cell_angle_beta 90.000000
_cell_angle_gamma 90.000000
_cell_volume 4896.975780
_symmetry_space_group_name_H-M "I B C A "
_symmetry_group_IT_number 73
_symmetry_cell_setting 'orthorhombic'
loop_
_space_group_symop_operation_xyz
x,y,z
-x,1/2-y,z
x,-y,1/2-z
1/2-x,y,-z
-x,-y,-z
x,1/2+y,-z
-x,y,1/2+z
1/2+x,-y,z
1/2+x,1/2+y,1/2+z
1/2-x,-y,1/2+z
1/2+x,1/2-y,-z
-x,1/2+y,1/2-z
1/2-x,1/2-y,1/2-z
1/2+x,y,1/2-z
1/2-x,1/2+y,z
x,1/2-y,1/2+z
loop_
_atom_site_type_symbol
_atom_site_label
_atom_site_fract_x
_atom_site_fract_y
_atom_site_fract_z
Si Si1 0.768723 0.500000 0.250000
Si Si2 0.665436 0.909176 0.484418
Si Si3 0.494998 0.997997 0.334392
Si Si4 0.082857 0.222742 0.181770
Si Si5 0.356731 0.892636 0.168920
Si Si6 0.544765 0.668838 0.863912
Si Si7 0.634038 0.569196 0.602522
O O1 0.716492 0.565291 0.203621
O O2 0.817004 0.542021 0.319859
O O3 0.750000 0.883311 0.500000
O O4 0.633651 0.890698 0.572191
O O5 0.615366 0.862076 0.417138
O O6 0.664398 0.006641 0.465917
O O7 0.487226 0.906420 0.363851
O O8 0.540280 0.000000 0.250000
O O9 0.425218 0.050263 0.311189
O O10 0.548109 0.043066 0.396293
O O11 0.130337 0.302591 0.200007
O O12 0.070100 0.180547 0.269846
O O13 0.124583 0.165870 0.116051
O O14 0.000000 0.250000 0.154472
O O15 0.500000 0.750000 0.888869
#
# Coordination Sequence:
#
# PCOD9532038 Si02
#       7
#     8  16  16  16  16  16  16
#     4  12  24  40  70 100 132 190 228 272 350 436
#     4  11  25  47  65  98 148 187 226 290 364 433
#     4  11  18  39  69  94 129 177 231 292 329 414
#     4  11  22  44  71 108 132 173 243 304 337 411
#     4  12  26  41  67 106 144 174 235 292 347 419
#     4  10  22  40  70 100 135 183 241 289 357 414
#     4  11  21  43  72  93 132 184 231 278 360 418
#
# _framework density 21.237597000000001
#
# number of rings (size 3 to 8) (size 9 to 14) (size 15 to 20)
#    0.000    0.923    6.154    1.846    0.000    3.692 
#    2.769    0.769    0.000    0.000    0.000    0.000 
#    0.000    0.000    0.000    0.000    0.000    0.000 
#
# Total GULP energy -289521.804083 kJ/mol
# GULP energy per Si atom -5567.727002 kJ/mol
# Density = 2.118926 g / cm^3
# Si number density = 21.237597 Si / 1000 Ang^3
#
#
#
# Elastic Constant Matrix: (Units=GPa)
#
#
# Indices 1 2 3 4 5 6 
#
# 1 67.2414 37.6575 -1.8846 0.0000 0.0000 0.0000
# 2 37.6575 139.5193 -1.2288 0.0000 0.0000 0.0000
# 3 -1.8846 -1.2288 32.7145 0.0000 0.0000 0.0000
# 4 0.0000 0.0000 0.0000 32.1259 0.0000 0.0000
# 5 0.0000 0.0000 0.0000 0.0000 9.6837 0.0000
# 6 0.0000 0.0000 0.0000 0.0000 0.0000 24.4250
#
#
#
# Elastic Compliance Matrix: (Units=1/GPa)
#
#
# Indices 1 2 3 4 5 6 
#
# 1 0.017543 -0.004728 0.000833 0.000000 0.000000 0.000000
# 2 -0.004728 0.008444 0.000045 0.000000 0.000000 0.000000
# 3 0.000833 0.000045 0.030617 0.000000 0.000000 0.000000
# 4 0.000000 0.000000 0.000000 0.031128 0.000000 0.000000
# 5 0.000000 0.000000 0.000000 0.000000 0.103266 0.000000
# 6 0.000000 0.000000 0.000000 0.000000 0.000000 0.040942
#
#
# Mechanical properties :
#
#
# Convention : Reuss Voigt Hill
#
# Bulk Modulus (GPa) = 20.44814 34.28483 27.36648
# Shear Modulus (GPa) = 19.53583 26.90900 23.22241
#
# Velocity S-wave (km/s) = 3.03623 3.56342 3.31033
# Velocity P-wave (km/s) = 4.68409 5.75405 5.24642
#
# Compressibility (1/GPa) = 0.04890421
#
# Stress axis : x y z
#
# Youngs Moduli (GPa) = 57.00357 118.42879 32.66145
#
# Poissons Ratio (x) = 0.55989 -0.02721
# Poissons Ratio (y) = 0.26949 -0.00146
# Poissons Ratio (z) = -0.04748 -0.00531
#
# Static dielectric constant tensor:
#      x y z
#    x 1.495110 0.000000 0.000000 
#    y 0.000000 1.451620 0.000000 
#    z 0.000000 0.000000 1.577350 
# 
# From -- ./inp_files/22627.got.cif
#   From: 2010.05.17/outbox.cif.g08.bks.cpg/sg73_12_cif.got.tgz:22627.got - 2010.06.03 17:35:07.
