data_PCOD9532069
_publ_section_title
;
Structure prediction by ZEFSAII (Michael W. Deem and Ramdas Pophale) SiO2 
 PCOD9532069
Probable space group: I B C A 
;
_chemical_formula_sum "Si O2"
_cell_formula_units_Z 96
_cell_length_a 19.682662
_cell_length_b 23.132589
_cell_length_c 9.932166
_cell_angle_alpha 90.000000
_cell_angle_beta 90.000000
_cell_angle_gamma 90.000000
_cell_volume 4522.223743
_symmetry_space_group_name_H-M "I B C A "
_symmetry_group_IT_number 73
_symmetry_cell_setting 'orthorhombic'
loop_
_space_group_symop_operation_xyz
x,y,z
-x,1/2-y,z
x,-y,1/2-z
1/2-x,y,-z
-x,-y,-z
x,1/2+y,-z
-x,y,1/2+z
1/2+x,-y,z
1/2+x,1/2+y,1/2+z
1/2-x,-y,1/2+z
1/2+x,1/2-y,-z
-x,1/2+y,1/2-z
1/2-x,1/2-y,1/2-z
1/2+x,y,1/2-z
1/2-x,1/2+y,z
x,1/2-y,1/2+z
loop_
_atom_site_type_symbol
_atom_site_label
_atom_site_fract_x
_atom_site_fract_y
_atom_site_fract_z
Si Si1 0.136469 0.856624 0.938911
Si Si2 0.856117 0.115113 0.748918
Si Si3 0.829297 0.245395 0.711892
Si Si4 0.265494 0.047533 0.342843
Si Si5 0.546475 0.702765 0.373764
Si Si6 0.514893 0.864690 0.128804
O O1 0.151945 0.789884 0.907196
O O2 0.191260 0.894253 0.859825
O O3 0.062671 0.880568 0.899136
O O4 0.142496 0.866951 0.095598
O O5 0.842178 0.177814 0.680493
O O6 0.798940 0.066450 0.750987
O O7 0.929160 0.094676 0.696747
O O8 0.750000 0.250000 0.750000
O O9 0.882397 0.271251 0.823210
O O10 0.250000 0.030252 0.500000
O O11 0.301587 0.000000 0.250000
O O12 0.500000 0.750000 0.446907
O O13 0.500392 0.683685 0.245067
O O14 0.547223 0.653198 0.485352
#
# Coordination Sequence:
#
# PCOD9532069 Si02
#       6
#    16  16  16  16  16  16
#     4  10  22  41  63  89 130 174 206 262 329 385
#     4  11  22  39  62  89 133 168 204 265 324 385
#     4  11  22  36  57  94 129 170 215 246 313 395
#     4  10  23  48  69  88 119 166 216 275 334 383
#     4  11  21  34  56  85 132 176 206 247 300 381
#     4  11  21  37  59  90 126 170 213 247 317 384
#
# _framework density 21.228494000000001
#
# number of rings (size 3 to 8) (size 9 to 14) (size 15 to 20)
#    0.000    1.333    5.000    0.500    4.667    0.000 
#    6.000    0.833    0.000    4.000    0.000    0.000 
#    0.000    0.000    0.000    0.000    0.000    0.000 
#
# Total GULP energy -267416.517245 kJ/mol
# GULP energy per Si atom -5571.177443 kJ/mol
# Density = 2.118018 g / cm^3
# Si number density = 21.228494 Si / 1000 Ang^3
#
#
#
# Elastic Constant Matrix: (Units=GPa)
#
#
# Indices 1 2 3 4 5 6 
#
# 1 107.4003 -13.2484 -1.4742 0.0000 0.0000 0.0000
# 2 -13.2484 36.9450 15.3479 0.0000 0.0000 0.0000
# 3 -1.4742 15.3479 53.7624 0.0000 0.0000 0.0000
# 4 0.0000 0.0000 0.0000 12.8186 0.0000 0.0000
# 5 0.0000 0.0000 0.0000 0.0000 25.4166 0.0000
# 6 0.0000 0.0000 0.0000 0.0000 0.0000 1.9298
#
#
#
# Elastic Compliance Matrix: (Units=1/GPa)
#
#
# Indices 1 2 3 4 5 6 
#
# 1 0.009775 0.003850 -0.000831 0.000000 0.000000 0.000000
# 2 0.003850 0.032226 -0.009094 0.000000 0.000000 0.000000
# 3 -0.000831 -0.009094 0.021174 0.000000 0.000000 0.000000
# 4 0.000000 0.000000 0.000000 0.078012 0.000000 0.000000
# 5 0.000000 0.000000 0.000000 0.000000 0.039344 0.000000
# 6 0.000000 0.000000 0.000000 0.000000 0.000000 0.518188
#
#
# Mechanical properties :
#
#
# Convention : Reuss Voigt Hill
#
# Bulk Modulus (GPa) = 19.59849 22.15094 20.87471
# Shear Modulus (GPa) = 6.86930 21.19848 14.03389
#
# Velocity S-wave (km/s) = 1.80081 3.16347 2.57395
# Velocity P-wave (km/s) = 3.68457 4.87858 4.32300
#
# Compressibility (1/GPa) = 0.05102434
#
# Stress axis : x y z
#
# Youngs Moduli (GPa) = 102.30685 31.03087 47.22835
#
# Poissons Ratio (x) = -0.11948 0.03926
# Poissons Ratio (y) = -0.39392 0.42950
# Poissons Ratio (z) = 0.08504 0.28220
#
# Static dielectric constant tensor:
#      x y z
#    x 1.846790 0.000000 0.000000 
#    y 0.000000 1.839430 0.000000 
#    z 0.000000 0.000000 1.797110 
# 
# From -- ./inp_files/12887.got.cif
#   From: 2010.05.17/outbox.cif.g08.bks.cpg/sg73_7_cif.got.tgz:12887.got - 2010.06.03 17:35:07.
