data_PCOD9532387
_publ_section_title
;
Structure prediction by ZEFSAII (Michael W. Deem and Ramdas Pophale) SiO2 
 PCOD9532387
Probable space group: I B C A 
;
_chemical_formula_sum "Si O2"
_cell_formula_units_Z 64
_cell_length_a 13.002173
_cell_length_b 26.946940
_cell_length_c 9.325345
_cell_angle_alpha 90.000000
_cell_angle_beta 90.000000
_cell_angle_gamma 90.000000
_cell_volume 3267.309711
_symmetry_space_group_name_H-M "I B C A "
_symmetry_group_IT_number 73
_symmetry_cell_setting 'orthorhombic'
loop_
_space_group_symop_operation_xyz
x,y,z
-x,1/2-y,z
x,-y,1/2-z
1/2-x,y,-z
-x,-y,-z
x,1/2+y,-z
-x,y,1/2+z
1/2+x,-y,z
1/2+x,1/2+y,1/2+z
1/2-x,-y,1/2+z
1/2+x,1/2-y,-z
-x,1/2+y,1/2-z
1/2-x,1/2-y,1/2-z
1/2+x,y,1/2-z
1/2-x,1/2+y,z
x,1/2-y,1/2+z
loop_
_atom_site_type_symbol
_atom_site_label
_atom_site_fract_x
_atom_site_fract_y
_atom_site_fract_z
Si Si1 0.001413 0.000000 0.750000
Si Si2 0.803630 0.207417 0.848599
Si Si3 0.000000 0.250000 0.990677
Si Si4 0.126874 0.553606 0.001209
Si Si5 0.147310 0.664478 0.917266
O O1 0.073453 0.966338 0.646465
O O2 0.929660 0.029475 0.636645
O O3 0.750000 0.250000 0.750000
O O4 0.816023 0.159922 0.746726
O O5 0.750000 0.198107 0.000000
O O6 0.915083 0.225615 0.891944
O O7 0.059888 0.206491 0.074299
O O8 0.250000 0.543564 0.000000
O O9 0.114079 0.612952 0.985771
O O10 0.250000 0.681968 0.000000
#
# Coordination Sequence:
#
# PCOD9532387 Si02
#       5
#     8  16   8  16  16
#     4  10  22  46  72  98 122 174 216 274 360 402
#     4  12  23  41  59  89 130 180 223 268 318 381
#     4  12  22  38  66  84 138 178 218 268 320 378
#     4  10  23  44  70  98 134 164 220 283 335 404
#     4  11  24  43  61  96 132 175 224 273 319 398
#
# _framework density 19.587980000000002
#
# number of rings (size 3 to 8) (size 9 to 14) (size 15 to 20)
#    0.000    1.000    5.000    1.500    3.500    0.000 
#    4.500    1.250    0.000    0.000    0.000    0.000 
#    0.000    0.000    0.000    0.000    0.000    0.000 
#
# Total GULP energy -178519.133701 kJ/mol
# GULP energy per Si atom -5578.722928 kJ/mol
# Density = 1.954340 g / cm^3
# Si number density = 19.587980 Si / 1000 Ang^3
#
#
#
# Elastic Constant Matrix: (Units=GPa)
#
#
# Indices 1 2 3 4 5 6 
#
# 1 146.0079 55.6599 70.5930 0.0000 0.0000 0.0000
# 2 55.6599 108.8430 66.2650 -0.0003 0.0000 0.0000
# 3 70.5930 66.2650 182.2111 -0.0005 0.0004 0.0000
# 4 0.0000 -0.0003 -0.0005 31.0167 0.0002 0.0000
# 5 0.0000 0.0000 0.0004 0.0002 32.3776 0.0000
# 6 0.0000 0.0000 0.0000 0.0000 0.0000 28.7371
#
#
#
# Elastic Compliance Matrix: (Units=1/GPa)
#
#
# Indices 1 2 3 4 5 6 
#
# 1 0.009255 -0.003275 -0.002395 0.000000 0.000000 0.000000
# 2 -0.003275 0.012959 -0.003444 0.000000 0.000000 0.000000
# 3 -0.002395 -0.003444 0.007668 0.000000 0.000000 0.000000
# 4 0.000000 0.000000 0.000000 0.032241 0.000000 0.000000
# 5 0.000000 0.000000 0.000000 0.000000 0.030886 0.000000
# 6 0.000000 0.000000 0.000000 0.000000 0.000000 0.034798
#
#
# Mechanical properties :
#
#
# Convention : Reuss Voigt Hill
#
# Bulk Modulus (GPa) = 85.79809 91.34419 88.57114
# Shear Modulus (GPa) = 33.35119 34.72921 34.04020
#
# Velocity S-wave (km/s) = 4.13078 4.21525 4.17323
# Velocity P-wave (km/s) = 8.16380 8.39197 8.27867
#
# Compressibility (1/GPa) = 0.01165527
#
# Stress axis : x y z
#
# Youngs Moduli (GPa) = 108.04725 77.16594 130.40544
#
# Poissons Ratio (x) = 0.25272 0.31228
# Poissons Ratio (y) = 0.35386 0.44912
# Poissons Ratio (z) = 0.25874 0.26576
#
# Static dielectric constant tensor:
#      x y z
#    x 1.671440 0.000000 0.000000 
#    y 0.000000 1.714420 0.000000 
#    z 0.000000 0.000000 1.736350 
# 
# From -- ./inp_files/4005.got.cif
#   From: 2010.05.17/outbox.cif.g08.bks.cpg/sg73_3_cif.got.tgz:4005.got - 2010.06.03 17:35:07.
