data_PCOD9532867
_publ_section_title
;
Structure prediction by ZEFSAII (Michael W. Deem and Ramdas Pophale) SiO2 
 PCOD9532867
Probable space group: I B C A 
;
_chemical_formula_sum "Si O2"
_cell_formula_units_Z 72
_cell_length_a 18.546533
_cell_length_b 8.470402
_cell_length_c 20.670661
_cell_angle_alpha 90.000000
_cell_angle_beta 90.000000
_cell_angle_gamma 90.000000
_cell_volume 3247.290361
_symmetry_space_group_name_H-M "I B C A "
_symmetry_group_IT_number 73
_symmetry_cell_setting 'orthorhombic'
loop_
_space_group_symop_operation_xyz
x,y,z
-x,1/2-y,z
x,-y,1/2-z
1/2-x,y,-z
-x,-y,-z
x,1/2+y,-z
-x,y,1/2+z
1/2+x,-y,z
1/2+x,1/2+y,1/2+z
1/2-x,-y,1/2+z
1/2+x,1/2-y,-z
-x,1/2+y,1/2-z
1/2-x,1/2-y,1/2-z
1/2+x,y,1/2-z
1/2-x,1/2+y,z
x,1/2-y,1/2+z
loop_
_atom_site_type_symbol
_atom_site_label
_atom_site_fract_x
_atom_site_fract_y
_atom_site_fract_z
Si Si1 0.488926 0.062282 0.073256
Si Si2 0.822519 0.998015 0.417424
Si Si3 0.192088 0.651767 0.290494
Si Si4 0.250000 0.258303 0.000000
Si Si5 0.560989 0.380854 0.810301
O O1 0.500000 0.250000 0.075091
O O2 0.406556 0.026769 0.094988
O O3 0.541328 0.973625 0.123885
O O4 0.500000 0.000000 0.000000
O O5 0.780740 0.931740 0.355482
O O6 0.813277 0.867628 0.472982
O O7 0.783149 0.151084 0.444277
O O8 0.163279 0.500000 0.250000
O O9 0.250000 0.750000 0.250000
O O10 0.133270 0.778497 0.312671
O O11 0.500000 0.250000 0.798510
O O12 0.564210 0.500000 0.750000
#
# Coordination Sequence:
#
# PCOD9532867 Si02
#       5
#    16  16  16   8  16
#     4  12  27  47  79 114 158 203 257 325 398 478
#     4  11  24  47  71 107 148 196 260 308 396 456
#     4  12  27  49  75 109 151 201 263 323 390 469
#     4  10  24  44  74 102 148 198 246 326 374 472
#     4  12  26  47  75 107 149 198 257 322 388 465
#
# _framework density 22.172332000000001
#
# number of rings (size 3 to 8) (size 9 to 14) (size 15 to 20)
#    0.000    0.444    2.222    5.333    6.222    0.000 
#    8.000    0.000    0.000    0.000    0.000    0.000 
#    0.000    0.000    0.000    0.000    0.000    0.000 
#
# Total GULP energy -201531.702129 kJ/mol
# GULP energy per Si atom -5598.102837 kJ/mol
# Density = 2.212187 g / cm^3
# Si number density = 22.172332 Si / 1000 Ang^3
#
#
#
# Elastic Constant Matrix: (Units=GPa)
#
#
# Indices 1 2 3 4 5 6 
#
# 1 99.5837 49.8625 19.5948 0.0000 0.0000 0.0000
# 2 49.8625 182.3783 71.6453 0.0000 0.0000 0.0000
# 3 19.5948 71.6453 117.6308 0.0000 0.0000 0.0000
# 4 0.0000 0.0000 0.0000 50.5771 0.0000 0.0000
# 5 0.0000 0.0000 0.0000 0.0000 32.5333 0.0000
# 6 0.0000 0.0000 0.0000 0.0000 0.0000 6.3022
#
#
#
# Elastic Compliance Matrix: (Units=1/GPa)
#
#
# Indices 1 2 3 4 5 6 
#
# 1 0.011635 -0.003181 -0.000001 0.000000 0.000000 0.000000
# 2 -0.003181 0.008077 -0.004390 0.000000 0.000000 0.000000
# 3 -0.000001 -0.004390 0.011175 0.000000 0.000000 0.000000
# 4 0.000000 0.000000 0.000000 0.019772 0.000000 0.000000
# 5 0.000000 0.000000 0.000000 0.000000 0.030738 0.000000
# 6 0.000000 0.000000 0.000000 0.000000 0.000000 0.158674
#
#
# Mechanical properties :
#
#
# Convention : Reuss Voigt Hill
#
# Bulk Modulus (GPa) = 63.51506 75.75532 69.63519
# Shear Modulus (GPa) = 19.19676 35.11521 27.15598
#
# Velocity S-wave (km/s) = 2.94564 3.98394 3.50347
# Velocity P-wave (km/s) = 6.34644 7.44333 6.91666
#
# Compressibility (1/GPa) = 0.01574430
#
# Stress axis : x y z
#
# Youngs Moduli (GPa) = 85.95122 123.80640 89.48571
#
# Poissons Ratio (x) = 0.39377 0.00008
# Poissons Ratio (y) = 0.27337 0.39282
# Poissons Ratio (z) = 0.00008 0.54348
#
# Static dielectric constant tensor:
#      x y z
#    x 1.731420 0.000000 0.000000 
#    y 0.000000 1.792130 0.000000 
#    z 0.000000 0.000000 1.872370 
# 
# From -- ./inp_files/5368.got.cif
#   From: 2010.05.17/outbox.cif.g08.bks.cpg/sg73_3_cif.got.tgz:5368.got - 2010.06.03 17:35:07.
