data_PCOD9532990
_publ_section_title
;
Structure prediction by ZEFSAII (Michael W. Deem and Ramdas Pophale) SiO2 
 PCOD9532990
Probable space group: I B C A 
;
_chemical_formula_sum "Si O2"
_cell_formula_units_Z 64
_cell_length_a 18.452237
_cell_length_b 10.825032
_cell_length_c 13.354601
_cell_angle_alpha 90.000000
_cell_angle_beta 90.000000
_cell_angle_gamma 90.000000
_cell_volume 2667.528879
_symmetry_space_group_name_H-M "I B C A "
_symmetry_group_IT_number 73
_symmetry_cell_setting 'orthorhombic'
loop_
_space_group_symop_operation_xyz
x,y,z
-x,1/2-y,z
x,-y,1/2-z
1/2-x,y,-z
-x,-y,-z
x,1/2+y,-z
-x,y,1/2+z
1/2+x,-y,z
1/2+x,1/2+y,1/2+z
1/2-x,-y,1/2+z
1/2+x,1/2-y,-z
-x,1/2+y,1/2-z
1/2-x,1/2-y,1/2-z
1/2+x,y,1/2-z
1/2-x,1/2+y,z
x,1/2-y,1/2+z
loop_
_atom_site_type_symbol
_atom_site_label
_atom_site_fract_x
_atom_site_fract_y
_atom_site_fract_z
Si Si1 0.615124 0.766387 0.345105
Si Si2 0.500000 0.750000 0.509500
Si Si3 0.777869 0.421100 0.891116
Si Si4 0.418716 0.911480 0.167903
Si Si5 0.653563 0.000000 0.250000
O O1 0.562843 0.715626 0.431451
O O2 0.692152 0.717875 0.382330
O O3 0.600892 0.705515 0.237167
O O4 0.611037 0.910937 0.324883
O O5 0.531919 0.859570 0.578785
O O6 0.845204 0.513991 0.863743
O O7 0.709976 0.424977 0.817697
O O8 0.750000 0.452525 0.000000
O O9 0.456407 0.000000 0.250000
#
# Coordination Sequence:
#
# PCOD9532990 Si02
#       5
#    16   8  16  16   8
#     4  11  26  47  71 111 145 203 244 309 372 445
#     4  12  26  48  76 108 148 200 258 300 378 462
#     4  11  24  44  77 108 147 192 249 312 378 454
#     4  10  24  50  71 107 151 192 248 316 373 445
#     4  12  24  48  74 106 152 192 244 314 374 446
#
# _framework density 23.992241
#
# number of rings (size 3 to 8) (size 9 to 14) (size 15 to 20)
#    0.000    1.000    3.750    3.000    3.500    5.000 
#   18.000    0.000    0.000    0.000    0.000    0.000 
#    0.000    0.000    0.000    0.000    0.000    0.000 
#
# Total GULP energy -178831.659567 kJ/mol
# GULP energy per Si atom -5588.489361 kJ/mol
# Density = 2.393763 g / cm^3
# Si number density = 23.992241 Si / 1000 Ang^3
#
#
#
# Elastic Constant Matrix: (Units=GPa)
#
#
# Indices 1 2 3 4 5 6 
#
# 1 69.5129 37.9848 57.1456 0.0000 0.0000 0.0000
# 2 37.9848 81.7674 28.6639 0.0000 0.0000 0.0000
# 3 57.1456 28.6639 150.7529 0.0000 0.0000 0.0000
# 4 0.0000 0.0000 0.0000 42.9375 0.0000 0.0000
# 5 0.0000 0.0000 0.0000 0.0000 60.8218 0.0000
# 6 0.0000 0.0000 0.0000 0.0000 0.0000 4.9759
#
#
#
# Elastic Compliance Matrix: (Units=1/GPa)
#
#
# Indices 1 2 3 4 5 6 
#
# 1 0.026168 -0.009299 -0.008152 0.000000 0.000000 0.000000
# 2 -0.009299 0.016408 0.000405 0.000000 0.000000 0.000000
# 3 -0.008152 0.000405 0.009646 0.000000 0.000000 0.000000
# 4 0.000000 0.000000 0.000000 0.023290 0.000000 0.000000
# 5 0.000000 0.000000 0.000000 0.000000 0.016441 0.000000
# 6 0.000000 0.000000 0.000000 0.000000 0.000000 0.200968
#
#
# Mechanical properties :
#
#
# Convention : Reuss Voigt Hill
#
# Bulk Modulus (GPa) = 55.15166 61.06910 58.11038
# Shear Modulus (GPa) = 15.01250 33.62961 24.32106
#
# Velocity S-wave (km/s) = 2.50416 3.74797 3.18733
# Velocity P-wave (km/s) = 5.60342 6.65122 6.14967
#
# Compressibility (1/GPa) = 0.01813182
#
# Stress axis : x y z
#
# Youngs Moduli (GPa) = 38.21402 60.94760 103.66653
#
# Poissons Ratio (x) = 0.56675 0.84504
# Poissons Ratio (y) = 0.35535 -0.04201
# Poissons Ratio (z) = 0.31150 -0.02470
#
# Static dielectric constant tensor:
#      x y z
#    x 1.962460 0.000000 0.000000 
#    y 0.000000 2.118990 0.000000 
#    z 0.000000 0.000000 0.740280 
# 
# From -- ./inp_files/15899.got.cif
#   From: 2010.05.17/outbox.cif.g08.bks.cpg/sg73_8_cif.got.tgz:15899.got - 2010.06.03 17:35:07.
