data_PCOD9532588
_publ_section_title
;
Structure prediction by ZEFSAII (Michael W. Deem and Ramdas Pophale) SiO2 
 PCOD9532588
Probable space group: I B C A 
;
_chemical_formula_sum "Si O2"
_cell_formula_units_Z 64
_cell_length_a 8.935785
_cell_length_b 21.205433
_cell_length_c 14.169432
_cell_angle_alpha 90.000000
_cell_angle_beta 90.000000
_cell_angle_gamma 90.000000
_cell_volume 2684.925855
_symmetry_space_group_name_H-M "I B C A "
_symmetry_group_IT_number 73
_symmetry_cell_setting 'orthorhombic'
loop_
_space_group_symop_operation_xyz
x,y,z
-x,1/2-y,z
x,-y,1/2-z
1/2-x,y,-z
-x,-y,-z
x,1/2+y,-z
-x,y,1/2+z
1/2+x,-y,z
1/2+x,1/2+y,1/2+z
1/2-x,-y,1/2+z
1/2+x,1/2-y,-z
-x,1/2+y,1/2-z
1/2-x,1/2-y,1/2-z
1/2+x,y,1/2-z
1/2-x,1/2+y,z
x,1/2-y,1/2+z
loop_
_atom_site_type_symbol
_atom_site_label
_atom_site_fract_x
_atom_site_fract_y
_atom_site_fract_z
Si Si1 0.885306 0.797169 0.237388
Si Si2 0.388708 0.860104 0.065141
Si Si3 0.209359 0.480927 0.858531
Si Si4 0.597078 0.090361 0.592447
O O1 0.750000 0.750000 0.250000
O O2 0.928641 0.819585 0.342944
O O3 0.869166 0.858173 0.172940
O O4 0.000000 0.750000 0.188580
O O5 0.319998 0.925335 0.107219
O O6 0.250000 0.834707 0.000000
O O7 0.530336 0.873840 0.998608
O O8 0.222762 0.500000 0.750000
O O9 0.261548 0.544390 0.908985
O O10 0.043855 0.454595 0.878481
#
# Coordination Sequence:
#
# PCOD9532588 Si02
#       4
#    16  16  16  16
#     4  12  27  48  73 100 142 198 250 300 355 428
#     4  10  23  44  70 106 144 183 241 304 368 440
#     4  11  21  41  72 104 146 183 229 295 376 440
#     4  11  25  44  70 109 145 185 237 302 368 438
#
# _framework density 23.836784999999999
#
# number of rings (size 3 to 8) (size 9 to 14) (size 15 to 20)
#    0.000    1.000    2.500    4.500    0.000    3.000 
#    0.000    2.500    0.000    0.000    0.000    0.000 
#    0.000    0.000    0.000    0.000    0.000    0.000 
#
# Total GULP energy -178984.412865 kJ/mol
# GULP energy per Si atom -5593.262902 kJ/mol
# Density = 2.378253 g / cm^3
# Si number density = 23.836785 Si / 1000 Ang^3
#
#
#
# Elastic Constant Matrix: (Units=GPa)
#
#
# Indices 1 2 3 4 5 6 
#
# 1 61.9905 49.9132 13.6126 0.0000 0.0000 0.0000
# 2 49.9132 137.1777 49.3035 0.0000 0.0000 0.0000
# 3 13.6126 49.3035 176.1832 0.0001 0.0000 0.0000
# 4 0.0000 0.0000 0.0001 20.5264 0.0000 0.0000
# 5 0.0000 0.0000 0.0000 0.0000 25.3030 0.0000
# 6 0.0000 0.0000 0.0000 0.0000 0.0000 36.1430
#
#
#
# Elastic Compliance Matrix: (Units=1/GPa)
#
#
# Indices 1 2 3 4 5 6 
#
# 1 0.022878 -0.008549 0.000625 0.000000 0.000000 0.000000
# 2 -0.008549 0.011299 -0.002502 0.000000 0.000000 0.000000
# 3 0.000625 -0.002502 0.006328 0.000000 0.000000 0.000000
# 4 0.000000 0.000000 0.000000 0.048718 0.000000 0.000000
# 5 0.000000 0.000000 0.000000 0.000000 0.039521 0.000000
# 6 0.000000 0.000000 0.000000 0.000000 0.000000 0.027668
#
#
# Mechanical properties :
#
#
# Convention : Reuss Voigt Hill
#
# Bulk Modulus (GPa) = 50.88150 66.77888 58.83019
# Shear Modulus (GPa) = 27.20149 33.89597 30.54873
#
# Velocity S-wave (km/s) = 3.38176 3.77504 3.58380
# Velocity P-wave (km/s) = 6.05315 6.86127 6.46984
#
# Compressibility (1/GPa) = 0.01965351
#
# Stress axis : x y z
#
# Youngs Moduli (GPa) = 43.71099 88.50010 158.03576
#
# Poissons Ratio (x) = 0.75656 -0.09872
# Poissons Ratio (y) = 0.37367 0.39533
# Poissons Ratio (z) = -0.02731 0.22139
#
# Static dielectric constant tensor:
#      x y z
#    x 1.971950 0.000000 0.000000 
#    y 0.000000 1.841880 0.000000 
#    z 0.000000 0.000000 1.933520 
# 
# From -- ./inp_files/15444.got.cif
#   From: 2010.05.17/outbox.cif.g08.bks.cpg/sg73_8_cif.got.tgz:15444.got - 2010.06.03 17:35:07.
