data_PCOD9532157
_publ_section_title
;
Structure prediction by ZEFSAII (Michael W. Deem and Ramdas Pophale) SiO2 
 PCOD9532157
Probable space group: I B C A 
;
_chemical_formula_sum "Si O2"
_cell_formula_units_Z 120
_cell_length_a 16.240076
_cell_length_b 11.966275
_cell_length_c 27.644554
_cell_angle_alpha 90.000000
_cell_angle_beta 90.000000
_cell_angle_gamma 90.000000
_cell_volume 5372.255068
_symmetry_space_group_name_H-M "I B C A "
_symmetry_group_IT_number 73
_symmetry_cell_setting 'orthorhombic'
loop_
_space_group_symop_operation_xyz
x,y,z
-x,1/2-y,z
x,-y,1/2-z
1/2-x,y,-z
-x,-y,-z
x,1/2+y,-z
-x,y,1/2+z
1/2+x,-y,z
1/2+x,1/2+y,1/2+z
1/2-x,-y,1/2+z
1/2+x,1/2-y,-z
-x,1/2+y,1/2-z
1/2-x,1/2-y,1/2-z
1/2+x,y,1/2-z
1/2-x,1/2+y,z
x,1/2-y,1/2+z
loop_
_atom_site_type_symbol
_atom_site_label
_atom_site_fract_x
_atom_site_fract_y
_atom_site_fract_z
Si Si1 0.222946 0.248547 0.955354
Si Si2 0.799561 0.893331 0.870088
Si Si3 0.930253 0.000000 0.250000
Si Si4 0.484987 0.628405 0.168032
Si Si5 0.431797 0.351772 0.503482
Si Si6 0.135619 0.629197 0.630350
Si Si7 0.003046 0.009832 0.583168
Si Si8 0.816895 0.297119 0.788348
O O1 0.279092 0.176839 0.918250
O O2 0.162803 0.180193 0.990983
O O3 0.159451 0.300309 0.916698
O O4 0.250000 0.332296 0.000000
O O5 0.891031 0.869554 0.849903
O O6 0.734589 0.857305 0.830198
O O7 0.798879 0.027566 0.872334
O O8 0.875197 0.108321 0.264605
O O9 0.989167 0.038308 0.206889
O O10 0.500000 0.750000 0.188724
O O11 0.539305 0.600880 0.120031
O O12 0.500000 0.250000 0.504687
O O13 0.448038 0.421435 0.454895
O O14 0.443564 0.432900 0.549259
O O15 0.048564 0.572996 0.617628
O O16 0.139117 0.697041 0.680753
O O17 0.750000 0.250000 0.750000
#
# Coordination Sequence:
#
# PCOD9532157 Si02
#       8
#    16  16   8  16  16  16  16  16
#     4  11  23  40  66  95 135 178 231 278 347 420
#     4  10  24  44  65  97 138 178 224 290 355 409
#     4  12  28  42  74 108 132 192 242 292 372 444
#     4  11  25  45  67  99 138 178 236 285 353 427
#     4  11  22  42  67  99 137 181 235 288 353 423
#     4  10  22  42  66  98 130 182 228 286 345 422
#     4  10  23  40  67  97 133 182 224 287 352 408
#     4  11  24  46  72 101 137 181 236 300 366 433
#
# _framework density 22.336988999999999
#
# number of rings (size 3 to 8) (size 9 to 14) (size 15 to 20)
#    0.000    1.333    1.333    3.600    3.733    7.467 
#    0.000    0.000    0.000    0.000    0.000    0.000 
#    0.000    0.000    0.000    0.000    0.000    0.000 
#
# Total GULP energy -334281.481497 kJ/mol
# GULP energy per Si atom -5571.358025 kJ/mol
# Density = 2.228615 g / cm^3
# Si number density = 22.336989 Si / 1000 Ang^3
#
#
#
# Elastic Constant Matrix: (Units=GPa)
#
#
# Indices 1 2 3 4 5 6 
#
# 1 41.5598 4.9032 27.2468 0.0000 0.0000 0.0000
# 2 4.9032 61.2978 29.1334 0.0000 0.0000 0.0000
# 3 27.2468 29.1334 142.9111 0.0000 0.0000 0.0000
# 4 0.0000 0.0000 0.0000 28.2069 0.0000 0.0000
# 5 0.0000 0.0000 0.0000 0.0000 11.6621 0.0000
# 6 0.0000 0.0000 0.0000 0.0000 0.0000 17.5926
#
#
#
# Elastic Compliance Matrix: (Units=1/GPa)
#
#
# Indices 1 2 3 4 5 6 
#
# 1 0.027505 0.000324 -0.005310 0.000000 0.000000 0.000000
# 2 0.000324 0.018068 -0.003745 0.000000 0.000000 0.000000
# 3 -0.005310 -0.003745 0.008773 0.000000 0.000000 0.000000
# 4 0.000000 0.000000 0.000000 0.035452 0.000000 0.000000
# 5 0.000000 0.000000 0.000000 0.000000 0.085748 0.000000
# 6 0.000000 0.000000 0.000000 0.000000 0.000000 0.056842
#
#
# Mechanical properties :
#
#
# Convention : Reuss Voigt Hill
#
# Bulk Modulus (GPa) = 27.11268 40.92617 34.01942
# Shear Modulus (GPa) = 19.07346 23.79137 21.43241
#
# Velocity S-wave (km/s) = 2.92532 3.26714 3.10095
# Velocity P-wave (km/s) = 4.85534 5.70914 5.29946
#
# Compressibility (1/GPa) = 0.03688312
#
# Stress axis : x y z
#
# Youngs Moduli (GPa) = 36.35742 55.34714 113.98430
#
# Poissons Ratio (x) = -0.01791 0.60524
# Poissons Ratio (y) = -0.01176 0.42686
# Poissons Ratio (z) = 0.19305 0.20727
#
# Static dielectric constant tensor:
#      x y z
#    x 2.022560 0.000000 0.000000 
#    y 0.000000 1.919380 0.000000 
#    z 0.000000 0.000000 1.885340 
# 
# From -- ./inp_files/32463.got.cif
#   From: 2010.05.17/outbox.cif.g08.bks.cpg/sg73_17_cif.got.tgz:32463.got - 2010.06.03 17:35:07.
