data_PCOD9532409
_publ_section_title
;
Structure prediction by ZEFSAII (Michael W. Deem and Ramdas Pophale) SiO2 
 PCOD9532409
Probable space group: I B C A 
;
_chemical_formula_sum "Si O2"
_cell_formula_units_Z 72
_cell_length_a 14.009763
_cell_length_b 19.362097
_cell_length_c 11.686452
_cell_angle_alpha 90.000000
_cell_angle_beta 90.000000
_cell_angle_gamma 90.000000
_cell_volume 3170.048156
_symmetry_space_group_name_H-M "I B C A "
_symmetry_group_IT_number 73
_symmetry_cell_setting 'orthorhombic'
loop_
_space_group_symop_operation_xyz
x,y,z
-x,1/2-y,z
x,-y,1/2-z
1/2-x,y,-z
-x,-y,-z
x,1/2+y,-z
-x,y,1/2+z
1/2+x,-y,z
1/2+x,1/2+y,1/2+z
1/2-x,-y,1/2+z
1/2+x,1/2-y,-z
-x,1/2+y,1/2-z
1/2-x,1/2-y,1/2-z
1/2+x,y,1/2-z
1/2-x,1/2+y,z
x,1/2-y,1/2+z
loop_
_atom_site_type_symbol
_atom_site_label
_atom_site_fract_x
_atom_site_fract_y
_atom_site_fract_z
Si Si1 0.637983 0.617707 0.734628
Si Si2 0.857173 0.681781 0.028599
Si Si3 0.290314 0.500000 0.750000
Si Si4 0.574922 0.108436 0.815973
Si Si5 0.298957 0.329857 0.614213
O O1 0.613198 0.634789 0.865355
O O2 0.715937 0.558585 0.712648
O O3 0.537435 0.596563 0.683653
O O4 0.702077 0.682282 0.689408
O O5 0.849631 0.760749 0.067941
O O6 0.750000 0.659761 0.000000
O O7 0.911657 0.666144 0.912653
O O8 0.362010 0.460746 0.837280
O O9 0.621477 0.134350 0.695449
O O10 0.250000 0.363230 0.500000
#
# Coordination Sequence:
#
# PCOD9532409 Si02
#       5
#    16  16   8  16  16
#     4  11  24  45  70 104 136 184 237 283 345 416
#     4  11  22  46  69  94 144 188 216 289 350 406
#     4  10  22  48  70  92 142 182 224 300 344 392
#     4  11  25  46  69 106 138 180 243 280 343 422
#     4  10  24  43  67  99 144 181 217 285 351 404
#
# _framework density 22.712589999999999
#
# number of rings (size 3 to 8) (size 9 to 14) (size 15 to 20)
#    0.000    1.333    4.444    1.333    6.222    0.889 
#   20.000    2.222    0.000    0.000    0.000    0.000 
#    0.000    0.000    0.000    0.000    0.000    0.000 
#
# Total GULP energy -200467.151073 kJ/mol
# GULP energy per Si atom -5568.531974 kJ/mol
# Density = 2.266089 g / cm^3
# Si number density = 22.712590 Si / 1000 Ang^3
#
#
#
# Elastic Constant Matrix: (Units=GPa)
#
#
# Indices 1 2 3 4 5 6 
#
# 1 172.9626 41.1680 3.2474 0.0000 0.0000 0.0000
# 2 41.1680 87.6203 27.4285 0.0000 0.0000 0.0000
# 3 3.2474 27.4285 64.8578 0.0000 0.0000 0.0000
# 4 0.0000 0.0000 0.0000 6.3960 0.0000 0.0000
# 5 0.0000 0.0000 0.0000 0.0000 15.2388 0.0000
# 6 0.0000 0.0000 0.0000 0.0000 0.0000 18.2509
#
#
#
# Elastic Compliance Matrix: (Units=1/GPa)
#
#
# Indices 1 2 3 4 5 6 
#
# 1 0.006580 -0.003445 0.001127 0.000000 0.000000 0.000000
# 2 -0.003445 0.014957 -0.006153 0.000000 0.000000 0.000000
# 3 0.001127 -0.006153 0.017964 0.000000 0.000000 0.000000
# 4 0.000000 0.000000 0.000000 0.156347 0.000000 0.000000
# 5 0.000000 0.000000 0.000000 0.000000 0.065622 0.000000
# 6 0.000000 0.000000 0.000000 0.000000 0.000000 0.054792
#
#
# Mechanical properties :
#
#
# Convention : Reuss Voigt Hill
#
# Bulk Modulus (GPa) = 44.32431 52.12539 48.22485
# Shear Modulus (GPa) = 14.67464 24.88359 19.77912
#
# Velocity S-wave (km/s) = 2.54461 3.31355 2.95421
# Velocity P-wave (km/s) = 5.30953 6.13509 5.73718
#
# Compressibility (1/GPa) = 0.02256098
#
# Stress axis : x y z
#
# Youngs Moduli (GPa) = 151.96863 66.85630 55.66672
#
# Poissons Ratio (x) = 0.23029 -0.06275
# Poissons Ratio (y) = 0.52347 0.34252
# Poissons Ratio (z) = -0.17131 0.41137
#
# Static dielectric constant tensor:
#      x y z
#    x 1.428260 0.000000 0.000000 
#    y 0.000000 2.064410 0.000000 
#    z 0.000000 0.000000 1.869960 
# 
# From -- ./inp_files/10649.got.cif
#   From: 2010.05.17/outbox.cif.g08.bks.cpg/sg73_6_cif.got.tgz:10649.got - 2010.06.03 17:35:07.
