data_PCOD9532446
_publ_section_title
;
Structure prediction by ZEFSAII (Michael W. Deem and Ramdas Pophale) SiO2 
 PCOD9532446
Probable space group: I B C A 
;
_chemical_formula_sum "Si O2"
_cell_formula_units_Z 96
_cell_length_a 13.740630
_cell_length_b 14.550249
_cell_length_c 23.116901
_cell_angle_alpha 90.000000
_cell_angle_beta 90.000000
_cell_angle_gamma 90.000000
_cell_volume 4621.752491
_symmetry_space_group_name_H-M "I B C A "
_symmetry_group_IT_number 73
_symmetry_cell_setting 'orthorhombic'
loop_
_space_group_symop_operation_xyz
x,y,z
-x,1/2-y,z
x,-y,1/2-z
1/2-x,y,-z
-x,-y,-z
x,1/2+y,-z
-x,y,1/2+z
1/2+x,-y,z
1/2+x,1/2+y,1/2+z
1/2-x,-y,1/2+z
1/2+x,1/2-y,-z
-x,1/2+y,1/2-z
1/2-x,1/2-y,1/2-z
1/2+x,y,1/2-z
1/2-x,1/2+y,z
x,1/2-y,1/2+z
loop_
_atom_site_type_symbol
_atom_site_label
_atom_site_fract_x
_atom_site_fract_y
_atom_site_fract_z
Si Si1 0.824856 0.401819 0.552694
Si Si2 0.176388 0.298302 0.609805
Si Si3 0.506507 0.597728 0.280870
Si Si4 0.363111 0.760615 0.737740
Si Si5 0.366559 0.583219 0.893373
Si Si6 0.965896 0.355110 0.011699
O O1 0.750000 0.412981 0.500000
O O2 0.810850 0.302803 0.582287
O O3 0.817741 0.483654 0.598580
O O4 0.934930 0.406022 0.528212
O O5 0.123693 0.290375 0.671279
O O6 0.280589 0.345000 0.619157
O O7 0.110688 0.354738 0.564430
O O8 0.493112 0.500000 0.250000
O O9 0.583493 0.663967 0.248146
O O10 0.410277 0.660881 0.278264
O O11 0.551829 0.583483 0.344103
O O12 0.250000 0.750000 0.750000
O O13 0.414197 0.610686 0.954247
O O14 0.000000 0.250000 0.002848
#
# Coordination Sequence:
#
# PCOD9532446 Si02
#       6
#    16  16  16  16  16  16
#     4  11  24  42  66 103 140 181 228 289 357 426
#     4  11  23  44  69  98 141 181 230 293 351 428
#     4  11  27  46  71 101 138 183 241 289 352 425
#     4  11  25  48  70 100 139 187 237 292 356 416
#     4  12  24  44  69 100 139 177 236 287 346 426
#     4  10  23  39  69  99 135 179 223 283 365 414
#
# _framework density 20.771341
#
# number of rings (size 3 to 8) (size 9 to 14) (size 15 to 20)
#    0.000    1.000    1.667    5.000   11.667    2.000 
#    3.000    0.000    0.000    0.000    0.000    0.000 
#    0.000    0.000    0.000    0.000    0.000    0.000 
#
# Total GULP energy -268552.461951 kJ/mol
# GULP energy per Si atom -5594.842957 kJ/mol
# Density = 2.072406 g / cm^3
# Si number density = 20.771341 Si / 1000 Ang^3
#
#
#
# Elastic Constant Matrix: (Units=GPa)
#
#
# Indices 1 2 3 4 5 6 
#
# 1 98.7018 35.9652 21.3465 0.0000 0.0000 0.0000
# 2 35.9652 77.0456 16.6100 0.0000 0.0000 0.0000
# 3 21.3465 16.6100 117.8256 0.0000 0.0000 0.0000
# 4 0.0000 0.0000 0.0000 17.8401 0.0000 0.0000
# 5 0.0000 0.0000 0.0000 0.0000 38.8412 0.0000
# 6 0.0000 0.0000 0.0000 0.0000 0.0000 10.3702
#
#
#
# Elastic Compliance Matrix: (Units=1/GPa)
#
#
# Indices 1 2 3 4 5 6 
#
# 1 0.012454 -0.005494 -0.001482 0.000000 0.000000 0.000000
# 2 -0.005494 0.015810 -0.001233 0.000000 0.000000 0.000000
# 3 -0.001482 -0.001233 0.008929 0.000000 0.000000 0.000000
# 4 0.000000 0.000000 0.000000 0.056054 0.000000 0.000000
# 5 0.000000 0.000000 0.000000 0.000000 0.025746 0.000000
# 6 0.000000 0.000000 0.000000 0.000000 0.000000 0.096430
#
#
# Mechanical properties :
#
#
# Convention : Reuss Voigt Hill
#
# Bulk Modulus (GPa) = 48.13528 49.04628 48.59078
# Shear Modulus (GPa) = 20.94100 28.05373 24.49737
#
# Velocity S-wave (km/s) = 3.17861 3.67904 3.43794
# Velocity P-wave (km/s) = 6.05769 6.45839 6.26125
#
# Compressibility (1/GPa) = 0.02077478
#
# Stress axis : x y z
#
# Youngs Moduli (GPa) = 80.29585 63.25157 111.98910
#
# Poissons Ratio (x) = 0.34751 0.16594
# Poissons Ratio (y) = 0.44115 0.13812
# Poissons Ratio (z) = 0.11898 0.07801
#
# Static dielectric constant tensor:
#      x y z
#    x 1.737400 0.000000 0.000000 
#    y 0.000000 1.780370 0.000000 
#    z 0.000000 0.000000 1.726750 
# 
# From -- ./inp_files/25988.got.cif
#   From: 2010.05.17/outbox.cif.g08.bks.cpg/sg73_13_cif.got.tgz:25988.got - 2010.06.03 17:35:07.
