data_PCOD9532034
_publ_section_title
;
Structure prediction by ZEFSAII (Michael W. Deem and Ramdas Pophale) SiO2 
 PCOD9532034
Probable space group: I B C A 
;
_chemical_formula_sum "Si O2"
_cell_formula_units_Z 88
_cell_length_a 24.202619
_cell_length_b 14.453444
_cell_length_c 11.906441
_cell_angle_alpha 90.000000
_cell_angle_beta 90.000000
_cell_angle_gamma 90.000000
_cell_volume 4165.006395
_symmetry_space_group_name_H-M "I B C A "
_symmetry_group_IT_number 73
_symmetry_cell_setting 'orthorhombic'
loop_
_space_group_symop_operation_xyz
x,y,z
-x,1/2-y,z
x,-y,1/2-z
1/2-x,y,-z
-x,-y,-z
x,1/2+y,-z
-x,y,1/2+z
1/2+x,-y,z
1/2+x,1/2+y,1/2+z
1/2-x,-y,1/2+z
1/2+x,1/2-y,-z
-x,1/2+y,1/2-z
1/2-x,1/2-y,1/2-z
1/2+x,y,1/2-z
1/2-x,1/2+y,z
x,1/2-y,1/2+z
loop_
_atom_site_type_symbol
_atom_site_label
_atom_site_fract_x
_atom_site_fract_y
_atom_site_fract_z
Si Si1 0.650347 0.356542 0.236177
Si Si2 0.997302 0.402020 0.939241
Si Si3 0.700946 0.242438 0.415837
Si Si4 0.066296 0.000000 0.750000
Si Si5 0.089615 0.752455 0.054276
Si Si6 0.747008 0.452284 0.127236
O O1 0.697132 0.309832 0.310531
O O2 0.609515 0.425714 0.302282
O O3 0.614042 0.279164 0.174549
O O4 0.684270 0.413641 0.142259
O O5 0.972915 0.433754 0.820437
O O6 0.951956 0.329242 0.984975
O O7 0.054249 0.345855 0.936979
O O8 0.000000 0.500000 0.000000
O O9 0.750000 0.268062 0.500000
O O10 0.641932 0.255708 0.473969
O O11 0.713001 0.136738 0.382227
O O12 0.757748 0.500000 0.250000
O O13 0.750000 0.497020 0.000000
#
# Coordination Sequence:
#
# PCOD9532034 Si02
#       6
#    16  16  16   8  16  16
#     4  11  21  42  63  97 137 189 229 299 372 433
#     4  10  22  42  68  95 128 180 240 303 372 438
#     4  11  23  41  66  99 141 185 238 292 368 449
#     4  10  22  40  68  94 134 176 246 304 366 442
#     4  10  22  42  65  96 139 178 233 312 366 441
#     4  11  23  43  66 101 149 192 248 298 358 449
#
# _framework density 21.128419000000001
#
# number of rings (size 3 to 8) (size 9 to 14) (size 15 to 20)
#    0.000    1.455    4.545    1.636    0.000    2.182 
#    3.273    3.636    0.000    0.000    0.000    0.000 
#    0.000    0.000    0.000    0.000    0.000    0.000 
#
# Total GULP energy -245161.573173 kJ/mol
# GULP energy per Si atom -5571.853936 kJ/mol
# Density = 2.108033 g / cm^3
# Si number density = 21.128419 Si / 1000 Ang^3
#
#
#
# Elastic Constant Matrix: (Units=GPa)
#
#
# Indices 1 2 3 4 5 6 
#
# 1 139.4813 68.0231 46.3298 0.0000 0.0000 0.0000
# 2 68.0231 131.8734 55.3381 0.0000 0.0000 0.0000
# 3 46.3298 55.3381 99.1820 0.0000 0.0000 0.0000
# 4 0.0000 0.0000 0.0000 35.5011 0.0000 0.0000
# 5 0.0000 0.0000 0.0000 0.0000 35.5565 0.0000
# 6 0.0000 0.0000 0.0000 0.0000 0.0000 42.3893
#
#
#
# Elastic Compliance Matrix: (Units=1/GPa)
#
#
# Indices 1 2 3 4 5 6 
#
# 1 0.009977 -0.004166 -0.002336 0.000000 0.000000 0.000000
# 2 -0.004166 0.011641 -0.004549 0.000000 0.000000 0.000000
# 3 -0.002336 -0.004549 0.013712 0.000000 0.000000 0.000000
# 4 0.000000 0.000000 0.000000 0.028168 0.000000 0.000000
# 5 0.000000 0.000000 0.000000 0.000000 0.028124 0.000000
# 6 0.000000 0.000000 0.000000 0.000000 0.000000 0.023591
#
#
# Mechanical properties :
#
#
# Convention : Reuss Voigt Hill
#
# Bulk Modulus (GPa) = 75.59953 78.87985 77.23969
# Shear Modulus (GPa) = 35.27980 36.07910 35.67945
#
# Velocity S-wave (km/s) = 4.09073 4.13681 4.11383
# Velocity P-wave (km/s) = 7.62697 7.76094 7.69425
#
# Compressibility (1/GPa) = 0.01322760
#
# Stress axis : x y z
#
# Youngs Moduli (GPa) = 100.22936 85.90435 72.93045
#
# Poissons Ratio (x) = 0.35789 0.17037
# Poissons Ratio (y) = 0.41757 0.33175
# Poissons Ratio (z) = 0.23414 0.39077
#
# Static dielectric constant tensor:
#      x y z
#    x 1.789210 0.000000 0.000000 
#    y 0.000000 1.806330 0.000000 
#    z 0.000000 0.000000 1.863320 
# 
# From -- ./inp_files/13498.got.cif
#   From: 2010.05.17/outbox.cif.g08.bks.cpg/sg73_7_cif.got.tgz:13498.got - 2010.06.03 17:35:07.
