data_PCOD9532683
_publ_section_title
;
Structure prediction by ZEFSAII (Michael W. Deem and Ramdas Pophale) SiO2 
 PCOD9532683
Probable space group: I B C A 
;
_chemical_formula_sum "Si O2"
_cell_formula_units_Z 96
_cell_length_a 20.565155
_cell_length_b 14.008616
_cell_length_c 14.375146
_cell_angle_alpha 90.000000
_cell_angle_beta 90.000000
_cell_angle_gamma 90.000000
_cell_volume 4141.326602
_symmetry_space_group_name_H-M "I B C A "
_symmetry_group_IT_number 73
_symmetry_cell_setting 'orthorhombic'
loop_
_space_group_symop_operation_xyz
x,y,z
-x,1/2-y,z
x,-y,1/2-z
1/2-x,y,-z
-x,-y,-z
x,1/2+y,-z
-x,y,1/2+z
1/2+x,-y,z
1/2+x,1/2+y,1/2+z
1/2-x,-y,1/2+z
1/2+x,1/2-y,-z
-x,1/2+y,1/2-z
1/2-x,1/2-y,1/2-z
1/2+x,y,1/2-z
1/2-x,1/2+y,z
x,1/2-y,1/2+z
loop_
_atom_site_type_symbol
_atom_site_label
_atom_site_fract_x
_atom_site_fract_y
_atom_site_fract_z
Si Si1 0.106969 0.177083 0.455105
Si Si2 0.326770 0.773337 0.767865
Si Si3 0.015565 0.522556 0.641825
Si Si4 0.368728 0.924382 0.323670
Si Si5 0.896868 0.862377 0.911967
Si Si6 0.819985 0.485331 0.515110
O O1 0.160373 0.183085 0.371095
O O2 0.049981 0.116198 0.403239
O O3 0.097690 0.278500 0.508953
O O4 0.133710 0.103992 0.532611
O O5 0.250000 0.750000 0.750000
O O6 0.367672 0.676646 0.778127
O O7 0.364206 0.824212 0.682912
O O8 0.033194 0.500000 0.750000
O O9 0.035235 0.421369 0.594828
O O10 0.939394 0.545887 0.640215
O O11 0.317683 0.935105 0.405487
O O12 0.346384 0.000000 0.250000
O O13 0.850069 0.952131 0.933941
O O14 0.750000 0.445362 0.500000
#
# Coordination Sequence:
#
# PCOD9532683 Si02
#       6
#    16  16  16  16  16  16
#     4  11  25  44  73 106 137 195 243 306 369 443
#     4  12  26  45  73 106 146 190 244 302 370 442
#     4  10  23  50  73 103 150 187 249 304 377 447
#     4  11  25  48  72 105 141 192 239 304 368 438
#     4  11  24  46  73 105 141 195 246 302 374 442
#     4  11  25  44  67 102 145 185 242 301 369 446
#
# _framework density 23.180978
#
# number of rings (size 3 to 8) (size 9 to 14) (size 15 to 20)
#    0.000    1.000    3.333    2.000    4.667    3.333 
#    3.000    3.333    0.000    0.000    0.000    0.000 
#    0.000    0.000    0.000    0.000    0.000    0.000 
#
# Total GULP energy -267546.404458 kJ/mol
# GULP energy per Si atom -5573.883426 kJ/mol
# Density = 2.312822 g / cm^3
# Si number density = 23.180978 Si / 1000 Ang^3
#
#
#
# Elastic Constant Matrix: (Units=GPa)
#
#
# Indices 1 2 3 4 5 6 
#
# 1 66.8229 31.9488 27.0243 0.0000 0.0000 0.0000
# 2 31.9488 136.8046 37.9884 0.0000 0.0000 0.0000
# 3 27.0243 37.9884 76.9993 0.0000 0.0000 0.0000
# 4 0.0000 0.0000 0.0000 56.2331 0.0000 0.0000
# 5 0.0000 0.0000 0.0000 0.0000 25.6602 0.0000
# 6 0.0000 0.0000 0.0000 0.0000 0.0000 12.9368
#
#
#
# Elastic Compliance Matrix: (Units=1/GPa)
#
#
# Indices 1 2 3 4 5 6 
#
# 1 0.018381 -0.002898 -0.005021 0.000000 0.000000 0.000000
# 2 -0.002898 0.008927 -0.003387 0.000000 0.000000 0.000000
# 3 -0.005021 -0.003387 0.016420 0.000000 0.000000 0.000000
# 4 0.000000 0.000000 0.000000 0.017783 0.000000 0.000000
# 5 0.000000 0.000000 0.000000 0.000000 0.038971 0.000000
# 6 0.000000 0.000000 0.000000 0.000000 0.000000 0.077299
#
#
# Mechanical properties :
#
#
# Convention : Reuss Voigt Hill
#
# Bulk Modulus (GPa) = 47.35865 52.72776 50.04320
# Shear Modulus (GPa) = 24.10406 31.21036 27.65721
#
# Velocity S-wave (km/s) = 3.22812 3.67328 3.45787
# Velocity P-wave (km/s) = 5.86248 6.38641 6.13004
#
# Compressibility (1/GPa) = 0.02111547
#
# Stress axis : x y z
#
# Youngs Moduli (GPa) = 54.40290 112.01861 60.89955
#
# Poissons Ratio (x) = 0.32467 0.30580
# Poissons Ratio (y) = 0.15768 0.20627
# Poissons Ratio (z) = 0.27318 0.37941
#
# Static dielectric constant tensor:
#      x y z
#    x 1.901760 0.000000 0.000000 
#    y 0.000000 1.746750 0.000000 
#    z 0.000000 0.000000 1.997580 
# 
# From -- ./inp_files/18609.got.cif
#   From: 2010.05.17/outbox.cif.g08.bks.cpg/sg73_10_cif.got.tgz:18609.got - 2010.06.03 17:35:07.
