data_PCOD9532496
_publ_section_title
;
Structure prediction by ZEFSAII (Michael W. Deem and Ramdas Pophale) SiO2 
 PCOD9532496
Probable space group: I B C A 
;
_chemical_formula_sum "Si O2"
_cell_formula_units_Z 88
_cell_length_a 23.251042
_cell_length_b 5.223764
_cell_length_c 32.166115
_cell_angle_alpha 90.000000
_cell_angle_beta 90.000000
_cell_angle_gamma 90.000000
_cell_volume 3906.830586
_symmetry_space_group_name_H-M "I B C A "
_symmetry_group_IT_number 73
_symmetry_cell_setting 'orthorhombic'
loop_
_space_group_symop_operation_xyz
x,y,z
-x,1/2-y,z
x,-y,1/2-z
1/2-x,y,-z
-x,-y,-z
x,1/2+y,-z
-x,y,1/2+z
1/2+x,-y,z
1/2+x,1/2+y,1/2+z
1/2-x,-y,1/2+z
1/2+x,1/2-y,-z
-x,1/2+y,1/2-z
1/2-x,1/2-y,1/2-z
1/2+x,y,1/2-z
1/2-x,1/2+y,z
x,1/2-y,1/2+z
loop_
_atom_site_type_symbol
_atom_site_label
_atom_site_fract_x
_atom_site_fract_y
_atom_site_fract_z
Si Si1 0.714198 0.215787 0.681264
Si Si2 0.152477 0.000000 0.250000
Si Si3 0.315028 0.740469 0.982585
Si Si4 0.063651 0.637394 0.385145
Si Si5 0.865162 0.654339 0.103109
Si Si6 0.564961 0.329139 0.289145
O O1 0.765373 0.424266 0.676719
O O2 0.689572 0.286845 0.726634
O O3 0.669031 0.275214 0.644909
O O4 0.110281 0.101849 0.214195
O O5 0.320536 0.825067 0.935159
O O6 0.250000 0.707965 0.000000
O O7 0.342811 0.465421 0.990351
O O8 0.086146 0.372669 0.404793
O O9 0.064302 0.570044 0.335697
O O10 0.000000 0.750000 0.394793
O O11 0.107045 0.873272 0.393535
O O12 0.500000 0.250000 0.280233
O O13 0.581820 0.500000 0.250000
#
# Coordination Sequence:
#
# PCOD9532496 Si02
#       6
#    16   8  16  16  16  16
#     4  12  28  43  64  92 135 190 232 283 332 417
#     4  12  24  44  58  90 134 186 234 282 350 388
#     4  10  23  41  70 105 135 171 217 284 341 414
#     4  11  25  44  71 105 138 183 234 283 347 419
#     4  12  24  46  73 101 142 181 221 287 357 403
#     4  11  23  38  65  95 131 178 241 302 347 392
#
# _framework density 22.524654999999999
#
# number of rings (size 3 to 8) (size 9 to 14) (size 15 to 20)
#    0.000    0.727    2.727    4.364    7.636    0.000 
#    0.000    0.000    0.000   10.909    0.000    0.000 
#    0.000    0.000    0.000    0.000    0.000    0.000 
#
# Total GULP energy -245859.351470 kJ/mol
# GULP energy per Si atom -5587.712533 kJ/mol
# Density = 2.247339 g / cm^3
# Si number density = 22.524655 Si / 1000 Ang^3
#
#
#
# Elastic Constant Matrix: (Units=GPa)
#
#
# Indices 1 2 3 4 5 6 
#
# 1 76.1219 6.2161 25.1981 0.0000 0.0000 0.0000
# 2 6.2161 85.7834 -3.3316 0.0000 0.0000 0.0000
# 3 25.1981 -3.3316 71.0535 0.0000 0.0000 0.0000
# 4 0.0000 0.0000 0.0000 27.8933 0.0000 0.0000
# 5 0.0000 0.0000 0.0000 0.0000 -282.4240 0.0000
# 6 0.0000 0.0000 0.0000 0.0000 0.0000 -46.7276
#
#
#
# Elastic Compliance Matrix: (Units=1/GPa)
#
#
# Indices 1 2 3 4 5 6 
#
# 1 0.015027 -0.001298 -0.005390 0.000000 0.000000 0.000000
# 2 -0.001298 0.011791 0.001013 0.000000 0.000000 0.000000
# 3 -0.005390 0.001013 0.016033 0.000000 0.000000 0.000000
# 4 0.000000 0.000000 0.000000 0.035851 0.000000 0.000000
# 5 0.000000 0.000000 0.000000 0.000000 -0.003541 0.000000
# 6 0.000000 0.000000 0.000000 0.000000 0.000000 -0.021401
#
#
# Mechanical properties :
#
#
# Convention : Reuss Voigt Hill
#
# Bulk Modulus (GPa) = 31.74537 32.12490 31.93514
# Shear Modulus (GPa) = 66.12853 -46.59324 9.76764
#
# Velocity S-wave (km/s) = 5.42421 -4.55306 2.08467
# Velocity P-wave (km/s) = 7.30435 3.65341 4.47248
#
# Compressibility (1/GPa) = 0.03150066
#
# Stress axis : x y z
#
# Youngs Moduli (GPa) = 66.54667 84.81270 62.37180
#
# Poissons Ratio (x) = 0.11011 0.33618
# Poissons Ratio (y) = 0.08639 -0.06320
# Poissons Ratio (z) = 0.35869 -0.08594
#
# Static dielectric constant tensor:
#      x y z
#    x 1.785180 0.000000 0.000000 
#    y 0.000000 1.908480 0.000000 
#    z 0.000000 0.000000 1.912850 
# 
# From -- ./inp_files/2272.got.cif
#   From: 2010.05.17/outbox.cif.g08.bks.cpg/sg73_2_cif.got.tgz:2272.got - 2010.06.03 17:35:07.
