data_PCOD9532927
_publ_section_title
;
Structure prediction by ZEFSAII (Michael W. Deem and Ramdas Pophale) SiO2 
 PCOD9532927
Probable space group: I B C A 
;
_chemical_formula_sum "Si O2"
_cell_formula_units_Z 88
_cell_length_a 11.158339
_cell_length_b 10.745625
_cell_length_c 30.218955
_cell_angle_alpha 90.000000
_cell_angle_beta 90.000000
_cell_angle_gamma 90.000000
_cell_volume 3623.353228
_symmetry_space_group_name_H-M "I B C A "
_symmetry_group_IT_number 73
_symmetry_cell_setting 'orthorhombic'
loop_
_space_group_symop_operation_xyz
x,y,z
-x,1/2-y,z
x,-y,1/2-z
1/2-x,y,-z
-x,-y,-z
x,1/2+y,-z
-x,y,1/2+z
1/2+x,-y,z
1/2+x,1/2+y,1/2+z
1/2-x,-y,1/2+z
1/2+x,1/2-y,-z
-x,1/2+y,1/2-z
1/2-x,1/2-y,1/2-z
1/2+x,y,1/2-z
1/2-x,1/2+y,z
x,1/2-y,1/2+z
loop_
_atom_site_type_symbol
_atom_site_label
_atom_site_fract_x
_atom_site_fract_y
_atom_site_fract_z
Si Si1 0.150648 0.500000 0.250000
Si Si2 0.831599 0.164589 0.965780
Si Si3 0.184796 0.095685 0.177777
Si Si4 0.500000 0.750000 0.536140
Si Si5 0.981261 0.484190 0.095508
Si Si6 0.365760 0.306529 0.618290
Si Si7 0.000000 0.250000 0.236563
O O1 0.239459 0.501411 0.292584
O O2 0.072740 0.371709 0.256627
O O3 0.797723 0.248766 0.923795
O O4 0.922657 0.072898 0.941570
O O5 0.750000 0.088551 0.000000
O O6 0.890880 0.256370 0.001781
O O7 0.108913 0.037670 0.136696
O O8 0.277970 0.196734 0.158777
O O9 0.095158 0.173483 0.207868
O O10 0.512435 0.863207 0.568741
O O11 0.102943 0.549140 0.111187
O O12 0.500000 0.250000 0.624384
#
# Coordination Sequence:
#
# PCOD9532927 Si02
#       7
#     8  16  16   8  16  16   8
#     4  12  30  54  86 120 166 208 270 338 430 506
#     4  11  24  41  69  99 149 197 261 309 391 452
#     4  12  27  47  83 113 160 200 266 329 414 488
#     4  12  23  44  65 104 150 202 254 319 378 469
#     4  11  25  43  70 108 152 198 263 324 392 472
#     4  10  24  46  71 107 151 203 252 328 387 471
#     4  12  29  54  83 126 156 212 262 341 412 511
#
# _framework density 24.286897
#
# number of rings (size 3 to 8) (size 9 to 14) (size 15 to 20)
#    0.000    0.727    2.727    4.364    8.909    0.727 
#    0.000    0.000    0.000    0.000    0.000    0.000 
#    0.000    0.000    0.000    0.000    0.000    0.000 
#
# Total GULP energy -245532.035665 kJ/mol
# GULP energy per Si atom -5580.273538 kJ/mol
# Density = 2.423162 g / cm^3
# Si number density = 24.286897 Si / 1000 Ang^3
#
#
#
# Elastic Constant Matrix: (Units=GPa)
#
#
# Indices 1 2 3 4 5 6 
#
# 1 73.1604 14.2836 47.5177 0.0000 0.0000 0.0000
# 2 14.2836 91.6328 22.4772 0.0000 0.0000 0.0000
# 3 47.5177 22.4772 109.6336 0.0000 0.0000 0.0000
# 4 0.0000 0.0000 0.0000 53.5689 0.0000 0.0000
# 5 0.0000 0.0000 0.0000 0.0000 55.2900 0.0000
# 6 0.0000 0.0000 0.0000 0.0000 0.0000 19.7834
#
#
#
# Elastic Compliance Matrix: (Units=1/GPa)
#
#
# Indices 1 2 3 4 5 6 
#
# 1 0.019110 -0.000997 -0.008078 0.000000 0.000000 0.000000
# 2 -0.000997 0.011543 -0.001934 0.000000 0.000000 0.000000
# 3 -0.008078 -0.001934 0.013019 0.000000 0.000000 0.000000
# 4 0.000000 0.000000 0.000000 0.018668 0.000000 0.000000
# 5 0.000000 0.000000 0.000000 0.000000 0.018086 0.000000
# 6 0.000000 0.000000 0.000000 0.000000 0.000000 0.050547
#
#
# Mechanical properties :
#
#
# Convention : Reuss Voigt Hill
#
# Bulk Modulus (GPa) = 46.18390 49.22043 47.70217
# Shear Modulus (GPa) = 31.20883 38.40503 34.80693
#
# Velocity S-wave (km/s) = 3.58859 3.98088 3.78981
# Velocity P-wave (km/s) = 6.01896 6.43740 6.23169
#
# Compressibility (1/GPa) = 0.02165257
#
# Stress axis : x y z
#
# Youngs Moduli (GPa) = 52.32822 86.63209 76.80976
#
# Poissons Ratio (x) = 0.08640 0.62049
# Poissons Ratio (y) = 0.05219 0.14858
# Poissons Ratio (z) = 0.42272 0.16757
#
# Static dielectric constant tensor:
#      x y z
#    x 2.263110 0.000000 0.000000 
#    y 0.000000 2.016920 0.000000 
#    z 0.000000 0.000000 1.931450 
# 
# From -- ./inp_files/14726.got.cif
#   From: 2010.05.17/outbox.cif.g08.bks.cpg/sg73_8_cif.got.tgz:14726.got - 2010.06.03 17:35:07.
