data_PCOD9532882
_publ_section_title
;
Structure prediction by ZEFSAII (Michael W. Deem and Ramdas Pophale) SiO2 
 PCOD9532882
Probable space group: I B C A 
;
_chemical_formula_sum "Si O2"
_cell_formula_units_Z 120
_cell_length_a 17.342716
_cell_length_b 12.253117
_cell_length_c 27.309855
_cell_angle_alpha 90.000000
_cell_angle_beta 90.000000
_cell_angle_gamma 90.000000
_cell_volume 5803.407772
_symmetry_space_group_name_H-M "I B C A "
_symmetry_group_IT_number 73
_symmetry_cell_setting 'orthorhombic'
loop_
_space_group_symop_operation_xyz
x,y,z
-x,1/2-y,z
x,-y,1/2-z
1/2-x,y,-z
-x,-y,-z
x,1/2+y,-z
-x,y,1/2+z
1/2+x,-y,z
1/2+x,1/2+y,1/2+z
1/2-x,-y,1/2+z
1/2+x,1/2-y,-z
-x,1/2+y,1/2-z
1/2-x,1/2-y,1/2-z
1/2+x,y,1/2-z
1/2-x,1/2+y,z
x,1/2-y,1/2+z
loop_
_atom_site_type_symbol
_atom_site_label
_atom_site_fract_x
_atom_site_fract_y
_atom_site_fract_z
Si Si1 0.500000 0.250000 0.923699
Si Si2 0.716013 0.032916 0.549838
Si Si3 0.356648 0.590006 0.397054
Si Si4 0.191462 0.246890 0.203351
Si Si5 0.102598 0.030560 0.693323
Si Si6 0.428926 0.083048 0.497726
Si Si7 0.825230 0.325627 0.863010
Si Si8 0.066913 0.606605 0.839728
O O1 0.547401 0.177502 0.961111
O O2 0.555584 0.315845 0.887043
O O3 0.750000 0.080611 0.500000
O O4 0.775671 0.957462 0.580848
O O5 0.644719 0.965887 0.529420
O O6 0.687035 0.129596 0.583185
O O7 0.407285 0.608011 0.446129
O O8 0.356096 0.703104 0.367436
O O9 0.389669 0.498942 0.360479
O O10 0.250000 0.250000 0.250000
O O11 0.163534 0.369041 0.189473
O O12 0.242771 0.189543 0.162240
O O13 0.114222 0.171509 0.202539
O O14 0.019188 0.073126 0.676325
O O15 0.098877 0.000000 0.750000
O O16 0.127863 0.920834 0.664793
O O17 0.500000 0.000000 0.500000
#
# Coordination Sequence:
#
# PCOD9532882 Si02
#       8
#     8  16  16  16  16  16  16  16
#     4  12  24  42  76  96 146 198 232 298 370 444
#     4  10  24  45  68 103 149 193 243 295 369 441
#     4  11  26  45  69 111 144 197 241 307 361 444
#     4  12  26  49  79 107 139 192 251 308 377 444
#     4  12  27  51  74 106 147 191 240 312 383 454
#     4  11  25  42  67 104 149 191 249 297 361 443
#     4  12  26  44  78 105 152 188 248 309 371 440
#     4  12  26  49  75 105 146 193 249 298 389 447
#
# _framework density 20.677506000000001
#
# number of rings (size 3 to 8) (size 9 to 14) (size 15 to 20)
#    0.000    0.533    5.333    1.600    3.733    3.200 
#    2.400    0.000    0.000    0.000    0.000    0.000 
#    0.000    0.000    0.000    0.000    0.000    0.000 
#
# Total GULP energy -335106.289166 kJ/mol
# GULP energy per Si atom -5585.104819 kJ/mol
# Density = 2.063044 g / cm^3
# Si number density = 20.677506 Si / 1000 Ang^3
#
#
#
# Elastic Constant Matrix: (Units=GPa)
#
#
# Indices 1 2 3 4 5 6 
#
# 1 74.5157 34.4433 23.9942 0.0000 0.0000 0.0000
# 2 34.4433 134.7746 48.7980 0.0000 0.0000 0.0000
# 3 23.9942 48.7980 63.3915 0.0000 0.0000 0.0000
# 4 0.0000 0.0000 0.0000 21.7403 0.0000 0.0000
# 5 0.0000 0.0000 0.0000 0.0000 35.4920 0.0000
# 6 0.0000 0.0000 0.0000 0.0000 0.0000 25.5614
#
#
#
# Elastic Compliance Matrix: (Units=1/GPa)
#
#
# Indices 1 2 3 4 5 6 
#
# 1 0.015921 -0.002616 -0.004013 0.000000 0.000000 0.000000
# 2 -0.002616 0.010717 -0.007259 0.000000 0.000000 0.000000
# 3 -0.004013 -0.007259 0.022882 0.000000 0.000000 0.000000
# 4 0.000000 0.000000 0.000000 0.045997 0.000000 0.000000
# 5 0.000000 0.000000 0.000000 0.000000 0.028175 0.000000
# 6 0.000000 0.000000 0.000000 0.000000 0.000000 0.039121
#
#
# Mechanical properties :
#
#
# Convention : Reuss Voigt Hill
#
# Bulk Modulus (GPa) = 45.98973 54.12811 50.05892
# Shear Modulus (GPa) = 25.27316 27.58851 26.43083
#
# Velocity S-wave (km/s) = 3.49987 3.65667 3.57913
# Velocity P-wave (km/s) = 6.21464 6.63796 6.42978
#
# Compressibility (1/GPa) = 0.02174398
#
# Stress axis : x y z
#
# Youngs Moduli (GPa) = 62.80914 93.31135 43.70246
#
# Poissons Ratio (x) = 0.24411 0.17536
# Poissons Ratio (y) = 0.16431 0.31726
# Poissons Ratio (z) = 0.25202 0.67739
#
# Static dielectric constant tensor:
#      x y z
#    x 1.681450 0.000000 0.000000 
#    y 0.000000 2.276290 0.000000 
#    z 0.000000 0.000000 1.703640 
# 
# From -- ./inp_files/32447.got.cif
#   From: 2010.05.17/outbox.cif.g08.bks.cpg/sg73_17_cif.got.tgz:32447.got - 2010.06.03 17:35:07.
