data_PCOD9532432
_publ_section_title
;
Structure prediction by ZEFSAII (Michael W. Deem and Ramdas Pophale) SiO2 
 PCOD9532432
Probable space group: I B C A 
;
_chemical_formula_sum "Si O2"
_cell_formula_units_Z 120
_cell_length_a 26.078338
_cell_length_b 22.078720
_cell_length_c 9.541412
_cell_angle_alpha 90.000000
_cell_angle_beta 90.000000
_cell_angle_gamma 90.000000
_cell_volume 5493.719115
_symmetry_space_group_name_H-M "I B C A "
_symmetry_group_IT_number 73
_symmetry_cell_setting 'orthorhombic'
loop_
_space_group_symop_operation_xyz
x,y,z
-x,1/2-y,z
x,-y,1/2-z
1/2-x,y,-z
-x,-y,-z
x,1/2+y,-z
-x,y,1/2+z
1/2+x,-y,z
1/2+x,1/2+y,1/2+z
1/2-x,-y,1/2+z
1/2+x,1/2-y,-z
-x,1/2+y,1/2-z
1/2-x,1/2-y,1/2-z
1/2+x,y,1/2-z
1/2-x,1/2+y,z
x,1/2-y,1/2+z
loop_
_atom_site_type_symbol
_atom_site_label
_atom_site_fract_x
_atom_site_fract_y
_atom_site_fract_z
Si Si1 0.331814 0.409417 0.482163
Si Si2 0.180146 0.133215 0.710701
Si Si3 0.452050 0.076518 0.996597
Si Si4 0.881878 0.748900 0.708538
Si Si5 0.547844 0.792741 0.049572
Si Si6 0.189893 0.047961 0.467199
Si Si7 0.796703 0.156331 0.775675
Si Si8 0.003953 0.500000 0.250000
O O1 0.313790 0.399482 0.640425
O O2 0.392849 0.405577 0.483342
O O3 0.322223 0.478738 0.439240
O O4 0.305568 0.357788 0.387975
O O5 0.139228 0.187065 0.721064
O O6 0.164732 0.081380 0.600319
O O7 0.237054 0.160497 0.681589
O O8 0.476909 0.142508 0.988248
O O9 0.463484 0.042434 0.143199
O O10 0.470156 0.037818 0.862115
O O11 0.916270 0.730458 0.576847
O O12 0.831191 0.788084 0.673710
O O13 0.916394 0.788704 0.813207
O O14 0.500000 0.750000 0.074765
O O15 0.250000 0.048456 0.500000
O O16 0.181159 0.094480 0.342280
#
# Coordination Sequence:
#
# PCOD9532432 Si02
#       8
#    16  16  16  16  16  16  16   8
#     4  12  23  39  66  98 132 176 227 272 341 403
#     4  11  23  41  66  98 138 179 224 280 336 409
#     4  11  26  49  72 105 135 179 226 287 345 418
#     4  12  24  46  66 102 132 180 232 278 352 410
#     4  12  28  45  72  99 133 180 232 291 346 406
#     4  10  23  39  61  96 134 178 220 265 331 397
#     4  11  23  41  66  98 138 179 224 280 336 409
#     4  10  28  50  74 102 138 178 228 288 360 402
#
# _framework density 21.843126000000002
#
# number of rings (size 3 to 8) (size 9 to 14) (size 15 to 20)
#    0.000    0.800    2.667    3.600    7.467    2.133 
#    4.800    4.000    0.000    0.000    0.000    0.000 
#    0.000    0.000    0.000    0.000    0.000    0.000 
#
# Total GULP energy -335312.841375 kJ/mol
# GULP energy per Si atom -5588.547356 kJ/mol
# Density = 2.179341 g / cm^3
# Si number density = 21.843126 Si / 1000 Ang^3
#
#
#
# Elastic Constant Matrix: (Units=GPa)
#
#
# Indices 1 2 3 4 5 6 
#
# 1 51.6367 -13.6340 -10.6146 0.0000 0.0000 0.0000
# 2 -13.6340 59.0182 -10.7670 0.0000 0.0000 0.0000
# 3 -10.6146 -10.7670 89.6778 0.0000 0.0000 0.0000
# 4 0.0000 0.0000 0.0000 21.6045 0.0000 0.0000
# 5 0.0000 0.0000 0.0000 0.0000 12.3173 0.0000
# 6 0.0000 0.0000 0.0000 0.0000 0.0000 39.0945
#
#
#
# Elastic Compliance Matrix: (Units=1/GPa)
#
#
# Indices 1 2 3 4 5 6 
#
# 1 0.021492 0.005550 0.003210 0.000000 0.000000 0.000000
# 2 0.005550 0.018757 0.002909 0.000000 0.000000 0.000000
# 3 0.003210 0.002909 0.011880 0.000000 0.000000 0.000000
# 4 0.000000 0.000000 0.000000 0.046287 0.000000 0.000000
# 5 0.000000 0.000000 0.000000 0.000000 0.081187 0.000000
# 6 0.000000 0.000000 0.000000 0.000000 0.000000 0.025579
#
#
# Mechanical properties :
#
#
# Convention : Reuss Voigt Hill
#
# Bulk Modulus (GPa) = 13.25063 14.47793 13.86428
# Shear Modulus (GPa) = 24.15485 30.29313 27.22399
#
# Velocity S-wave (km/s) = 3.32901 3.72808 3.53419
# Velocity P-wave (km/s) = 4.56682 5.01737 4.79739
#
# Compressibility (1/GPa) = 0.07546811
#
# Stress axis : x y z
#
# Youngs Moduli (GPa) = 46.53000 53.31375 84.17315
#
# Poissons Ratio (x) = -0.29592 -0.27021
# Poissons Ratio (y) = -0.25826 -0.24486
# Poissons Ratio (z) = -0.14937 -0.15509
#
# Static dielectric constant tensor:
#      x y z
#    x 1.855570 0.000000 0.000000 
#    y 0.000000 1.871150 0.000000 
#    z 0.000000 0.000000 1.708770 
# 
# From -- ./inp_files/8570.got.cif
#   From: 2010.05.17/outbox.cif.g08.bks.cpg/sg73_5_cif.got.tgz:8570.got - 2010.06.03 17:35:07.
