data_PCOD9532754
_publ_section_title
;
Structure prediction by ZEFSAII (Michael W. Deem and Ramdas Pophale) SiO2 
 PCOD9532754
Probable space group: I B C A 
;
_chemical_formula_sum "Si O2"
_cell_formula_units_Z 56
_cell_length_a 9.148228
_cell_length_b 25.765394
_cell_length_c 9.327107
_cell_angle_alpha 90.000000
_cell_angle_beta 90.000000
_cell_angle_gamma 90.000000
_cell_volume 2198.470928
_symmetry_space_group_name_H-M "I B C A "
_symmetry_group_IT_number 73
_symmetry_cell_setting 'orthorhombic'
loop_
_space_group_symop_operation_xyz
x,y,z
-x,1/2-y,z
x,-y,1/2-z
1/2-x,y,-z
-x,-y,-z
x,1/2+y,-z
-x,y,1/2+z
1/2+x,-y,z
1/2+x,1/2+y,1/2+z
1/2-x,-y,1/2+z
1/2+x,1/2-y,-z
-x,1/2+y,1/2-z
1/2-x,1/2-y,1/2-z
1/2+x,y,1/2-z
1/2-x,1/2+y,z
x,1/2-y,1/2+z
loop_
_atom_site_type_symbol
_atom_site_label
_atom_site_fract_x
_atom_site_fract_y
_atom_site_fract_z
Si Si1 0.250000 0.988083 0.000000
Si Si2 0.071415 0.863253 0.353220
Si Si3 0.965311 0.569141 0.618890
Si Si4 0.707871 0.197794 0.832527
O O1 0.379035 0.954531 0.930290
O O2 0.162321 0.027406 0.896288
O O3 0.078860 0.882063 0.516769
O O4 0.208970 0.847547 0.256157
O O5 0.992905 0.911805 0.278065
O O6 0.962866 0.814964 0.335881
O O7 0.750000 0.250000 0.750000
O O8 0.750000 0.199336 0.000000
#
# Coordination Sequence:
#
# PCOD9532754 Si02
#       4
#     8  16  16  16
#     4  10  24  42  66 104 142 180 240 288 340 400
#     4  12  25  47  72 102 146 186 232 285 355 412
#     4  11  24  42  69 100 140 190 229 290 342 411
#     4  12  28  47  73 107 141 180 234 289 349 422
#
# _framework density 25.472249000000001
#
# number of rings (size 3 to 8) (size 9 to 14) (size 15 to 20)
#    0.000    0.571    2.857    4.286    4.000    9.143 
#    0.000    0.000    0.000    0.000    0.000    0.000 
#    0.000    0.000    0.000    0.000    0.000    0.000 
#
# Total GULP energy -156990.926158 kJ/mol
# GULP energy per Si atom -5606.818791 kJ/mol
# Density = 2.541427 g / cm^3
# Si number density = 25.472249 Si / 1000 Ang^3
#
#
#
# Elastic Constant Matrix: (Units=GPa)
#
#
# Indices 1 2 3 4 5 6 
#
# 1 141.3291 33.4746 44.5037 -0.0002 0.0000 -0.0001
# 2 33.4746 93.2259 28.1284 0.0001 -0.0006 -0.0002
# 3 44.5037 28.1284 151.8104 0.0014 0.0015 0.0004
# 4 -0.0002 0.0001 0.0014 43.3026 0.0001 0.0001
# 5 0.0000 -0.0006 0.0015 0.0001 22.3525 0.0003
# 6 -0.0001 -0.0002 0.0004 0.0001 0.0003 47.7130
#
#
#
# Elastic Compliance Matrix: (Units=1/GPa)
#
#
# Indices 1 2 3 4 5 6 
#
# 1 0.008261 -0.002368 -0.001983 0.000000 0.000000 0.000000
# 2 -0.002368 0.012041 -0.001537 0.000000 0.000000 0.000000
# 3 -0.001983 -0.001537 0.007453 0.000000 -0.000001 0.000000
# 4 0.000000 0.000000 0.000000 0.023093 0.000000 0.000000
# 5 0.000000 0.000000 -0.000001 0.000000 0.044738 0.000000
# 6 0.000000 0.000000 0.000000 0.000000 0.000000 0.020959
#
#
# Mechanical properties :
#
#
# Convention : Reuss Voigt Hill
#
# Bulk Modulus (GPa) = 62.58078 66.50875 64.54477
# Shear Modulus (GPa) = 37.41218 41.35752 39.38485
#
# Velocity S-wave (km/s) = 3.83658 4.03380 3.93642
# Velocity P-wave (km/s) = 6.65186 6.91826 6.78637
#
# Compressibility (1/GPa) = 0.01597935
#
# Stress axis : x y z
#
# Youngs Moduli (GPa) = 121.05100 83.05246 134.17005
#
# Poissons Ratio (x) = 0.19666 0.26606
# Poissons Ratio (y) = 0.28664 0.20619
# Poissons Ratio (z) = 0.24004 0.12763
#
# Static dielectric constant tensor:
#      x y z
#    x 2.013670 0.000000 0.000000 
#    y 0.000000 2.017170 0.000000 
#    z 0.000000 0.000000 1.917620 
# 
# From -- ./inp_files/3834.got.cif
#   From: 2010.05.17/outbox.cif.g08.bks.cpg/sg73_2_cif.got.tgz:3834.got - 2010.06.03 17:35:07.
