data_PCOD9532902
_publ_section_title
;
Structure prediction by ZEFSAII (Michael W. Deem and Ramdas Pophale) SiO2 
 PCOD9532902
Probable space group: I B C A 
;
_chemical_formula_sum "Si O2"
_cell_formula_units_Z 88
_cell_length_a 18.588554
_cell_length_b 10.320049
_cell_length_c 18.840914
_cell_angle_alpha 90.000000
_cell_angle_beta 90.000000
_cell_angle_gamma 90.000000
_cell_volume 3614.342745
_symmetry_space_group_name_H-M "I B C A "
_symmetry_group_IT_number 73
_symmetry_cell_setting 'orthorhombic'
loop_
_space_group_symop_operation_xyz
x,y,z
-x,1/2-y,z
x,-y,1/2-z
1/2-x,y,-z
-x,-y,-z
x,1/2+y,-z
-x,y,1/2+z
1/2+x,-y,z
1/2+x,1/2+y,1/2+z
1/2-x,-y,1/2+z
1/2+x,1/2-y,-z
-x,1/2+y,1/2-z
1/2-x,1/2-y,1/2-z
1/2+x,y,1/2-z
1/2-x,1/2+y,z
x,1/2-y,1/2+z
loop_
_atom_site_type_symbol
_atom_site_label
_atom_site_fract_x
_atom_site_fract_y
_atom_site_fract_z
Si Si1 0.178348 0.312416 0.961490
Si Si2 0.203048 0.655041 0.698688
Si Si3 0.816127 0.500000 0.750000
Si Si4 0.566087 0.082011 0.840760
Si Si5 0.000000 0.250000 0.556202
Si Si6 0.902190 0.557331 0.518208
Si Si7 0.068737 0.000000 0.250000
O O1 0.191800 0.290031 0.878730
O O2 0.154122 0.174070 0.991367
O O3 0.250000 0.356650 0.000000
O O4 0.122079 0.428914 0.976123
O O5 0.250000 0.750000 0.750000
O O6 0.255418 0.527806 0.690119
O O7 0.124971 0.610657 0.726242
O O8 0.877347 0.400017 0.722640
O O9 0.562110 0.206516 0.890183
O O10 0.487534 0.046831 0.810261
O O11 0.590592 0.973662 0.897676
O O12 0.026455 0.371632 0.511396
#
# Coordination Sequence:
#
# PCOD9532902 Si02
#       7
#    16  16   8  16   8  16   8
#     4  12  27  48  81 114 160 206 265 326 399 480
#     4  11  25  46  74 107 150 205 258 326 388 471
#     4  10  24  46  66 102 144 188 250 314 382 456
#     4  11  24  47  73 109 148 199 259 321 394 466
#     4  12  26  42  74 104 156 196 252 334 392 464
#     4  12  26  48  74 116 150 206 258 324 399 471
#     4  10  26  46  76 108 150 202 264 324 394 480
#
# _framework density 24.347442999999998
#
# number of rings (size 3 to 8) (size 9 to 14) (size 15 to 20)
#    0.000    0.727    1.818    4.364    5.091    4.364 
#    0.000    0.000    0.000    0.000    0.000    0.000 
#    0.000    0.000    0.000    0.000    0.000    0.000 
#
# Total GULP energy -245294.428634 kJ/mol
# GULP energy per Si atom -5574.873378 kJ/mol
# Density = 2.429203 g / cm^3
# Si number density = 24.347443 Si / 1000 Ang^3
#
#
#
# Elastic Constant Matrix: (Units=GPa)
#
#
# Indices 1 2 3 4 5 6 
#
# 1 165.6185 34.8065 37.8863 0.0000 0.0000 0.0000
# 2 34.8065 118.0813 38.3002 0.0000 0.0000 0.0000
# 3 37.8863 38.3002 96.6084 0.0000 0.0000 0.0000
# 4 0.0000 0.0000 0.0000 48.0412 0.0000 0.0000
# 5 0.0000 0.0000 0.0000 0.0000 35.5241 0.0000
# 6 0.0000 0.0000 0.0000 0.0000 0.0000 40.1317
#
#
#
# Elastic Compliance Matrix: (Units=1/GPa)
#
#
# Indices 1 2 3 4 5 6 
#
# 1 0.006805 -0.001309 -0.002150 0.000000 0.000000 0.000000
# 2 -0.001309 0.009970 -0.003439 0.000000 0.000000 0.000000
# 3 -0.002150 -0.003439 0.012558 0.000000 0.000000 0.000000
# 4 0.000000 0.000000 0.000000 0.020815 0.000000 0.000000
# 5 0.000000 0.000000 0.000000 0.000000 0.028150 0.000000
# 6 0.000000 0.000000 0.000000 0.000000 0.000000 0.024918
#
#
# Mechanical properties :
#
#
# Convention : Reuss Voigt Hill
#
# Bulk Modulus (GPa) = 64.36274 66.92158 65.64216
# Shear Modulus (GPa) = 40.91974 42.69374 41.80674
#
# Velocity S-wave (km/s) = 4.10403 4.19205 4.14827
# Velocity P-wave (km/s) = 6.99642 7.13980 7.06848
#
# Compressibility (1/GPa) = 0.01553694
#
# Stress axis : x y z
#
# Youngs Moduli (GPa) = 146.95604 100.30033 79.63236
#
# Poissons Ratio (x) = 0.13124 0.17119
# Poissons Ratio (y) = 0.19229 0.27389
# Poissons Ratio (z) = 0.31593 0.34498
#
# Static dielectric constant tensor:
#      x y z
#    x 1.993770 0.000000 0.000000 
#    y 0.000000 2.167460 0.000000 
#    z 0.000000 0.000000 1.996830 
# 
# From -- ./inp_files/26452.got.cif
#   From: 2010.05.17/outbox.cif.g08.bks.cpg/sg73_14_cif.got.tgz:26452.got - 2010.06.03 17:35:07.
