data_PCOD9532394
_publ_section_title
;
Structure prediction by ZEFSAII (Michael W. Deem and Ramdas Pophale) SiO2 
 PCOD9532394
Probable space group: I B C A 
;
_chemical_formula_sum "Si O2"
_cell_formula_units_Z 104
_cell_length_a 19.325574
_cell_length_b 15.630404
_cell_length_c 15.453804
_cell_angle_alpha 90.000000
_cell_angle_beta 90.000000
_cell_angle_gamma 90.000000
_cell_volume 4668.076936
_symmetry_space_group_name_H-M "I B C A "
_symmetry_group_IT_number 73
_symmetry_cell_setting 'orthorhombic'
loop_
_space_group_symop_operation_xyz
x,y,z
-x,1/2-y,z
x,-y,1/2-z
1/2-x,y,-z
-x,-y,-z
x,1/2+y,-z
-x,y,1/2+z
1/2+x,-y,z
1/2+x,1/2+y,1/2+z
1/2-x,-y,1/2+z
1/2+x,1/2-y,-z
-x,1/2+y,1/2-z
1/2-x,1/2-y,1/2-z
1/2+x,y,1/2-z
1/2-x,1/2+y,z
x,1/2-y,1/2+z
loop_
_atom_site_type_symbol
_atom_site_label
_atom_site_fract_x
_atom_site_fract_y
_atom_site_fract_z
Si Si1 0.520635 0.500000 0.250000
Si Si2 0.331486 0.756504 0.743775
Si Si3 0.915329 0.115444 0.857596
Si Si4 0.630522 0.733420 0.556173
Si Si5 0.784905 0.493120 0.354493
Si Si6 0.000000 0.750000 0.029562
Si Si7 0.136107 0.597918 0.347404
Si Si8 0.250000 0.868437 0.500000
O O1 0.468979 0.569490 0.292380
O O2 0.572858 0.464361 0.324942
O O3 0.250000 0.750000 0.750000
O O4 0.365596 0.815134 0.813314
O O5 0.349678 0.797529 0.651319
O O6 0.361532 0.661145 0.736373
O O7 0.857124 0.047393 0.890029
O O8 0.961625 0.175980 0.917949
O O9 0.555833 0.703820 0.529826
O O10 0.627922 0.835931 0.572684
O O11 0.685520 0.696075 0.489553
O O12 0.797104 0.500000 0.250000
O O13 0.712732 0.440094 0.357483
O O14 0.765304 0.572130 0.417243
#
# Coordination Sequence:
#
# PCOD9532394 Si02
#       8
#     8  16  16  16  16   8  16   8
#     4  12  26  44  74 114 148 192 258 330 406 464
#     4  10  22  46  81 104 135 202 267 320 366 473
#     4  12  26  45  74 108 152 197 258 316 397 481
#     4  10  28  47  72 105 154 197 257 312 387 477
#     4  12  26  49  76 117 151 201 262 341 396 466
#     4  12  30  44  70 108 156 204 246 308 402 490
#     4  10  25  43  79 103 151 192 263 315 388 457
#     4  12  30  44  80 110 154 204 268 324 398 468
#
# _framework density 22.278981000000002
#
# number of rings (size 3 to 8) (size 9 to 14) (size 15 to 20)
#    0.923    0.000    3.077    1.846   10.769    0.000 
#    0.000    1.538    0.000    0.000    0.000    0.000 
#    0.000    0.000    0.000    0.000    0.000    0.000 
#
# Total GULP energy -289891.771397 kJ/mol
# GULP energy per Si atom -5574.841758 kJ/mol
# Density = 2.222827 g / cm^3
# Si number density = 22.278981 Si / 1000 Ang^3
#
#
#
# Elastic Constant Matrix: (Units=GPa)
#
#
# Indices 1 2 3 4 5 6 
#
# 1 189.7154 55.8855 55.9450 0.0000 0.0000 0.0000
# 2 55.8855 77.9839 41.5459 0.0000 0.0000 0.0000
# 3 55.9450 41.5459 85.3872 0.0000 0.0000 0.0000
# 4 0.0000 0.0000 0.0000 40.1421 0.0000 0.0000
# 5 0.0000 0.0000 0.0000 0.0000 26.1856 0.0000
# 6 0.0000 0.0000 0.0000 0.0000 0.0000 18.3009
#
#
#
# Elastic Compliance Matrix: (Units=1/GPa)
#
#
# Indices 1 2 3 4 5 6 
#
# 1 0.007203 -0.003574 -0.002980 0.000000 0.000000 0.000000
# 2 -0.003574 0.019084 -0.006944 0.000000 0.000000 0.000000
# 3 -0.002980 -0.006944 0.017042 0.000000 0.000000 0.000000
# 4 0.000000 0.000000 0.000000 0.024911 0.000000 0.000000
# 5 0.000000 0.000000 0.000000 0.000000 0.038189 0.000000
# 6 0.000000 0.000000 0.000000 0.000000 0.000000 0.054642
#
#
# Mechanical properties :
#
#
# Convention : Reuss Voigt Hill
#
# Bulk Modulus (GPa) = 61.22536 73.31549 67.27042
# Shear Modulus (GPa) = 25.83829 30.23973 28.03901
#
# Velocity S-wave (km/s) = 3.40922 3.68818 3.55144
# Velocity P-wave (km/s) = 6.56033 7.14956 6.86127
#
# Compressibility (1/GPa) = 0.01633310
#
# Stress axis : x y z
#
# Youngs Moduli (GPa) = 138.83713 52.40101 58.67691
#
# Poissons Ratio (x) = 0.18728 0.17487
# Poissons Ratio (y) = 0.49620 0.40743
# Poissons Ratio (z) = 0.41376 0.36386
#
# Static dielectric constant tensor:
#      x y z
#    x 1.783130 0.000000 0.000000 
#    y 0.000000 2.100670 0.000000 
#    z 0.000000 0.000000 1.892700 
# 
# From -- ./inp_files/22655.got.cif
#   From: 2010.05.17/outbox.cif.g08.bks.cpg/sg73_12_cif.got.tgz:22655.got - 2010.06.03 17:35:07.
