data_PCOD9532045
_publ_section_title
;
Structure prediction by ZEFSAII (Michael W. Deem and Ramdas Pophale) SiO2 
 PCOD9532045
Probable space group: I B C A 
;
_chemical_formula_sum "Si O2"
_cell_formula_units_Z 64
_cell_length_a 19.883957
_cell_length_b 17.899785
_cell_length_c 7.863483
_cell_angle_alpha 90.000000
_cell_angle_beta 90.000000
_cell_angle_gamma 90.000000
_cell_volume 2798.759509
_symmetry_space_group_name_H-M "I B C A "
_symmetry_group_IT_number 73
_symmetry_cell_setting 'orthorhombic'
loop_
_space_group_symop_operation_xyz
x,y,z
-x,1/2-y,z
x,-y,1/2-z
1/2-x,y,-z
-x,-y,-z
x,1/2+y,-z
-x,y,1/2+z
1/2+x,-y,z
1/2+x,1/2+y,1/2+z
1/2-x,-y,1/2+z
1/2+x,1/2-y,-z
-x,1/2+y,1/2-z
1/2-x,1/2-y,1/2-z
1/2+x,y,1/2-z
1/2-x,1/2+y,z
x,1/2-y,1/2+z
loop_
_atom_site_type_symbol
_atom_site_label
_atom_site_fract_x
_atom_site_fract_y
_atom_site_fract_z
Si Si1 0.091875 0.113243 0.806953
Si Si2 0.764970 0.334627 0.698237
Si Si3 0.021911 0.165565 0.128277
Si Si4 0.354379 0.424382 0.350931
O O1 0.156673 0.151476 0.729021
O O2 0.036569 0.103590 0.660288
O O3 0.045904 0.163093 0.932420
O O4 0.124749 0.059635 0.951295
O O5 0.750000 0.347812 0.500000
O O6 0.750000 0.250000 0.750000
O O7 0.717657 0.387291 0.814381
O O8 0.090193 0.135527 0.215252
O O9 0.000000 0.250000 0.159312
O O10 0.359153 0.500000 0.250000
#
# Coordination Sequence:
#
# PCOD9532045 Si02
#       4
#    16  16  16  16
#     4  10  24  40  71 101 146 184 242 299 362 434
#     4  12  26  43  73 105 141 187 249 310 370 434
#     4  10  22  40  71 102 147 191 241 295 370 429
#     4  10  25  46  68 104 148 187 245 296 371 434
#
# _framework density 22.867273000000001
#
# number of rings (size 3 to 8) (size 9 to 14) (size 15 to 20)
#    1.500    0.000    0.000    4.500    7.000    3.000 
#    0.000    1.250    0.000    0.000    0.000    0.000 
#    0.000    0.000    0.000    0.000    0.000    0.000 
#
# Total GULP energy -178202.626336 kJ/mol
# GULP energy per Si atom -5568.832073 kJ/mol
# Density = 2.281523 g / cm^3
# Si number density = 22.867273 Si / 1000 Ang^3
#
#
#
# Elastic Constant Matrix: (Units=GPa)
#
#
# Indices 1 2 3 4 5 6 
#
# 1 160.3267 4.2975 49.0271 0.0000 0.0000 0.0000
# 2 4.2975 52.2658 18.3108 0.0000 0.0000 0.0000
# 3 49.0271 18.3108 100.8872 0.0000 0.0000 0.0000
# 4 0.0000 0.0000 0.0000 4.1312 0.0000 0.0000
# 5 0.0000 0.0000 0.0000 0.0000 46.4018 0.0000
# 6 0.0000 0.0000 0.0000 0.0000 0.0000 19.4795
#
#
#
# Elastic Compliance Matrix: (Units=1/GPa)
#
#
# Indices 1 2 3 4 5 6 
#
# 1 0.007349 0.000691 -0.003697 0.000000 0.000000 0.000000
# 2 0.000691 0.020497 -0.004056 0.000000 0.000000 0.000000
# 3 -0.003697 -0.004056 0.012445 0.000000 0.000000 0.000000
# 4 0.000000 0.000000 0.000000 0.242060 0.000000 0.000000
# 5 0.000000 0.000000 0.000000 0.000000 0.021551 0.000000
# 6 0.000000 0.000000 0.000000 0.000000 0.000000 0.051336
#
#
# Mechanical properties :
#
#
# Convention : Reuss Voigt Hill
#
# Bulk Modulus (GPa) = 38.21560 50.75004 44.48282
# Shear Modulus (GPa) = 13.22456 30.12545 21.67500
#
# Velocity S-wave (km/s) = 2.40743 3.63354 3.08208
# Velocity P-wave (km/s) = 4.94731 6.31229 5.67102
#
# Compressibility (1/GPa) = 0.02616732
#
# Stress axis : x y z
#
# Youngs Moduli (GPa) = 136.06900 48.78732 80.35552
#
# Poissons Ratio (x) = -0.03371 0.29706
# Poissons Ratio (y) = -0.09400 0.32591
# Poissons Ratio (z) = 0.50302 0.19788
#
# Static dielectric constant tensor:
#      x y z
#    x 1.891550 0.000000 0.000000 
#    y 0.000000 1.762880 0.000000 
#    z 0.000000 0.000000 2.087500 
# 
# From -- ./inp_files/5941.got.cif
#   From: 2010.05.17/outbox.cif.g08.bks.cpg/sg73_3_cif.got.tgz:5941.got - 2010.06.03 17:35:07.
