data_PCOD9532070
_publ_section_title
;
Structure prediction by ZEFSAII (Michael W. Deem and Ramdas Pophale) SiO2 
 PCOD9532070
Probable space group: I B C A 
;
_chemical_formula_sum "Si O2"
_cell_formula_units_Z 96
_cell_length_a 8.665662
_cell_length_b 20.436488
_cell_length_c 22.517253
_cell_angle_alpha 90.000000
_cell_angle_beta 90.000000
_cell_angle_gamma 90.000000
_cell_volume 3987.708625
_symmetry_space_group_name_H-M "I B C A "
_symmetry_group_IT_number 73
_symmetry_cell_setting 'orthorhombic'
loop_
_space_group_symop_operation_xyz
x,y,z
-x,1/2-y,z
x,-y,1/2-z
1/2-x,y,-z
-x,-y,-z
x,1/2+y,-z
-x,y,1/2+z
1/2+x,-y,z
1/2+x,1/2+y,1/2+z
1/2-x,-y,1/2+z
1/2+x,1/2-y,-z
-x,1/2+y,1/2-z
1/2-x,1/2-y,1/2-z
1/2+x,y,1/2-z
1/2-x,1/2+y,z
x,1/2-y,1/2+z
loop_
_atom_site_type_symbol
_atom_site_label
_atom_site_fract_x
_atom_site_fract_y
_atom_site_fract_z
Si Si1 0.473831 0.483940 0.179154
Si Si2 0.797718 0.644243 0.139541
Si Si3 0.273370 0.380897 0.673419
Si Si4 0.429340 0.178166 0.517872
Si Si5 0.966142 0.109858 0.592881
Si Si6 0.951807 0.684328 0.244425
O O1 0.461115 0.500000 0.250000
O O2 0.350061 0.426796 0.164033
O O3 0.643805 0.450865 0.172255
O O4 0.462630 0.539550 0.127399
O O5 0.916837 0.659764 0.086857
O O6 0.621453 0.643110 0.119136
O O7 0.825926 0.694701 0.192686
O O8 0.401653 0.339709 0.707432
O O9 0.201311 0.360866 0.610501
O O10 0.120786 0.369447 0.713195
O O11 0.500000 0.250000 0.508347
O O12 0.250000 0.180858 0.500000
O O13 0.509386 0.122382 0.477137
O O14 0.000000 0.750000 0.276494
#
# Coordination Sequence:
#
# PCOD9532070 Si02
#       6
#    16  16  16  16  16  16
#     4  11  23  41  65  95 132 172 217 270 330 393
#     4  10  22  41  63  90 125 168 214 264 327 384
#     4  11  24  38  60  93 125 168 215 268 334 391
#     4  10  24  44  67  93 127 170 217 270 326 388
#     4  11  23  40  63  93 126 168 218 268 326 393
#     4  11  22  38  60  89 126 167 215 269 327 394
#
# _framework density 24.073975000000001
#
# number of rings (size 3 to 8) (size 9 to 14) (size 15 to 20)
#    0.000    1.333    0.000    6.000    0.000    9.333 
#    0.000    1.667    0.000    0.000    0.000    0.000 
#    0.000    0.000    0.000    0.000    0.000    0.000 
#
# Total GULP energy -267771.304482 kJ/mol
# GULP energy per Si atom -5578.568843 kJ/mol
# Density = 2.401918 g / cm^3
# Si number density = 24.073975 Si / 1000 Ang^3
#
#
#
# Elastic Constant Matrix: (Units=GPa)
#
#
# Indices 1 2 3 4 5 6 
#
# 1 86.8283 -2.9504 0.3770 0.0000 0.0000 0.0000
# 2 -2.9504 66.7535 -2.8445 0.0000 0.0000 0.0000
# 3 0.3770 -2.8445 85.0548 0.0000 0.0000 0.0000
# 4 0.0000 0.0000 0.0000 23.8857 0.0000 0.0000
# 5 0.0000 0.0000 0.0000 0.0000 27.1305 0.0000
# 6 0.0000 0.0000 0.0000 0.0000 0.0000 24.4527
#
#
#
# Elastic Compliance Matrix: (Units=1/GPa)
#
#
# Indices 1 2 3 4 5 6 
#
# 1 0.011534 0.000508 -0.000034 0.000000 0.000000 0.000000
# 2 0.000508 0.015024 0.000500 0.000000 0.000000 0.000000
# 3 -0.000034 0.000500 0.011774 0.000000 0.000000 0.000000
# 4 0.000000 0.000000 0.000000 0.041866 0.000000 0.000000
# 5 0.000000 0.000000 0.000000 0.000000 0.036859 0.000000
# 6 0.000000 0.000000 0.000000 0.000000 0.000000 0.040895
#
#
# Mechanical properties :
#
#
# Convention : Reuss Voigt Hill
#
# Bulk Modulus (GPa) = 24.82527 25.31121 25.06824
# Shear Modulus (GPa) = 29.51049 31.36408 30.43728
#
# Velocity S-wave (km/s) = 3.50498 3.61338 3.55959
# Velocity P-wave (km/s) = 5.16859 5.28634 5.22780
#
# Compressibility (1/GPa) = 0.04028153
#
# Stress axis : x y z
#
# Youngs Moduli (GPa) = 86.69719 66.55899 84.93286
#
# Poissons Ratio (x) = -0.03384 0.00290
# Poissons Ratio (y) = -0.04407 -0.04248
# Poissons Ratio (z) = 0.00296 -0.03329
#
# Static dielectric constant tensor:
#      x y z
#    x 1.997480 0.000000 0.000000 
#    y 0.000000 1.974510 0.000000 
#    z 0.000000 0.000000 1.980720 
# 
# From -- ./inp_files/28404.got.cif
#   From: 2010.05.17/outbox.cif.g08.bks.cpg/sg73_15_cif.got.tgz:28404.got - 2010.06.03 17:35:07.
