data_PCOD9532523
_publ_section_title
;
Structure prediction by ZEFSAII (Michael W. Deem and Ramdas Pophale) SiO2 
 PCOD9532523
Probable space group: I B C A 
;
_chemical_formula_sum "Si O2"
_cell_formula_units_Z 64
_cell_length_a 7.657959
_cell_length_b 10.108725
_cell_length_c 28.339736
_cell_angle_alpha 90.000000
_cell_angle_beta 90.000000
_cell_angle_gamma 90.000000
_cell_volume 2193.841356
_symmetry_space_group_name_H-M "I B C A "
_symmetry_group_IT_number 73
_symmetry_cell_setting 'orthorhombic'
loop_
_space_group_symop_operation_xyz
x,y,z
-x,1/2-y,z
x,-y,1/2-z
1/2-x,y,-z
-x,-y,-z
x,1/2+y,-z
-x,y,1/2+z
1/2+x,-y,z
1/2+x,1/2+y,1/2+z
1/2-x,-y,1/2+z
1/2+x,1/2-y,-z
-x,1/2+y,1/2-z
1/2-x,1/2-y,1/2-z
1/2+x,y,1/2-z
1/2-x,1/2+y,z
x,1/2-y,1/2+z
loop_
_atom_site_type_symbol
_atom_site_label
_atom_site_fract_x
_atom_site_fract_y
_atom_site_fract_z
Si Si1 0.209572 0.268831 0.304072
Si Si2 0.436776 0.538619 0.912187
Si Si3 0.925437 0.478144 0.692262
Si Si4 0.248353 0.285161 0.945987
O O1 0.250000 0.250000 0.250000
O O2 0.344554 0.163036 0.322888
O O3 0.215917 0.346708 0.414672
O O4 0.000000 0.250000 0.310208
O O5 0.252002 0.576916 0.808960
O O6 0.498525 0.527607 0.858424
O O7 0.396011 0.392974 0.932502
O O8 0.583736 0.616053 0.940764
O O9 0.971028 0.500000 0.750000
O O10 0.250000 0.240214 0.000000
#
# Coordination Sequence:
#
# PCOD9532523 Si02
#       4
#    16  16  16  16
#     4  10  23  42  67  98 147 201 257 309 366 437
#     4  11  25  45  76 109 150 198 253 313 394 469
#     4  10  23  42  70 104 149 202 251 306 370 453
#     4  11  25  47  75 109 147 195 254 331 388 461
#
# _framework density 29.172571000000001
#
# number of rings (size 3 to 8) (size 9 to 14) (size 15 to 20)
#    0.000    1.500    0.000    3.000    7.000   12.000 
#    0.000    0.000    0.000    0.000    0.000    0.000 
#    0.000    0.000    0.000    0.000    0.000    0.000 
#
# Total GULP energy -178301.927008 kJ/mol
# GULP energy per Si atom -5571.935219 kJ/mol
# Density = 2.910617 g / cm^3
# Si number density = 29.172571 Si / 1000 Ang^3
#
#
#
# Elastic Constant Matrix: (Units=GPa)
#
#
# Indices 1 2 3 4 5 6 
#
# 1 76.2265 18.5730 46.4404 0.0000 0.0000 0.0000
# 2 18.5730 152.8527 45.0492 0.0000 0.0000 0.0000
# 3 46.4404 45.0492 197.5873 0.0000 0.0000 0.0000
# 4 0.0000 0.0000 0.0000 63.2305 0.0000 0.0000
# 5 0.0000 0.0000 0.0000 0.0000 34.9497 0.0000
# 6 0.0000 0.0000 0.0000 0.0000 0.0000 64.4024
#
#
#
# Elastic Compliance Matrix: (Units=1/GPa)
#
#
# Indices 1 2 3 4 5 6 
#
# 1 0.015417 -0.000863 -0.003427 0.000000 0.000000 0.000000
# 2 -0.000863 0.007062 -0.001407 0.000000 0.000000 0.000000
# 3 -0.003427 -0.001407 0.006187 0.000000 0.000000 0.000000
# 4 0.000000 0.000000 0.000000 0.015815 0.000000 0.000000
# 5 0.000000 0.000000 0.000000 0.000000 0.028613 0.000000
# 6 0.000000 0.000000 0.000000 0.000000 0.000000 0.015527
#
#
# Mechanical properties :
#
#
# Convention : Reuss Voigt Hill
#
# Bulk Modulus (GPa) = 57.89859 71.86575 64.88217
# Shear Modulus (GPa) = 47.27116 53.62343 50.44729
#
# Velocity S-wave (km/s) = 4.02978 4.29201 4.16296
# Velocity P-wave (km/s) = 6.44533 7.01783 6.73766
#
# Compressibility (1/GPa) = 0.01727158
#
# Stress axis : x y z
#
# Youngs Moduli (GPa) = 64.86410 141.60542 161.62180
#
# Poissons Ratio (x) = 0.12226 0.55383
# Poissons Ratio (y) = 0.05600 0.22743
# Poissons Ratio (z) = 0.22227 0.19926
#
# Static dielectric constant tensor:
#      x y z
#    x 2.789890 0.000000 0.000000 
#    y 0.000000 2.036360 0.000000 
#    z 0.000000 0.000000 2.287970 
# 
# From -- ./inp_files/24609.got.cif
#   From: 2010.05.17/outbox.cif.g08.bks.cpg/sg73_13_cif.got.tgz:24609.got - 2010.06.03 17:35:07.
