data_PCOD9532780
_publ_section_title
;
Structure prediction by ZEFSAII (Michael W. Deem and Ramdas Pophale) SiO2 
 PCOD9532780
Probable space group: I B C A 
;
_chemical_formula_sum "Si O2"
_cell_formula_units_Z 64
_cell_length_a 8.115304
_cell_length_b 12.984281
_cell_length_c 22.899481
_cell_angle_alpha 90.000000
_cell_angle_beta 90.000000
_cell_angle_gamma 90.000000
_cell_volume 2412.950087
_symmetry_space_group_name_H-M "I B C A "
_symmetry_group_IT_number 73
_symmetry_cell_setting 'orthorhombic'
loop_
_space_group_symop_operation_xyz
x,y,z
-x,1/2-y,z
x,-y,1/2-z
1/2-x,y,-z
-x,-y,-z
x,1/2+y,-z
-x,y,1/2+z
1/2+x,-y,z
1/2+x,1/2+y,1/2+z
1/2-x,-y,1/2+z
1/2+x,1/2-y,-z
-x,1/2+y,1/2-z
1/2-x,1/2-y,1/2-z
1/2+x,y,1/2-z
1/2-x,1/2+y,z
x,1/2-y,1/2+z
loop_
_atom_site_type_symbol
_atom_site_label
_atom_site_fract_x
_atom_site_fract_y
_atom_site_fract_z
Si Si1 0.250000 0.829225 0.000000
Si Si2 0.482652 0.940547 0.906269
Si Si3 0.678971 0.629601 0.561054
Si Si4 0.771608 0.097751 0.792008
Si Si5 0.000000 0.750000 0.282677
O O1 0.113371 0.884707 0.040240
O O2 0.330847 0.748558 0.046003
O O3 0.663399 0.892820 0.897561
O O4 0.378385 0.932633 0.847614
O O5 0.475827 0.061158 0.921985
O O6 0.750000 0.583689 0.500000
O O7 0.884191 0.175873 0.755224
O O8 0.617758 0.166996 0.813124
O O9 0.728139 0.000000 0.750000
#
# Coordination Sequence:
#
# PCOD9532780 Si02
#       5
#     8  16  16  16   8
#     4  10  24  42  70  98 142 188 240 300 368 466
#     4  12  25  45  71 107 144 201 243 315 379 462
#     4  10  25  41  68 102 146 187 243 293 378 446
#     4  11  27  48  78 107 157 199 265 332 392 461
#     4  10  26  50  72 112 142 202 268 320 394 474
#
# _framework density 26.523548000000002
#
# number of rings (size 3 to 8) (size 9 to 14) (size 15 to 20)
#    0.750    0.500    1.250    2.250   10.500    2.000 
#    4.500    0.000    0.000    0.000    0.000    0.000 
#    0.000    0.000    0.000    0.000    0.000    0.000 
#
# Total GULP energy -179053.331051 kJ/mol
# GULP energy per Si atom -5595.416595 kJ/mol
# Density = 2.646318 g / cm^3
# Si number density = 26.523548 Si / 1000 Ang^3
#
#
#
# Elastic Constant Matrix: (Units=GPa)
#
#
# Indices 1 2 3 4 5 6 
#
# 1 93.7821 43.7170 19.0087 0.0000 0.0000 0.0000
# 2 43.7170 183.8755 49.4759 0.0000 0.0000 0.0000
# 3 19.0087 49.4759 113.2723 0.0000 0.0000 0.0000
# 4 0.0000 0.0000 0.0000 47.4182 0.0000 0.0000
# 5 0.0000 0.0000 0.0000 0.0000 38.8599 0.0000
# 6 0.0000 0.0000 0.0000 0.0000 0.0000 44.4021
#
#
#
# Elastic Compliance Matrix: (Units=1/GPa)
#
#
# Indices 1 2 3 4 5 6 
#
# 1 0.012068 -0.002634 -0.000875 0.000000 0.000000 0.000000
# 2 -0.002634 0.006738 -0.002501 0.000000 0.000000 0.000000
# 3 -0.000875 -0.002501 0.010067 0.000000 0.000000 0.000000
# 4 0.000000 0.000000 0.000000 0.021089 0.000000 0.000000
# 5 0.000000 0.000000 0.000000 0.000000 0.025733 0.000000
# 6 0.000000 0.000000 0.000000 0.000000 0.000000 0.022521
#
#
# Mechanical properties :
#
#
# Convention : Reuss Voigt Hill
#
# Bulk Modulus (GPa) = 59.33269 68.37032 63.85150
# Shear Modulus (GPa) = 43.15773 44.71793 43.93783
#
# Velocity S-wave (km/s) = 4.03817 4.11051 4.07450
# Velocity P-wave (km/s) = 6.64536 6.95425 6.80156
#
# Compressibility (1/GPa) = 0.01685412
#
# Stress axis : x y z
#
# Youngs Moduli (GPa) = 82.86303 148.42098 99.33014
#
# Poissons Ratio (x) = 0.39092 0.08689
# Poissons Ratio (y) = 0.21825 0.24841
# Poissons Ratio (z) = 0.07249 0.37119
#
# Static dielectric constant tensor:
#      x y z
#    x 2.190200 0.000000 0.000000 
#    y 0.000000 2.052000 0.000000 
#    z 0.000000 0.000000 2.051880 
# 
# From -- ./inp_files/6859.got.cif
#   From: 2010.05.17/outbox.cif.g08.bks.cpg/sg73_4_cif.got.tgz:6859.got - 2010.06.03 17:35:07.
