data_PCOD9532952
_publ_section_title
;
Structure prediction by ZEFSAII (Michael W. Deem and Ramdas Pophale) SiO2 
 PCOD9532952
Probable space group: I B C A 
;
_chemical_formula_sum "Si O2"
_cell_formula_units_Z 56
_cell_length_a 11.408161
_cell_length_b 21.224695
_cell_length_c 9.277566
_cell_angle_alpha 90.000000
_cell_angle_beta 90.000000
_cell_angle_gamma 90.000000
_cell_volume 2246.421010
_symmetry_space_group_name_H-M "I B C A "
_symmetry_group_IT_number 73
_symmetry_cell_setting 'orthorhombic'
loop_
_space_group_symop_operation_xyz
x,y,z
-x,1/2-y,z
x,-y,1/2-z
1/2-x,y,-z
-x,-y,-z
x,1/2+y,-z
-x,y,1/2+z
1/2+x,-y,z
1/2+x,1/2+y,1/2+z
1/2-x,-y,1/2+z
1/2+x,1/2-y,-z
-x,1/2+y,1/2-z
1/2-x,1/2-y,1/2-z
1/2+x,y,1/2-z
1/2-x,1/2+y,z
x,1/2-y,1/2+z
loop_
_atom_site_type_symbol
_atom_site_label
_atom_site_fract_x
_atom_site_fract_y
_atom_site_fract_z
Si Si1 0.750000 0.732148 0.000000
Si Si2 0.197113 0.455678 0.357086
Si Si3 0.651114 0.361422 0.688990
Si Si4 0.438335 0.340270 0.495052
O O1 0.748842 0.688288 0.143007
O O2 0.863605 0.776906 0.024121
O O3 0.123275 0.500000 0.250000
O O4 0.250000 0.488405 0.500000
O O5 0.291976 0.425825 0.246328
O O6 0.133109 0.396461 0.428046
O O7 0.567121 0.355531 0.551836
O O8 0.570393 0.342561 0.823175
#
# Coordination Sequence:
#
# PCOD9532952 Si02
#       4
#     8  16  16  16
#     4  12  24  44  72  96 146 178 236 286 354 418
#     4  10  24  47  71 102 145 186 239 294 352 419
#     4  11  26  43  71 104 138 188 231 291 354 420
#     4  11  25  45  69 104 143 181 238 289 352 422
#
# _framework density 24.928543000000001
#
# number of rings (size 3 to 8) (size 9 to 14) (size 15 to 20)
#    0.000    1.143    4.286    1.714    6.000    3.429 
#    0.000    5.714    0.000    0.000    0.000    0.000 
#    0.000    0.000    0.000    0.000    0.000    0.000 
#
# Total GULP energy -156186.108042 kJ/mol
# GULP energy per Si atom -5578.075287 kJ/mol
# Density = 2.487180 g / cm^3
# Si number density = 24.928543 Si / 1000 Ang^3
#
#
#
# Elastic Constant Matrix: (Units=GPa)
#
#
# Indices 1 2 3 4 5 6 
#
# 1 78.2325 -1.9000 30.8149 0.0000 0.0000 0.0000
# 2 -1.9000 40.0429 53.5220 0.0000 0.0000 0.0000
# 3 30.8149 53.5220 155.6340 -0.0005 0.0001 0.0001
# 4 0.0000 0.0000 -0.0005 58.4629 0.0001 0.0000
# 5 0.0000 0.0000 0.0001 0.0001 57.7345 0.0000
# 6 0.0000 0.0000 0.0001 0.0000 0.0000 -32.1206
#
#
#
# Elastic Compliance Matrix: (Units=1/GPa)
#
#
# Indices 1 2 3 4 5 6 
#
# 1 0.015405 0.008898 -0.006110 0.000000 0.000000 0.000000
# 2 0.008898 0.051357 -0.019423 0.000000 0.000000 0.000000
# 3 -0.006110 -0.019423 0.014315 0.000000 0.000000 0.000000
# 4 0.000000 0.000000 0.000000 0.017105 0.000000 0.000000
# 5 0.000000 0.000000 0.000000 0.000000 0.017321 0.000000
# 6 0.000000 0.000000 0.000000 0.000000 0.000000 -0.031133
#
#
# Mechanical properties :
#
#
# Convention : Reuss Voigt Hill
#
# Bulk Modulus (GPa) = 20.91801 48.75367 34.83584
# Shear Modulus (GPa) = 37.43206 29.58019 33.50613
#
# Velocity S-wave (km/s) = 3.87922 3.44844 3.67016
# Velocity P-wave (km/s) = 5.33609 5.95445 5.65373
#
# Compressibility (1/GPa) = 0.04780570
#
# Stress axis : x y z
#
# Youngs Moduli (GPa) = 64.91319 19.47168 69.85859
#
# Poissons Ratio (x) = -0.17325 0.42684
# Poissons Ratio (y) = -0.57758 1.35687
# Poissons Ratio (z) = 0.39662 0.37820
#
# Static dielectric constant tensor:
#      x y z
#    x 2.110030 0.000000 0.000000 
#    y 0.000000 2.042530 0.000000 
#    z 0.000000 0.000000 1.937380 
# 
# From -- ./inp_files/4463.got.cif
#   From: 2010.05.17/outbox.cif.g08.bks.cpg/sg73_3_cif.got.tgz:4463.got - 2010.06.03 17:35:07.
