data_PCOD9532431
_publ_section_title
;
Structure prediction by ZEFSAII (Michael W. Deem and Ramdas Pophale) SiO2 
 PCOD9532431
Probable space group: I B C A 
;
_chemical_formula_sum "Si O2"
_cell_formula_units_Z 112
_cell_length_a 31.510999
_cell_length_b 15.271620
_cell_length_c 10.414591
_cell_angle_alpha 90.000000
_cell_angle_beta 90.000000
_cell_angle_gamma 90.000000
_cell_volume 5011.751166
_symmetry_space_group_name_H-M "I B C A "
_symmetry_group_IT_number 73
_symmetry_cell_setting 'orthorhombic'
loop_
_space_group_symop_operation_xyz
x,y,z
-x,1/2-y,z
x,-y,1/2-z
1/2-x,y,-z
-x,-y,-z
x,1/2+y,-z
-x,y,1/2+z
1/2+x,-y,z
1/2+x,1/2+y,1/2+z
1/2-x,-y,1/2+z
1/2+x,1/2-y,-z
-x,1/2+y,1/2-z
1/2-x,1/2-y,1/2-z
1/2+x,y,1/2-z
1/2-x,1/2+y,z
x,1/2-y,1/2+z
loop_
_atom_site_type_symbol
_atom_site_label
_atom_site_fract_x
_atom_site_fract_y
_atom_site_fract_z
Si Si1 0.250000 0.900569 0.000000
Si Si2 0.607816 0.980976 0.956887
Si Si3 0.109551 0.354896 0.217836
Si Si4 0.466872 0.976263 0.888835
Si Si5 0.831078 0.212635 0.020761
Si Si6 0.168218 0.099923 0.124123
Si Si7 0.258354 0.500000 0.250000
Si Si8 0.403137 0.174556 0.686289
O O1 0.209655 0.838784 0.028624
O O2 0.237174 0.959293 0.876349
O O3 0.610605 0.905676 0.851681
O O4 0.595817 0.070025 0.882976
O O5 0.651593 0.979785 0.035181
O O6 0.572348 0.964555 0.063636
O O7 0.154729 0.323729 0.161036
O O8 0.084312 0.264437 0.240019
O O9 0.442956 0.883019 0.862386
O O10 0.485312 0.000000 0.750000
O O11 0.500000 0.000000 0.000000
O O12 0.823373 0.315119 0.038553
O O13 0.872715 0.201341 0.932399
O O14 0.130212 0.122890 0.222854
O O15 0.210299 0.074035 0.196103
#
# Coordination Sequence:
#
# PCOD9532431 Si02
#       8
#     8  16  16  16  16  16   8  16
#     4  12  28  46  64 102 152 194 246 320 388 446
#     4  11  21  41  73 106 139 180 250 297 363 439
#     4  10  23  38  72 106 137 182 243 305 354 444
#     4  12  27  45  76 107 147 187 236 296 367 440
#     4  11  23  43  69 102 143 190 249 307 379 442
#     4  11  22  42  76 100 131 193 249 298 364 452
#     4  12  26  44  64  98 148 188 250 304 378 438
#     4  11  21  46  71 102 138 187 238 296 365 444
#
# _framework density 22.347477999999999
#
# number of rings (size 3 to 8) (size 9 to 14) (size 15 to 20)
#    0.000    0.857    5.714    1.714    2.000    3.429 
#    0.000    0.714    0.000    0.000    0.000    0.000 
#    0.000    0.000    0.000    0.000    0.000    0.000 
#
# Total GULP energy -312421.136486 kJ/mol
# GULP energy per Si atom -5578.948866 kJ/mol
# Density = 2.229661 g / cm^3
# Si number density = 22.347478 Si / 1000 Ang^3
#
#
#
# Elastic Constant Matrix: (Units=GPa)
#
#
# Indices 1 2 3 4 5 6 
#
# 1 60.8677 41.3175 21.3525 0.0000 0.0000 0.0000
# 2 41.3175 108.5958 51.3250 0.0000 0.0000 0.0000
# 3 21.3525 51.3250 117.1009 0.0000 0.0000 0.0000
# 4 0.0000 0.0000 0.0000 42.3339 0.0000 0.0000
# 5 0.0000 0.0000 0.0000 0.0000 39.6811 0.0000
# 6 0.0000 0.0000 0.0000 0.0000 0.0000 -1.2330
#
#
#
# Elastic Compliance Matrix: (Units=1/GPa)
#
#
# Indices 1 2 3 4 5 6 
#
# 1 0.022167 -0.008228 -0.000436 0.000000 0.000000 0.000000
# 2 -0.008228 0.014668 -0.004929 0.000000 0.000000 0.000000
# 3 -0.000436 -0.004929 0.010779 0.000000 0.000000 0.000000
# 4 0.000000 0.000000 0.000000 0.023622 0.000000 0.000000
# 5 0.000000 0.000000 0.000000 0.000000 0.025201 0.000000
# 6 0.000000 0.000000 0.000000 0.000000 0.000000 -0.811060
#
#
# Mechanical properties :
#
#
# Convention : Reuss Voigt Hill
#
# Bulk Modulus (GPa) = 48.94783 57.17271 53.06027
# Shear Modulus (GPa) = -7.34616 27.66103 10.15743
#
# Velocity S-wave (km/s) = -1.81504 3.52201 2.13427
# Velocity P-wave (km/s) = 4.19024 6.49450 5.46519
#
# Compressibility (1/GPa) = 0.02042991
#
# Stress axis : x y z
#
# Youngs Moduli (GPa) = 45.11173 68.17344 92.76965
#
# Poissons Ratio (x) = 0.56093 0.04042
# Poissons Ratio (y) = 0.37118 0.45725
# Poissons Ratio (z) = 0.01965 0.33602
#
# Static dielectric constant tensor:
#      x y z
#    x 1.813520 0.000000 0.000000 
#    y 0.000000 1.874690 0.000000 
#    z 0.000000 0.000000 1.904180 
# 
# From -- ./inp_files/14864.got.cif
#   From: 2010.05.17/outbox.cif.g08.bks.cpg/sg73_8_cif.got.tgz:14864.got - 2010.06.03 17:35:07.
