data_PCOD9532571
_publ_section_title
;
Structure prediction by ZEFSAII (Michael W. Deem and Ramdas Pophale) SiO2 
 PCOD9532571
Probable space group: I B C A 
;
_chemical_formula_sum "Si O2"
_cell_formula_units_Z 72
_cell_length_a 12.845729
_cell_length_b 12.607239
_cell_length_c 22.385096
_cell_angle_alpha 90.000000
_cell_angle_beta 90.000000
_cell_angle_gamma 90.000000
_cell_volume 3625.247844
_symmetry_space_group_name_H-M "I B C A "
_symmetry_group_IT_number 73
_symmetry_cell_setting 'orthorhombic'
loop_
_space_group_symop_operation_xyz
x,y,z
-x,1/2-y,z
x,-y,1/2-z
1/2-x,y,-z
-x,-y,-z
x,1/2+y,-z
-x,y,1/2+z
1/2+x,-y,z
1/2+x,1/2+y,1/2+z
1/2-x,-y,1/2+z
1/2+x,1/2-y,-z
-x,1/2+y,1/2-z
1/2-x,1/2-y,1/2-z
1/2+x,y,1/2-z
1/2-x,1/2+y,z
x,1/2-y,1/2+z
loop_
_atom_site_type_symbol
_atom_site_label
_atom_site_fract_x
_atom_site_fract_y
_atom_site_fract_z
Si Si1 0.176686 0.195979 0.676683
Si Si2 0.750000 0.086590 0.500000
Si Si3 0.078247 0.340364 0.586495
Si Si4 0.891341 0.689599 0.691381
Si Si5 0.397519 0.504815 0.598648
O O1 0.112682 0.297918 0.651799
O O2 0.295897 0.230891 0.678715
O O3 0.133385 0.157064 0.740263
O O4 0.159841 0.102678 0.630140
O O5 0.819224 0.152170 0.546737
O O6 0.665402 0.022607 0.538853
O O7 0.000000 0.250000 0.562211
O O8 0.014142 0.449948 0.588329
O O9 0.893841 0.594334 0.643853
O O10 0.000000 0.750000 0.689079
#
# Coordination Sequence:
#
# PCOD9532571 Si02
#       5
#    16   8  16  16  16
#     4  10  23  44  64  95 133 166 207 272 324 389
#     4  12  24  42  64  98 128 178 222 264 310 386
#     4  10  23  44  65  93 134 169 216 266 324 378
#     4  11  23  40  69  99 126 164 217 262 330 389
#     4  11  24  42  66  94 131 170 214 265 324 376
#
# _framework density 19.860711999999999
#
# number of rings (size 3 to 8) (size 9 to 14) (size 15 to 20)
#    0.000    1.333    2.222    3.333    3.111    4.444 
#    0.000    2.222    0.000    0.000    0.000    0.000 
#    0.000    0.000    0.000    0.000    0.000    0.000 
#
# Total GULP energy -200989.811189 kJ/mol
# GULP energy per Si atom -5583.050311 kJ/mol
# Density = 1.981551 g / cm^3
# Si number density = 19.860712 Si / 1000 Ang^3
#
#
#
# Elastic Constant Matrix: (Units=GPa)
#
#
# Indices 1 2 3 4 5 6 
#
# 1 115.0031 23.9664 28.8288 0.0000 0.0000 0.0000
# 2 23.9664 52.2310 26.7092 0.0000 0.0000 0.0000
# 3 28.8288 26.7092 93.9907 0.0000 0.0000 0.0000
# 4 0.0000 0.0000 0.0000 7.1611 0.0000 0.0000
# 5 0.0000 0.0000 0.0000 0.0000 34.6815 0.0000
# 6 0.0000 0.0000 0.0000 0.0000 0.0000 21.3348
#
#
#
# Elastic Compliance Matrix: (Units=1/GPa)
#
#
# Indices 1 2 3 4 5 6 
#
# 1 0.009942 -0.003513 -0.002051 0.000000 0.000000 0.000000
# 2 -0.003513 0.023642 -0.005641 0.000000 0.000000 0.000000
# 3 -0.002051 -0.005641 0.012871 0.000000 0.000000 0.000000
# 4 0.000000 0.000000 0.000000 0.139644 0.000000 0.000000
# 5 0.000000 0.000000 0.000000 0.000000 0.028834 0.000000
# 6 0.000000 0.000000 0.000000 0.000000 0.000000 0.046872
#
#
# Mechanical properties :
#
#
# Convention : Reuss Voigt Hill
#
# Bulk Modulus (GPa) = 41.58772 46.69261 44.14017
# Shear Modulus (GPa) = 17.10981 24.75016 20.92999
#
# Velocity S-wave (km/s) = 2.93830 3.53397 3.24981
# Velocity P-wave (km/s) = 5.70058 6.34137 6.02949
#
# Compressibility (1/GPa) = 0.02404556
#
# Stress axis : x y z
#
# Youngs Moduli (GPa) = 100.58684 42.29724 77.69160
#
# Poissons Ratio (x) = 0.14859 0.15935
# Poissons Ratio (y) = 0.35336 0.43825
# Poissons Ratio (z) = 0.20631 0.23859
#
# Static dielectric constant tensor:
#      x y z
#    x 1.706400 0.000000 0.000000 
#    y 0.000000 1.691430 0.000000 
#    z 0.000000 0.000000 1.714660 
# 
# From -- ./inp_files/12546.got.cif
#   From: 2010.05.17/outbox.cif.g08.bks.cpg/sg73_7_cif.got.tgz:12546.got - 2010.06.03 17:35:07.
