data_PCOD9532983
_publ_section_title
;
Structure prediction by ZEFSAII (Michael W. Deem and Ramdas Pophale) SiO2 
 PCOD9532983
Probable space group: I B C A 
;
_chemical_formula_sum "Si O2"
_cell_formula_units_Z 48
_cell_length_a 8.920691
_cell_length_b 20.331630
_cell_length_c 9.774453
_cell_angle_alpha 90.000000
_cell_angle_beta 90.000000
_cell_angle_gamma 90.000000
_cell_volume 1772.813935
_symmetry_space_group_name_H-M "I B C A "
_symmetry_group_IT_number 73
_symmetry_cell_setting 'orthorhombic'
loop_
_space_group_symop_operation_xyz
x,y,z
-x,1/2-y,z
x,-y,1/2-z
1/2-x,y,-z
-x,-y,-z
x,1/2+y,-z
-x,y,1/2+z
1/2+x,-y,z
1/2+x,1/2+y,1/2+z
1/2-x,-y,1/2+z
1/2+x,1/2-y,-z
-x,1/2+y,1/2-z
1/2-x,1/2-y,1/2-z
1/2+x,y,1/2-z
1/2-x,1/2+y,z
x,1/2-y,1/2+z
loop_
_atom_site_type_symbol
_atom_site_label
_atom_site_fract_x
_atom_site_fract_y
_atom_site_fract_z
Si Si1 0.500000 0.750000 0.254225
Si Si2 0.750000 0.638028 0.500000
Si Si3 0.987845 0.450902 0.375627
Si Si4 0.271921 0.161129 0.704803
O O1 0.612487 0.787646 0.358100
O O2 0.608053 0.692049 0.190463
O O3 0.875361 0.597223 0.585387
O O4 0.818341 0.671367 0.366267
O O5 0.012542 0.500000 0.250000
O O6 0.000000 0.500000 0.500000
O O7 0.834288 0.409352 0.347453
#
# Coordination Sequence:
#
# PCOD9532983 Si02
#       4
#     8   8  16  16
#     4  10  24  48  80 110 168 214 298 352 420 512
#     4  12  26  46  74 116 166 218 286 354 438 518
#     4  12  27  48  79 122 175 230 283 358 443 537
#     4  11  24  49  77 120 159 226 285 355 432 511
#
# _framework density 27.075599
#
# number of rings (size 3 to 8) (size 9 to 14) (size 15 to 20)
#    0.000    0.667    6.667    0.000    4.667    1.333 
#    0.000    0.000    0.000    0.000    0.000    2.333 
#    0.000    0.000    0.000    0.000    0.000    0.000 
#
# Total GULP energy -133638.011446 kJ/mol
# GULP energy per Si atom -5568.250477 kJ/mol
# Density = 2.701397 g / cm^3
# Si number density = 27.075599 Si / 1000 Ang^3
#
#
#
# Elastic Constant Matrix: (Units=GPa)
#
#
# Indices 1 2 3 4 5 6 
#
# 1 248.6784 88.3993 44.8872 0.0003 -0.0001 0.0000
# 2 88.3993 123.4975 59.3073 0.0006 -0.0002 0.0001
# 3 44.8872 59.3073 205.4954 0.0017 -0.0007 0.0002
# 4 0.0003 0.0006 0.0017 -22.9097 -0.0006 0.0002
# 5 -0.0001 -0.0002 -0.0007 -0.0006 16.0712 0.0000
# 6 0.0000 0.0001 0.0002 0.0002 0.0000 68.8983
#
#
#
# Elastic Compliance Matrix: (Units=1/GPa)
#
#
# Indices 1 2 3 4 5 6 
#
# 1 0.005395 -0.003826 -0.000074 0.000000 0.000000 0.000000
# 2 -0.003826 0.012113 -0.002660 0.000000 0.000000 0.000000
# 3 -0.000074 -0.002660 0.005650 0.000000 0.000000 0.000000
# 4 0.000000 0.000000 0.000000 -0.043650 -0.000002 0.000000
# 5 0.000000 0.000000 0.000000 -0.000002 0.062223 0.000000
# 6 0.000000 0.000000 0.000000 0.000000 0.000000 0.014514
#
#
# Mechanical properties :
#
#
# Convention : Reuss Voigt Hill
#
# Bulk Modulus (GPa) = 99.62527 106.98434 103.30481
# Shear Modulus (GPa) = 68.76371 38.08378 53.42375
#
# Velocity S-wave (km/s) = 5.04500 3.75450 4.44681
# Velocity P-wave (km/s) = 8.41494 7.64160 8.03757
#
# Compressibility (1/GPa) = 0.01003761
#
# Stress axis : x y z
#
# Youngs Moduli (GPa) = 185.36888 82.55298 176.98220
#
# Poissons Ratio (x) = 0.31583 0.01313
# Poissons Ratio (y) = 0.70919 0.47083
# Poissons Ratio (z) = 0.01376 0.21962
#
# Static dielectric constant tensor:
#      x y z
#    x 2.387460 0.000000 0.000000 
#    y 0.000000 2.444040 0.000000 
#    z 0.000000 0.000000 -0.356830 
# 
# From -- ./inp_files/8957.got.cif
#   From: 2010.05.17/outbox.cif.g08.bks.cpg/sg73_5_cif.got.tgz:8957.got - 2010.06.03 17:35:07.
