data_PCOD9532107
_publ_section_title
;
Structure prediction by ZEFSAII (Michael W. Deem and Ramdas Pophale) SiO2 
 PCOD9532107
Probable space group: I B C A 
;
_chemical_formula_sum "Si O2"
_cell_formula_units_Z 80
_cell_length_a 17.130620
_cell_length_b 8.840708
_cell_length_c 23.720783
_cell_angle_alpha 90.000000
_cell_angle_beta 90.000000
_cell_angle_gamma 90.000000
_cell_volume 3592.436899
_symmetry_space_group_name_H-M "I B C A "
_symmetry_group_IT_number 73
_symmetry_cell_setting 'orthorhombic'
loop_
_space_group_symop_operation_xyz
x,y,z
-x,1/2-y,z
x,-y,1/2-z
1/2-x,y,-z
-x,-y,-z
x,1/2+y,-z
-x,y,1/2+z
1/2+x,-y,z
1/2+x,1/2+y,1/2+z
1/2-x,-y,1/2+z
1/2+x,1/2-y,-z
-x,1/2+y,1/2-z
1/2-x,1/2-y,1/2-z
1/2+x,y,1/2-z
1/2-x,1/2+y,z
x,1/2-y,1/2+z
loop_
_atom_site_type_symbol
_atom_site_label
_atom_site_fract_x
_atom_site_fract_y
_atom_site_fract_z
Si Si1 0.803027 0.515553 0.594112
Si Si2 0.567854 0.950384 0.185019
Si Si3 0.651688 0.354717 0.588466
Si Si4 0.942645 0.372839 0.521605
Si Si5 0.390907 0.097217 0.307558
O O1 0.720121 0.468209 0.569250
O O2 0.810613 0.693874 0.602253
O O3 0.873351 0.440815 0.558655
O O4 0.816442 0.444737 0.655448
O O5 0.475888 0.954963 0.168990
O O6 0.600082 0.778815 0.189036
O O7 0.573187 0.000000 0.250000
O O8 0.610365 0.060603 0.140666
O O9 0.595904 0.314738 0.536245
O O10 0.000000 0.250000 0.549961
O O11 0.000000 0.500000 0.500000
O O12 0.384072 0.000000 0.250000
#
# Coordination Sequence:
#
# PCOD9532107 Si02
#       5
#    16  16  16  16  16
#     4  12  27  44  69  98 142 177 228 284 347 414
#     4  10  22  41  70 100 138 179 233 283 341 411
#     4  12  27  45  67 101 138 182 225 286 347 412
#     4  12  27  46  73 102 132 179 231 285 341 413
#     4  10  22  41  69 102 136 181 229 286 342 410
#
# _framework density 22.269006000000001
#
# number of rings (size 3 to 8) (size 9 to 14) (size 15 to 20)
#    0.000    0.800    2.000    4.200    8.400    4.000 
#    0.000    4.000    0.000    0.000    0.000    0.000 
#    0.000    0.000    0.000    0.000    0.000    0.000 
#
# Total GULP energy -223470.883173 kJ/mol
# GULP energy per Si atom -5586.772079 kJ/mol
# Density = 2.221832 g / cm^3
# Si number density = 22.269006 Si / 1000 Ang^3
#
#
#
# Elastic Constant Matrix: (Units=GPa)
#
#
# Indices 1 2 3 4 5 6 
#
# 1 65.9130 15.6986 18.4605 0.0000 0.0000 0.0000
# 2 15.6986 102.9096 10.2008 0.0000 0.0000 0.0000
# 3 18.4605 10.2008 73.5866 0.0000 0.0000 0.0000
# 4 0.0000 0.0000 0.0000 31.0978 0.0000 0.0000
# 5 0.0000 0.0000 0.0000 0.0000 29.3068 0.0000
# 6 0.0000 0.0000 0.0000 0.0000 0.0000 37.9706
#
#
#
# Elastic Compliance Matrix: (Units=1/GPa)
#
#
# Indices 1 2 3 4 5 6 
#
# 1 0.016784 -0.002173 -0.003909 0.000000 0.000000 0.000000
# 2 -0.002173 0.010134 -0.000860 0.000000 0.000000 0.000000
# 3 -0.003909 -0.000860 0.014689 0.000000 0.000000 0.000000
# 4 0.000000 0.000000 0.000000 0.032157 0.000000 0.000000
# 5 0.000000 0.000000 0.000000 0.000000 0.034122 0.000000
# 6 0.000000 0.000000 0.000000 0.000000 0.000000 0.026336
#
#
# Mechanical properties :
#
#
# Convention : Reuss Voigt Hill
#
# Bulk Modulus (GPa) = 36.07055 36.79210 36.43132
# Shear Modulus (GPa) = 31.77697 32.87833 32.32765
#
# Velocity S-wave (km/s) = 3.78161 3.84659 3.81424
# Velocity P-wave (km/s) = 5.94140 6.02377 5.98273
#
# Compressibility (1/GPa) = 0.02772345
#
# Stress axis : x y z
#
# Youngs Moduli (GPa) = 59.58077 98.67828 68.07656
#
# Poissons Ratio (x) = 0.21441 0.26614
# Poissons Ratio (y) = 0.12946 0.05853
# Poissons Ratio (z) = 0.23292 0.08483
#
# Static dielectric constant tensor:
#      x y z
#    x 1.781550 0.000000 0.000000 
#    y 0.000000 2.037470 0.000000 
#    z 0.000000 0.000000 1.582680 
# 
# From -- ./inp_files/32323.got.cif
#   From: 2010.05.17/outbox.cif.g08.bks.cpg/sg73_17_cif.got.tgz:32323.got - 2010.06.03 17:35:07.
