data_PCOD9532773
_publ_section_title
;
Structure prediction by ZEFSAII (Michael W. Deem and Ramdas Pophale) SiO2 
 PCOD9532773
Probable space group: I B C A 
;
_chemical_formula_sum "Si O2"
_cell_formula_units_Z 72
_cell_length_a 18.500918
_cell_length_b 8.268073
_cell_length_c 20.731138
_cell_angle_alpha 90.000000
_cell_angle_beta 90.000000
_cell_angle_gamma 90.000000
_cell_volume 3171.178755
_symmetry_space_group_name_H-M "I B C A "
_symmetry_group_IT_number 73
_symmetry_cell_setting 'orthorhombic'
loop_
_space_group_symop_operation_xyz
x,y,z
-x,1/2-y,z
x,-y,1/2-z
1/2-x,y,-z
-x,-y,-z
x,1/2+y,-z
-x,y,1/2+z
1/2+x,-y,z
1/2+x,1/2+y,1/2+z
1/2-x,-y,1/2+z
1/2+x,1/2-y,-z
-x,1/2+y,1/2-z
1/2-x,1/2-y,1/2-z
1/2+x,y,1/2-z
1/2-x,1/2+y,z
x,1/2-y,1/2+z
loop_
_atom_site_type_symbol
_atom_site_label
_atom_site_fract_x
_atom_site_fract_y
_atom_site_fract_z
Si Si1 0.507407 0.559515 0.571745
Si Si2 0.554158 0.892963 0.695376
Si Si3 0.250000 0.843646 0.500000
Si Si4 0.335873 0.902725 0.917594
Si Si5 0.827042 0.185921 0.770695
O O1 0.500000 0.750000 0.562640
O O2 0.500000 0.500000 0.500000
O O3 0.446828 0.515258 0.626506
O O4 0.585625 0.486811 0.589856
O O5 0.500000 0.750000 0.681806
O O6 0.620544 0.809689 0.732260
O O7 0.518149 0.000000 0.750000
O O8 0.184510 0.733163 0.528425
O O9 0.281822 0.953798 0.558195
O O10 0.326245 0.819328 0.848241
O O11 0.750000 0.250000 0.750000
O O12 0.839610 0.000000 0.750000
#
# Coordination Sequence:
#
# PCOD9532773 Si02
#       5
#    16  16   8  16  16
#     4  11  24  41  65  95 132 177 228 287 352 425
#     4  11  24  43  67  95 131 175 225 285 349 423
#     4  10  24  42  70 102 142 186 236 298 362 438
#     4  11  23  43  67 100 138 184 235 293 360 430
#     4  12  25  43  68  99 135 179 231 292 358 432
#
# _framework density 22.704492999999999
#
# number of rings (size 3 to 8) (size 9 to 14) (size 15 to 20)
#    0.000    0.889    0.000    8.000    0.000    8.000 
#    0.000    0.000    0.000    0.000    0.000    0.000 
#    0.000    0.000    0.000    0.000    0.000    0.000 
#
# Total GULP energy -200568.637934 kJ/mol
# GULP energy per Si atom -5571.351054 kJ/mol
# Density = 2.265282 g / cm^3
# Si number density = 22.704493 Si / 1000 Ang^3
#
#
#
# Elastic Constant Matrix: (Units=GPa)
#
#
# Indices 1 2 3 4 5 6 
#
# 1 109.1561 37.5967 59.0298 0.0000 0.0000 0.0000
# 2 37.5967 82.7055 67.2728 0.0000 0.0000 0.0000
# 3 59.0298 67.2728 212.5037 0.0000 0.0000 0.0000
# 4 0.0000 0.0000 0.0000 27.7254 0.0000 0.0000
# 5 0.0000 0.0000 0.0000 0.0000 47.6313 0.0000
# 6 0.0000 0.0000 0.0000 0.0000 0.0000 15.4061
#
#
#
# Elastic Compliance Matrix: (Units=1/GPa)
#
#
# Indices 1 2 3 4 5 6 
#
# 1 0.011503 -0.003542 -0.002074 0.000000 0.000000 0.000000
# 2 -0.003542 0.017375 -0.004517 0.000000 0.000000 0.000000
# 3 -0.002074 -0.004517 0.006712 0.000000 0.000000 0.000000
# 4 0.000000 0.000000 0.000000 0.036068 0.000000 0.000000
# 5 0.000000 0.000000 0.000000 0.000000 0.020995 0.000000
# 6 0.000000 0.000000 0.000000 0.000000 0.000000 0.064909
#
#
# Mechanical properties :
#
#
# Convention : Reuss Voigt Hill
#
# Bulk Modulus (GPa) = 65.25520 81.35155 73.30338
# Shear Modulus (GPa) = 27.33215 34.18361 30.75788
#
# Velocity S-wave (km/s) = 3.47338 3.88440 3.68462
# Velocity P-wave (km/s) = 6.69995 7.48508 7.10337
#
# Compressibility (1/GPa) = 0.01532445
#
# Stress axis : x y z
#
# Youngs Moduli (GPa) = 86.93591 57.55393 148.99308
#
# Poissons Ratio (x) = 0.20386 0.30901
# Poissons Ratio (y) = 0.30793 0.67293
# Poissons Ratio (z) = 0.18030 0.25994
#
# Static dielectric constant tensor:
#      x y z
#    x 1.864800 0.000000 0.000000 
#    y 0.000000 1.896850 0.000000 
#    z 0.000000 0.000000 6.740420 
# 
# From -- ./inp_files/20605.got.cif
#   From: 2010.05.17/outbox.cif.g08.bks.cpg/sg73_11_cif.got.tgz:20605.got - 2010.06.03 17:35:07.
