data_PCOD9532796
_publ_section_title
;
Structure prediction by ZEFSAII (Michael W. Deem and Ramdas Pophale) SiO2 
 PCOD9532796
Probable space group: I B C A 
;
_chemical_formula_sum "Si O2"
_cell_formula_units_Z 56
_cell_length_a 5.217924
_cell_length_b 18.734691
_cell_length_c 25.121662
_cell_angle_alpha 90.000000
_cell_angle_beta 90.000000
_cell_angle_gamma 90.000000
_cell_volume 2455.798059
_symmetry_space_group_name_H-M "I B C A "
_symmetry_group_IT_number 73
_symmetry_cell_setting 'orthorhombic'
loop_
_space_group_symop_operation_xyz
x,y,z
-x,1/2-y,z
x,-y,1/2-z
1/2-x,y,-z
-x,-y,-z
x,1/2+y,-z
-x,y,1/2+z
1/2+x,-y,z
1/2+x,1/2+y,1/2+z
1/2-x,-y,1/2+z
1/2+x,1/2-y,-z
-x,1/2+y,1/2-z
1/2-x,1/2-y,1/2-z
1/2+x,y,1/2-z
1/2-x,1/2+y,z
x,1/2-y,1/2+z
loop_
_atom_site_type_symbol
_atom_site_label
_atom_site_fract_x
_atom_site_fract_y
_atom_site_fract_z
Si Si1 0.159433 0.971737 0.060437
Si Si2 0.000000 0.250000 0.036895
Si Si3 0.360768 0.172762 0.601301
Si Si4 0.020172 0.836740 0.221427
O O1 0.048093 0.891769 0.063997
O O2 0.440401 0.979611 0.086305
O O3 0.250000 0.989369 0.000000
O O4 0.078802 0.312394 0.077470
O O5 0.250000 0.239224 0.000000
O O6 0.500000 0.250000 0.599147
O O7 0.388976 0.147690 0.661650
O O8 0.238735 0.862061 0.262145
O O9 0.000000 0.750000 0.224668
#
# Coordination Sequence:
#
# PCOD9532796 Si02
#       4
#    16   8  16  16
#     4  10  24  43  62  87 128 174 210 250 315 391
#     4  12  26  38  56  96 132 156 202 272 316 360
#     4  11  25  40  69  96 127 168 218 269 322 369
#     4   9  20  35  58  90 126 158 203 265 325 377
#
# _framework density 22.803176000000001
#
# number of rings (size 3 to 8) (size 9 to 14) (size 15 to 20)
#    0.000    1.714    1.429    0.857   14.000    1.143 
#    0.000    0.000    0.000    5.143    0.000    0.000 
#    0.000    0.000    0.000    0.000    0.000    0.000 
#
# Total GULP energy -155880.254648 kJ/mol
# GULP energy per Si atom -5567.151952 kJ/mol
# Density = 2.275127 g / cm^3
# Si number density = 22.803176 Si / 1000 Ang^3
#
#
#
# Elastic Constant Matrix: (Units=GPa)
#
#
# Indices 1 2 3 4 5 6 
#
# 1 153.2090 21.5632 45.0798 0.0000 0.0000 0.0000
# 2 21.5632 76.3641 -10.3746 0.0000 0.0000 0.0000
# 3 45.0798 -10.3746 105.9592 0.0000 0.0000 0.0000
# 4 0.0000 0.0000 0.0000 11.1402 0.0000 0.0000
# 5 0.0000 0.0000 0.0000 0.0000 1.5442 0.0000
# 6 0.0000 0.0000 0.0000 0.0000 0.0000 24.1550
#
#
#
# Elastic Compliance Matrix: (Units=1/GPa)
#
#
# Indices 1 2 3 4 5 6 
#
# 1 0.007995 -0.002756 -0.003671 0.000000 0.000000 0.000000
# 2 -0.002756 0.014222 0.002565 0.000000 0.000000 0.000000
# 3 -0.003671 0.002565 0.011251 0.000000 0.000000 0.000000
# 4 0.000000 0.000000 0.000000 0.089765 0.000000 0.000000
# 5 0.000000 0.000000 0.000000 0.000000 0.647589 0.000000
# 6 0.000000 0.000000 0.000000 0.000000 0.000000 0.041399
#
#
# Mechanical properties :
#
#
# Convention : Reuss Voigt Hill
#
# Bulk Modulus (GPa) = 38.84598 49.78546 44.31572
# Shear Modulus (GPa) = 6.03480 25.98547 16.01014
#
# Velocity S-wave (km/s) = 1.62856 3.37939 2.65259
# Velocity P-wave (km/s) = 4.53967 6.09156 5.37195
#
# Compressibility (1/GPa) = 0.02574269
#
# Stress axis : x y z
#
# Youngs Moduli (GPa) = 125.07414 70.31360 88.88296
#
# Poissons Ratio (x) = 0.19382 0.32633
# Poissons Ratio (y) = 0.34476 -0.22800
# Poissons Ratio (z) = 0.45920 -0.18037
#
# Static dielectric constant tensor:
#      x y z
#    x 2.029610 0.000000 0.000000 
#    y 0.000000 2.257710 0.000000 
#    z 0.000000 0.000000 1.905570 
# 
# From -- ./inp_files/30809.got.cif
#   From: 2010.05.17/outbox.cif.g08.bks.cpg/sg73_16_cif.got.tgz:30809.got - 2010.06.03 17:35:07.
