data_PCOD9532393
_publ_section_title
;
Structure prediction by ZEFSAII (Michael W. Deem and Ramdas Pophale) SiO2 
 PCOD9532393
Probable space group: I B C A 
;
_chemical_formula_sum "Si O2"
_cell_formula_units_Z 72
_cell_length_a 16.447326
_cell_length_b 19.058902
_cell_length_c 9.071963
_cell_angle_alpha 90.000000
_cell_angle_beta 90.000000
_cell_angle_gamma 90.000000
_cell_volume 2843.769865
_symmetry_space_group_name_H-M "I B C A "
_symmetry_group_IT_number 73
_symmetry_cell_setting 'orthorhombic'
loop_
_space_group_symop_operation_xyz
x,y,z
-x,1/2-y,z
x,-y,1/2-z
1/2-x,y,-z
-x,-y,-z
x,1/2+y,-z
-x,y,1/2+z
1/2+x,-y,z
1/2+x,1/2+y,1/2+z
1/2-x,-y,1/2+z
1/2+x,1/2-y,-z
-x,1/2+y,1/2-z
1/2-x,1/2-y,1/2-z
1/2+x,y,1/2-z
1/2-x,1/2+y,z
x,1/2-y,1/2+z
loop_
_atom_site_type_symbol
_atom_site_label
_atom_site_fract_x
_atom_site_fract_y
_atom_site_fract_z
Si Si1 0.837996 0.683527 0.043765
Si Si2 0.540055 0.322066 0.281933
Si Si3 0.250000 0.312207 0.500000
Si Si4 0.406874 0.604725 0.015049
Si Si5 0.833604 0.968251 0.590768
O O1 0.892930 0.700502 0.903014
O O2 0.804430 0.758737 0.102615
O O3 0.750000 0.655248 0.000000
O O4 0.870602 0.610539 0.108484
O O5 0.500000 0.250000 0.219924
O O6 0.474677 0.364502 0.377443
O O7 0.574515 0.368145 0.149634
O O8 0.319705 0.361397 0.435345
O O9 0.397952 0.521286 0.017856
O O10 0.750000 0.976416 0.500000
O O11 0.817291 0.000000 0.750000
#
# Coordination Sequence:
#
# PCOD9532393 Si02
#       5
#    16  16   8  16  16
#     4   9  23  45  73 105 150 196 251 311 384 453
#     4  12  26  48  75 114 158 198 251 327 389 456
#     4  10  22  46  78 114 134 208 250 320 380 466
#     4  12  28  47  79 112 154 201 265 314 392 464
#     4  11  27  48  77 112 154 206 262 321 382 466
#
# _framework density 25.318503
#
# number of rings (size 3 to 8) (size 9 to 14) (size 15 to 20)
#    0.667    0.444    3.333    0.667    9.333    1.778 
#    0.000    0.000    0.000    0.000    0.000    0.000 
#    0.000    0.000    0.000    0.000    0.000    0.000 
#
# Total GULP energy -200852.032951 kJ/mol
# GULP energy per Si atom -5579.223138 kJ/mol
# Density = 2.526088 g / cm^3
# Si number density = 25.318503 Si / 1000 Ang^3
#
#
#
# Elastic Constant Matrix: (Units=GPa)
#
#
# Indices 1 2 3 4 5 6 
#
# 1 119.1339 17.1238 35.5320 0.0000 0.0000 0.0000
# 2 17.1238 112.8363 16.2489 0.0000 0.0000 0.0000
# 3 35.5320 16.2489 103.9710 0.0000 0.0000 0.0000
# 4 0.0000 0.0000 0.0000 37.5935 0.0000 0.0000
# 5 0.0000 0.0000 0.0000 0.0000 32.3743 0.0000
# 6 0.0000 0.0000 0.0000 0.0000 0.0000 33.6365
#
#
#
# Elastic Compliance Matrix: (Units=1/GPa)
#
#
# Indices 1 2 3 4 5 6 
#
# 1 0.009454 -0.000992 -0.003076 0.000000 0.000000 0.000000
# 2 -0.000992 0.009170 -0.001094 0.000000 0.000000 0.000000
# 3 -0.003076 -0.001094 0.010840 0.000000 0.000000 0.000000
# 4 0.000000 0.000000 0.000000 0.026600 0.000000 0.000000
# 5 0.000000 0.000000 0.000000 0.000000 0.030889 0.000000
# 6 0.000000 0.000000 0.000000 0.000000 0.000000 0.029730
#
#
# Mechanical properties :
#
#
# Convention : Reuss Voigt Hill
#
# Bulk Modulus (GPa) = 52.24431 52.63896 52.44164
# Shear Modulus (GPa) = 37.48485 38.52331 38.00408
#
# Velocity S-wave (km/s) = 3.85194 3.90493 3.87853
# Velocity P-wave (km/s) = 6.36105 6.41617 6.38867
#
# Compressibility (1/GPa) = 0.01914084
#
# Stress axis : x y z
#
# Youngs Moduli (GPa) = 105.77706 109.04555 92.24878
#
# Poissons Ratio (x) = 0.10815 0.28374
# Poissons Ratio (y) = 0.10491 0.10094
# Poissons Ratio (z) = 0.32535 0.11932
#
# Static dielectric constant tensor:
#      x y z
#    x 2.267290 0.000000 0.000000 
#    y 0.000000 2.116630 0.000000 
#    z 0.000000 0.000000 1.982930 
# 
# From -- ./inp_files/5317.got.cif
#   From: 2010.05.17/outbox.cif.g08.bks.cpg/sg73_3_cif.got.tgz:5317.got - 2010.06.03 17:35:07.
