data_PCOD9532674
_publ_section_title
;
Structure prediction by ZEFSAII (Michael W. Deem and Ramdas Pophale) SiO2 
 PCOD9532674
Probable space group: I B C A 
;
_chemical_formula_sum "Si O2"
_cell_formula_units_Z 96
_cell_length_a 20.401248
_cell_length_b 14.278389
_cell_length_c 13.930671
_cell_angle_alpha 90.000000
_cell_angle_beta 90.000000
_cell_angle_gamma 90.000000
_cell_volume 4057.962044
_symmetry_space_group_name_H-M "I B C A "
_symmetry_group_IT_number 73
_symmetry_cell_setting 'orthorhombic'
loop_
_space_group_symop_operation_xyz
x,y,z
-x,1/2-y,z
x,-y,1/2-z
1/2-x,y,-z
-x,-y,-z
x,1/2+y,-z
-x,y,1/2+z
1/2+x,-y,z
1/2+x,1/2+y,1/2+z
1/2-x,-y,1/2+z
1/2+x,1/2-y,-z
-x,1/2+y,1/2-z
1/2-x,1/2-y,1/2-z
1/2+x,y,1/2-z
1/2-x,1/2+y,z
x,1/2-y,1/2+z
loop_
_atom_site_type_symbol
_atom_site_label
_atom_site_fract_x
_atom_site_fract_y
_atom_site_fract_z
Si Si1 0.370772 0.071632 0.183215
Si Si2 0.500000 0.250000 0.484645
Si Si3 0.202614 0.358770 0.840242
Si Si4 0.508751 0.949152 0.603097
Si Si5 0.894885 0.000000 0.750000
Si Si6 0.136343 0.791689 0.531155
Si Si7 0.163438 0.278587 0.174318
O O1 0.338992 0.116641 0.087694
O O2 0.330107 0.000000 0.250000
O O3 0.432227 0.008798 0.150252
O O4 0.382328 0.838977 0.246419
O O5 0.478238 0.159613 0.422895
O O6 0.559061 0.214701 0.550618
O O7 0.155607 0.445846 0.820370
O O8 0.171243 0.296963 0.923730
O O9 0.280071 0.351472 0.858934
O O10 0.193476 0.300986 0.741797
O O11 0.500000 0.000000 0.500000
O O12 0.446240 0.952037 0.674841
O O13 0.140175 0.778993 0.417737
#
# Coordination Sequence:
#
# PCOD9532674 Si02
#       7
#    16   8  16  16   8  16  16
#     4  11  24  43  73 111 147 196 255 320 376 469
#     4  12  24  42  76 104 154 196 248 310 386 470
#     4  10  24  44  73 101 146 199 255 316 380 460
#     4  12  25  46  69 112 155 196 254 314 393 479
#     4  12  26  44  68 106 152 194 248 326 384 456
#     4  11  23  43  72 105 148 200 247 312 387 457
#     4  10  23  48  72 103 145 200 262 311 383 464
#
# _framework density 23.657195000000002
#
# number of rings (size 3 to 8) (size 9 to 14) (size 15 to 20)
#    0.000    1.000    2.500    3.500    1.167    1.333 
#    0.000    0.000    0.000    0.000    0.000    0.000 
#    0.000    0.000    0.000    0.000    0.000    0.000 
#
# Total GULP energy -267502.011821 kJ/mol
# GULP energy per Si atom -5572.958580 kJ/mol
# Density = 2.360335 g / cm^3
# Si number density = 23.657195 Si / 1000 Ang^3
#
#
#
# Elastic Constant Matrix: (Units=GPa)
#
#
# Indices 1 2 3 4 5 6 
#
# 1 46.0395 6.9562 6.7108 0.0000 0.0000 0.0000
# 2 6.9562 111.0606 34.2845 0.0000 0.0000 0.0000
# 3 6.7108 34.2845 132.9295 0.0000 0.0000 0.0000
# 4 0.0000 0.0000 0.0000 40.7015 0.0000 0.0000
# 5 0.0000 0.0000 0.0000 0.0000 -1.6494 0.0000
# 6 0.0000 0.0000 0.0000 0.0000 0.0000 13.4961
#
#
#
# Elastic Compliance Matrix: (Units=1/GPa)
#
#
# Indices 1 2 3 4 5 6 
#
# 1 0.022010 -0.001125 -0.000821 0.000000 0.000000 0.000000
# 2 -0.001125 0.009841 -0.002481 0.000000 0.000000 0.000000
# 3 -0.000821 -0.002481 0.008204 0.000000 0.000000 0.000000
# 4 0.000000 0.000000 0.000000 0.024569 0.000000 0.000000
# 5 0.000000 0.000000 0.000000 0.000000 -0.606296 0.000000
# 6 0.000000 0.000000 0.000000 0.000000 0.000000 0.074095
#
#
# Mechanical properties :
#
#
# Convention : Reuss Voigt Hill
#
# Bulk Modulus (GPa) = 32.05110 42.88140 37.46625
# Shear Modulus (GPa) = -11.15269 26.64819 7.74775
#
# Velocity S-wave (km/s) = -2.17360 3.35988 1.81166
# Velocity P-wave (km/s) = 2.69781 5.76344 4.49974
#
# Compressibility (1/GPa) = 0.03120017
#
# Stress axis : x y z
#
# Youngs Moduli (GPa) = 45.43355 101.62066 121.88922
#
# Poissons Ratio (x) = 0.11434 0.10007
# Poissons Ratio (y) = 0.05112 0.30243
# Poissons Ratio (z) = 0.03730 0.25214
#
# Static dielectric constant tensor:
#      x y z
#    x 2.040970 0.000000 0.000000 
#    y 0.000000 1.709350 0.000000 
#    z 0.000000 0.000000 1.919640 
# 
# From -- ./inp_files/18692.got.cif
#   From: 2010.05.17/outbox.cif.g08.bks.cpg/sg73_10_cif.got.tgz:18692.got - 2010.06.03 17:35:07.
