data_PCOD9532195
_publ_section_title
;
Structure prediction by ZEFSAII (Michael W. Deem and Ramdas Pophale) SiO2 
 PCOD9532195
Probable space group: I B C A 
;
_chemical_formula_sum "Si O2"
_cell_formula_units_Z 88
_cell_length_a 20.178070
_cell_length_b 14.019132
_cell_length_c 13.183424
_cell_angle_alpha 90.000000
_cell_angle_beta 90.000000
_cell_angle_gamma 90.000000
_cell_volume 3729.314151
_symmetry_space_group_name_H-M "I B C A "
_symmetry_group_IT_number 73
_symmetry_cell_setting 'orthorhombic'
loop_
_space_group_symop_operation_xyz
x,y,z
-x,1/2-y,z
x,-y,1/2-z
1/2-x,y,-z
-x,-y,-z
x,1/2+y,-z
-x,y,1/2+z
1/2+x,-y,z
1/2+x,1/2+y,1/2+z
1/2-x,-y,1/2+z
1/2+x,1/2-y,-z
-x,1/2+y,1/2-z
1/2-x,1/2-y,1/2-z
1/2+x,y,1/2-z
1/2-x,1/2+y,z
x,1/2-y,1/2+z
loop_
_atom_site_type_symbol
_atom_site_label
_atom_site_fract_x
_atom_site_fract_y
_atom_site_fract_z
Si Si1 0.384433 0.880660 0.426750
Si Si2 0.019035 0.390072 0.020153
Si Si3 0.240671 0.861344 0.263772
Si Si4 0.385323 0.321379 0.151730
Si Si5 0.500000 0.750000 0.696363
Si Si6 0.857184 0.000000 0.250000
Si Si7 0.750000 0.917384 0.000000
O O1 0.448391 0.846330 0.486190
O O2 0.356157 0.779414 0.388724
O O3 0.327506 0.943190 0.480111
O O4 0.401973 0.948294 0.332624
O O5 0.078172 0.369208 0.942918
O O6 0.028873 0.337170 0.127477
O O7 0.000000 0.500000 0.000000
O O8 0.250000 0.750000 0.250000
O O9 0.172662 0.882712 0.203591
O O10 0.236873 0.881345 0.383678
O O11 0.303478 0.918742 0.218004
O O12 0.441531 0.292334 0.233605
#
# Coordination Sequence:
#
# PCOD9532195 Si02
#       7
#    16  16  16  16   8   8   8
#     4  11  22  47  67 102 141 185 249 299 367 440
#     4  12  28  45  71 113 144 192 254 308 375 455
#     4  11  23  42  70 104 141 192 241 305 375 449
#     4  12  24  46  74 102 146 196 251 303 390 452
#     4  12  24  46  74  98 148 194 236 320 366 444
#     4  10  24  42  70  96 138 184 240 302 360 432
#     4  10  22  42  70  98 144 182 234 308 356 440
#
# _framework density 23.596831999999999
#
# number of rings (size 3 to 8) (size 9 to 14) (size 15 to 20)
#    0.000    0.727    7.273    1.091    2.545    5.091 
#    0.000    3.636    0.000    0.000    0.000    0.000 
#    0.000    0.000    0.000    0.000    0.000    0.000 
#
# Total GULP energy -244974.147278 kJ/mol
# GULP energy per Si atom -5567.594256 kJ/mol
# Density = 2.354313 g / cm^3
# Si number density = 23.596832 Si / 1000 Ang^3
#
#
#
# Elastic Constant Matrix: (Units=GPa)
#
#
# Indices 1 2 3 4 5 6 
#
# 1 74.2951 -17.9409 11.9325 0.0000 0.0000 0.0000
# 2 -17.9409 93.5314 4.2881 0.0000 0.0000 0.0000
# 3 11.9325 4.2881 78.3657 0.0000 0.0000 0.0000
# 4 0.0000 0.0000 0.0000 17.7839 0.0000 0.0000
# 5 0.0000 0.0000 0.0000 0.0000 42.5943 0.0000
# 6 0.0000 0.0000 0.0000 0.0000 0.0000 26.4689
#
#
#
# Elastic Compliance Matrix: (Units=1/GPa)
#
#
# Indices 1 2 3 4 5 6 
#
# 1 0.014541 0.002898 -0.002373 0.000000 0.000000 0.000000
# 2 0.002898 0.011296 -0.001059 0.000000 0.000000 0.000000
# 3 -0.002373 -0.001059 0.013180 0.000000 0.000000 0.000000
# 4 0.000000 0.000000 0.000000 0.056231 0.000000 0.000000
# 5 0.000000 0.000000 0.000000 0.000000 0.023477 0.000000
# 6 0.000000 0.000000 0.000000 0.000000 0.000000 0.037780
#
#
# Mechanical properties :
#
#
# Convention : Reuss Voigt Hill
#
# Bulk Modulus (GPa) = 26.35147 26.97238 26.66192
# Shear Modulus (GPa) = 29.37333 33.89693 31.63513
#
# Velocity S-wave (km/s) = 3.53200 3.79423 3.66546
# Velocity P-wave (km/s) = 5.27494 5.53627 5.40718
#
# Compressibility (1/GPa) = 0.03794854
#
# Stress axis : x y z
#
# Youngs Moduli (GPa) = 68.77246 88.52663 75.87293
#
# Poissons Ratio (x) = -0.25654 0.18002
# Poissons Ratio (y) = -0.19930 0.08038
# Poissons Ratio (z) = 0.16317 0.09378
#
# Static dielectric constant tensor:
#      x y z
#    x 2.088430 0.000000 0.000000 
#    y 0.000000 1.951130 0.000000 
#    z 0.000000 0.000000 1.926930 
# 
# From -- ./inp_files/13569.got.cif
#   From: 2010.05.17/outbox.cif.g08.bks.cpg/sg73_7_cif.got.tgz:13569.got - 2010.06.03 17:35:07.
