data_PCOD9532434
_publ_section_title
;
Structure prediction by ZEFSAII (Michael W. Deem and Ramdas Pophale) SiO2 
 PCOD9532434
Probable space group: I B C A 
;
_chemical_formula_sum "Si O2"
_cell_formula_units_Z 112
_cell_length_a 12.994758
_cell_length_b 28.202179
_cell_length_c 13.617635
_cell_angle_alpha 90.000000
_cell_angle_beta 90.000000
_cell_angle_gamma 90.000000
_cell_volume 4990.597563
_symmetry_space_group_name_H-M "I B C A "
_symmetry_group_IT_number 73
_symmetry_cell_setting 'orthorhombic'
loop_
_space_group_symop_operation_xyz
x,y,z
-x,1/2-y,z
x,-y,1/2-z
1/2-x,y,-z
-x,-y,-z
x,1/2+y,-z
-x,y,1/2+z
1/2+x,-y,z
1/2+x,1/2+y,1/2+z
1/2-x,-y,1/2+z
1/2+x,1/2-y,-z
-x,1/2+y,1/2-z
1/2-x,1/2-y,1/2-z
1/2+x,y,1/2-z
1/2-x,1/2+y,z
x,1/2-y,1/2+z
loop_
_atom_site_type_symbol
_atom_site_label
_atom_site_fract_x
_atom_site_fract_y
_atom_site_fract_z
Si Si1 0.191766 0.078864 0.406412
Si Si2 0.535493 0.130517 0.837004
Si Si3 0.979198 0.443913 0.989916
Si Si4 0.223578 0.609976 0.213791
Si Si5 0.806157 0.481507 0.854438
Si Si6 0.798996 0.289353 0.607461
Si Si7 0.838558 0.306880 0.202861
O O1 0.250000 0.099206 0.500000
O O2 0.216283 0.111512 0.316249
O O3 0.072102 0.073552 0.421847
O O4 0.248201 0.027683 0.392671
O O5 0.605124 0.107620 0.749670
O O6 0.615286 0.168999 0.883414
O O7 0.441239 0.161584 0.797622
O O8 0.495712 0.089584 0.913706
O O9 0.873255 0.450515 0.930986
O O10 0.000000 0.500000 0.000000
O O11 0.269538 0.560815 0.174160
O O12 0.251498 0.657373 0.157652
O O13 0.355045 0.500000 0.750000
O O14 0.750000 0.288083 0.500000
O O15 0.709014 0.292520 0.691337
O O16 0.852098 0.239515 0.637070
#
# Coordination Sequence:
#
# PCOD9532434 Si02
#       7
#    16  16  16  16  16  16  16
#     4  11  21  40  59  84 130 178 225 272 328 403
#     4  11  24  41  68 101 135 176 234 281 347 436
#     4  12  24  38  65  93 131 180 228 280 337 408
#     4  10  23  39  62  91 130 174 219 277 347 407
#     4  10  23  40  55  91 134 176 233 286 336 409
#     4  10  24  48  75 100 138 182 229 287 366 431
#     4  10  24  44  70 103 137 170 225 304 348 421
#
# _framework density 22.442202999999999
#
# number of rings (size 3 to 8) (size 9 to 14) (size 15 to 20)
#    0.000    1.429    2.857    1.286    8.000    2.857 
#    0.000    7.143    0.000    0.000    0.000    0.000 
#    0.000    0.000    0.000    0.000    0.000    0.000 
#
# Total GULP energy -311805.171237 kJ/mol
# GULP energy per Si atom -5567.949486 kJ/mol
# Density = 2.239112 g / cm^3
# Si number density = 22.442203 Si / 1000 Ang^3
#
#
#
# Elastic Constant Matrix: (Units=GPa)
#
#
# Indices 1 2 3 4 5 6 
#
# 1 95.2711 23.8269 27.3990 0.0000 0.0000 0.0000
# 2 23.8269 144.2714 33.0734 -0.0001 0.0000 0.0000
# 3 27.3990 33.0734 64.1203 -0.0002 0.0001 0.0002
# 4 0.0000 -0.0001 -0.0002 25.6033 0.0000 0.0000
# 5 0.0000 0.0000 0.0001 0.0000 30.8940 0.0000
# 6 0.0000 0.0000 0.0002 0.0000 0.0000 37.3599
#
#
#
# Elastic Compliance Matrix: (Units=1/GPa)
#
#
# Indices 1 2 3 4 5 6 
#
# 1 0.012074 -0.000920 -0.004685 0.000000 0.000000 0.000000
# 2 -0.000920 0.007931 -0.003698 0.000000 0.000000 0.000000
# 3 -0.004685 -0.003698 0.019505 0.000000 0.000000 0.000000
# 4 0.000000 0.000000 0.000000 0.039058 0.000000 0.000000
# 5 0.000000 0.000000 0.000000 0.000000 0.032369 0.000000
# 6 0.000000 0.000000 0.000000 0.000000 0.000000 0.026767
#
#
# Mechanical properties :
#
#
# Convention : Reuss Voigt Hill
#
# Bulk Modulus (GPa) = 47.83610 52.47350 50.15480
# Shear Modulus (GPa) = 30.62312 33.39566 32.00939
#
# Velocity S-wave (km/s) = 3.69797 3.86174 3.78074
# Velocity P-wave (km/s) = 6.29244 6.58152 6.43860
#
# Compressibility (1/GPa) = 0.02090471
#
# Stress axis : x y z
#
# Youngs Moduli (GPa) = 82.82454 126.08735 51.26970
#
# Poissons Ratio (x) = 0.11601 0.24018
# Poissons Ratio (y) = 0.07621 0.18958
# Poissons Ratio (z) = 0.38800 0.46623
#
# Static dielectric constant tensor:
#      x y z
#    x 1.822070 0.000000 0.000000 
#    y 0.000000 -0.483450 -0.000010 
#    z 0.000000 -0.000010 1.349680 
# 
# From -- ./inp_files/16344.got.cif
#   From: 2010.05.17/outbox.cif.g08.bks.cpg/sg73_9_cif.got.tgz:16344.got - 2010.06.03 17:35:07.
