data_PCOD9532037
_publ_section_title
;
Structure prediction by ZEFSAII (Michael W. Deem and Ramdas Pophale) SiO2 
 PCOD9532037
Probable space group: I B C A 
;
_chemical_formula_sum "Si O2"
_cell_formula_units_Z 96
_cell_length_a 19.431149
_cell_length_b 8.754199
_cell_length_c 23.688335
_cell_angle_alpha 90.000000
_cell_angle_beta 90.000000
_cell_angle_gamma 90.000000
_cell_volume 4029.483975
_symmetry_space_group_name_H-M "I B C A "
_symmetry_group_IT_number 73
_symmetry_cell_setting 'orthorhombic'
loop_
_space_group_symop_operation_xyz
x,y,z
-x,1/2-y,z
x,-y,1/2-z
1/2-x,y,-z
-x,-y,-z
x,1/2+y,-z
-x,y,1/2+z
1/2+x,-y,z
1/2+x,1/2+y,1/2+z
1/2-x,-y,1/2+z
1/2+x,1/2-y,-z
-x,1/2+y,1/2-z
1/2-x,1/2-y,1/2-z
1/2+x,y,1/2-z
1/2-x,1/2+y,z
x,1/2-y,1/2+z
loop_
_atom_site_type_symbol
_atom_site_label
_atom_site_fract_x
_atom_site_fract_y
_atom_site_fract_z
Si Si1 0.088892 0.920200 0.392924
Si Si2 0.295752 0.665777 0.390911
Si Si3 0.440566 0.846312 0.723475
Si Si4 0.642534 0.385319 0.200174
Si Si5 0.799899 0.970172 0.050090
Si Si6 0.428033 0.563880 0.595809
O O1 0.107730 0.902748 0.326095
O O2 0.090425 0.743561 0.411797
O O3 0.009635 0.966932 0.404459
O O4 0.141855 0.053061 0.408366
O O5 0.308836 0.765741 0.334278
O O6 0.227594 0.564179 0.395079
O O7 0.287112 0.795198 0.437338
O O8 0.500000 0.750000 0.693267
O O9 0.408313 0.733094 0.768181
O O10 0.469701 0.000000 0.750000
O O11 0.669087 0.500000 0.250000
O O12 0.600550 0.484835 0.153651
O O13 0.881641 0.989178 0.046545
O O14 0.750000 0.015445 0.000000
#
# Coordination Sequence:
#
# PCOD9532037 Si02
#       6
#    16  16  16  16  16  16
#     4  11  20  38  65 108 144 181 220 294 349 407
#     4  11  25  42  72 100 136 184 239 296 355 433
#     4  12  20  32  59  98 149 200 234 268 336 418
#     4  11  21  36  60 100 144 192 239 277 339 425
#     4  11  25  49  74  96 127 184 242 304 377 441
#     4  10  22  40  69 104 146 180 236 293 349 422
#
# _framework density 23.824390999999999
#
# number of rings (size 3 to 8) (size 9 to 14) (size 15 to 20)
#    0.000    1.000    5.000    3.000    0.000    2.000 
#    0.000    5.000    7.333    4.000    0.000    0.000 
#    0.000    0.000    0.000    0.000    0.000    0.000 
#
# Total GULP energy -267749.448892 kJ/mol
# GULP energy per Si atom -5578.113519 kJ/mol
# Density = 2.377017 g / cm^3
# Si number density = 23.824391 Si / 1000 Ang^3
#
#
#
# Elastic Constant Matrix: (Units=GPa)
#
#
# Indices 1 2 3 4 5 6 
#
# 1 111.8111 48.6304 29.3146 0.0000 0.0000 0.0000
# 2 48.6304 149.4922 21.1898 0.0000 0.0000 0.0000
# 3 29.3146 21.1898 61.0051 0.0000 0.0000 0.0000
# 4 0.0000 0.0000 0.0000 36.4551 0.0000 0.0000
# 5 0.0000 0.0000 0.0000 0.0000 23.3019 0.0000
# 6 0.0000 0.0000 0.0000 0.0000 0.0000 49.3455
#
#
#
# Elastic Compliance Matrix: (Units=1/GPa)
#
#
# Indices 1 2 3 4 5 6 
#
# 1 0.011452 -0.003098 -0.004427 0.000000 0.000000 0.000000
# 2 -0.003098 0.007874 -0.001246 0.000000 0.000000 0.000000
# 3 -0.004427 -0.001246 0.018952 0.000000 0.000000 0.000000
# 4 0.000000 0.000000 0.000000 0.027431 0.000000 0.000000
# 5 0.000000 0.000000 0.000000 0.000000 0.042915 0.000000
# 6 0.000000 0.000000 0.000000 0.000000 0.000000 0.020265
#
#
# Mechanical properties :
#
#
# Convention : Reuss Voigt Hill
#
# Bulk Modulus (GPa) = 48.22608 57.84199 53.03403
# Shear Modulus (GPa) = 32.60678 36.69876 34.65277
#
# Velocity S-wave (km/s) = 3.70351 3.92903 3.81794
# Velocity P-wave (km/s) = 6.21082 6.70181 6.46098
#
# Compressibility (1/GPa) = 0.02073567
#
# Stress axis : x y z
#
# Youngs Moduli (GPa) = 87.32403 127.00530 52.76433
#
# Poissons Ratio (x) = 0.39343 0.23358
# Poissons Ratio (y) = 0.27051 0.06576
# Poissons Ratio (z) = 0.38657 0.15829
#
# Static dielectric constant tensor:
#      x y z
#    x 1.917530 0.000000 0.000000 
#    y 0.000000 1.897170 0.000000 
#    z 0.000000 0.000000 2.002720 
# 
# From -- ./inp_files/32618.got.cif
#   From: 2010.05.17/outbox.cif.g08.bks.cpg/sg73_17_cif.got.tgz:32618.got - 2010.06.03 17:35:07.
