data_PCOD9532626
_publ_section_title
;
Structure prediction by ZEFSAII (Michael W. Deem and Ramdas Pophale) SiO2 
 PCOD9532626
Probable space group: I B C A 
;
_chemical_formula_sum "Si O2"
_cell_formula_units_Z 64
_cell_length_a 10.138160
_cell_length_b 18.544205
_cell_length_c 14.155907
_cell_angle_alpha 90.000000
_cell_angle_beta 90.000000
_cell_angle_gamma 90.000000
_cell_volume 2661.368801
_symmetry_space_group_name_H-M "I B C A "
_symmetry_group_IT_number 73
_symmetry_cell_setting 'orthorhombic'
loop_
_space_group_symop_operation_xyz
x,y,z
-x,1/2-y,z
x,-y,1/2-z
1/2-x,y,-z
-x,-y,-z
x,1/2+y,-z
-x,y,1/2+z
1/2+x,-y,z
1/2+x,1/2+y,1/2+z
1/2-x,-y,1/2+z
1/2+x,1/2-y,-z
-x,1/2+y,1/2-z
1/2-x,1/2-y,1/2-z
1/2+x,y,1/2-z
1/2-x,1/2+y,z
x,1/2-y,1/2+z
loop_
_atom_site_type_symbol
_atom_site_label
_atom_site_fract_x
_atom_site_fract_y
_atom_site_fract_z
Si Si1 0.566044 0.901572 0.831272
Si Si2 0.117995 0.966059 0.940446
Si Si3 0.187735 0.829620 0.268789
Si Si4 0.963043 0.331746 0.032670
O O1 0.428083 0.865846 0.795587
O O2 0.683607 0.878139 0.764080
O O3 0.590553 0.986448 0.848271
O O4 0.590201 0.865112 0.934925
O O5 0.087897 0.881416 0.939141
O O6 0.250000 0.979620 0.000000
O O7 0.000000 0.000000 0.000000
O O8 0.250000 0.750000 0.250000
O O9 0.129224 0.831964 0.375102
O O10 0.000000 0.250000 0.013021
#
# Coordination Sequence:
#
# PCOD9532626 Si02
#       4
#    16  16  16  16
#     4  11  25  46  72 104 148 192 242 307 373 442
#     4  10  23  45  72 105 142 191 250 301 371 467
#     4  12  25  45  71 108 145 189 251 303 365 458
#     4  11  24  44  72 104 143 190 238 306 379 440
#
# _framework density 24.047775999999999
#
# number of rings (size 3 to 8) (size 9 to 14) (size 15 to 20)
#    0.000    1.000    0.000    7.500    0.000   11.000 
#    0.000    5.000    0.000    0.000    0.000    0.000 
#    0.000    0.000    0.000    0.000    0.000    0.000 
#
# Total GULP energy -178600.841793 kJ/mol
# GULP energy per Si atom -5581.276306 kJ/mol
# Density = 2.399304 g / cm^3
# Si number density = 24.047776 Si / 1000 Ang^3
#
#
#
# Elastic Constant Matrix: (Units=GPa)
#
#
# Indices 1 2 3 4 5 6 
#
# 1 191.0717 64.6780 57.4412 0.0000 0.0000 0.0000
# 2 64.6780 161.2407 17.6610 0.0001 0.0000 0.0000
# 3 57.4412 17.6610 142.5041 0.0001 0.0000 0.0000
# 4 0.0000 0.0001 0.0001 40.5846 0.0000 0.0000
# 5 0.0000 0.0000 0.0000 0.0000 50.9226 0.0000
# 6 0.0000 0.0000 0.0000 0.0000 0.0000 37.1544
#
#
#
# Elastic Compliance Matrix: (Units=1/GPa)
#
#
# Indices 1 2 3 4 5 6 
#
# 1 0.006799 -0.002460 -0.002436 0.000000 0.000000 0.000000
# 2 -0.002460 0.007178 0.000102 0.000000 0.000000 0.000000
# 3 -0.002436 0.000102 0.007986 0.000000 0.000000 0.000000
# 4 0.000000 0.000000 0.000000 0.024640 0.000000 0.000000
# 5 0.000000 0.000000 0.000000 0.000000 0.019638 0.000000
# 6 0.000000 0.000000 0.000000 0.000000 0.000000 0.026915
#
#
# Mechanical properties :
#
#
# Convention : Reuss Voigt Hill
#
# Bulk Modulus (GPa) = 80.80605 86.04187 83.42396
# Shear Modulus (GPa) = 46.78694 49.40139 48.09417
#
# Velocity S-wave (km/s) = 4.41566 4.53736 4.47692
# Velocity P-wave (km/s) = 7.72481 7.95659 7.84156
#
# Compressibility (1/GPa) = 0.01237531
#
# Stress axis : x y z
#
# Youngs Moduli (GPa) = 147.08801 139.32169 125.21298
#
# Poissons Ratio (x) = 0.34278 0.30496
# Poissons Ratio (y) = 0.36189 -0.01279
# Poissons Ratio (z) = 0.35823 -0.01424
#
# Static dielectric constant tensor:
#      x y z
#    x 1.886470 0.000000 0.000000 
#    y 0.000000 1.943940 0.000000 
#    z 0.000000 0.000000 1.978560 
# 
# From -- ./inp_files/20558.got.cif
#   From: 2010.05.17/outbox.cif.g08.bks.cpg/sg73_11_cif.got.tgz:20558.got - 2010.06.03 17:35:07.
