data_PCOD9532728
_publ_section_title
;
Structure prediction by ZEFSAII (Michael W. Deem and Ramdas Pophale) SiO2 
 PCOD9532728
Probable space group: I B C A 
;
_chemical_formula_sum "Si O2"
_cell_formula_units_Z 120
_cell_length_a 23.329690
_cell_length_b 10.186564
_cell_length_c 25.587369
_cell_angle_alpha 90.000000
_cell_angle_beta 90.000000
_cell_angle_gamma 90.000000
_cell_volume 6080.822386
_symmetry_space_group_name_H-M "I B C A "
_symmetry_group_IT_number 73
_symmetry_cell_setting 'orthorhombic'
loop_
_space_group_symop_operation_xyz
x,y,z
-x,1/2-y,z
x,-y,1/2-z
1/2-x,y,-z
-x,-y,-z
x,1/2+y,-z
-x,y,1/2+z
1/2+x,-y,z
1/2+x,1/2+y,1/2+z
1/2-x,-y,1/2+z
1/2+x,1/2-y,-z
-x,1/2+y,1/2-z
1/2-x,1/2-y,1/2-z
1/2+x,y,1/2-z
1/2-x,1/2+y,z
x,1/2-y,1/2+z
loop_
_atom_site_type_symbol
_atom_site_label
_atom_site_fract_x
_atom_site_fract_y
_atom_site_fract_z
Si Si1 0.991550 0.030296 0.134140
Si Si2 0.720442 0.638495 0.098946
Si Si3 0.218684 0.097581 0.054503
Si Si4 0.078808 0.353075 0.227169
Si Si5 0.594545 0.089281 0.954201
Si Si6 0.289771 0.640656 0.720742
Si Si7 0.500000 0.750000 0.311481
Si Si8 0.916825 0.888251 0.951214
O O1 0.965828 0.125050 0.179474
O O2 0.939672 0.026390 0.093458
O O3 0.045711 0.080194 0.100228
O O4 0.003115 0.885041 0.156479
O O5 0.765115 0.547347 0.069987
O O6 0.738638 0.789178 0.093253
O O7 0.660189 0.605814 0.067886
O O8 0.722907 0.610542 0.160144
O O9 0.150973 0.108584 0.057288
O O10 0.250000 0.127760 0.000000
O O11 0.083142 0.500000 0.250000
O O12 0.143811 0.311144 0.216445
O O13 0.053395 0.261799 0.272133
O O14 0.571750 0.236297 0.965944
O O15 0.578842 0.996462 0.003061
O O16 0.286325 0.500000 0.750000
O O17 0.250000 0.750000 0.750000
#
# Coordination Sequence:
#
# PCOD9532728 Si02
#       8
#    16  16  16  16  16  16   8  16
#     4  11  23  43  65  96 137 171 227 289 348 401
#     4  11  23  41  66  97 132 180 219 279 345 401
#     4  11  23  41  63  96 132 174 226 271 337 410
#     4   9  21  42  65  93 133 177 223 277 346 398
#     4  11  24  43  66  95 132 174 224 279 350 409
#     4  11  23  43  69  99 136 178 224 279 340 412
#     4  10  24  40  70 100 122 182 234 280 332 432
#     4  11  26  40  69  96 130 179 222 283 339 415
#
# _framework density 19.734172999999998
#
# number of rings (size 3 to 8) (size 9 to 14) (size 15 to 20)
#    0.000    1.333    2.667    2.000    5.600    1.067 
#    0.000    2.000    0.000    0.000    0.000    0.000 
#    0.000    0.000    0.000    0.000    0.000    0.000 
#
# Total GULP energy -334343.959299 kJ/mol
# GULP energy per Si atom -5572.399322 kJ/mol
# Density = 1.968926 g / cm^3
# Si number density = 19.734173 Si / 1000 Ang^3
#
#
#
# Elastic Constant Matrix: (Units=GPa)
#
#
# Indices 1 2 3 4 5 6 
#
# 1 33.0025 11.4532 3.3443 0.0000 0.0000 0.0000
# 2 11.4532 111.4533 43.0680 0.0000 0.0000 0.0000
# 3 3.3443 43.0680 95.8039 0.0000 0.0000 0.0000
# 4 0.0000 0.0000 0.0000 43.5477 0.0000 0.0000
# 5 0.0000 0.0000 0.0000 0.0000 13.5323 0.0000
# 6 0.0000 0.0000 0.0000 0.0000 0.0000 26.8051
#
#
#
# Elastic Compliance Matrix: (Units=1/GPa)
#
#
# Indices 1 2 3 4 5 6 
#
# 1 0.031436 -0.003396 0.000429 0.000000 0.000000 0.000000
# 2 -0.003396 0.011226 -0.004928 0.000000 0.000000 0.000000
# 3 0.000429 -0.004928 0.012638 0.000000 0.000000 0.000000
# 4 0.000000 0.000000 0.000000 0.022963 0.000000 0.000000
# 5 0.000000 0.000000 0.000000 0.000000 0.073897 0.000000
# 6 0.000000 0.000000 0.000000 0.000000 0.000000 0.037306
#
#
# Mechanical properties :
#
#
# Convention : Reuss Voigt Hill
#
# Bulk Modulus (GPa) = 25.30990 39.55454 32.43222
# Shear Modulus (GPa) = 22.89104 28.93664 25.91384
#
# Velocity S-wave (km/s) = 3.40953 3.83341 3.62767
# Velocity P-wave (km/s) = 5.32476 6.29925 5.83240
#
# Compressibility (1/GPa) = 0.03951023
#
# Stress axis : x y z
#
# Youngs Moduli (GPa) = 31.81081 89.08197 79.12469
#
# Poissons Ratio (x) = 0.30256 -0.03398
# Poissons Ratio (y) = 0.10804 0.38991
# Poissons Ratio (z) = -0.01366 0.43898
#
# Static dielectric constant tensor:
#      x y z
#    x 1.692470 0.000000 0.000000 
#    y 0.000000 1.714700 0.000000 
#    z 0.000000 0.000000 1.696290 
# 
# From -- ./inp_files/32911.got.cif
#   From: 2010.05.17/outbox.cif.g08.bks.cpg/sg73_17_cif.got.tgz:32911.got - 2010.06.03 17:35:07.
