data_PCOD9532645
_publ_section_title
;
Structure prediction by ZEFSAII (Michael W. Deem and Ramdas Pophale) SiO2 
 PCOD9532645
Probable space group: I B C A 
;
_chemical_formula_sum "Si O2"
_cell_formula_units_Z 96
_cell_length_a 18.839628
_cell_length_b 14.199953
_cell_length_c 15.249240
_cell_angle_alpha 90.000000
_cell_angle_beta 90.000000
_cell_angle_gamma 90.000000
_cell_volume 4079.504624
_symmetry_space_group_name_H-M "I B C A "
_symmetry_group_IT_number 73
_symmetry_cell_setting 'orthorhombic'
loop_
_space_group_symop_operation_xyz
x,y,z
-x,1/2-y,z
x,-y,1/2-z
1/2-x,y,-z
-x,-y,-z
x,1/2+y,-z
-x,y,1/2+z
1/2+x,-y,z
1/2+x,1/2+y,1/2+z
1/2-x,-y,1/2+z
1/2+x,1/2-y,-z
-x,1/2+y,1/2-z
1/2-x,1/2-y,1/2-z
1/2+x,y,1/2-z
1/2-x,1/2+y,z
x,1/2-y,1/2+z
loop_
_atom_site_type_symbol
_atom_site_label
_atom_site_fract_x
_atom_site_fract_y
_atom_site_fract_z
Si Si1 0.441824 0.431546 0.456776
Si Si2 0.682563 0.089030 0.562433
Si Si3 0.873156 0.935455 0.672347
Si Si4 0.159804 0.078068 0.685492
Si Si5 0.734990 0.781242 0.394132
Si Si6 0.004009 0.858740 0.777448
O O1 0.500000 0.500000 0.500000
O O2 0.390871 0.371214 0.520013
O O3 0.384565 0.498208 0.409916
O O4 0.476961 0.374892 0.377059
O O5 0.750000 0.072061 0.500000
O O6 0.713149 0.173069 0.623792
O O7 0.657897 0.989020 0.600400
O O8 0.827727 0.847793 0.640912
O O9 0.950387 0.907121 0.709617
O O10 0.842128 0.000000 0.750000
O O11 0.198346 0.174315 0.657549
O O12 0.083516 0.103014 0.725232
O O13 0.193571 0.000000 0.750000
O O14 0.750000 0.787422 0.500000
O O15 0.000000 0.750000 0.757184
#
# Coordination Sequence:
#
# PCOD9532645 Si02
#       6
#    16  16  16  16  16  16
#     4  11  22  42  72  98 143 195 242 299 377 439
#     4  11  26  45  73 106 145 191 249 307 370 442
#     4  10  23  46  69 101 147 190 238 306 370 434
#     4  12  25  46  73 105 147 193 242 302 375 446
#     4  11  26  45  74 108 143 191 250 303 367 439
#     4  11  27  43  71 107 143 189 252 306 367 451
#
# _framework density 23.532268999999999
#
# number of rings (size 3 to 8) (size 9 to 14) (size 15 to 20)
#    0.000    1.000    1.667    4.500    7.000    2.000 
#    0.000    0.000    0.000    0.000    0.000    0.000 
#    0.000    0.000    0.000    0.000    0.000    0.000 
#
# Total GULP energy -268202.108597 kJ/mol
# GULP energy per Si atom -5587.543929 kJ/mol
# Density = 2.347871 g / cm^3
# Si number density = 23.532269 Si / 1000 Ang^3
#
#
#
# Elastic Constant Matrix: (Units=GPa)
#
#
# Indices 1 2 3 4 5 6 
#
# 1 151.2237 39.6835 18.7290 0.0000 0.0000 0.0000
# 2 39.6835 122.2200 3.1015 0.0000 0.0000 0.0000
# 3 18.7290 3.1015 66.9909 0.0000 0.0000 0.0000
# 4 0.0000 0.0000 0.0000 27.0937 0.0000 0.0000
# 5 0.0000 0.0000 0.0000 0.0000 -8.6792 0.0000
# 6 0.0000 0.0000 0.0000 0.0000 0.0000 37.4505
#
#
#
# Elastic Compliance Matrix: (Units=1/GPa)
#
#
# Indices 1 2 3 4 5 6 
#
# 1 0.007483 -0.002379 -0.001982 0.000000 0.000000 0.000000
# 2 -0.002379 0.008948 0.000251 0.000000 0.000000 0.000000
# 3 -0.001982 0.000251 0.015470 0.000000 0.000000 0.000000
# 4 0.000000 0.000000 0.000000 0.036909 0.000000 0.000000
# 5 0.000000 0.000000 0.000000 0.000000 -0.115218 0.000000
# 6 0.000000 0.000000 0.000000 0.000000 0.000000 0.026702
#
#
# Mechanical properties :
#
#
# Convention : Reuss Voigt Hill
#
# Bulk Modulus (GPa) = 42.22920 51.49583 46.86252
# Shear Modulus (GPa) = -1391.65054 29.76771 -680.94141
#
# Velocity S-wave (km/s) = -24.34468 3.56051 -17.02919
# Velocity P-wave (km/s) = 27.78910 6.23165 19.14942
#
# Compressibility (1/GPa) = 0.02368030
#
# Stress axis : x y z
#
# Youngs Moduli (GPa) = 133.64516 111.75558 64.64189
#
# Poissons Ratio (x) = 0.26589 0.12811
# Poissons Ratio (y) = 0.31797 -0.01622
# Poissons Ratio (z) = 0.26485 -0.02804
#
# Static dielectric constant tensor:
#      x y z
#    x 1.916080 0.000000 0.000000 
#    y 0.000000 1.822300 0.000000 
#    z 0.000000 0.000000 2.024680 
# 
# From -- ./inp_files/18650.got.cif
#   From: 2010.05.17/outbox.cif.g08.bks.cpg/sg73_10_cif.got.tgz:18650.got - 2010.06.03 17:35:07.
