data_PCOD9532361
_publ_section_title
;
Structure prediction by ZEFSAII (Michael W. Deem and Ramdas Pophale) SiO2 
 PCOD9532361
Probable space group: I B C A 
;
_chemical_formula_sum "Si O2"
_cell_formula_units_Z 112
_cell_length_a 23.679446
_cell_length_b 14.978777
_cell_length_c 14.310800
_cell_angle_alpha 90.000000
_cell_angle_beta 90.000000
_cell_angle_gamma 90.000000
_cell_volume 5075.885361
_symmetry_space_group_name_H-M "I B C A "
_symmetry_group_IT_number 73
_symmetry_cell_setting 'orthorhombic'
loop_
_space_group_symop_operation_xyz
x,y,z
-x,1/2-y,z
x,-y,1/2-z
1/2-x,y,-z
-x,-y,-z
x,1/2+y,-z
-x,y,1/2+z
1/2+x,-y,z
1/2+x,1/2+y,1/2+z
1/2-x,-y,1/2+z
1/2+x,1/2-y,-z
-x,1/2+y,1/2-z
1/2-x,1/2-y,1/2-z
1/2+x,y,1/2-z
1/2-x,1/2+y,z
x,1/2-y,1/2+z
loop_
_atom_site_type_symbol
_atom_site_label
_atom_site_fract_x
_atom_site_fract_y
_atom_site_fract_z
Si Si1 0.706050 0.746860 0.664962
Si Si2 0.568199 0.000000 0.250000
Si Si3 0.874061 0.996826 0.094497
Si Si4 0.082321 0.687834 0.345310
Si Si5 0.500000 0.750000 0.003228
Si Si6 0.257348 0.937089 0.106889
Si Si7 0.026043 0.879355 0.664105
Si Si8 0.339567 0.442176 0.384892
O O1 0.750000 0.750000 0.750000
O O2 0.641721 0.773034 0.689752
O O3 0.729002 0.832064 0.606912
O O4 0.698253 0.648372 0.619878
O O5 0.526438 0.942301 0.313162
O O6 0.607860 0.938931 0.185404
O O7 0.915547 0.930755 0.146549
O O8 0.903642 0.093039 0.105344
O O9 0.812579 0.010358 0.140776
O O10 0.863491 0.964072 0.988335
O O11 0.040805 0.675620 0.257711
O O12 0.053256 0.743377 0.427759
O O13 0.489728 0.670268 0.930946
O O14 0.199347 0.973700 0.148289
O O15 0.250000 0.964633 0.000000
#
# Coordination Sequence:
#
# PCOD9532361 Si02
#       8
#    16   8  16  16   8  16  16  16
#     4  11  25  43  69 104 144 190 237 312 370 437
#     4  12  26  42  68 104 142 184 256 302 368 444
#     4  10  22  45  73  99 138 190 244 300 372 442
#     4  11  25  47  68 106 149 186 252 309 366 457
#     4  12  28  44  72 102 152 192 244 308 376 448
#     4   9  22  45  68 102 139 181 241 297 361 443
#     4  12  26  45  73 105 139 201 240 309 375 445
#     4  11  24  43  72 104 144 193 243 308 374 447
#
# _framework density 22.065114999999999
#
# number of rings (size 3 to 8) (size 9 to 14) (size 15 to 20)
#    0.000    1.143    1.429    3.000    8.000    2.857 
#    7.714    0.000    0.000    0.000    0.000    0.000 
#    0.000    0.000    0.000    0.000    0.000    0.000 
#
# Total GULP energy -312681.883564 kJ/mol
# GULP energy per Si atom -5583.605064 kJ/mol
# Density = 2.201489 g / cm^3
# Si number density = 22.065115 Si / 1000 Ang^3
#
#
#
# Elastic Constant Matrix: (Units=GPa)
#
#
# Indices 1 2 3 4 5 6 
#
# 1 127.1916 62.8611 62.1092 0.0000 0.0000 0.0000
# 2 62.8611 84.9151 38.8902 0.0000 0.0000 0.0000
# 3 62.1092 38.8902 128.1866 0.0000 0.0000 0.0000
# 4 0.0000 0.0000 0.0000 34.2004 0.0000 0.0000
# 5 0.0000 0.0000 0.0000 0.0000 21.1482 0.0000
# 6 0.0000 0.0000 0.0000 0.0000 0.0000 29.0705
#
#
#
# Elastic Compliance Matrix: (Units=1/GPa)
#
#
# Indices 1 2 3 4 5 6 
#
# 1 0.014165 -0.008527 -0.004276 0.000000 0.000000 0.000000
# 2 -0.008527 0.018811 -0.001575 0.000000 0.000000 0.000000
# 3 -0.004276 -0.001575 0.010351 0.000000 0.000000 0.000000
# 4 0.000000 0.000000 0.000000 0.029239 0.000000 0.000000
# 5 0.000000 0.000000 0.000000 0.000000 0.047285 0.000000
# 6 0.000000 0.000000 0.000000 0.000000 0.000000 0.034399
#
#
# Mechanical properties :
#
#
# Convention : Reuss Voigt Hill
#
# Bulk Modulus (GPa) = 68.63946 74.22383 71.43164
# Shear Modulus (GPa) = 26.61510 28.64602 27.63056
#
# Velocity S-wave (km/s) = 3.47682 3.60703 3.54252
# Velocity P-wave (km/s) = 6.87698 7.14557 7.01256
#
# Compressibility (1/GPa) = 0.01456888
#
# Stress axis : x y z
#
# Youngs Moduli (GPa) = 70.59838 53.16153 96.61092
#
# Poissons Ratio (x) = 0.45333 0.41310
# Poissons Ratio (y) = 0.60203 0.15218
# Poissons Ratio (z) = 0.30187 0.08374
#
# Static dielectric constant tensor:
#      x y z
#    x 1.800040 0.000000 0.000000 
#    y 0.000000 1.860250 0.000000 
#    z 0.000000 0.000000 1.817060 
# 
# From -- ./inp_files/19442.got.cif
#   From: 2010.05.17/outbox.cif.g08.bks.cpg/sg73_10_cif.got.tgz:19442.got - 2010.06.03 17:35:07.
