data_PCOD9532031
_publ_section_title
;
Structure prediction by ZEFSAII (Michael W. Deem and Ramdas Pophale) SiO2 
 PCOD9532031
Probable space group: I B C A 
;
_chemical_formula_sum "Si O2"
_cell_formula_units_Z 80
_cell_length_a 24.289645
_cell_length_b 9.066450
_cell_length_c 18.116433
_cell_angle_alpha 90.000000
_cell_angle_beta 90.000000
_cell_angle_gamma 90.000000
_cell_volume 3989.616309
_symmetry_space_group_name_H-M "I B C A "
_symmetry_group_IT_number 73
_symmetry_cell_setting 'orthorhombic'
loop_
_space_group_symop_operation_xyz
x,y,z
-x,1/2-y,z
x,-y,1/2-z
1/2-x,y,-z
-x,-y,-z
x,1/2+y,-z
-x,y,1/2+z
1/2+x,-y,z
1/2+x,1/2+y,1/2+z
1/2-x,-y,1/2+z
1/2+x,1/2-y,-z
-x,1/2+y,1/2-z
1/2-x,1/2-y,1/2-z
1/2+x,y,1/2-z
1/2-x,1/2+y,z
x,1/2-y,1/2+z
loop_
_atom_site_type_symbol
_atom_site_label
_atom_site_fract_x
_atom_site_fract_y
_atom_site_fract_z
Si Si1 0.834980 0.500000 0.250000
Si Si2 0.145698 0.142757 0.587388
Si Si3 0.757602 0.177542 0.830327
Si Si4 0.014659 0.500000 0.250000
Si Si5 0.926038 0.727559 0.291210
Si Si6 0.192691 0.361294 0.464796
O O1 0.795737 0.534008 0.181254
O O2 0.873344 0.640842 0.260996
O O3 0.197263 0.136318 0.643138
O O4 0.092765 0.195624 0.632835
O O5 0.165720 0.252429 0.523794
O O6 0.146613 0.981488 0.553018
O O7 0.750000 0.250000 0.750000
O O8 0.787419 0.276996 0.891398
O O9 0.054469 0.641150 0.235547
O O10 0.971736 0.596782 0.300070
O O11 0.250000 0.425494 0.500000
#
# Coordination Sequence:
#
# PCOD9532031 Si02
#       6
#     8  16  16   8  16  16
#     4  11  22  35  60 102 128 167 214 267 326 394
#     4  11  23  38  60  89 134 180 219 251 335 395
#     4  11  21  35  58  94 141 173 217 265 299 396
#     4   9  22  45  64  96 116 151 214 307 342 382
#     4  10  22  40  68  91 126 160 219 283 352 396
#     4  10  23  38  55  88 143 191 215 256 307 396
#
# _framework density 20.052053999999998
#
# number of rings (size 3 to 8) (size 9 to 14) (size 15 to 20)
#    0.000    1.600    2.000    3.000    8.400    0.800 
#    0.000    0.000    0.000    4.800    0.000    0.000 
#    0.000    0.000    0.000    0.000    0.000    0.000 
#
# Total GULP energy -222833.739795 kJ/mol
# GULP energy per Si atom -5570.843495 kJ/mol
# Density = 2.000641 g / cm^3
# Si number density = 20.052054 Si / 1000 Ang^3
#
#
#
# Elastic Constant Matrix: (Units=GPa)
#
#
# Indices 1 2 3 4 5 6 
#
# 1 86.1502 56.1247 30.6479 0.0000 0.0000 0.0000
# 2 56.1247 112.9690 31.8653 0.0000 0.0000 0.0000
# 3 30.6479 31.8653 71.3567 0.0000 0.0000 0.0000
# 4 0.0000 0.0000 0.0000 26.6025 0.0000 0.0000
# 5 0.0000 0.0000 0.0000 0.0000 17.0353 0.0000
# 6 0.0000 0.0000 0.0000 0.0000 0.0000 50.3993
#
#
#
# Elastic Compliance Matrix: (Units=1/GPa)
#
#
# Indices 1 2 3 4 5 6 
#
# 1 0.018266 -0.007851 -0.004339 0.000000 0.000000 0.000000
# 2 -0.007851 0.013502 -0.002658 0.000000 0.000000 0.000000
# 3 -0.004339 -0.002658 0.017065 0.000000 0.000000 0.000000
# 4 0.000000 0.000000 0.000000 0.037590 0.000000 0.000000
# 5 0.000000 0.000000 0.000000 0.000000 0.058701 0.000000
# 6 0.000000 0.000000 0.000000 0.000000 0.000000 0.019842
#
#
# Mechanical properties :
#
#
# Convention : Reuss Voigt Hill
#
# Bulk Modulus (GPa) = 52.25449 56.41684 54.33567
# Shear Modulus (GPa) = 24.87060 28.92997 26.90028
#
# Velocity S-wave (km/s) = 3.52561 3.80247 3.66665
# Velocity P-wave (km/s) = 6.53370 6.89018 6.71431
#
# Compressibility (1/GPa) = 0.01913711
#
# Stress axis : x y z
#
# Youngs Moduli (GPa) = 54.74664 74.06311 58.60062
#
# Poissons Ratio (x) = 0.58145 0.25429
# Poissons Ratio (y) = 0.42980 0.15573
# Poissons Ratio (z) = 0.23757 0.19683
#
# Static dielectric constant tensor:
#      x y z
#    x 1.751600 0.000000 0.000000 
#    y 0.000000 0.997950 0.000000 
#    z 0.000000 0.000000 1.707320 
# 
# From -- ./inp_files/7789.got.cif
#   From: 2010.05.17/outbox.cif.g08.bks.cpg/sg73_4_cif.got.tgz:7789.got - 2010.06.03 17:35:07.
