data_PCOD9532612
_publ_section_title
;
Structure prediction by ZEFSAII (Michael W. Deem and Ramdas Pophale) SiO2 
 PCOD9532612
Probable space group: I B C A 
;
_chemical_formula_sum "Si O2"
_cell_formula_units_Z 72
_cell_length_a 12.832761
_cell_length_b 12.899007
_cell_length_c 19.166086
_cell_angle_alpha 90.000000
_cell_angle_beta 90.000000
_cell_angle_gamma 90.000000
_cell_volume 3172.559800
_symmetry_space_group_name_H-M "I B C A "
_symmetry_group_IT_number 73
_symmetry_cell_setting 'orthorhombic'
loop_
_space_group_symop_operation_xyz
x,y,z
-x,1/2-y,z
x,-y,1/2-z
1/2-x,y,-z
-x,-y,-z
x,1/2+y,-z
-x,y,1/2+z
1/2+x,-y,z
1/2+x,1/2+y,1/2+z
1/2-x,-y,1/2+z
1/2+x,1/2-y,-z
-x,1/2+y,1/2-z
1/2-x,1/2-y,1/2-z
1/2+x,y,1/2-z
1/2-x,1/2+y,z
x,1/2-y,1/2+z
loop_
_atom_site_type_symbol
_atom_site_label
_atom_site_fract_x
_atom_site_fract_y
_atom_site_fract_z
Si Si1 0.940884 0.344310 0.777253
Si Si2 0.775215 0.000000 0.250000
Si Si3 0.325706 0.251089 0.590120
Si Si4 0.402409 0.178576 0.943411
Si Si5 0.609985 0.531585 0.867143
O O1 0.852965 0.404870 0.735761
O O2 0.879198 0.288703 0.839578
O O3 0.000000 0.250000 0.739435
O O4 0.021120 0.423171 0.815163
O O5 0.701715 0.989730 0.183128
O O6 0.203982 0.276424 0.589418
O O7 0.378725 0.312247 0.526152
O O8 0.349006 0.128480 0.587250
O O9 0.500000 0.250000 0.928039
O O10 0.422856 0.063276 0.915652
#
# Coordination Sequence:
#
# PCOD9532612 Si02
#       5
#    16   8  16  16  16
#     4  10  23  45  68 100 139 180 233 284 345 405
#     4  12  24  46  70 102 136 192 228 290 330 408
#     4  10  24  45  67 101 142 177 221 295 343 413
#     4  11  24  42  71 105 133 178 231 278 352 413
#     4  11  25  45  70 101 139 183 229 286 345 408
#
# _framework density 22.694607999999999
#
# number of rings (size 3 to 8) (size 9 to 14) (size 15 to 20)
#    0.000    1.333    2.222    2.667    3.111   10.667 
#    4.000    0.000    0.000    0.000    0.000    0.000 
#    0.000    0.000    0.000    0.000    0.000    0.000 
#
# Total GULP energy -201477.549338 kJ/mol
# GULP energy per Si atom -5596.598593 kJ/mol
# Density = 2.264295 g / cm^3
# Si number density = 22.694608 Si / 1000 Ang^3
#
#
#
# Elastic Constant Matrix: (Units=GPa)
#
#
# Indices 1 2 3 4 5 6 
#
# 1 84.5779 13.8951 0.4653 0.0000 0.0000 0.0000
# 2 13.8951 113.0751 8.8806 0.0000 0.0000 0.0000
# 3 0.4653 8.8806 41.3604 0.0000 0.0000 0.0000
# 4 0.0000 0.0000 0.0000 27.9068 0.0000 0.0000
# 5 0.0000 0.0000 0.0000 0.0000 4.2273 0.0000
# 6 0.0000 0.0000 0.0000 0.0000 0.0000 36.8112
#
#
#
# Elastic Compliance Matrix: (Units=1/GPa)
#
#
# Indices 1 2 3 4 5 6 
#
# 1 0.012068 -0.001498 0.000186 0.000000 0.000000 0.000000
# 2 -0.001498 0.009181 -0.001954 0.000000 0.000000 0.000000
# 3 0.000186 -0.001954 0.024595 0.000000 0.000000 0.000000
# 4 0.000000 0.000000 0.000000 0.035834 0.000000 0.000000
# 5 0.000000 0.000000 0.000000 0.000000 0.236557 0.000000
# 6 0.000000 0.000000 0.000000 0.000000 0.000000 0.027166
#
#
# Mechanical properties :
#
#
# Convention : Reuss Voigt Hill
#
# Bulk Modulus (GPa) = 25.43731 31.72170 28.57950
# Shear Modulus (GPa) = 13.69722 28.17391 20.93556
#
# Velocity S-wave (km/s) = 2.45938 3.52722 3.04055
# Velocity P-wave (km/s) = 4.39290 5.53140 4.99470
#
# Compressibility (1/GPa) = 0.03931234
#
# Stress axis : x y z
#
# Youngs Moduli (GPa) = 82.86077 108.91815 40.65827
#
# Poissons Ratio (x) = 0.16312 -0.00755
# Poissons Ratio (y) = 0.12409 0.07947
# Poissons Ratio (z) = -0.01540 0.21288
#
# Static dielectric constant tensor:
#      x y z
#    x 1.832510 0.000000 0.000000 
#    y 0.000000 1.876980 0.000000 
#    z 0.000000 0.000000 1.819420 
# 
# From -- ./inp_files/31622.got.cif
#   From: 2010.05.17/outbox.cif.g08.bks.cpg/sg73_16_cif.got.tgz:31622.got - 2010.06.03 17:35:07.
