data_PCOD9532404
_publ_section_title
;
Structure prediction by ZEFSAII (Michael W. Deem and Ramdas Pophale) SiO2 
 PCOD9532404
Probable space group: I B C A 
;
_chemical_formula_sum "Si O2"
_cell_formula_units_Z 80
_cell_length_a 12.510472
_cell_length_b 22.536278
_cell_length_c 13.808004
_cell_angle_alpha 90.000000
_cell_angle_beta 90.000000
_cell_angle_gamma 90.000000
_cell_volume 3893.021397
_symmetry_space_group_name_H-M "I B C A "
_symmetry_group_IT_number 73
_symmetry_cell_setting 'orthorhombic'
loop_
_space_group_symop_operation_xyz
x,y,z
-x,1/2-y,z
x,-y,1/2-z
1/2-x,y,-z
-x,-y,-z
x,1/2+y,-z
-x,y,1/2+z
1/2+x,-y,z
1/2+x,1/2+y,1/2+z
1/2-x,-y,1/2+z
1/2+x,1/2-y,-z
-x,1/2+y,1/2-z
1/2-x,1/2-y,1/2-z
1/2+x,y,1/2-z
1/2-x,1/2+y,z
x,1/2-y,1/2+z
loop_
_atom_site_type_symbol
_atom_site_label
_atom_site_fract_x
_atom_site_fract_y
_atom_site_fract_z
Si Si1 0.467592 0.552707 0.925282
Si Si2 0.293275 0.412587 0.107380
Si Si3 0.195659 0.686585 0.744357
Si Si4 0.500000 0.250000 0.680311
Si Si5 0.329914 0.664458 0.921133
Si Si6 0.168280 0.000000 0.750000
O O1 0.580076 0.580033 0.894581
O O2 0.389777 0.605755 0.961515
O O3 0.407901 0.529543 0.830016
O O4 0.500000 0.500000 0.000000
O O5 0.272983 0.346602 0.146068
O O6 0.241073 0.456577 0.185343
O O7 0.250000 0.423812 0.000000
O O8 0.250000 0.750000 0.750000
O O9 0.249796 0.650168 0.831570
O O10 0.070171 0.703157 0.742772
O O11 0.418811 0.289136 0.615878
O O12 0.250000 0.690961 0.000000
#
# Coordination Sequence:
#
# PCOD9532404 Si02
#       6
#    16  16  16   8  16   8
#     4  12  26  45  69 105 144 191 243 301 365 439
#     4  12  25  47  74 102 144 195 246 301 374 446
#     4  10  23  45  70  98 140 181 240 299 362 440
#     4  10  22  48  68 102 138 184 244 296 372 442
#     4  11  25  44  70 101 142 183 238 301 362 437
#     4  12  26  46  74 102 144 194 242 304 364 438
#
# _framework density 20.549593000000002
#
# number of rings (size 3 to 8) (size 9 to 14) (size 15 to 20)
#    0.000    0.800    6.000    0.600    2.800    5.600 
#    7.200    0.000    0.000    0.000    0.000    0.000 
#    0.000    0.000    0.000    0.000    0.000    0.000 
#
# Total GULP energy -223120.804800 kJ/mol
# GULP energy per Si atom -5578.020120 kJ/mol
# Density = 2.050282 g / cm^3
# Si number density = 20.549593 Si / 1000 Ang^3
#
#
#
# Elastic Constant Matrix: (Units=GPa)
#
#
# Indices 1 2 3 4 5 6 
#
# 1 142.1315 42.5056 52.7429 0.0000 0.0000 0.0000
# 2 42.5056 96.7802 45.6117 0.0001 0.0000 0.0000
# 3 52.7429 45.6117 106.4309 0.0000 0.0000 0.0000
# 4 0.0000 0.0001 0.0000 38.9729 0.0000 0.0000
# 5 0.0000 0.0000 0.0000 0.0000 42.6319 0.0000
# 6 0.0000 0.0000 0.0000 0.0000 0.0000 42.5292
#
#
#
# Elastic Compliance Matrix: (Units=1/GPa)
#
#
# Indices 1 2 3 4 5 6 
#
# 1 0.009020 -0.002324 -0.003474 0.000000 0.000000 0.000000
# 2 -0.002324 0.013547 -0.004654 0.000000 0.000000 0.000000
# 3 -0.003474 -0.004654 0.013112 0.000000 0.000000 0.000000
# 4 0.000000 0.000000 0.000000 0.025659 0.000000 0.000000
# 5 0.000000 0.000000 0.000000 0.000000 0.023457 0.000000
# 6 0.000000 0.000000 0.000000 0.000000 0.000000 0.023513
#
#
# Mechanical properties :
#
#
# Convention : Reuss Voigt Hill
#
# Bulk Modulus (GPa) = 67.68366 69.67367 68.67867
# Shear Modulus (GPa) = 37.27568 38.45895 37.86732
#
# Velocity S-wave (km/s) = 4.26366 4.33080 4.29736
# Velocity P-wave (km/s) = 7.56615 7.68027 7.62342
#
# Compressibility (1/GPa) = 0.01477461
#
# Stress axis : x y z
#
# Youngs Moduli (GPa) = 110.86562 73.81819 76.26821
#
# Poissons Ratio (x) = 0.17158 0.26494
# Poissons Ratio (y) = 0.25769 0.35493
# Poissons Ratio (z) = 0.38512 0.34353
#
# Static dielectric constant tensor:
#      x y z
#    x 2.173630 0.000000 0.000000 
#    y 0.000000 1.793390 0.000000 
#    z 0.000000 0.000000 1.752640 
# 
# From -- ./inp_files/16055.got.cif
#   From: 2010.05.17/outbox.cif.g08.bks.cpg/sg73_9_cif.got.tgz:16055.got - 2010.06.03 17:35:07.
