data_PCOD9532737
_publ_section_title
;
Structure prediction by ZEFSAII (Michael W. Deem and Ramdas Pophale) SiO2 
 PCOD9532737
Probable space group: I B C A 
;
_chemical_formula_sum "Si O2"
_cell_formula_units_Z 96
_cell_length_a 20.864271
_cell_length_b 13.023376
_cell_length_c 17.509294
_cell_angle_alpha 90.000000
_cell_angle_beta 90.000000
_cell_angle_gamma 90.000000
_cell_volume 4757.682204
_symmetry_space_group_name_H-M "I B C A "
_symmetry_group_IT_number 73
_symmetry_cell_setting 'orthorhombic'
loop_
_space_group_symop_operation_xyz
x,y,z
-x,1/2-y,z
x,-y,1/2-z
1/2-x,y,-z
-x,-y,-z
x,1/2+y,-z
-x,y,1/2+z
1/2+x,-y,z
1/2+x,1/2+y,1/2+z
1/2-x,-y,1/2+z
1/2+x,1/2-y,-z
-x,1/2+y,1/2-z
1/2-x,1/2-y,1/2-z
1/2+x,y,1/2-z
1/2-x,1/2+y,z
x,1/2-y,1/2+z
loop_
_atom_site_type_symbol
_atom_site_label
_atom_site_fract_x
_atom_site_fract_y
_atom_site_fract_z
Si Si1 0.000000 0.750000 0.444152
Si Si2 0.121105 0.761750 0.061333
Si Si3 0.038321 0.347406 0.800717
Si Si4 0.661180 0.963718 0.941380
Si Si5 0.521009 0.024585 0.911508
Si Si6 0.300992 0.458265 0.090809
Si Si7 0.867104 0.000000 0.750000
O O1 0.065512 0.747136 0.496426
O O2 0.000215 0.642020 0.399852
O O3 0.081174 0.794527 0.134775
O O4 0.155337 0.654985 0.078513
O O5 0.174952 0.850049 0.055619
O O6 0.085350 0.403423 0.742157
O O7 0.000000 0.250000 0.768812
O O8 0.002894 0.438786 0.850261
O O9 0.597785 0.018435 0.911780
O O10 0.725873 0.018751 0.914605
O O11 0.663479 0.964214 0.033490
O O12 0.500000 0.000000 0.000000
O O13 0.325579 0.476657 0.175696
#
# Coordination Sequence:
#
# PCOD9532737 Si02
#       7
#     8  16  16  16  16  16   8
#     4  12  20  32  64 102 136 156 206 292 346 388
#     4  11  19  36  63  94 125 170 210 278 345 381
#     4  11  20  40  68  90 128 178 211 273 349 399
#     4  11  21  38  65  92 125 168 227 278 327 399
#     4  12  19  35  63 104 126 158 215 278 340 383
#     4  10  24  41  61  89 131 180 219 263 332 409
#     4  10  24  44  62  88 134 178 224 264 334 414
#
# _framework density 20.177892
#
# number of rings (size 3 to 8) (size 9 to 14) (size 15 to 20)
#    0.000    1.000    7.500    1.000    0.000    2.667 
#    1.500    4.167    0.000    0.000    0.000    0.000 
#    0.000    0.000    0.000    0.000    0.000    0.000 
#
# Total GULP energy -267670.788025 kJ/mol
# GULP energy per Si atom -5576.474751 kJ/mol
# Density = 2.013197 g / cm^3
# Si number density = 20.177892 Si / 1000 Ang^3
#
#
#
# Elastic Constant Matrix: (Units=GPa)
#
#
# Indices 1 2 3 4 5 6 
#
# 1 139.0152 85.1959 42.1392 0.0000 0.0000 0.0000
# 2 85.1959 164.7035 34.3565 0.0000 0.0000 0.0000
# 3 42.1392 34.3565 64.1673 0.0000 0.0000 0.0000
# 4 0.0000 0.0000 0.0000 25.1424 0.0000 0.0000
# 5 0.0000 0.0000 0.0000 0.0000 -17.5935 0.0000
# 6 0.0000 0.0000 0.0000 0.0000 0.0000 32.5644
#
#
#
# Elastic Compliance Matrix: (Units=1/GPa)
#
#
# Indices 1 2 3 4 5 6 
#
# 1 0.011830 -0.005064 -0.005057 0.000000 0.000000 0.000000
# 2 -0.005064 0.009003 -0.001494 0.000000 0.000000 0.000000
# 3 -0.005057 -0.001494 0.019706 0.000000 0.000000 0.000000
# 4 0.000000 0.000000 0.000000 0.039774 0.000000 0.000000
# 5 0.000000 0.000000 0.000000 0.000000 -0.056839 0.000000
# 6 0.000000 0.000000 0.000000 0.000000 0.000000 0.030708
#
#
# Mechanical properties :
#
#
# Convention : Reuss Voigt Hill
#
# Bulk Modulus (GPa) = 57.78289 76.80770 67.29530
# Shear Modulus (GPa) = 60.10838 21.76894 40.93866
#
# Velocity S-wave (km/s) = 5.46387 3.28815 4.50920
# Velocity P-wave (km/s) = 8.27672 7.25009 7.78036
#
# Compressibility (1/GPa) = 0.01730616
#
# Stress axis : x y z
#
# Youngs Moduli (GPa) = 84.52892 111.07466 50.74680
#
# Poissons Ratio (x) = 0.56253 0.25665
# Poissons Ratio (y) = 0.42809 0.07584
# Poissons Ratio (z) = 0.42750 0.16600
#
# Static dielectric constant tensor:
#      x y z
#    x 1.747510 0.000000 0.000000 
#    y 0.000000 1.784230 0.000000 
#    z 0.000000 0.000000 5.070290 
# 
# From -- ./inp_files/26925.got.cif
#   From: 2010.05.17/outbox.cif.g08.bks.cpg/sg73_14_cif.got.tgz:26925.got - 2010.06.03 17:35:07.
