data_PCOD9532774
_publ_section_title
;
Structure prediction by ZEFSAII (Michael W. Deem and Ramdas Pophale) SiO2 
 PCOD9532774
Probable space group: I B C A 
;
_chemical_formula_sum "Si O2"
_cell_formula_units_Z 56
_cell_length_a 8.547541
_cell_length_b 9.749501
_cell_length_c 27.854536
_cell_angle_alpha 90.000000
_cell_angle_beta 90.000000
_cell_angle_gamma 90.000000
_cell_volume 2321.237132
_symmetry_space_group_name_H-M "I B C A "
_symmetry_group_IT_number 73
_symmetry_cell_setting 'orthorhombic'
loop_
_space_group_symop_operation_xyz
x,y,z
-x,1/2-y,z
x,-y,1/2-z
1/2-x,y,-z
-x,-y,-z
x,1/2+y,-z
-x,y,1/2+z
1/2+x,-y,z
1/2+x,1/2+y,1/2+z
1/2-x,-y,1/2+z
1/2+x,1/2-y,-z
-x,1/2+y,1/2-z
1/2-x,1/2-y,1/2-z
1/2+x,y,1/2-z
1/2-x,1/2+y,z
x,1/2-y,1/2+z
loop_
_atom_site_type_symbol
_atom_site_label
_atom_site_fract_x
_atom_site_fract_y
_atom_site_fract_z
Si Si1 0.118597 0.620998 0.957692
Si Si2 0.574289 0.899277 0.904863
Si Si3 0.761720 0.000000 0.250000
Si Si4 0.499302 0.102574 0.819501
O O1 0.241216 0.619223 0.913366
O O2 0.011805 0.487092 0.947216
O O3 0.000000 0.750000 0.961609
O O4 0.250000 0.622753 0.000000
O O5 0.500000 0.750000 0.902826
O O6 0.542698 0.985264 0.857043
O O7 0.871983 0.106976 0.222805
O O8 0.656959 0.065884 0.291256
O O9 0.500000 0.250000 0.843900
#
# Coordination Sequence:
#
# PCOD9532774 Si02
#       4
#    16  16   8  16
#     4  12  27  51  78 107 145 193 249 307 370 444
#     4  12  27  46  72 109 149 193 243 303 372 443
#     4  10  24  42  70 104 140 186 242 302 360 430
#     4  11  24  45  71 102 142 189 241 298 363 435
#
# _framework density 24.125067000000001
#
# number of rings (size 3 to 8) (size 9 to 14) (size 15 to 20)
#    0.000    0.571    0.000    6.857    0.000   13.714 
#    0.000    1.429    0.000    0.000    0.000    0.000 
#    0.000    0.000    0.000    0.000    0.000    0.000 
#
# Total GULP energy -156772.478127 kJ/mol
# GULP energy per Si atom -5599.017076 kJ/mol
# Density = 2.407016 g / cm^3
# Si number density = 24.125067 Si / 1000 Ang^3
#
#
#
# Elastic Constant Matrix: (Units=GPa)
#
#
# Indices 1 2 3 4 5 6 
#
# 1 196.2206 78.5955 47.2558 0.0000 0.0000 0.0000
# 2 78.5955 202.7412 50.3521 0.0000 0.0000 0.0000
# 3 47.2558 50.3521 117.4130 0.0000 0.0000 0.0000
# 4 0.0000 0.0000 0.0000 31.3693 0.0000 0.0000
# 5 0.0000 0.0000 0.0000 0.0000 46.7137 0.0000
# 6 0.0000 0.0000 0.0000 0.0000 0.0000 25.5811
#
#
#
# Elastic Compliance Matrix: (Units=1/GPa)
#
#
# Indices 1 2 3 4 5 6 
#
# 1 0.006312 -0.002033 -0.001669 0.000000 0.000000 0.000000
# 2 -0.002033 0.006175 -0.001830 0.000000 0.000000 0.000000
# 3 -0.001669 -0.001830 0.009973 0.000000 0.000000 0.000000
# 4 0.000000 0.000000 0.000000 0.031878 0.000000 0.000000
# 5 0.000000 0.000000 0.000000 0.000000 0.021407 0.000000
# 6 0.000000 0.000000 0.000000 0.000000 0.000000 0.039091
#
#
# Mechanical properties :
#
#
# Convention : Reuss Voigt Hill
#
# Bulk Modulus (GPa) = 87.73726 96.53128 92.13427
# Shear Modulus (GPa) = 38.55066 43.41092 40.98079
#
# Velocity S-wave (km/s) = 4.00177 4.24655 4.12598
# Velocity P-wave (km/s) = 7.60256 8.00899 7.80842
#
# Compressibility (1/GPa) = 0.01139767
#
# Stress axis : x y z
#
# Youngs Moduli (GPa) = 158.41889 161.94724 100.26655
#
# Poissons Ratio (x) = 0.32917 0.16734
# Poissons Ratio (y) = 0.32200 0.18349
# Poissons Ratio (z) = 0.26439 0.29636
#
# Static dielectric constant tensor:
#      x y z
#    x 1.914990 0.000000 0.000000 
#    y 0.000000 1.878340 0.000000 
#    z 0.000000 0.000000 2.023530 
# 
# From -- ./inp_files/33438.got.cif
#   From: 2010.05.17/outbox.cif.g08.bks.cpg/sg73_17_cif.got.tgz:33438.got - 2010.06.03 17:35:07.
