data_PCOD9532375
_publ_section_title
;
Structure prediction by ZEFSAII (Michael W. Deem and Ramdas Pophale) SiO2 
 PCOD9532375
Probable space group: I B C A 
;
_chemical_formula_sum "Si O2"
_cell_formula_units_Z 72
_cell_length_a 15.303131
_cell_length_b 20.012314
_cell_length_c 9.741142
_cell_angle_alpha 90.000000
_cell_angle_beta 90.000000
_cell_angle_gamma 90.000000
_cell_volume 2983.235090
_symmetry_space_group_name_H-M "I B C A "
_symmetry_group_IT_number 73
_symmetry_cell_setting 'orthorhombic'
loop_
_space_group_symop_operation_xyz
x,y,z
-x,1/2-y,z
x,-y,1/2-z
1/2-x,y,-z
-x,-y,-z
x,1/2+y,-z
-x,y,1/2+z
1/2+x,-y,z
1/2+x,1/2+y,1/2+z
1/2-x,-y,1/2+z
1/2+x,1/2-y,-z
-x,1/2+y,1/2-z
1/2-x,1/2-y,1/2-z
1/2+x,y,1/2-z
1/2-x,1/2+y,z
x,1/2-y,1/2+z
loop_
_atom_site_type_symbol
_atom_site_label
_atom_site_fract_x
_atom_site_fract_y
_atom_site_fract_z
Si Si1 0.844153 0.330258 0.047556
Si Si2 0.395501 0.737918 0.774142
Si Si3 0.661201 0.381974 0.425425
Si Si4 0.616036 0.000000 0.750000
Si Si5 0.489906 0.074954 0.050786
O O1 0.871455 0.275332 0.932174
O O2 0.917507 0.386169 0.035339
O O3 0.750000 0.355718 0.000000
O O4 0.846221 0.297791 0.196870
O O5 0.500000 0.750000 0.762179
O O6 0.365308 0.672873 0.687828
O O7 0.750000 0.363217 0.500000
O O8 0.671149 0.456928 0.358916
O O9 0.581024 0.388078 0.533238
O O10 0.552495 0.940731 0.803088
O O11 0.500000 0.000000 0.000000
#
# Coordination Sequence:
#
# PCOD9532375 Si02
#       5
#    16  16  16   8  16
#     4  12  26  47  76 110 147 194 249 310 374 446
#     4  12  25  48  75 107 152 195 244 307 374 450
#     4  11  24  45  72 108 146 189 250 302 370 449
#     4  10  22  46  68 104 148 192 250 300 370 448
#     4  10  23  45  71 102 145 195 245 299 371 440
#
# _framework density 24.134874
#
# number of rings (size 3 to 8) (size 9 to 14) (size 15 to 20)
#    0.000    0.889    4.444    2.000    0.000    4.444 
#    8.000    0.000    0.000    0.000    0.000    0.000 
#    0.000    0.000    0.000    0.000    0.000    0.000 
#
# Total GULP energy -201452.782400 kJ/mol
# GULP energy per Si atom -5595.910622 kJ/mol
# Density = 2.407994 g / cm^3
# Si number density = 24.134874 Si / 1000 Ang^3
#
#
#
# Elastic Constant Matrix: (Units=GPa)
#
#
# Indices 1 2 3 4 5 6 
#
# 1 147.0974 40.7057 9.3578 0.0000 0.0000 0.0000
# 2 40.7057 100.1988 29.4593 0.0000 0.0000 0.0000
# 3 9.3578 29.4593 74.4619 0.0000 0.0000 0.0000
# 4 0.0000 0.0000 0.0000 29.5692 0.0000 0.0000
# 5 0.0000 0.0000 0.0000 0.0000 25.9061 0.0000
# 6 0.0000 0.0000 0.0000 0.0000 0.0000 22.2858
#
#
#
# Elastic Compliance Matrix: (Units=1/GPa)
#
#
# Indices 1 2 3 4 5 6 
#
# 1 0.007665 -0.003203 0.000304 0.000000 0.000000 0.000000
# 2 -0.003203 0.012633 -0.004595 0.000000 0.000000 0.000000
# 3 0.000304 -0.004595 0.015209 0.000000 0.000000 0.000000
# 4 0.000000 0.000000 0.000000 0.033819 0.000000 0.000000
# 5 0.000000 0.000000 0.000000 0.000000 0.038601 0.000000
# 6 0.000000 0.000000 0.000000 0.000000 0.000000 0.044872
#
#
# Mechanical properties :
#
#
# Convention : Reuss Voigt Hill
#
# Bulk Modulus (GPa) = 48.73726 53.42263 51.07994
# Shear Modulus (GPa) = 28.63234 31.70123 30.16678
#
# Velocity S-wave (km/s) = 3.44808 3.62816 3.53926
# Velocity P-wave (km/s) = 6.00748 6.30353 6.15729
#
# Compressibility (1/GPa) = 0.02051818
#
# Stress axis : x y z
#
# Youngs Moduli (GPa) = 130.45720 79.16029 65.74843
#
# Poissons Ratio (x) = 0.25359 -0.01999
# Poissons Ratio (y) = 0.41791 0.30213
# Poissons Ratio (z) = -0.03967 0.36376
#
# Static dielectric constant tensor:
#      x y z
#    x 1.939540 0.000000 0.000000 
#    y 0.000000 1.924070 0.000000 
#    z 0.000000 0.000000 2.136150 
# 
# From -- ./inp_files/10629.got.cif
#   From: 2010.05.17/outbox.cif.g08.bks.cpg/sg73_6_cif.got.tgz:10629.got - 2010.06.03 17:35:07.
