data_PCOD9532836
_publ_section_title
;
Structure prediction by ZEFSAII (Michael W. Deem and Ramdas Pophale) SiO2 
 PCOD9532836
Probable space group: I B C A 
;
_chemical_formula_sum "Si O2"
_cell_formula_units_Z 104
_cell_length_a 8.978324
_cell_length_b 24.790926
_cell_length_c 21.153600
_cell_angle_alpha 90.000000
_cell_angle_beta 90.000000
_cell_angle_gamma 90.000000
_cell_volume 4708.388720
_symmetry_space_group_name_H-M "I B C A "
_symmetry_group_IT_number 73
_symmetry_cell_setting 'orthorhombic'
loop_
_space_group_symop_operation_xyz
x,y,z
-x,1/2-y,z
x,-y,1/2-z
1/2-x,y,-z
-x,-y,-z
x,1/2+y,-z
-x,y,1/2+z
1/2+x,-y,z
1/2+x,1/2+y,1/2+z
1/2-x,-y,1/2+z
1/2+x,1/2-y,-z
-x,1/2+y,1/2-z
1/2-x,1/2-y,1/2-z
1/2+x,y,1/2-z
1/2-x,1/2+y,z
x,1/2-y,1/2+z
loop_
_atom_site_type_symbol
_atom_site_label
_atom_site_fract_x
_atom_site_fract_y
_atom_site_fract_z
Si Si1 0.815413 0.629220 0.631864
Si Si2 0.750000 0.507162 0.000000
Si Si3 0.779035 0.294353 0.695627
Si Si4 0.001721 0.855493 0.244381
Si Si5 0.821370 0.261169 0.932847
Si Si6 0.994346 0.959320 0.586917
Si Si7 0.400651 0.460073 0.305052
O O1 0.871128 0.657229 0.695240
O O2 0.779295 0.675891 0.582574
O O3 0.963516 0.598745 0.610544
O O4 0.704537 0.580852 0.653865
O O5 0.624682 0.473678 0.037041
O O6 0.837884 0.540402 0.051945
O O7 0.750000 0.250000 0.750000
O O8 0.947592 0.317604 0.698379
O O9 0.656051 0.340190 0.712144
O O10 0.743085 0.271541 0.626677
O O11 0.999497 0.917161 0.266799
O O12 0.000000 0.250000 0.933809
O O13 0.750000 0.246253 0.000000
O O14 0.983990 0.002461 0.643856
O O15 0.835360 0.500000 0.250000
#
# Coordination Sequence:
#
# PCOD9532836 Si02
#       7
#    16   8  16  16  16  16  16
#     4  12  25  44  69 105 145 190 228 302 366 428
#     4  10  24  44  68  94 136 202 240 284 348 426
#     4  12  23  46  74 105 140 184 244 299 367 432
#     4  12  24  42  76 105 141 185 235 297 373 429
#     4  12  28  51  75 105 146 190 247 311 370 440
#     4  11  24  45  69  99 145 187 245 290 351 426
#     4  12  26  41  72 114 148 184 237 301 358 432
#
# _framework density 22.088235999999998
#
# number of rings (size 3 to 8) (size 9 to 14) (size 15 to 20)
#    0.000    0.308    7.692    0.462    3.231    3.692 
#    1.385    0.000    0.000    0.000    0.000    0.000 
#    0.000    0.000    0.000    0.000    0.000    0.000 
#
# Total GULP energy -290198.441708 kJ/mol
# GULP energy per Si atom -5580.739264 kJ/mol
# Density = 2.203796 g / cm^3
# Si number density = 22.088236 Si / 1000 Ang^3
#
#
#
# Elastic Constant Matrix: (Units=GPa)
#
#
# Indices 1 2 3 4 5 6 
#
# 1 54.3400 21.2379 28.9028 0.0000 0.0000 0.0000
# 2 21.2379 76.5541 34.3840 0.0000 0.0000 0.0000
# 3 28.9028 34.3840 131.0095 0.0000 0.0000 0.0000
# 4 0.0000 0.0000 0.0000 18.7933 0.0000 0.0000
# 5 0.0000 0.0000 0.0000 0.0000 45.0616 0.0000
# 6 0.0000 0.0000 0.0000 0.0000 0.0000 28.0000
#
#
#
# Elastic Compliance Matrix: (Units=1/GPa)
#
#
# Indices 1 2 3 4 5 6 
#
# 1 0.022122 -0.004472 -0.003707 0.000000 0.000000 0.000000
# 2 -0.004472 0.015712 -0.003137 0.000000 0.000000 0.000000
# 3 -0.003707 -0.003137 0.009274 0.000000 0.000000 0.000000
# 4 0.000000 0.000000 0.000000 0.053211 0.000000 0.000000
# 5 0.000000 0.000000 0.000000 0.000000 0.022192 0.000000
# 6 0.000000 0.000000 0.000000 0.000000 0.000000 0.035714
#
#
# Mechanical properties :
#
#
# Convention : Reuss Voigt Hill
#
# Bulk Modulus (GPa) = 40.85577 47.88368 44.36972
# Shear Modulus (GPa) = 26.45270 30.19622 28.32446
#
# Velocity S-wave (km/s) = 3.46438 3.70141 3.58485
# Velocity P-wave (km/s) = 5.87702 6.32397 6.10459
#
# Compressibility (1/GPa) = 0.02447635
#
# Stress axis : x y z
#
# Youngs Moduli (GPa) = 45.20353 63.64390 107.82667
#
# Poissons Ratio (x) = 0.28464 0.39968
# Poissons Ratio (y) = 0.20217 0.33827
# Poissons Ratio (z) = 0.16756 0.19966
#
# Static dielectric constant tensor:
#      x y z
#    x 1.844510 0.000000 0.000000 
#    y 0.000000 1.994040 0.000000 
#    z 0.000000 0.000000 1.917710 
# 
# From -- ./inp_files/24949.got.cif
#   From: 2010.05.17/outbox.cif.g08.bks.cpg/sg73_13_cif.got.tgz:24949.got - 2010.06.03 17:35:07.
