data_PCOD9532597
_publ_section_title
;
Structure prediction by ZEFSAII (Michael W. Deem and Ramdas Pophale) SiO2 
 PCOD9532597
Probable space group: I B C A 
;
_chemical_formula_sum "Si O2"
_cell_formula_units_Z 72
_cell_length_a 25.664424
_cell_length_b 5.246010
_cell_length_c 19.941949
_cell_angle_alpha 90.000000
_cell_angle_beta 90.000000
_cell_angle_gamma 90.000000
_cell_volume 2684.900755
_symmetry_space_group_name_H-M "I B C A "
_symmetry_group_IT_number 73
_symmetry_cell_setting 'orthorhombic'
loop_
_space_group_symop_operation_xyz
x,y,z
-x,1/2-y,z
x,-y,1/2-z
1/2-x,y,-z
-x,-y,-z
x,1/2+y,-z
-x,y,1/2+z
1/2+x,-y,z
1/2+x,1/2+y,1/2+z
1/2-x,-y,1/2+z
1/2+x,1/2-y,-z
-x,1/2+y,1/2-z
1/2-x,1/2-y,1/2-z
1/2+x,y,1/2-z
1/2-x,1/2+y,z
x,1/2-y,1/2+z
loop_
_atom_site_type_symbol
_atom_site_label
_atom_site_fract_x
_atom_site_fract_y
_atom_site_fract_z
Si Si1 0.964004 0.000000 0.250000
Si Si2 0.690192 0.279249 0.966427
Si Si3 0.772536 0.263673 0.824607
Si Si4 0.557670 0.683618 0.959561
Si Si5 0.123432 0.991358 0.643684
O O1 0.923016 0.084026 0.191314
O O2 0.000000 0.750000 0.235602
O O3 0.660283 0.188934 0.897692
O O4 0.750000 0.294932 0.000000
O O5 0.669571 0.554656 0.985549
O O6 0.750000 0.250000 0.750000
O O7 0.742678 0.499710 0.860036
O O8 0.832337 0.327149 0.818095
O O9 0.500000 0.750000 0.933395
O O10 0.596109 0.794759 0.905384
O O11 0.561174 0.384756 0.977680
#
# Coordination Sequence:
#
# PCOD9532597 Si02
#       5
#     8  16  16  16  16
#     4  12  32  54  76 116 152 204 274 318 376 466
#     4  10  24  43  70 112 152 197 250 312 379 465
#     4  10  24  43  65 101 141 191 244 289 357 455
#     4  10  23  44  72 107 140 184 250 313 378 441
#     4  12  26  48  80 105 157 204 249 318 395 434
#
# _framework density 26.816635000000002
#
# number of rings (size 3 to 8) (size 9 to 14) (size 15 to 20)
#    0.000    1.333    0.000    3.333    6.222   11.556 
#    0.000    0.000    0.000    0.000    0.000    0.000 
#    0.000    0.000    0.000    0.000    0.000    0.000 
#
# Total GULP energy -200927.466610 kJ/mol
# GULP energy per Si atom -5581.318517 kJ/mol
# Density = 2.675560 g / cm^3
# Si number density = 26.816635 Si / 1000 Ang^3
#
#
#
# Elastic Constant Matrix: (Units=GPa)
#
#
# Indices 1 2 3 4 5 6 
#
# 1 199.5015 30.4928 55.3832 0.0000 0.0000 0.0000
# 2 30.4928 151.5295 2.0756 0.0000 0.0000 0.0000
# 3 55.3832 2.0756 100.6676 0.0000 0.0000 0.0000
# 4 0.0000 0.0000 0.0000 25.1889 0.0000 0.0000
# 5 0.0000 0.0000 0.0000 0.0000 58.8340 0.0000
# 6 0.0000 0.0000 0.0000 0.0000 0.0000 43.8240
#
#
#
# Elastic Compliance Matrix: (Units=1/GPa)
#
#
# Indices 1 2 3 4 5 6 
#
# 1 0.006122 -0.001186 -0.003344 0.000000 0.000000 0.000000
# 2 -0.001186 0.006831 0.000512 0.000000 0.000000 0.000000
# 3 -0.003344 0.000512 0.011763 0.000000 0.000000 0.000000
# 4 0.000000 0.000000 0.000000 0.039700 0.000000 0.000000
# 5 0.000000 0.000000 0.000000 0.000000 0.016997 0.000000
# 6 0.000000 0.000000 0.000000 0.000000 0.000000 0.022819
#
#
# Mechanical properties :
#
#
# Convention : Reuss Voigt Hill
#
# Bulk Modulus (GPa) = 59.95336 69.73353 64.84345
# Shear Modulus (GPa) = 42.43504 49.81919 46.12711
#
# Velocity S-wave (km/s) = 3.98227 4.31486 4.15190
# Velocity P-wave (km/s) = 6.59924 7.13333 6.87147
#
# Compressibility (1/GPa) = 0.01667963
#
# Stress axis : x y z
#
# Youngs Moduli (GPa) = 163.34519 146.39023 85.01480
#
# Poissons Ratio (x) = 0.17364 0.28426
# Poissons Ratio (y) = 0.19375 -0.04350
# Poissons Ratio (z) = 0.54616 -0.07491
#
# Static dielectric constant tensor:
#      x y z
#    x 2.324910 0.000000 0.000000 
#    y 0.000000 1.977810 0.000000 
#    z 0.000000 0.000000 1.990980 
# 
# From -- ./inp_files/27444.got.cif
#   From: 2010.05.17/outbox.cif.g08.bks.cpg/sg73_14_cif.got.tgz:27444.got - 2010.06.03 17:35:07.
