data_PCOD9532132
_publ_section_title
;
Structure prediction by ZEFSAII (Michael W. Deem and Ramdas Pophale) SiO2 
 PCOD9532132
Probable space group: I B C A 
;
_chemical_formula_sum "Si O2"
_cell_formula_units_Z 80
_cell_length_a 24.699135
_cell_length_b 13.348250
_cell_length_c 11.057679
_cell_angle_alpha 90.000000
_cell_angle_beta 90.000000
_cell_angle_gamma 90.000000
_cell_volume 3645.608719
_symmetry_space_group_name_H-M "I B C A "
_symmetry_group_IT_number 73
_symmetry_cell_setting 'orthorhombic'
loop_
_space_group_symop_operation_xyz
x,y,z
-x,1/2-y,z
x,-y,1/2-z
1/2-x,y,-z
-x,-y,-z
x,1/2+y,-z
-x,y,1/2+z
1/2+x,-y,z
1/2+x,1/2+y,1/2+z
1/2-x,-y,1/2+z
1/2+x,1/2-y,-z
-x,1/2+y,1/2-z
1/2-x,1/2-y,1/2-z
1/2+x,y,1/2-z
1/2-x,1/2+y,z
x,1/2-y,1/2+z
loop_
_atom_site_type_symbol
_atom_site_label
_atom_site_fract_x
_atom_site_fract_y
_atom_site_fract_z
Si Si1 0.947888 0.940697 0.627935
Si Si2 0.295872 0.790932 0.092852
Si Si3 0.078127 0.548581 0.118807
Si Si4 0.625149 0.767776 0.400216
Si Si5 0.217130 0.382732 0.743657
O O1 0.928011 0.827494 0.634844
O O2 0.012763 0.937893 0.621259
O O3 0.932550 0.000000 0.750000
O O4 0.918567 0.988579 0.509463
O O5 0.277146 0.856033 0.206809
O O6 0.286021 0.673155 0.116388
O O7 0.250000 0.826733 0.000000
O O8 0.354432 0.796240 0.035057
O O9 0.091995 0.500000 0.250000
O O10 0.112140 0.651042 0.108997
O O11 0.671984 0.817689 0.316794
O O12 0.206879 0.500000 0.750000
#
# Coordination Sequence:
#
# PCOD9532132 Si02
#       5
#    16  16  16  16  16
#     4  10  23  43  66  95 136 181 224 278 342 407
#     4   9  22  42  58  92 125 168 221 275 341 400
#     4  10  24  43  64 100 138 176 224 280 344 400
#     4  11  23  38  66  96 128 173 231 276 335 406
#     4  10  22  42  63  90 131 175 220 281 341 408
#
# _framework density 21.944209000000001
#
# number of rings (size 3 to 8) (size 9 to 14) (size 15 to 20)
#    0.000    2.000    0.000    1.200    8.400    2.400 
#    7.200    6.000    0.000    0.000    0.000    0.000 
#    0.000    0.000    0.000    0.000    0.000    0.000 
#
# Total GULP energy -222753.406496 kJ/mol
# GULP energy per Si atom -5568.835162 kJ/mol
# Density = 2.189426 g / cm^3
# Si number density = 21.944209 Si / 1000 Ang^3
#
#
#
# Elastic Constant Matrix: (Units=GPa)
#
#
# Indices 1 2 3 4 5 6 
#
# 1 47.9512 60.9717 40.2047 0.0000 0.0000 0.0000
# 2 60.9717 119.7396 27.4669 0.0000 0.0000 0.0000
# 3 40.2047 27.4669 90.1740 0.0000 0.0000 0.0000
# 4 0.0000 0.0000 0.0000 16.9329 0.0000 0.0000
# 5 0.0000 0.0000 0.0000 0.0000 21.6773 0.0000
# 6 0.0000 0.0000 0.0000 0.0000 0.0000 30.8715
#
#
#
# Elastic Compliance Matrix: (Units=1/GPa)
#
#
# Indices 1 2 3 4 5 6 
#
# 1 0.114831 -0.050238 -0.035896 0.000000 0.000000 0.000000
# 2 -0.050238 0.030958 0.012969 0.000000 0.000000 0.000000
# 3 -0.035896 0.012969 0.023144 0.000000 0.000000 0.000000
# 4 0.000000 0.000000 0.000000 0.059057 0.000000 0.000000
# 5 0.000000 0.000000 0.000000 0.000000 0.046131 0.000000
# 6 0.000000 0.000000 0.000000 0.000000 0.000000 0.032392
#
#
# Mechanical properties :
#
#
# Convention : Reuss Voigt Hill
#
# Bulk Modulus (GPa) = 44.24137 57.23906 50.74021
# Shear Modulus (GPa) = 10.86070 22.51111 16.68590
#
# Velocity S-wave (km/s) = 2.22710 3.20634 2.76049
# Velocity P-wave (km/s) = 5.17860 6.31253 5.77347
#
# Compressibility (1/GPa) = 0.02260328
#
# Stress axis : x y z
#
# Youngs Moduli (GPa) = 8.70847 32.30205 43.20854
#
# Poissons Ratio (x) = 1.62279 1.55100
# Poissons Ratio (y) = 0.43750 -0.56038
# Poissons Ratio (z) = 0.31260 -0.41893
#
# Static dielectric constant tensor:
#      x y z
#    x 1.791950 0.000000 0.000000 
#    y 0.000000 1.765800 0.000000 
#    z 0.000000 0.000000 2.020390 
# 
# From -- ./inp_files/14587.got.cif
#   From: 2010.05.17/outbox.cif.g08.bks.cpg/sg73_8_cif.got.tgz:14587.got - 2010.06.03 17:35:07.
