data_PCOD9532405
_publ_section_title
;
Structure prediction by ZEFSAII (Michael W. Deem and Ramdas Pophale) SiO2 
 PCOD9532405
Probable space group: I B C A 
;
_chemical_formula_sum "Si O2"
_cell_formula_units_Z 64
_cell_length_a 11.266250
_cell_length_b 24.513869
_cell_length_c 9.703633
_cell_angle_alpha 90.000000
_cell_angle_beta 90.000000
_cell_angle_gamma 90.000000
_cell_volume 2679.943313
_symmetry_space_group_name_H-M "I B C A "
_symmetry_group_IT_number 73
_symmetry_cell_setting 'orthorhombic'
loop_
_space_group_symop_operation_xyz
x,y,z
-x,1/2-y,z
x,-y,1/2-z
1/2-x,y,-z
-x,-y,-z
x,1/2+y,-z
-x,y,1/2+z
1/2+x,-y,z
1/2+x,1/2+y,1/2+z
1/2-x,-y,1/2+z
1/2+x,1/2-y,-z
-x,1/2+y,1/2-z
1/2-x,1/2-y,1/2-z
1/2+x,y,1/2-z
1/2-x,1/2+y,z
x,1/2-y,1/2+z
loop_
_atom_site_type_symbol
_atom_site_label
_atom_site_fract_x
_atom_site_fract_y
_atom_site_fract_z
Si Si1 0.679748 0.500000 0.250000
Si Si2 0.075701 0.425667 0.028066
Si Si3 0.873731 0.779965 0.718915
Si Si4 0.362344 0.594001 0.211870
Si Si5 0.750000 0.833648 0.500000
O O1 0.613304 0.521139 0.113405
O O2 0.755400 0.448089 0.199902
O O3 0.946979 0.414340 0.083229
O O4 0.083893 0.423683 0.862781
O O5 0.167657 0.377930 0.079959
O O6 0.750000 0.750000 0.750000
O O7 0.855818 0.840404 0.781531
O O8 0.852758 0.794752 0.558537
O O9 0.000000 0.750000 0.743621
#
# Coordination Sequence:
#
# PCOD9532405 Si02
#       5
#     8  16  16  16   8
#     4  12  22  42  72 100 146 198 240 312 384 450
#     4  11  23  46  70 101 152 189 248 313 379 456
#     4  11  24  44  76 107 148 200 253 324 385 456
#     4  11  26  44  72 111 144 201 252 317 380 466
#     4  10  22  48  68 102 152 194 250 320 378 468
#
# _framework density 23.881101000000001
#
# number of rings (size 3 to 8) (size 9 to 14) (size 15 to 20)
#    0.000    1.000    5.000    2.250    0.000   11.000 
#    0.000    0.000    5.500    0.000    0.000    0.000 
#    0.000    0.000    0.000    0.000    0.000    0.000 
#
# Total GULP energy -178238.382858 kJ/mol
# GULP energy per Si atom -5569.949464 kJ/mol
# Density = 2.382675 g / cm^3
# Si number density = 23.881101 Si / 1000 Ang^3
#
#
#
# Elastic Constant Matrix: (Units=GPa)
#
#
# Indices 1 2 3 4 5 6 
#
# 1 62.3337 57.3402 -5.8710 0.0000 0.0001 0.0000
# 2 57.3402 166.9966 24.9860 -0.0003 0.0001 0.0000
# 3 -5.8710 24.9860 63.6476 0.0001 -0.0001 -0.0004
# 4 0.0000 -0.0003 0.0001 22.3133 0.0000 -0.0001
# 5 0.0001 0.0001 -0.0001 0.0000 34.0077 0.0000
# 6 0.0000 0.0000 -0.0004 -0.0001 0.0000 18.5918
#
#
#
# Elastic Compliance Matrix: (Units=1/GPa)
#
#
# Indices 1 2 3 4 5 6 
#
# 1 0.025536 -0.009690 0.006159 0.000000 0.000000 0.000000
# 2 -0.009690 0.010039 -0.004835 0.000000 0.000000 0.000000
# 3 0.006159 -0.004835 0.018178 0.000000 0.000000 0.000000
# 4 0.000000 0.000000 0.000000 0.044816 0.000000 0.000000
# 5 0.000000 0.000000 0.000000 0.000000 0.029405 0.000000
# 6 0.000000 0.000000 0.000000 0.000000 0.000000 0.053787
#
#
# Mechanical properties :
#
#
# Convention : Reuss Voigt Hill
#
# Bulk Modulus (GPa) = 27.01052 49.54312 38.27682
# Shear Modulus (GPa) = 23.71557 29.41742 26.56650
#
# Velocity S-wave (km/s) = 3.15472 3.51355 3.33896
# Velocity P-wave (km/s) = 4.96031 6.10334 5.56127
#
# Compressibility (1/GPa) = 0.03702261
#
# Stress axis : x y z
#
# Youngs Moduli (GPa) = 39.15987 99.61553 55.01272
#
# Poissons Ratio (x) = 0.96525 -0.33885
# Poissons Ratio (y) = 0.37945 0.26597
# Poissons Ratio (z) = -0.24120 0.48161
#
# Static dielectric constant tensor:
#      x y z
#    x 1.995990 0.000000 0.000000 
#    y 0.000000 2.006360 0.000000 
#    z 0.000000 0.000000 2.127520 
# 
# From -- ./inp_files/9617.got.cif
#   From: 2010.05.17/outbox.cif.g08.bks.cpg/sg73_5_cif.got.tgz:9617.got - 2010.06.03 17:35:07.
