data_PCOD9532607
_publ_section_title
;
Structure prediction by ZEFSAII (Michael W. Deem and Ramdas Pophale) SiO2 
 PCOD9532607
Probable space group: I B C A 
;
_chemical_formula_sum "Si O2"
_cell_formula_units_Z 88
_cell_length_a 7.992056
_cell_length_b 26.519228
_cell_length_c 16.683438
_cell_angle_alpha 90.000000
_cell_angle_beta 90.000000
_cell_angle_gamma 90.000000
_cell_volume 3535.940490
_symmetry_space_group_name_H-M "I B C A "
_symmetry_group_IT_number 73
_symmetry_cell_setting 'orthorhombic'
loop_
_space_group_symop_operation_xyz
x,y,z
-x,1/2-y,z
x,-y,1/2-z
1/2-x,y,-z
-x,-y,-z
x,1/2+y,-z
-x,y,1/2+z
1/2+x,-y,z
1/2+x,1/2+y,1/2+z
1/2-x,-y,1/2+z
1/2+x,1/2-y,-z
-x,1/2+y,1/2-z
1/2-x,1/2-y,1/2-z
1/2+x,y,1/2-z
1/2-x,1/2+y,z
x,1/2-y,1/2+z
loop_
_atom_site_type_symbol
_atom_site_label
_atom_site_fract_x
_atom_site_fract_y
_atom_site_fract_z
Si Si1 0.368097 0.034865 0.923460
Si Si2 0.735045 0.789280 0.322575
Si Si3 0.118711 0.358292 0.568188
Si Si4 0.906745 0.848709 0.199262
Si Si5 0.000000 0.750000 0.941449
Si Si6 0.446104 0.539094 0.822158
O O1 0.473868 0.087383 0.924883
O O2 0.245994 0.042630 0.847762
O O3 0.464052 0.984535 0.899405
O O4 0.250000 0.026448 0.000000
O O5 0.750000 0.750000 0.250000
O O6 0.854725 0.834097 0.289887
O O7 0.547564 0.809400 0.331382
O O8 0.825433 0.761838 0.395159
O O9 0.250000 0.372363 0.500000
O O10 0.236288 0.347256 0.646135
O O11 0.033001 0.307966 0.532470
O O12 0.991305 0.903512 0.196509
O O13 0.463668 0.500000 0.750000
#
# Coordination Sequence:
#
# PCOD9532607 Si02
#       6
#    16  16  16  16   8  16
#     4  10  23  45  65  90 133 179 216 262 339 405
#     4  12  22  39  64  91 125 167 206 257 331 391
#     4  10  24  44  63  91 129 171 216 267 317 390
#     4  11  24  40  63  93 129 164 211 263 330 386
#     4  12  24  38  66  94 122 170 210 268 320 386
#     4  11  25  38  67 100 127 166 218 284 320 380
#
# _framework density 24.887298000000001
#
# number of rings (size 3 to 8) (size 9 to 14) (size 15 to 20)
#    0.000    1.091    3.636    1.091   10.182    1.455 
#    0.000    0.000    0.000    1.091    0.000    0.000 
#    0.000    0.000    0.000    0.000    0.000    0.000 
#
# Total GULP energy -245428.042462 kJ/mol
# GULP energy per Si atom -5577.910056 kJ/mol
# Density = 2.483065 g / cm^3
# Si number density = 24.887298 Si / 1000 Ang^3
#
#
#
# Elastic Constant Matrix: (Units=GPa)
#
#
# Indices 1 2 3 4 5 6 
#
# 1 58.1722 19.2825 -8.1870 0.0000 0.0000 0.0000
# 2 19.2825 192.8057 19.2506 0.0000 0.0000 0.0000
# 3 -8.1870 19.2506 44.3992 0.0000 0.0000 0.0000
# 4 0.0000 0.0000 0.0000 45.0122 0.0000 0.0000
# 5 0.0000 0.0000 0.0000 0.0000 26.4442 0.0000
# 6 0.0000 0.0000 0.0000 0.0000 0.0000 44.9784
#
#
#
# Elastic Compliance Matrix: (Units=1/GPa)
#
#
# Indices 1 2 3 4 5 6 
#
# 1 0.018575 -0.002299 0.004422 0.000000 0.000000 0.000000
# 2 -0.002299 0.005706 -0.002898 0.000000 0.000000 0.000000
# 3 0.004422 -0.002898 0.024595 0.000000 0.000000 0.000000
# 4 0.000000 0.000000 0.000000 0.022216 0.000000 0.000000
# 5 0.000000 0.000000 0.000000 0.000000 0.037816 0.000000
# 6 0.000000 0.000000 0.000000 0.000000 0.000000 0.022233
#
#
# Mechanical properties :
#
#
# Convention : Reuss Voigt Hill
#
# Bulk Modulus (GPa) = 21.13038 39.56326 30.34682
# Shear Modulus (GPa) = 33.67790 40.95569 37.31679
#
# Velocity S-wave (km/s) = 3.68260 4.06106 3.87645
# Velocity P-wave (km/s) = 5.15664 6.15801 5.67944
#
# Compressibility (1/GPa) = 0.04732523
#
# Stress axis : x y z
#
# Youngs Moduli (GPa) = 53.83642 175.25883 40.65900
#
# Poissons Ratio (x) = 0.40295 -0.17979
# Poissons Ratio (y) = 0.12378 0.11783
# Poissons Ratio (z) = -0.23806 0.50788
#
# Static dielectric constant tensor:
#      x y z
#    x 1.989460 0.000000 0.000000 
#    y 0.000000 2.117040 0.000000 
#    z 0.000000 0.000000 2.181310 
# 
# From -- ./inp_files/7034.got.cif
#   From: 2010.05.17/outbox.cif.g08.bks.cpg/sg73_4_cif.got.tgz:7034.got - 2010.06.03 17:35:07.
