data_PCOD9532149
_publ_section_title
;
Structure prediction by ZEFSAII (Michael W. Deem and Ramdas Pophale) SiO2 
 PCOD9532149
Probable space group: I B C A 
;
_chemical_formula_sum "Si O2"
_cell_formula_units_Z 64
_cell_length_a 12.333250
_cell_length_b 8.134656
_cell_length_c 27.959629
_cell_angle_alpha 90.000000
_cell_angle_beta 90.000000
_cell_angle_gamma 90.000000
_cell_volume 2805.098600
_symmetry_space_group_name_H-M "I B C A "
_symmetry_group_IT_number 73
_symmetry_cell_setting 'orthorhombic'
loop_
_space_group_symop_operation_xyz
x,y,z
-x,1/2-y,z
x,-y,1/2-z
1/2-x,y,-z
-x,-y,-z
x,1/2+y,-z
-x,y,1/2+z
1/2+x,-y,z
1/2+x,1/2+y,1/2+z
1/2-x,-y,1/2+z
1/2+x,1/2-y,-z
-x,1/2+y,1/2-z
1/2-x,1/2-y,1/2-z
1/2+x,y,1/2-z
1/2-x,1/2+y,z
x,1/2-y,1/2+z
loop_
_atom_site_type_symbol
_atom_site_label
_atom_site_fract_x
_atom_site_fract_y
_atom_site_fract_z
Si Si1 0.814945 0.116693 0.073920
Si Si2 0.167516 0.641709 0.217486
Si Si3 0.500000 0.250000 0.360497
Si Si4 0.845497 0.952335 0.657689
Si Si5 0.250000 0.123803 0.000000
O O1 0.911994 0.148608 0.109461
O O2 0.703543 0.090823 0.104855
O O3 0.829187 0.977627 0.034181
O O4 0.810436 0.272378 0.039531
O O5 0.108729 0.500000 0.250000
O O6 0.250000 0.750000 0.250000
O O7 0.240379 0.529624 0.183173
O O8 0.117371 0.785873 0.184508
O O9 0.568558 0.101134 0.337149
#
# Coordination Sequence:
#
# PCOD9532149 Si02
#       5
#    16  16   8  16   8
#     4  11  22  42  64  97 136 182 234 301 352 429
#     4   9  19  37  74  96 135 184 219 294 366 417
#     4  12  24  38  74  98 136 196 232 290 374 432
#     4  11  20  42  67 101 140 180 238 289 364 439
#     4  10  22  42  66  92 138 178 238 306 350 420
#
# _framework density 22.815597
#
# number of rings (size 3 to 8) (size 9 to 14) (size 15 to 20)
#    0.000    1.500    5.000    0.000    0.000    1.000 
#    0.000    3.750   16.500    0.000    0.000    0.000 
#    0.000    0.000    0.000    0.000    0.000    0.000 
#
# Total GULP energy -178164.099210 kJ/mol
# GULP energy per Si atom -5567.628100 kJ/mol
# Density = 2.276367 g / cm^3
# Si number density = 22.815597 Si / 1000 Ang^3
#
#
#
# Elastic Constant Matrix: (Units=GPa)
#
#
# Indices 1 2 3 4 5 6 
#
# 1 71.4678 37.9986 33.1897 0.0000 0.0000 0.0000
# 2 37.9986 156.5237 69.5276 0.0000 0.0000 0.0000
# 3 33.1897 69.5276 111.3439 0.0000 0.0000 0.0000
# 4 0.0000 0.0000 0.0000 37.2729 0.0000 0.0000
# 5 0.0000 0.0000 0.0000 0.0000 13.7224 0.0000
# 6 0.0000 0.0000 0.0000 0.0000 0.0000 49.0786
#
#
#
# Elastic Compliance Matrix: (Units=1/GPa)
#
#
# Indices 1 2 3 4 5 6 
#
# 1 0.016967 -0.002591 -0.003440 0.000000 0.000000 0.000000
# 2 -0.002591 0.009237 -0.004995 0.000000 0.000000 0.000000
# 3 -0.003440 -0.004995 0.013126 0.000000 0.000000 0.000000
# 4 0.000000 0.000000 0.000000 0.026829 0.000000 0.000000
# 5 0.000000 0.000000 0.000000 0.000000 0.072873 0.000000
# 6 0.000000 0.000000 0.000000 0.000000 0.000000 0.020375
#
#
# Mechanical properties :
#
#
# Convention : Reuss Voigt Hill
#
# Bulk Modulus (GPa) = 57.87886 68.97413 63.42649
# Shear Modulus (GPa) = 26.70657 33.25609 29.98133
#
# Velocity S-wave (km/s) = 3.42503 3.82200 3.62895
# Velocity P-wave (km/s) = 6.40814 7.05505 6.73936
#
# Compressibility (1/GPa) = 0.01727747
#
# Stress axis : x y z
#
# Youngs Moduli (GPa) = 58.93656 108.26206 76.18559
#
# Poissons Ratio (x) = 0.28053 0.26205
# Poissons Ratio (y) = 0.15272 0.38058
# Poissons Ratio (z) = 0.20272 0.54082
#
# Static dielectric constant tensor:
#      x y z
#    x 1.783200 0.000000 0.000000 
#    y 0.000000 2.055700 0.000000 
#    z 0.000000 0.000000 1.855570 
# 
# From -- ./inp_files/7579.got.cif
#   From: 2010.05.17/outbox.cif.g08.bks.cpg/sg73_4_cif.got.tgz:7579.got - 2010.06.03 17:35:07.
