data_PCOD9532349
_publ_section_title
;
Structure prediction by ZEFSAII (Michael W. Deem and Ramdas Pophale) SiO2 
 PCOD9532349
Probable space group: I B C A 
;
_chemical_formula_sum "Si O2"
_cell_formula_units_Z 56
_cell_length_a 24.662367
_cell_length_b 17.882499
_cell_length_c 5.246537
_cell_angle_alpha 90.000000
_cell_angle_beta 90.000000
_cell_angle_gamma 90.000000
_cell_volume 2313.852686
_symmetry_space_group_name_H-M "I B C A "
_symmetry_group_IT_number 73
_symmetry_cell_setting 'orthorhombic'
loop_
_space_group_symop_operation_xyz
x,y,z
-x,1/2-y,z
x,-y,1/2-z
1/2-x,y,-z
-x,-y,-z
x,1/2+y,-z
-x,y,1/2+z
1/2+x,-y,z
1/2+x,1/2+y,1/2+z
1/2-x,-y,1/2+z
1/2+x,1/2-y,-z
-x,1/2+y,1/2-z
1/2-x,1/2-y,1/2-z
1/2+x,y,1/2-z
1/2-x,1/2+y,z
x,1/2-y,1/2+z
loop_
_atom_site_type_symbol
_atom_site_label
_atom_site_fract_x
_atom_site_fract_y
_atom_site_fract_z
Si Si1 0.750000 0.698341 0.500000
Si Si2 0.560194 0.716805 0.929477
Si Si3 0.702166 0.084764 0.815452
Si Si4 0.582598 0.549807 0.003373
O O1 0.750000 0.750000 0.250000
O O2 0.702083 0.638769 0.430487
O O3 0.500000 0.750000 0.903752
O O4 0.588122 0.757910 0.167579
O O5 0.553018 0.628721 0.970190
O O6 0.644212 0.077378 0.947325
O O7 0.716848 0.000000 0.750000
O O8 0.750000 0.111155 0.000000
O O9 0.566470 0.500000 0.250000
O O10 0.578843 0.500000 0.750000
#
# Coordination Sequence:
#
# PCOD9532349 Si02
#       4
#     8  16  16  16
#     4  12  26  40  60  98 134 176 236 286 332 394
#     4  10  22  45  70  97 137 183 222 281 374 427
#     4  11  23  42  70  92 138 190 236 278 344 404
#     4  11  25  42  70 105 137 178 244 296 335 415
#
# _framework density 24.202058999999998
#
# number of rings (size 3 to 8) (size 9 to 14) (size 15 to 20)
#    0.000    1.143    2.857    2.571    4.000    2.286 
#    0.000   17.143    0.000    0.000    0.000    0.000 
#    0.000    0.000    0.000    0.000    0.000    0.000 
#
# Total GULP energy -156454.134118 kJ/mol
# GULP energy per Si atom -5587.647647 kJ/mol
# Density = 2.414697 g / cm^3
# Si number density = 24.202059 Si / 1000 Ang^3
#
#
#
# Elastic Constant Matrix: (Units=GPa)
#
#
# Indices 1 2 3 4 5 6 
#
# 1 42.2804 40.1606 14.4709 0.0000 0.0000 0.0000
# 2 40.1606 203.9027 60.1957 0.0000 0.0000 0.0000
# 3 14.4709 60.1957 176.2660 0.0000 0.0000 0.0000
# 4 0.0000 0.0000 0.0000 36.7894 0.0000 0.0000
# 5 0.0000 0.0000 0.0000 0.0000 6.9807 0.0000
# 6 0.0000 0.0000 0.0000 0.0000 0.0000 1.8722
#
#
#
# Elastic Compliance Matrix: (Units=1/GPa)
#
#
# Indices 1 2 3 4 5 6 
#
# 1 0.029131 -0.005596 -0.000481 0.000000 0.000000 0.000000
# 2 -0.005596 0.006529 -0.001770 0.000000 0.000000 0.000000
# 3 -0.000481 -0.001770 0.006317 0.000000 0.000000 0.000000
# 4 0.000000 0.000000 0.000000 0.027182 0.000000 0.000000
# 5 0.000000 0.000000 0.000000 0.000000 0.143251 0.000000
# 6 0.000000 0.000000 0.000000 0.000000 0.000000 0.534127
#
#
# Mechanical properties :
#
#
# Convention : Reuss Voigt Hill
#
# Bulk Modulus (GPa) = 38.04556 72.45595 55.25076
# Shear Modulus (GPa) = 6.48515 29.63660 18.06087
#
# Velocity S-wave (km/s) = 1.63872 3.50315 2.73473
# Velocity P-wave (km/s) = 4.39712 6.80923 5.73151
#
# Compressibility (1/GPa) = 0.02628427
#
# Stress axis : x y z
#
# Youngs Moduli (GPa) = 34.32720 153.16092 158.29624
#
# Poissons Ratio (x) = 0.85706 0.07608
# Poissons Ratio (y) = 0.19209 0.28023
# Poissons Ratio (z) = 0.01650 0.27114
#
# Static dielectric constant tensor:
#      x y z
#    x 1.837430 0.000000 0.000000 
#    y 0.000000 1.915130 0.000000 
#    z 0.000000 0.000000 2.258470 
# 
# From -- ./inp_files/2907.got.cif
#   From: 2010.05.17/outbox.cif.g08.bks.cpg/sg73_2_cif.got.tgz:2907.got - 2010.06.03 17:35:07.
