data_PCOD9532623
_publ_section_title
;
Structure prediction by ZEFSAII (Michael W. Deem and Ramdas Pophale) SiO2 
 PCOD9532623
Probable space group: I B C A 
;
_chemical_formula_sum "Si O2"
_cell_formula_units_Z 64
_cell_length_a 10.818851
_cell_length_b 20.518207
_cell_length_c 13.408162
_cell_angle_alpha 90.000000
_cell_angle_beta 90.000000
_cell_angle_gamma 90.000000
_cell_volume 2976.389715
_symmetry_space_group_name_H-M "I B C A "
_symmetry_group_IT_number 73
_symmetry_cell_setting 'orthorhombic'
loop_
_space_group_symop_operation_xyz
x,y,z
-x,1/2-y,z
x,-y,1/2-z
1/2-x,y,-z
-x,-y,-z
x,1/2+y,-z
-x,y,1/2+z
1/2+x,-y,z
1/2+x,1/2+y,1/2+z
1/2-x,-y,1/2+z
1/2+x,1/2-y,-z
-x,1/2+y,1/2-z
1/2-x,1/2-y,1/2-z
1/2+x,y,1/2-z
1/2-x,1/2+y,z
x,1/2-y,1/2+z
loop_
_atom_site_type_symbol
_atom_site_label
_atom_site_fract_x
_atom_site_fract_y
_atom_site_fract_z
Si Si1 0.605298 0.085179 0.003244
Si Si2 0.388104 0.360499 0.620708
Si Si3 0.750000 0.539385 0.500000
Si Si4 0.410318 0.187445 0.342687
Si Si5 0.250000 0.242542 0.000000
O O1 0.549217 0.123124 0.906930
O O2 0.750000 0.104644 0.000000
O O3 0.522708 0.110749 0.094053
O O4 0.630937 0.007524 0.010836
O O5 0.285136 0.414574 0.592293
O O6 0.378494 0.336788 0.732820
O O7 0.359420 0.302006 0.544113
O O8 0.500000 0.250000 0.334034
O O9 0.298769 0.218111 0.405705
#
# Coordination Sequence:
#
# PCOD9532623 Si02
#       5
#    16  16   8  16   8
#     4  10  23  45  71  99 146 184 236 305 353 427
#     4  11  24  43  71 107 135 195 240 291 371 428
#     4   9  23  48  74  96 147 187 244 308 350 431
#     4  12  25  41  72 106 146 188 232 298 367 441
#     4  11  23  44  68 102 153 173 234 306 358 435
#
# _framework density 21.502559999999999
#
# number of rings (size 3 to 8) (size 9 to 14) (size 15 to 20)
#    0.750    0.500    3.750    1.500    3.500    3.000 
#    0.000    0.000    0.000    0.000    0.000    0.000 
#    0.000    0.000    0.000    0.000    0.000    0.000 
#
# Total GULP energy -178180.358878 kJ/mol
# GULP energy per Si atom -5568.136215 kJ/mol
# Density = 2.145362 g / cm^3
# Si number density = 21.502560 Si / 1000 Ang^3
#
#
#
# Elastic Constant Matrix: (Units=GPa)
#
#
# Indices 1 2 3 4 5 6 
#
# 1 98.0439 42.3775 53.1064 0.0000 0.0000 0.0000
# 2 42.3775 128.9706 81.8440 0.0001 0.0000 0.0000
# 3 53.1064 81.8440 174.4291 0.0001 0.0000 0.0001
# 4 0.0000 0.0001 0.0001 43.5984 0.0000 0.0000
# 5 0.0000 0.0000 0.0000 0.0000 27.1749 0.0000
# 6 0.0000 0.0000 0.0001 0.0000 0.0000 36.7257
#
#
#
# Elastic Compliance Matrix: (Units=1/GPa)
#
#
# Indices 1 2 3 4 5 6 
#
# 1 0.012737 -0.002455 -0.002726 0.000000 0.000000 0.000000
# 2 -0.002455 0.011515 -0.004655 0.000000 0.000000 0.000000
# 3 -0.002726 -0.004655 0.008747 0.000000 0.000000 0.000000
# 4 0.000000 0.000000 0.000000 0.022937 0.000000 0.000000
# 5 0.000000 0.000000 0.000000 0.000000 0.036799 0.000000
# 6 0.000000 0.000000 0.000000 0.000000 0.000000 0.027229
#
#
# Mechanical properties :
#
#
# Convention : Reuss Voigt Hill
#
# Bulk Modulus (GPa) = 75.04061 84.01105 79.52583
# Shear Modulus (GPa) = 34.70329 36.44084 35.57206
#
# Velocity S-wave (km/s) = 4.02171 4.12116 4.07174
# Velocity P-wave (km/s) = 7.51929 7.86132 7.69221
#
# Compressibility (1/GPa) = 0.01332612
#
# Stress axis : x y z
#
# Youngs Moduli (GPa) = 78.50948 86.84539 114.32234
#
# Poissons Ratio (x) = 0.21324 0.31163
# Poissons Ratio (y) = 0.19278 0.53220
# Poissons Ratio (z) = 0.21401 0.40429
#
# Static dielectric constant tensor:
#      x y z
#    x 4.544160 0.000000 0.000000 
#    y 0.000000 1.935320 0.000000 
#    z 0.000000 0.000000 1.705560 
# 
# From -- ./inp_files/9503.got.cif
#   From: 2010.05.17/outbox.cif.g08.bks.cpg/sg73_5_cif.got.tgz:9503.got - 2010.06.03 17:35:07.
