data_PCOD9532414
_publ_section_title
;
Structure prediction by ZEFSAII (Michael W. Deem and Ramdas Pophale) SiO2 
 PCOD9532414
Probable space group: I B C A 
;
_chemical_formula_sum "Si O2"
_cell_formula_units_Z 88
_cell_length_a 25.952880
_cell_length_b 10.080068
_cell_length_c 15.751981
_cell_angle_alpha 90.000000
_cell_angle_beta 90.000000
_cell_angle_gamma 90.000000
_cell_volume 4120.825267
_symmetry_space_group_name_H-M "I B C A "
_symmetry_group_IT_number 73
_symmetry_cell_setting 'orthorhombic'
loop_
_space_group_symop_operation_xyz
x,y,z
-x,1/2-y,z
x,-y,1/2-z
1/2-x,y,-z
-x,-y,-z
x,1/2+y,-z
-x,y,1/2+z
1/2+x,-y,z
1/2+x,1/2+y,1/2+z
1/2-x,-y,1/2+z
1/2+x,1/2-y,-z
-x,1/2+y,1/2-z
1/2-x,1/2-y,1/2-z
1/2+x,y,1/2-z
1/2-x,1/2+y,z
x,1/2-y,1/2+z
loop_
_atom_site_type_symbol
_atom_site_label
_atom_site_fract_x
_atom_site_fract_y
_atom_site_fract_z
Si Si1 0.743176 0.318297 0.660091
Si Si2 0.750000 0.874682 0.000000
Si Si3 0.852444 0.363262 0.630983
Si Si4 0.657930 0.061533 0.051490
Si Si5 0.432862 0.000000 0.250000
Si Si6 0.903457 0.902208 0.830175
Si Si7 0.500000 0.750000 0.723262
O O1 0.750000 0.250000 0.750000
O O2 0.748199 0.215445 0.582893
O O3 0.794312 0.408972 0.652484
O O4 0.689092 0.384634 0.634138
O O5 0.800511 0.962386 0.989080
O O6 0.856335 0.347828 0.528865
O O7 0.895034 0.459524 0.672216
O O8 0.862312 0.218218 0.671801
O O9 0.608629 0.987775 0.087329
O O10 0.467839 0.130952 0.230792
O O11 0.958032 0.829383 0.830655
O O12 0.901763 0.000000 0.750000
#
# Coordination Sequence:
#
# PCOD9532414 Si02
#       7
#    16   8  16  16   8  16   8
#     4  12  24  39  63  98 146 195 237 279 346 428
#     4  12  22  42  60  94 154 196 226 294 338 418
#     4  11  23  43  64 107 139 188 242 288 361 437
#     4  12  23  42  65 100 150 187 234 294 352 429
#     4  10  24  44  76  98 138 180 240 312 368 452
#     4  11  23  45  74 100 134 188 240 303 366 433
#     4  10  22  50  74 104 138 174 248 314 378 428
#
# _framework density 21.354946000000002
#
# number of rings (size 3 to 8) (size 9 to 14) (size 15 to 20)
#    0.000    0.727    6.364    1.091    2.545    0.000 
#    6.545    4.545    0.000    0.000    0.000    0.000 
#    0.000    0.000    0.000    0.000    0.000    0.000 
#
# Total GULP energy -245501.303250 kJ/mol
# GULP energy per Si atom -5579.575074 kJ/mol
# Density = 2.130634 g / cm^3
# Si number density = 21.354946 Si / 1000 Ang^3
#
#
#
# Elastic Constant Matrix: (Units=GPa)
#
#
# Indices 1 2 3 4 5 6 
#
# 1 101.0882 46.4193 56.1891 0.0000 0.0000 0.0000
# 2 46.4193 94.5541 48.0150 0.0000 0.0000 0.0000
# 3 56.1891 48.0150 131.5031 0.0000 0.0000 0.0000
# 4 0.0000 0.0000 0.0000 29.4232 0.0000 0.0000
# 5 0.0000 0.0000 0.0000 0.0000 10.6239 0.0000
# 6 0.0000 0.0000 0.0000 0.0000 0.0000 41.5330
#
#
#
# Elastic Compliance Matrix: (Units=1/GPa)
#
#
# Indices 1 2 3 4 5 6 
#
# 1 0.014627 -0.004919 -0.004454 0.000000 0.000000 0.000000
# 2 -0.004919 0.014638 -0.003243 0.000000 0.000000 0.000000
# 3 -0.004454 -0.003243 0.010691 0.000000 0.000000 0.000000
# 4 0.000000 0.000000 0.000000 0.033987 0.000000 0.000000
# 5 0.000000 0.000000 0.000000 0.000000 0.094128 0.000000
# 6 0.000000 0.000000 0.000000 0.000000 0.000000 0.024077
#
#
# Mechanical properties :
#
#
# Convention : Reuss Voigt Hill
#
# Bulk Modulus (GPa) = 67.91300 69.82134 68.86717
# Shear Modulus (GPa) = 22.49352 28.08416 25.28884
#
# Velocity S-wave (km/s) = 3.24901 3.63038 3.44498
# Velocity P-wave (km/s) = 6.77833 7.09503 6.93849
#
# Compressibility (1/GPa) = 0.01472472
#
# Stress axis : x y z
#
# Youngs Moduli (GPa) = 68.36811 68.31760 93.53359
#
# Poissons Ratio (x) = 0.33606 0.41657
# Poissons Ratio (y) = 0.33631 0.30330
# Poissons Ratio (z) = 0.30449 0.22153
#
# Static dielectric constant tensor:
#      x y z
#    x 1.673480 0.000000 0.000000 
#    y 0.000000 1.848900 0.000000 
#    z 0.000000 0.000000 1.702630 
# 
# From -- ./inp_files/16237.got.cif
#   From: 2010.05.17/outbox.cif.g08.bks.cpg/sg73_9_cif.got.tgz:16237.got - 2010.06.03 17:35:07.
