data_PCOD9532818
_publ_section_title
;
Structure prediction by ZEFSAII (Michael W. Deem and Ramdas Pophale) SiO2 
 PCOD9532818
Probable space group: I B C A 
;
_chemical_formula_sum "Si O2"
_cell_formula_units_Z 88
_cell_length_a 15.360356
_cell_length_b 18.989007
_cell_length_c 13.070484
_cell_angle_alpha 90.000000
_cell_angle_beta 90.000000
_cell_angle_gamma 90.000000
_cell_volume 3812.371425
_symmetry_space_group_name_H-M "I B C A "
_symmetry_group_IT_number 73
_symmetry_cell_setting 'orthorhombic'
loop_
_space_group_symop_operation_xyz
x,y,z
-x,1/2-y,z
x,-y,1/2-z
1/2-x,y,-z
-x,-y,-z
x,1/2+y,-z
-x,y,1/2+z
1/2+x,-y,z
1/2+x,1/2+y,1/2+z
1/2-x,-y,1/2+z
1/2+x,1/2-y,-z
-x,1/2+y,1/2-z
1/2-x,1/2-y,1/2-z
1/2+x,y,1/2-z
1/2-x,1/2+y,z
x,1/2-y,1/2+z
loop_
_atom_site_type_symbol
_atom_site_label
_atom_site_fract_x
_atom_site_fract_y
_atom_site_fract_z
Si Si1 0.516279 0.424172 0.246638
Si Si2 0.637352 0.667899 0.121114
Si Si3 0.250000 0.563233 0.500000
Si Si4 0.502819 0.672012 0.441146
Si Si5 0.323391 0.813649 0.575227
Si Si6 0.331800 0.459560 0.348812
O O1 0.561549 0.500000 0.250000
O O2 0.579256 0.367117 0.293503
O O3 0.492803 0.392585 0.136494
O O4 0.430165 0.438028 0.315440
O O5 0.713197 0.615037 0.087248
O O6 0.658483 0.748305 0.149074
O O7 0.576549 0.672298 0.020397
O O8 0.319571 0.510858 0.445842
O O9 0.500000 0.750000 0.390387
O O10 0.591552 0.667208 0.507652
O O11 0.250000 0.785290 0.500000
O O12 0.289009 0.884588 0.627107
O O13 0.295748 0.500000 0.250000
#
# Coordination Sequence:
#
# PCOD9532818 Si02
#       6
#    16  16   8  16  16  16
#     4  11  25  42  71 102 134 185 239 286 351 423
#     4  11  24  45  70  98 143 182 237 289 352 419
#     4  12  26  44  66 102 148 186 228 296 352 406
#     4  10  24  43  70 100 134 185 237 288 351 419
#     4  11  23  46  72 103 140 186 234 293 353 415
#     4  11  25  44  70 102 140 186 234 287 347 415
#
# _framework density 23.082746
#
# number of rings (size 3 to 8) (size 9 to 14) (size 15 to 20)
#    0.000    1.091    3.636    2.182    5.091    3.636 
#    0.000    1.818    0.000    0.000    0.000    0.000 
#    0.000    0.000    0.000    0.000    0.000    0.000 
#
# Total GULP energy -245917.341621 kJ/mol
# GULP energy per Si atom -5589.030491 kJ/mol
# Density = 2.303021 g / cm^3
# Si number density = 23.082746 Si / 1000 Ang^3
#
#
#
# Elastic Constant Matrix: (Units=GPa)
#
#
# Indices 1 2 3 4 5 6 
#
# 1 41.1640 4.6819 -7.4291 0.0000 0.0000 0.0000
# 2 4.6819 145.1511 30.3136 0.0000 0.0000 0.0000
# 3 -7.4291 30.3136 36.2259 0.0000 0.0000 0.0000
# 4 0.0000 0.0000 0.0000 28.5571 0.0000 0.0000
# 5 0.0000 0.0000 0.0000 0.0000 15.0900 0.0000
# 6 0.0000 0.0000 0.0000 0.0000 0.0000 25.3299
#
#
#
# Elastic Compliance Matrix: (Units=1/GPa)
#
#
# Indices 1 2 3 4 5 6 
#
# 1 0.025874 -0.002354 0.007276 0.000000 0.000000 0.000000
# 2 -0.002354 0.008562 -0.007648 0.000000 0.000000 0.000000
# 3 0.007276 -0.007648 0.035496 0.000000 0.000000 0.000000
# 4 0.000000 0.000000 0.000000 0.035018 0.000000 0.000000
# 5 0.000000 0.000000 0.000000 0.000000 0.066269 0.000000
# 6 0.000000 0.000000 0.000000 0.000000 0.000000 0.039479
#
#
# Mechanical properties :
#
#
# Convention : Reuss Voigt Hill
#
# Bulk Modulus (GPa) = 15.50844 30.85265 23.18054
# Shear Modulus (GPa) = 21.03987 26.79369 23.91678
#
# Velocity S-wave (km/s) = 3.02238 3.41070 3.22239
# Velocity P-wave (km/s) = 4.34890 5.37639 4.88971
#
# Compressibility (1/GPa) = 0.06448103
#
# Stress axis : x y z
#
# Youngs Moduli (GPa) = 38.64891 116.78843 28.17190
#
# Poissons Ratio (x) = 0.27493 -0.20498
# Poissons Ratio (y) = 0.09098 0.21545
# Poissons Ratio (z) = -0.28121 0.89318
#
# Static dielectric constant tensor:
#      x y z
#    x 1.877360 0.000000 0.000000 
#    y 0.000000 1.952960 0.000000 
#    z 0.000000 0.000000 1.849370 
# 
# From -- ./inp_files/17941.got.cif
#   From: 2010.05.17/outbox.cif.g08.bks.cpg/sg73_9_cif.got.tgz:17941.got - 2010.06.03 17:35:07.
