data_PCOD9532169
_publ_section_title
;
Structure prediction by ZEFSAII (Michael W. Deem and Ramdas Pophale) SiO2 
 PCOD9532169
Probable space group: I B C A 
;
_chemical_formula_sum "Si O2"
_cell_formula_units_Z 88
_cell_length_a 13.840667
_cell_length_b 18.079445
_cell_length_c 16.081283
_cell_angle_alpha 90.000000
_cell_angle_beta 90.000000
_cell_angle_gamma 90.000000
_cell_volume 4024.044818
_symmetry_space_group_name_H-M "I B C A "
_symmetry_group_IT_number 73
_symmetry_cell_setting 'orthorhombic'
loop_
_space_group_symop_operation_xyz
x,y,z
-x,1/2-y,z
x,-y,1/2-z
1/2-x,y,-z
-x,-y,-z
x,1/2+y,-z
-x,y,1/2+z
1/2+x,-y,z
1/2+x,1/2+y,1/2+z
1/2-x,-y,1/2+z
1/2+x,1/2-y,-z
-x,1/2+y,1/2-z
1/2-x,1/2-y,1/2-z
1/2+x,y,1/2-z
1/2-x,1/2+y,z
x,1/2-y,1/2+z
loop_
_atom_site_type_symbol
_atom_site_label
_atom_site_fract_x
_atom_site_fract_y
_atom_site_fract_z
Si Si1 0.608212 0.808063 0.221302
Si Si2 0.947996 0.628824 0.452368
Si Si3 0.750000 0.547297 0.500000
Si Si4 0.464718 0.138336 0.135090
Si Si5 0.313466 0.852581 0.244830
Si Si6 0.603624 0.475421 0.377565
O O1 0.560440 0.827795 0.133758
O O2 0.533784 0.824456 0.296645
O O3 0.652393 0.726069 0.208174
O O4 0.699563 0.858090 0.247200
O O5 0.841668 0.593623 0.466671
O O6 0.977545 0.663522 0.540835
O O7 0.032582 0.570313 0.436263
O O8 0.699995 0.499546 0.426987
O O9 0.355465 0.155285 0.162582
O O10 0.460383 0.048689 0.142093
O O11 0.361883 0.921345 0.196862
#
# Coordination Sequence:
#
# PCOD9532169 Si02
#       6
#    16  16   8  16  16  16
#     4  11  25  46  69  97 141 186 227 280 343 421
#     4  11  24  43  71  96 139 179 224 288 345 399
#     4  10  22  42  68 104 138 174 234 284 342 422
#     4  11  23  45  68 100 134 177 229 283 345 407
#     4  11  25  45  66 101 139 181 232 276 345 423
#     4  11  24  42  69 104 137 177 227 289 342 404
#
# _framework density 21.868544
#
# number of rings (size 3 to 8) (size 9 to 14) (size 15 to 20)
#    0.000    1.091    1.818    5.455    5.091    0.000 
#    6.545    0.909    0.000    0.000    0.000    0.000 
#    0.000    0.000    0.000    0.000    0.000    0.000 
#
# Total GULP energy -245437.937014 kJ/mol
# GULP energy per Si atom -5578.134932 kJ/mol
# Density = 2.181877 g / cm^3
# Si number density = 21.868544 Si / 1000 Ang^3
#
#
#
# Elastic Constant Matrix: (Units=GPa)
#
#
# Indices 1 2 3 4 5 6 
#
# 1 116.4739 11.2697 45.2938 0.0000 0.0000 0.0000
# 2 11.2697 77.8414 43.6848 0.0000 0.0000 0.0000
# 3 45.2938 43.6848 176.9763 0.0000 0.0000 0.0000
# 4 0.0000 0.0000 0.0000 -19.1967 0.0000 0.0000
# 5 0.0000 0.0000 0.0000 0.0000 32.9017 0.0000
# 6 0.0000 0.0000 0.0000 0.0000 0.0000 34.0010
#
#
#
# Elastic Compliance Matrix: (Units=1/GPa)
#
#
# Indices 1 2 3 4 5 6 
#
# 1 0.009535 -0.000013 -0.002437 0.000000 0.000000 0.000000
# 2 -0.000013 0.014912 -0.003678 0.000000 0.000000 0.000000
# 3 -0.002437 -0.003678 0.007182 0.000000 0.000000 0.000000
# 4 0.000000 0.000000 0.000000 -0.052092 0.000000 0.000000
# 5 0.000000 0.000000 0.000000 0.000000 0.030394 0.000000
# 6 0.000000 0.000000 0.000000 0.000000 0.000000 0.029411
#
#
# Mechanical properties :
#
#
# Convention : Reuss Voigt Hill
#
# Bulk Modulus (GPa) = 51.61557 63.53201 57.57379
# Shear Modulus (GPa) = 86.12641 27.61075 56.86858
#
# Velocity S-wave (km/s) = 6.28245 3.55713 5.10502
# Velocity P-wave (km/s) = 8.73381 6.78128 7.81874
#
# Compressibility (1/GPa) = 0.01937400
#
# Stress axis : x y z
#
# Youngs Moduli (GPa) = 104.88166 67.05822 139.23695
#
# Poissons Ratio (x) = 0.00085 0.33933
# Poissons Ratio (y) = 0.00133 0.51208
# Poissons Ratio (z) = 0.25560 0.24662
#
# Static dielectric constant tensor:
#      x y z
#    x 1.774000 0.000000 0.000000 
#    y 0.000000 1.897730 0.000000 
#    z 0.000000 0.000000 1.855250 
# 
# From -- ./inp_files/21923.got.cif
#   From: 2010.05.17/outbox.cif.g08.bks.cpg/sg73_11_cif.got.tgz:21923.got - 2010.06.03 17:35:07.
