data_PCOD9532732
_publ_section_title
;
Structure prediction by ZEFSAII (Michael W. Deem and Ramdas Pophale) SiO2 
 PCOD9532732
Probable space group: I B C A 
;
_chemical_formula_sum "Si O2"
_cell_formula_units_Z 72
_cell_length_a 18.861739
_cell_length_b 17.953356
_cell_length_c 9.090517
_cell_angle_alpha 90.000000
_cell_angle_beta 90.000000
_cell_angle_gamma 90.000000
_cell_volume 3078.335544
_symmetry_space_group_name_H-M "I B C A "
_symmetry_group_IT_number 73
_symmetry_cell_setting 'orthorhombic'
loop_
_space_group_symop_operation_xyz
x,y,z
-x,1/2-y,z
x,-y,1/2-z
1/2-x,y,-z
-x,-y,-z
x,1/2+y,-z
-x,y,1/2+z
1/2+x,-y,z
1/2+x,1/2+y,1/2+z
1/2-x,-y,1/2+z
1/2+x,1/2-y,-z
-x,1/2+y,1/2-z
1/2-x,1/2-y,1/2-z
1/2+x,y,1/2-z
1/2-x,1/2+y,z
x,1/2-y,1/2+z
loop_
_atom_site_type_symbol
_atom_site_label
_atom_site_fract_x
_atom_site_fract_y
_atom_site_fract_z
Si Si1 0.250000 0.496637 0.000000
Si Si2 0.765517 0.105856 0.752128
Si Si3 0.610333 0.814855 0.070137
Si Si4 0.998371 0.444224 0.134429
Si Si5 0.880324 0.663877 0.777402
O O1 0.225862 0.553531 0.128465
O O2 0.294981 0.442880 0.109728
O O3 0.822447 0.153480 0.662797
O O4 0.701596 0.152646 0.819181
O O5 0.549119 0.873456 0.103163
O O6 0.592188 0.733265 0.128635
O O7 0.619534 0.815130 0.894784
O O8 0.963977 0.500000 0.250000
O O9 0.073041 0.409775 0.189815
O O10 0.000000 0.500000 0.000000
#
# Coordination Sequence:
#
# PCOD9532732 Si02
#       5
#     8  16  16  16  16
#     4  10  24  40  70 110 150 186 242 316 372 432
#     4  11  25  45  77 109 153 194 259 310 390 446
#     4  12  28  49  74 111 150 202 248 312 382 461
#     4  12  29  48  78 109 149 195 256 314 380 450
#     4  12  28  49  75 108 155 197 253 310 383 458
#
# _framework density 23.389264000000001
#
# number of rings (size 3 to 8) (size 9 to 14) (size 15 to 20)
#    0.000    0.444    4.444    1.333   15.556    1.778 
#    0.000    0.000    0.000    0.000    0.000    0.000 
#    0.000    0.000    0.000    0.000    0.000    0.000 
#
# Total GULP energy -200950.452245 kJ/mol
# GULP energy per Si atom -5581.957007 kJ/mol
# Density = 2.333603 g / cm^3
# Si number density = 23.389264 Si / 1000 Ang^3
#
#
#
# Elastic Constant Matrix: (Units=GPa)
#
#
# Indices 1 2 3 4 5 6 
#
# 1 86.1548 28.2038 1.6371 0.0000 0.0000 0.0000
# 2 28.2038 132.5311 45.0341 0.0000 0.0000 0.0000
# 3 1.6371 45.0341 127.9516 0.0000 0.0000 0.0000
# 4 0.0000 0.0000 0.0000 57.3065 0.0000 0.0000
# 5 0.0000 0.0000 0.0000 0.0000 12.1741 0.0000
# 6 0.0000 0.0000 0.0000 0.0000 0.0000 -1.8638
#
#
#
# Elastic Compliance Matrix: (Units=1/GPa)
#
#
# Indices 1 2 3 4 5 6 
#
# 1 0.012564 -0.002975 0.000886 0.000000 0.000000 0.000000
# 2 -0.002975 0.009275 -0.003226 0.000000 0.000000 0.000000
# 3 0.000886 -0.003226 0.008940 0.000000 0.000000 0.000000
# 4 0.000000 0.000000 0.000000 0.017450 0.000000 0.000000
# 5 0.000000 0.000000 0.000000 0.000000 0.082141 0.000000
# 6 0.000000 0.000000 0.000000 0.000000 0.000000 -0.536543
#
#
# Mechanical properties :
#
#
# Convention : Reuss Voigt Hill
#
# Bulk Modulus (GPa) = 49.63111 55.15417 52.39264
# Shear Modulus (GPa) = -12.85917 31.64088 9.39086
#
# Velocity S-wave (km/s) = -2.34730 3.68203 2.00593
# Velocity P-wave (km/s) = 3.73085 6.45822 5.27389
#
# Compressibility (1/GPa) = 0.02014865
#
# Stress axis : x y z
#
# Youngs Moduli (GPa) = 79.59225 107.81918 111.86118
#
# Poissons Ratio (x) = 0.32075 -0.09914
# Poissons Ratio (y) = 0.23678 0.36090
# Poissons Ratio (z) = -0.07054 0.34786
#
# Static dielectric constant tensor:
#      x y z
#    x 1.801810 0.000000 0.000000 
#    y 0.000000 1.937950 0.000000 
#    z 0.000000 0.000000 1.777140 
# 
# From -- ./inp_files/6028.got.cif
#   From: 2010.05.17/outbox.cif.g08.bks.cpg/sg73_4_cif.got.tgz:6028.got - 2010.06.03 17:35:07.
