data_PCOD9532242
_publ_section_title
;
Structure prediction by ZEFSAII (Michael W. Deem and Ramdas Pophale) SiO2 
 PCOD9532242
Probable space group: I B C A 
;
_chemical_formula_sum "Si O2"
_cell_formula_units_Z 72
_cell_length_a 10.266969
_cell_length_b 15.797740
_cell_length_c 17.745395
_cell_angle_alpha 90.000000
_cell_angle_beta 90.000000
_cell_angle_gamma 90.000000
_cell_volume 2878.212689
_symmetry_space_group_name_H-M "I B C A "
_symmetry_group_IT_number 73
_symmetry_cell_setting 'orthorhombic'
loop_
_space_group_symop_operation_xyz
x,y,z
-x,1/2-y,z
x,-y,1/2-z
1/2-x,y,-z
-x,-y,-z
x,1/2+y,-z
-x,y,1/2+z
1/2+x,-y,z
1/2+x,1/2+y,1/2+z
1/2-x,-y,1/2+z
1/2+x,1/2-y,-z
-x,1/2+y,1/2-z
1/2-x,1/2-y,1/2-z
1/2+x,y,1/2-z
1/2-x,1/2+y,z
x,1/2-y,1/2+z
loop_
_atom_site_type_symbol
_atom_site_label
_atom_site_fract_x
_atom_site_fract_y
_atom_site_fract_z
Si Si1 0.317360 0.161086 0.416524
Si Si2 0.258754 0.335683 0.590210
Si Si3 0.000000 0.250000 0.821200
Si Si4 0.885171 0.077894 0.804025
Si Si5 0.456185 0.461389 0.420101
O O1 0.250000 0.156210 0.500000
O O2 0.326740 0.255492 0.385888
O O3 0.228578 0.107663 0.359720
O O4 0.456489 0.120503 0.418074
O O5 0.250000 0.331856 0.500000
O O6 0.395521 0.300412 0.624898
O O7 0.189180 0.426583 0.600163
O O8 0.061131 0.330436 0.776143
O O9 0.847667 0.000000 0.750000
O O10 0.989762 0.031043 0.857798
O O11 0.500000 0.500000 0.500000
#
# Coordination Sequence:
#
# PCOD9532242 Si02
#       5
#    16  16   8  16  16
#     4  10  22  43  68 101 144 188 245 312 377 450
#     4  10  23  39  70 104 146 192 250 313 380 448
#     4  10  24  50  70 104 156 202 250 324 382 462
#     4  11  26  46  72 105 145 198 249 312 388 457
#     4  12  24  40  72 108 145 190 254 312 377 457
#
# _framework density 25.015525
#
# number of rings (size 3 to 8) (size 9 to 14) (size 15 to 20)
#    0.000    1.333    2.222    2.000   12.444    0.889 
#    4.000    2.222    0.000    0.000    0.000    0.000 
#    0.000    0.000    0.000    0.000    0.000    0.000 
#
# Total GULP energy -200413.256936 kJ/mol
# GULP energy per Si atom -5567.034915 kJ/mol
# Density = 2.495859 g / cm^3
# Si number density = 25.015525 Si / 1000 Ang^3
#
#
#
# Elastic Constant Matrix: (Units=GPa)
#
#
# Indices 1 2 3 4 5 6 
#
# 1 91.1337 51.5844 16.4437 0.0000 0.0000 0.0000
# 2 51.5844 219.3397 57.9008 0.0000 0.0000 0.0000
# 3 16.4437 57.9008 108.7081 0.0000 0.0000 0.0000
# 4 0.0000 0.0000 0.0000 32.5050 0.0000 0.0000
# 5 0.0000 0.0000 0.0000 0.0000 10.6962 0.0000
# 6 0.0000 0.0000 0.0000 0.0000 0.0000 24.9149
#
#
#
# Elastic Compliance Matrix: (Units=1/GPa)
#
#
# Indices 1 2 3 4 5 6 
#
# 1 0.012672 -0.002879 -0.000383 0.000000 0.000000 0.000000
# 2 -0.002879 0.005959 -0.002738 0.000000 0.000000 0.000000
# 3 -0.000383 -0.002738 0.010716 0.000000 0.000000 0.000000
# 4 0.000000 0.000000 0.000000 0.030764 0.000000 0.000000
# 5 0.000000 0.000000 0.000000 0.000000 0.093491 0.000000
# 6 0.000000 0.000000 0.000000 0.000000 0.000000 0.040137
#
#
# Mechanical properties :
#
#
# Convention : Reuss Voigt Hill
#
# Bulk Modulus (GPa) = 57.65461 74.55993 66.10727
# Shear Modulus (GPa) = 23.63821 33.17339 28.40580
#
# Velocity S-wave (km/s) = 3.07733 3.64553 3.37341
# Velocity P-wave (km/s) = 5.97697 6.89855 6.45423
#
# Compressibility (1/GPa) = 0.01734467
#
# Stress axis : x y z
#
# Youngs Moduli (GPa) = 78.91650 167.81047 93.32245
#
# Poissons Ratio (x) = 0.48311 0.03578
# Poissons Ratio (y) = 0.22719 0.25556
# Poissons Ratio (z) = 0.03026 0.45955
#
# Static dielectric constant tensor:
#      x y z
#    x 2.131340 0.000000 0.000000 
#    y 0.000000 2.060250 0.000000 
#    z 0.000000 0.000000 5.870620 
# 
# From -- ./inp_files/25252.got.cif
#   From: 2010.05.17/outbox.cif.g08.bks.cpg/sg73_13_cif.got.tgz:25252.got - 2010.06.03 17:35:07.
