data_PCOD9532541
_publ_section_title
;
Structure prediction by ZEFSAII (Michael W. Deem and Ramdas Pophale) SiO2 
 PCOD9532541
Probable space group: I B C A 
;
_chemical_formula_sum "Si O2"
_cell_formula_units_Z 120
_cell_length_a 10.947013
_cell_length_b 18.113427
_cell_length_c 25.705861
_cell_angle_alpha 90.000000
_cell_angle_beta 90.000000
_cell_angle_gamma 90.000000
_cell_volume 5097.161731
_symmetry_space_group_name_H-M "I B C A "
_symmetry_group_IT_number 73
_symmetry_cell_setting 'orthorhombic'
loop_
_space_group_symop_operation_xyz
x,y,z
-x,1/2-y,z
x,-y,1/2-z
1/2-x,y,-z
-x,-y,-z
x,1/2+y,-z
-x,y,1/2+z
1/2+x,-y,z
1/2+x,1/2+y,1/2+z
1/2-x,-y,1/2+z
1/2+x,1/2-y,-z
-x,1/2+y,1/2-z
1/2-x,1/2-y,1/2-z
1/2+x,y,1/2-z
1/2-x,1/2+y,z
x,1/2-y,1/2+z
loop_
_atom_site_type_symbol
_atom_site_label
_atom_site_fract_x
_atom_site_fract_y
_atom_site_fract_z
Si Si1 0.750000 0.831741 0.500000
Si Si2 0.344619 0.216672 0.930136
Si Si3 0.128309 0.086548 0.402248
Si Si4 0.066614 0.579923 0.881504
Si Si5 0.655689 0.917570 0.232148
Si Si6 0.589285 0.816082 0.883797
Si Si7 0.840381 0.838660 0.343801
Si Si8 0.406399 0.344485 0.734920
O O1 0.848686 0.773445 0.477492
O O2 0.808322 0.881220 0.545616
O O3 0.420187 0.142020 0.925796
O O4 0.207338 0.189040 0.919093
O O5 0.366343 0.271460 0.882171
O O6 0.207658 0.126668 0.356578
O O7 0.989182 0.111701 0.394640
O O8 0.116939 0.998604 0.399922
O O9 0.143605 0.596385 0.829501
O O10 0.930343 0.593050 0.858786
O O11 0.546912 0.869435 0.258367
O O12 0.799699 0.905946 0.241957
O O13 0.624699 0.000000 0.250000
O O14 0.500000 0.750000 0.898270
O O15 0.612999 0.809992 0.821703
O O16 0.869979 0.802988 0.287834
#
# Coordination Sequence:
#
# PCOD9532541 Si02
#       8
#     8  16  16  16  16  16  16  16
#     4  10  24  50  74  98 136 176 242 298 364 424
#     4  11  24  47  71 100 136 183 238 297 360 423
#     4  11  25  47  70 104 139 185 234 302 359 424
#     4  11  24  42  69  99 143 178 235 293 355 417
#     4  11  22  37  60  99 144 197 234 283 352 426
#     4  12  23  43  70 101 139 187 233 291 352 433
#     4  10  23  43  64 102 148 185 232 292 342 422
#     4  11  23  37  65 101 142 192 244 282 345 428
#
# _framework density 23.542514000000001
#
# number of rings (size 3 to 8) (size 9 to 14) (size 15 to 20)
#    0.000    1.067    4.000    3.200    1.867    5.333 
#    9.600    2.667    0.000    0.000    0.000    0.000 
#    0.000    0.000    0.000    0.000    0.000    0.000 
#
# Total GULP energy -334884.471069 kJ/mol
# GULP energy per Si atom -5581.407851 kJ/mol
# Density = 2.348893 g / cm^3
# Si number density = 23.542514 Si / 1000 Ang^3
#
#
#
# Elastic Constant Matrix: (Units=GPa)
#
#
# Indices 1 2 3 4 5 6 
#
# 1 116.1135 24.1344 18.9553 0.0000 0.0000 0.0000
# 2 24.1344 88.8264 8.8114 0.0000 0.0000 0.0000
# 3 18.9553 8.8114 87.7343 0.0000 0.0000 0.0000
# 4 0.0000 0.0000 0.0000 22.5140 0.0000 0.0000
# 5 0.0000 0.0000 0.0000 0.0000 22.3729 0.0000
# 6 0.0000 0.0000 0.0000 0.0000 0.0000 33.7402
#
#
#
# Elastic Compliance Matrix: (Units=1/GPa)
#
#
# Indices 1 2 3 4 5 6 
#
# 1 0.009399 -0.002376 -0.001792 0.000000 0.000000 0.000000
# 2 -0.002376 0.011972 -0.000689 0.000000 0.000000 0.000000
# 3 -0.001792 -0.000689 0.011854 0.000000 0.000000 0.000000
# 4 0.000000 0.000000 0.000000 0.044417 0.000000 0.000000
# 5 0.000000 0.000000 0.000000 0.000000 0.044697 0.000000
# 6 0.000000 0.000000 0.000000 0.000000 0.000000 0.029638
#
#
# Mechanical properties :
#
#
# Convention : Reuss Voigt Hill
#
# Bulk Modulus (GPa) = 42.53324 44.05294 43.29309
# Shear Modulus (GPa) = 29.49372 31.77697 30.63535
#
# Velocity S-wave (km/s) = 3.54331 3.67791 3.61124
# Velocity P-wave (km/s) = 5.90304 6.06537 5.98475
#
# Compressibility (1/GPa) = 0.02351102
#
# Stress axis : x y z
#
# Youngs Moduli (GPa) = 106.39846 83.52962 84.35676
#
# Poissons Ratio (x) = 0.19846 0.15117
# Poissons Ratio (y) = 0.25279 0.05813
# Poissons Ratio (z) = 0.19067 0.05756
#
# Static dielectric constant tensor:
#      x y z
#    x 2.020920 0.000000 0.000000 
#    y 0.000000 1.893230 0.000000 
#    z 0.000000 0.000000 1.960400 
# 
# From -- ./inp_files/31853.got.cif
#   From: 2010.05.17/outbox.cif.g08.bks.cpg/sg73_16_cif.got.tgz:31853.got - 2010.06.03 17:35:07.
