data_PCOD9532870
_publ_section_title
;
Structure prediction by ZEFSAII (Michael W. Deem and Ramdas Pophale) SiO2 
 PCOD9532870
Probable space group: I B C A 
;
_chemical_formula_sum "Si O2"
_cell_formula_units_Z 64
_cell_length_a 11.238601
_cell_length_b 27.562195
_cell_length_c 9.769879
_cell_angle_alpha 90.000000
_cell_angle_beta 90.000000
_cell_angle_gamma 90.000000
_cell_volume 3026.322724
_symmetry_space_group_name_H-M "I B C A "
_symmetry_group_IT_number 73
_symmetry_cell_setting 'orthorhombic'
loop_
_space_group_symop_operation_xyz
x,y,z
-x,1/2-y,z
x,-y,1/2-z
1/2-x,y,-z
-x,-y,-z
x,1/2+y,-z
-x,y,1/2+z
1/2+x,-y,z
1/2+x,1/2+y,1/2+z
1/2-x,-y,1/2+z
1/2+x,1/2-y,-z
-x,1/2+y,1/2-z
1/2-x,1/2-y,1/2-z
1/2+x,y,1/2-z
1/2-x,1/2+y,z
x,1/2-y,1/2+z
loop_
_atom_site_type_symbol
_atom_site_label
_atom_site_fract_x
_atom_site_fract_y
_atom_site_fract_z
Si Si1 0.750000 0.213527 0.500000
Si Si2 0.119888 0.500000 0.750000
Si Si3 0.750000 0.451133 0.500000
Si Si4 0.510734 0.591787 0.112422
Si Si5 0.500000 0.750000 0.490185
Si Si6 0.930606 0.845430 0.132226
O O1 0.631786 0.241368 0.446375
O O2 0.801245 0.179311 0.379505
O O3 0.201504 0.518005 0.626410
O O4 0.042886 0.544176 0.813543
O O5 0.639021 0.420561 0.448254
O O6 0.529648 0.632317 0.226680
O O7 0.436554 0.613659 0.986116
O O8 0.486129 0.700166 0.406088
#
# Coordination Sequence:
#
# PCOD9532870 Si02
#       6
#     8   8   8  16   8  16
#     4   8  20  44  72 102 148 188 246 314 368 460
#     4  12  28  48  70 112 150 192 252 316 376 460
#     4  12  28  44  78 102 150 198 242 318 380 454
#     4  12  26  48  68 110 146 197 251 311 375 455
#     4   8  20  44  68 114 138 200 236 320 370 456
#     4  10  24  44  74 104 148 192 247 311 371 451
#
# _framework density 21.147777999999999
#
# number of rings (size 3 to 8) (size 9 to 14) (size 15 to 20)
#    1.500    0.000    2.500    1.500    7.000    2.000 
#    0.000    2.500    0.000    0.000    0.000    0.000 
#    0.000    0.000    0.000    0.000    0.000    0.000 
#
# Total GULP energy -178338.501722 kJ/mol
# GULP energy per Si atom -5573.078179 kJ/mol
# Density = 2.109964 g / cm^3
# Si number density = 21.147778 Si / 1000 Ang^3
#
#
#
# Elastic Constant Matrix: (Units=GPa)
#
#
# Indices 1 2 3 4 5 6 
#
# 1 145.0945 43.4420 28.1829 0.0000 0.0000 0.0000
# 2 43.4420 86.4838 19.7015 0.0000 0.0000 0.0000
# 3 28.1829 19.7015 84.5671 0.0001 0.0001 -0.0003
# 4 0.0000 0.0000 0.0001 35.9287 0.0000 -0.0001
# 5 0.0000 0.0000 0.0001 0.0000 28.8305 0.0002
# 6 0.0000 0.0000 -0.0003 -0.0001 0.0002 61.3827
#
#
#
# Elastic Compliance Matrix: (Units=1/GPa)
#
#
# Indices 1 2 3 4 5 6 
#
# 1 0.008397 -0.003781 -0.001917 0.000000 0.000000 0.000000
# 2 -0.003781 0.013913 -0.001981 0.000000 0.000000 0.000000
# 3 -0.001917 -0.001981 0.012926 0.000000 0.000000 0.000000
# 4 0.000000 0.000000 0.000000 0.027833 0.000000 0.000000
# 5 0.000000 0.000000 0.000000 0.000000 0.034686 0.000000
# 6 0.000000 0.000000 0.000000 0.000000 0.000000 0.016291
#
#
# Mechanical properties :
#
#
# Convention : Reuss Voigt Hill
#
# Bulk Modulus (GPa) = 50.31161 55.42202 52.86682
# Shear Modulus (GPa) = 36.75664 40.21630 38.48647
#
# Velocity S-wave (km/s) = 4.17356 4.36556 4.27064
# Velocity P-wave (km/s) = 6.86053 7.18851 7.02644
#
# Compressibility (1/GPa) = 0.01987613
#
# Stress axis : x y z
#
# Youngs Moduli (GPa) = 119.09718 71.87311 77.36628
#
# Poissons Ratio (x) = 0.27174 0.14834
# Poissons Ratio (y) = 0.45029 0.15329
# Poissons Ratio (z) = 0.22836 0.14241
#
# Static dielectric constant tensor:
#      x y z
#    x 1.751530 0.000000 0.000000 
#    y 0.000000 1.804600 0.000000 
#    z 0.000000 0.000000 1.656150 
# 
# From -- ./inp_files/4058.got.cif
#   From: 2010.05.17/outbox.cif.g08.bks.cpg/sg73_3_cif.got.tgz:4058.got - 2010.06.03 17:35:07.
