data_PCOD9532801
_publ_section_title
;
Structure prediction by ZEFSAII (Michael W. Deem and Ramdas Pophale) SiO2 
 PCOD9532801
Probable space group: I B C A 
;
_chemical_formula_sum "Si O2"
_cell_formula_units_Z 88
_cell_length_a 23.533648
_cell_length_b 13.479015
_cell_length_c 10.567980
_cell_angle_alpha 90.000000
_cell_angle_beta 90.000000
_cell_angle_gamma 90.000000
_cell_volume 3352.273104
_symmetry_space_group_name_H-M "I B C A "
_symmetry_group_IT_number 73
_symmetry_cell_setting 'orthorhombic'
loop_
_space_group_symop_operation_xyz
x,y,z
-x,1/2-y,z
x,-y,1/2-z
1/2-x,y,-z
-x,-y,-z
x,1/2+y,-z
-x,y,1/2+z
1/2+x,-y,z
1/2+x,1/2+y,1/2+z
1/2-x,-y,1/2+z
1/2+x,1/2-y,-z
-x,1/2+y,1/2-z
1/2-x,1/2-y,1/2-z
1/2+x,y,1/2-z
1/2-x,1/2+y,z
x,1/2-y,1/2+z
loop_
_atom_site_type_symbol
_atom_site_label
_atom_site_fract_x
_atom_site_fract_y
_atom_site_fract_z
Si Si1 0.947887 0.875721 0.925349
Si Si2 0.934939 0.944350 0.375552
Si Si3 0.181454 0.844662 0.768863
Si Si4 0.887970 0.500000 0.250000
Si Si5 0.712692 0.935864 0.395556
Si Si6 0.659564 0.732366 0.502918
O O1 0.925369 0.905434 0.784498
O O2 0.015496 0.867344 0.914482
O O3 0.907016 0.791194 0.979282
O O4 0.935782 0.973221 0.013496
O O5 0.874300 0.899253 0.330323
O O6 0.956128 0.000000 0.250000
O O7 0.239995 0.900714 0.796662
O O8 0.174899 0.834544 0.618752
O O9 0.182702 0.741500 0.851651
O O10 0.841441 0.502109 0.140098
O O11 0.750000 0.989339 0.500000
O O12 0.684343 0.836522 0.452021
#
# Coordination Sequence:
#
# PCOD9532801 Si02
#       6
#    16  16  16   8  16  16
#     4  11  24  42  71 102 137 187 229 302 366 426
#     4  11  23  46  71  99 139 182 242 292 357 441
#     4  11  24  44  68 101 136 188 236 293 361 438
#     4  12  24  42  68 106 138 178 250 298 352 444
#     4  10  24  43  66 100 142 185 239 297 359 444
#     4  11  23  43  66  98 141 181 228 295 364 431
#
# _framework density 26.250845000000002
#
# number of rings (size 3 to 8) (size 9 to 14) (size 15 to 20)
#    0.000    1.091    2.727    3.818    1.273    5.091 
#    0.000    3.636    0.000    0.000    0.000    0.000 
#    0.000    0.000    0.000    0.000    0.000    0.000 
#
# Total GULP energy -245454.705424 kJ/mol
# GULP energy per Si atom -5578.516032 kJ/mol
# Density = 2.619110 g / cm^3
# Si number density = 26.250845 Si / 1000 Ang^3
#
#
#
# Elastic Constant Matrix: (Units=GPa)
#
#
# Indices 1 2 3 4 5 6 
#
# 1 192.6052 69.8881 48.9067 0.0000 0.0000 0.0000
# 2 69.8881 53.9886 27.1958 0.0000 0.0000 0.0000
# 3 48.9067 27.1958 115.9070 0.0000 0.0000 0.0000
# 4 0.0000 0.0000 0.0000 28.5727 0.0000 0.0000
# 5 0.0000 0.0000 0.0000 0.0000 -380.7475 0.0000
# 6 0.0000 0.0000 0.0000 0.0000 0.0000 66.2058
#
#
#
# Elastic Compliance Matrix: (Units=1/GPa)
#
#
# Indices 1 2 3 4 5 6 
#
# 1 0.009970 -0.012233 -0.001337 0.000000 0.000000 0.000000
# 2 -0.012233 0.036015 -0.003289 0.000000 0.000000 0.000000
# 3 -0.001337 -0.003289 0.009963 0.000000 0.000000 0.000000
# 4 0.000000 0.000000 0.000000 0.034998 0.000000 0.000000
# 5 0.000000 0.000000 0.000000 0.000000 -0.002626 0.000000
# 6 0.000000 0.000000 0.000000 0.000000 0.000000 0.015104
#
#
# Mechanical properties :
#
#
# Convention : Reuss Voigt Hill
#
# Bulk Modulus (GPa) = 44.98106 72.72023 58.85064
# Shear Modulus (GPa) = 34.58965 -42.75979 -4.08507
#
# Velocity S-wave (km/s) = 3.63389 -4.04033 -1.24882
# Velocity P-wave (km/s) = 5.89739 2.44877 4.51529
#
# Compressibility (1/GPa) = 0.02223158
#
# Stress axis : x y z
#
# Youngs Moduli (GPa) = 100.29825 27.76634 100.36946
#
# Poissons Ratio (x) = 0.33967 0.13415
# Poissons Ratio (y) = 1.22697 0.33007
# Poissons Ratio (z) = 0.13406 0.09131
#
# Static dielectric constant tensor:
#      x y z
#    x 1.993510 0.000000 0.000000 
#    y 0.000000 2.143020 0.000000 
#    z 0.000000 0.000000 2.409680 
# 
# From -- ./inp_files/10928.got.cif
#   From: 2010.05.17/outbox.cif.g08.bks.cpg/sg73_6_cif.got.tgz:10928.got - 2010.06.03 17:35:07.
