data_PCOD9532258
_publ_section_title
;
Structure prediction by ZEFSAII (Michael W. Deem and Ramdas Pophale) SiO2 
 PCOD9532258
Probable space group: I B C A 
;
_chemical_formula_sum "Si O2"
_cell_formula_units_Z 72
_cell_length_a 11.403025
_cell_length_b 15.321402
_cell_length_c 18.138836
_cell_angle_alpha 90.000000
_cell_angle_beta 90.000000
_cell_angle_gamma 90.000000
_cell_volume 3169.042024
_symmetry_space_group_name_H-M "I B C A "
_symmetry_group_IT_number 73
_symmetry_cell_setting 'orthorhombic'
loop_
_space_group_symop_operation_xyz
x,y,z
-x,1/2-y,z
x,-y,1/2-z
1/2-x,y,-z
-x,-y,-z
x,1/2+y,-z
-x,y,1/2+z
1/2+x,-y,z
1/2+x,1/2+y,1/2+z
1/2-x,-y,1/2+z
1/2+x,1/2-y,-z
-x,1/2+y,1/2-z
1/2-x,1/2-y,1/2-z
1/2+x,y,1/2-z
1/2-x,1/2+y,z
x,1/2-y,1/2+z
loop_
_atom_site_type_symbol
_atom_site_label
_atom_site_fract_x
_atom_site_fract_y
_atom_site_fract_z
Si Si1 0.521698 0.650693 0.650086
Si Si2 0.750000 0.041065 0.500000
Si Si3 0.412156 0.500000 0.750000
Si Si4 0.000000 0.750000 0.122296
Si Si5 0.798253 0.368217 0.857842
Si Si6 0.618071 0.127033 0.005218
O O1 0.500000 0.750000 0.674847
O O2 0.484292 0.573928 0.705966
O O3 0.661341 0.649466 0.643525
O O4 0.451014 0.635860 0.572386
O O5 0.685849 0.100550 0.558528
O O6 0.650564 0.972680 0.472601
O O7 0.331451 0.550603 0.807501
O O8 0.112716 0.709239 0.162431
O O9 0.051118 0.825100 0.069886
O O10 0.750000 0.167915 0.000000
#
# Coordination Sequence:
#
# PCOD9532258 Si02
#       6
#    16   8   8   8  16  16
#     4  12  26  49  77 105 155 204 254 317 383 461
#     4  10  24  44  74 106 148 194 254 314 374 452
#     4  12  28  52  72 116 152 208 254 314 386 470
#     4  12  26  42  74 110 152 188 260 320 374 452
#     4  12  28  47  76 111 151 204 253 317 388 453
#     4  10  22  43  71 111 145 188 251 312 379 440
#
# _framework density 22.719801
#
# number of rings (size 3 to 8) (size 9 to 14) (size 15 to 20)
#    0.667    0.000    3.333    3.333    6.222    2.667 
#    4.000    0.000    0.000    0.000    0.000    0.000 
#    0.000    0.000    0.000    0.000    0.000    0.000 
#
# Total GULP energy -201172.963867 kJ/mol
# GULP energy per Si atom -5588.137885 kJ/mol
# Density = 2.266809 g / cm^3
# Si number density = 22.719801 Si / 1000 Ang^3
#
#
#
# Elastic Constant Matrix: (Units=GPa)
#
#
# Indices 1 2 3 4 5 6 
#
# 1 186.3272 60.9557 26.4887 0.0000 0.0000 0.0000
# 2 60.9557 122.2048 21.8362 0.0000 0.0000 0.0000
# 3 26.4887 21.8362 58.4824 0.0000 0.0000 0.0000
# 4 0.0000 0.0000 0.0000 40.8685 0.0000 0.0000
# 5 0.0000 0.0000 0.0000 0.0000 11.5451 0.0000
# 6 0.0000 0.0000 0.0000 0.0000 0.0000 49.6306
#
#
#
# Elastic Compliance Matrix: (Units=1/GPa)
#
#
# Indices 1 2 3 4 5 6 
#
# 1 0.006602 -0.002956 -0.001887 0.000000 0.000000 0.000000
# 2 -0.002956 0.010092 -0.002429 0.000000 0.000000 0.000000
# 3 -0.001887 -0.002429 0.018861 0.000000 0.000000 0.000000
# 4 0.000000 0.000000 0.000000 0.024469 0.000000 0.000000
# 5 0.000000 0.000000 0.000000 0.000000 0.086617 0.000000
# 6 0.000000 0.000000 0.000000 0.000000 0.000000 0.020149
#
#
# Mechanical properties :
#
#
# Convention : Reuss Voigt Hill
#
# Bulk Modulus (GPa) = 47.59449 65.06394 56.32922
# Shear Modulus (GPa) = 26.54833 37.59110 32.06972
#
# Velocity S-wave (km/s) = 3.42206 4.07203 3.76111
# Velocity P-wave (km/s) = 6.05045 7.12799 6.61121
#
# Compressibility (1/GPa) = 0.02101083
#
# Stress axis : x y z
#
# Youngs Moduli (GPa) = 151.46561 99.09329 53.02047
#
# Poissons Ratio (x) = 0.29292 0.10003
# Poissons Ratio (y) = 0.44774 0.12879
# Poissons Ratio (z) = 0.28576 0.24071
#
# Static dielectric constant tensor:
#      x y z
#    x 1.964020 0.000000 0.000000 
#    y 0.000000 1.893780 0.000000 
#    z 0.000000 0.000000 1.802260 
# 
# From -- ./inp_files/25276.got.cif
#   From: 2010.05.17/outbox.cif.g08.bks.cpg/sg73_13_cif.got.tgz:25276.got - 2010.06.03 17:35:07.
