data_PCOD9532435
_publ_section_title
;
Structure prediction by ZEFSAII (Michael W. Deem and Ramdas Pophale) SiO2 
 PCOD9532435
Probable space group: I B C A 
;
_chemical_formula_sum "Si O2"
_cell_formula_units_Z 88
_cell_length_a 8.592913
_cell_length_b 17.493965
_cell_length_c 27.659092
_cell_angle_alpha 90.000000
_cell_angle_beta 90.000000
_cell_angle_gamma 90.000000
_cell_volume 4157.828645
_symmetry_space_group_name_H-M "I B C A "
_symmetry_group_IT_number 73
_symmetry_cell_setting 'orthorhombic'
loop_
_space_group_symop_operation_xyz
x,y,z
-x,1/2-y,z
x,-y,1/2-z
1/2-x,y,-z
-x,-y,-z
x,1/2+y,-z
-x,y,1/2+z
1/2+x,-y,z
1/2+x,1/2+y,1/2+z
1/2-x,-y,1/2+z
1/2+x,1/2-y,-z
-x,1/2+y,1/2-z
1/2-x,1/2-y,1/2-z
1/2+x,y,1/2-z
1/2-x,1/2+y,z
x,1/2-y,1/2+z
loop_
_atom_site_type_symbol
_atom_site_label
_atom_site_fract_x
_atom_site_fract_y
_atom_site_fract_z
Si Si1 0.232661 0.686265 0.362858
Si Si2 0.836607 0.500000 0.750000
Si Si3 0.480743 0.585127 0.461915
Si Si4 0.924162 0.608777 0.211141
Si Si5 0.122033 0.438245 0.066208
Si Si6 0.000000 0.750000 0.282906
Si Si7 0.500000 0.250000 0.578465
O O1 0.378968 0.640238 0.340510
O O2 0.120495 0.626549 0.391674
O O3 0.140138 0.725874 0.318855
O O4 0.331506 0.745383 0.394554
O O5 0.729757 0.564892 0.772000
O O6 0.944346 0.455667 0.787837
O O7 0.301287 0.567521 0.449523
O O8 0.490603 0.577678 0.520233
O O9 0.582305 0.528010 0.428558
O O10 0.508963 0.672723 0.451239
O O11 0.962236 0.677818 0.248169
#
# Coordination Sequence:
#
# PCOD9532435 Si02
#       7
#    16   8  16  16  16   8   8
#     4  11  24  40  62  94 125 167 225 268 321 394
#     4  10  24  42  66  88 120 178 216 254 342 382
#     4   9  19  41  63  89 126 160 199 254 331 378
#     4  11  23  44  62  92 126 173 216 277 321 391
#     4   9  20  39  63  90 121 160 205 258 312 393
#     4  12  25  43  62  90 132 174 214 279 331 374
#     4  10  23  39  62  94 124 170 206 265 321 384
#
# _framework density 21.164892999999999
#
# number of rings (size 3 to 8) (size 9 to 14) (size 15 to 20)
#    0.000    1.818    1.818    1.091    2.545    5.091 
#    3.273   12.727    0.000    0.000    0.000    0.000 
#    0.000    0.000    0.000    0.000    0.000    0.000 
#
# Total GULP energy -245159.125331 kJ/mol
# GULP energy per Si atom -5571.798303 kJ/mol
# Density = 2.111672 g / cm^3
# Si number density = 21.164893 Si / 1000 Ang^3
#
#
#
# Elastic Constant Matrix: (Units=GPa)
#
#
# Indices 1 2 3 4 5 6 
#
# 1 50.7724 54.3848 11.8479 0.0000 0.0000 0.0000
# 2 54.3848 136.4756 32.5108 0.0000 0.0000 0.0000
# 3 11.8479 32.5108 56.1074 0.0000 0.0000 0.0000
# 4 0.0000 0.0000 0.0000 -19.6881 0.0000 0.0000
# 5 0.0000 0.0000 0.0000 0.0000 38.8539 0.0000
# 6 0.0000 0.0000 0.0000 0.0000 0.0000 38.4806
#
#
#
# Elastic Compliance Matrix: (Units=1/GPa)
#
#
# Indices 1 2 3 4 5 6 
#
# 1 0.034394 -0.013893 0.000788 0.000000 0.000000 0.000000
# 2 -0.013893 0.014113 -0.005244 0.000000 0.000000 0.000000
# 3 0.000788 -0.005244 0.020695 0.000000 0.000000 0.000000
# 4 0.000000 0.000000 0.000000 -0.050792 0.000000 0.000000
# 5 0.000000 0.000000 0.000000 0.000000 0.025737 0.000000
# 6 0.000000 0.000000 0.000000 0.000000 0.000000 0.025987
#
#
# Mechanical properties :
#
#
# Convention : Reuss Voigt Hill
#
# Bulk Modulus (GPa) = 30.76665 48.98249 39.87457
# Shear Modulus (GPa) = 42.49257 21.17007 31.83132
#
# Velocity S-wave (km/s) = 4.48559 3.16610 3.88231
# Velocity P-wave (km/s) = 6.43394 6.04641 6.24318
#
# Compressibility (1/GPa) = 0.03250273
#
# Stress axis : x y z
#
# Youngs Moduli (GPa) = 29.07497 70.85713 48.32060
#
# Poissons Ratio (x) = 0.98444 -0.03806
# Poissons Ratio (y) = 0.40395 0.25338
# Poissons Ratio (z) = -0.02290 0.37156
#
# Static dielectric constant tensor:
#      x y z
#    x 1.712420 0.000000 0.000000 
#    y 0.000000 1.857740 0.000000 
#    z 0.000000 0.000000 2.897630 
# 
# From -- ./inp_files/33550.got.cif
#   From: 2010.05.17/outbox.cif.g08.bks.cpg/sg73_17_cif.got.tgz:33550.got - 2010.06.03 17:35:07.
