data_PCOD9532663
_publ_section_title
;
Structure prediction by ZEFSAII (Michael W. Deem and Ramdas Pophale) SiO2 
 PCOD9532663
Probable space group: I B C A 
;
_chemical_formula_sum "Si O2"
_cell_formula_units_Z 120
_cell_length_a 18.328794
_cell_length_b 10.399087
_cell_length_c 24.702455
_cell_angle_alpha 90.000000
_cell_angle_beta 90.000000
_cell_angle_gamma 90.000000
_cell_volume 4708.355198
_symmetry_space_group_name_H-M "I B C A "
_symmetry_group_IT_number 73
_symmetry_cell_setting 'orthorhombic'
loop_
_space_group_symop_operation_xyz
x,y,z
-x,1/2-y,z
x,-y,1/2-z
1/2-x,y,-z
-x,-y,-z
x,1/2+y,-z
-x,y,1/2+z
1/2+x,-y,z
1/2+x,1/2+y,1/2+z
1/2-x,-y,1/2+z
1/2+x,1/2-y,-z
-x,1/2+y,1/2-z
1/2-x,1/2-y,1/2-z
1/2+x,y,1/2-z
1/2-x,1/2+y,z
x,1/2-y,1/2+z
loop_
_atom_site_type_symbol
_atom_site_label
_atom_site_fract_x
_atom_site_fract_y
_atom_site_fract_z
Si Si1 0.586073 0.771571 0.010420
Si Si2 0.066664 0.145697 0.615526
Si Si3 0.984393 0.895416 0.159471
Si Si4 0.111743 0.312954 0.239113
Si Si5 0.137147 0.598252 0.687638
Si Si6 0.702175 0.439143 0.946022
Si Si7 0.192176 0.225662 0.409431
Si Si8 0.240951 0.000000 0.750000
O O1 0.500000 0.750000 0.999172
O O2 0.605961 0.670578 0.058361
O O3 0.618728 0.902616 0.037713
O O4 0.633936 0.754207 0.956733
O O5 0.096961 0.172484 0.675687
O O6 0.000000 0.250000 0.611690
O O7 0.055070 0.991990 0.619300
O O8 0.945160 0.878401 0.218165
O O9 0.000000 0.750000 0.140639
O O10 0.063861 0.961896 0.165131
O O11 0.114219 0.164981 0.256152
O O12 0.189019 0.378240 0.250116
O O13 0.157351 0.719847 0.649727
O O14 0.206693 0.512763 0.698571
O O15 0.740826 0.323123 0.913509
O O16 0.710122 0.575753 0.918154
O O17 0.750000 0.446012 0.000000
#
# Coordination Sequence:
#
# PCOD9532663 Si02
#       8
#    16  16  16  16  16  16  16   8
#     4  10  25  45  74 113 146 189 251 317 373 446
#     4  11  23  42  80 102 144 193 247 299 367 448
#     4  10  23  47  70 104 143 192 244 296 375 431
#     4  11  24  46  67 105 142 196 239 301 369 446
#     4  11  28  42  72 108 146 191 246 307 368 448
#     4  10  23  48  73 102 143 196 245 301 377 449
#     4  11  26  49  78 106 148 196 251 311 380 455
#     4  12  26  42  68 104 150 186 246 296 370 430
#
# _framework density 25.486605999999998
#
# number of rings (size 3 to 8) (size 9 to 14) (size 15 to 20)
#    0.000    1.333    1.333    2.800   11.200    2.133 
#   12.000    0.000    0.000    0.000    0.000    0.000 
#    0.000    0.000    0.000    0.000    0.000    0.000 
#
# Total GULP energy -335364.191471 kJ/mol
# GULP energy per Si atom -5589.403191 kJ/mol
# Density = 2.542860 g / cm^3
# Si number density = 25.486606 Si / 1000 Ang^3
#
#
#
# Elastic Constant Matrix: (Units=GPa)
#
#
# Indices 1 2 3 4 5 6 
#
# 1 113.4129 12.3617 13.1560 0.0000 0.0000 0.0000
# 2 12.3617 106.7899 16.2048 0.0000 0.0000 0.0000
# 3 13.1560 16.2048 101.7348 0.0000 0.0000 0.0000
# 4 0.0000 0.0000 0.0000 38.9867 0.0000 0.0000
# 5 0.0000 0.0000 0.0000 0.0000 5.5903 0.0000
# 6 0.0000 0.0000 0.0000 0.0000 0.0000 30.0519
#
#
#
# Elastic Compliance Matrix: (Units=1/GPa)
#
#
# Indices 1 2 3 4 5 6 
#
# 1 0.009033 -0.000890 -0.001026 0.000000 0.000000 0.000000
# 2 -0.000890 0.009684 -0.001427 0.000000 0.000000 0.000000
# 3 -0.001026 -0.001427 0.010190 0.000000 0.000000 0.000000
# 4 0.000000 0.000000 0.000000 0.025650 0.000000 0.000000
# 5 0.000000 0.000000 0.000000 0.000000 0.178882 0.000000
# 6 0.000000 0.000000 0.000000 0.000000 0.000000 0.033276
#
#
# Mechanical properties :
#
#
# Convention : Reuss Voigt Hill
#
# Bulk Modulus (GPa) = 45.00597 45.04253 45.02425
# Shear Modulus (GPa) = 17.80572 33.60678 25.70625
#
# Velocity S-wave (km/s) = 2.64603 3.63520 3.17932
# Velocity P-wave (km/s) = 5.19926 5.94399 5.58405
#
# Compressibility (1/GPa) = 0.02221928
#
# Stress axis : x y z
#
# Youngs Moduli (GPa) = 110.70020 103.26526 98.13948
#
# Poissons Ratio (x) = 0.09190 0.10073
# Poissons Ratio (y) = 0.09852 0.14008
# Poissons Ratio (z) = 0.11363 0.14740
#
# Static dielectric constant tensor:
#      x y z
#    x 2.063030 0.000000 0.000000 
#    y 0.000000 2.022970 0.000000 
#    z 0.000000 0.000000 2.054260 
# 
# From -- ./inp_files/32444.got.cif
#   From: 2010.05.17/outbox.cif.g08.bks.cpg/sg73_17_cif.got.tgz:32444.got - 2010.06.03 17:35:07.
