data_PCOD9532233
_publ_section_title
;
Structure prediction by ZEFSAII (Michael W. Deem and Ramdas Pophale) SiO2 
 PCOD9532233
Probable space group: I B C A 
;
_chemical_formula_sum "Si O2"
_cell_formula_units_Z 80
_cell_length_a 17.012266
_cell_length_b 8.538624
_cell_length_c 22.804432
_cell_angle_alpha 90.000000
_cell_angle_beta 90.000000
_cell_angle_gamma 90.000000
_cell_volume 3312.602413
_symmetry_space_group_name_H-M "I B C A "
_symmetry_group_IT_number 73
_symmetry_cell_setting 'orthorhombic'
loop_
_space_group_symop_operation_xyz
x,y,z
-x,1/2-y,z
x,-y,1/2-z
1/2-x,y,-z
-x,-y,-z
x,1/2+y,-z
-x,y,1/2+z
1/2+x,-y,z
1/2+x,1/2+y,1/2+z
1/2-x,-y,1/2+z
1/2+x,1/2-y,-z
-x,1/2+y,1/2-z
1/2-x,1/2-y,1/2-z
1/2+x,y,1/2-z
1/2-x,1/2+y,z
x,1/2-y,1/2+z
loop_
_atom_site_type_symbol
_atom_site_label
_atom_site_fract_x
_atom_site_fract_y
_atom_site_fract_z
Si Si1 0.908232 0.731860 0.485688
Si Si2 0.948284 0.117804 0.299263
Si Si3 0.329760 0.824676 0.727303
Si Si4 0.660523 0.891491 0.623736
Si Si5 0.810518 0.441394 0.446363
O O1 0.885828 0.859700 0.436162
O O2 0.877601 0.571713 0.455909
O O3 0.854038 0.776195 0.541530
O O4 0.000000 0.750000 0.498144
O O5 0.897544 0.230665 0.259068
O O6 0.000000 0.250000 0.332509
O O7 0.986198 0.000000 0.250000
O O8 0.889622 0.016762 0.339430
O O9 0.250000 0.750000 0.750000
O O10 0.337465 0.771477 0.660006
O O11 0.330533 0.000000 0.750000
O O12 0.751001 0.936631 0.608687
O O13 0.750000 0.466148 0.500000
#
# Coordination Sequence:
#
# PCOD9532233 Si02
#       5
#    16  16  16  16  16
#     4  11  24  44  72 102 140 179 238 301 371 436
#     4  10  22  43  67 101 145 189 241 298 364 424
#     4  11  24  42  67 100 143 187 242 294 346 427
#     4  10  24  43  68 106 142 190 244 285 372 438
#     4  10  22  46  70  99 138 185 231 302 360 440
#
# _framework density 24.150199000000001
#
# number of rings (size 3 to 8) (size 9 to 14) (size 15 to 20)
#    0.000    1.600    0.000    4.800    5.600    4.800 
#    0.000    4.000    0.000    0.000    0.000    0.000 
#    0.000    0.000    0.000    0.000    0.000    0.000 
#
# Total GULP energy -223378.824536 kJ/mol
# GULP energy per Si atom -5584.470613 kJ/mol
# Density = 2.409523 g / cm^3
# Si number density = 24.150199 Si / 1000 Ang^3
#
#
#
# Elastic Constant Matrix: (Units=GPa)
#
#
# Indices 1 2 3 4 5 6 
#
# 1 126.3209 53.0012 32.0995 0.0000 0.0000 0.0000
# 2 53.0012 159.7089 40.6768 0.0000 0.0000 0.0000
# 3 32.0995 40.6768 90.1944 0.0000 0.0000 0.0000
# 4 0.0000 0.0000 0.0000 26.2724 0.0000 0.0000
# 5 0.0000 0.0000 0.0000 0.0000 22.9139 0.0000
# 6 0.0000 0.0000 0.0000 0.0000 0.0000 52.9176
#
#
#
# Elastic Compliance Matrix: (Units=1/GPa)
#
#
# Indices 1 2 3 4 5 6 
#
# 1 0.009579 -0.002610 -0.002232 0.000000 0.000000 0.000000
# 2 -0.002610 0.007785 -0.002582 0.000000 0.000000 0.000000
# 3 -0.002232 -0.002582 0.013046 0.000000 0.000000 0.000000
# 4 0.000000 0.000000 0.000000 0.038063 0.000000 0.000000
# 5 0.000000 0.000000 0.000000 0.000000 0.043642 0.000000
# 6 0.000000 0.000000 0.000000 0.000000 0.000000 0.018897
#
#
# Mechanical properties :
#
#
# Convention : Reuss Voigt Hill
#
# Bulk Modulus (GPa) = 64.26104 69.75325 67.00714
# Shear Modulus (GPa) = 33.10222 37.11722 35.10972
#
# Velocity S-wave (km/s) = 3.70629 3.92463 3.81702
# Velocity P-wave (km/s) = 6.70687 7.03440 6.87258
#
# Compressibility (1/GPa) = 0.01556153
#
# Stress axis : x y z
#
# Youngs Moduli (GPa) = 104.39821 128.44680 76.65243
#
# Poissons Ratio (x) = 0.33530 0.17107
# Poissons Ratio (y) = 0.27252 0.19792
# Poissons Ratio (z) = 0.23299 0.33166
#
# Static dielectric constant tensor:
#      x y z
#    x 1.885530 0.000000 0.000000 
#    y 0.000000 1.984730 0.000000 
#    z 0.000000 0.000000 2.024450 
# 
# From -- ./inp_files/32326.got.cif
#   From: 2010.05.17/outbox.cif.g08.bks.cpg/sg73_17_cif.got.tgz:32326.got - 2010.06.03 17:35:07.
