data_PCOD9532150
_publ_section_title
;
Structure prediction by ZEFSAII (Michael W. Deem and Ramdas Pophale) SiO2 
 PCOD9532150
Probable space group: I B C A 
;
_chemical_formula_sum "Si O2"
_cell_formula_units_Z 104
_cell_length_a 21.287078
_cell_length_b 9.284021
_cell_length_c 25.130567
_cell_angle_alpha 90.000000
_cell_angle_beta 90.000000
_cell_angle_gamma 90.000000
_cell_volume 4966.545894
_symmetry_space_group_name_H-M "I B C A "
_symmetry_group_IT_number 73
_symmetry_cell_setting 'orthorhombic'
loop_
_space_group_symop_operation_xyz
x,y,z
-x,1/2-y,z
x,-y,1/2-z
1/2-x,y,-z
-x,-y,-z
x,1/2+y,-z
-x,y,1/2+z
1/2+x,-y,z
1/2+x,1/2+y,1/2+z
1/2-x,-y,1/2+z
1/2+x,1/2-y,-z
-x,1/2+y,1/2-z
1/2-x,1/2-y,1/2-z
1/2+x,y,1/2-z
1/2-x,1/2+y,z
x,1/2-y,1/2+z
loop_
_atom_site_type_symbol
_atom_site_label
_atom_site_fract_x
_atom_site_fract_y
_atom_site_fract_z
Si Si1 0.620987 0.669508 0.542094
Si Si2 0.691209 0.182504 0.564550
Si Si3 0.813428 0.167848 0.231538
Si Si4 0.436334 0.659747 0.274486
Si Si5 0.695404 0.871906 0.605905
Si Si6 0.000000 0.750000 0.023616
Si Si7 0.584349 0.107145 0.101610
O O1 0.673886 0.644507 0.496523
O O2 0.635731 0.816339 0.572948
O O3 0.555604 0.689731 0.512327
O O4 0.617968 0.540657 0.584463
O O5 0.747302 0.290977 0.577127
O O6 0.629991 0.262689 0.586168
O O7 0.703948 0.039929 0.597738
O O8 0.750000 0.250000 0.250000
O O9 0.874989 0.251349 0.254134
O O10 0.811863 0.167941 0.167372
O O11 0.813515 0.000000 0.250000
O O12 0.500000 0.750000 0.262932
O O13 0.438000 0.500000 0.250000
O O14 0.431967 0.628679 0.337424
O O15 0.974818 0.626170 0.062872
#
# Coordination Sequence:
#
# PCOD9532150 Si02
#       7
#    16  16  16  16  16   8  16
#     4  11  24  42  65 100 132 173 221 273 338 415
#     4  11  24  41  68  96 140 171 223 276 340 420
#     4  12  26  48  73 103 140 188 246 295 358 429
#     4  12  26  47  70 105 143 187 241 306 361 423
#     4  12  24  43  65 100 130 180 219 279 343 400
#     4  10  22  42  66  94 130 170 222 270 332 408
#     4  11  22  44  68  96 132 179 222 278 349 404
#
# _framework density 20.940107000000001
#
# number of rings (size 3 to 8) (size 9 to 14) (size 15 to 20)
#    0.000    0.615    0.769    8.308    0.000    2.462 
#    8.308    0.000    0.000    0.000    0.000    0.000 
#    0.000    0.000    0.000    0.000    0.000    0.000 
#
# Total GULP energy -290850.812587 kJ/mol
# GULP energy per Si atom -5593.284857 kJ/mol
# Density = 2.089245 g / cm^3
# Si number density = 20.940107 Si / 1000 Ang^3
#
#
#
# Elastic Constant Matrix: (Units=GPa)
#
#
# Indices 1 2 3 4 5 6 
#
# 1 147.1097 59.9203 57.9695 0.0000 0.0000 0.0000
# 2 59.9203 131.8665 20.0950 0.0000 0.0000 0.0000
# 3 57.9695 20.0950 89.3621 0.0000 0.0000 0.0000
# 4 0.0000 0.0000 0.0000 44.8897 0.0000 0.0000
# 5 0.0000 0.0000 0.0000 0.0000 20.6057 0.0000
# 6 0.0000 0.0000 0.0000 0.0000 0.0000 33.6503
#
#
#
# Elastic Compliance Matrix: (Units=1/GPa)
#
#
# Indices 1 2 3 4 5 6 
#
# 1 0.010841 -0.003991 -0.006135 0.000000 0.000000 0.000000
# 2 -0.003991 0.009322 0.000493 0.000000 0.000000 0.000000
# 3 -0.006135 0.000493 0.015059 0.000000 0.000000 0.000000
# 4 0.000000 0.000000 0.000000 0.022277 0.000000 0.000000
# 5 0.000000 0.000000 0.000000 0.000000 0.048530 0.000000
# 6 0.000000 0.000000 0.000000 0.000000 0.000000 0.029717
#
#
# Mechanical properties :
#
#
# Convention : Reuss Voigt Hill
#
# Bulk Modulus (GPa) = 62.67422 71.58976 67.13199
# Shear Modulus (GPa) = 31.18531 35.18603 33.18567
#
# Velocity S-wave (km/s) = 3.86328 4.10361 3.98526
# Velocity P-wave (km/s) = 7.06365 7.53093 7.30103
#
# Compressibility (1/GPa) = 0.01595552
#
# Stress axis : x y z
#
# Youngs Moduli (GPa) = 92.24352 107.27392 66.40375
#
# Poissons Ratio (x) = 0.42815 0.40739
# Poissons Ratio (y) = 0.36816 -0.03273
# Poissons Ratio (z) = 0.56591 -0.05287
#
# Static dielectric constant tensor:
#      x y z
#    x 1.786600 0.000000 0.000000 
#    y 0.000000 1.743950 0.000000 
#    z 0.000000 0.000000 1.747170 
# 
# From -- ./inp_files/32664.got.cif
#   From: 2010.05.17/outbox.cif.g08.bks.cpg/sg73_17_cif.got.tgz:32664.got - 2010.06.03 17:35:07.
