data_PCOD9532422
_publ_section_title
;
Structure prediction by ZEFSAII (Michael W. Deem and Ramdas Pophale) SiO2 
 PCOD9532422
Probable space group: I B C A 
;
_chemical_formula_sum "Si O2"
_cell_formula_units_Z 96
_cell_length_a 8.678964
_cell_length_b 25.907259
_cell_length_c 18.534755
_cell_angle_alpha 90.000000
_cell_angle_beta 90.000000
_cell_angle_gamma 90.000000
_cell_volume 4167.505710
_symmetry_space_group_name_H-M "I B C A "
_symmetry_group_IT_number 73
_symmetry_cell_setting 'orthorhombic'
loop_
_space_group_symop_operation_xyz
x,y,z
-x,1/2-y,z
x,-y,1/2-z
1/2-x,y,-z
-x,-y,-z
x,1/2+y,-z
-x,y,1/2+z
1/2+x,-y,z
1/2+x,1/2+y,1/2+z
1/2-x,-y,1/2+z
1/2+x,1/2-y,-z
-x,1/2+y,1/2-z
1/2-x,1/2-y,1/2-z
1/2+x,y,1/2-z
1/2-x,1/2+y,z
x,1/2-y,1/2+z
loop_
_atom_site_type_symbol
_atom_site_label
_atom_site_fract_x
_atom_site_fract_y
_atom_site_fract_z
Si Si1 0.694908 0.657944 0.633311
Si Si2 0.000000 0.750000 0.921982
Si Si3 0.617134 0.076399 0.261304
Si Si4 0.873920 0.000000 0.250000
Si Si5 0.544270 0.067954 0.461792
Si Si6 0.750000 0.520798 0.000000
Si Si7 0.972173 0.118046 0.892529
Si Si8 0.750000 0.179092 0.000000
O O1 0.616376 0.712801 0.621190
O O2 0.640503 0.632847 0.707855
O O3 0.615321 0.617291 0.577417
O O4 0.880620 0.654512 0.627501
O O5 0.887665 0.713760 0.968456
O O6 0.483130 0.039652 0.292346
O O7 0.586488 0.085747 0.176557
O O8 0.762799 0.042210 0.284383
O O9 0.365129 0.054347 0.451384
O O10 0.544334 0.080714 0.547128
O O11 0.645346 0.017125 0.452369
O O12 0.834717 0.147542 0.935194
#
# Coordination Sequence:
#
# PCOD9532422 Si02
#       8
#    16   8  16   8  16   8  16   8
#     4  12  26  49  73 106 152 192 256 315 377 444
#     4  12  28  48  80 110 142 198 250 320 394 450
#     4  11  26  45  75 111 154 204 247 306 358 455
#     4  10  24  46  74 108 154 212 246 284 376 450
#     4  11  23  41  66 103 148 188 241 302 365 447
#     4  10  23  37  66 108 142 192 237 303 370 432
#     4  12  25  48  73 107 150 199 243 313 372 441
#     4  12  27  47  80 110 144 192 253 311 390 454
#
# _framework density 23.035361999999999
#
# number of rings (size 3 to 8) (size 9 to 14) (size 15 to 20)
#    0.000    0.667    5.000    1.500    2.333    8.000 
#    0.000    4.167    0.000    0.000    0.000    0.000 
#    0.000    0.000    0.000    0.000    0.000    0.000 
#
# Total GULP energy -267977.231218 kJ/mol
# GULP energy per Si atom -5582.858984 kJ/mol
# Density = 2.298293 g / cm^3
# Si number density = 23.035362 Si / 1000 Ang^3
#
#
#
# Elastic Constant Matrix: (Units=GPa)
#
#
# Indices 1 2 3 4 5 6 
#
# 1 159.6240 49.4368 24.9182 0.0000 0.0000 0.0000
# 2 49.4368 101.2178 15.9693 0.0000 0.0000 0.0000
# 3 24.9182 15.9693 89.5870 -0.0001 0.0000 -0.0001
# 4 0.0000 0.0000 -0.0001 3.7309 0.0000 0.0000
# 5 0.0000 0.0000 0.0000 0.0000 8.7013 0.0000
# 6 0.0000 0.0000 -0.0001 0.0000 0.0000 48.4448
#
#
#
# Elastic Compliance Matrix: (Units=1/GPa)
#
#
# Indices 1 2 3 4 5 6 
#
# 1 0.007569 -0.003462 -0.001488 0.000000 0.000000 0.000000
# 2 -0.003462 0.011749 -0.001131 0.000000 0.000000 0.000000
# 3 -0.001488 -0.001131 0.011778 0.000000 0.000000 0.000000
# 4 0.000000 0.000000 0.000000 0.268032 -0.000001 0.000000
# 5 0.000000 0.000000 0.000000 -0.000001 0.114925 0.000000
# 6 0.000000 0.000000 0.000000 0.000000 0.000000 0.020642
#
#
# Mechanical properties :
#
#
# Convention : Reuss Voigt Hill
#
# Bulk Modulus (GPa) = 52.81810 59.00860 55.91335
# Shear Modulus (GPa) = 11.03338 29.51570 20.27454
#
# Velocity S-wave (km/s) = 2.19093 3.58344 2.96995
# Velocity P-wave (km/s) = 5.42025 6.54167 6.00719
#
# Compressibility (1/GPa) = 0.01893291
#
# Stress axis : x y z
#
# Youngs Moduli (GPa) = 132.11240 85.11224 84.90441
#
# Poissons Ratio (x) = 0.29468 0.12636
# Poissons Ratio (y) = 0.45740 0.09606
# Poissons Ratio (z) = 0.19661 0.09629
#
# Static dielectric constant tensor:
#      x y z
#    x 1.960840 0.000000 0.000000 
#    y 0.000000 1.695770 0.000000 
#    z 0.000000 0.000000 1.898330 
# 
# From -- ./inp_files/24942.got.cif
#   From: 2010.05.17/outbox.cif.g08.bks.cpg/sg73_13_cif.got.tgz:24942.got - 2010.06.03 17:35:07.
