data_PCOD9532478
_publ_section_title
;
Structure prediction by ZEFSAII (Michael W. Deem and Ramdas Pophale) SiO2 
 PCOD9532478
Probable space group: I B C A 
;
_chemical_formula_sum "Si O2"
_cell_formula_units_Z 104
_cell_length_a 20.227689
_cell_length_b 26.351158
_cell_length_c 8.464761
_cell_angle_alpha 90.000000
_cell_angle_beta 90.000000
_cell_angle_gamma 90.000000
_cell_volume 4511.912546
_symmetry_space_group_name_H-M "I B C A "
_symmetry_group_IT_number 73
_symmetry_cell_setting 'orthorhombic'
loop_
_space_group_symop_operation_xyz
x,y,z
-x,1/2-y,z
x,-y,1/2-z
1/2-x,y,-z
-x,-y,-z
x,1/2+y,-z
-x,y,1/2+z
1/2+x,-y,z
1/2+x,1/2+y,1/2+z
1/2-x,-y,1/2+z
1/2+x,1/2-y,-z
-x,1/2+y,1/2-z
1/2-x,1/2-y,1/2-z
1/2+x,y,1/2-z
1/2-x,1/2+y,z
x,1/2-y,1/2+z
loop_
_atom_site_type_symbol
_atom_site_label
_atom_site_fract_x
_atom_site_fract_y
_atom_site_fract_z
Si Si1 0.851223 0.751523 0.344827
Si Si2 0.166623 0.946676 0.818112
Si Si3 0.676893 0.946041 0.304154
Si Si4 0.783851 0.854397 0.830550
Si Si5 0.750000 0.318482 0.500000
Si Si6 0.408540 0.845258 0.272577
Si Si7 0.480747 0.802419 0.543358
O O1 0.802129 0.704769 0.334353
O O2 0.817091 0.785435 0.484062
O O3 0.860220 0.795941 0.214327
O O4 0.920743 0.721581 0.355896
O O5 0.243893 0.947642 0.766633
O O6 0.127296 0.898048 0.753686
O O7 0.139184 0.000000 0.750000
O O8 0.165424 0.943142 0.008669
O O9 0.658255 0.895885 0.203544
O O10 0.648596 0.000000 0.250000
O O11 0.750972 0.852852 0.655089
O O12 0.750000 0.865955 0.000000
O O13 0.451450 0.844102 0.428898
O O14 0.457842 0.827121 0.133455
O O15 0.500000 0.750000 0.452424
#
# Coordination Sequence:
#
# PCOD9532478 Si02
#       7
#    16  16  16  16   8  16  16
#     4  11  23  39  67  96 139 183 224 271 345 416
#     4  10  23  43  70  94 127 177 221 280 345 399
#     4  10  23  42  64  98 134 168 221 272 336 418
#     4  12  26  39  63 103 142 185 221 272 340 411
#     4  12  24  42  58 100 152 182 222 270 344 422
#     4  11  23  42  65  92 131 175 230 280 334 401
#     4  10  23  41  63  91 128 177 225 274 328 400
#
# _framework density 23.050091999999999
#
# number of rings (size 3 to 8) (size 9 to 14) (size 15 to 20)
#    0.000    1.231    0.769    5.538    8.615    3.692 
#    0.000    0.769    0.000    0.923    0.000    0.000 
#    0.000    0.000    0.000    0.000    0.000    0.000 
#
# Total GULP energy -289856.872479 kJ/mol
# GULP energy per Si atom -5574.170625 kJ/mol
# Density = 2.299763 g / cm^3
# Si number density = 23.050092 Si / 1000 Ang^3
#
#
#
# Elastic Constant Matrix: (Units=GPa)
#
#
# Indices 1 2 3 4 5 6 
#
# 1 63.6791 32.3117 20.1621 0.0000 0.0000 0.0000
# 2 32.3117 185.0538 51.3851 0.0000 0.0000 0.0000
# 3 20.1621 51.3851 112.9675 0.0000 0.0000 0.0000
# 4 0.0000 0.0000 0.0000 39.9811 0.0000 0.0000
# 5 0.0000 0.0000 0.0000 0.0000 27.0962 0.0000
# 6 0.0000 0.0000 0.0000 0.0000 0.0000 21.4047
#
#
#
# Elastic Compliance Matrix: (Units=1/GPa)
#
#
# Indices 1 2 3 4 5 6 
#
# 1 0.017615 -0.002521 -0.001997 0.000000 0.000000 0.000000
# 2 -0.002521 0.006546 -0.002528 0.000000 0.000000 0.000000
# 3 -0.001997 -0.002528 0.010358 0.000000 0.000000 0.000000
# 4 0.000000 0.000000 0.000000 0.025012 0.000000 0.000000
# 5 0.000000 0.000000 0.000000 0.000000 0.036906 0.000000
# 6 0.000000 0.000000 0.000000 0.000000 0.000000 0.046719
#
#
# Mechanical properties :
#
#
# Convention : Reuss Voigt Hill
#
# Bulk Modulus (GPa) = 48.95299 63.26870 56.11085
# Shear Modulus (GPa) = 30.47727 34.88582 32.68154
#
# Velocity S-wave (km/s) = 3.64018 3.89457 3.76952
# Velocity P-wave (km/s) = 6.24112 6.90880 6.58343
#
# Compressibility (1/GPa) = 0.02042776
#
# Stress axis : x y z
#
# Youngs Moduli (GPa) = 56.76859 152.76761 96.54153
#
# Poissons Ratio (x) = 0.38516 0.19281
# Poissons Ratio (y) = 0.14313 0.24401
# Poissons Ratio (z) = 0.11337 0.38612
#
# Static dielectric constant tensor:
#      x y z
#    x 2.032200 0.000000 0.000000 
#    y 0.000000 1.993820 0.000000 
#    z 0.000000 0.000000 1.941550 
# 
# From -- ./inp_files/6577.got.cif
#   From: 2010.05.17/outbox.cif.g08.bks.cpg/sg73_4_cif.got.tgz:6577.got - 2010.06.03 17:35:07.
