data_PCOD9532196
_publ_section_title
;
Structure prediction by ZEFSAII (Michael W. Deem and Ramdas Pophale) SiO2 
 PCOD9532196
Probable space group: I B C A 
;
_chemical_formula_sum "Si O2"
_cell_formula_units_Z 88
_cell_length_a 28.630072
_cell_length_b 5.383381
_cell_length_c 24.071661
_cell_angle_alpha 90.000000
_cell_angle_beta 90.000000
_cell_angle_gamma 90.000000
_cell_volume 3710.082920
_symmetry_space_group_name_H-M "I B C A "
_symmetry_group_IT_number 73
_symmetry_cell_setting 'orthorhombic'
loop_
_space_group_symop_operation_xyz
x,y,z
-x,1/2-y,z
x,-y,1/2-z
1/2-x,y,-z
-x,-y,-z
x,1/2+y,-z
-x,y,1/2+z
1/2+x,-y,z
1/2+x,1/2+y,1/2+z
1/2-x,-y,1/2+z
1/2+x,1/2-y,-z
-x,1/2+y,1/2-z
1/2-x,1/2-y,1/2-z
1/2+x,y,1/2-z
1/2-x,1/2+y,z
x,1/2-y,1/2+z
loop_
_atom_site_type_symbol
_atom_site_label
_atom_site_fract_x
_atom_site_fract_y
_atom_site_fract_z
Si Si1 0.946643 0.287026 0.521491
Si Si2 0.529964 0.000000 0.750000
Si Si3 0.412446 0.895736 0.138477
Si Si4 0.233806 0.537937 0.687341
Si Si5 0.647187 0.607794 0.866401
Si Si6 0.196041 0.517232 0.978486
O O1 0.924591 0.515373 0.487462
O O2 0.946000 0.365663 0.585366
O O3 0.000000 0.250000 0.501513
O O4 0.500000 0.750000 0.761126
O O5 0.560698 0.939566 0.695821
O O6 0.383614 0.638915 0.139285
O O7 0.381349 0.139917 0.127664
O O8 0.251676 0.500000 0.750000
O O9 0.238065 0.265373 0.660739
O O10 0.180545 0.623638 0.687037
O O11 0.684010 0.576611 0.917036
O O12 0.250000 0.543420 0.000000
O O13 0.175974 0.294195 0.015984
#
# Coordination Sequence:
#
# PCOD9532196 Si02
#       6
#    16   8  16  16  16  16
#     4  10  22  42  70  99 135 179 225 279 348 437
#     4  12  28  52  80 106 148 198 240 288 362 468
#     4  12  27  44  71 109 144 183 234 301 364 420
#     4  10  23  41  65  90 123 174 233 281 334 414
#     4  12  26  41  69  99 139 182 231 301 353 402
#     4  10  23  40  63  91 132 186 239 289 345 430
#
# _framework density 23.719147
#
# number of rings (size 3 to 8) (size 9 to 14) (size 15 to 20)
#    0.000    1.091    0.000    4.909    7.636    6.545 
#    0.000    0.000    0.000    0.000    0.000    0.000 
#    0.000    0.000    0.000    0.000    0.000    0.000 
#
# Total GULP energy -245858.750923 kJ/mol
# GULP energy per Si atom -5587.698885 kJ/mol
# Density = 2.366516 g / cm^3
# Si number density = 23.719147 Si / 1000 Ang^3
#
#
#
# Elastic Constant Matrix: (Units=GPa)
#
#
# Indices 1 2 3 4 5 6 
#
# 1 71.3979 44.8695 24.9583 0.0000 0.0000 0.0000
# 2 44.8695 215.4994 23.1507 0.0000 0.0000 0.0000
# 3 24.9583 23.1507 113.5593 0.0000 0.0000 0.0000
# 4 0.0000 0.0000 0.0000 33.8548 0.0000 0.0000
# 5 0.0000 0.0000 0.0000 0.0000 25.4776 0.0000
# 6 0.0000 0.0000 0.0000 0.0000 0.0000 30.8835
#
#
#
# Elastic Compliance Matrix: (Units=1/GPa)
#
#
# Indices 1 2 3 4 5 6 
#
# 1 0.017122 -0.003232 -0.003104 0.000000 0.000000 0.000000
# 2 -0.003232 0.005354 -0.000381 0.000000 0.000000 0.000000
# 3 -0.003104 -0.000381 0.009566 0.000000 0.000000 0.000000
# 4 0.000000 0.000000 0.000000 0.029538 0.000000 0.000000
# 5 0.000000 0.000000 0.000000 0.000000 0.039250 0.000000
# 6 0.000000 0.000000 0.000000 0.000000 0.000000 0.032380
#
#
# Mechanical properties :
#
#
# Convention : Reuss Voigt Hill
#
# Bulk Modulus (GPa) = 53.74059 65.15706 59.44882
# Shear Modulus (GPa) = 32.71246 38.54171 35.62709
#
# Velocity S-wave (km/s) = 3.71773 4.03540 3.87982
# Velocity P-wave (km/s) = 6.41365 7.01730 6.72226
#
# Compressibility (1/GPa) = 0.01860791
#
# Stress axis : x y z
#
# Youngs Moduli (GPa) = 58.40436 186.76979 104.53711
#
# Poissons Ratio (x) = 0.60355 0.32452
# Poissons Ratio (y) = 0.18873 0.03986
# Poissons Ratio (z) = 0.18131 0.07122
#
# Static dielectric constant tensor:
#      x y z
#    x 1.984170 0.000000 0.000000 
#    y 0.000000 2.016150 0.000000 
#    z 0.000000 0.000000 1.926160 
# 
# From -- ./inp_files/30620.got.cif
#   From: 2010.05.17/outbox.cif.g08.bks.cpg/sg73_16_cif.got.tgz:30620.got - 2010.06.03 17:35:07.
