data_PCOD9532598
_publ_section_title
;
Structure prediction by ZEFSAII (Michael W. Deem and Ramdas Pophale) SiO2 
 PCOD9532598
Probable space group: I B C A 
;
_chemical_formula_sum "Si O2"
_cell_formula_units_Z 48
_cell_length_a 7.674353
_cell_length_b 12.691572
_cell_length_c 19.225354
_cell_angle_alpha 90.000000
_cell_angle_beta 90.000000
_cell_angle_gamma 90.000000
_cell_volume 1872.541860
_symmetry_space_group_name_H-M "I B C A "
_symmetry_group_IT_number 73
_symmetry_cell_setting 'orthorhombic'
loop_
_space_group_symop_operation_xyz
x,y,z
-x,1/2-y,z
x,-y,1/2-z
1/2-x,y,-z
-x,-y,-z
x,1/2+y,-z
-x,y,1/2+z
1/2+x,-y,z
1/2+x,1/2+y,1/2+z
1/2-x,-y,1/2+z
1/2+x,1/2-y,-z
-x,1/2+y,1/2-z
1/2-x,1/2-y,1/2-z
1/2+x,y,1/2-z
1/2-x,1/2+y,z
x,1/2-y,1/2+z
loop_
_atom_site_type_symbol
_atom_site_label
_atom_site_fract_x
_atom_site_fract_y
_atom_site_fract_z
Si Si1 0.536535 0.042293 0.173155
Si Si2 0.669591 0.182094 0.566967
Si Si3 0.106859 0.838132 0.848602
O O1 0.400250 0.116313 0.133308
O O2 0.719658 0.102534 0.178386
O O3 0.493513 0.000000 0.250000
O O4 0.523837 0.932111 0.131224
O O5 0.500000 0.250000 0.546159
O O6 0.750000 0.123710 0.500000
O O7 0.811879 0.266787 0.591481
O O8 0.000000 0.750000 0.803798
#
# Coordination Sequence:
#
# PCOD9532598 Si02
#       3
#    16  16  16
#     4  11  25  44  69 105 148 197 253 314 379 447
#     4  10  23  44  72 108 151 199 252 310 376 452
#     4  11  24  43  69 102 143 195 251 313 376 443
#
# _framework density 25.633604999999999
#
# number of rings (size 3 to 8) (size 9 to 14) (size 15 to 20)
#    0.000    1.333    0.000    4.000    0.000    8.000 
#    0.000   10.000    0.000    0.000    0.000    0.000 
#    0.000    0.000    0.000    0.000    0.000    0.000 
#
# Total GULP energy -133958.241644 kJ/mol
# GULP energy per Si atom -5581.593402 kJ/mol
# Density = 2.557526 g / cm^3
# Si number density = 25.633605 Si / 1000 Ang^3
#
#
#
# Elastic Constant Matrix: (Units=GPa)
#
#
# Indices 1 2 3 4 5 6 
#
# 1 213.1475 85.8814 74.0879 0.0000 0.0000 0.0000
# 2 85.8814 147.8094 55.8188 0.0000 0.0000 0.0000
# 3 74.0879 55.8188 153.8931 0.0000 0.0000 0.0000
# 4 0.0000 0.0000 0.0000 27.1935 0.0000 0.0000
# 5 0.0000 0.0000 0.0000 0.0000 22.0371 0.0000
# 6 0.0000 0.0000 0.0000 0.0000 0.0000 34.7276
#
#
#
# Elastic Compliance Matrix: (Units=1/GPa)
#
#
# Indices 1 2 3 4 5 6 
#
# 1 0.006659 -0.003080 -0.002088 0.000000 0.000000 0.000000
# 2 -0.003080 0.009264 -0.001877 0.000000 0.000000 0.000000
# 3 -0.002088 -0.001877 0.008184 0.000000 0.000000 0.000000
# 4 0.000000 0.000000 0.000000 0.036773 0.000000 0.000000
# 5 0.000000 0.000000 0.000000 0.000000 0.045378 0.000000
# 6 0.000000 0.000000 0.000000 0.000000 0.000000 0.028796
#
#
# Mechanical properties :
#
#
# Convention : Reuss Voigt Hill
#
# Bulk Modulus (GPa) = 99.84771 105.15845 102.50308
# Shear Modulus (GPa) = 32.79029 36.72910 34.75969
#
# Velocity S-wave (km/s) = 3.58046 3.78941 3.68641
# Velocity P-wave (km/s) = 7.49195 7.76266 7.62851
#
# Compressibility (1/GPa) = 0.01001525
#
# Stress axis : x y z
#
# Youngs Moduli (GPa) = 150.18317 107.94389 122.18447
#
# Poissons Ratio (x) = 0.33248 0.25517
# Poissons Ratio (y) = 0.46258 0.22938
# Poissons Ratio (z) = 0.31364 0.20265
#
# Static dielectric constant tensor:
#      x y z
#    x 2.114220 0.000000 0.000000 
#    y 0.000000 2.198090 0.000000 
#    z 0.000000 0.000000 2.092190 
# 
# From -- ./inp_files/4300.got.cif
#   From: 2010.05.17/outbox.cif.g08.bks.cpg/sg73_3_cif.got.tgz:4300.got - 2010.06.03 17:35:07.
