data_PCOD9532382
_publ_section_title
;
Structure prediction by ZEFSAII (Michael W. Deem and Ramdas Pophale) SiO2 
 PCOD9532382
Probable space group: I B C A 
;
_chemical_formula_sum "Si O2"
_cell_formula_units_Z 72
_cell_length_a 20.099116
_cell_length_b 9.915276
_cell_length_c 17.337225
_cell_angle_alpha 90.000000
_cell_angle_beta 90.000000
_cell_angle_gamma 90.000000
_cell_volume 3455.105793
_symmetry_space_group_name_H-M "I B C A "
_symmetry_group_IT_number 73
_symmetry_cell_setting 'orthorhombic'
loop_
_space_group_symop_operation_xyz
x,y,z
-x,1/2-y,z
x,-y,1/2-z
1/2-x,y,-z
-x,-y,-z
x,1/2+y,-z
-x,y,1/2+z
1/2+x,-y,z
1/2+x,1/2+y,1/2+z
1/2-x,-y,1/2+z
1/2+x,1/2-y,-z
-x,1/2+y,1/2-z
1/2-x,1/2-y,1/2-z
1/2+x,y,1/2-z
1/2-x,1/2+y,z
x,1/2-y,1/2+z
loop_
_atom_site_type_symbol
_atom_site_label
_atom_site_fract_x
_atom_site_fract_y
_atom_site_fract_z
Si Si1 0.073275 0.564796 0.007327
Si Si2 0.402390 0.554460 0.663747
Si Si3 0.773667 0.253240 0.662048
Si Si4 0.000000 0.250000 0.591778
Si Si5 0.798000 0.476813 0.426635
O O1 0.127229 0.486198 0.957113
O O2 0.060108 0.705955 0.964750
O O3 0.097865 0.557390 0.095502
O O4 0.000000 0.500000 0.000000
O O5 0.400736 0.500000 0.750000
O O6 0.340505 0.656649 0.654844
O O7 0.470308 0.635061 0.646151
O O8 0.750000 0.250000 0.750000
O O9 0.719591 0.335700 0.612727
O O10 0.784844 0.102964 0.630194
O O11 0.750000 0.493998 0.500000
#
# Coordination Sequence:
#
# PCOD9532382 Si02
#       5
#    16  16  16   8  16
#     4  10  23  44  71  97 137 179 237 281 345 420
#     4  11  23  44  64 101 140 177 229 290 345 414
#     4  12  26  45  69 101 144 180 232 290 354 411
#     4  10  22  46  70  96 134 184 236 284 348 426
#     4  12  24  44  73 101 135 187 231 286 346 415
#
# _framework density 20.838723999999999
#
# number of rings (size 3 to 8) (size 9 to 14) (size 15 to 20)
#    0.000    0.889    4.444    2.667    0.000    0.889 
#    8.000    0.000    0.000    0.000    0.000    0.000 
#    0.000    0.000    0.000    0.000    0.000    0.000 
#
# Total GULP energy -201160.560457 kJ/mol
# GULP energy per Si atom -5587.793346 kJ/mol
# Density = 2.079129 g / cm^3
# Si number density = 20.838724 Si / 1000 Ang^3
#
#
#
# Elastic Constant Matrix: (Units=GPa)
#
#
# Indices 1 2 3 4 5 6 
#
# 1 104.5676 14.2301 27.3143 0.0000 0.0000 0.0000
# 2 14.2301 48.1351 11.5885 0.0000 0.0000 0.0000
# 3 27.3143 11.5885 110.8725 0.0000 0.0000 0.0000
# 4 0.0000 0.0000 0.0000 49.2768 0.0000 0.0000
# 5 0.0000 0.0000 0.0000 0.0000 38.8572 0.0000
# 6 0.0000 0.0000 0.0000 0.0000 0.0000 33.5521
#
#
#
# Elastic Compliance Matrix: (Units=1/GPa)
#
#
# Indices 1 2 3 4 5 6 
#
# 1 0.010517 -0.002550 -0.002325 0.000000 0.000000 0.000000
# 2 -0.002550 0.021929 -0.001664 0.000000 0.000000 0.000000
# 3 -0.002325 -0.001664 0.009766 0.000000 0.000000 0.000000
# 4 0.000000 0.000000 0.000000 0.020294 0.000000 0.000000
# 5 0.000000 0.000000 0.000000 0.000000 0.025735 0.000000
# 6 0.000000 0.000000 0.000000 0.000000 0.000000 0.029804
#
#
# Mechanical properties :
#
#
# Convention : Reuss Voigt Hill
#
# Bulk Modulus (GPa) = 34.32144 41.09345 37.70744
# Shear Modulus (GPa) = 35.50281 38.36672 36.93477
#
# Velocity S-wave (km/s) = 4.13206 4.29549 4.21457
# Velocity P-wave (km/s) = 6.26666 6.66065 6.46665
#
# Compressibility (1/GPa) = 0.02913631
#
# Stress axis : x y z
#
# Youngs Moduli (GPa) = 95.08099 45.60132 102.39658
#
# Poissons Ratio (x) = 0.11626 0.23802
# Poissons Ratio (y) = 0.24242 0.17038
# Poissons Ratio (z) = 0.22102 0.07588
#
# Static dielectric constant tensor:
#      x y z
#    x 1.755740 0.000000 0.000000 
#    y 0.000000 1.826250 0.000000 
#    z 0.000000 0.000000 1.732530 
# 
# From -- ./inp_files/6000.got.cif
#   From: 2010.05.17/outbox.cif.g08.bks.cpg/sg73_3_cif.got.tgz:6000.got - 2010.06.03 17:35:07.
