data_PCOD9532094
_publ_section_title
;
Structure prediction by ZEFSAII (Michael W. Deem and Ramdas Pophale) SiO2 
 PCOD9532094
Probable space group: I B C A 
;
_chemical_formula_sum "Si O2"
_cell_formula_units_Z 112
_cell_length_a 13.752485
_cell_length_b 28.574203
_cell_length_c 12.548317
_cell_angle_alpha 90.000000
_cell_angle_beta 90.000000
_cell_angle_gamma 90.000000
_cell_volume 4931.065679
_symmetry_space_group_name_H-M "I B C A "
_symmetry_group_IT_number 73
_symmetry_cell_setting 'orthorhombic'
loop_
_space_group_symop_operation_xyz
x,y,z
-x,1/2-y,z
x,-y,1/2-z
1/2-x,y,-z
-x,-y,-z
x,1/2+y,-z
-x,y,1/2+z
1/2+x,-y,z
1/2+x,1/2+y,1/2+z
1/2-x,-y,1/2+z
1/2+x,1/2-y,-z
-x,1/2+y,1/2-z
1/2-x,1/2-y,1/2-z
1/2+x,y,1/2-z
1/2-x,1/2+y,z
x,1/2-y,1/2+z
loop_
_atom_site_type_symbol
_atom_site_label
_atom_site_fract_x
_atom_site_fract_y
_atom_site_fract_z
Si Si1 0.345995 0.051836 0.716783
Si Si2 0.010234 0.610703 0.307521
Si Si3 0.485841 0.301093 0.052613
Si Si4 0.798740 0.634267 0.723110
Si Si5 0.134656 0.110024 0.476299
Si Si6 0.856456 0.180130 0.605608
Si Si7 0.318585 0.217419 0.394671
O O1 0.440898 0.067374 0.783203
O O2 0.259522 0.088716 0.737458
O O3 0.371789 0.063532 0.594478
O O4 0.318153 0.000000 0.750000
O O5 0.088631 0.621397 0.216267
O O6 0.074342 0.604814 0.414639
O O7 0.937472 0.653933 0.324507
O O8 0.500000 0.250000 0.110558
O O9 0.418691 0.346044 0.085249
O O10 0.592107 0.314561 0.009012
O O11 0.424847 0.289267 0.945397
O O12 0.739298 0.649481 0.620042
O O13 0.795708 0.677029 0.809754
O O14 0.250000 0.118470 0.500000
O O15 0.824926 0.230547 0.649890
O O16 0.250000 0.218669 0.500000
#
# Coordination Sequence:
#
# PCOD9532094 Si02
#       7
#    16  16  16  16  16  16  16
#     4  11  25  42  68  99 126 163 228 287 339 406
#     4  10  22  41  66  92 133 172 215 279 335 401
#     4   9  17  32  57  88 129 173 219 265 313 388
#     4  11  20  38  65  90 126 171 216 268 336 402
#     4  11  19  41  72  93 128 181 225 269 336 408
#     4   9  20  35  55  88 135 166 207 267 320 379
#     4  11  19  33  60  90 123 174 223 263 310 391
#
# _framework density 22.713144
#
# number of rings (size 3 to 8) (size 9 to 14) (size 15 to 20)
#    0.000    1.714    4.286    1.714    0.000    1.143 
#    7.714    0.000    0.000    0.000    0.000    0.000 
#    0.000    0.000    0.000    0.000    0.000    0.000 
#
# Total GULP energy -312325.933185 kJ/mol
# GULP energy per Si atom -5577.248807 kJ/mol
# Density = 2.266145 g / cm^3
# Si number density = 22.713144 Si / 1000 Ang^3
#
#
#
# Elastic Constant Matrix: (Units=GPa)
#
#
# Indices 1 2 3 4 5 6 
#
# 1 166.7097 49.5946 41.5457 0.0000 0.0000 0.0000
# 2 49.5946 141.7819 37.6446 -0.0002 0.0000 0.0000
# 3 41.5457 37.6446 64.4936 -0.0002 -0.0002 0.0000
# 4 0.0000 -0.0002 -0.0002 14.5668 0.0000 0.0000
# 5 0.0000 0.0000 -0.0002 0.0000 40.2347 0.0000
# 6 0.0000 0.0000 0.0000 0.0000 0.0000 24.0626
#
#
#
# Elastic Compliance Matrix: (Units=1/GPa)
#
#
# Indices 1 2 3 4 5 6 
#
# 1 0.007430 -0.001572 -0.003869 0.000000 0.000000 0.000000
# 2 -0.001572 0.008679 -0.004053 0.000000 0.000000 0.000000
# 3 -0.003869 -0.004053 0.020364 0.000000 0.000000 0.000000
# 4 0.000000 0.000000 0.000000 0.068649 0.000000 0.000000
# 5 0.000000 0.000000 0.000000 0.000000 0.024854 0.000000
# 6 0.000000 0.000000 0.000000 0.000000 0.000000 0.041558
#
#
# Mechanical properties :
#
#
# Convention : Reuss Voigt Hill
#
# Bulk Modulus (GPa) = 57.19303 70.06168 63.62736
# Shear Modulus (GPa) = 25.46457 32.05285 28.75871
#
# Velocity S-wave (km/s) = 3.35197 3.76067 3.56219
# Velocity P-wave (km/s) = 6.34163 7.05480 6.70770
#
# Compressibility (1/GPa) = 0.01748465
#
# Stress axis : x y z
#
# Youngs Moduli (GPa) = 134.58516 115.21892 49.10689
#
# Poissons Ratio (x) = 0.18110 0.18999
# Poissons Ratio (y) = 0.21154 0.19905
# Poissons Ratio (z) = 0.52071 0.46703
#
# Static dielectric constant tensor:
#      x y z
#    x 1.886620 0.000000 0.000000 
#    y 0.000000 1.868470 0.000000 
#    z 0.000000 0.000000 1.931180 
# 
# From -- ./inp_files/17358.got.cif
#   From: 2010.05.17/outbox.cif.g08.bks.cpg/sg73_9_cif.got.tgz:17358.got - 2010.06.03 17:35:07.
