data_PCOD9532291
_publ_section_title
;
Structure prediction by ZEFSAII (Michael W. Deem and Ramdas Pophale) SiO2 
 PCOD9532291
Probable space group: I B C A 
;
_chemical_formula_sum "Si O2"
_cell_formula_units_Z 72
_cell_length_a 23.346058
_cell_length_b 14.208876
_cell_length_c 10.371464
_cell_angle_alpha 90.000000
_cell_angle_beta 90.000000
_cell_angle_gamma 90.000000
_cell_volume 3440.434932
_symmetry_space_group_name_H-M "I B C A "
_symmetry_group_IT_number 73
_symmetry_cell_setting 'orthorhombic'
loop_
_space_group_symop_operation_xyz
x,y,z
-x,1/2-y,z
x,-y,1/2-z
1/2-x,y,-z
-x,-y,-z
x,1/2+y,-z
-x,y,1/2+z
1/2+x,-y,z
1/2+x,1/2+y,1/2+z
1/2-x,-y,1/2+z
1/2+x,1/2-y,-z
-x,1/2+y,1/2-z
1/2-x,1/2-y,1/2-z
1/2+x,y,1/2-z
1/2-x,1/2+y,z
x,1/2-y,1/2+z
loop_
_atom_site_type_symbol
_atom_site_label
_atom_site_fract_x
_atom_site_fract_y
_atom_site_fract_z
Si Si1 0.074172 0.495057 0.574021
Si Si2 0.819681 0.500000 0.250000
Si Si3 0.518327 0.855558 0.609775
Si Si4 0.110630 0.600346 0.183902
Si Si5 0.261732 0.167837 0.150121
O O1 0.134416 0.523585 0.637327
O O2 0.044700 0.586600 0.511233
O O3 0.085668 0.424617 0.454699
O O4 0.032425 0.426506 0.656805
O O5 0.778698 0.418618 0.195247
O O6 0.500000 0.750000 0.576776
O O7 0.565671 0.848876 0.722752
O O8 0.121430 0.500000 0.250000
O O9 0.171278 0.647626 0.165394
O O10 0.250000 0.250000 0.250000
O O11 0.250000 0.189548 0.000000
#
# Coordination Sequence:
#
# PCOD9532291 Si02
#       5
#    16   8  16  16  16
#     4  10  24  43  69 104 141 186 242 297 363 437
#     4  12  26  48  76  98 146 190 246 298 376 432
#     4  10  24  42  70 103 144 187 235 295 366 440
#     4  10  22  44  68  98 142 187 237 295 361 435
#     4  12  28  48  74 111 144 194 251 307 374 446
#
# _framework density 20.927586000000002
#
# number of rings (size 3 to 8) (size 9 to 14) (size 15 to 20)
#    0.000    1.333    3.333    0.000   10.889    7.111 
#    0.000    0.000    0.000    0.000    0.000    0.000 
#    0.000    0.000    0.000    0.000    0.000    0.000 
#
# Total GULP energy -201063.486748 kJ/mol
# GULP energy per Si atom -5585.096854 kJ/mol
# Density = 2.087995 g / cm^3
# Si number density = 20.927586 Si / 1000 Ang^3
#
#
#
# Elastic Constant Matrix: (Units=GPa)
#
#
# Indices 1 2 3 4 5 6 
#
# 1 158.3168 65.6478 65.9789 0.0000 0.0000 0.0000
# 2 65.6478 135.6127 57.3233 0.0000 0.0000 0.0000
# 3 65.9789 57.3233 100.0071 0.0000 0.0000 0.0000
# 4 0.0000 0.0000 0.0000 8.5203 0.0000 0.0000
# 5 0.0000 0.0000 0.0000 0.0000 35.0535 0.0000
# 6 0.0000 0.0000 0.0000 0.0000 0.0000 26.9324
#
#
#
# Elastic Compliance Matrix: (Units=1/GPa)
#
#
# Indices 1 2 3 4 5 6 
#
# 1 0.009324 -0.002525 -0.004704 0.000000 0.000000 0.000000
# 2 -0.002525 0.010416 -0.004304 0.000000 0.000000 0.000000
# 3 -0.004704 -0.004304 0.015570 0.000000 0.000000 0.000000
# 4 0.000000 0.000000 0.000000 0.117366 0.000000 0.000000
# 5 0.000000 0.000000 0.000000 0.000000 0.028528 0.000000
# 6 0.000000 0.000000 0.000000 0.000000 0.000000 0.037130
#
#
# Mechanical properties :
#
#
# Convention : Reuss Voigt Hill
#
# Bulk Modulus (GPa) = 81.68122 85.75960 83.72041
# Shear Modulus (GPa) = 20.36814 27.76702 24.06758
#
# Velocity S-wave (km/s) = 3.12311 3.64650 3.39490
# Velocity P-wave (km/s) = 7.21943 7.66795 7.44707
#
# Compressibility (1/GPa) = 0.01224272
#
# Stress axis : x y z
#
# Youngs Moduli (GPa) = 107.25076 96.00851 64.22663
#
# Poissons Ratio (x) = 0.24244 0.30212
# Poissons Ratio (y) = 0.27083 0.27645
# Poissons Ratio (z) = 0.50451 0.41324
#
# Static dielectric constant tensor:
#      x y z
#    x 1.822480 0.000000 0.000000 
#    y 0.000000 1.739340 0.000000 
#    z 0.000000 0.000000 1.027440 
# 
# From -- ./inp_files/12560.got.cif
#   From: 2010.05.17/outbox.cif.g08.bks.cpg/sg73_7_cif.got.tgz:12560.got - 2010.06.03 17:35:07.
