data_PCOD9532445
_publ_section_title
;
Structure prediction by ZEFSAII (Michael W. Deem and Ramdas Pophale) SiO2 
 PCOD9532445
Probable space group: I B C A 
;
_chemical_formula_sum "Si O2"
_cell_formula_units_Z 96
_cell_length_a 21.190555
_cell_length_b 14.861262
_cell_length_c 12.868373
_cell_angle_alpha 90.000000
_cell_angle_beta 90.000000
_cell_angle_gamma 90.000000
_cell_volume 4052.487304
_symmetry_space_group_name_H-M "I B C A "
_symmetry_group_IT_number 73
_symmetry_cell_setting 'orthorhombic'
loop_
_space_group_symop_operation_xyz
x,y,z
-x,1/2-y,z
x,-y,1/2-z
1/2-x,y,-z
-x,-y,-z
x,1/2+y,-z
-x,y,1/2+z
1/2+x,-y,z
1/2+x,1/2+y,1/2+z
1/2-x,-y,1/2+z
1/2+x,1/2-y,-z
-x,1/2+y,1/2-z
1/2-x,1/2-y,1/2-z
1/2+x,y,1/2-z
1/2-x,1/2+y,z
x,1/2-y,1/2+z
loop_
_atom_site_type_symbol
_atom_site_label
_atom_site_fract_x
_atom_site_fract_y
_atom_site_fract_z
Si Si1 0.106142 0.694369 0.204045
Si Si2 0.775905 0.500000 0.750000
Si Si3 0.475542 0.400749 0.887705
Si Si4 0.814583 0.359936 0.299007
Si Si5 0.361072 0.979883 0.426481
Si Si6 0.000000 0.250000 0.446868
Si Si7 0.921146 0.000000 0.750000
Si Si8 0.750000 0.571687 0.000000
O O1 0.064682 0.653993 0.299198
O O2 0.161850 0.762122 0.235464
O O3 0.130216 0.615263 0.128093
O O4 0.059509 0.749751 0.128921
O O5 0.732156 0.415645 0.776650
O O6 0.821799 0.534801 0.838637
O O7 0.427721 0.472912 0.937409
O O8 0.499426 0.334862 0.976731
O O9 0.532672 0.450809 0.831140
O O10 0.876541 0.423830 0.299400
O O11 0.777206 0.361996 0.408997
O O12 0.308747 0.998789 0.511656
#
# Coordination Sequence:
#
# PCOD9532445 Si02
#       8
#    16   8  16  16  16   8   8   8
#     4  12  24  44  65 103 134 180 227 285 343 415
#     4   9  19  44  62  92 119 181 220 266 330 403
#     4  12  24  46  70  98 144 180 226 281 356 419
#     4  10  23  39  68  92 133 168 229 275 337 395
#     4  11  22  43  68  94 132 183 220 278 346 408
#     4  12  28  38  66 102 142 172 228 284 344 414
#     4  11  21  42  70  98 127 185 222 278 346 421
#     4  10  24  44  62  96 138 174 232 282 336 416
#
# _framework density 23.689155
#
# number of rings (size 3 to 8) (size 9 to 14) (size 15 to 20)
#    0.000    1.000    3.333    3.500    2.333    2.000 
#    3.000    0.000    0.000    0.000    0.000    0.000 
#    0.000    0.000    0.000    0.000    0.000    0.000 
#
# Total GULP energy -267683.991224 kJ/mol
# GULP energy per Si atom -5576.749817 kJ/mol
# Density = 2.363524 g / cm^3
# Si number density = 23.689155 Si / 1000 Ang^3
#
#
#
# Elastic Constant Matrix: (Units=GPa)
#
#
# Indices 1 2 3 4 5 6 
#
# 1 115.2114 21.1080 22.5249 0.0000 0.0000 0.0000
# 2 21.1080 70.0309 23.8702 0.0000 0.0000 0.0000
# 3 22.5249 23.8702 61.2859 0.0000 0.0000 0.0000
# 4 0.0000 0.0000 0.0000 34.7116 0.0000 0.0000
# 5 0.0000 0.0000 0.0000 0.0000 56.7126 0.0000
# 6 0.0000 0.0000 0.0000 0.0000 0.0000 32.7248
#
#
#
# Elastic Compliance Matrix: (Units=1/GPa)
#
#
# Indices 1 2 3 4 5 6 
#
# 1 0.009576 -0.001945 -0.002762 0.000000 0.000000 0.000000
# 2 -0.001945 0.016860 -0.005852 0.000000 0.000000 0.000000
# 3 -0.002762 -0.005852 0.019611 0.000000 0.000000 0.000000
# 4 0.000000 0.000000 0.000000 0.028809 0.000000 0.000000
# 5 0.000000 0.000000 0.000000 0.000000 0.017633 0.000000
# 6 0.000000 0.000000 0.000000 0.000000 0.000000 0.030558
#
#
# Mechanical properties :
#
#
# Convention : Reuss Voigt Hill
#
# Bulk Modulus (GPa) = 40.11268 42.39271 41.25270
# Shear Modulus (GPa) = 32.79223 36.76482 34.77852
#
# Velocity S-wave (km/s) = 3.72462 3.94378 3.83576
# Velocity P-wave (km/s) = 5.95539 6.21869 6.08846
#
# Compressibility (1/GPa) = 0.02492977
#
# Stress axis : x y z
#
# Youngs Moduli (GPa) = 104.42752 59.31084 50.99059
#
# Poissons Ratio (x) = 0.11535 0.14084
# Poissons Ratio (y) = 0.20310 0.29840
# Poissons Ratio (z) = 0.28843 0.34709
#
# Static dielectric constant tensor:
#      x y z
#    x 2.105680 0.000000 0.000000 
#    y 0.000000 1.871620 0.000000 
#    z 0.000000 0.000000 0.981260 
# 
# From -- ./inp_files/17134.got.cif
#   From: 2010.05.17/outbox.cif.g08.bks.cpg/sg73_9_cif.got.tgz:17134.got - 2010.06.03 17:35:07.
