data_PCOD9532451
_publ_section_title
;
Structure prediction by ZEFSAII (Michael W. Deem and Ramdas Pophale) SiO2 
 PCOD9532451
Probable space group: I B C A 
;
_chemical_formula_sum "Si O2"
_cell_formula_units_Z 120
_cell_length_a 16.136477
_cell_length_b 20.148133
_cell_length_c 19.196535
_cell_angle_alpha 90.000000
_cell_angle_beta 90.000000
_cell_angle_gamma 90.000000
_cell_volume 6241.175247
_symmetry_space_group_name_H-M "I B C A "
_symmetry_group_IT_number 73
_symmetry_cell_setting 'orthorhombic'
loop_
_space_group_symop_operation_xyz
x,y,z
-x,1/2-y,z
x,-y,1/2-z
1/2-x,y,-z
-x,-y,-z
x,1/2+y,-z
-x,y,1/2+z
1/2+x,-y,z
1/2+x,1/2+y,1/2+z
1/2-x,-y,1/2+z
1/2+x,1/2-y,-z
-x,1/2+y,1/2-z
1/2-x,1/2-y,1/2-z
1/2+x,y,1/2-z
1/2-x,1/2+y,z
x,1/2-y,1/2+z
loop_
_atom_site_type_symbol
_atom_site_label
_atom_site_fract_x
_atom_site_fract_y
_atom_site_fract_z
Si Si1 0.415216 0.974970 0.967246
Si Si2 0.287602 0.011998 0.172044
Si Si3 0.908853 0.034077 0.680440
Si Si4 0.579993 0.210972 0.503679
Si Si5 0.750000 0.710555 0.000000
Si Si6 0.653066 0.885191 0.583960
Si Si7 0.012196 0.177034 0.147293
Si Si8 0.671118 0.408760 0.040344
O O1 0.428764 0.986642 0.885602
O O2 0.346687 0.028494 0.991000
O O3 0.500000 0.000000 0.000000
O O4 0.385677 0.910231 0.009609
O O5 0.191038 0.030255 0.181622
O O6 0.318364 0.069151 0.119636
O O7 0.322031 0.000000 0.250000
O O8 0.309572 0.945864 0.128040
O O9 0.941951 0.110104 0.675293
O O10 0.942153 0.000000 0.750000
O O11 0.500000 0.250000 0.529847
O O12 0.665222 0.250241 0.513910
O O13 0.563472 0.196719 0.422157
O O14 0.593552 0.139850 0.537377
O O15 0.773818 0.664662 0.934712
O O16 0.578187 0.849733 0.624253
O O17 0.000000 0.250000 0.184156
O O18 0.750000 0.377362 0.000000
#
# Coordination Sequence:
#
# PCOD9532451 Si02
#       8
#    16  16  16  16   8  16  16  16
#     4  11  20  35  58  92 127 159 208 282 328 380
#     4  10  23  40  62  94 129 169 220 283 334 397
#     4  11  22  39  64  95 129 175 224 277 337 400
#     4  11  21  36  60  98 129 168 219 271 331 397
#     4  12  22  34  62  96 126 172 214 278 330 400
#     4  11  22  37  62  93 128 168 220 277 335 394
#     4  11  21  41  64  94 133 177 223 275 334 407
#     4  11  19  36  62  90 123 163 215 263 328 390
#
# _framework density 19.227148
#
# number of rings (size 3 to 8) (size 9 to 14) (size 15 to 20)
#    0.000    1.067    7.333    0.800    1.867    0.533 
#    0.000    0.000    0.000   10.400    0.000    0.000 
#    0.000    0.000    0.000    0.000    0.000    0.000 
#
# Total GULP energy -334168.564004 kJ/mol
# GULP energy per Si atom -5569.476067 kJ/mol
# Density = 1.918339 g / cm^3
# Si number density = 19.227148 Si / 1000 Ang^3
#
#
#
# Elastic Constant Matrix: (Units=GPa)
#
#
# Indices 1 2 3 4 5 6 
#
# 1 98.1919 43.6657 15.7525 0.0000 0.0000 0.0000
# 2 43.6657 111.1234 31.5982 0.0000 0.0000 0.0000
# 3 15.7525 31.5982 112.1239 0.0000 0.0000 0.0000
# 4 0.0000 0.0000 0.0000 25.2329 0.0000 0.0000
# 5 0.0000 0.0000 0.0000 0.0000 17.0987 0.0000
# 6 0.0000 0.0000 0.0000 0.0000 0.0000 41.0762
#
#
#
# Elastic Compliance Matrix: (Units=1/GPa)
#
#
# Indices 1 2 3 4 5 6 
#
# 1 0.012357 -0.004742 -0.000400 0.000000 0.000000 0.000000
# 2 -0.004742 0.011603 -0.002604 0.000000 0.000000 0.000000
# 3 -0.000400 -0.002604 0.009709 0.000000 0.000000 0.000000
# 4 0.000000 0.000000 0.000000 0.039631 0.000000 0.000000
# 5 0.000000 0.000000 0.000000 0.000000 0.058484 0.000000
# 6 0.000000 0.000000 0.000000 0.000000 0.000000 0.024345
#
#
# Mechanical properties :
#
#
# Convention : Reuss Voigt Hill
#
# Bulk Modulus (GPa) = 55.01242 55.94133 55.47687
# Shear Modulus (GPa) = 28.14079 32.04306 30.09193
#
# Velocity S-wave (km/s) = 3.82985 4.08677 3.96039
# Velocity P-wave (km/s) = 6.94485 7.17127 7.05897
#
# Compressibility (1/GPa) = 0.01817771
#
# Stress axis : x y z
#
# Youngs Moduli (GPa) = 80.92560 86.18675 103.00149
#
# Poissons Ratio (x) = 0.40870 0.04117
# Poissons Ratio (y) = 0.38375 0.26817
# Poissons Ratio (z) = 0.03235 0.22440
#
# Static dielectric constant tensor:
#      x y z
#    x 1.796330 0.000000 0.000000 
#    y 0.000000 1.785770 0.000000 
#    z 0.000000 0.000000 1.721980 
# 
# From -- ./inp_files/26228.got.cif
#   From: 2010.05.17/outbox.cif.g08.bks.cpg/sg73_14_cif.got.tgz:26228.got - 2010.06.03 17:35:07.
