data_PCOD9532760
_publ_section_title
;
Structure prediction by ZEFSAII (Michael W. Deem and Ramdas Pophale) SiO2 
 PCOD9532760
Probable space group: I B C A 
;
_chemical_formula_sum "Si O2"
_cell_formula_units_Z 104
_cell_length_a 24.671365
_cell_length_b 9.790343
_cell_length_c 21.302488
_cell_angle_alpha 90.000000
_cell_angle_beta 90.000000
_cell_angle_gamma 90.000000
_cell_volume 5145.426930
_symmetry_space_group_name_H-M "I B C A "
_symmetry_group_IT_number 73
_symmetry_cell_setting 'orthorhombic'
loop_
_space_group_symop_operation_xyz
x,y,z
-x,1/2-y,z
x,-y,1/2-z
1/2-x,y,-z
-x,-y,-z
x,1/2+y,-z
-x,y,1/2+z
1/2+x,-y,z
1/2+x,1/2+y,1/2+z
1/2-x,-y,1/2+z
1/2+x,1/2-y,-z
-x,1/2+y,1/2-z
1/2-x,1/2-y,1/2-z
1/2+x,y,1/2-z
1/2-x,1/2+y,z
x,1/2-y,1/2+z
loop_
_atom_site_type_symbol
_atom_site_label
_atom_site_fract_x
_atom_site_fract_y
_atom_site_fract_z
Si Si1 0.500000 0.250000 0.890520
Si Si2 0.274056 0.190056 0.813443
Si Si3 0.137646 0.500000 0.750000
Si Si4 0.911002 0.769703 0.491381
Si Si5 0.162842 0.513665 0.980084
Si Si6 0.732229 0.539735 0.103934
Si Si7 0.500000 0.750000 0.910080
Si Si8 0.966422 0.985845 0.681753
O O1 0.451346 0.304446 0.934429
O O2 0.527579 0.367460 0.849756
O O3 0.250000 0.250000 0.750000
O O4 0.279390 0.313814 0.863800
O O5 0.326710 0.108098 0.788582
O O6 0.234458 0.076965 0.843442
O O7 0.094972 0.558701 0.699385
O O8 0.864028 0.662473 0.472644
O O9 0.884668 0.904027 0.520266
O O10 0.950107 0.710572 0.544929
O O11 0.191021 0.498054 0.048328
O O12 0.208438 0.472904 0.929217
O O13 0.510892 0.623211 0.865510
O O14 0.994305 0.000000 0.750000
#
# Coordination Sequence:
#
# PCOD9532760 Si02
#       8
#     8  16   8  16  16  16   8  16
#     4  11  23  42  64  98 125 173 218 274 322 395
#     4  12  23  44  65  95 130 176 218 272 319 389
#     4  10  26  40  68  92 122 186 212 256 340 378
#     4  11  24  39  69  93 134 169 218 265 335 387
#     4  11  24  42  64 101 128 178 209 273 330 391
#     4  11  25  41  68  96 138 166 224 267 326 393
#     4  11  23  44  64 102 127 173 218 278 322 399
#     4  10  24  42  67  89 132 166 220 269 324 389
#
# _framework density 20.212122999999998
#
# number of rings (size 3 to 8) (size 9 to 14) (size 15 to 20)
#    0.462    0.615    1.538    4.154    6.462    6.154 
#    0.000    0.000    0.000    0.000    0.000    0.000 
#    0.000    0.000    0.000    0.000    0.000    0.000 
#
# Total GULP energy -290281.712771 kJ/mol
# GULP energy per Si atom -5582.340630 kJ/mol
# Density = 2.016612 g / cm^3
# Si number density = 20.212123 Si / 1000 Ang^3
#
#
#
# Elastic Constant Matrix: (Units=GPa)
#
#
# Indices 1 2 3 4 5 6 
#
# 1 47.8730 -1.5902 33.3183 0.0000 0.0000 0.0000
# 2 -1.5902 73.6087 23.0220 0.0000 0.0000 0.0000
# 3 33.3183 23.0220 110.8937 0.0000 0.0000 0.0000
# 4 0.0000 0.0000 0.0000 47.1979 0.0000 0.0000
# 5 0.0000 0.0000 0.0000 0.0000 25.7445 0.0000
# 6 0.0000 0.0000 0.0000 0.0000 0.0000 25.7091
#
#
#
# Elastic Compliance Matrix: (Units=1/GPa)
#
#
# Indices 1 2 3 4 5 6 
#
# 1 0.027166 0.003358 -0.008859 0.000000 0.000000 0.000000
# 2 0.003358 0.014944 -0.004111 0.000000 0.000000 0.000000
# 3 -0.008859 -0.004111 0.012533 0.000000 0.000000 0.000000
# 4 0.000000 0.000000 0.000000 0.021187 0.000000 0.000000
# 5 0.000000 0.000000 0.000000 0.000000 0.038843 0.000000
# 6 0.000000 0.000000 0.000000 0.000000 0.000000 0.038897
#
#
# Mechanical properties :
#
#
# Convention : Reuss Voigt Hill
#
# Bulk Modulus (GPa) = 28.23490 37.98617 33.11054
# Shear Modulus (GPa) = 27.08546 31.57198 29.32872
#
# Velocity S-wave (km/s) = 3.66465 3.95654 3.81339
# Velocity P-wave (km/s) = 5.64853 6.30134 5.98384
#
# Compressibility (1/GPa) = 0.03541716
#
# Stress axis : x y z
#
# Youngs Moduli (GPa) = 36.81099 66.91769 79.79003
#
# Poissons Ratio (x) = -0.22469 0.70687
# Poissons Ratio (y) = -0.12360 0.32803
# Poissons Ratio (z) = 0.32611 0.27511
#
# Static dielectric constant tensor:
#      x y z
#    x 1.763000 0.000000 0.000000 
#    y 0.000000 1.690770 0.000000 
#    z 0.000000 0.000000 1.736190 
# 
# From -- ./inp_files/27627.got.cif
#   From: 2010.05.17/outbox.cif.g08.bks.cpg/sg73_14_cif.got.tgz:27627.got - 2010.06.03 17:35:07.
