data_PCOD9532208
_publ_section_title
;
Structure prediction by ZEFSAII (Michael W. Deem and Ramdas Pophale) SiO2 
 PCOD9532208
Probable space group: I B C A 
;
_chemical_formula_sum "Si O2"
_cell_formula_units_Z 112
_cell_length_a 24.231938
_cell_length_b 13.864026
_cell_length_c 14.290333
_cell_angle_alpha 90.000000
_cell_angle_beta 90.000000
_cell_angle_gamma 90.000000
_cell_volume 4800.869074
_symmetry_space_group_name_H-M "I B C A "
_symmetry_group_IT_number 73
_symmetry_cell_setting 'orthorhombic'
loop_
_space_group_symop_operation_xyz
x,y,z
-x,1/2-y,z
x,-y,1/2-z
1/2-x,y,-z
-x,-y,-z
x,1/2+y,-z
-x,y,1/2+z
1/2+x,-y,z
1/2+x,1/2+y,1/2+z
1/2-x,-y,1/2+z
1/2+x,1/2-y,-z
-x,1/2+y,1/2-z
1/2-x,1/2-y,1/2-z
1/2+x,y,1/2-z
1/2-x,1/2+y,z
x,1/2-y,1/2+z
loop_
_atom_site_type_symbol
_atom_site_label
_atom_site_fract_x
_atom_site_fract_y
_atom_site_fract_z
Si Si1 0.916408 0.910169 0.699176
Si Si2 0.834205 0.748706 0.154996
Si Si3 0.868139 0.249042 0.560826
Si Si4 0.028169 0.145905 0.128768
Si Si5 0.148154 0.464989 0.344991
Si Si6 0.566907 0.444922 0.479428
Si Si7 0.769825 0.862294 0.391201
O O1 0.885239 0.808242 0.699358
O O2 0.969002 0.894560 0.766334
O O3 0.926582 0.937010 0.591382
O O4 0.886187 0.000000 0.750000
O O5 0.828541 0.859821 0.181463
O O6 0.783568 0.674706 0.163540
O O7 0.847878 0.762547 0.044870
O O8 0.909225 0.166651 0.595218
O O9 0.901338 0.349417 0.559168
O O10 0.813447 0.274114 0.618291
O O11 0.000000 0.250000 0.128782
O O12 0.994507 0.077169 0.058810
O O13 0.119204 0.500000 0.250000
O O14 0.102494 0.472140 0.427490
O O15 0.198712 0.538331 0.367276
O O16 0.750000 0.870699 0.500000
#
# Coordination Sequence:
#
# PCOD9532208 Si02
#       7
#    16  16  16  16  16  16  16
#     4  11  26  45  67 106 142 187 243 299 361 438
#     4  10  23  43  69 100 142 188 227 294 355 421
#     4   8  18  40  67 100 138 184 232 286 357 424
#     4  10  22  42  73 102 138 194 236 306 362 433
#     4  11  25  43  71 103 136 190 240 292 353 435
#     4   9  22  46  67 100 148 179 242 298 359 428
#     4   9  20  43  68 103 142 183 237 292 357 429
#
# _framework density 23.329108999999999
#
# number of rings (size 3 to 8) (size 9 to 14) (size 15 to 20)
#    0.000    2.286    0.000    0.857    8.000    6.857 
#    2.571    0.000    0.000    0.000    0.000    0.000 
#    0.000    0.000    0.000    0.000    0.000    0.000 
#
# Total GULP energy -312571.018539 kJ/mol
# GULP energy per Si atom -5581.625331 kJ/mol
# Density = 2.327601 g / cm^3
# Si number density = 23.329109 Si / 1000 Ang^3
#
#
#
# Elastic Constant Matrix: (Units=GPa)
#
#
# Indices 1 2 3 4 5 6 
#
# 1 84.7716 40.9514 47.3603 0.0000 0.0000 0.0000
# 2 40.9514 142.4399 43.0942 0.0000 0.0000 0.0000
# 3 47.3603 43.0942 132.5496 0.0000 0.0000 0.0000
# 4 0.0000 0.0000 0.0000 32.2020 0.0000 0.0000
# 5 0.0000 0.0000 0.0000 0.0000 28.1113 0.0000
# 6 0.0000 0.0000 0.0000 0.0000 0.0000 19.2588
#
#
#
# Elastic Compliance Matrix: (Units=1/GPa)
#
#
# Indices 1 2 3 4 5 6 
#
# 1 0.015932 -0.003170 -0.004662 0.000000 0.000000 0.000000
# 2 -0.003170 0.008417 -0.001604 0.000000 0.000000 0.000000
# 3 -0.004662 -0.001604 0.009732 0.000000 0.000000 0.000000
# 4 0.000000 0.000000 0.000000 0.031054 0.000000 0.000000
# 5 0.000000 0.000000 0.000000 0.000000 0.035573 0.000000
# 6 0.000000 0.000000 0.000000 0.000000 0.000000 0.051924
#
#
# Mechanical properties :
#
#
# Convention : Reuss Voigt Hill
#
# Bulk Modulus (GPa) = 65.75017 69.17478 67.46248
# Shear Modulus (GPa) = 28.31674 31.13809 29.72742
#
# Velocity S-wave (km/s) = 3.48773 3.65736 3.57355
# Velocity P-wave (km/s) = 6.66813 6.89573 6.78289
#
# Compressibility (1/GPa) = 0.01520909
#
# Stress axis : x y z
#
# Youngs Moduli (GPa) = 62.76510 118.80505 102.75847
#
# Poissons Ratio (x) = 0.37662 0.47906
# Poissons Ratio (y) = 0.19897 0.16481
# Poissons Ratio (z) = 0.29261 0.19055
#
# Static dielectric constant tensor:
#      x y z
#    x 1.928610 0.000000 0.000000 
#    y 0.000000 1.903270 0.000000 
#    z 0.000000 0.000000 1.900070 
# 
# From -- ./inp_files/19822.got.cif
#   From: 2010.05.17/outbox.cif.g08.bks.cpg/sg73_10_cif.got.tgz:19822.got - 2010.06.03 17:35:07.
