data_PCOD9532697
_publ_section_title
;
Structure prediction by ZEFSAII (Michael W. Deem and Ramdas Pophale) SiO2 
 PCOD9532697
Probable space group: I B C A 
;
_chemical_formula_sum "Si O2"
_cell_formula_units_Z 104
_cell_length_a 19.080535
_cell_length_b 28.017260
_cell_length_c 9.488739
_cell_angle_alpha 90.000000
_cell_angle_beta 90.000000
_cell_angle_gamma 90.000000
_cell_volume 5072.530991
_symmetry_space_group_name_H-M "I B C A "
_symmetry_group_IT_number 73
_symmetry_cell_setting 'orthorhombic'
loop_
_space_group_symop_operation_xyz
x,y,z
-x,1/2-y,z
x,-y,1/2-z
1/2-x,y,-z
-x,-y,-z
x,1/2+y,-z
-x,y,1/2+z
1/2+x,-y,z
1/2+x,1/2+y,1/2+z
1/2-x,-y,1/2+z
1/2+x,1/2-y,-z
-x,1/2+y,1/2-z
1/2-x,1/2-y,1/2-z
1/2+x,y,1/2-z
1/2-x,1/2+y,z
x,1/2-y,1/2+z
loop_
_atom_site_type_symbol
_atom_site_label
_atom_site_fract_x
_atom_site_fract_y
_atom_site_fract_z
Si Si1 0.507556 0.500000 0.750000
Si Si2 0.330169 0.228540 0.561038
Si Si3 0.322371 0.136651 0.417426
Si Si4 0.937264 0.941039 0.490949
Si Si5 0.452387 0.296579 0.251012
Si Si6 0.684017 0.658730 0.403180
Si Si7 0.034877 0.144503 0.974500
O O1 0.455497 0.477356 0.866286
O O2 0.554577 0.465193 0.647074
O O3 0.250000 0.225818 0.500000
O O4 0.361995 0.186666 0.461034
O O5 0.370978 0.212481 0.705685
O O6 0.336526 0.285470 0.574024
O O7 0.250000 0.131496 0.500000
O O8 0.368823 0.090925 0.457357
O O9 0.300999 0.146190 0.257380
O O10 0.998208 0.902303 0.472153
O O11 0.500000 0.250000 0.228466
O O12 0.489393 0.336508 0.155584
O O13 0.459880 0.314184 0.409368
O O14 0.750000 0.648143 0.500000
O O15 0.613618 0.630901 0.436833
#
# Coordination Sequence:
#
# PCOD9532697 Si02
#       7
#     8  16  16  16  16  16  16
#     4  10  24  44  74  98 124 156 202 272 352 422
#     4  10  24  38  61  86 137 188 232 266 309 365
#     4  11  25  43  66  95 134 177 221 275 323 388
#     4  11  23  45  70 100 127 161 210 270 342 414
#     4  12  24  38  59  94 133 180 229 277 319 366
#     4  11  26  39  59  94 137 188 233 271 312 371
#     4  12  25  39  65  93 131 171 222 273 323 385
#
# _framework density 20.502585
#
# number of rings (size 3 to 8) (size 9 to 14) (size 15 to 20)
#    0.000    0.923    3.077    3.231    6.462    3.077 
#    0.000    0.769    0.000    3.692    0.000    0.000 
#    0.000    0.000    0.000    0.000    0.000    0.000 
#
# Total GULP energy -289550.182835 kJ/mol
# GULP energy per Si atom -5568.272747 kJ/mol
# Density = 2.045592 g / cm^3
# Si number density = 20.502585 Si / 1000 Ang^3
#
#
#
# Elastic Constant Matrix: (Units=GPa)
#
#
# Indices 1 2 3 4 5 6 
#
# 1 116.9669 34.6284 56.5339 0.0000 0.0000 0.0000
# 2 34.6284 48.3295 23.0503 0.0000 0.0000 0.0000
# 3 56.5339 23.0503 120.4280 0.0000 0.0000 0.0000
# 4 0.0000 0.0000 0.0000 54.5946 0.0000 0.0000
# 5 0.0000 0.0000 0.0000 0.0000 33.0417 0.0000
# 6 0.0000 0.0000 0.0000 0.0000 0.0000 30.0396
#
#
#
# Elastic Compliance Matrix: (Units=1/GPa)
#
#
# Indices 1 2 3 4 5 6 
#
# 1 0.012900 -0.006993 -0.004717 0.000000 0.000000 0.000000
# 2 -0.006993 0.026561 -0.001801 0.000000 0.000000 0.000000
# 3 -0.004717 -0.001801 0.010863 0.000000 0.000000 0.000000
# 4 0.000000 0.000000 0.000000 0.018317 0.000000 0.000000
# 5 0.000000 0.000000 0.000000 0.000000 0.030265 0.000000
# 6 0.000000 0.000000 0.000000 0.000000 0.000000 0.033289
#
#
# Mechanical properties :
#
#
# Convention : Reuss Voigt Hill
#
# Bulk Modulus (GPa) = 42.91651 57.12771 50.02211
# Shear Modulus (GPa) = 29.94309 34.96930 32.45620
#
# Velocity S-wave (km/s) = 3.82573 4.13438 3.98305
# Velocity P-wave (km/s) = 6.36339 7.12144 6.75306
#
# Compressibility (1/GPa) = 0.02330106
#
# Stress axis : x y z
#
# Youngs Moduli (GPa) = 77.52154 37.64958 92.05663
#
# Poissons Ratio (x) = 0.26328 0.43425
# Poissons Ratio (y) = 0.54210 0.16580
# Poissons Ratio (z) = 0.36568 0.06781
#
# Static dielectric constant tensor:
#      x y z
#    x 1.660860 0.000000 0.000000 
#    y 0.000000 1.806930 0.000000 
#    z 0.000000 0.000000 1.600200 
# 
# From -- ./inp_files/6570.got.cif
#   From: 2010.05.17/outbox.cif.g08.bks.cpg/sg73_4_cif.got.tgz:6570.got - 2010.06.03 17:35:07.
