data_PCOD9532715
_publ_section_title
;
Structure prediction by ZEFSAII (Michael W. Deem and Ramdas Pophale) SiO2 
 PCOD9532715
Probable space group: I B C A 
;
_chemical_formula_sum "Si O2"
_cell_formula_units_Z 88
_cell_length_a 27.162870
_cell_length_b 23.984573
_cell_length_c 5.542599
_cell_angle_alpha 90.000000
_cell_angle_beta 90.000000
_cell_angle_gamma 90.000000
_cell_volume 3610.946927
_symmetry_space_group_name_H-M "I B C A "
_symmetry_group_IT_number 73
_symmetry_cell_setting 'orthorhombic'
loop_
_space_group_symop_operation_xyz
x,y,z
-x,1/2-y,z
x,-y,1/2-z
1/2-x,y,-z
-x,-y,-z
x,1/2+y,-z
-x,y,1/2+z
1/2+x,-y,z
1/2+x,1/2+y,1/2+z
1/2-x,-y,1/2+z
1/2+x,1/2-y,-z
-x,1/2+y,1/2-z
1/2-x,1/2-y,1/2-z
1/2+x,y,1/2-z
1/2-x,1/2+y,z
x,1/2-y,1/2+z
loop_
_atom_site_type_symbol
_atom_site_label
_atom_site_fract_x
_atom_site_fract_y
_atom_site_fract_z
Si Si1 0.204291 0.395137 0.856057
Si Si2 0.654953 0.500000 0.750000
Si Si3 0.750000 0.694277 0.500000
Si Si4 0.597286 0.000000 0.750000
Si Si5 0.018805 0.315199 0.925613
Si Si6 0.393016 0.624128 0.680682
Si Si7 0.357855 0.776981 0.444962
O O1 0.185883 0.445119 0.692754
O O2 0.227721 0.344465 0.710359
O O3 0.250000 0.419764 0.000000
O O4 0.158339 0.380713 0.029582
O O5 0.624133 0.494150 0.507029
O O6 0.701461 0.726644 0.419560
O O7 0.580297 0.065790 0.746337
O O8 0.070803 0.337003 0.024880
O O9 0.000000 0.250000 0.905955
O O10 0.986185 0.336645 0.152286
O O11 0.376126 0.659905 0.912119
O O12 0.375073 0.754871 0.703176
#
# Coordination Sequence:
#
# PCOD9532715 Si02
#       7
#    16   8   8   8  16  16  16
#     4  11  24  41  66 103 151 205 253 307 354 445
#     4  10  24  39  66  99 148 202 266 287 356 411
#     4  12  24  44  58 100 150 202 254 308 358 442
#     4  10  24  47  70 109 142 202 236 313 366 455
#     4  10  25  47  77 109 144 181 245 312 376 450
#     4  11  25  49  75 107 153 192 252 306 388 436
#     4  12  27  41  69  96 141 196 246 299 362 424
#
# _framework density 24.370339999999999
#
# number of rings (size 3 to 8) (size 9 to 14) (size 15 to 20)
#    0.000    1.091    1.818    2.727    8.909    6.545 
#    0.000    0.909    0.000    0.000    0.000    0.000 
#    0.000    0.000    0.000    0.000    0.000    0.000 
#
# Total GULP energy -245312.045493 kJ/mol
# GULP energy per Si atom -5575.273761 kJ/mol
# Density = 2.431487 g / cm^3
# Si number density = 24.370340 Si / 1000 Ang^3
#
#
#
# Elastic Constant Matrix: (Units=GPa)
#
#
# Indices 1 2 3 4 5 6 
#
# 1 71.4490 12.9426 -5.5877 0.0000 0.0000 0.0000
# 2 12.9426 125.1959 31.5601 0.0000 0.0000 0.0000
# 3 -5.5877 31.5601 106.4972 0.0000 0.0000 0.0000
# 4 0.0000 0.0000 0.0000 37.5905 0.0000 0.0000
# 5 0.0000 0.0000 0.0000 0.0000 35.6670 0.0000
# 6 0.0000 0.0000 0.0000 0.0000 0.0000 7.2919
#
#
#
# Elastic Compliance Matrix: (Units=1/GPa)
#
#
# Indices 1 2 3 4 5 6 
#
# 1 0.014427 -0.001818 0.001296 0.000000 0.000000 0.000000
# 2 -0.001818 0.008861 -0.002721 0.000000 0.000000 0.000000
# 3 0.001296 -0.002721 0.010264 0.000000 0.000000 0.000000
# 4 0.000000 0.000000 0.000000 0.026602 0.000000 0.000000
# 5 0.000000 0.000000 0.000000 0.000000 0.028037 0.000000
# 6 0.000000 0.000000 0.000000 0.000000 0.000000 0.137138
#
#
# Mechanical properties :
#
#
# Convention : Reuss Voigt Hill
#
# Bulk Modulus (GPa) = 36.94817 42.33024 39.63921
# Shear Modulus (GPa) = 20.76075 33.72503 27.24289
#
# Velocity S-wave (km/s) = 2.92187 3.72406 3.34708
# Velocity P-wave (km/s) = 5.15531 5.99156 5.58909
#
# Compressibility (1/GPa) = 0.02706494
#
# Stress axis : x y z
#
# Youngs Moduli (GPa) = 69.31609 112.84804 97.42412
#
# Poissons Ratio (x) = 0.20516 -0.12623
# Poissons Ratio (y) = 0.12602 0.26514
# Poissons Ratio (z) = -0.08981 0.30711
#
# Static dielectric constant tensor:
#      x y z
#    x 1.971420 0.000000 0.000000 
#    y 0.000000 2.030990 0.000000 
#    z 0.000000 0.000000 2.000130 
# 
# From -- ./inp_files/2305.got.cif
#   From: 2010.05.17/outbox.cif.g08.bks.cpg/sg73_2_cif.got.tgz:2305.got - 2010.06.03 17:35:07.
