data_PCOD9532757
_publ_section_title
;
Structure prediction by ZEFSAII (Michael W. Deem and Ramdas Pophale) SiO2 
 PCOD9532757
Probable space group: I B C A 
;
_chemical_formula_sum "Si O2"
_cell_formula_units_Z 56
_cell_length_a 8.405927
_cell_length_b 10.062287
_cell_length_c 26.122524
_cell_angle_alpha 90.000000
_cell_angle_beta 90.000000
_cell_angle_gamma 90.000000
_cell_volume 2209.517528
_symmetry_space_group_name_H-M "I B C A "
_symmetry_group_IT_number 73
_symmetry_cell_setting 'orthorhombic'
loop_
_space_group_symop_operation_xyz
x,y,z
-x,1/2-y,z
x,-y,1/2-z
1/2-x,y,-z
-x,-y,-z
x,1/2+y,-z
-x,y,1/2+z
1/2+x,-y,z
1/2+x,1/2+y,1/2+z
1/2-x,-y,1/2+z
1/2+x,1/2-y,-z
-x,1/2+y,1/2-z
1/2-x,1/2-y,1/2-z
1/2+x,y,1/2-z
1/2-x,1/2+y,z
x,1/2-y,1/2+z
loop_
_atom_site_type_symbol
_atom_site_label
_atom_site_fract_x
_atom_site_fract_y
_atom_site_fract_z
Si Si1 0.260395 0.308204 0.438826
Si Si2 0.778981 0.088883 0.206585
Si Si3 0.500000 0.250000 0.216339
Si Si4 0.580018 0.043931 0.900410
O O1 0.250000 0.309116 0.500000
O O2 0.298474 0.157097 0.422201
O O3 0.110221 0.397295 0.422017
O O4 0.408907 0.393652 0.414730
O O5 0.637627 0.178917 0.184649
O O6 0.898779 0.163569 0.243926
O O7 0.879760 0.033688 0.159867
O O8 0.694594 0.000000 0.250000
#
# Coordination Sequence:
#
# PCOD9532757 Si02
#       4
#    16  16   8  16
#     4  11  25  48  73 105 144 186 247 311 366 438
#     4  11  25  42  69 103 149 194 243 298 356 446
#     4  10  24  42  66  96 150 188 246 290 360 410
#     4  11  27  44  75 107 146 191 245 295 382 436
#
# _framework density 25.344899000000002
#
# number of rings (size 3 to 8) (size 9 to 14) (size 15 to 20)
#    0.000    1.143    0.000    4.286   16.000    3.429 
#    0.000    0.000    0.000    0.000    0.000    0.000 
#    0.000    0.000    0.000    0.000    0.000    0.000 
#
# Total GULP energy -156491.610879 kJ/mol
# GULP energy per Si atom -5588.986103 kJ/mol
# Density = 2.528721 g / cm^3
# Si number density = 25.344899 Si / 1000 Ang^3
#
#
#
# Elastic Constant Matrix: (Units=GPa)
#
#
# Indices 1 2 3 4 5 6 
#
# 1 90.4638 12.7020 3.6201 0.0000 0.0000 0.0000
# 2 12.7020 74.9889 -3.4896 0.0000 0.0000 0.0000
# 3 3.6201 -3.4896 146.6558 0.0000 0.0000 0.0000
# 4 0.0000 0.0000 0.0000 23.9539 0.0000 0.0000
# 5 0.0000 0.0000 0.0000 0.0000 15.6835 0.0000
# 6 0.0000 0.0000 0.0000 0.0000 0.0000 64.8414
#
#
#
# Elastic Compliance Matrix: (Units=1/GPa)
#
#
# Indices 1 2 3 4 5 6 
#
# 1 0.011339 -0.001936 -0.000326 0.000000 0.000000 0.000000
# 2 -0.001936 0.013681 0.000373 0.000000 0.000000 0.000000
# 3 -0.000326 0.000373 0.006836 0.000000 0.000000 0.000000
# 4 0.000000 0.000000 0.000000 0.041747 0.000000 0.000000
# 5 0.000000 0.000000 0.000000 0.000000 0.063761 0.000000
# 6 0.000000 0.000000 0.000000 0.000000 0.000000 0.015422
#
#
# Mechanical properties :
#
#
# Convention : Reuss Voigt Hill
#
# Bulk Modulus (GPa) = 35.61475 37.53037 36.57256
# Shear Modulus (GPa) = 30.13462 40.84749 35.49105
#
# Velocity S-wave (km/s) = 3.45190 4.01891 3.74615
# Velocity P-wave (km/s) = 5.47449 6.03121 5.75958
#
# Compressibility (1/GPa) = 0.02807825
#
# Stress axis : x y z
#
# Youngs Moduli (GPa) = 88.19118 73.09632 146.29263
#
# Poissons Ratio (x) = 0.14150 0.04769
# Poissons Ratio (y) = 0.17072 -0.05461
# Poissons Ratio (z) = 0.02875 -0.02729
#
# Static dielectric constant tensor:
#      x y z
#    x 2.053290 0.000000 0.000000 
#    y 0.000000 -0.007790 0.000000 
#    z 0.000000 0.000000 1.919400 
# 
# From -- ./inp_files/3847.got.cif
#   From: 2010.05.17/outbox.cif.g08.bks.cpg/sg73_2_cif.got.tgz:3847.got - 2010.06.03 17:35:07.
