data_PCOD9532555
_publ_section_title
;
Structure prediction by ZEFSAII (Michael W. Deem and Ramdas Pophale) SiO2 
 PCOD9532555
Probable space group: I B C A 
;
_chemical_formula_sum "Si O2"
_cell_formula_units_Z 64
_cell_length_a 11.389065
_cell_length_b 14.205027
_cell_length_c 15.604860
_cell_angle_alpha 90.000000
_cell_angle_beta 90.000000
_cell_angle_gamma 90.000000
_cell_volume 2524.585083
_symmetry_space_group_name_H-M "I B C A "
_symmetry_group_IT_number 73
_symmetry_cell_setting 'orthorhombic'
loop_
_space_group_symop_operation_xyz
x,y,z
-x,1/2-y,z
x,-y,1/2-z
1/2-x,y,-z
-x,-y,-z
x,1/2+y,-z
-x,y,1/2+z
1/2+x,-y,z
1/2+x,1/2+y,1/2+z
1/2-x,-y,1/2+z
1/2+x,1/2-y,-z
-x,1/2+y,1/2-z
1/2-x,1/2-y,1/2-z
1/2+x,y,1/2-z
1/2-x,1/2+y,z
x,1/2-y,1/2+z
loop_
_atom_site_type_symbol
_atom_site_label
_atom_site_fract_x
_atom_site_fract_y
_atom_site_fract_z
Si Si1 0.500292 0.967299 0.625483
Si Si2 0.710942 0.646838 0.099845
Si Si3 0.607941 0.311759 0.978403
Si Si4 0.064455 0.848620 0.209005
O O1 0.637190 0.943221 0.625541
O O2 0.441471 0.913870 0.545292
O O3 0.442472 0.909930 0.704615
O O4 0.487879 0.077276 0.639703
O O5 0.626265 0.736886 0.098499
O O6 0.808305 0.667153 0.169325
O O7 0.750000 0.635029 0.000000
O O8 0.500000 0.250000 0.025536
O O9 0.750000 0.324038 0.000000
O O10 0.000000 0.750000 0.217525
#
# Coordination Sequence:
#
# PCOD9532555 Si02
#       4
#    16  16  16  16
#     4  10  24  44  67  98 133 173 224 278 336 404
#     4  10  23  43  67  99 135 174 221 275 337 399
#     4   9  19  39  67  98 136 175 221 279 340 401
#     4  11  25  43  66  95 131 175 223 276 336 401
#
# _framework density 25.350701000000001
#
# number of rings (size 3 to 8) (size 9 to 14) (size 15 to 20)
#    0.000    2.000    0.000    2.250    0.000   20.000 
#    0.000    1.250    0.000    0.000    0.000    0.000 
#    0.000    0.000    0.000    0.000    0.000    0.000 
#
# Total GULP energy -178441.665749 kJ/mol
# GULP energy per Si atom -5576.302055 kJ/mol
# Density = 2.529300 g / cm^3
# Si number density = 25.350701 Si / 1000 Ang^3
#
#
#
# Elastic Constant Matrix: (Units=GPa)
#
#
# Indices 1 2 3 4 5 6 
#
# 1 144.8887 31.5399 26.8486 0.0000 0.0000 0.0000
# 2 31.5399 182.6875 11.4042 0.0000 0.0000 0.0000
# 3 26.8486 11.4042 103.3866 0.0000 0.0000 0.0000
# 4 0.0000 0.0000 0.0000 32.0573 0.0000 0.0000
# 5 0.0000 0.0000 0.0000 0.0000 35.4148 0.0000
# 6 0.0000 0.0000 0.0000 0.0000 0.0000 7.7725
#
#
#
# Elastic Compliance Matrix: (Units=1/GPa)
#
#
# Indices 1 2 3 4 5 6 
#
# 1 0.007495 -0.001181 -0.001816 0.000000 0.000000 0.000000
# 2 -0.001181 0.005698 -0.000322 0.000000 0.000000 0.000000
# 3 -0.001816 -0.000322 0.010180 0.000000 0.000000 0.000000
# 4 0.000000 0.000000 0.000000 0.031194 0.000000 0.000000
# 5 0.000000 0.000000 0.000000 0.000000 0.028237 0.000000
# 6 0.000000 0.000000 0.000000 0.000000 0.000000 0.128659
#
#
# Mechanical properties :
#
#
# Convention : Reuss Voigt Hill
#
# Bulk Modulus (GPa) = 59.75445 63.39426 61.57435
# Shear Modulus (GPa) = 22.35348 39.12692 30.74020
#
# Velocity S-wave (km/s) = 2.97268 3.93291 3.48602
# Velocity P-wave (km/s) = 5.95019 6.75906 6.36748
#
# Compressibility (1/GPa) = 0.01673516
#
# Stress axis : x y z
#
# Youngs Moduli (GPa) = 133.41476 175.50765 98.23564
#
# Poissons Ratio (x) = 0.20722 0.17842
# Poissons Ratio (y) = 0.15752 0.03162
# Poissons Ratio (z) = 0.24232 0.05649
#
# Static dielectric constant tensor:
#      x y z
#    x 2.168740 0.000000 0.000000 
#    y 0.000000 2.009030 0.000000 
#    z 0.000000 0.000000 2.174150 
# 
# From -- ./inp_files/21052.got.cif
#   From: 2010.05.17/outbox.cif.g08.bks.cpg/sg73_11_cif.got.tgz:21052.got - 2010.06.03 17:35:07.
