data_PCOD9532344
_publ_section_title
;
Structure prediction by ZEFSAII (Michael W. Deem and Ramdas Pophale) SiO2 
 PCOD9532344
Probable space group: I B C A 
;
_chemical_formula_sum "Si O2"
_cell_formula_units_Z 112
_cell_length_a 14.727522
_cell_length_b 11.509539
_cell_length_c 28.242252
_cell_angle_alpha 90.000000
_cell_angle_beta 90.000000
_cell_angle_gamma 90.000000
_cell_volume 4787.259094
_symmetry_space_group_name_H-M "I B C A "
_symmetry_group_IT_number 73
_symmetry_cell_setting 'orthorhombic'
loop_
_space_group_symop_operation_xyz
x,y,z
-x,1/2-y,z
x,-y,1/2-z
1/2-x,y,-z
-x,-y,-z
x,1/2+y,-z
-x,y,1/2+z
1/2+x,-y,z
1/2+x,1/2+y,1/2+z
1/2-x,-y,1/2+z
1/2+x,1/2-y,-z
-x,1/2+y,1/2-z
1/2-x,1/2-y,1/2-z
1/2+x,y,1/2-z
1/2-x,1/2+y,z
x,1/2-y,1/2+z
loop_
_atom_site_type_symbol
_atom_site_label
_atom_site_fract_x
_atom_site_fract_y
_atom_site_fract_z
Si Si1 0.867977 0.334905 0.794279
Si Si2 0.500000 0.250000 0.445255
Si Si3 0.131352 0.314250 0.406100
Si Si4 0.676623 0.568070 0.932573
Si Si5 0.983996 0.000000 0.750000
Si Si6 0.620338 0.464208 0.465815
Si Si7 0.669094 0.644820 0.716015
Si Si8 0.163242 0.653312 0.885060
O O1 0.887288 0.317117 0.849816
O O2 0.951097 0.403092 0.771728
O O3 0.771814 0.402460 0.787324
O O4 0.848376 0.219544 0.763130
O O5 0.547478 0.360961 0.469350
O O6 0.579057 0.199802 0.412888
O O7 0.119643 0.186157 0.426961
O O8 0.092110 0.423620 0.434872
O O9 0.240570 0.326276 0.409654
O O10 0.785480 0.582948 0.941523
O O11 0.660276 0.487169 0.887127
O O12 0.645002 0.503169 0.980414
O O13 0.913555 0.055765 0.713305
O O14 0.664534 0.712913 0.666429
#
# Coordination Sequence:
#
# PCOD9532344 Si02
#       8
#    16   8  16  16   8  16  16  16
#     4  10  24  44  68  98 137 183 221 286 343 408
#     4  12  24  42  64 108 134 174 224 296 336 412
#     4  10  22  46  69 101 134 183 234 277 339 421
#     4  10  22  45  69  98 132 190 226 280 334 429
#     4  12  24  40  68 100 132 176 226 282 338 410
#     4  10  24  40  73  97 138 180 230 280 351 400
#     4  10  24  45  65  97 136 179 223 276 344 416
#     4  10  24  41  69 100 136 179 226 278 349 406
#
# _framework density 23.395434000000002
#
# number of rings (size 3 to 8) (size 9 to 14) (size 15 to 20)
#    0.000    1.714    1.429    0.857    8.000    1.714 
#    7.714    0.000    0.000    0.000    0.000    0.000 
#    0.000    0.000    0.000    0.000    0.000    0.000 
#
# Total GULP energy -312589.226969 kJ/mol
# GULP energy per Si atom -5581.950482 kJ/mol
# Density = 2.334218 g / cm^3
# Si number density = 23.395434 Si / 1000 Ang^3
#
#
#
# Elastic Constant Matrix: (Units=GPa)
#
#
# Indices 1 2 3 4 5 6 
#
# 1 122.8730 12.6001 29.1348 0.0000 0.0000 0.0000
# 2 12.6001 82.8690 46.5278 0.0000 0.0000 0.0000
# 3 29.1348 46.5278 126.4894 0.0000 0.0000 0.0000
# 4 0.0000 0.0000 0.0000 21.0354 0.0000 0.0000
# 5 0.0000 0.0000 0.0000 0.0000 146.6835 0.0000
# 6 0.0000 0.0000 0.0000 0.0000 0.0000 70.7490
#
#
#
# Elastic Compliance Matrix: (Units=1/GPa)
#
#
# Indices 1 2 3 4 5 6 
#
# 1 0.008613 -0.000247 -0.001893 0.000000 0.000000 0.000000
# 2 -0.000247 0.015215 -0.005540 0.000000 0.000000 0.000000
# 3 -0.001893 -0.005540 0.010380 0.000000 0.000000 0.000000
# 4 0.000000 0.000000 0.000000 0.047539 0.000000 0.000000
# 5 0.000000 0.000000 0.000000 0.000000 0.006817 0.000000
# 6 0.000000 0.000000 0.000000 0.000000 0.000000 0.014134
#
#
# Mechanical properties :
#
#
# Convention : Reuss Voigt Hill
#
# Bulk Modulus (GPa) = 53.05551 56.52854 54.79202
# Shear Modulus (GPa) = 40.21225 63.95817 52.08521
#
# Velocity S-wave (km/s) = 4.15035 5.23424 4.72348
# Velocity P-wave (km/s) = 6.75974 7.79386 7.29515
#
# Compressibility (1/GPa) = 0.01884818
#
# Stress axis : x y z
#
# Youngs Moduli (GPa) = 116.10829 65.72379 96.34250
#
# Poissons Ratio (x) = 0.01621 0.18238
# Poissons Ratio (y) = 0.02864 0.53373
# Poissons Ratio (z) = 0.21980 0.36410
#
# Static dielectric constant tensor:
#      x y z
#    x 1.892310 0.000000 0.000000 
#    y 0.000000 2.010160 0.000000 
#    z 0.000000 0.000000 1.891580 
# 
# From -- ./inp_files/34340.got.cif
#   From: 2010.05.17/outbox.cif.g08.bks.cpg/sg73_18_cif.got.tgz:34340.got - 2010.06.03 17:35:07.
