data_PCOD9532810
_publ_section_title
;
Structure prediction by ZEFSAII (Michael W. Deem and Ramdas Pophale) SiO2 
 PCOD9532810
Probable space group: I B C A 
;
_chemical_formula_sum "Si O2"
_cell_formula_units_Z 88
_cell_length_a 13.199459
_cell_length_b 18.991115
_cell_length_c 14.872344
_cell_angle_alpha 90.000000
_cell_angle_beta 90.000000
_cell_angle_gamma 90.000000
_cell_volume 3728.086816
_symmetry_space_group_name_H-M "I B C A "
_symmetry_group_IT_number 73
_symmetry_cell_setting 'orthorhombic'
loop_
_space_group_symop_operation_xyz
x,y,z
-x,1/2-y,z
x,-y,1/2-z
1/2-x,y,-z
-x,-y,-z
x,1/2+y,-z
-x,y,1/2+z
1/2+x,-y,z
1/2+x,1/2+y,1/2+z
1/2-x,-y,1/2+z
1/2+x,1/2-y,-z
-x,1/2+y,1/2-z
1/2-x,1/2-y,1/2-z
1/2+x,y,1/2-z
1/2-x,1/2+y,z
x,1/2-y,1/2+z
loop_
_atom_site_type_symbol
_atom_site_label
_atom_site_fract_x
_atom_site_fract_y
_atom_site_fract_z
Si Si1 0.558104 0.966184 0.869914
Si Si2 0.672246 0.250131 0.580848
Si Si3 0.675594 0.393468 0.414617
Si Si4 0.870965 0.500000 0.250000
Si Si5 0.220654 0.129766 0.778089
Si Si6 0.509568 0.655087 0.972564
O O1 0.616514 0.910251 0.805965
O O2 0.530457 0.923379 0.958282
O O3 0.633518 0.030659 0.884416
O O4 0.449436 0.983707 0.829253
O O5 0.750000 0.267761 0.500000
O O6 0.720026 0.199157 0.658102
O O7 0.591848 0.314564 0.600476
O O8 0.589640 0.200714 0.530698
O O9 0.750000 0.405775 0.500000
O O10 0.720970 0.353999 0.328241
O O11 0.577059 0.348644 0.439921
O O12 0.804893 0.567451 0.281878
#
# Coordination Sequence:
#
# PCOD9532810 Si02
#       6
#    16  16  16   8  16  16
#     4  11  23  42  66 100 143 179 235 296 358 418
#     4  10  24  47  70  99 142 191 247 291 353 435
#     4  12  23  43  68 108 148 183 236 299 367 428
#     4  12  20  40  66 102 138 174 230 290 356 428
#     4  11  24  43  68 104 141 183 235 294 358 434
#     4  10  24  43  67  99 138 189 240 296 351 429
#
# _framework density 23.604600000000001
#
# number of rings (size 3 to 8) (size 9 to 14) (size 15 to 20)
#    0.000    1.091    3.636    2.182    2.545    2.909 
#    0.000   15.455    0.000    0.000    0.000    0.000 
#    0.000    0.000    0.000    0.000    0.000    0.000 
#
# Total GULP energy -245275.249594 kJ/mol
# GULP energy per Si atom -5574.437491 kJ/mol
# Density = 2.355088 g / cm^3
# Si number density = 23.604600 Si / 1000 Ang^3
#
#
#
# Elastic Constant Matrix: (Units=GPa)
#
#
# Indices 1 2 3 4 5 6 
#
# 1 83.9556 10.1708 6.3470 0.0000 0.0000 0.0000
# 2 10.1708 109.5260 10.8818 0.0001 0.0000 0.0000
# 3 6.3470 10.8818 66.4547 0.0003 -0.0001 0.0000
# 4 0.0000 0.0001 0.0003 12.6428 0.0000 0.0000
# 5 0.0000 0.0000 -0.0001 0.0000 41.8786 0.0000
# 6 0.0000 0.0000 0.0000 0.0000 0.0000 26.2161
#
#
#
# Elastic Compliance Matrix: (Units=1/GPa)
#
#
# Indices 1 2 3 4 5 6 
#
# 1 0.012110 -0.001026 -0.000989 0.000000 0.000000 0.000000
# 2 -0.001026 0.009368 -0.001436 0.000000 0.000000 0.000000
# 3 -0.000989 -0.001436 0.015377 0.000000 0.000000 0.000000
# 4 0.000000 0.000000 0.000000 0.079096 0.000000 0.000000
# 5 0.000000 0.000000 0.000000 0.000000 0.023879 0.000000
# 6 0.000000 0.000000 0.000000 0.000000 0.000000 0.038145
#
#
# Mechanical properties :
#
#
# Convention : Reuss Voigt Hill
#
# Bulk Modulus (GPa) = 33.38459 34.97061 34.17760
# Shear Modulus (GPa) = 25.65926 31.64996 28.65461
#
# Velocity S-wave (km/s) = 3.30061 3.66572 3.48795
# Velocity P-wave (km/s) = 5.35718 5.72398 5.54362
#
# Compressibility (1/GPa) = 0.02995394
#
# Stress axis : x y z
#
# Youngs Moduli (GPa) = 82.57554 106.74368 65.03051
#
# Poissons Ratio (x) = 0.10956 0.06429
# Poissons Ratio (y) = 0.08475 0.09338
# Poissons Ratio (z) = 0.08163 0.15328
#
# Static dielectric constant tensor:
#      x y z
#    x 1.880240 0.000000 0.000000 
#    y 0.000000 2.047340 0.000000 
#    z 0.000000 0.000000 1.401680 
# 
# From -- ./inp_files/16952.got.cif
#   From: 2010.05.17/outbox.cif.g08.bks.cpg/sg73_9_cif.got.tgz:16952.got - 2010.06.03 17:35:07.
