data_PCOD9532805
_publ_section_title
;
Structure prediction by ZEFSAII (Michael W. Deem and Ramdas Pophale) SiO2 
 PCOD9532805
Probable space group: I B C A 
;
_chemical_formula_sum "Si O2"
_cell_formula_units_Z 104
_cell_length_a 30.179856
_cell_length_b 20.145452
_cell_length_c 8.040397
_cell_angle_alpha 90.000000
_cell_angle_beta 90.000000
_cell_angle_gamma 90.000000
_cell_volume 4888.455568
_symmetry_space_group_name_H-M "I B C A "
_symmetry_group_IT_number 73
_symmetry_cell_setting 'orthorhombic'
loop_
_space_group_symop_operation_xyz
x,y,z
-x,1/2-y,z
x,-y,1/2-z
1/2-x,y,-z
-x,-y,-z
x,1/2+y,-z
-x,y,1/2+z
1/2+x,-y,z
1/2+x,1/2+y,1/2+z
1/2-x,-y,1/2+z
1/2+x,1/2-y,-z
-x,1/2+y,1/2-z
1/2-x,1/2-y,1/2-z
1/2+x,y,1/2-z
1/2-x,1/2+y,z
x,1/2-y,1/2+z
loop_
_atom_site_type_symbol
_atom_site_label
_atom_site_fract_x
_atom_site_fract_y
_atom_site_fract_z
Si Si1 0.347480 0.847991 0.476401
Si Si2 0.851909 0.498095 0.557263
Si Si3 0.287881 0.500000 0.250000
Si Si4 0.994243 0.000000 0.750000
Si Si5 0.054314 0.435876 0.030120
Si Si6 0.457119 0.793754 0.933843
Si Si7 0.250000 0.604834 0.000000
Si Si8 0.108810 0.742316 0.304969
O O1 0.363599 0.924491 0.482037
O O2 0.294398 0.853701 0.469663
O O3 0.362522 0.805061 0.636041
O O4 0.367282 0.808589 0.318247
O O5 0.835500 0.500000 0.750000
O O6 0.818308 0.477798 0.408359
O O7 0.894054 0.449635 0.552974
O O8 0.259840 0.441798 0.338808
O O9 0.962501 0.993490 0.592868
O O10 0.028976 0.058027 0.704692
O O11 0.034843 0.371263 0.941502
O O12 0.500000 0.750000 0.977267
O O13 0.438863 0.766316 0.761856
O O14 0.409663 0.792867 0.031437
#
# Coordination Sequence:
#
# PCOD9532805 Si02
#       8
#    16  16   8   8  16  16   8  16
#     4  10  24  45  69 102 138 186 239 294 366 444
#     4  11  23  44  75 102 144 188 239 299 370 443
#     4  10  25  42  71 114 142 188 224 300 375 445
#     4  10  25  36  57  94 132 168 230 294 357 415
#     4  11  24  40  62  96 133 181 229 297 358 415
#     4  11  25  40  67  92 133 185 235 290 347 419
#     4  10  24  46  72 106 150 178 240 300 370 460
#     4  10  24  43  66  95 133 186 238 287 347 432
#
# _framework density 21.274612000000001
#
# number of rings (size 3 to 8) (size 9 to 14) (size 15 to 20)
#    0.000    1.538    0.769    1.846   15.077    3.077 
#    0.000    0.000    0.000    0.000    0.000    0.000 
#    0.000    0.000    0.000    0.000    0.000    0.000 
#
# Total GULP energy -289482.292028 kJ/mol
# GULP energy per Si atom -5566.967154 kJ/mol
# Density = 2.122619 g / cm^3
# Si number density = 21.274612 Si / 1000 Ang^3
#
#
#
# Elastic Constant Matrix: (Units=GPa)
#
#
# Indices 1 2 3 4 5 6 
#
# 1 145.0594 45.1137 47.0677 0.0000 0.0000 0.0000
# 2 45.1137 90.6939 15.1478 0.0000 0.0000 0.0000
# 3 47.0677 15.1478 75.8682 0.0000 0.0000 0.0000
# 4 0.0000 0.0000 0.0000 -16.9427 0.0000 0.0000
# 5 0.0000 0.0000 0.0000 0.0000 36.5078 0.0000
# 6 0.0000 0.0000 0.0000 0.0000 0.0000 25.8238
#
#
#
# Elastic Compliance Matrix: (Units=1/GPa)
#
#
# Indices 1 2 3 4 5 6 
#
# 1 0.009871 -0.004021 -0.005321 0.000000 0.000000 0.000000
# 2 -0.004021 0.013045 -0.000110 0.000000 0.000000 0.000000
# 3 -0.005321 -0.000110 0.016504 0.000000 0.000000 0.000000
# 4 0.000000 0.000000 0.000000 -0.059022 0.000000 0.000000
# 5 0.000000 0.000000 0.000000 0.000000 0.027391 0.000000
# 6 0.000000 0.000000 0.000000 0.000000 0.000000 0.038724
#
#
# Mechanical properties :
#
#
# Convention : Reuss Voigt Hill
#
# Bulk Modulus (GPa) = 48.74378 58.47553 53.60965
# Shear Modulus (GPa) = 69.19982 22.69726 45.94854
#
# Velocity S-wave (km/s) = 5.70943 3.26984 4.65239
# Velocity P-wave (km/s) = 8.15015 6.46541 7.35617
#
# Compressibility (1/GPa) = 0.02051544
#
# Stress axis : x y z
#
# Youngs Moduli (GPa) = 101.30857 76.65914 60.59269
#
# Poissons Ratio (x) = 0.30827 0.32240
# Poissons Ratio (y) = 0.40740 0.00665
# Poissons Ratio (z) = 0.53905 0.00841
#
# Static dielectric constant tensor:
#      x y z
#    x 1.988450 0.000000 0.000000 
#    y 0.000000 1.910230 0.000000 
#    z 0.000000 0.000000 3.315640 
# 
# From -- ./inp_files/8512.got.cif
#   From: 2010.05.17/outbox.cif.g08.bks.cpg/sg73_5_cif.got.tgz:8512.got - 2010.06.03 17:35:07.
