data_PCOD9532531
_publ_section_title
;
Structure prediction by ZEFSAII (Michael W. Deem and Ramdas Pophale) SiO2 
 PCOD9532531
Probable space group: I B C A 
;
_chemical_formula_sum "Si O2"
_cell_formula_units_Z 88
_cell_length_a 11.482761
_cell_length_b 16.922526
_cell_length_c 19.829646
_cell_angle_alpha 90.000000
_cell_angle_beta 90.000000
_cell_angle_gamma 90.000000
_cell_volume 3853.243698
_symmetry_space_group_name_H-M "I B C A "
_symmetry_group_IT_number 73
_symmetry_cell_setting 'orthorhombic'
loop_
_space_group_symop_operation_xyz
x,y,z
-x,1/2-y,z
x,-y,1/2-z
1/2-x,y,-z
-x,-y,-z
x,1/2+y,-z
-x,y,1/2+z
1/2+x,-y,z
1/2+x,1/2+y,1/2+z
1/2-x,-y,1/2+z
1/2+x,1/2-y,-z
-x,1/2+y,1/2-z
1/2-x,1/2-y,1/2-z
1/2+x,y,1/2-z
1/2-x,1/2+y,z
x,1/2-y,1/2+z
loop_
_atom_site_type_symbol
_atom_site_label
_atom_site_fract_x
_atom_site_fract_y
_atom_site_fract_z
Si Si1 0.022910 0.019338 0.179889
Si Si2 0.337127 0.381659 0.681628
Si Si3 0.000000 0.750000 0.119197
Si Si4 0.099551 0.813979 0.809173
Si Si5 0.709805 0.515106 0.576692
Si Si6 0.731475 0.331810 0.577417
O O1 0.977560 0.108030 0.179055
O O2 0.096113 0.000000 0.250000
O O3 0.079631 0.004321 0.106483
O O4 0.918327 0.958108 0.189054
O O5 0.419058 0.312210 0.656356
O O6 0.304454 0.344896 0.754021
O O7 0.249089 0.413547 0.625906
O O8 0.097967 0.806581 0.087063
O O9 0.177054 0.789064 0.873092
O O10 0.000000 0.750000 0.790992
O O11 0.750000 0.533690 0.500000
O O12 0.756152 0.425628 0.588542
O O13 0.750000 0.313259 0.500000
#
# Coordination Sequence:
#
# PCOD9532531 Si02
#       6
#    16  16   8  16  16  16
#     4  10  23  42  70 102 137 188 244 299 363 442
#     4  11  24  45  71 102 144 190 248 307 368 441
#     4  12  26  46  68 108 150 184 244 308 374 424
#     4  11  25  45  72 107 141 193 248 308 369 439
#     4  11  25  44  70 103 140 195 244 303 375 452
#     4  11  27  46  70 104 149 194 239 305 367 451
#
# _framework density 22.837900999999999
#
# number of rings (size 3 to 8) (size 9 to 14) (size 15 to 20)
#    0.000    1.091    4.545    0.000    6.364    3.636 
#    0.000    0.000    0.000    0.000    0.000    0.000 
#    0.000    0.000    0.000    0.000    0.000    0.000 
#
# Total GULP energy -244941.161375 kJ/mol
# GULP energy per Si atom -5566.844577 kJ/mol
# Density = 2.278592 g / cm^3
# Si number density = 22.837901 Si / 1000 Ang^3
#
#
#
# Elastic Constant Matrix: (Units=GPa)
#
#
# Indices 1 2 3 4 5 6 
#
# 1 52.8356 17.0641 39.1964 0.0000 0.0000 0.0000
# 2 17.0641 98.9644 29.0527 0.0000 0.0000 0.0000
# 3 39.1964 29.0527 122.9979 0.0000 0.0000 0.0000
# 4 0.0000 0.0000 0.0000 10.8083 0.0000 0.0000
# 5 0.0000 0.0000 0.0000 0.0000 8.3065 0.0000
# 6 0.0000 0.0000 0.0000 0.0000 0.0000 126.9167
#
#
#
# Elastic Compliance Matrix: (Units=1/GPa)
#
#
# Indices 1 2 3 4 5 6 
#
# 1 0.025200 -0.002136 -0.007526 0.000000 0.000000 0.000000
# 2 -0.002136 0.011039 -0.001927 0.000000 0.000000 0.000000
# 3 -0.007526 -0.001927 0.010984 0.000000 0.000000 0.000000
# 4 0.000000 0.000000 0.000000 0.092522 0.000000 0.000000
# 5 0.000000 0.000000 0.000000 0.000000 0.120388 0.000000
# 6 0.000000 0.000000 0.000000 0.000000 0.000000 0.007879
#
#
# Mechanical properties :
#
#
# Convention : Reuss Voigt Hill
#
# Bulk Modulus (GPa) = 41.58891 49.49159 45.54025
# Shear Modulus (GPa) = 16.71108 41.83861 29.27485
#
# Velocity S-wave (km/s) = 2.70798 4.28481 3.58418
# Velocity P-wave (km/s) = 5.29410 6.79686 6.09200
#
# Compressibility (1/GPa) = 0.02404487
#
# Stress axis : x y z
#
# Youngs Moduli (GPa) = 39.68310 90.59177 91.04408
#
# Poissons Ratio (x) = 0.19348 0.68520
# Poissons Ratio (y) = 0.08475 0.17542
# Poissons Ratio (z) = 0.29866 0.17455
#
# Static dielectric constant tensor:
#      x y z
#    x 1.798810 0.000000 0.000000 
#    y 0.000000 1.841440 0.000000 
#    z 0.000000 0.000000 1.996670 
# 
# From -- ./inp_files/25361.got.cif
#   From: 2010.05.17/outbox.cif.g08.bks.cpg/sg73_13_cif.got.tgz:25361.got - 2010.06.03 17:35:07.
