data_PCOD9532900
_publ_section_title
;
Structure prediction by ZEFSAII (Michael W. Deem and Ramdas Pophale) SiO2 
 PCOD9532900
Probable space group: I B C A 
;
_chemical_formula_sum "Si O2"
_cell_formula_units_Z 88
_cell_length_a 9.327179
_cell_length_b 23.496265
_cell_length_c 19.607022
_cell_angle_alpha 90.000000
_cell_angle_beta 90.000000
_cell_angle_gamma 90.000000
_cell_volume 4296.954740
_symmetry_space_group_name_H-M "I B C A "
_symmetry_group_IT_number 73
_symmetry_cell_setting 'orthorhombic'
loop_
_space_group_symop_operation_xyz
x,y,z
-x,1/2-y,z
x,-y,1/2-z
1/2-x,y,-z
-x,-y,-z
x,1/2+y,-z
-x,y,1/2+z
1/2+x,-y,z
1/2+x,1/2+y,1/2+z
1/2-x,-y,1/2+z
1/2+x,1/2-y,-z
-x,1/2+y,1/2-z
1/2-x,1/2-y,1/2-z
1/2+x,y,1/2-z
1/2-x,1/2+y,z
x,1/2-y,1/2+z
loop_
_atom_site_type_symbol
_atom_site_label
_atom_site_fract_x
_atom_site_fract_y
_atom_site_fract_z
Si Si1 0.432608 0.367096 0.234427
Si Si2 0.173462 0.706987 0.302477
Si Si3 0.420690 0.131237 0.985359
Si Si4 0.000000 0.750000 0.926049
Si Si5 0.554039 0.562365 0.382731
Si Si6 0.882726 0.447436 0.138793
O O1 0.290642 0.343543 0.197175
O O2 0.524884 0.318641 0.273001
O O3 0.535559 0.392666 0.177541
O O4 0.393139 0.416146 0.288565
O O5 0.250000 0.750000 0.250000
O O6 0.132757 0.735836 0.374494
O O7 0.474418 0.194777 0.972152
O O8 0.447167 0.096345 0.916197
O O9 0.250000 0.134451 0.000000
O O10 0.484445 0.094809 0.047527
O O11 0.718905 0.543975 0.383245
O O12 0.460671 0.507420 0.365887
#
# Coordination Sequence:
#
# PCOD9532900 Si02
#       6
#    16  16  16   8  16  16
#     4  12  24  42  69 105 139 174 231 282 347 412
#     4  12  23  42  69 102 140 181 223 280 346 412
#     4  10  24  46  65  96 137 183 229 282 342 410
#     4  12  24  44  74 100 144 186 228 290 346 418
#     4  11  26  42  70 100 136 179 232 285 342 413
#     4  11  23  45  67  97 136 182 226 285 345 408
#
# _framework density 20.479619
#
# number of rings (size 3 to 8) (size 9 to 14) (size 15 to 20)
#    0.000    0.727    5.455    1.091    5.091    2.909 
#    0.000    1.818    0.000    0.000    0.000    0.000 
#    0.000    0.000    0.000    0.000    0.000    0.000 
#
# Total GULP energy -245906.521643 kJ/mol
# GULP energy per Si atom -5588.784583 kJ/mol
# Density = 2.043301 g / cm^3
# Si number density = 20.479619 Si / 1000 Ang^3
#
#
#
# Elastic Constant Matrix: (Units=GPa)
#
#
# Indices 1 2 3 4 5 6 
#
# 1 66.1941 27.4726 7.8642 0.0000 0.0000 0.0000
# 2 27.4726 95.7313 18.4031 0.0000 0.0000 0.0000
# 3 7.8642 18.4031 52.8064 0.0000 0.0000 0.0000
# 4 0.0000 0.0000 0.0000 21.1159 0.0000 0.0000
# 5 0.0000 0.0000 0.0000 0.0000 24.2305 0.0000
# 6 0.0000 0.0000 0.0000 0.0000 0.0000 46.9977
#
#
#
# Elastic Compliance Matrix: (Units=1/GPa)
#
#
# Indices 1 2 3 4 5 6 
#
# 1 0.017190 -0.004760 -0.000901 0.000000 0.000000 0.000000
# 2 -0.004760 0.012514 -0.003652 0.000000 0.000000 0.000000
# 3 -0.000901 -0.003652 0.020344 0.000000 0.000000 0.000000
# 4 0.000000 0.000000 0.000000 0.047358 0.000000 0.000000
# 5 0.000000 0.000000 0.000000 0.000000 0.041270 0.000000
# 6 0.000000 0.000000 0.000000 0.000000 0.000000 0.021278
#
#
# Mechanical properties :
#
#
# Convention : Reuss Voigt Hill
#
# Bulk Modulus (GPa) = 31.82560 35.80128 33.81344
# Shear Modulus (GPa) = 26.44754 29.20160 27.82457
#
# Velocity S-wave (km/s) = 3.59751 3.78019 3.68998
# Velocity P-wave (km/s) = 5.72975 6.04752 5.89078
#
# Compressibility (1/GPa) = 0.03142124
#
# Stress axis : x y z
#
# Youngs Moduli (GPa) = 58.17464 79.91082 49.15426
#
# Poissons Ratio (x) = 0.38036 0.04430
# Poissons Ratio (y) = 0.27690 0.17952
# Poissons Ratio (z) = 0.05243 0.29186
#
# Static dielectric constant tensor:
#      x y z
#    x 1.742510 0.000000 0.000000 
#    y 0.000000 1.739800 0.000000 
#    z 0.000000 0.000000 1.726060 
# 
# From -- ./inp_files/7043.got.cif
#   From: 2010.05.17/outbox.cif.g08.bks.cpg/sg73_4_cif.got.tgz:7043.got - 2010.06.03 17:35:07.
