data_PCOD9532840
_publ_section_title
;
Structure prediction by ZEFSAII (Michael W. Deem and Ramdas Pophale) SiO2 
 PCOD9532840
Probable space group: I B C A 
;
_chemical_formula_sum "Si O2"
_cell_formula_units_Z 88
_cell_length_a 12.062387
_cell_length_b 14.565598
_cell_length_c 22.641616
_cell_angle_alpha 90.000000
_cell_angle_beta 90.000000
_cell_angle_gamma 90.000000
_cell_volume 3978.038647
_symmetry_space_group_name_H-M "I B C A "
_symmetry_group_IT_number 73
_symmetry_cell_setting 'orthorhombic'
loop_
_space_group_symop_operation_xyz
x,y,z
-x,1/2-y,z
x,-y,1/2-z
1/2-x,y,-z
-x,-y,-z
x,1/2+y,-z
-x,y,1/2+z
1/2+x,-y,z
1/2+x,1/2+y,1/2+z
1/2-x,-y,1/2+z
1/2+x,1/2-y,-z
-x,1/2+y,1/2-z
1/2-x,1/2-y,1/2-z
1/2+x,y,1/2-z
1/2-x,1/2+y,z
x,1/2-y,1/2+z
loop_
_atom_site_type_symbol
_atom_site_label
_atom_site_fract_x
_atom_site_fract_y
_atom_site_fract_z
Si Si1 0.770530 0.446128 0.311779
Si Si2 0.001434 0.141691 0.782997
Si Si3 0.567792 0.345130 0.092096
Si Si4 0.250000 0.113333 0.000000
Si Si5 0.052159 0.647538 0.344671
Si Si6 0.589654 0.485616 0.917087
O O1 0.741904 0.500000 0.250000
O O2 0.879255 0.387407 0.298855
O O3 0.682383 0.373859 0.339273
O O4 0.818000 0.508773 0.364720
O O5 0.000000 0.250000 0.773883
O O6 0.083447 0.125005 0.838393
O O7 0.020112 0.101613 0.718334
O O8 0.500000 0.250000 0.092811
O O9 0.478961 0.421851 0.071594
O O10 0.678883 0.336734 0.052360
O O11 0.343134 0.049738 0.972016
O O12 0.000000 0.750000 0.348898
O O13 0.999432 0.589297 0.396623
#
# Coordination Sequence:
#
# PCOD9532840 Si02
#       6
#    16  16  16   8  16  16
#     4  11  23  39  68  97 136 184 220 276 349 399
#     4   9  21  41  65  98 137 172 222 282 342 401
#     4  10  24  44  69 100 134 181 233 282 341 407
#     4  12  26  44  70  96 140 190 226 286 336 402
#     4  11  25  41  67 103 142 176 231 283 340 418
#     4  11  25  45  68 104 136 182 230 284 339 409
#
# _framework density 22.121454
#
# number of rings (size 3 to 8) (size 9 to 14) (size 15 to 20)
#    0.000    1.455    1.818    1.636    7.636    8.727 
#    0.000    0.000    0.000    0.000    0.000    0.000 
#    0.000    0.000    0.000    0.000    0.000    0.000 
#
# Total GULP energy -245202.904852 kJ/mol
# GULP energy per Si atom -5572.793292 kJ/mol
# Density = 2.207110 g / cm^3
# Si number density = 22.121454 Si / 1000 Ang^3
#
#
#
# Elastic Constant Matrix: (Units=GPa)
#
#
# Indices 1 2 3 4 5 6 
#
# 1 82.4200 25.2604 29.2585 0.0000 0.0000 0.0000
# 2 25.2604 91.5111 16.7858 0.0000 0.0000 0.0000
# 3 29.2585 16.7858 75.8488 0.0000 0.0000 0.0000
# 4 0.0000 0.0000 0.0000 49.7054 0.0000 0.0000
# 5 0.0000 0.0000 0.0000 0.0000 38.2106 0.0000
# 6 0.0000 0.0000 0.0000 0.0000 0.0000 58.5766
#
#
#
# Elastic Compliance Matrix: (Units=1/GPa)
#
#
# Indices 1 2 3 4 5 6 
#
# 1 0.014900 -0.003188 -0.005042 0.000000 0.000000 0.000000
# 2 -0.003188 0.012072 -0.001442 0.000000 0.000000 0.000000
# 3 -0.005042 -0.001442 0.015448 0.000000 0.000000 0.000000
# 4 0.000000 0.000000 0.000000 0.020119 0.000000 0.000000
# 5 0.000000 0.000000 0.000000 0.000000 0.026171 0.000000
# 6 0.000000 0.000000 0.000000 0.000000 0.000000 0.017072
#
#
# Mechanical properties :
#
#
# Convention : Reuss Voigt Hill
#
# Bulk Modulus (GPa) = 43.33451 43.59878 43.46664
# Shear Modulus (GPa) = 37.64569 41.19688 39.42129
#
# Velocity S-wave (km/s) = 4.12973 4.32012 4.22600
# Velocity P-wave (km/s) = 6.50934 6.68104 6.59574
#
# Compressibility (1/GPa) = 0.02307630
#
# Stress axis : x y z
#
# Youngs Moduli (GPa) = 67.11419 82.83537 64.73253
#
# Poissons Ratio (x) = 0.26409 0.32639
# Poissons Ratio (y) = 0.21396 0.09333
# Poissons Ratio (z) = 0.33840 0.11944
#
# Static dielectric constant tensor:
#      x y z
#    x 1.464750 0.000000 0.000000 
#    y 0.000000 1.856190 0.000000 
#    z 0.000000 0.000000 1.964790 
# 
# From -- ./inp_files/10986.got.cif
#   From: 2010.05.17/outbox.cif.g08.bks.cpg/sg73_6_cif.got.tgz:10986.got - 2010.06.03 17:35:07.
