data_PCOD9532138
_publ_section_title
;
Structure prediction by ZEFSAII (Michael W. Deem and Ramdas Pophale) SiO2 
 PCOD9532138
Probable space group: I B C A 
;
_chemical_formula_sum "Si O2"
_cell_formula_units_Z 96
_cell_length_a 21.490704
_cell_length_b 14.640750
_cell_length_c 14.636356
_cell_angle_alpha 90.000000
_cell_angle_beta 90.000000
_cell_angle_gamma 90.000000
_cell_volume 4605.183412
_symmetry_space_group_name_H-M "I B C A "
_symmetry_group_IT_number 73
_symmetry_cell_setting 'orthorhombic'
loop_
_space_group_symop_operation_xyz
x,y,z
-x,1/2-y,z
x,-y,1/2-z
1/2-x,y,-z
-x,-y,-z
x,1/2+y,-z
-x,y,1/2+z
1/2+x,-y,z
1/2+x,1/2+y,1/2+z
1/2-x,-y,1/2+z
1/2+x,1/2-y,-z
-x,1/2+y,1/2-z
1/2-x,1/2-y,1/2-z
1/2+x,y,1/2-z
1/2-x,1/2+y,z
x,1/2-y,1/2+z
loop_
_atom_site_type_symbol
_atom_site_label
_atom_site_fract_x
_atom_site_fract_y
_atom_site_fract_z
Si Si1 0.569891 0.766893 0.955730
Si Si2 0.750000 0.623223 0.500000
Si Si3 0.496413 0.000000 0.250000
Si Si4 0.336404 0.259556 0.887682
Si Si5 0.437086 0.018017 0.055636
Si Si6 0.307352 0.444062 0.939385
Si Si7 0.938502 0.193440 0.752262
O O1 0.500000 0.750000 0.989141
O O2 0.577972 0.875273 0.950876
O O3 0.574841 0.724276 0.855615
O O4 0.618276 0.727472 0.025942
O O5 0.786891 0.688738 0.430020
O O6 0.714934 0.550162 0.432460
O O7 0.453367 0.996110 0.160523
O O8 0.539848 0.088962 0.248177
O O9 0.313771 0.362878 0.864894
O O10 0.379173 0.215771 0.809526
O O11 0.376925 0.962590 0.022575
O O12 0.500000 0.000000 0.000000
O O13 0.250000 0.406004 0.000000
O O14 0.000000 0.250000 0.721686
#
# Coordination Sequence:
#
# PCOD9532138 Si02
#       7
#    16   8   8  16  16  16  16
#     4  11  21  40  62  97 135 161 216 278 332 410
#     4  10  22  42  64  94 126 178 236 282 326 420
#     4  12  24  40  66 104 146 172 228 278 350 434
#     4  12  22  43  69  89 135 178 222 282 344 399
#     4  12  23  41  69  99 134 179 222 284 348 408
#     4  10  23  40  69  97 126 181 234 274 347 408
#     4  11  24  41  64 104 136 174 219 281 348 410
#
# _framework density 20.846076
#
# number of rings (size 3 to 8) (size 9 to 14) (size 15 to 20)
#    0.500    0.333    5.833    3.500    0.000    0.000 
#    0.000    0.833    3.667    1.000    0.000    0.000 
#    0.000    0.000    0.000    0.000    0.000    0.000 
#
# Total GULP energy -267493.826307 kJ/mol
# GULP energy per Si atom -5572.788048 kJ/mol
# Density = 2.079863 g / cm^3
# Si number density = 20.846076 Si / 1000 Ang^3
#
#
#
# Elastic Constant Matrix: (Units=GPa)
#
#
# Indices 1 2 3 4 5 6 
#
# 1 96.5129 32.0873 21.9683 0.0000 0.0000 0.0000
# 2 32.0873 161.1054 3.2875 0.0000 0.0000 0.0000
# 3 21.9683 3.2875 52.8919 0.0000 0.0000 0.0000
# 4 0.0000 0.0000 0.0000 19.2142 0.0000 0.0000
# 5 0.0000 0.0000 0.0000 0.0000 11.6147 0.0000
# 6 0.0000 0.0000 0.0000 0.0000 0.0000 -4.3776
#
#
#
# Elastic Compliance Matrix: (Units=1/GPa)
#
#
# Indices 1 2 3 4 5 6 
#
# 1 0.012267 -0.002342 -0.004949 0.000000 0.000000 0.000000
# 2 -0.002342 0.006662 0.000559 0.000000 0.000000 0.000000
# 3 -0.004949 0.000559 0.020927 0.000000 0.000000 0.000000
# 4 0.000000 0.000000 0.000000 0.052045 0.000000 0.000000
# 5 0.000000 0.000000 0.000000 0.000000 0.086098 0.000000
# 6 0.000000 0.000000 0.000000 0.000000 0.000000 -0.228436
#
#
# Mechanical properties :
#
#
# Convention : Reuss Voigt Hill
#
# Bulk Modulus (GPa) = 37.89203 47.24403 42.56803
# Shear Modulus (GPa) = -177.46484 22.16806 -77.64839
#
# Velocity S-wave (km/s) = -9.23666 3.26454 -6.10977
# Velocity P-wave (km/s) = 9.77435 6.07636 5.41368
#
# Compressibility (1/GPa) = 0.02639077
#
# Stress axis : x y z
#
# Youngs Moduli (GPa) = 81.52255 150.10063 47.78424
#
# Poissons Ratio (x) = 0.35155 0.23650
# Poissons Ratio (y) = 0.19094 -0.02670
# Poissons Ratio (z) = 0.40348 -0.08386
#
# Static dielectric constant tensor:
#      x y z
#    x 1.783130 0.000000 0.000000 
#    y 0.000000 1.784480 0.000000 
#    z 0.000000 0.000000 1.329710 
# 
# From -- ./inp_files/19356.got.cif
#   From: 2010.05.17/outbox.cif.g08.bks.cpg/sg73_10_cif.got.tgz:19356.got - 2010.06.03 17:35:07.
