data_PCOD9532548
_publ_section_title
;
Structure prediction by ZEFSAII (Michael W. Deem and Ramdas Pophale) SiO2 
 PCOD9532548
Probable space group: I B C A 
;
_chemical_formula_sum "Si O2"
_cell_formula_units_Z 48
_cell_length_a 5.282695
_cell_length_b 14.357737
_cell_length_c 27.744847
_cell_angle_alpha 90.000000
_cell_angle_beta 90.000000
_cell_angle_gamma 90.000000
_cell_volume 2104.378544
_symmetry_space_group_name_H-M "I B C A "
_symmetry_group_IT_number 73
_symmetry_cell_setting 'orthorhombic'
loop_
_space_group_symop_operation_xyz
x,y,z
-x,1/2-y,z
x,-y,1/2-z
1/2-x,y,-z
-x,-y,-z
x,1/2+y,-z
-x,y,1/2+z
1/2+x,-y,z
1/2+x,1/2+y,1/2+z
1/2-x,-y,1/2+z
1/2+x,1/2-y,-z
-x,1/2+y,1/2-z
1/2-x,1/2-y,1/2-z
1/2+x,y,1/2-z
1/2-x,1/2+y,z
x,1/2-y,1/2+z
loop_
_atom_site_type_symbol
_atom_site_label
_atom_site_fract_x
_atom_site_fract_y
_atom_site_fract_z
Si Si1 0.193949 0.854413 0.769346
Si Si2 0.487854 0.059137 0.362844
Si Si3 0.498598 0.637687 0.529607
O O1 0.250000 0.750000 0.750000
O O2 0.472174 0.897731 0.763441
O O3 0.086877 0.863685 0.823083
O O4 0.481972 0.096885 0.417095
O O5 0.767440 0.017596 0.356313
O O6 0.500000 0.750000 0.533604
O O7 0.250000 0.610400 0.500000
O O8 0.750000 0.610756 0.500000
#
# Coordination Sequence:
#
# PCOD9532548 Si02
#       3
#    16  16  16
#     4  10  23  43  66  95 128 183 221 272 329 403
#     4  12  26  42  68 104 136 174 223 284 344 402
#     4  10  23  44  68  98 134 180 227 273 330 411
#
# _framework density 22.809584999999998
#
# number of rings (size 3 to 8) (size 9 to 14) (size 15 to 20)
#    0.000    1.333    0.000    4.000    4.667    8.000 
#   12.000    0.000    0.000    0.000    0.000    0.000 
#    0.000    0.000    0.000    0.000    0.000    0.000 
#
# Total GULP energy -134215.308263 kJ/mol
# GULP energy per Si atom -5592.304511 kJ/mol
# Density = 2.275767 g / cm^3
# Si number density = 22.809585 Si / 1000 Ang^3
#
#
#
# Elastic Constant Matrix: (Units=GPa)
#
#
# Indices 1 2 3 4 5 6 
#
# 1 220.3203 27.3115 84.3211 0.0000 0.0000 0.0000
# 2 27.3115 97.9124 55.1847 0.0000 0.0000 0.0000
# 3 84.3211 55.1847 226.8603 0.0000 0.0000 0.0000
# 4 0.0000 0.0000 0.0000 45.2786 0.0000 0.0000
# 5 0.0000 0.0000 0.0000 0.0000 45.6915 0.0000
# 6 0.0000 0.0000 0.0000 0.0000 0.0000 -6.1738
#
#
#
# Elastic Compliance Matrix: (Units=1/GPa)
#
#
# Indices 1 2 3 4 5 6 
#
# 1 0.005307 -0.000427 -0.001869 0.000000 0.000000 0.000000
# 2 -0.000427 0.011870 -0.002729 0.000000 0.000000 0.000000
# 3 -0.001869 -0.002729 0.005766 0.000000 0.000000 0.000000
# 4 0.000000 0.000000 0.000000 0.022085 0.000000 0.000000
# 5 0.000000 0.000000 0.000000 0.000000 0.021886 0.000000
# 6 0.000000 0.000000 0.000000 0.000000 0.000000 -0.161974
#
#
# Mechanical properties :
#
#
# Convention : Reuss Voigt Hill
#
# Bulk Modulus (GPa) = 77.55190 97.63639 87.59415
# Shear Modulus (GPa) = -61.94854 42.17765 -9.88545
#
# Velocity S-wave (km/s) = -5.21708 4.30480 -2.08406
# Velocity P-wave (km/s) = 1.48899 8.22231 5.71792
#
# Compressibility (1/GPa) = 0.01289459
#
# Stress axis : x y z
#
# Youngs Moduli (GPa) = 188.43189 84.24381 173.42079
#
# Poissons Ratio (x) = 0.03598 0.32406
# Poissons Ratio (y) = 0.08048 0.47322
# Poissons Ratio (z) = 0.35211 0.22988
#
# Static dielectric constant tensor:
#      x y z
#    x 1.901230 0.000000 0.000000 
#    y 0.000000 2.079650 0.000000 
#    z 0.000000 0.000000 1.813850 
# 
# From -- ./inp_files/613.got.cif
#   From: 2010.05.17/outbox.cif.g08.bks.cpg/sg73_1_cif.got.tgz:613.got - 2010.06.03 17:35:07.
