data_PCOD9532978
_publ_section_title
;
Structure prediction by ZEFSAII (Michael W. Deem and Ramdas Pophale) SiO2 
 PCOD9532978
Probable space group: I B C A 
;
_chemical_formula_sum "Si O2"
_cell_formula_units_Z 72
_cell_length_a 26.617163
_cell_length_b 13.042511
_cell_length_c 7.632222
_cell_angle_alpha 90.000000
_cell_angle_beta 90.000000
_cell_angle_gamma 90.000000
_cell_volume 2649.561290
_symmetry_space_group_name_H-M "I B C A "
_symmetry_group_IT_number 73
_symmetry_cell_setting 'orthorhombic'
loop_
_space_group_symop_operation_xyz
x,y,z
-x,1/2-y,z
x,-y,1/2-z
1/2-x,y,-z
-x,-y,-z
x,1/2+y,-z
-x,y,1/2+z
1/2+x,-y,z
1/2+x,1/2+y,1/2+z
1/2-x,-y,1/2+z
1/2+x,1/2-y,-z
-x,1/2+y,1/2-z
1/2-x,1/2-y,1/2-z
1/2+x,y,1/2-z
1/2-x,1/2+y,z
x,1/2-y,1/2+z
loop_
_atom_site_type_symbol
_atom_site_label
_atom_site_fract_x
_atom_site_fract_y
_atom_site_fract_z
Si Si1 0.830806 0.338270 0.086974
Si Si2 0.644359 0.376676 0.532402
Si Si3 0.269886 0.886813 0.246641
Si Si4 0.500000 0.250000 0.208321
Si Si5 0.042120 0.087202 0.534590
O O1 0.856540 0.387003 0.257449
O O2 0.776910 0.317180 0.184507
O O3 0.863421 0.241233 0.028041
O O4 0.811697 0.383573 0.902546
O O5 0.698501 0.386941 0.435163
O O6 0.599660 0.448185 0.461337
O O7 0.245840 0.000000 0.250000
O O8 0.470644 0.157811 0.301157
O O9 0.461116 0.321967 0.107880
O O10 0.000000 0.000000 0.500000
#
# Coordination Sequence:
#
# PCOD9532978 Si02
#       5
#    16  16  16   8  16
#     4  11  25  44  75 109 158 208 254 322 396 490
#     4  12  24  46  76 110 143 209 268 318 406 485
#     4  11  27  44  66 113 165 205 254 320 391 483
#     4  10  24  48  76 104 152 204 256 340 438 474
#     4  11  25  49  77 112 153 204 274 348 413 494
#
# _framework density 27.174312
#
# number of rings (size 3 to 8) (size 9 to 14) (size 15 to 20)
#    0.000    0.889    2.222    3.333    9.333    1.778 
#   12.000    0.000    0.000    0.000    0.000    0.000 
#    0.000    0.000    0.000    0.000    0.000    0.000 
#
# Total GULP energy -200570.420248 kJ/mol
# GULP energy per Si atom -5571.400562 kJ/mol
# Density = 2.711246 g / cm^3
# Si number density = 27.174312 Si / 1000 Ang^3
#
#
#
# Elastic Constant Matrix: (Units=GPa)
#
#
# Indices 1 2 3 4 5 6 
#
# 1 168.8890 42.3000 18.8976 0.0000 0.0000 0.0000
# 2 42.3000 89.3103 15.7144 0.0000 0.0000 0.0000
# 3 18.8976 15.7144 120.1278 0.0000 0.0000 0.0000
# 4 0.0000 0.0000 0.0000 38.0908 0.0000 0.0000
# 5 0.0000 0.0000 0.0000 0.0000 54.6324 0.0000
# 6 0.0000 0.0000 0.0000 0.0000 0.0000 66.7696
#
#
#
# Elastic Compliance Matrix: (Units=1/GPa)
#
#
# Indices 1 2 3 4 5 6 
#
# 1 0.006769 -0.003090 -0.000661 0.000000 0.000000 0.000000
# 2 -0.003090 0.012871 -0.001198 0.000000 0.000000 0.000000
# 3 -0.000661 -0.001198 0.008585 0.000000 0.000000 0.000000
# 4 0.000000 0.000000 0.000000 0.026253 0.000000 0.000000
# 5 0.000000 0.000000 0.000000 0.000000 0.018304 0.000000
# 6 0.000000 0.000000 0.000000 0.000000 0.000000 0.014977
#
#
# Mechanical properties :
#
#
# Convention : Reuss Voigt Hill
#
# Bulk Modulus (GPa) = 54.55857 59.12790 56.84324
# Shear Modulus (GPa) = 48.18599 51.99289 50.08944
#
# Velocity S-wave (km/s) = 4.21553 4.37889 4.29798
# Velocity P-wave (km/s) = 6.61930 6.88274 6.75231
#
# Compressibility (1/GPa) = 0.01832893
#
# Stress axis : x y z
#
# Youngs Moduli (GPa) = 147.73650 77.69399 116.48135
#
# Poissons Ratio (x) = 0.24005 0.07695
# Poissons Ratio (y) = 0.45646 0.13951
# Poissons Ratio (z) = 0.09760 0.09305
#
# Static dielectric constant tensor:
#      x y z
#    x 2.226330 0.000000 0.000000 
#    y 0.000000 2.152900 0.000000 
#    z 0.000000 0.000000 2.285170 
# 
# From -- ./inp_files/7631.got.cif
#   From: 2010.05.17/outbox.cif.g08.bks.cpg/sg73_4_cif.got.tgz:7631.got - 2010.06.03 17:35:07.
