data_PCOD9532253
_publ_section_title
;
Structure prediction by ZEFSAII (Michael W. Deem and Ramdas Pophale) SiO2 
 PCOD9532253
Probable space group: I B C A 
;
_chemical_formula_sum "Si O2"
_cell_formula_units_Z 80
_cell_length_a 12.187491
_cell_length_b 22.437955
_cell_length_c 13.632844
_cell_angle_alpha 90.000000
_cell_angle_beta 90.000000
_cell_angle_gamma 90.000000
_cell_volume 3728.069893
_symmetry_space_group_name_H-M "I B C A "
_symmetry_group_IT_number 73
_symmetry_cell_setting 'orthorhombic'
loop_
_space_group_symop_operation_xyz
x,y,z
-x,1/2-y,z
x,-y,1/2-z
1/2-x,y,-z
-x,-y,-z
x,1/2+y,-z
-x,y,1/2+z
1/2+x,-y,z
1/2+x,1/2+y,1/2+z
1/2-x,-y,1/2+z
1/2+x,1/2-y,-z
-x,1/2+y,1/2-z
1/2-x,1/2-y,1/2-z
1/2+x,y,1/2-z
1/2-x,1/2+y,z
x,1/2-y,1/2+z
loop_
_atom_site_type_symbol
_atom_site_label
_atom_site_fract_x
_atom_site_fract_y
_atom_site_fract_z
Si Si1 0.411175 0.154468 0.327259
Si Si2 0.250000 0.495182 0.500000
Si Si3 0.705542 0.281703 0.600146
Si Si4 0.078326 0.901572 0.037206
Si Si5 0.500000 0.250000 0.212340
Si Si6 0.380422 0.555631 0.823651
O O1 0.317023 0.203714 0.343959
O O2 0.448283 0.122499 0.427560
O O3 0.509121 0.190810 0.277372
O O4 0.358012 0.107469 0.253734
O O5 0.349887 0.539287 0.475440
O O6 0.285580 0.460009 0.597939
O O7 0.750000 0.253970 0.500000
O O8 0.650993 0.346856 0.578892
O O9 0.608195 0.244287 0.646557
O O10 0.979834 0.920198 0.108317
O O11 0.405751 0.500000 0.750000
#
# Coordination Sequence:
#
# PCOD9532253 Si02
#       6
#    16   8  16  16   8  16
#     4  11  24  44  67 103 138 178 236 291 351 419
#     4  12  24  42  66  98 138 180 224 286 360 410
#     4  10  22  43  69  93 137 180 226 293 348 407
#     4  11  22  45  67  97 141 180 224 290 350 417
#     4  12  24  44  72  98 136 192 238 288 360 412
#     4  12  25  43  71 101 138 183 230 281 355 428
#
# _framework density 21.458824
#
# number of rings (size 3 to 8) (size 9 to 14) (size 15 to 20)
#    0.000    0.800    7.000    1.200    0.000    7.200 
#    1.800    0.000    0.000    0.000    0.000    0.000 
#    0.000    0.000    0.000    0.000    0.000    0.000 
#
# Total GULP energy -223283.740895 kJ/mol
# GULP energy per Si atom -5582.093522 kJ/mol
# Density = 2.140998 g / cm^3
# Si number density = 21.458824 Si / 1000 Ang^3
#
#
#
# Elastic Constant Matrix: (Units=GPa)
#
#
# Indices 1 2 3 4 5 6 
#
# 1 52.1740 -3.4809 49.6304 0.0000 0.0000 0.0000
# 2 -3.4809 41.9475 26.0316 -0.0003 0.0000 -0.0001
# 3 49.6304 26.0316 138.3767 -0.0003 0.0000 0.0000
# 4 0.0000 -0.0003 -0.0003 -112.1818 0.0001 0.0001
# 5 0.0000 0.0000 0.0000 0.0001 21.6305 0.0000
# 6 0.0000 -0.0001 0.0000 0.0001 0.0000 -5.0296
#
#
#
# Elastic Compliance Matrix: (Units=1/GPa)
#
#
# Indices 1 2 3 4 5 6 
#
# 1 0.033401 0.011555 -0.014153 0.000000 0.000000 0.000000
# 2 0.011555 0.030988 -0.009974 0.000000 0.000000 0.000000
# 3 -0.014153 -0.009974 0.014179 0.000000 0.000000 0.000000
# 4 0.000000 0.000000 0.000000 -0.008914 0.000000 0.000000
# 5 0.000000 0.000000 0.000000 0.000000 0.046231 0.000000
# 6 0.000000 0.000000 0.000000 0.000000 0.000000 -0.198822
#
#
# Mechanical properties :
#
#
# Convention : Reuss Voigt Hill
#
# Bulk Modulus (GPa) = 18.71843 41.87339 30.29591
# Shear Modulus (GPa) = -125.04433 -8.42838 -66.73636
#
# Velocity S-wave (km/s) = -7.64188 -1.98399 -5.58276
# Velocity P-wave (km/s) = 8.31399 3.78252 5.23522
#
# Compressibility (1/GPa) = 0.05342329
#
# Stress axis : x y z
#
# Youngs Moduli (GPa) = 29.93936 32.27095 70.52595
#
# Poissons Ratio (x) = -0.37289 0.99818
# Poissons Ratio (y) = -0.34595 0.70341
# Poissons Ratio (z) = 0.42374 0.32186
#
# Static dielectric constant tensor:
#      x y z
#    x 1.783320 0.000000 0.000000 
#    y 0.000000 1.773780 0.000000 
#    z 0.000000 0.000000 1.827390 
# 
# From -- ./inp_files/10890.got.cif
#   From: 2010.05.17/outbox.cif.g08.bks.cpg/sg73_6_cif.got.tgz:10890.got - 2010.06.03 17:35:07.
