data_PCOD9532909
_publ_section_title
;
Structure prediction by ZEFSAII (Michael W. Deem and Ramdas Pophale) SiO2 
 PCOD9532909
Probable space group: I B C A 
;
_chemical_formula_sum "Si O2"
_cell_formula_units_Z 64
_cell_length_a 15.707646
_cell_length_b 8.813615
_cell_length_c 20.339783
_cell_angle_alpha 90.000000
_cell_angle_beta 90.000000
_cell_angle_gamma 90.000000
_cell_volume 2815.862835
_symmetry_space_group_name_H-M "I B C A "
_symmetry_group_IT_number 73
_symmetry_cell_setting 'orthorhombic'
loop_
_space_group_symop_operation_xyz
x,y,z
-x,1/2-y,z
x,-y,1/2-z
1/2-x,y,-z
-x,-y,-z
x,1/2+y,-z
-x,y,1/2+z
1/2+x,-y,z
1/2+x,1/2+y,1/2+z
1/2-x,-y,1/2+z
1/2+x,1/2-y,-z
-x,1/2+y,1/2-z
1/2-x,1/2-y,1/2-z
1/2+x,y,1/2-z
1/2-x,1/2+y,z
x,1/2-y,1/2+z
loop_
_atom_site_type_symbol
_atom_site_label
_atom_site_fract_x
_atom_site_fract_y
_atom_site_fract_z
Si Si1 0.922704 0.828292 0.354436
Si Si2 0.307460 0.500000 0.750000
Si Si3 0.288888 0.428697 0.371026
Si Si4 0.500000 0.250000 0.975859
Si Si5 0.175382 0.727726 0.552176
O O1 0.859306 0.699212 0.381099
O O2 0.971619 0.880307 0.421520
O O3 0.000000 0.750000 0.314990
O O4 0.868304 0.926210 0.304670
O O5 0.242418 0.409370 0.703562
O O6 0.322281 0.592773 0.393597
O O7 0.208810 0.382482 0.415446
O O8 0.583615 0.256979 0.020672
O O9 0.250000 0.687278 0.500000
#
# Coordination Sequence:
#
# PCOD9532909 Si02
#       5
#    16   8  16   8  16
#     4  10  24  46  68 105 141 186 243 304 363 449
#     4  12  24  48  72  98 148 192 252 300 372 454
#     4  12  25  45  74 104 141 200 236 316 369 451
#     4  10  24  48  68 112 144 192 248 310 370 464
#     4  12  24  45  73 105 150 189 251 304 386 447
#
# _framework density 22.728380000000001
#
# number of rings (size 3 to 8) (size 9 to 14) (size 15 to 20)
#    0.750    0.000    5.000    1.500    0.000    4.000 
#    2.250    0.000    0.000    0.000    0.000    0.000 
#    0.000    0.000    0.000    0.000    0.000    0.000 
#
# Total GULP energy -178208.212547 kJ/mol
# GULP energy per Si atom -5569.006642 kJ/mol
# Density = 2.267665 g / cm^3
# Si number density = 22.728380 Si / 1000 Ang^3
#
#
#
# Elastic Constant Matrix: (Units=GPa)
#
#
# Indices 1 2 3 4 5 6 
#
# 1 180.3246 31.3314 67.9133 0.0000 0.0000 0.0000
# 2 31.3314 59.2295 38.4986 0.0000 0.0000 0.0000
# 3 67.9133 38.4986 112.3401 0.0000 0.0000 0.0000
# 4 0.0000 0.0000 0.0000 38.0022 0.0000 0.0000
# 5 0.0000 0.0000 0.0000 0.0000 50.5966 0.0000
# 6 0.0000 0.0000 0.0000 0.0000 0.0000 23.7407
#
#
#
# Elastic Compliance Matrix: (Units=1/GPa)
#
#
# Indices 1 2 3 4 5 6 
#
# 1 0.007254 -0.001270 -0.003950 0.000000 0.000000 0.000000
# 2 -0.001270 0.021944 -0.006753 0.000000 0.000000 0.000000
# 3 -0.003950 -0.006753 0.013604 0.000000 0.000000 0.000000
# 4 0.000000 0.000000 0.000000 0.026314 0.000000 0.000000
# 5 0.000000 0.000000 0.000000 0.000000 0.019764 0.000000
# 6 0.000000 0.000000 0.000000 0.000000 0.000000 0.042122
#
#
# Mechanical properties :
#
#
# Convention : Reuss Voigt Hill
#
# Bulk Modulus (GPa) = 53.03097 69.70896 61.36996
# Shear Modulus (GPa) = 31.01114 36.74463 33.87788
#
# Velocity S-wave (km/s) = 3.69782 4.02516 3.86496
# Velocity P-wave (km/s) = 6.45097 7.23461 6.85400
#
# Compressibility (1/GPa) = 0.01885691
#
# Stress axis : x y z
#
# Youngs Moduli (GPa) = 137.85840 45.56996 73.50984
#
# Poissons Ratio (x) = 0.05786 0.29037
# Poissons Ratio (y) = 0.17503 0.49639
# Poissons Ratio (z) = 0.54455 0.30772
#
# Static dielectric constant tensor:
#      x y z
#    x 1.898050 0.000000 0.000000 
#    y 0.000000 1.906530 0.000000 
#    z 0.000000 0.000000 1.924420 
# 
# From -- ./inp_files/26328.got.cif
#   From: 2010.05.17/outbox.cif.g08.bks.cpg/sg73_14_cif.got.tgz:26328.got - 2010.06.03 17:35:07.
