data_PCOD9532727
_publ_section_title
;
Structure prediction by ZEFSAII (Michael W. Deem and Ramdas Pophale) SiO2 
 PCOD9532727
Probable space group: I B C A 
;
_chemical_formula_sum "Si O2"
_cell_formula_units_Z 120
_cell_length_a 20.865507
_cell_length_b 29.512728
_cell_length_c 9.316451
_cell_angle_alpha 90.000000
_cell_angle_beta 90.000000
_cell_angle_gamma 90.000000
_cell_volume 5737.052197
_symmetry_space_group_name_H-M "I B C A "
_symmetry_group_IT_number 73
_symmetry_cell_setting 'orthorhombic'
loop_
_space_group_symop_operation_xyz
x,y,z
-x,1/2-y,z
x,-y,1/2-z
1/2-x,y,-z
-x,-y,-z
x,1/2+y,-z
-x,y,1/2+z
1/2+x,-y,z
1/2+x,1/2+y,1/2+z
1/2-x,-y,1/2+z
1/2+x,1/2-y,-z
-x,1/2+y,1/2-z
1/2-x,1/2-y,1/2-z
1/2+x,y,1/2-z
1/2-x,1/2+y,z
x,1/2-y,1/2+z
loop_
_atom_site_type_symbol
_atom_site_label
_atom_site_fract_x
_atom_site_fract_y
_atom_site_fract_z
Si Si1 0.216916 0.866887 0.657605
Si Si2 0.991664 0.900526 0.603680
Si Si3 0.090977 0.674245 0.034031
Si Si4 0.500000 0.750000 0.852911
Si Si5 0.721984 0.790267 0.345271
Si Si6 0.593507 0.824079 0.279665
Si Si7 0.210353 0.956980 0.848540
Si Si8 0.942172 0.955946 0.345975
O O1 0.250000 0.870668 0.500000
O O2 0.146760 0.843411 0.638707
O O3 0.254582 0.835115 0.766601
O O4 0.215587 0.914468 0.740609
O O5 0.929559 0.872055 0.657181
O O6 0.974849 0.941809 0.496873
O O7 0.035114 0.863295 0.524927
O O8 0.033999 0.916534 0.738411
O O9 0.055878 0.721794 0.066151
O O10 0.122080 0.673812 0.878233
O O11 0.467248 0.790789 0.767076
O O12 0.750000 0.783797 0.500000
O O13 0.750000 0.750000 0.250000
O O14 0.646575 0.797675 0.368643
O O15 0.133652 0.959966 0.877520
O O16 0.229972 0.000000 0.750000
O O17 0.250000 0.953918 0.000000
O O18 0.959820 0.000000 0.250000
#
# Coordination Sequence:
#
# PCOD9532727 Si02
#       8
#    16  16  16   8  16  16  16  16
#     4  12  24  43  73  98 142 188 234 299 358 423
#     4  11  23  43  68 102 137 175 230 274 347 420
#     4  11  22  43  65  99 138 178 232 284 349 414
#     4  10  24  40  68  96 136 186 234 288 350 416
#     4  12  28  45  67 101 139 184 241 295 356 426
#     4  11  24  42  68 100 137 181 232 292 348 418
#     4  11  26  48  73 108 141 186 242 296 362 431
#     4  11  24  44  71 102 141 180 223 288 350 429
#
# _framework density 20.916664000000001
#
# number of rings (size 3 to 8) (size 9 to 14) (size 15 to 20)
#    0.000    0.800    4.000    2.800    5.600    0.000 
#    2.400    0.667    0.000    0.000    0.000    0.000 
#    0.000    0.000    0.000    0.000    0.000    0.000 
#
# Total GULP energy -334529.371533 kJ/mol
# GULP energy per Si atom -5575.489526 kJ/mol
# Density = 2.086906 g / cm^3
# Si number density = 20.916664 Si / 1000 Ang^3
#
#
#
# Elastic Constant Matrix: (Units=GPa)
#
#
# Indices 1 2 3 4 5 6 
#
# 1 87.3179 33.4466 38.7979 0.0000 0.0000 0.0000
# 2 33.4466 108.4965 32.7592 0.0000 0.0000 0.0000
# 3 38.7979 32.7592 125.8841 0.0000 0.0000 0.0000
# 4 0.0000 0.0000 0.0000 26.5385 0.0000 0.0000
# 5 0.0000 0.0000 0.0000 0.0000 31.9537 0.0000
# 6 0.0000 0.0000 0.0000 0.0000 0.0000 28.4596
#
#
#
# Elastic Compliance Matrix: (Units=1/GPa)
#
#
# Indices 1 2 3 4 5 6 
#
# 1 0.014305 -0.003341 -0.003539 0.000000 0.000000 0.000000
# 2 -0.003341 0.010783 -0.001776 0.000000 0.000000 0.000000
# 3 -0.003539 -0.001776 0.009497 0.000000 0.000000 0.000000
# 4 0.000000 0.000000 0.000000 0.037681 0.000000 0.000000
# 5 0.000000 0.000000 0.000000 0.000000 0.031295 0.000000
# 6 0.000000 0.000000 0.000000 0.000000 0.000000 0.035138
#
#
# Mechanical properties :
#
#
# Convention : Reuss Voigt Hill
#
# Bulk Modulus (GPa) = 57.89966 59.07843 58.48905
# Shear Modulus (GPa) = 30.90813 31.83668 31.37241
#
# Velocity S-wave (km/s) = 3.84823 3.90561 3.87703
# Velocity P-wave (km/s) = 6.89104 6.97455 6.93292
#
# Compressibility (1/GPa) = 0.01727126
#
# Stress axis : x y z
#
# Youngs Moduli (GPa) = 69.90647 92.73657 105.29731
#
# Poissons Ratio (x) = 0.30985 0.37268
# Poissons Ratio (y) = 0.23357 0.18705
# Poissons Ratio (z) = 0.24742 0.16474
#
# Static dielectric constant tensor:
#      x y z
#    x 1.692790 0.000000 0.000000 
#    y 0.000000 2.197240 0.000000 
#    z 0.000000 0.000000 2.603580 
# 
# From -- ./inp_files/7402.got.cif
#   From: 2010.05.17/outbox.cif.g08.bks.cpg/sg73_4_cif.got.tgz:7402.got - 2010.06.03 17:35:07.
