data_PCOD9532690
_publ_section_title
;
Structure prediction by ZEFSAII (Michael W. Deem and Ramdas Pophale) SiO2 
 PCOD9532690
Probable space group: I B C A 
;
_chemical_formula_sum "Si O2"
_cell_formula_units_Z 80
_cell_length_a 22.246194
_cell_length_b 9.087491
_cell_length_c 22.369389
_cell_angle_alpha 90.000000
_cell_angle_beta 90.000000
_cell_angle_gamma 90.000000
_cell_volume 4522.242382
_symmetry_space_group_name_H-M "I B C A "
_symmetry_group_IT_number 73
_symmetry_cell_setting 'orthorhombic'
loop_
_space_group_symop_operation_xyz
x,y,z
-x,1/2-y,z
x,-y,1/2-z
1/2-x,y,-z
-x,-y,-z
x,1/2+y,-z
-x,y,1/2+z
1/2+x,-y,z
1/2+x,1/2+y,1/2+z
1/2-x,-y,1/2+z
1/2+x,1/2-y,-z
-x,1/2+y,1/2-z
1/2-x,1/2-y,1/2-z
1/2+x,y,1/2-z
1/2-x,1/2+y,z
x,1/2-y,1/2+z
loop_
_atom_site_type_symbol
_atom_site_label
_atom_site_fract_x
_atom_site_fract_y
_atom_site_fract_z
Si Si1 0.647348 0.000000 0.750000
Si Si2 0.250000 0.591018 0.500000
Si Si3 0.069764 0.778422 0.227083
Si Si4 0.200150 0.169612 0.078717
Si Si5 0.874265 0.977774 0.832066
Si Si6 0.250420 0.844000 0.811302
O O1 0.605996 0.872116 0.776087
O O2 0.691283 0.942710 0.697773
O O3 0.201230 0.702893 0.471395
O O4 0.273274 0.479433 0.449519
O O5 0.080400 0.884750 0.170221
O O6 0.000000 0.750000 0.237816
O O7 0.100991 0.866794 0.281807
O O8 0.240748 0.238105 0.132141
O O9 0.138389 0.118333 0.109419
O O10 0.809868 0.056027 0.816854
O O11 0.250000 0.750000 0.750000
#
# Coordination Sequence:
#
# PCOD9532690 Si02
#       6
#     8   8  16  16  16  16
#     4  12  20  30  54  84 116 158 188 230 300 366
#     4  10  24  36  58  86 132 166 198 248 298 370
#     4  11  23  37  52  84 127 163 200 242 299 374
#     4  11  21  39  56  87 128 159 200 240 302 370
#     4  11  21  37  57  81 121 160 196 241 304 376
#     4  12  21  32  58  91 125 151 186 240 316 390
#
# _framework density 17.690339000000002
#
# number of rings (size 3 to 8) (size 9 to 14) (size 15 to 20)
#    0.000    0.800    6.000    4.800    0.000    0.000 
#    0.000    0.000    0.000    0.000    0.000    4.200 
#    0.000    0.000    0.000    0.000    0.000    0.000 
#
# Total GULP energy -223026.540914 kJ/mol
# GULP energy per Si atom -5575.663523 kJ/mol
# Density = 1.765008 g / cm^3
# Si number density = 17.690339 Si / 1000 Ang^3
#
#
#
# Elastic Constant Matrix: (Units=GPa)
#
#
# Indices 1 2 3 4 5 6 
#
# 1 101.2141 50.4204 26.9281 0.0000 0.0000 0.0000
# 2 50.4204 137.9964 44.8447 0.0000 0.0000 0.0000
# 3 26.9281 44.8447 77.2146 0.0000 0.0000 0.0000
# 4 0.0000 0.0000 0.0000 41.9101 0.0000 0.0000
# 5 0.0000 0.0000 0.0000 0.0000 15.4013 0.0000
# 6 0.0000 0.0000 0.0000 0.0000 0.0000 23.1662
#
#
#
# Elastic Compliance Matrix: (Units=1/GPa)
#
#
# Indices 1 2 3 4 5 6 
#
# 1 0.012343 -0.003835 -0.002077 0.000000 0.000000 0.000000
# 2 -0.003835 0.010124 -0.004542 0.000000 0.000000 0.000000
# 3 -0.002077 -0.004542 0.016314 0.000000 0.000000 0.000000
# 4 0.000000 0.000000 0.000000 0.023861 0.000000 0.000000
# 5 0.000000 0.000000 0.000000 0.000000 0.064930 0.000000
# 6 0.000000 0.000000 0.000000 0.000000 0.000000 0.043166
#
#
# Mechanical properties :
#
#
# Convention : Reuss Voigt Hill
#
# Bulk Modulus (GPa) = 55.95552 62.31237 59.13395
# Shear Modulus (GPa) = 25.30323 29.04430 27.17376
#
# Velocity S-wave (km/s) = 3.78609 4.05633 3.92354
# Velocity P-wave (km/s) = 7.12824 7.56564 7.35019
#
# Compressibility (1/GPa) = 0.01787134
#
# Stress axis : x y z
#
# Youngs Moduli (GPa) = 81.01732 98.77692 61.29883
#
# Poissons Ratio (x) = 0.37878 0.12734
# Poissons Ratio (y) = 0.31068 0.27844
# Poissons Ratio (z) = 0.16831 0.44868
#
# Static dielectric constant tensor:
#      x y z
#    x 1.586770 0.000000 0.000000 
#    y 0.000000 1.682550 0.000000 
#    z 0.000000 0.000000 1.666100 
# 
# From -- ./inp_files/30269.got.cif
#   From: 2010.05.17/outbox.cif.g08.bks.cpg/sg73_16_cif.got.tgz:30269.got - 2010.06.03 17:35:07.
