data_PCOD9532278
_publ_section_title
;
Structure prediction by ZEFSAII (Michael W. Deem and Ramdas Pophale) SiO2 
 PCOD9532278
Probable space group: I B C A 
;
_chemical_formula_sum "Si O2"
_cell_formula_units_Z 80
_cell_length_a 21.028565
_cell_length_b 14.470789
_cell_length_c 12.312531
_cell_angle_alpha 90.000000
_cell_angle_beta 90.000000
_cell_angle_gamma 90.000000
_cell_volume 3746.702286
_symmetry_space_group_name_H-M "I B C A "
_symmetry_group_IT_number 73
_symmetry_cell_setting 'orthorhombic'
loop_
_space_group_symop_operation_xyz
x,y,z
-x,1/2-y,z
x,-y,1/2-z
1/2-x,y,-z
-x,-y,-z
x,1/2+y,-z
-x,y,1/2+z
1/2+x,-y,z
1/2+x,1/2+y,1/2+z
1/2-x,-y,1/2+z
1/2+x,1/2-y,-z
-x,1/2+y,1/2-z
1/2-x,1/2-y,1/2-z
1/2+x,y,1/2-z
1/2-x,1/2+y,z
x,1/2-y,1/2+z
loop_
_atom_site_type_symbol
_atom_site_label
_atom_site_fract_x
_atom_site_fract_y
_atom_site_fract_z
Si Si1 0.842384 0.804064 0.275355
Si Si2 0.029178 0.894016 0.780148
Si Si3 0.000000 0.750000 0.947965
Si Si4 0.571811 0.833202 0.366439
Si Si5 0.772071 0.857075 0.877531
Si Si6 0.639822 0.000000 0.250000
O O1 0.897742 0.874211 0.308717
O O2 0.881758 0.732589 0.200779
O O3 0.788590 0.850462 0.202041
O O4 0.807738 0.742255 0.366270
O O5 0.987350 0.840012 0.871561
O O6 0.001190 0.844845 0.673641
O O7 0.022614 0.000000 0.750000
O O8 0.059958 0.786532 0.017134
O O9 0.600556 0.934087 0.333979
O O10 0.817812 0.934255 0.826470
O O11 0.750000 0.874709 0.000000
#
# Coordination Sequence:
#
# PCOD9532278 Si02
#       6
#    16  16   8  16  16   8
#     4  10  22  44  66  96 139 181 234 295 352 421
#     4  12  25  42  68 105 145 177 232 302 352 430
#     4  12  24  42  72 106 136 196 232 274 388 444
#     4  11  22  44  69  98 142 184 227 294 368 417
#     4  10  24  43  70  95 136 194 236 290 363 415
#     4  10  24  46  64 104 146 178 242 312 334 422
#
# _framework density 21.35211
#
# number of rings (size 3 to 8) (size 9 to 14) (size 15 to 20)
#    0.000    1.200    5.000    0.000    4.200    2.400 
#    0.000    2.000    0.000    0.000    0.000    0.000 
#    0.000    0.000    0.000    0.000    0.000    0.000 
#
# Total GULP energy -222720.630778 kJ/mol
# GULP energy per Si atom -5568.015769 kJ/mol
# Density = 2.130351 g / cm^3
# Si number density = 21.352110 Si / 1000 Ang^3
#
#
#
# Elastic Constant Matrix: (Units=GPa)
#
#
# Indices 1 2 3 4 5 6 
#
# 1 118.1470 46.9431 34.7564 0.0000 0.0000 0.0000
# 2 46.9431 149.8840 54.5817 0.0000 0.0000 0.0000
# 3 34.7564 54.5817 98.8185 0.0000 0.0000 0.0000
# 4 0.0000 0.0000 0.0000 27.0015 0.0000 0.0000
# 5 0.0000 0.0000 0.0000 0.0000 32.9193 0.0000
# 6 0.0000 0.0000 0.0000 0.0000 0.0000 22.0026
#
#
#
# Elastic Compliance Matrix: (Units=1/GPa)
#
#
# Indices 1 2 3 4 5 6 
#
# 1 0.010051 -0.002329 -0.002249 0.000000 0.000000 0.000000
# 2 -0.002329 0.008891 -0.004092 0.000000 0.000000 0.000000
# 3 -0.002249 -0.004092 0.013171 0.000000 0.000000 0.000000
# 4 0.000000 0.000000 0.000000 0.037035 0.000000 0.000000
# 5 0.000000 0.000000 0.000000 0.000000 0.030377 0.000000
# 6 0.000000 0.000000 0.000000 0.000000 0.000000 0.045449
#
#
# Mechanical properties :
#
#
# Convention : Reuss Voigt Hill
#
# Bulk Modulus (GPa) = 67.68810 71.04577 69.36694
# Shear Modulus (GPa) = 29.89746 31.75589 30.82668
#
# Velocity S-wave (km/s) = 3.74600 3.86067 3.80377
# Velocity P-wave (km/s) = 7.10491 7.29511 7.20064
#
# Compressibility (1/GPa) = 0.01477365
#
# Stress axis : x y z
#
# Youngs Moduli (GPa) = 99.49317 112.46832 75.92658
#
# Poissons Ratio (x) = 0.26194 0.17073
# Poissons Ratio (y) = 0.23172 0.31069
# Poissons Ratio (z) = 0.22373 0.46021
#
# Static dielectric constant tensor:
#      x y z
#    x 1.826520 0.000000 0.000000 
#    y 0.000000 1.944740 0.000000 
#    z 0.000000 0.000000 1.793370 
# 
# From -- ./inp_files/13448.got.cif
#   From: 2010.05.17/outbox.cif.g08.bks.cpg/sg73_7_cif.got.tgz:13448.got - 2010.06.03 17:35:07.
