data_PCOD9532351
_publ_section_title
;
Structure prediction by ZEFSAII (Michael W. Deem and Ramdas Pophale) SiO2 
 PCOD9532351
Probable space group: I B C A 
;
_chemical_formula_sum "Si O2"
_cell_formula_units_Z 112
_cell_length_a 13.339356
_cell_length_b 26.383044
_cell_length_c 13.963480
_cell_angle_alpha 90.000000
_cell_angle_beta 90.000000
_cell_angle_gamma 90.000000
_cell_volume 4914.206841
_symmetry_space_group_name_H-M "I B C A "
_symmetry_group_IT_number 73
_symmetry_cell_setting 'orthorhombic'
loop_
_space_group_symop_operation_xyz
x,y,z
-x,1/2-y,z
x,-y,1/2-z
1/2-x,y,-z
-x,-y,-z
x,1/2+y,-z
-x,y,1/2+z
1/2+x,-y,z
1/2+x,1/2+y,1/2+z
1/2-x,-y,1/2+z
1/2+x,1/2-y,-z
-x,1/2+y,1/2-z
1/2-x,1/2-y,1/2-z
1/2+x,y,1/2-z
1/2-x,1/2+y,z
x,1/2-y,1/2+z
loop_
_atom_site_type_symbol
_atom_site_label
_atom_site_fract_x
_atom_site_fract_y
_atom_site_fract_z
Si Si1 0.336569 0.503057 0.064764
Si Si2 0.716114 0.722114 0.396734
Si Si3 0.000000 0.750000 0.660209
Si Si4 0.447558 0.359904 0.195308
Si Si5 0.572210 0.911293 0.663543
Si Si6 0.012833 0.069067 0.957925
Si Si7 0.731992 0.327164 0.307706
Si Si8 0.790872 0.500000 0.750000
O O1 0.382156 0.545767 0.992938
O O2 0.280090 0.517212 0.162313
O O3 0.250000 0.476269 0.000000
O O4 0.437131 0.471422 0.091429
O O5 0.750000 0.703295 0.500000
O O6 0.598650 0.736360 0.399009
O O7 0.734969 0.686276 0.305391
O O8 0.769603 0.774980 0.366964
O O9 0.026333 0.698775 0.717469
O O10 0.470275 0.397737 0.281178
O O11 0.331937 0.358209 0.166225
O O12 0.515285 0.381975 0.109115
O O13 0.546344 0.920996 0.555119
O O14 0.637686 0.861058 0.671797
O O15 0.636079 0.955625 0.712598
#
# Coordination Sequence:
#
# PCOD9532351 Si02
#       8
#    16  16   8  16  16  16  16   8
#     4  11  24  49  69 104 139 179 231 292 347 423
#     4  10  22  45  71 101 141 184 234 291 354 418
#     4  10  22  46  68  98 144 182 230 290 344 418
#     4  11  25  45  70 101 142 185 236 294 344 425
#     4  12  26  46  69 106 136 187 232 290 357 418
#     4  11  27  43  72 104 137 180 239 283 348 424
#     4  10  24  44  69 104 136 183 237 290 346 429
#     4  12  26  44  76  92 146 190 226 294 364 414
#
# _framework density 22.791063999999999
#
# number of rings (size 3 to 8) (size 9 to 14) (size 15 to 20)
#    0.000    1.143    2.857    1.714   10.000    1.143 
#    0.000    0.714    0.000    0.000    0.000    0.000 
#    0.000    0.000    0.000    0.000    0.000    0.000 
#
# Total GULP energy -313035.699653 kJ/mol
# GULP energy per Si atom -5589.923208 kJ/mol
# Density = 2.273919 g / cm^3
# Si number density = 22.791064 Si / 1000 Ang^3
#
#
#
# Elastic Constant Matrix: (Units=GPa)
#
#
# Indices 1 2 3 4 5 6 
#
# 1 51.5506 10.3494 -2.3812 0.0000 0.0000 0.0000
# 2 10.3494 51.1521 6.1403 -0.0001 0.0000 0.0001
# 3 -2.3812 6.1403 73.6820 -0.0001 -0.0001 0.0001
# 4 0.0000 -0.0001 -0.0001 13.4213 0.0000 0.0001
# 5 0.0000 0.0000 -0.0001 0.0000 32.7549 0.0000
# 6 0.0000 0.0001 0.0001 0.0001 0.0000 17.8472
#
#
#
# Elastic Compliance Matrix: (Units=1/GPa)
#
#
# Indices 1 2 3 4 5 6 
#
# 1 0.020294 -0.004227 0.001008 0.000000 0.000000 0.000000
# 2 -0.004227 0.020627 -0.001856 0.000000 0.000000 0.000000
# 3 0.001008 -0.001856 0.013759 0.000000 0.000000 0.000000
# 4 0.000000 0.000000 0.000000 0.074508 0.000000 0.000000
# 5 0.000000 0.000000 0.000000 0.000000 0.030530 0.000000
# 6 0.000000 0.000000 0.000000 0.000000 0.000000 0.056031
#
#
# Mechanical properties :
#
#
# Convention : Reuss Voigt Hill
#
# Bulk Modulus (GPa) = 22.45613 22.73352 22.59482
# Shear Modulus (GPa) = 20.76912 23.62310 22.19611
#
# Velocity S-wave (km/s) = 3.02202 3.22298 3.12412
# Velocity P-wave (km/s) = 4.69588 4.88329 4.79050
#
# Compressibility (1/GPa) = 0.04453126
#
# Stress axis : x y z
#
# Youngs Moduli (GPa) = 49.27671 48.47902 72.67946
#
# Poissons Ratio (x) = 0.20492 -0.07327
# Poissons Ratio (y) = 0.20829 0.13486
# Poissons Ratio (z) = -0.04967 0.08996
#
# Static dielectric constant tensor:
#      x y z
#    x 1.888230 0.000000 0.000000 
#    y 0.000000 1.882980 0.000000 
#    z 0.000000 0.000000 1.930530 
# 
# From -- ./inp_files/16373.got.cif
#   From: 2010.05.17/outbox.cif.g08.bks.cpg/sg73_9_cif.got.tgz:16373.got - 2010.06.03 17:35:07.
