data_PCOD9532963
_publ_section_title
;
Structure prediction by ZEFSAII (Michael W. Deem and Ramdas Pophale) SiO2 
 PCOD9532963
Probable space group: I B C A 
;
_chemical_formula_sum "Si O2"
_cell_formula_units_Z 80
_cell_length_a 20.002772
_cell_length_b 5.413251
_cell_length_c 31.923762
_cell_angle_alpha 90.000000
_cell_angle_beta 90.000000
_cell_angle_gamma 90.000000
_cell_volume 3456.705764
_symmetry_space_group_name_H-M "I B C A "
_symmetry_group_IT_number 73
_symmetry_cell_setting 'orthorhombic'
loop_
_space_group_symop_operation_xyz
x,y,z
-x,1/2-y,z
x,-y,1/2-z
1/2-x,y,-z
-x,-y,-z
x,1/2+y,-z
-x,y,1/2+z
1/2+x,-y,z
1/2+x,1/2+y,1/2+z
1/2-x,-y,1/2+z
1/2+x,1/2-y,-z
-x,1/2+y,1/2-z
1/2-x,1/2-y,1/2-z
1/2+x,y,1/2-z
1/2-x,1/2+y,z
x,1/2-y,1/2+z
loop_
_atom_site_type_symbol
_atom_site_label
_atom_site_fract_x
_atom_site_fract_y
_atom_site_fract_z
Si Si1 0.000000 0.750000 0.472243
Si Si2 0.890151 0.108771 0.674247
Si Si3 0.000000 0.750000 0.135664
Si Si4 0.174614 0.399068 0.482781
Si Si5 0.793250 0.000000 0.750000
Si Si6 0.393444 0.891386 0.092290
Si Si7 0.500000 0.750000 0.225485
O O1 0.936755 0.735701 0.440756
O O2 0.000000 0.500000 0.500000
O O3 0.837076 0.006483 0.707213
O O4 0.866045 0.231099 0.630955
O O5 0.933759 0.312502 0.699010
O O6 0.948080 0.915528 0.661766
O O7 0.050338 0.580915 0.108901
O O8 0.250000 0.375279 0.500000
O O9 0.145392 0.129629 0.491202
O O10 0.163821 0.473854 0.434678
O O11 0.750000 0.250000 0.750000
O O12 0.483515 0.500000 0.250000
#
# Coordination Sequence:
#
# PCOD9532963 Si02
#       7
#     8  16   8  16   8  16   8
#     4  12  24  40  66 106 158 200 238 316 408 472
#     4  12  27  47  82 113 165 195 261 332 400 487
#     4  12  24  46  77 127 158 190 254 338 424 467
#     4  10  24  48  71 100 144 207 273 315 369 461
#     4  12  34  58  78 114 156 224 270 312 394 480
#     4  12  25  43  72 117 154 199 255 327 409 468
#     4  12  24  42  79 119 148 196 244 320 406 467
#
# _framework density 23.143422999999999
#
# number of rings (size 3 to 8) (size 9 to 14) (size 15 to 20)
#    0.000    0.400    5.000    2.400    7.000    0.000 
#    7.200    0.000    0.000    0.000    0.000    0.000 
#    0.000    0.000    0.000    0.000    0.000    0.000 
#
# Total GULP energy -223490.997244 kJ/mol
# GULP energy per Si atom -5587.274931 kJ/mol
# Density = 2.309075 g / cm^3
# Si number density = 23.143423 Si / 1000 Ang^3
#
#
#
# Elastic Constant Matrix: (Units=GPa)
#
#
# Indices 1 2 3 4 5 6 
#
# 1 120.1344 43.2754 72.3584 0.0000 0.0000 0.0000
# 2 43.2754 144.6947 64.6409 0.0000 0.0000 0.0000
# 3 72.3584 64.6409 170.1955 0.0000 0.0000 0.0000
# 4 0.0000 0.0000 0.0000 35.0552 0.0000 0.0000
# 5 0.0000 0.0000 0.0000 0.0000 56.3007 0.0000
# 6 0.0000 0.0000 0.0000 0.0000 0.0000 55.9173
#
#
#
# Elastic Compliance Matrix: (Units=1/GPa)
#
#
# Indices 1 2 3 4 5 6 
#
# 1 0.011455 -0.001506 -0.004298 0.000000 0.000000 0.000000
# 2 -0.001506 0.008521 -0.002596 0.000000 0.000000 0.000000
# 3 -0.004298 -0.002596 0.008689 0.000000 0.000000 0.000000
# 4 0.000000 0.000000 0.000000 0.028526 0.000000 0.000000
# 5 0.000000 0.000000 0.000000 0.000000 0.017762 0.000000
# 6 0.000000 0.000000 0.000000 0.000000 0.000000 0.017884
#
#
# Mechanical properties :
#
#
# Convention : Reuss Voigt Hill
#
# Bulk Modulus (GPa) = 84.28151 88.39711 86.33931
# Shear Modulus (GPa) = 44.01670 46.43797 45.22733
#
# Velocity S-wave (km/s) = 4.36582 4.48429 4.42545
# Velocity P-wave (km/s) = 7.86829 8.06784 7.96869
#
# Compressibility (1/GPa) = 0.01186500
#
# Stress axis : x y z
#
# Youngs Moduli (GPa) = 87.29521 117.35288 115.08708
#
# Poissons Ratio (x) = 0.17672 0.49468
# Poissons Ratio (y) = 0.13145 0.29879
# Poissons Ratio (z) = 0.37522 0.30467
#
# Static dielectric constant tensor:
#      x y z
#    x 1.812260 0.000000 0.000000 
#    y 0.000000 1.928020 0.000000 
#    z 0.000000 0.000000 2.000540 
# 
# From -- ./inp_files/34749.got.cif
#   From: 2010.05.17/outbox.cif.g08.bks.cpg/sg73_18_cif.got.tgz:34749.got - 2010.06.03 17:35:07.
