data_PCOD9532353
_publ_section_title
;
Structure prediction by ZEFSAII (Michael W. Deem and Ramdas Pophale) SiO2 
 PCOD9532353
Probable space group: I B C A 
;
_chemical_formula_sum "Si O2"
_cell_formula_units_Z 80
_cell_length_a 12.285550
_cell_length_b 15.194917
_cell_length_c 17.169065
_cell_angle_alpha 90.000000
_cell_angle_beta 90.000000
_cell_angle_gamma 90.000000
_cell_volume 3205.085215
_symmetry_space_group_name_H-M "I B C A "
_symmetry_group_IT_number 73
_symmetry_cell_setting 'orthorhombic'
loop_
_space_group_symop_operation_xyz
x,y,z
-x,1/2-y,z
x,-y,1/2-z
1/2-x,y,-z
-x,-y,-z
x,1/2+y,-z
-x,y,1/2+z
1/2+x,-y,z
1/2+x,1/2+y,1/2+z
1/2-x,-y,1/2+z
1/2+x,1/2-y,-z
-x,1/2+y,1/2-z
1/2-x,1/2-y,1/2-z
1/2+x,y,1/2-z
1/2-x,1/2+y,z
x,1/2-y,1/2+z
loop_
_atom_site_type_symbol
_atom_site_label
_atom_site_fract_x
_atom_site_fract_y
_atom_site_fract_z
Si Si1 0.154481 0.311096 0.062845
Si Si2 0.714440 0.650431 0.230557
Si Si3 0.589646 0.032237 0.172163
Si Si4 0.255900 0.883451 0.601853
Si Si5 0.028093 0.403846 0.469560
O O1 0.147507 0.353933 0.149665
O O2 0.188748 0.211326 0.084896
O O3 0.250000 0.340677 0.000000
O O4 0.042173 0.335817 0.020491
O O5 0.750000 0.750000 0.250000
O O6 0.817331 0.592438 0.208112
O O7 0.686807 0.617557 0.316604
O O8 0.524516 0.095111 0.115431
O O9 0.527580 0.000000 0.250000
O O10 0.650537 0.955318 0.122168
O O11 0.342249 0.897555 0.459637
O O12 0.000000 0.500000 0.500000
#
# Coordination Sequence:
#
# PCOD9532353 Si02
#       5
#    16  16  16  16  16
#     4  11  23  44  74 101 152 183 250 314 386 443
#     4   9  19  43  72  98 140 199 235 308 374 453
#     4  10  22  45  71 103 149 195 249 315 384 464
#     4  10  25  45  72 101 147 196 251 306 389 466
#     4  12  27  43  74 110 145 199 253 315 393 465
#
# _framework density 24.960336000000002
#
# number of rings (size 3 to 8) (size 9 to 14) (size 15 to 20)
#    0.000    1.600    2.000    1.200    2.800    4.800 
#    0.000    0.000    4.400    0.000    0.000    0.000 
#    0.000    0.000    0.000    0.000    0.000    0.000 
#
# Total GULP energy -223150.231490 kJ/mol
# GULP energy per Si atom -5578.755787 kJ/mol
# Density = 2.490353 g / cm^3
# Si number density = 24.960336 Si / 1000 Ang^3
#
#
#
# Elastic Constant Matrix: (Units=GPa)
#
#
# Indices 1 2 3 4 5 6 
#
# 1 157.6925 51.1075 75.2597 0.0000 0.0000 0.0000
# 2 51.1075 76.1226 20.7473 0.0000 0.0000 0.0000
# 3 75.2597 20.7473 154.3167 0.0000 0.0000 0.0000
# 4 0.0000 0.0000 0.0000 40.1798 0.0000 0.0000
# 5 0.0000 0.0000 0.0000 0.0000 41.0083 0.0000
# 6 0.0000 0.0000 0.0000 0.0000 0.0000 21.2986
#
#
#
# Elastic Compliance Matrix: (Units=1/GPa)
#
#
# Indices 1 2 3 4 5 6 
#
# 1 0.010196 -0.005699 -0.004206 0.000000 0.000000 0.000000
# 2 -0.005699 0.016822 0.000518 0.000000 0.000000 0.000000
# 3 -0.004206 0.000518 0.008462 0.000000 0.000000 0.000000
# 4 0.000000 0.000000 0.000000 0.024888 0.000000 0.000000
# 5 0.000000 0.000000 0.000000 0.000000 0.024385 0.000000
# 6 0.000000 0.000000 0.000000 0.000000 0.000000 0.046951
#
#
# Mechanical properties :
#
#
# Convention : Reuss Voigt Hill
#
# Bulk Modulus (GPa) = 59.86367 75.81787 67.84077
# Shear Modulus (GPa) = 32.04143 36.56515 34.30329
#
# Velocity S-wave (km/s) = 3.58675 3.83159 3.71119
# Velocity P-wave (km/s) = 6.41784 7.07221 6.75295
#
# Compressibility (1/GPa) = 0.01670462
#
# Stress axis : x y z
#
# Youngs Moduli (GPa) = 98.07806 59.44668 118.17560
#
# Poissons Ratio (x) = 0.33878 0.49709
# Poissons Ratio (y) = 0.55894 -0.06118
# Poissons Ratio (z) = 0.41255 -0.03078
#
# Static dielectric constant tensor:
#      x y z
#    x 1.959380 0.000000 0.000000 
#    y 0.000000 2.018100 0.000000 
#    z 0.000000 0.000000 2.175030 
# 
# From -- ./inp_files/22390.got.cif
#   From: 2010.05.17/outbox.cif.g08.bks.cpg/sg73_12_cif.got.tgz:22390.got - 2010.06.03 17:35:07.
