data_PCOD9532822
_publ_section_title
;
Structure prediction by ZEFSAII (Michael W. Deem and Ramdas Pophale) SiO2 
 PCOD9532822
Probable space group: I B C A 
;
_chemical_formula_sum "Si O2"
_cell_formula_units_Z 104
_cell_length_a 28.232304
_cell_length_b 20.410383
_cell_length_c 9.176414
_cell_angle_alpha 90.000000
_cell_angle_beta 90.000000
_cell_angle_gamma 90.000000
_cell_volume 5287.744655
_symmetry_space_group_name_H-M "I B C A "
_symmetry_group_IT_number 73
_symmetry_cell_setting 'orthorhombic'
loop_
_space_group_symop_operation_xyz
x,y,z
-x,1/2-y,z
x,-y,1/2-z
1/2-x,y,-z
-x,-y,-z
x,1/2+y,-z
-x,y,1/2+z
1/2+x,-y,z
1/2+x,1/2+y,1/2+z
1/2-x,-y,1/2+z
1/2+x,1/2-y,-z
-x,1/2+y,1/2-z
1/2-x,1/2-y,1/2-z
1/2+x,y,1/2-z
1/2-x,1/2+y,z
x,1/2-y,1/2+z
loop_
_atom_site_type_symbol
_atom_site_label
_atom_site_fract_x
_atom_site_fract_y
_atom_site_fract_z
Si Si1 0.000000 0.250000 0.410073
Si Si2 0.358115 0.897225 0.674967
Si Si3 0.264849 0.315897 0.333193
Si Si4 0.963010 0.839712 0.842991
Si Si5 0.225205 0.437308 0.157523
Si Si6 0.033818 0.458537 0.104300
Si Si7 0.637689 0.968003 0.482580
O O1 0.967131 0.207807 0.517640
O O2 0.971459 0.298113 0.303308
O O3 0.319830 0.839134 0.664896
O O4 0.412137 0.873619 0.661704
O O5 0.351076 0.929370 0.833964
O O6 0.352480 0.955600 0.556241
O O7 0.250000 0.310156 0.500000
O O8 0.250000 0.250000 0.250000
O O9 0.237284 0.374264 0.251580
O O10 0.005691 0.892138 0.858064
O O11 0.241382 0.500000 0.250000
O O12 0.250000 0.435221 0.000000
O O13 0.170449 0.445479 0.115156
O O14 0.041821 0.500000 0.250000
O O15 0.083639 0.452650 0.022884
O O16 0.000000 0.500000 0.000000
#
# Coordination Sequence:
#
# PCOD9532822 Si02
#       7
#     8  16  16  16  16  16  16
#     4  10  24  44  62  94 134 194 230 270 332 412
#     4  11  23  43  71 102 137 179 228 293 359 424
#     4  12  28  49  71 100 139 184 239 299 360 427
#     4  11  23  43  67  95 140 180 232 281 341 415
#     4  12  23  44  71 101 137 178 230 294 351 425
#     4  12  23  40  68 103 142 174 223 291 352 418
#     4  11  23  40  71 107 135 178 227 285 370 422
#
# _framework density 19.668119999999998
#
# number of rings (size 3 to 8) (size 9 to 14) (size 15 to 20)
#    0.000    0.615    3.077    6.000    0.000    1.231 
#    5.538    0.000    0.000    0.000    0.000    0.000 
#    0.000    0.000    0.000    0.000    0.000    0.000 
#
# Total GULP energy -290841.605403 kJ/mol
# GULP energy per Si atom -5593.107796 kJ/mol
# Density = 1.962335 g / cm^3
# Si number density = 19.668120 Si / 1000 Ang^3
#
#
#
# Elastic Constant Matrix: (Units=GPa)
#
#
# Indices 1 2 3 4 5 6 
#
# 1 119.6183 42.6359 29.8930 0.0000 0.0000 0.0000
# 2 42.6359 143.2039 61.4414 0.0000 0.0000 0.0000
# 3 29.8930 61.4414 136.9762 0.0000 0.0000 0.0000
# 4 0.0000 0.0000 0.0000 37.9323 0.0000 0.0000
# 5 0.0000 0.0000 0.0000 0.0000 27.3009 0.0000
# 6 0.0000 0.0000 0.0000 0.0000 0.0000 21.3685
#
#
#
# Elastic Compliance Matrix: (Units=1/GPa)
#
#
# Indices 1 2 3 4 5 6 
#
# 1 0.009460 -0.002391 -0.000992 0.000000 0.000000 0.000000
# 2 -0.002391 0.009251 -0.003628 0.000000 0.000000 0.000000
# 3 -0.000992 -0.003628 0.009144 0.000000 0.000000 0.000000
# 4 0.000000 0.000000 0.000000 0.026363 0.000000 0.000000
# 5 0.000000 0.000000 0.000000 0.000000 0.036629 0.000000
# 6 0.000000 0.000000 0.000000 0.000000 0.000000 0.046798
#
#
# Mechanical properties :
#
#
# Convention : Reuss Voigt Hill
#
# Bulk Modulus (GPa) = 72.28575 74.19320 73.23948
# Shear Modulus (GPa) = 31.99414 35.04221 33.51817
#
# Velocity S-wave (km/s) = 4.03761 4.22557 4.13266
# Velocity P-wave (km/s) = 7.65304 7.84931 7.75180
#
# Compressibility (1/GPa) = 0.01383398
#
# Stress axis : x y z
#
# Youngs Moduli (GPa) = 105.70784 108.09076 109.35640
#
# Poissons Ratio (x) = 0.25843 0.10849
# Poissons Ratio (y) = 0.25273 0.39675
# Poissons Ratio (z) = 0.10487 0.39216
#
# Static dielectric constant tensor:
#      x y z
#    x 1.713500 0.000000 0.000000 
#    y 0.000000 1.680740 0.000000 
#    z 0.000000 0.000000 1.642240 
# 
# From -- ./inp_files/7907.got.cif
#   From: 2010.05.17/outbox.cif.g08.bks.cpg/sg73_4_cif.got.tgz:7907.got - 2010.06.03 17:35:07.
