data_PCOD9532577
_publ_section_title
;
Structure prediction by ZEFSAII (Michael W. Deem and Ramdas Pophale) SiO2 
 PCOD9532577
Probable space group: I B C A 
;
_chemical_formula_sum "Si O2"
_cell_formula_units_Z 88
_cell_length_a 14.368300
_cell_length_b 11.282843
_cell_length_c 24.251133
_cell_angle_alpha 90.000000
_cell_angle_beta 90.000000
_cell_angle_gamma 90.000000
_cell_volume 3931.479049
_symmetry_space_group_name_H-M "I B C A "
_symmetry_group_IT_number 73
_symmetry_cell_setting 'orthorhombic'
loop_
_space_group_symop_operation_xyz
x,y,z
-x,1/2-y,z
x,-y,1/2-z
1/2-x,y,-z
-x,-y,-z
x,1/2+y,-z
-x,y,1/2+z
1/2+x,-y,z
1/2+x,1/2+y,1/2+z
1/2-x,-y,1/2+z
1/2+x,1/2-y,-z
-x,1/2+y,1/2-z
1/2-x,1/2-y,1/2-z
1/2+x,y,1/2-z
1/2-x,1/2+y,z
x,1/2-y,1/2+z
loop_
_atom_site_type_symbol
_atom_site_label
_atom_site_fract_x
_atom_site_fract_y
_atom_site_fract_z
Si Si1 0.300033 0.983293 0.445951
Si Si2 0.624894 0.582342 0.882214
Si Si3 0.353589 0.902163 0.703015
Si Si4 0.048982 0.628162 0.503407
Si Si5 0.350923 0.665075 0.841242
Si Si6 0.000000 0.250000 0.266423
O O1 0.250000 0.923995 0.500000
O O2 0.351409 0.896843 0.402072
O O3 0.217352 0.038254 0.411666
O O4 0.359894 0.094181 0.468459
O O5 0.594840 0.467374 0.848161
O O6 0.565098 0.635950 0.931391
O O7 0.650504 0.692996 0.845037
O O8 0.247933 0.869313 0.685961
O O9 0.418941 0.800826 0.727424
O O10 0.344862 0.000000 0.750000
O O11 0.000000 0.750000 0.484770
O O12 0.000000 0.500000 0.500000
O O13 0.445943 0.652235 0.805092
#
# Coordination Sequence:
#
# PCOD9532577 Si02
#       6
#    16  16  16  16  16   8
#     4   9  22  43  68  97 138 191 230 283 362 439
#     4  10  23  44  66  95 136 186 236 288 357 446
#     4  11  25  47  69 103 140 185 249 298 376 446
#     4  11  24  41  68 105 144 180 236 303 364 435
#     4  11  24  45  73  99 144 190 238 300 372 440
#     4  12  26  44  74 106 142 188 242 320 372 438
#
# _framework density 22.383434000000001
#
# number of rings (size 3 to 8) (size 9 to 14) (size 15 to 20)
#    0.000    1.455    1.818    1.636    3.818    7.273 
#    8.182    0.000    0.000    0.000    0.000    0.000 
#    0.000    0.000    0.000    0.000    0.000    0.000 
#
# Total GULP energy -245261.974804 kJ/mol
# GULP energy per Si atom -5574.135791 kJ/mol
# Density = 2.233249 g / cm^3
# Si number density = 22.383434 Si / 1000 Ang^3
#
#
#
# Elastic Constant Matrix: (Units=GPa)
#
#
# Indices 1 2 3 4 5 6 
#
# 1 110.4744 40.1627 52.3834 0.0000 0.0000 0.0000
# 2 40.1627 90.4458 38.5140 0.0000 0.0000 0.0000
# 3 52.3834 38.5140 100.3385 0.0000 0.0000 0.0000
# 4 0.0000 0.0000 0.0000 31.9147 0.0000 0.0000
# 5 0.0000 0.0000 0.0000 0.0000 27.9787 0.0000
# 6 0.0000 0.0000 0.0000 0.0000 0.0000 -37.0310
#
#
#
# Elastic Compliance Matrix: (Units=1/GPa)
#
#
# Indices 1 2 3 4 5 6 
#
# 1 0.012852 -0.003407 -0.005402 0.000000 0.000000 0.000000
# 2 -0.003407 0.014120 -0.003641 0.000000 0.000000 0.000000
# 3 -0.005402 -0.003641 0.014184 0.000000 0.000000 0.000000
# 4 0.000000 0.000000 0.000000 0.031334 0.000000 0.000000
# 5 0.000000 0.000000 0.000000 0.000000 0.035742 0.000000
# 6 0.000000 0.000000 0.000000 0.000000 0.000000 -0.027004
#
#
# Mechanical properties :
#
#
# Convention : Reuss Voigt Hill
#
# Bulk Modulus (GPa) = 61.51571 62.59767 62.05669
# Shear Modulus (GPa) = 44.82539 15.91905 30.37222
#
# Velocity S-wave (km/s) = 4.47991 2.66972 3.68762
# Velocity P-wave (km/s) = 7.36898 6.12617 6.77613
#
# Compressibility (1/GPa) = 0.01625601
#
# Stress axis : x y z
#
# Youngs Moduli (GPa) = 77.81061 70.82372 70.50179
#
# Poissons Ratio (x) = 0.24127 0.38084
# Poissons Ratio (y) = 0.26507 0.25671
# Poissons Ratio (z) = 0.42032 0.25788
#
# Static dielectric constant tensor:
#      x y z
#    x 1.775660 0.000000 0.000000 
#    y 0.000000 1.754940 0.000000 
#    z 0.000000 0.000000 1.938600 
# 
# From -- ./inp_files/29418.got.cif
#   From: 2010.05.17/outbox.cif.g08.bks.cpg/sg73_15_cif.got.tgz:29418.got - 2010.06.03 17:35:07.
