data_PCOD9532747
_publ_section_title
;
Structure prediction by ZEFSAII (Michael W. Deem and Ramdas Pophale) SiO2 
 PCOD9532747
Probable space group: I B C A 
;
_chemical_formula_sum "Si O2"
_cell_formula_units_Z 72
_cell_length_a 27.609253
_cell_length_b 11.298054
_cell_length_c 9.299036
_cell_angle_alpha 90.000000
_cell_angle_beta 90.000000
_cell_angle_gamma 90.000000
_cell_volume 2900.656030
_symmetry_space_group_name_H-M "I B C A "
_symmetry_group_IT_number 73
_symmetry_cell_setting 'orthorhombic'
loop_
_space_group_symop_operation_xyz
x,y,z
-x,1/2-y,z
x,-y,1/2-z
1/2-x,y,-z
-x,-y,-z
x,1/2+y,-z
-x,y,1/2+z
1/2+x,-y,z
1/2+x,1/2+y,1/2+z
1/2-x,-y,1/2+z
1/2+x,1/2-y,-z
-x,1/2+y,1/2-z
1/2-x,1/2-y,1/2-z
1/2+x,y,1/2-z
1/2-x,1/2+y,z
x,1/2-y,1/2+z
loop_
_atom_site_type_symbol
_atom_site_label
_atom_site_fract_x
_atom_site_fract_y
_atom_site_fract_z
Si Si1 0.505606 0.119102 0.594749
Si Si2 0.739207 0.500000 0.750000
Si Si3 0.341118 0.099158 0.927461
Si Si4 0.671468 0.835606 0.743803
Si Si5 0.574562 0.500000 0.750000
Si Si6 0.407971 0.000000 0.250000
O O1 0.500000 0.250000 0.528464
O O2 0.556118 0.092784 0.673947
O O3 0.500000 0.000000 0.500000
O O4 0.461018 0.106348 0.706075
O O5 0.704230 0.483594 0.887095
O O6 0.775551 0.609176 0.775029
O O7 0.333830 0.206319 0.815931
O O8 0.390785 0.037314 0.880077
O O9 0.339413 0.151317 0.086587
O O10 0.630687 0.917264 0.666259
#
# Coordination Sequence:
#
# PCOD9532747 Si02
#       6
#    16   8  16  16   8   8
#     4  11  24  43  69 102 143 192 245 302 365 436
#     4  10  24  42  62  94 134 178 232 290 358 432
#     4  11  24  43  68 100 138 184 238 298 364 435
#     4  11  24  42  68  99 136 183 236 297 362 433
#     4  10  24  42  64  98 140 184 238 296 362 436
#     4  10  24  42  64  98 138 184 238 292 360 436
#
# _framework density 24.821971999999999
#
# number of rings (size 3 to 8) (size 9 to 14) (size 15 to 20)
#    0.000    1.333    0.000    4.000    0.000   17.778 
#    0.000    0.000    0.000    0.000    0.000    0.000 
#    0.000    0.000    0.000    0.000    0.000    0.000 
#
# Total GULP energy -201425.929528 kJ/mol
# GULP energy per Si atom -5595.164709 kJ/mol
# Density = 2.476548 g / cm^3
# Si number density = 24.821972 Si / 1000 Ang^3
#
#
#
# Elastic Constant Matrix: (Units=GPa)
#
#
# Indices 1 2 3 4 5 6 
#
# 1 188.6629 34.4916 38.6711 0.0000 0.0000 0.0000
# 2 34.4916 113.3002 34.3525 0.0000 0.0000 0.0000
# 3 38.6711 34.3525 130.1521 0.0000 0.0000 0.0000
# 4 0.0000 0.0000 0.0000 43.2894 0.0000 0.0000
# 5 0.0000 0.0000 0.0000 0.0000 26.1914 0.0000
# 6 0.0000 0.0000 0.0000 0.0000 0.0000 13.8476
#
#
#
# Elastic Compliance Matrix: (Units=1/GPa)
#
#
# Indices 1 2 3 4 5 6 
#
# 1 0.005830 -0.001358 -0.001374 0.000000 0.000000 0.000000
# 2 -0.001358 0.009910 -0.002212 0.000000 0.000000 0.000000
# 3 -0.001374 -0.002212 0.008675 0.000000 0.000000 0.000000
# 4 0.000000 0.000000 0.000000 0.023100 0.000000 0.000000
# 5 0.000000 0.000000 0.000000 0.000000 0.038180 0.000000
# 6 0.000000 0.000000 0.000000 0.000000 0.000000 0.072215
#
#
# Mechanical properties :
#
#
# Convention : Reuss Voigt Hill
#
# Bulk Modulus (GPa) = 68.83515 71.90506 70.37011
# Shear Modulus (GPa) = 28.96151 38.30569 33.63360
#
# Velocity S-wave (km/s) = 3.41951 3.93264 3.68502
# Velocity P-wave (km/s) = 6.58653 7.04642 6.82036
#
# Compressibility (1/GPa) = 0.01452746
#
# Stress axis : x y z
#
# Youngs Moduli (GPa) = 171.51493 100.90449 115.26872
#
# Poissons Ratio (x) = 0.13707 0.15836
# Poissons Ratio (y) = 0.23298 0.25499
# Poissons Ratio (z) = 0.23563 0.22321
#
# Static dielectric constant tensor:
#      x y z
#    x 1.947690 0.000000 0.000000 
#    y 0.000000 2.010660 0.000000 
#    z 0.000000 0.000000 2.114490 
# 
# From -- ./inp_files/14140.got.cif
#   From: 2010.05.17/outbox.cif.g08.bks.cpg/sg73_8_cif.got.tgz:14140.got - 2010.06.03 17:35:07.
