data_PCOD9532921
_publ_section_title
;
Structure prediction by ZEFSAII (Michael W. Deem and Ramdas Pophale) SiO2 
 PCOD9532921
Probable space group: I B C A 
;
_chemical_formula_sum "Si O2"
_cell_formula_units_Z 56
_cell_length_a 16.154157
_cell_length_b 14.162129
_cell_length_c 9.929569
_cell_angle_alpha 90.000000
_cell_angle_beta 90.000000
_cell_angle_gamma 90.000000
_cell_volume 2271.659542
_symmetry_space_group_name_H-M "I B C A "
_symmetry_group_IT_number 73
_symmetry_cell_setting 'orthorhombic'
loop_
_space_group_symop_operation_xyz
x,y,z
-x,1/2-y,z
x,-y,1/2-z
1/2-x,y,-z
-x,-y,-z
x,1/2+y,-z
-x,y,1/2+z
1/2+x,-y,z
1/2+x,1/2+y,1/2+z
1/2-x,-y,1/2+z
1/2+x,1/2-y,-z
-x,1/2+y,1/2-z
1/2-x,1/2-y,1/2-z
1/2+x,y,1/2-z
1/2-x,1/2+y,z
x,1/2-y,1/2+z
loop_
_atom_site_type_symbol
_atom_site_label
_atom_site_fract_x
_atom_site_fract_y
_atom_site_fract_z
Si Si1 0.750000 0.973351 0.000000
Si Si2 0.320774 0.191613 0.179376
Si Si3 0.422830 0.022307 0.900883
Si Si4 0.907216 0.756294 0.924350
O O1 0.787017 0.906656 0.120277
O O2 0.665852 0.023124 0.053370
O O3 0.250000 0.250000 0.250000
O O4 0.390444 0.190193 0.295971
O O5 0.349045 0.253210 0.052115
O O6 0.399892 0.132991 0.891350
O O7 0.448059 0.000000 0.750000
O O8 0.500000 0.000000 0.000000
O O9 0.000000 0.750000 0.974807
#
# Coordination Sequence:
#
# PCOD9532921 Si02
#       4
#     8  16  16  16
#     4  10  24  46  70 102 142 180 242 294 354 434
#     4  11  19  41  69  99 131 170 228 288 344 412
#     4  11  27  47  68 102 144 190 234 290 363 435
#     4  11  25  40  71 102 138 176 233 291 352 416
#
# _framework density 24.651581
#
# number of rings (size 3 to 8) (size 9 to 14) (size 15 to 20)
#    0.000    1.143    5.714    0.857   12.000    1.143 
#    0.000    1.429    0.000    0.000    0.000    0.000 
#    0.000    0.000    0.000    0.000    0.000    0.000 
#
# Total GULP energy -156445.700650 kJ/mol
# GULP energy per Si atom -5587.346452 kJ/mol
# Density = 2.459547 g / cm^3
# Si number density = 24.651581 Si / 1000 Ang^3
#
#
#
# Elastic Constant Matrix: (Units=GPa)
#
#
# Indices 1 2 3 4 5 6 
#
# 1 159.5849 10.4626 81.7920 0.0000 0.0000 0.0000
# 2 10.4626 57.3518 38.5494 0.0000 0.0000 0.0000
# 3 81.7920 38.5494 212.6627 0.0000 0.0000 0.0000
# 4 0.0000 0.0000 0.0000 16.6755 0.0000 0.0000
# 5 0.0000 0.0000 0.0000 0.0000 38.5028 0.0000
# 6 0.0000 0.0000 0.0000 0.0000 0.0000 31.7798
#
#
#
# Elastic Compliance Matrix: (Units=1/GPa)
#
#
# Indices 1 2 3 4 5 6 
#
# 1 0.007828 0.000678 -0.003134 0.000000 0.000000 0.000000
# 2 0.000678 0.019914 -0.003871 0.000000 0.000000 0.000000
# 3 -0.003134 -0.003871 0.006609 0.000000 0.000000 0.000000
# 4 0.000000 0.000000 0.000000 0.059968 0.000000 0.000000
# 5 0.000000 0.000000 0.000000 0.000000 0.025972 0.000000
# 6 0.000000 0.000000 0.000000 0.000000 0.000000 0.031467
#
#
# Mechanical properties :
#
#
# Convention : Reuss Voigt Hill
#
# Bulk Modulus (GPa) = 46.08490 76.80082 61.44286
# Shear Modulus (GPa) = 29.13016 37.31131 33.22073
#
# Velocity S-wave (km/s) = 3.44128 3.89465 3.67496
# Velocity P-wave (km/s) = 5.87579 7.17263 6.55635
#
# Compressibility (1/GPa) = 0.02169908
#
# Stress axis : x y z
#
# Youngs Moduli (GPa) = 127.74885 50.21534 151.30561
#
# Poissons Ratio (x) = -0.03406 0.47413
# Poissons Ratio (y) = -0.08665 0.58566
# Poissons Ratio (z) = 0.40032 0.19437
#
# Static dielectric constant tensor:
#      x y z
#    x 2.105500 0.000000 0.000000 
#    y 0.000000 2.334580 0.000000 
#    z 0.000000 0.000000 2.068580 
# 
# From -- ./inp_files/5089.got.cif
#   From: 2010.05.17/outbox.cif.g08.bks.cpg/sg73_3_cif.got.tgz:5089.got - 2010.06.03 17:35:07.
