data_PCOD9532960
_publ_section_title
;
Structure prediction by ZEFSAII (Michael W. Deem and Ramdas Pophale) SiO2 
 PCOD9532960
Probable space group: I B C A 
;
_chemical_formula_sum "Si O2"
_cell_formula_units_Z 80
_cell_length_a 14.094987
_cell_length_b 27.464155
_cell_length_c 9.597192
_cell_angle_alpha 90.000000
_cell_angle_beta 90.000000
_cell_angle_gamma 90.000000
_cell_volume 3715.139318
_symmetry_space_group_name_H-M "I B C A "
_symmetry_group_IT_number 73
_symmetry_cell_setting 'orthorhombic'
loop_
_space_group_symop_operation_xyz
x,y,z
-x,1/2-y,z
x,-y,1/2-z
1/2-x,y,-z
-x,-y,-z
x,1/2+y,-z
-x,y,1/2+z
1/2+x,-y,z
1/2+x,1/2+y,1/2+z
1/2-x,-y,1/2+z
1/2+x,1/2-y,-z
-x,1/2+y,1/2-z
1/2-x,1/2-y,1/2-z
1/2+x,y,1/2-z
1/2-x,1/2+y,z
x,1/2-y,1/2+z
loop_
_atom_site_type_symbol
_atom_site_label
_atom_site_fract_x
_atom_site_fract_y
_atom_site_fract_z
Si Si1 0.000000 0.750000 0.752087
Si Si2 0.567244 0.686498 0.502934
Si Si3 0.538590 0.901123 0.595139
Si Si4 0.250000 0.117089 0.000000
Si Si5 0.562790 0.950561 0.330064
Si Si6 0.276751 0.944917 0.223038
O O1 0.054087 0.785523 0.643296
O O2 0.067820 0.721609 0.861638
O O3 0.476452 0.651550 0.529319
O O4 0.657839 0.651495 0.500223
O O5 0.512445 0.940176 0.475482
O O6 0.469733 0.908108 0.725810
O O7 0.643219 0.913772 0.647014
O O8 0.245548 0.082093 0.866991
O O9 0.675640 0.949725 0.353280
O O10 0.538974 0.000000 0.250000
O O11 0.311767 0.000000 0.250000
#
# Coordination Sequence:
#
# PCOD9532960 Si02
#       6
#     8  16  16   8  16  16
#     4  10  24  48  70 100 124 174 214 296 358 426
#     4  11  24  44  73  96 136 167 230 280 360 410
#     4  12  23  43  67  99 131 192 223 283 336 409
#     4  12  24  44  68 104 136 182 224 292 328 412
#     4  11  24  39  63  95 139 181 236 276 326 389
#     4  11  26  40  65  99 148 184 234 272 328 392
#
# _framework density 21.533511000000001
#
# number of rings (size 3 to 8) (size 9 to 14) (size 15 to 20)
#    0.000    0.800    2.000    5.400    5.600    0.800 
#    0.000    0.000    0.000    0.000    0.000    0.000 
#    0.000    0.000    0.000    0.000    0.000    0.000 
#
# Total GULP energy -223693.135752 kJ/mol
# GULP energy per Si atom -5592.328394 kJ/mol
# Density = 2.148450 g / cm^3
# Si number density = 21.533511 Si / 1000 Ang^3
#
#
#
# Elastic Constant Matrix: (Units=GPa)
#
#
# Indices 1 2 3 4 5 6 
#
# 1 71.7272 15.0509 10.6410 0.0006 -0.0001 -0.0003
# 2 15.0509 83.6521 28.2697 0.0013 0.0001 -0.0004
# 3 10.6410 28.2697 115.5767 0.0028 0.0008 -0.0014
# 4 0.0006 0.0013 0.0028 40.7062 -0.0001 -0.0008
# 5 -0.0001 0.0001 0.0008 -0.0001 26.3459 0.0002
# 6 -0.0003 -0.0004 -0.0014 -0.0008 0.0002 23.3990
#
#
#
# Elastic Compliance Matrix: (Units=1/GPa)
#
#
# Indices 1 2 3 4 5 6 
#
# 1 0.014550 -0.002360 -0.000762 0.000000 0.000000 0.000000
# 2 -0.002360 0.013414 -0.003064 0.000000 0.000000 0.000000
# 3 -0.000762 -0.003064 0.009472 -0.000001 0.000000 0.000001
# 4 0.000000 0.000000 -0.000001 0.024566 0.000000 0.000001
# 5 0.000000 0.000000 0.000000 0.000000 0.037957 0.000000
# 6 0.000000 0.000000 0.000001 0.000001 0.000000 0.042737
#
#
# Mechanical properties :
#
#
# Convention : Reuss Voigt Hill
#
# Bulk Modulus (GPa) = 39.89863 42.09768 40.99816
# Shear Modulus (GPa) = 30.59538 32.55649 31.57594
#
# Velocity S-wave (km/s) = 3.77347 3.89253 3.83347
# Velocity P-wave (km/s) = 6.12816 6.30830 6.21888
#
# Compressibility (1/GPa) = 0.02506352
#
# Stress axis : x y z
#
# Youngs Moduli (GPa) = 68.72823 74.54708 105.57605
#
# Poissons Ratio (x) = 0.17595 0.08048
# Poissons Ratio (y) = 0.16222 0.32346
# Poissons Ratio (z) = 0.05239 0.22840
#
# Static dielectric constant tensor:
#      x y z
#    x 1.772180 0.000000 0.000000 
#    y 0.000000 1.815610 0.000000 
#    z 0.000000 0.000000 1.782540 
# 
# From -- ./inp_files/5628.got.cif
#   From: 2010.05.17/outbox.cif.g08.bks.cpg/sg73_3_cif.got.tgz:5628.got - 2010.06.03 17:35:07.
