data_PCOD9532860
_publ_section_title
;
Structure prediction by ZEFSAII (Michael W. Deem and Ramdas Pophale) SiO2 
 PCOD9532860
Probable space group: I B C A 
;
_chemical_formula_sum "Si O2"
_cell_formula_units_Z 72
_cell_length_a 11.217812
_cell_length_b 25.838148
_cell_length_c 10.190602
_cell_angle_alpha 90.000000
_cell_angle_beta 90.000000
_cell_angle_gamma 90.000000
_cell_volume 2953.720378
_symmetry_space_group_name_H-M "I B C A "
_symmetry_group_IT_number 73
_symmetry_cell_setting 'orthorhombic'
loop_
_space_group_symop_operation_xyz
x,y,z
-x,1/2-y,z
x,-y,1/2-z
1/2-x,y,-z
-x,-y,-z
x,1/2+y,-z
-x,y,1/2+z
1/2+x,-y,z
1/2+x,1/2+y,1/2+z
1/2-x,-y,1/2+z
1/2+x,1/2-y,-z
-x,1/2+y,1/2-z
1/2-x,1/2-y,1/2-z
1/2+x,y,1/2-z
1/2-x,1/2+y,z
x,1/2-y,1/2+z
loop_
_atom_site_type_symbol
_atom_site_label
_atom_site_fract_x
_atom_site_fract_y
_atom_site_fract_z
Si Si1 0.446506 0.370252 0.899935
Si Si2 0.768290 0.500000 0.750000
Si Si3 0.605500 0.100127 0.637690
Si Si4 0.750000 0.676226 0.500000
Si Si5 0.869852 0.242185 0.162062
Si Si6 0.750000 0.052550 0.000000
O O1 0.482791 0.379381 0.749366
O O2 0.385853 0.313929 0.904410
O O3 0.547076 0.389183 0.998278
O O4 0.344402 0.411475 0.930296
O O5 0.849016 0.456350 0.822938
O O6 0.696365 0.521355 0.875775
O O7 0.714916 0.140374 0.623464
O O8 0.854026 0.714431 0.450625
O O9 0.750000 0.250000 0.250000
O O10 0.000000 0.250000 0.230053
#
# Coordination Sequence:
#
# PCOD9532860 Si02
#       6
#    16   8  16   8  16   8
#     4  11  25  46  72 108 151 204 263 325 412 479
#     4  10  24  46  72 108 148 200 272 332 418 478
#     4  11  25  45  73 107 151 205 267 339 402 494
#     4  12  24  44  74 108 158 208 266 336 410 492
#     4  12  26  47  77 114 163 218 267 333 405 506
#     4  10  24  44  72 106 148 200 260 340 400 502
#
# _framework density 24.376038000000001
#
# number of rings (size 3 to 8) (size 9 to 14) (size 15 to 20)
#    0.000    0.889    4.444    1.333    0.000   14.222 
#    0.000    0.000    0.000    0.000    0.000    0.000 
#    0.000    0.000    0.000    0.000    0.000    0.000 
#
# Total GULP energy -200850.617640 kJ/mol
# GULP energy per Si atom -5579.183823 kJ/mol
# Density = 2.432056 g / cm^3
# Si number density = 24.376038 Si / 1000 Ang^3
#
#
#
# Elastic Constant Matrix: (Units=GPa)
#
#
# Indices 1 2 3 4 5 6 
#
# 1 91.7795 13.1159 32.3853 0.0001 0.0000 0.0000
# 2 13.1159 144.8434 51.6468 0.0001 0.0000 0.0000
# 3 32.3853 51.6468 131.2175 0.0002 0.0001 0.0001
# 4 0.0001 0.0001 0.0002 40.4279 0.0001 0.0000
# 5 0.0000 0.0000 0.0001 0.0001 49.1999 -0.0001
# 6 0.0000 0.0000 0.0001 0.0000 -0.0001 -0.0706
#
#
#
# Elastic Compliance Matrix: (Units=1/GPa)
#
#
# Indices 1 2 3 4 5 6 
#
# 1 0.011935 -0.000035 -0.002932 0.000000 0.000000 -0.000001
# 2 -0.000035 0.008031 -0.003152 0.000000 0.000000 -0.000002
# 3 -0.002932 -0.003152 0.009585 0.000000 0.000000 0.000013
# 4 0.000000 0.000000 0.000000 0.024735 0.000000 0.000017
# 5 0.000000 0.000000 0.000000 0.000000 0.020325 -0.000033
# 6 -0.000001 -0.000002 0.000013 0.000017 -0.000033-14.159845
#
#
# Mechanical properties :
#
#
# Convention : Reuss Voigt Hill
#
# Bulk Modulus (GPa) = 57.76083 62.45958 60.11021
# Shear Modulus (GPa) = -0.35544 35.95761 17.80108
#
# Velocity S-wave (km/s) = -0.38227 3.84490 2.70528
# Velocity P-wave (km/s) = 4.85308 6.73721 5.87121
#
# Compressibility (1/GPa) = 0.01731277
#
# Stress axis : x y z
#
# Youngs Moduli (GPa) = 83.78556 124.51374 104.32689
#
# Poissons Ratio (x) = 0.00441 0.30586
# Poissons Ratio (y) = 0.00296 0.32887
# Poissons Ratio (z) = 0.24564 0.39251
#
# Static dielectric constant tensor:
#      x y z
#    x 2.076660 0.000000 0.000000 
#    y 0.000000 2.039050 0.000000 
#    z 0.000000 0.000000 2.026820 
# 
# From -- ./inp_files/9726.got.cif
#   From: 2010.05.17/outbox.cif.g08.bks.cpg/sg73_5_cif.got.tgz:9726.got - 2010.06.03 17:35:07.
