data_PCOD9532311
_publ_section_title
;
Structure prediction by ZEFSAII (Michael W. Deem and Ramdas Pophale) SiO2 
 PCOD9532311
Probable space group: I B C A 
;
_chemical_formula_sum "Si O2"
_cell_formula_units_Z 112
_cell_length_a 12.300707
_cell_length_b 14.202970
_cell_length_c 28.086618
_cell_angle_alpha 90.000000
_cell_angle_beta 90.000000
_cell_angle_gamma 90.000000
_cell_volume 4906.916764
_symmetry_space_group_name_H-M "I B C A "
_symmetry_group_IT_number 73
_symmetry_cell_setting 'orthorhombic'
loop_
_space_group_symop_operation_xyz
x,y,z
-x,1/2-y,z
x,-y,1/2-z
1/2-x,y,-z
-x,-y,-z
x,1/2+y,-z
-x,y,1/2+z
1/2+x,-y,z
1/2+x,1/2+y,1/2+z
1/2-x,-y,1/2+z
1/2+x,1/2-y,-z
-x,1/2+y,1/2-z
1/2-x,1/2-y,1/2-z
1/2+x,y,1/2-z
1/2-x,1/2+y,z
x,1/2-y,1/2+z
loop_
_atom_site_type_symbol
_atom_site_label
_atom_site_fract_x
_atom_site_fract_y
_atom_site_fract_z
Si Si1 0.071841 0.881465 0.303218
Si Si2 0.616887 0.104687 0.198769
Si Si3 0.000000 0.250000 0.858591
Si Si4 0.000000 0.750000 0.505455
Si Si5 0.714380 0.373516 0.142577
Si Si6 0.342011 0.104362 0.458369
Si Si7 0.660530 0.590072 0.153969
Si Si8 0.831834 0.108778 0.458212
O O1 0.074156 0.851140 0.248137
O O2 0.178465 0.842872 0.329479
O O3 0.956649 0.871041 0.329537
O O4 0.095796 0.993534 0.301402
O O5 0.548486 0.148571 0.156785
O O6 0.743769 0.122223 0.189229
O O7 0.876650 0.294833 0.861783
O O8 0.068579 0.679964 0.472906
O O9 0.074439 0.813713 0.539633
O O10 0.666537 0.475115 0.159260
O O11 0.743644 0.392911 0.087913
O O12 0.250000 0.114364 0.500000
O O13 0.314608 0.114340 0.401856
O O14 0.380471 0.995815 0.462995
O O15 0.750000 0.130893 0.500000
#
# Coordination Sequence:
#
# PCOD9532311 Si02
#       8
#    16  16   8   8  16  16  16  16
#     4  10  22  44  71  97 129 184 230 276 335 422
#     4  10  24  40  71  98 135 174 226 279 344 404
#     4  12  23  42  65 102 136 172 216 293 343 406
#     4  12  23  40  69  98 130 184 222 283 339 404
#     4  10  23  41  69  98 134 177 227 279 347 412
#     4  10  24  45  68  99 138 179 228 281 343 413
#     4  10  22  46  70  99 133 184 230 280 338 417
#     4  10  23  42  65  96 134 177 226 277 337 409
#
# _framework density 22.824923999999999
#
# number of rings (size 3 to 8) (size 9 to 14) (size 15 to 20)
#    0.000    1.714    1.429    1.286    4.000    5.143 
#    5.143    0.000    0.000    0.000    0.000    0.000 
#    0.000    0.000    0.000    0.000    0.000    0.000 
#
# Total GULP energy -311911.106972 kJ/mol
# GULP energy per Si atom -5569.841196 kJ/mol
# Density = 2.277297 g / cm^3
# Si number density = 22.824924 Si / 1000 Ang^3
#
#
#
# Elastic Constant Matrix: (Units=GPa)
#
#
# Indices 1 2 3 4 5 6 
#
# 1 113.5605 19.9795 36.4345 0.0000 0.0000 0.0000
# 2 19.9795 75.3152 36.9229 0.0000 0.0000 0.0000
# 3 36.4345 36.9229 263.4791 0.0000 0.0000 0.0000
# 4 0.0000 0.0000 0.0000 -27.0349 0.0000 0.0000
# 5 0.0000 0.0000 0.0000 0.0000 24.1247 0.0000
# 6 0.0000 0.0000 0.0000 0.0000 0.0000 42.5215
#
#
#
# Elastic Compliance Matrix: (Units=1/GPa)
#
#
# Indices 1 2 3 4 5 6 
#
# 1 0.009491 -0.002013 -0.001030 0.000000 0.000000 0.000000
# 2 -0.002013 0.014684 -0.001779 0.000000 0.000000 0.000000
# 3 -0.001030 -0.001779 0.004187 0.000000 0.000000 0.000000
# 4 0.000000 0.000000 0.000000 -0.036989 0.000000 0.000000
# 5 0.000000 0.000000 0.000000 0.000000 0.041451 0.000000
# 6 0.000000 0.000000 0.000000 0.000000 0.000000 0.023518
#
#
# Mechanical properties :
#
#
# Convention : Reuss Voigt Hill
#
# Bulk Modulus (GPa) = 53.42757 71.00319 62.21538
# Shear Modulus (GPa) = 69.22854 31.85680 50.54267
#
# Velocity S-wave (km/s) = 5.51326 3.73996 4.71081
# Velocity P-wave (km/s) = 7.99916 7.05869 7.54359
#
# Compressibility (1/GPa) = 0.01871693
#
# Stress axis : x y z
#
# Youngs Moduli (GPa) = 105.36822 68.10244 238.82260
#
# Poissons Ratio (x) = 0.13706 0.24607
# Poissons Ratio (y) = 0.21205 0.42497
# Poissons Ratio (z) = 0.10857 0.12118
#
# Static dielectric constant tensor:
#      x y z
#    x 1.832100 0.000000 0.000000 
#    y 0.000000 1.893430 0.000000 
#    z 0.000000 0.000000 0.986650 
# 
# From -- ./inp_files/34073.got.cif
#   From: 2010.05.17/outbox.cif.g08.bks.cpg/sg73_18_cif.got.tgz:34073.got - 2010.06.03 17:35:07.
