data_PCOD9532182
_publ_section_title
;
Structure prediction by ZEFSAII (Michael W. Deem and Ramdas Pophale) SiO2 
 PCOD9532182
Probable space group: I B C A 
;
_chemical_formula_sum "Si O2"
_cell_formula_units_Z 120
_cell_length_a 8.900257
_cell_length_b 27.922613
_cell_length_c 22.766685
_cell_angle_alpha 90.000000
_cell_angle_beta 90.000000
_cell_angle_gamma 90.000000
_cell_volume 5657.940854
_symmetry_space_group_name_H-M "I B C A "
_symmetry_group_IT_number 73
_symmetry_cell_setting 'orthorhombic'
loop_
_space_group_symop_operation_xyz
x,y,z
-x,1/2-y,z
x,-y,1/2-z
1/2-x,y,-z
-x,-y,-z
x,1/2+y,-z
-x,y,1/2+z
1/2+x,-y,z
1/2+x,1/2+y,1/2+z
1/2-x,-y,1/2+z
1/2+x,1/2-y,-z
-x,1/2+y,1/2-z
1/2-x,1/2-y,1/2-z
1/2+x,y,1/2-z
1/2-x,1/2+y,z
x,1/2-y,1/2+z
loop_
_atom_site_type_symbol
_atom_site_label
_atom_site_fract_x
_atom_site_fract_y
_atom_site_fract_z
Si Si1 0.562972 0.044890 0.962059
Si Si2 0.120498 0.287171 0.909477
Si Si3 0.716583 0.458418 0.638561
Si Si4 0.761538 0.131917 0.718414
Si Si5 0.441079 0.867252 0.829250
Si Si6 0.455359 0.950133 0.662426
Si Si7 0.674751 0.236096 0.312983
Si Si8 0.250000 0.865091 0.000000
O O1 0.450639 0.057567 0.908402
O O2 0.788947 0.027683 0.075434
O O3 0.614939 0.096337 0.988263
O O4 0.500000 0.000000 0.000000
O O5 0.024656 0.320004 0.865287
O O6 0.240748 0.260311 0.868029
O O7 0.000000 0.250000 0.937537
O O8 0.202387 0.327080 0.949570
O O9 0.614597 0.411705 0.632287
O O10 0.615867 0.497843 0.669175
O O11 0.867552 0.449079 0.675881
O O12 0.588377 0.121287 0.707529
O O13 0.803645 0.142548 0.785435
O O14 0.810497 0.178947 0.683057
O O15 0.859723 0.087729 0.697000
O O16 0.500000 0.250000 0.311177
O O17 0.750000 0.250000 0.250000
#
# Coordination Sequence:
#
# PCOD9532182 Si02
#       8
#    16  16  16  16  16  16  16   8
#     4  10  23  42  73 103 135 189 245 295 365 434
#     4  12  26  49  70 105 143 197 247 300 371 439
#     4  10  22  42  68  99 144 183 234 302 360 439
#     4  12  25  41  72 107 141 195 238 304 362 451
#     4  12  24  43  71 102 148 187 243 295 377 436
#     4  10  23  41  67  99 141 180 238 290 366 432
#     4  12  25  42  74 104 141 184 241 300 360 437
#     4  12  26  46  76 100 152 196 238 318 372 422
#
# _framework density 21.209129000000001
#
# number of rings (size 3 to 8) (size 9 to 14) (size 15 to 20)
#    0.800    0.000    4.000    3.600    3.733    1.067 
#    0.000    2.667    0.000    0.000    0.000    0.000 
#    0.000    0.000    0.000    0.000    0.000    0.000 
#
# Total GULP energy -334620.814880 kJ/mol
# GULP energy per Si atom -5577.013581 kJ/mol
# Density = 2.116086 g / cm^3
# Si number density = 21.209129 Si / 1000 Ang^3
#
#
#
# Elastic Constant Matrix: (Units=GPa)
#
#
# Indices 1 2 3 4 5 6 
#
# 1 103.4278 28.0536 5.6183 0.0000 0.0000 0.0000
# 2 28.0536 126.2034 16.3618 0.0000 0.0000 0.0000
# 3 5.6183 16.3618 49.1033 0.0000 0.0000 0.0000
# 4 0.0000 0.0000 0.0000 39.8466 0.0000 0.0000
# 5 0.0000 0.0000 0.0000 0.0000 26.9230 0.0000
# 6 0.0000 0.0000 0.0000 0.0000 0.0000 38.2237
#
#
#
# Elastic Compliance Matrix: (Units=1/GPa)
#
#
# Indices 1 2 3 4 5 6 
#
# 1 0.010298 -0.002233 -0.000434 0.000000 0.000000 0.000000
# 2 -0.002233 0.008766 -0.002665 0.000000 0.000000 0.000000
# 3 -0.000434 -0.002665 0.021303 0.000000 0.000000 0.000000
# 4 0.000000 0.000000 0.000000 0.025096 0.000000 0.000000
# 5 0.000000 0.000000 0.000000 0.000000 0.037143 0.000000
# 6 0.000000 0.000000 0.000000 0.000000 0.000000 0.026162
#
#
# Mechanical properties :
#
#
# Convention : Reuss Voigt Hill
#
# Bulk Modulus (GPa) = 33.66815 42.08911 37.87863
# Shear Modulus (GPa) = 33.48228 36.24537 34.86383
#
# Velocity S-wave (km/s) = 3.97756 4.13843 4.05879
# Velocity P-wave (km/s) = 6.08305 6.53631 6.31375
#
# Compressibility (1/GPa) = 0.02970166
#
# Stress axis : x y z
#
# Youngs Moduli (GPa) = 97.10822 114.08240 46.94168
#
# Poissons Ratio (x) = 0.25472 0.02038
# Poissons Ratio (y) = 0.21682 0.12512
# Poissons Ratio (z) = 0.04217 0.30407
#
# Static dielectric constant tensor:
#      x y z
#    x 1.761700 0.000000 0.000000 
#    y 0.000000 1.773680 0.000000 
#    z 0.000000 0.000000 1.849480 
# 
# From -- ./inp_files/28548.got.cif
#   From: 2010.05.17/outbox.cif.g08.bks.cpg/sg73_15_cif.got.tgz:28548.got - 2010.06.03 17:35:07.
