data_PCOD9532220
_publ_section_title
;
Structure prediction by ZEFSAII (Michael W. Deem and Ramdas Pophale) SiO2 
 PCOD9532220
Probable space group: I B C A 
;
_chemical_formula_sum "Si O2"
_cell_formula_units_Z 96
_cell_length_a 22.448477
_cell_length_b 16.403890
_cell_length_c 14.104993
_cell_angle_alpha 90.000000
_cell_angle_beta 90.000000
_cell_angle_gamma 90.000000
_cell_volume 5194.055732
_symmetry_space_group_name_H-M "I B C A "
_symmetry_group_IT_number 73
_symmetry_cell_setting 'orthorhombic'
loop_
_space_group_symop_operation_xyz
x,y,z
-x,1/2-y,z
x,-y,1/2-z
1/2-x,y,-z
-x,-y,-z
x,1/2+y,-z
-x,y,1/2+z
1/2+x,-y,z
1/2+x,1/2+y,1/2+z
1/2-x,-y,1/2+z
1/2+x,1/2-y,-z
-x,1/2+y,1/2-z
1/2-x,1/2-y,1/2-z
1/2+x,y,1/2-z
1/2-x,1/2+y,z
x,1/2-y,1/2+z
loop_
_atom_site_type_symbol
_atom_site_label
_atom_site_fract_x
_atom_site_fract_y
_atom_site_fract_z
Si Si1 0.396759 0.045026 0.351949
Si Si2 0.222495 0.144777 0.598285
Si Si3 0.845578 0.808482 0.905419
Si Si4 0.938118 0.205401 0.216812
Si Si5 0.129234 0.123450 0.892400
Si Si6 0.757434 0.591092 0.291120
O O1 0.335151 0.090118 0.376866
O O2 0.442481 0.120310 0.343656
O O3 0.393566 0.000000 0.250000
O O4 0.401819 0.964233 0.414707
O O5 0.250000 0.113809 0.500000
O O6 0.202655 0.236973 0.583842
O O7 0.260732 0.143600 0.694313
O O8 0.895943 0.768394 0.839264
O O9 0.812272 0.884601 0.857409
O O10 0.867500 0.829553 0.009595
O O11 0.906189 0.174683 0.312995
O O12 0.000000 0.250000 0.234244
O O13 0.195634 0.106974 0.848404
O O14 0.758856 0.500000 0.250000
#
# Coordination Sequence:
#
# PCOD9532220 Si02
#       6
#    16  16  16  16  16  16
#     4   9  17  38  59  84 114 161 199 233 300 363
#     4  11  20  32  56  87 122 162 192 234 292 360
#     4  11  25  36  60  92 125 156 204 250 301 364
#     4  10  22  43  64  85 115 157 211 263 298 350
#     4  11  20  40  63  89 120 165 198 240 312 374
#     4  12  21  37  57  90 130 162 191 243 300 375
#
# _framework density 18.482665999999998
#
# number of rings (size 3 to 8) (size 9 to 14) (size 15 to 20)
#    0.000    1.333    6.667    2.000    4.667    0.667 
#    0.000    3.333    0.000    0.000    0.000    0.000 
#    0.000    0.000    0.000    0.000    0.000    0.000 
#
# Total GULP energy -267503.508075 kJ/mol
# GULP energy per Si atom -5572.989752 kJ/mol
# Density = 1.844060 g / cm^3
# Si number density = 18.482666 Si / 1000 Ang^3
#
#
#
# Elastic Constant Matrix: (Units=GPa)
#
#
# Indices 1 2 3 4 5 6 
#
# 1 66.1397 40.3556 36.1826 0.0000 0.0000 0.0000
# 2 40.3556 104.2380 44.4489 0.0000 0.0000 0.0000
# 3 36.1826 44.4489 94.0439 0.0000 0.0000 0.0000
# 4 0.0000 0.0000 0.0000 12.4039 0.0000 0.0000
# 5 0.0000 0.0000 0.0000 0.0000 12.4190 0.0000
# 6 0.0000 0.0000 0.0000 0.0000 0.0000 15.4843
#
#
#
# Elastic Compliance Matrix: (Units=1/GPa)
#
#
# Indices 1 2 3 4 5 6 
#
# 1 0.021872 -0.006111 -0.005527 0.000000 0.000000 0.000000
# 2 -0.006111 0.013722 -0.004135 0.000000 0.000000 0.000000
# 3 -0.005527 -0.004135 0.014714 0.000000 0.000000 0.000000
# 4 0.000000 0.000000 0.000000 0.080620 0.000000 0.000000
# 5 0.000000 0.000000 0.000000 0.000000 0.080522 0.000000
# 6 0.000000 0.000000 0.000000 0.000000 0.000000 0.064581
#
#
# Mechanical properties :
#
#
# Convention : Reuss Voigt Hill
#
# Bulk Modulus (GPa) = 53.29513 56.26619 54.78066
# Shear Modulus (GPa) = 15.93223 17.62375 16.77799
#
# Velocity S-wave (km/s) = 2.93918 3.09128 3.01619
# Velocity P-wave (km/s) = 6.35737 6.57648 6.46785
#
# Compressibility (1/GPa) = 0.01876344
#
# Stress axis : x y z
#
# Youngs Moduli (GPa) = 45.72155 72.87393 67.96321
#
# Poissons Ratio (x) = 0.44532 0.37561
# Poissons Ratio (y) = 0.27940 0.28100
# Poissons Ratio (z) = 0.25269 0.30131
#
# Static dielectric constant tensor:
#      x y z
#    x 1.635970 0.000000 0.000000 
#    y 0.000000 1.698740 0.000000 
#    z 0.000000 0.000000 1.673870 
# 
# From -- ./inp_files/18614.got.cif
#   From: 2010.05.17/outbox.cif.g08.bks.cpg/sg73_10_cif.got.tgz:18614.got - 2010.06.03 17:35:07.
