data_PCOD9532640
_publ_section_title
;
Structure prediction by ZEFSAII (Michael W. Deem and Ramdas Pophale) SiO2 
 PCOD9532640
Probable space group: I B C A 
;
_chemical_formula_sum "Si O2"
_cell_formula_units_Z 72
_cell_length_a 24.275522
_cell_length_b 9.505179
_cell_length_c 14.153259
_cell_angle_alpha 90.000000
_cell_angle_beta 90.000000
_cell_angle_gamma 90.000000
_cell_volume 3265.768016
_symmetry_space_group_name_H-M "I B C A "
_symmetry_group_IT_number 73
_symmetry_cell_setting 'orthorhombic'
loop_
_space_group_symop_operation_xyz
x,y,z
-x,1/2-y,z
x,-y,1/2-z
1/2-x,y,-z
-x,-y,-z
x,1/2+y,-z
-x,y,1/2+z
1/2+x,-y,z
1/2+x,1/2+y,1/2+z
1/2-x,-y,1/2+z
1/2+x,1/2-y,-z
-x,1/2+y,1/2-z
1/2-x,1/2-y,1/2-z
1/2+x,y,1/2-z
1/2-x,1/2+y,z
x,1/2-y,1/2+z
loop_
_atom_site_type_symbol
_atom_site_label
_atom_site_fract_x
_atom_site_fract_y
_atom_site_fract_z
Si Si1 0.110779 0.158838 0.272130
Si Si2 0.376221 0.045913 0.527971
Si Si3 0.937659 0.766117 0.908430
Si Si4 0.750000 0.927270 0.500000
Si Si5 0.292803 0.848632 0.201027
O O1 0.110060 0.152728 0.384910
O O2 0.059594 0.190108 0.203262
O O3 0.151166 0.273922 0.229706
O O4 0.130740 0.000000 0.250000
O O5 0.401576 0.128655 0.438002
O O6 0.310330 0.008433 0.528498
O O7 0.408096 0.901151 0.545083
O O8 0.000000 0.750000 0.943275
O O9 0.727701 0.850075 0.593126
O O10 0.250000 0.750000 0.250000
O O11 0.291353 0.000000 0.250000
#
# Coordination Sequence:
#
# PCOD9532640 Si02
#       5
#    16  16  16   8  16
#     4  10  23  46  66  99 139 184 231 291 351 421
#     4  11  25  42  73 104 145 181 238 297 360 437
#     4  11  25  47  70 100 139 189 242 295 350 417
#     4  12  26  42  74 108 148 194 232 298 386 438
#     4  12  26  42  67 102 146 187 234 290 358 445
#
# _framework density 22.046880000000002
#
# number of rings (size 3 to 8) (size 9 to 14) (size 15 to 20)
#    0.000    0.889    4.444    1.333    6.222    2.667 
#    0.000    5.556    0.000    0.000    0.000    0.000 
#    0.000    0.000    0.000    0.000    0.000    0.000 
#
# Total GULP energy -200452.454826 kJ/mol
# GULP energy per Si atom -5568.123745 kJ/mol
# Density = 2.199670 g / cm^3
# Si number density = 22.046880 Si / 1000 Ang^3
#
#
#
# Elastic Constant Matrix: (Units=GPa)
#
#
# Indices 1 2 3 4 5 6 
#
# 1 144.3752 68.9225 7.8520 0.0000 0.0000 0.0000
# 2 68.9225 102.8241 26.2516 0.0000 0.0000 0.0000
# 3 7.8520 26.2516 101.7439 0.0000 0.0000 0.0000
# 4 0.0000 0.0000 0.0000 9.3966 0.0000 0.0000
# 5 0.0000 0.0000 0.0000 0.0000 23.9845 0.0000
# 6 0.0000 0.0000 0.0000 0.0000 0.0000 37.1418
#
#
#
# Elastic Compliance Matrix: (Units=1/GPa)
#
#
# Indices 1 2 3 4 5 6 
#
# 1 0.010290 -0.007167 0.001055 0.000000 0.000000 0.000000
# 2 -0.007167 0.015403 -0.003421 0.000000 0.000000 0.000000
# 3 0.001055 -0.003421 0.010630 0.000000 0.000000 0.000000
# 4 0.000000 0.000000 0.000000 0.106421 0.000000 0.000000
# 5 0.000000 0.000000 0.000000 0.000000 0.041694 0.000000
# 6 0.000000 0.000000 0.000000 0.000000 0.000000 0.026924
#
#
# Mechanical properties :
#
#
# Convention : Reuss Voigt Hill
#
# Bulk Modulus (GPa) = 57.94731 61.66615 59.80673
# Shear Modulus (GPa) = 21.17027 30.49905 25.83466
#
# Velocity S-wave (km/s) = 3.10213 3.72341 3.42688
# Velocity P-wave (km/s) = 6.25873 6.82028 6.54553
#
# Compressibility (1/GPa) = 0.01725706
#
# Stress axis : x y z
#
# Youngs Moduli (GPa) = 97.17768 64.92340 94.07455
#
# Poissons Ratio (x) = 0.46531 -0.09925
# Poissons Ratio (y) = 0.69647 0.32184
# Poissons Ratio (z) = -0.10253 0.22211
#
# Static dielectric constant tensor:
#      x y z
#    x 1.817540 0.000000 0.000000 
#    y 0.000000 1.744470 0.000000 
#    z 0.000000 0.000000 1.712300 
# 
# From -- ./inp_files/19668.got.cif
#   From: 2010.05.17/outbox.cif.g08.bks.cpg/sg73_10_cif.got.tgz:19668.got - 2010.06.03 17:35:07.
