data_PCOD9532392
_publ_section_title
;
Structure prediction by ZEFSAII (Michael W. Deem and Ramdas Pophale) SiO2 
 PCOD9532392
Probable space group: I B C A 
;
_chemical_formula_sum "Si O2"
_cell_formula_units_Z 64
_cell_length_a 9.505129
_cell_length_b 13.199958
_cell_length_c 23.511774
_cell_angle_alpha 90.000000
_cell_angle_beta 90.000000
_cell_angle_gamma 90.000000
_cell_volume 2949.958886
_symmetry_space_group_name_H-M "I B C A "
_symmetry_group_IT_number 73
_symmetry_cell_setting 'orthorhombic'
loop_
_space_group_symop_operation_xyz
x,y,z
-x,1/2-y,z
x,-y,1/2-z
1/2-x,y,-z
-x,-y,-z
x,1/2+y,-z
-x,y,1/2+z
1/2+x,-y,z
1/2+x,1/2+y,1/2+z
1/2-x,-y,1/2+z
1/2+x,1/2-y,-z
-x,1/2+y,1/2-z
1/2-x,1/2-y,1/2-z
1/2+x,y,1/2-z
1/2-x,1/2+y,z
x,1/2-y,1/2+z
loop_
_atom_site_type_symbol
_atom_site_label
_atom_site_fract_x
_atom_site_fract_y
_atom_site_fract_z
Si Si1 0.852232 0.195568 0.796326
Si Si2 0.992088 0.500000 0.250000
Si Si3 0.994411 0.889781 0.474067
Si Si4 0.593586 0.149576 0.848240
Si Si5 0.250000 0.752524 0.500000
O O1 0.750000 0.250000 0.750000
O O2 0.893966 0.083230 0.778675
O O3 0.753173 0.188889 0.850577
O O4 0.000000 0.250000 0.803942
O O5 0.073971 0.565614 0.298315
O O6 0.145726 0.833569 0.468959
O O7 0.943019 0.893792 0.409144
O O8 0.879023 0.826789 0.511130
O O9 0.000000 0.000000 0.500000
O O10 0.500000 0.250000 0.835655
#
# Coordination Sequence:
#
# PCOD9532392 Si02
#       5
#    16   8  16  16   8
#     4  12  24  44  71 106 155 201 255 308 374 459
#     4  12  24  42  78 108 154 206 258 296 384 468
#     4  11  25  49  78 110 153 196 260 328 395 454
#     4  12  25  50  73 110 160 197 255 325 374 464
#     4  10  22  46  78 106 144 192 250 330 378 460
#
# _framework density 21.695217
#
# number of rings (size 3 to 8) (size 9 to 14) (size 15 to 20)
#    0.000    0.500    7.500    1.500    0.000    4.000 
#    9.000    0.000    5.500    0.000    0.000    0.000 
#    0.000    0.000    0.000    0.000    0.000    0.000 
#
# Total GULP energy -178162.948326 kJ/mol
# GULP energy per Si atom -5567.592135 kJ/mol
# Density = 2.164584 g / cm^3
# Si number density = 21.695217 Si / 1000 Ang^3
#
#
#
# Elastic Constant Matrix: (Units=GPa)
#
#
# Indices 1 2 3 4 5 6 
#
# 1 187.2900 65.3151 66.6042 0.0000 0.0000 0.0000
# 2 65.3151 183.5980 53.5905 0.0000 0.0000 0.0000
# 3 66.6042 53.5905 112.3031 0.0000 0.0000 0.0000
# 4 0.0000 0.0000 0.0000 24.8060 0.0000 0.0000
# 5 0.0000 0.0000 0.0000 0.0000 36.1305 0.0000
# 6 0.0000 0.0000 0.0000 0.0000 0.0000 33.5853
#
#
#
# Elastic Compliance Matrix: (Units=1/GPa)
#
#
# Indices 1 2 3 4 5 6 
#
# 1 0.007109 -0.001508 -0.003496 0.000000 0.000000 0.000000
# 2 -0.001508 0.006648 -0.002278 0.000000 0.000000 0.000000
# 3 -0.003496 -0.002278 0.012065 0.000000 0.000000 0.000000
# 4 0.000000 0.000000 0.000000 0.040313 0.000000 0.000000
# 5 0.000000 0.000000 0.000000 0.000000 0.027677 0.000000
# 6 0.000000 0.000000 0.000000 0.000000 0.000000 0.029775
#
#
# Mechanical properties :
#
#
# Convention : Reuss Voigt Hill
#
# Bulk Modulus (GPa) = 88.83448 94.91231 91.87339
# Shear Modulus (GPa) = 35.23506 38.74980 36.99243
#
# Velocity S-wave (km/s) = 4.03438 4.23081 4.13376
# Velocity P-wave (km/s) = 7.92067 8.22857 8.07609
#
# Compressibility (1/GPa) = 0.01125689
#
# Stress axis : x y z
#
# Youngs Moduli (GPa) = 140.67345 150.41680 82.88470
#
# Poissons Ratio (x) = 0.22689 0.28978
# Poissons Ratio (y) = 0.21219 0.18880
# Poissons Ratio (z) = 0.49182 0.34263
#
# Static dielectric constant tensor:
#      x y z
#    x 1.898640 0.000000 0.000000 
#    y 0.000000 1.418640 0.000000 
#    z 0.000000 0.000000 1.874470 
# 
# From -- ./inp_files/31039.got.cif
#   From: 2010.05.17/outbox.cif.g08.bks.cpg/sg73_16_cif.got.tgz:31039.got - 2010.06.03 17:35:07.
