data_PCOD9532429
_publ_section_title
;
Structure prediction by ZEFSAII (Michael W. Deem and Ramdas Pophale) SiO2 
 PCOD9532429
Probable space group: I B C A 
;
_chemical_formula_sum "Si O2"
_cell_formula_units_Z 72
_cell_length_a 27.952846
_cell_length_b 5.261459
_cell_length_c 18.343212
_cell_angle_alpha 90.000000
_cell_angle_beta 90.000000
_cell_angle_gamma 90.000000
_cell_volume 2697.786691
_symmetry_space_group_name_H-M "I B C A "
_symmetry_group_IT_number 73
_symmetry_cell_setting 'orthorhombic'
loop_
_space_group_symop_operation_xyz
x,y,z
-x,1/2-y,z
x,-y,1/2-z
1/2-x,y,-z
-x,-y,-z
x,1/2+y,-z
-x,y,1/2+z
1/2+x,-y,z
1/2+x,1/2+y,1/2+z
1/2-x,-y,1/2+z
1/2+x,1/2-y,-z
-x,1/2+y,1/2-z
1/2-x,1/2-y,1/2-z
1/2+x,y,1/2-z
1/2-x,1/2+y,z
x,1/2-y,1/2+z
loop_
_atom_site_type_symbol
_atom_site_label
_atom_site_fract_x
_atom_site_fract_y
_atom_site_fract_z
Si Si1 0.374977 0.892349 0.163576
Si Si2 0.552080 0.704895 0.903838
Si Si3 0.642355 0.478403 0.960753
Si Si4 0.570080 0.000000 0.250000
Si Si5 0.270429 0.450919 0.666481
O O1 0.353616 0.650979 0.117892
O O2 0.398440 0.747783 0.231693
O O3 0.415274 0.050940 0.119579
O O4 0.327390 0.058193 0.172204
O O5 0.500000 0.750000 0.934741
O O6 0.584956 0.535075 0.956429
O O7 0.543625 0.559298 0.825668
O O8 0.659932 0.755381 0.985364
O O9 0.251907 0.500000 0.750000
O O10 0.250899 0.704272 0.629622
#
# Coordination Sequence:
#
# PCOD9532429 Si02
#       5
#    16  16  16   8  16
#     4  11  24  44  68  97 138 179 225 283 343 413
#     4  11  25  41  66  98 137 185 226 279 339 405
#     4  11  24  46  70  96 127 178 232 284 334 391
#     4  10  24  36  66  94 142 178 224 266 346 412
#     4  10  23  38  67 101 136 171 216 272 341 411
#
# _framework density 26.688542999999999
#
# number of rings (size 3 to 8) (size 9 to 14) (size 15 to 20)
#    0.000    1.333    2.222    2.000   14.000    3.556 
#    0.000    0.000    0.000    4.000    0.000    0.000 
#    0.000    0.000    0.000    0.000    0.000    0.000 
#
# Total GULP energy -201093.789934 kJ/mol
# GULP energy per Si atom -5585.938609 kJ/mol
# Density = 2.662780 g / cm^3
# Si number density = 26.688543 Si / 1000 Ang^3
#
#
#
# Elastic Constant Matrix: (Units=GPa)
#
#
# Indices 1 2 3 4 5 6 
#
# 1 111.1257 31.5363 -25.4126 0.0000 0.0000 0.0000
# 2 31.5363 186.9428 0.0252 0.0000 0.0000 0.0000
# 3 -25.4126 0.0252 75.9933 0.0000 0.0000 0.0000
# 4 0.0000 0.0000 0.0000 42.0600 0.0000 0.0000
# 5 0.0000 0.0000 0.0000 0.0000 21.1101 0.0000
# 6 0.0000 0.0000 0.0000 0.0000 0.0000 34.8058
#
#
#
# Elastic Compliance Matrix: (Units=1/GPa)
#
#
# Indices 1 2 3 4 5 6 
#
# 1 0.010277 -0.001734 0.003437 0.000000 0.000000 0.000000
# 2 -0.001734 0.005642 -0.000582 0.000000 0.000000 0.000000
# 3 0.003437 -0.000582 0.014309 0.000000 0.000000 0.000000
# 4 0.000000 0.000000 0.000000 0.023776 0.000000 0.000000
# 5 0.000000 0.000000 0.000000 0.000000 0.047371 0.000000
# 6 0.000000 0.000000 0.000000 0.000000 0.000000 0.028731
#
#
# Mechanical properties :
#
#
# Convention : Reuss Voigt Hill
#
# Bulk Modulus (GPa) = 30.79748 42.92887 36.86318
# Shear Modulus (GPa) = 36.05287 44.12272 40.08780
#
# Velocity S-wave (km/s) = 3.67941 4.07042 3.87985
# Velocity P-wave (km/s) = 5.44200 6.18152 5.82351
#
# Compressibility (1/GPa) = 0.03247018
#
# Stress axis : x y z
#
# Youngs Moduli (GPa) = 97.30478 177.24685 69.88767
#
# Poissons Ratio (x) = 0.30737 -0.24022
# Poissons Ratio (y) = 0.16874 0.04066
# Poissons Ratio (z) = -0.33446 0.10312
#
# Static dielectric constant tensor:
#      x y z
#    x 2.018670 0.000000 0.000000 
#    y 0.000000 2.339720 0.000000 
#    z 0.000000 0.000000 2.253530 
# 
# From -- ./inp_files/1707.got.cif
#   From: 2010.05.17/outbox.cif.g08.bks.cpg/sg73_1_cif.got.tgz:1707.got - 2010.06.03 17:35:07.
