data_PCOD9532032
_publ_section_title
;
Structure prediction by ZEFSAII (Michael W. Deem and Ramdas Pophale) SiO2 
 PCOD9532032
Probable space group: I B C A 
;
_chemical_formula_sum "Si O2"
_cell_formula_units_Z 120
_cell_length_a 23.313535
_cell_length_b 25.417719
_cell_length_c 7.690825
_cell_angle_alpha 90.000000
_cell_angle_beta 90.000000
_cell_angle_gamma 90.000000
_cell_volume 4557.405095
_symmetry_space_group_name_H-M "I B C A "
_symmetry_group_IT_number 73
_symmetry_cell_setting 'orthorhombic'
loop_
_space_group_symop_operation_xyz
x,y,z
-x,1/2-y,z
x,-y,1/2-z
1/2-x,y,-z
-x,-y,-z
x,1/2+y,-z
-x,y,1/2+z
1/2+x,-y,z
1/2+x,1/2+y,1/2+z
1/2-x,-y,1/2+z
1/2+x,1/2-y,-z
-x,1/2+y,1/2-z
1/2-x,1/2-y,1/2-z
1/2+x,y,1/2-z
1/2-x,1/2+y,z
x,1/2-y,1/2+z
loop_
_atom_site_type_symbol
_atom_site_label
_atom_site_fract_x
_atom_site_fract_y
_atom_site_fract_z
Si Si1 0.862431 0.433142 0.898778
Si Si2 0.074918 0.474006 0.919357
Si Si3 0.926716 0.329370 0.873029
Si Si4 0.549087 0.853747 0.474056
Si Si5 0.812621 0.211880 0.294935
Si Si6 0.750000 0.382406 0.000000
Si Si7 0.830983 0.179935 0.901279
Si Si8 0.811390 0.066706 0.997780
O O1 0.900932 0.383171 0.944777
O O2 0.804376 0.422497 0.009849
O O3 0.839077 0.432221 0.695195
O O4 0.906409 0.481109 0.941160
O O5 0.046739 0.500000 0.750000
O O6 0.044931 0.417863 0.961530
O O7 0.139653 0.456508 0.877323
O O8 0.934199 0.341099 0.669738
O O9 0.875367 0.288200 0.893737
O O10 0.990505 0.323053 0.940489
O O11 0.602463 0.832773 0.358499
O O12 0.778640 0.162122 0.372647
O O13 0.824911 0.198629 0.097994
O O14 0.798693 0.273937 0.300687
O O15 0.801821 0.123230 0.908626
O O16 0.750000 0.039739 0.000000
#
# Coordination Sequence:
#
# PCOD9532032 Si02
#       8
#    16  16  16  16  16   8  16  16
#     4  11  23  46  66  92 141 174 224 278 334 400
#     4  11  26  42  65 101 132 173 231 267 338 411
#     4  10  22  44  68  93 133 176 217 281 338 394
#     4  10  23  45  66  96 138 170 226 280 340 390
#     4  10  22  41  66  96 135 176 219 272 339 397
#     4  10  22  40  68  94 128 180 220 264 342 396
#     4  10  22  44  62 101 135 170 224 275 327 403
#     4  11  24  43  67  95 136 184 220 283 330 389
#
# _framework density 26.330774000000002
#
# number of rings (size 3 to 8) (size 9 to 14) (size 15 to 20)
#    0.000    1.600    5.333    0.400    5.600    3.733 
#    4.800    2.667    0.000    0.000    0.000    0.000 
#    0.000    0.000    0.000    0.000    0.000    0.000 
#
# Total GULP energy -334619.663579 kJ/mol
# GULP energy per Si atom -5576.994393 kJ/mol
# Density = 2.627084 g / cm^3
# Si number density = 26.330774 Si / 1000 Ang^3
#
#
#
# Elastic Constant Matrix: (Units=GPa)
#
#
# Indices 1 2 3 4 5 6 
#
# 1 74.2447 -19.2124 15.9632 0.0000 0.0000 0.0000
# 2 -19.2124 111.0145 22.0212 0.0000 0.0000 0.0000
# 3 15.9632 22.0212 56.5289 0.0000 0.0000 0.0000
# 4 0.0000 0.0000 0.0000 40.6337 0.0000 0.0000
# 5 0.0000 0.0000 0.0000 0.0000 22.6104 0.0000
# 6 0.0000 0.0000 0.0000 0.0000 0.0000 2.9825
#
#
#
# Elastic Compliance Matrix: (Units=1/GPa)
#
#
# Indices 1 2 3 4 5 6 
#
# 1 0.015767 0.003914 -0.005977 0.000000 0.000000 0.000000
# 2 0.003914 0.010734 -0.005287 0.000000 0.000000 0.000000
# 3 -0.005977 -0.005287 0.021438 0.000000 0.000000 0.000000
# 4 0.000000 0.000000 0.000000 0.024610 0.000000 0.000000
# 5 0.000000 0.000000 0.000000 0.000000 0.044227 0.000000
# 6 0.000000 0.000000 0.000000 0.000000 0.000000 0.335286
#
#
# Mechanical properties :
#
#
# Convention : Reuss Voigt Hill
#
# Bulk Modulus (GPa) = 30.08522 31.03691 30.56106
# Shear Modulus (GPa) = 10.46372 28.11307 19.28839
#
# Velocity S-wave (km/s) = 1.99564 3.27110 2.70949
# Velocity P-wave (km/s) = 4.09399 5.10682 4.62820
#
# Compressibility (1/GPa) = 0.03323892
#
# Stress axis : x y z
#
# Youngs Moduli (GPa) = 63.42323 93.16207 46.64709
#
# Poissons Ratio (x) = -0.36467 0.27883
# Poissons Ratio (y) = -0.24826 0.24662
# Poissons Ratio (z) = 0.37910 0.49254
#
# Static dielectric constant tensor:
#      x y z
#    x 2.145990 0.000000 0.000000 
#    y 0.000000 2.134040 0.000000 
#    z 0.000000 0.000000 2.132500 
# 
# From -- ./inp_files/7388.got.cif
#   From: 2010.05.17/outbox.cif.g08.bks.cpg/sg73_4_cif.got.tgz:7388.got - 2010.06.03 17:35:07.
