data_PCOD9532088
_publ_section_title
;
Structure prediction by ZEFSAII (Michael W. Deem and Ramdas Pophale) SiO2 
 PCOD9532088
Probable space group: I B C A 
;
_chemical_formula_sum "Si O2"
_cell_formula_units_Z 88
_cell_length_a 18.917227
_cell_length_b 13.612396
_cell_length_c 15.866135
_cell_angle_alpha 90.000000
_cell_angle_beta 90.000000
_cell_angle_gamma 90.000000
_cell_volume 4085.669149
_symmetry_space_group_name_H-M "I B C A "
_symmetry_group_IT_number 73
_symmetry_cell_setting 'orthorhombic'
loop_
_space_group_symop_operation_xyz
x,y,z
-x,1/2-y,z
x,-y,1/2-z
1/2-x,y,-z
-x,-y,-z
x,1/2+y,-z
-x,y,1/2+z
1/2+x,-y,z
1/2+x,1/2+y,1/2+z
1/2-x,-y,1/2+z
1/2+x,1/2-y,-z
-x,1/2+y,1/2-z
1/2-x,1/2-y,1/2-z
1/2+x,y,1/2-z
1/2-x,1/2+y,z
x,1/2-y,1/2+z
loop_
_atom_site_type_symbol
_atom_site_label
_atom_site_fract_x
_atom_site_fract_y
_atom_site_fract_z
Si Si1 0.931129 0.313921 0.207373
Si Si2 0.348071 0.677120 0.598771
Si Si3 0.250000 0.822943 0.500000
Si Si4 0.096573 0.500000 0.250000
Si Si5 0.483336 0.570004 0.579491
Si Si6 0.648105 0.500000 0.750000
Si Si7 0.216483 0.967260 0.640739
O O1 0.872762 0.234455 0.182488
O O2 0.900403 0.403093 0.263549
O O3 0.000000 0.250000 0.236205
O O4 0.952674 0.367257 0.118620
O O5 0.303877 0.752969 0.546518
O O6 0.419896 0.642124 0.553298
O O7 0.304422 0.577981 0.615468
O O8 0.211522 0.894758 0.563912
O O9 0.048566 0.525517 0.331279
O O10 0.156571 0.431339 0.293544
O O11 0.500000 0.500000 0.500000
O O12 0.703967 0.528795 0.676760
#
# Coordination Sequence:
#
# PCOD9532088 Si02
#       7
#    16  16   8   8  16   8  16
#     4  10  22  41  65  98 139 177 230 294 338 428
#     4  10  23  40  66 102 138 175 241 291 354 433
#     4  12  22  42  68 102 136 192 230 298 370 432
#     4   9  21  42  64 102 139 179 240 298 356 429
#     4  10  22  42  72  96 141 192 231 294 363 430
#     4  11  21  42  72  98 131 189 224 286 380 417
#     4  10  23  41  69  98 142 182 230 307 364 427
#
# _framework density 21.538699000000001
#
# number of rings (size 3 to 8) (size 9 to 14) (size 15 to 20)
#    0.000    1.818    1.818    1.091    5.091    2.182 
#    6.545    0.000    8.000    1.091    0.000    0.000 
#    0.000    0.000    0.000    0.000    0.000    0.000 
#
# Total GULP energy -245035.172873 kJ/mol
# GULP energy per Si atom -5568.981202 kJ/mol
# Density = 2.148968 g / cm^3
# Si number density = 21.538699 Si / 1000 Ang^3
#
#
#
# Elastic Constant Matrix: (Units=GPa)
#
#
# Indices 1 2 3 4 5 6 
#
# 1 87.7845 57.2885 32.6054 0.0000 0.0000 0.0000
# 2 57.2885 157.3270 60.1291 0.0000 0.0000 0.0000
# 3 32.6054 60.1291 96.5345 0.0000 0.0000 0.0000
# 4 0.0000 0.0000 0.0000 55.6079 0.0000 0.0000
# 5 0.0000 0.0000 0.0000 0.0000 3.5562 0.0000
# 6 0.0000 0.0000 0.0000 0.0000 0.0000 31.8420
#
#
#
# Elastic Compliance Matrix: (Units=1/GPa)
#
#
# Indices 1 2 3 4 5 6 
#
# 1 0.015299 -0.004719 -0.002228 0.000000 0.000000 0.000000
# 2 -0.004719 0.009798 -0.004509 0.000000 0.000000 0.000000
# 3 -0.002228 -0.004509 0.013920 0.000000 0.000000 0.000000
# 4 0.000000 0.000000 0.000000 0.017983 0.000000 0.000000
# 5 0.000000 0.000000 0.000000 0.000000 0.281203 0.000000
# 6 0.000000 0.000000 0.000000 0.000000 0.000000 0.031405
#
#
# Mechanical properties :
#
#
# Convention : Reuss Voigt Hill
#
# Bulk Modulus (GPa) = 62.09384 71.29914 66.69649
# Shear Modulus (GPa) = 12.56634 30.97607 21.77121
#
# Velocity S-wave (km/s) = 2.41805 3.79642 3.18275
# Velocity P-wave (km/s) = 6.05702 7.23821 6.67380
#
# Compressibility (1/GPa) = 0.01610466
#
# Stress axis : x y z
#
# Youngs Moduli (GPa) = 65.36413 102.06171 71.83963
#
# Poissons Ratio (x) = 0.48168 0.16004
# Poissons Ratio (y) = 0.30849 0.32392
# Poissons Ratio (z) = 0.14561 0.46019
#
# Static dielectric constant tensor:
#      x y z
#    x 1.831670 0.000000 0.000000 
#    y 0.000000 1.827940 0.000000 
#    z 0.000000 0.000000 1.946810 
# 
# From -- ./inp_files/23102.got.cif
#   From: 2010.05.17/outbox.cif.g08.bks.cpg/sg73_12_cif.got.tgz:23102.got - 2010.06.03 17:35:07.
