data_PCOD9532559
_publ_section_title
;
Structure prediction by ZEFSAII (Michael W. Deem and Ramdas Pophale) SiO2 
 PCOD9532559
Probable space group: I B C A 
;
_chemical_formula_sum "Si O2"
_cell_formula_units_Z 88
_cell_length_a 5.459614
_cell_length_b 26.272463
_cell_length_c 26.469311
_cell_angle_alpha 90.000000
_cell_angle_beta 90.000000
_cell_angle_gamma 90.000000
_cell_volume 3796.691977
_symmetry_space_group_name_H-M "I B C A "
_symmetry_group_IT_number 73
_symmetry_cell_setting 'orthorhombic'
loop_
_space_group_symop_operation_xyz
x,y,z
-x,1/2-y,z
x,-y,1/2-z
1/2-x,y,-z
-x,-y,-z
x,1/2+y,-z
-x,y,1/2+z
1/2+x,-y,z
1/2+x,1/2+y,1/2+z
1/2-x,-y,1/2+z
1/2+x,1/2-y,-z
-x,1/2+y,1/2-z
1/2-x,1/2-y,1/2-z
1/2+x,y,1/2-z
1/2-x,1/2+y,z
x,1/2-y,1/2+z
loop_
_atom_site_type_symbol
_atom_site_label
_atom_site_fract_x
_atom_site_fract_y
_atom_site_fract_z
Si Si1 0.151152 0.809593 0.223547
Si Si2 0.000795 0.909173 0.967085
Si Si3 0.011647 0.969055 0.864670
Si Si4 0.390577 0.576736 0.234956
Si Si5 0.156073 0.700073 0.942716
Si Si6 0.500000 0.750000 0.367734
O O1 0.883071 0.794641 0.243286
O O2 0.143795 0.870663 0.233458
O O3 0.172142 0.784594 0.168549
O O4 0.999973 0.949206 0.921869
O O5 0.985190 0.853060 0.941669
O O6 0.250000 0.912821 0.000000
O O7 0.750000 0.914669 0.000000
O O8 0.957463 0.923906 0.824321
O O9 0.784193 0.008096 0.857083
O O10 0.125191 0.551919 0.239274
O O11 0.371415 0.707755 0.902659
O O12 0.000000 0.750000 0.933192
O O13 0.250000 0.703936 0.000000
#
# Coordination Sequence:
#
# PCOD9532559 Si02
#       6
#    16  16  16  16  16   8
#     4  10  24  44  64 104 139 188 243 296 357 426
#     4  11  27  49  76 110 152 195 245 309 375 448
#     4  12  27  47  77 112 142 192 250 309 387 450
#     4  10  23  43  69  99 144 185 235 301 365 438
#     4  11  25  45  70 107 152 195 244 293 360 441
#     4  12  26  40  76 100 146 200 244 302 358 430
#
# _framework density 23.178070999999999
#
# number of rings (size 3 to 8) (size 9 to 14) (size 15 to 20)
#    0.000    1.091    0.909    3.273   10.182    5.818 
#    0.000    0.000    0.000    0.000    0.000    0.000 
#    0.000    0.000    0.000    0.000    0.000    0.000 
#
# Total GULP energy -245600.007701 kJ/mol
# GULP energy per Si atom -5581.818357 kJ/mol
# Density = 2.312532 g / cm^3
# Si number density = 23.178071 Si / 1000 Ang^3
#
#
#
# Elastic Constant Matrix: (Units=GPa)
#
#
# Indices 1 2 3 4 5 6 
#
# 1 167.7364 25.2765 42.1313 0.0000 0.0000 0.0000
# 2 25.2765 83.1287 35.9143 0.0000 0.0000 0.0000
# 3 42.1313 35.9143 129.0887 0.0000 0.0000 0.0000
# 4 0.0000 0.0000 0.0000 153.1891 0.0000 0.0000
# 5 0.0000 0.0000 0.0000 0.0000 35.5198 0.0000
# 6 0.0000 0.0000 0.0000 0.0000 0.0000 16.9357
#
#
#
# Elastic Compliance Matrix: (Units=1/GPa)
#
#
# Indices 1 2 3 4 5 6 
#
# 1 0.006602 -0.001224 -0.001814 0.000000 0.000000 0.000000
# 2 -0.001224 0.013900 -0.003468 0.000000 0.000000 0.000000
# 3 -0.001814 -0.003468 0.009304 0.000000 0.000000 0.000000
# 4 0.000000 0.000000 0.000000 0.006528 0.000000 0.000000
# 5 0.000000 0.000000 0.000000 0.000000 0.028153 0.000000
# 6 0.000000 0.000000 0.000000 0.000000 0.000000 0.059047
#
#
# Mechanical properties :
#
#
# Convention : Reuss Voigt Hill
#
# Bulk Modulus (GPa) = 59.54532 65.17755 62.36143
# Shear Modulus (GPa) = 35.17601 59.57103 47.37352
#
# Velocity S-wave (km/s) = 3.89992 5.07516 4.52585
# Velocity P-wave (km/s) = 6.78419 7.90724 7.36715
#
# Compressibility (1/GPa) = 0.01679393
#
# Stress axis : x y z
#
# Youngs Moduli (GPa) = 151.47357 71.94361 107.48619
#
# Poissons Ratio (x) = 0.08803 0.19501
# Poissons Ratio (y) = 0.18534 0.37274
# Poissons Ratio (z) = 0.27481 0.24948
#
# Static dielectric constant tensor:
#      x y z
#    x 1.930950 0.000000 0.000000 
#    y 0.000000 1.905160 0.000000 
#    z 0.000000 0.000000 1.889460 
# 
# From -- ./inp_files/28073.got.cif
#   From: 2010.05.17/outbox.cif.g08.bks.cpg/sg73_15_cif.got.tgz:28073.got - 2010.06.03 17:35:07.
