data_PCOD9532118
_publ_section_title
;
Structure prediction by ZEFSAII (Michael W. Deem and Ramdas Pophale) SiO2 
 PCOD9532118
Probable space group: I B C A 
;
_chemical_formula_sum "Si O2"
_cell_formula_units_Z 120
_cell_length_a 13.178355
_cell_length_b 17.893467
_cell_length_c 17.895696
_cell_angle_alpha 90.000000
_cell_angle_beta 90.000000
_cell_angle_gamma 90.000000
_cell_volume 4219.920728
_symmetry_space_group_name_H-M "I B C A "
_symmetry_group_IT_number 73
_symmetry_cell_setting 'orthorhombic'
loop_
_space_group_symop_operation_xyz
x,y,z
-x,1/2-y,z
x,-y,1/2-z
1/2-x,y,-z
-x,-y,-z
x,1/2+y,-z
-x,y,1/2+z
1/2+x,-y,z
1/2+x,1/2+y,1/2+z
1/2-x,-y,1/2+z
1/2+x,1/2-y,-z
-x,1/2+y,1/2-z
1/2-x,1/2-y,1/2-z
1/2+x,y,1/2-z
1/2-x,1/2+y,z
x,1/2-y,1/2+z
loop_
_atom_site_type_symbol
_atom_site_label
_atom_site_fract_x
_atom_site_fract_y
_atom_site_fract_z
Si Si1 0.152546 0.314475 0.098800
Si Si2 0.980503 0.673713 0.528766
Si Si3 0.951905 0.400591 0.325582
Si Si4 0.650015 0.681703 0.699727
Si Si5 0.250000 0.201210 0.000000
Si Si6 0.093006 0.538530 0.900061
Si Si7 0.645960 0.478909 0.438736
Si Si8 0.175188 0.072460 0.798264
O O1 0.238277 0.258329 0.068278
O O2 0.191609 0.399243 0.090085
O O3 0.874467 0.234658 0.171616
O O4 0.057879 0.315511 0.040558
O O5 0.020519 0.615423 0.588130
O O6 0.861433 0.664162 0.509012
O O7 0.000000 0.750000 0.572548
O O8 0.057351 0.413126 0.283076
O O9 0.895374 0.337285 0.280318
O O10 0.893387 0.478328 0.334272
O O11 0.611024 0.619341 0.638801
O O12 0.764271 0.649486 0.708368
O O13 0.973612 0.536162 0.921439
O O14 0.148839 0.506786 0.975160
O O15 0.683897 0.543094 0.383224
O O16 0.202891 0.000000 0.750000
#
# Coordination Sequence:
#
# PCOD9532118 Si02
#       8
#    16  16  16  16   8  16  16  16
#     4  11  25  47  76 119 153 205 261 338 401 483
#     4  10  23  46  73 108 160 202 259 332 408 473
#     4  11  22  49  73 108 158 210 264 330 395 495
#     4  12  27  45  80 110 157 209 267 318 415 488
#     4  10  24  42  74 108 158 192 254 334 404 470
#     4  10  22  41  76 112 145 210 264 318 391 486
#     4  10  23  44  78 111 153 200 266 326 401 470
#     4  11  25  49  74 110 159 204 268 331 395 496
#
# _framework density 28.436553
#
# number of rings (size 3 to 8) (size 9 to 14) (size 15 to 20)
#    0.000    1.333    1.333    3.600    5.600    2.667 
#    9.600    0.667    0.000    0.800    0.000    0.000 
#    0.000    0.000    0.000    0.000    0.000    0.000 
#
# Total GULP energy -335684.590840 kJ/mol
# GULP energy per Si atom -5594.743181 kJ/mol
# Density = 2.837183 g / cm^3
# Si number density = 28.436553 Si / 1000 Ang^3
#
#
#
# Elastic Constant Matrix: (Units=GPa)
#
#
# Indices 1 2 3 4 5 6 
#
# 1 130.0188 27.4662 57.8124 0.0000 0.0000 0.0000
# 2 27.4662 168.0429 66.1707 0.0000 0.0000 0.0000
# 3 57.8124 66.1707 159.0724 0.0000 0.0000 0.0000
# 4 0.0000 0.0000 0.0000 61.6247 0.0000 0.0000
# 5 0.0000 0.0000 0.0000 0.0000 41.3084 0.0000
# 6 0.0000 0.0000 0.0000 0.0000 0.0000 21.0721
#
#
#
# Elastic Compliance Matrix: (Units=1/GPa)
#
#
# Indices 1 2 3 4 5 6 
#
# 1 0.009181 -0.000223 -0.003244 0.000000 0.000000 0.000000
# 2 -0.000223 0.007122 -0.002881 0.000000 0.000000 0.000000
# 3 -0.003244 -0.002881 0.008664 0.000000 0.000000 0.000000
# 4 0.000000 0.000000 0.000000 0.016227 0.000000 0.000000
# 5 0.000000 0.000000 0.000000 0.000000 0.024208 0.000000
# 6 0.000000 0.000000 0.000000 0.000000 0.000000 0.047456
#
#
# Mechanical properties :
#
#
# Convention : Reuss Voigt Hill
#
# Bulk Modulus (GPa) = 81.50125 84.44808 82.97467
# Shear Modulus (GPa) = 38.56690 45.18001 41.87346
#
# Velocity S-wave (km/s) = 3.68672 3.99030 3.84151
# Velocity P-wave (km/s) = 6.84437 7.14083 6.99417
#
# Compressibility (1/GPa) = 0.01226975
#
# Stress axis : x y z
#
# Youngs Moduli (GPa) = 108.92465 140.41019 115.42104
#
# Poissons Ratio (x) = 0.03135 0.37439
# Poissons Ratio (y) = 0.02432 0.33258
# Poissons Ratio (z) = 0.35332 0.40458
#
# Static dielectric constant tensor:
#      x y z
#    x 2.348120 0.000000 0.000000 
#    y 0.000000 2.321290 0.000000 
#    z 0.000000 0.000000 2.282680 
# 
# From -- ./inp_files/22149.got.cif
#   From: 2010.05.17/outbox.cif.g08.bks.cpg/sg73_12_cif.got.tgz:22149.got - 2010.06.03 17:35:07.
