data_PCOD9532565
_publ_section_title
;
Structure prediction by ZEFSAII (Michael W. Deem and Ramdas Pophale) SiO2 
 PCOD9532565
Probable space group: I B C A 
;
_chemical_formula_sum "Si O2"
_cell_formula_units_Z 88
_cell_length_a 10.609455
_cell_length_b 18.511386
_cell_length_c 19.848881
_cell_angle_alpha 90.000000
_cell_angle_beta 90.000000
_cell_angle_gamma 90.000000
_cell_volume 3898.235211
_symmetry_space_group_name_H-M "I B C A "
_symmetry_group_IT_number 73
_symmetry_cell_setting 'orthorhombic'
loop_
_space_group_symop_operation_xyz
x,y,z
-x,1/2-y,z
x,-y,1/2-z
1/2-x,y,-z
-x,-y,-z
x,1/2+y,-z
-x,y,1/2+z
1/2+x,-y,z
1/2+x,1/2+y,1/2+z
1/2-x,-y,1/2+z
1/2+x,1/2-y,-z
-x,1/2+y,1/2-z
1/2-x,1/2-y,1/2-z
1/2+x,y,1/2-z
1/2-x,1/2+y,z
x,1/2-y,1/2+z
loop_
_atom_site_type_symbol
_atom_site_label
_atom_site_fract_x
_atom_site_fract_y
_atom_site_fract_z
Si Si1 0.085439 0.655715 0.554747
Si Si2 0.426279 0.534311 0.893265
Si Si3 0.500000 0.250000 0.663904
Si Si4 0.661180 0.037294 0.317846
Si Si5 0.353958 0.386200 0.920844
Si Si6 0.516622 0.331162 0.294937
O O1 0.964040 0.608623 0.571727
O O2 0.206603 0.606810 0.568559
O O3 0.095206 0.671698 0.475425
O O4 0.098566 0.718529 0.610152
O O5 0.285776 0.541048 0.863276
O O6 0.541131 0.511135 0.842995
O O7 0.419169 0.461958 0.938215
O O8 0.457671 0.313351 0.715873
O O9 0.603351 0.116699 0.302962
O O10 0.706267 0.000000 0.250000
O O11 0.380999 0.367423 0.843344
O O12 0.500000 0.250000 0.322269
#
# Coordination Sequence:
#
# PCOD9532565 Si02
#       6
#    16  16   8  16  16  16
#     4  11  23  43  67 104 132 187 227 297 341 432
#     4  11  22  41  67 103 134 177 237 288 357 417
#     4  10  24  42  68  98 138 182 240 278 352 418
#     4  11  22  40  68 101 141 185 229 293 354 423
#     4  10  23  43  71  94 144 177 234 287 361 409
#     4   9  23  43  65  98 137 188 225 289 344 429
#
# _framework density 22.574318000000002
#
# number of rings (size 3 to 8) (size 9 to 14) (size 15 to 20)
#    0.545    1.091    1.818    2.182    1.273    3.636 
#    0.000    0.000    0.000    0.000    0.000    0.000 
#    0.000    0.000    0.000    0.000    0.000    0.000 
#
# Total GULP energy -245036.870302 kJ/mol
# GULP energy per Si atom -5569.019780 kJ/mol
# Density = 2.252294 g / cm^3
# Si number density = 22.574318 Si / 1000 Ang^3
#
#
#
# Elastic Constant Matrix: (Units=GPa)
#
#
# Indices 1 2 3 4 5 6 
#
# 1 72.5620 15.4986 32.8224 0.0000 0.0000 0.0000
# 2 15.4986 77.7976 23.3924 0.0000 0.0000 0.0000
# 3 32.8224 23.3924 120.6075 0.0000 0.0000 0.0000
# 4 0.0000 0.0000 0.0000 25.2570 0.0000 0.0000
# 5 0.0000 0.0000 0.0000 0.0000 16.0862 0.0000
# 6 0.0000 0.0000 0.0000 0.0000 0.0000 18.2779
#
#
#
# Elastic Compliance Matrix: (Units=1/GPa)
#
#
# Indices 1 2 3 4 5 6 
#
# 1 0.016002 -0.001995 -0.003968 0.000000 0.000000 0.000000
# 2 -0.001995 0.013899 -0.002153 0.000000 0.000000 0.000000
# 3 -0.003968 -0.002153 0.009789 0.000000 0.000000 0.000000
# 4 0.000000 0.000000 0.000000 0.039593 0.000000 0.000000
# 5 0.000000 0.000000 0.000000 0.000000 0.062165 0.000000
# 6 0.000000 0.000000 0.000000 0.000000 0.000000 0.054711
#
#
# Mechanical properties :
#
#
# Convention : Reuss Voigt Hill
#
# Bulk Modulus (GPa) = 42.62877 46.04380 44.33628
# Shear Modulus (GPa) = 22.70568 25.20780 23.95674
#
# Velocity S-wave (km/s) = 3.17491 3.34527 3.26120
# Velocity P-wave (km/s) = 5.68900 5.94659 5.81922
#
# Compressibility (1/GPa) = 0.02345834
#
# Stress axis : x y z
#
# Youngs Moduli (GPa) = 62.49122 71.94976 102.15788
#
# Poissons Ratio (x) = 0.14353 0.40536
# Poissons Ratio (y) = 0.12466 0.21993
# Poissons Ratio (z) = 0.24796 0.15490
#
# Static dielectric constant tensor:
#      x y z
#    x 1.819150 0.000000 0.000000 
#    y 0.000000 1.908570 0.000000 
#    z 0.000000 0.000000 1.899140 
# 
# From -- ./inp_files/25408.got.cif
#   From: 2010.05.17/outbox.cif.g08.bks.cpg/sg73_13_cif.got.tgz:25408.got - 2010.06.03 17:35:07.
