data_PCOD9532484
_publ_section_title
;
Structure prediction by ZEFSAII (Michael W. Deem and Ramdas Pophale) SiO2 
 PCOD9532484
Probable space group: I B C A 
;
_chemical_formula_sum "Si O2"
_cell_formula_units_Z 104
_cell_length_a 18.450140
_cell_length_b 8.201362
_cell_length_c 30.334586
_cell_angle_alpha 90.000000
_cell_angle_beta 90.000000
_cell_angle_gamma 90.000000
_cell_volume 4590.116621
_symmetry_space_group_name_H-M "I B C A "
_symmetry_group_IT_number 73
_symmetry_cell_setting 'orthorhombic'
loop_
_space_group_symop_operation_xyz
x,y,z
-x,1/2-y,z
x,-y,1/2-z
1/2-x,y,-z
-x,-y,-z
x,1/2+y,-z
-x,y,1/2+z
1/2+x,-y,z
1/2+x,1/2+y,1/2+z
1/2-x,-y,1/2+z
1/2+x,1/2-y,-z
-x,1/2+y,1/2-z
1/2-x,1/2-y,1/2-z
1/2+x,y,1/2-z
1/2-x,1/2+y,z
x,1/2-y,1/2+z
loop_
_atom_site_type_symbol
_atom_site_label
_atom_site_fract_x
_atom_site_fract_y
_atom_site_fract_z
Si Si1 0.500000 0.750000 0.858965
Si Si2 0.719138 0.060371 0.859535
Si Si3 0.423378 0.346600 0.017018
Si Si4 0.845603 0.356842 0.163500
Si Si5 0.923097 0.187303 0.570162
Si Si6 0.011977 0.444108 0.701319
Si Si7 0.153607 0.729128 0.094453
O O1 0.484483 0.584779 0.831514
O O2 0.425195 0.777154 0.885491
O O3 0.667558 0.166860 0.828741
O O4 0.779370 0.167043 0.885902
O O5 0.768384 0.939600 0.831867
O O6 0.671723 0.954542 0.892647
O O7 0.500000 0.250000 0.023054
O O8 0.430294 0.525000 0.039421
O O9 0.358828 0.259399 0.043304
O O10 0.404847 0.328364 0.965400
O O11 0.872192 0.352287 0.111775
O O12 0.901724 0.449652 0.193372
O O13 0.000000 0.250000 0.588911
O O14 0.991034 0.500000 0.750000
O O15 0.000000 0.250000 0.693733
#
# Coordination Sequence:
#
# PCOD9532484 Si02
#       7
#     8  16  16  16  16  16  16
#     4  12  22  44  76 100 134 178 228 268 340 398
#     4  10  23  41  66  93 135 175 223 273 327 403
#     4  11  22  37  58  91 127 165 225 276 325 381
#     4  11  23  44  66  92 130 177 223 264 340 402
#     4  11  23  38  60  92 129 167 220 277 329 388
#     4  12  25  44  70 107 136 164 216 282 340 403
#     4  11  22  41  68  95 130 181 220 274 329 395
#
# _framework density 22.657377
#
# number of rings (size 3 to 8) (size 9 to 14) (size 15 to 20)
#    0.000    0.923    4.615    3.231    4.308    0.000 
#    0.000    5.385    0.000    0.000    0.000    0.000 
#    0.000    0.000    0.000    0.000    0.000    0.000 
#
# Total GULP energy -290177.255473 kJ/mol
# GULP energy per Si atom -5580.331836 kJ/mol
# Density = 2.260581 g / cm^3
# Si number density = 22.657377 Si / 1000 Ang^3
#
#
#
# Elastic Constant Matrix: (Units=GPa)
#
#
# Indices 1 2 3 4 5 6 
#
# 1 46.8579 5.8749 4.5138 0.0000 0.0000 0.0000
# 2 5.8749 106.2282 8.6388 0.0000 0.0000 0.0000
# 3 4.5138 8.6388 50.7279 0.0000 0.0000 0.0000
# 4 0.0000 0.0000 0.0000 24.8500 0.0000 0.0000
# 5 0.0000 0.0000 0.0000 0.0000 7.4112 0.0000
# 6 0.0000 0.0000 0.0000 0.0000 0.0000 52.7364
#
#
#
# Elastic Compliance Matrix: (Units=1/GPa)
#
#
# Indices 1 2 3 4 5 6 
#
# 1 0.021642 -0.001055 -0.001746 0.000000 0.000000 0.000000
# 2 -0.001055 0.009597 -0.001541 0.000000 0.000000 0.000000
# 3 -0.001746 -0.001541 0.020131 0.000000 0.000000 0.000000
# 4 0.000000 0.000000 0.000000 0.040241 0.000000 0.000000
# 5 0.000000 0.000000 0.000000 0.000000 0.134932 0.000000
# 6 0.000000 0.000000 0.000000 0.000000 0.000000 0.018962
#
#
# Mechanical properties :
#
#
# Convention : Reuss Voigt Hill
#
# Bulk Modulus (GPa) = 23.42650 26.87433 25.15041
# Shear Modulus (GPa) = 18.62776 29.31861 23.97318
#
# Velocity S-wave (km/s) = 2.87043 3.60112 3.25633
# Velocity P-wave (km/s) = 4.62036 5.40164 5.02620
#
# Compressibility (1/GPa) = 0.04268670
#
# Stress axis : x y z
#
# Youngs Moduli (GPa) = 46.20737 104.19579 49.67531
#
# Poissons Ratio (x) = 0.10991 0.08674
# Poissons Ratio (y) = 0.04874 0.07653
# Poissons Ratio (z) = 0.08068 0.16052
#
# Static dielectric constant tensor:
#      x y z
#    x 1.841960 0.000000 0.000000 
#    y 0.000000 1.945020 0.000000 
#    z 0.000000 0.000000 1.825820 
# 
# From -- ./inp_files/34678.got.cif
#   From: 2010.05.17/outbox.cif.g08.bks.cpg/sg73_18_cif.got.tgz:34678.got - 2010.06.03 17:35:07.
