data_PCOD9532073
_publ_section_title
;
Structure prediction by ZEFSAII (Michael W. Deem and Ramdas Pophale) SiO2 
 PCOD9532073
Probable space group: I B C A 
;
_chemical_formula_sum "Si O2"
_cell_formula_units_Z 96
_cell_length_a 14.487728
_cell_length_b 13.844190
_cell_length_c 19.162390
_cell_angle_alpha 90.000000
_cell_angle_beta 90.000000
_cell_angle_gamma 90.000000
_cell_volume 3843.417025
_symmetry_space_group_name_H-M "I B C A "
_symmetry_group_IT_number 73
_symmetry_cell_setting 'orthorhombic'
loop_
_space_group_symop_operation_xyz
x,y,z
-x,1/2-y,z
x,-y,1/2-z
1/2-x,y,-z
-x,-y,-z
x,1/2+y,-z
-x,y,1/2+z
1/2+x,-y,z
1/2+x,1/2+y,1/2+z
1/2-x,-y,1/2+z
1/2+x,1/2-y,-z
-x,1/2+y,1/2-z
1/2-x,1/2-y,1/2-z
1/2+x,y,1/2-z
1/2-x,1/2+y,z
x,1/2-y,1/2+z
loop_
_atom_site_type_symbol
_atom_site_label
_atom_site_fract_x
_atom_site_fract_y
_atom_site_fract_z
Si Si1 0.372374 0.632854 0.564748
Si Si2 0.516019 0.961996 0.682945
Si Si3 0.404086 0.193365 0.739743
Si Si4 0.747034 0.942126 0.076063
Si Si5 0.750196 0.744043 0.651621
Si Si6 0.058963 0.946337 0.060921
O O1 0.446602 0.616312 0.626739
O O2 0.315278 0.532804 0.570317
O O3 0.302304 0.715246 0.584895
O O4 0.408982 0.643396 0.485984
O O5 0.432648 0.905864 0.722244
O O6 0.573893 0.000000 0.750000
O O7 0.496831 0.054021 0.632745
O O8 0.500000 0.250000 0.730456
O O9 0.339413 0.192549 0.671250
O O10 0.330738 0.247704 0.790202
O O11 0.773204 0.866981 0.135669
O O12 0.645206 0.986642 0.082437
O O13 0.750000 0.894237 0.000000
O O14 0.000000 0.000000 0.000000
#
# Coordination Sequence:
#
# PCOD9532073 Si02
#       6
#    16  16  16  16  16  16
#     4  10  23  42  69  97 139 185 232 290 357 426
#     4  11  23  40  69  99 137 180 231 292 361 416
#     4  11  24  42  63 100 142 180 237 293 357 440
#     4  10  22  41  63  96 136 176 238 291 352 425
#     4  11  24  42  70  98 141 186 233 297 365 426
#     4   9  20  42  66  95 134 180 231 289 345 429
#
# _framework density 24.977772999999999
#
# number of rings (size 3 to 8) (size 9 to 14) (size 15 to 20)
#    0.000    1.667    3.333    0.000    4.667    2.000 
#    0.000    0.000    0.000    3.000    0.000    0.000 
#    0.000    0.000    0.000    0.000    0.000    0.000 
#
# Total GULP energy -267803.330885 kJ/mol
# GULP energy per Si atom -5579.236060 kJ/mol
# Density = 2.492092 g / cm^3
# Si number density = 24.977773 Si / 1000 Ang^3
#
#
#
# Elastic Constant Matrix: (Units=GPa)
#
#
# Indices 1 2 3 4 5 6 
#
# 1 99.1972 15.8569 21.4177 0.0000 0.0000 0.0000
# 2 15.8569 47.1042 8.5853 0.0000 0.0000 0.0000
# 3 21.4177 8.5853 145.2609 0.0000 0.0000 0.0000
# 4 0.0000 0.0000 0.0000 39.5145 0.0000 0.0000
# 5 0.0000 0.0000 0.0000 0.0000 34.1961 0.0000
# 6 0.0000 0.0000 0.0000 0.0000 0.0000 23.0239
#
#
#
# Elastic Compliance Matrix: (Units=1/GPa)
#
#
# Indices 1 2 3 4 5 6 
#
# 1 0.010933 -0.003423 -0.001410 0.000000 0.000000 0.000000
# 2 -0.003423 0.022533 -0.000827 0.000000 0.000000 0.000000
# 3 -0.001410 -0.000827 0.007141 0.000000 0.000000 0.000000
# 4 0.000000 0.000000 0.000000 0.025307 0.000000 0.000000
# 5 0.000000 0.000000 0.000000 0.000000 0.029243 0.000000
# 6 0.000000 0.000000 0.000000 0.000000 0.000000 0.043433
#
#
# Mechanical properties :
#
#
# Convention : Reuss Voigt Hill
#
# Bulk Modulus (GPa) = 34.14579 42.58691 38.36635
# Shear Modulus (GPa) = 31.31431 35.72706 33.52069
#
# Velocity S-wave (km/s) = 3.54459 3.78611 3.66733
# Velocity P-wave (km/s) = 5.51836 6.01662 5.77287
#
# Compressibility (1/GPa) = 0.02928619
#
# Stress axis : x y z
#
# Youngs Moduli (GPa) = 91.47038 44.38002 140.03884
#
# Poissons Ratio (x) = 0.15193 0.19740
# Poissons Ratio (y) = 0.31313 0.11581
# Poissons Ratio (z) = 0.12894 0.03670
#
# Static dielectric constant tensor:
#      x y z
#    x 2.079040 0.000000 0.000000 
#    y 0.000000 1.999190 0.000000 
#    z 0.000000 0.000000 2.125390 
# 
# From -- ./inp_files/26007.got.cif
#   From: 2010.05.17/outbox.cif.g08.bks.cpg/sg73_14_cif.got.tgz:26007.got - 2010.06.03 17:35:07.
