data_PCOD9532305
_publ_section_title
;
Structure prediction by ZEFSAII (Michael W. Deem and Ramdas Pophale) SiO2 
 PCOD9532305
Probable space group: I B C A 
;
_chemical_formula_sum "Si O2"
_cell_formula_units_Z 80
_cell_length_a 12.432501
_cell_length_b 13.304322
_cell_length_c 24.426089
_cell_angle_alpha 90.000000
_cell_angle_beta 90.000000
_cell_angle_gamma 90.000000
_cell_volume 4040.221593
_symmetry_space_group_name_H-M "I B C A "
_symmetry_group_IT_number 73
_symmetry_cell_setting 'orthorhombic'
loop_
_space_group_symop_operation_xyz
x,y,z
-x,1/2-y,z
x,-y,1/2-z
1/2-x,y,-z
-x,-y,-z
x,1/2+y,-z
-x,y,1/2+z
1/2+x,-y,z
1/2+x,1/2+y,1/2+z
1/2-x,-y,1/2+z
1/2+x,1/2-y,-z
-x,1/2+y,1/2-z
1/2-x,1/2-y,1/2-z
1/2+x,y,1/2-z
1/2-x,1/2+y,z
x,1/2-y,1/2+z
loop_
_atom_site_type_symbol
_atom_site_label
_atom_site_fract_x
_atom_site_fract_y
_atom_site_fract_z
Si Si1 0.369523 0.539835 0.099109
Si Si2 0.437223 0.156351 0.454889
Si Si3 0.000000 0.250000 0.240955
Si Si4 0.674844 0.754566 0.151776
Si Si5 0.250000 0.469087 0.000000
Si Si6 0.585728 0.672539 0.845084
O O1 0.474138 0.579422 0.067099
O O2 0.339904 0.626348 0.142371
O O3 0.273126 0.530975 0.054926
O O4 0.396417 0.433347 0.126023
O O5 0.500000 0.250000 0.481010
O O6 0.372935 0.201744 0.402764
O O7 0.353371 0.101067 0.492959
O O8 0.099229 0.277540 0.202051
O O9 0.037710 0.164004 0.283502
O O10 0.798041 0.724925 0.158794
O O11 0.500000 0.750000 0.872319
#
# Coordination Sequence:
#
# PCOD9532305 Si02
#       6
#    16  16   8  16   8  16
#     4  11  24  43  67  97 133 174 222 279 333 400
#     4  10  23  43  66  93 136 177 217 283 332 398
#     4  10  22  44  70  92 130 174 218 272 344 390
#     4  11  21  47  65  93 140 170 219 279 339 398
#     4  12  24  40  68  98 130 182 232 264 352 394
#     4  10  25  40  68 101 131 169 223 276 329 410
#
# _framework density 19.800894
#
# number of rings (size 3 to 8) (size 9 to 14) (size 15 to 20)
#    0.600    0.800    5.000    1.200    2.800    4.800 
#    0.000    0.000    0.000    0.000    0.000    0.000 
#    0.000    0.000    0.000    0.000    0.000    0.000 
#
# Total GULP energy -223241.974700 kJ/mol
# GULP energy per Si atom -5581.049367 kJ/mol
# Density = 1.975583 g / cm^3
# Si number density = 19.800894 Si / 1000 Ang^3
#
#
#
# Elastic Constant Matrix: (Units=GPa)
#
#
# Indices 1 2 3 4 5 6 
#
# 1 138.7032 53.7530 12.8801 0.0000 0.0000 0.0000
# 2 53.7530 102.5043 23.4526 0.0000 0.0000 0.0000
# 3 12.8801 23.4526 54.5901 0.0000 0.0000 0.0000
# 4 0.0000 0.0000 0.0000 33.7269 0.0000 0.0000
# 5 0.0000 0.0000 0.0000 0.0000 34.8105 0.0000
# 6 0.0000 0.0000 0.0000 0.0000 0.0000 26.5006
#
#
#
# Elastic Compliance Matrix: (Units=1/GPa)
#
#
# Indices 1 2 3 4 5 6 
#
# 1 0.009049 -0.004721 -0.000107 0.000000 0.000000 0.000000
# 2 -0.004721 0.013282 -0.004592 0.000000 0.000000 0.000000
# 3 -0.000107 -0.004592 0.020316 0.000000 0.000000 0.000000
# 4 0.000000 0.000000 0.000000 0.029650 0.000000 0.000000
# 5 0.000000 0.000000 0.000000 0.000000 0.028727 0.000000
# 6 0.000000 0.000000 0.000000 0.000000 0.000000 0.037735
#
#
# Mechanical properties :
#
#
# Convention : Reuss Voigt Hill
#
# Bulk Modulus (GPa) = 42.00364 52.88544 47.44454
# Shear Modulus (GPa) = 30.20505 32.72173 31.46339
#
# Velocity S-wave (km/s) = 3.90992 4.06955 3.99054
# Velocity P-wave (km/s) = 6.45309 6.98915 6.72646
#
# Compressibility (1/GPa) = 0.02380746
#
# Stress axis : x y z
#
# Youngs Moduli (GPa) = 110.50832 75.28991 49.22121
#
# Poissons Ratio (x) = 0.35543 0.00526
# Poissons Ratio (y) = 0.52169 0.22604
# Poissons Ratio (z) = 0.01182 0.34575
#
# Static dielectric constant tensor:
#      x y z
#    x 1.685070 0.000000 0.000000 
#    y 0.000000 1.679100 0.000000 
#    z 0.000000 0.000000 1.722940 
# 
# From -- ./inp_files/33843.got.cif
#   From: 2010.05.17/outbox.cif.g08.bks.cpg/sg73_17_cif.got.tgz:33843.got - 2010.06.03 17:35:07.
