data_PCOD9532040
_publ_section_title
;
Structure prediction by ZEFSAII (Michael W. Deem and Ramdas Pophale) SiO2 
 PCOD9532040
Probable space group: I B C A 
;
_chemical_formula_sum "Si O2"
_cell_formula_units_Z 120
_cell_length_a 22.272549
_cell_length_b 28.309298
_cell_length_c 7.952497
_cell_angle_alpha 90.000000
_cell_angle_beta 90.000000
_cell_angle_gamma 90.000000
_cell_volume 5014.210213
_symmetry_space_group_name_H-M "I B C A "
_symmetry_group_IT_number 73
_symmetry_cell_setting 'orthorhombic'
loop_
_space_group_symop_operation_xyz
x,y,z
-x,1/2-y,z
x,-y,1/2-z
1/2-x,y,-z
-x,-y,-z
x,1/2+y,-z
-x,y,1/2+z
1/2+x,-y,z
1/2+x,1/2+y,1/2+z
1/2-x,-y,1/2+z
1/2+x,1/2-y,-z
-x,1/2+y,1/2-z
1/2-x,1/2-y,1/2-z
1/2+x,y,1/2-z
1/2-x,1/2+y,z
x,1/2-y,1/2+z
loop_
_atom_site_type_symbol
_atom_site_label
_atom_site_fract_x
_atom_site_fract_y
_atom_site_fract_z
Si Si1 0.092421 0.266604 0.984308
Si Si2 0.454947 0.354904 0.833694
Si Si3 0.415256 0.174010 0.856915
Si Si4 0.843934 0.869733 0.116140
Si Si5 0.515824 0.000000 0.250000
Si Si6 0.213153 0.289470 0.152276
Si Si7 0.078763 0.554700 0.483168
Si Si8 0.290819 0.951919 0.162286
O O1 0.093197 0.292955 0.806438
O O2 0.059152 0.301628 0.112509
O O3 0.069131 0.213294 0.997602
O O4 0.159650 0.264070 0.053470
O O5 0.526104 0.357366 0.823937
O O6 0.413435 0.373275 0.681029
O O7 0.428523 0.389267 0.976054
O O8 0.357009 0.144823 0.922649
O O9 0.814140 0.826340 0.216515
O O10 0.805854 0.913936 0.187916
O O11 0.560532 0.964269 0.338692
O O12 0.471625 0.030829 0.364966
O O13 0.250000 0.250000 0.250000
O O14 0.250000 0.313430 0.000000
O O15 0.143564 0.539536 0.418863
O O16 0.268024 0.000000 0.250000
O O17 0.250000 0.937694 0.000000
#
# Coordination Sequence:
#
# PCOD9532040 Si02
#       8
#    16  16  16  16   8  16  16  16
#     4  11  24  40  59 102 132 183 234 290 350 424
#     4  10  23  39  64  96 141 186 226 282 354 430
#     4  12  23  40  66  95 144 179 231 289 357 433
#     4  10  24  44  67  98 133 181 237 292 355 431
#     4  10  22  40  70 104 148 184 236 298 366 430
#     4  11  22  41  66  88 129 178 231 289 348 406
#     4  10  23  42  69 107 143 186 240 294 365 434
#     4  11  25  49  74 103 145 188 243 309 369 448
#
# _framework density 23.931985999999998
#
# number of rings (size 3 to 8) (size 9 to 14) (size 15 to 20)
#    0.000    1.333    0.667    4.800    6.533    1.067 
#    0.000    4.667    0.000    0.000    0.000    0.000 
#    0.000    0.000    0.000    0.000    0.000    0.000 
#
# Total GULP energy -335253.971302 kJ/mol
# GULP energy per Si atom -5587.566188 kJ/mol
# Density = 2.387752 g / cm^3
# Si number density = 23.931986 Si / 1000 Ang^3
#
#
#
# Elastic Constant Matrix: (Units=GPa)
#
#
# Indices 1 2 3 4 5 6 
#
# 1 58.8204 -1.3600 21.6529 0.0000 0.0000 0.0000
# 2 -1.3600 83.4326 7.3386 0.0000 0.0000 0.0000
# 3 21.6529 7.3386 79.0785 0.0000 0.0000 0.0000
# 4 0.0000 0.0000 0.0000 31.4500 0.0000 0.0000
# 5 0.0000 0.0000 0.0000 0.0000 13.6387 0.0000
# 6 0.0000 0.0000 0.0000 0.0000 0.0000 15.4223
#
#
#
# Elastic Compliance Matrix: (Units=1/GPa)
#
#
# Indices 1 2 3 4 5 6 
#
# 1 0.018956 0.000772 -0.005262 0.000000 0.000000 0.000000
# 2 0.000772 0.012116 -0.001336 0.000000 0.000000 0.000000
# 3 -0.005262 -0.001336 0.014210 0.000000 0.000000 0.000000
# 4 0.000000 0.000000 0.000000 0.031797 0.000000 0.000000
# 5 0.000000 0.000000 0.000000 0.000000 0.073321 0.000000
# 6 0.000000 0.000000 0.000000 0.000000 0.000000 0.064841
#
#
# Mechanical properties :
#
#
# Convention : Reuss Voigt Hill
#
# Bulk Modulus (GPa) = 29.73514 30.73273 30.23393
# Shear Modulus (GPa) = 20.99940 25.01555 23.00747
#
# Velocity S-wave (km/s) = 2.96541 3.23658 3.10396
# Velocity P-wave (km/s) = 4.91698 5.18043 5.05042
#
# Compressibility (1/GPa) = 0.03363025
#
# Stress axis : x y z
#
# Youngs Moduli (GPa) = 52.75424 82.53695 70.37078
#
# Poissons Ratio (x) = -0.06370 0.37029
# Poissons Ratio (y) = -0.04072 0.09399
# Poissons Ratio (z) = 0.27759 0.11024
#
# Static dielectric constant tensor:
#      x y z
#    x 1.945140 0.000000 0.000000 
#    y 0.000000 1.922920 0.000000 
#    z 0.000000 0.000000 2.058270 
# 
# From -- ./inp_files/7488.got.cif
#   From: 2010.05.17/outbox.cif.g08.bks.cpg/sg73_4_cif.got.tgz:7488.got - 2010.06.03 17:35:07.
