data_PCOD9532933
_publ_section_title
;
Structure prediction by ZEFSAII (Michael W. Deem and Ramdas Pophale) SiO2 
 PCOD9532933
Probable space group: I B C A 
;
_chemical_formula_sum "Si O2"
_cell_formula_units_Z 64
_cell_length_a 16.156496
_cell_length_b 16.438499
_cell_length_c 9.900776
_cell_angle_alpha 90.000000
_cell_angle_beta 90.000000
_cell_angle_gamma 90.000000
_cell_volume 2629.532676
_symmetry_space_group_name_H-M "I B C A "
_symmetry_group_IT_number 73
_symmetry_cell_setting 'orthorhombic'
loop_
_space_group_symop_operation_xyz
x,y,z
-x,1/2-y,z
x,-y,1/2-z
1/2-x,y,-z
-x,-y,-z
x,1/2+y,-z
-x,y,1/2+z
1/2+x,-y,z
1/2+x,1/2+y,1/2+z
1/2-x,-y,1/2+z
1/2+x,1/2-y,-z
-x,1/2+y,1/2-z
1/2-x,1/2-y,1/2-z
1/2+x,y,1/2-z
1/2-x,1/2+y,z
x,1/2-y,1/2+z
loop_
_atom_site_type_symbol
_atom_site_label
_atom_site_fract_x
_atom_site_fract_y
_atom_site_fract_z
Si Si1 0.587516 0.274018 0.099581
Si Si2 0.087838 0.953228 0.505325
Si Si3 0.750000 0.444701 0.500000
Si Si4 0.250000 0.712054 0.000000
Si Si5 0.833031 0.638049 0.261522
O O1 0.500000 0.250000 0.042675
O O2 0.662543 0.246373 0.003778
O O3 0.584149 0.371934 0.097927
O O4 0.609489 0.215793 0.224869
O O5 0.168945 0.004515 0.547651
O O6 0.210979 0.101199 0.370105
O O7 0.111813 0.921560 0.353946
O O8 0.000000 0.000000 0.500000
O O9 0.241625 0.663577 0.861226
#
# Coordination Sequence:
#
# PCOD9532933 Si02
#       5
#    16  16   8   8  16
#     4  11  24  44  73 107 149 200 258 318 383 466
#     4  11  26  49  75 113 159 208 262 327 401 474
#     4  12  26  48  78 112 156 206 266 336 402 466
#     4  10  24  46  72 106 150 198 258 322 384 456
#     4  11  25  47  75 110 151 206 265 323 398 476
#
# _framework density 24.338926000000001
#
# number of rings (size 3 to 8) (size 9 to 14) (size 15 to 20)
#    0.000    1.000    0.000    6.750    0.000    8.000 
#    0.000   12.500    0.000    1.500    0.000    0.000 
#    0.000    0.000    0.000    0.000    0.000    0.000 
#
# Total GULP energy -178388.134594 kJ/mol
# GULP energy per Si atom -5574.629206 kJ/mol
# Density = 2.428353 g / cm^3
# Si number density = 24.338926 Si / 1000 Ang^3
#
#
#
# Elastic Constant Matrix: (Units=GPa)
#
#
# Indices 1 2 3 4 5 6 
#
# 1 250.1012 87.6179 44.8250 0.0000 0.0000 0.0000
# 2 87.6179 146.6718 64.6062 0.0000 0.0000 0.0000
# 3 44.8250 64.6062 109.2102 0.0000 0.0000 0.0000
# 4 0.0000 0.0000 0.0000 37.6090 0.0000 0.0000
# 5 0.0000 0.0000 0.0000 0.0000 35.8527 0.0000
# 6 0.0000 0.0000 0.0000 0.0000 0.0000 82.4726
#
#
#
# Elastic Compliance Matrix: (Units=1/GPa)
#
#
# Indices 1 2 3 4 5 6 
#
# 1 0.005069 -0.002856 -0.000391 0.000000 0.000000 0.000000
# 2 -0.002856 0.010830 -0.005234 0.000000 0.000000 0.000000
# 3 -0.000391 -0.005234 0.012414 0.000000 0.000000 0.000000
# 4 0.000000 0.000000 0.000000 0.026589 0.000000 0.000000
# 5 0.000000 0.000000 0.000000 0.000000 0.027892 0.000000
# 6 0.000000 0.000000 0.000000 0.000000 0.000000 0.012125
#
#
# Mechanical properties :
#
#
# Convention : Reuss Voigt Hill
#
# Bulk Modulus (GPa) = 88.10816 100.00905 94.05860
# Shear Modulus (GPa) = 43.22846 51.78246 47.50546
#
# Velocity S-wave (km/s) = 4.21896 4.61755 4.42275
# Velocity P-wave (km/s) = 7.74673 8.34316 8.05047
#
# Compressibility (1/GPa) = 0.01134969
#
# Stress axis : x y z
#
# Youngs Moduli (GPa) = 197.27972 92.33991 80.55596
#
# Poissons Ratio (x) = 0.26370 0.03151
# Poissons Ratio (y) = 0.56339 0.42166
# Poissons Ratio (z) = 0.07716 0.48334
#
# Static dielectric constant tensor:
#      x y z
#    x 1.964810 0.000000 0.000000 
#    y 0.000000 2.147400 0.000000 
#    z 0.000000 0.000000 1.995090 
# 
# From -- ./inp_files/9513.got.cif
#   From: 2010.05.17/outbox.cif.g08.bks.cpg/sg73_5_cif.got.tgz:9513.got - 2010.06.03 17:35:07.
