data_PCOD9532886
_publ_section_title
;
Structure prediction by ZEFSAII (Michael W. Deem and Ramdas Pophale) SiO2 
 PCOD9532886
Probable space group: I B C A 
;
_chemical_formula_sum "Si O2"
_cell_formula_units_Z 120
_cell_length_a 28.398362
_cell_length_b 8.695524
_cell_length_c 22.468556
_cell_angle_alpha 90.000000
_cell_angle_beta 90.000000
_cell_angle_gamma 90.000000
_cell_volume 5548.354624
_symmetry_space_group_name_H-M "I B C A "
_symmetry_group_IT_number 73
_symmetry_cell_setting 'orthorhombic'
loop_
_space_group_symop_operation_xyz
x,y,z
-x,1/2-y,z
x,-y,1/2-z
1/2-x,y,-z
-x,-y,-z
x,1/2+y,-z
-x,y,1/2+z
1/2+x,-y,z
1/2+x,1/2+y,1/2+z
1/2-x,-y,1/2+z
1/2+x,1/2-y,-z
-x,1/2+y,1/2-z
1/2-x,1/2-y,1/2-z
1/2+x,y,1/2-z
1/2-x,1/2+y,z
x,1/2-y,1/2+z
loop_
_atom_site_type_symbol
_atom_site_label
_atom_site_fract_x
_atom_site_fract_y
_atom_site_fract_z
Si Si1 0.597244 0.858720 0.526227
Si Si2 0.750000 0.760487 0.000000
Si Si3 0.195450 0.940127 0.682788
Si Si4 0.841238 0.071282 0.550020
Si Si5 0.909781 0.560237 0.639962
Si Si6 0.782201 0.882464 0.625125
Si Si7 0.546904 0.650033 0.903816
Si Si8 0.004722 0.566608 0.811867
O O1 0.616785 0.696482 0.550006
O O2 0.559398 0.857285 0.473251
O O3 0.641301 0.939265 0.494136
O O4 0.581069 0.967554 0.579128
O O5 0.705326 0.856223 0.022143
O O6 0.767665 0.675114 0.059249
O O7 0.142729 0.977301 0.660635
O O8 0.204652 0.760255 0.667595
O O9 0.198590 0.000000 0.750000
O O10 0.236636 0.029354 0.648624
O O11 0.825616 0.998618 0.612733
O O12 0.913698 0.741867 0.626484
O O13 0.952424 0.506990 0.681655
O O14 0.500000 0.750000 0.897319
O O15 0.535942 0.495878 0.867175
O O16 0.024747 0.500000 0.750000
O O17 0.000000 0.750000 0.811296
#
# Coordination Sequence:
#
# PCOD9532886 Si02
#       8
#    16   8  16  16  16  16  16  16
#     4  12  24  41  64 104 145 177 229 296 370 443
#     4  12  22  38  66  96 134 170 232 290 362 418
#     4  12  27  48  69  99 143 197 244 302 368 437
#     4  12  24  37  65  98 139 183 227 290 363 437
#     4  11  24  44  71 100 141 189 237 301 372 437
#     4  12  25  42  69 101 139 188 246 301 368 443
#     4  10  24  45  71 102 142 184 227 296 375 444
#     4  11  25  47  75 103 136 189 251 303 364 447
#
# _framework density 21.628032999999999
#
# number of rings (size 3 to 8) (size 9 to 14) (size 15 to 20)
#    0.000    0.533    4.000    4.800    1.867    2.667 
#    0.000    0.000    0.000    3.200    0.000    0.000 
#    0.000    0.000    0.000    0.000    0.000    0.000 
#
# Total GULP energy -335454.420270 kJ/mol
# GULP energy per Si atom -5590.907004 kJ/mol
# Density = 2.157881 g / cm^3
# Si number density = 21.628033 Si / 1000 Ang^3
#
#
#
# Elastic Constant Matrix: (Units=GPa)
#
#
# Indices 1 2 3 4 5 6 
#
# 1 51.9020 32.6958 37.9459 0.0000 0.0000 0.0000
# 2 32.6958 132.0106 54.9636 0.0000 0.0000 0.0000
# 3 37.9459 54.9636 109.2240 0.0000 0.0000 0.0000
# 4 0.0000 0.0000 0.0000 25.6118 0.0000 0.0000
# 5 0.0000 0.0000 0.0000 0.0000 30.6498 0.0000
# 6 0.0000 0.0000 0.0000 0.0000 0.0000 33.6231
#
#
#
# Elastic Compliance Matrix: (Units=1/GPa)
#
#
# Indices 1 2 3 4 5 6 
#
# 1 0.027066 -0.003528 -0.007628 0.000000 0.000000 0.000000
# 2 -0.003528 0.010043 -0.003828 0.000000 0.000000 0.000000
# 3 -0.007628 -0.003828 0.013732 0.000000 0.000000 0.000000
# 4 0.000000 0.000000 0.000000 0.039045 0.000000 0.000000
# 5 0.000000 0.000000 0.000000 0.000000 0.032627 0.000000
# 6 0.000000 0.000000 0.000000 0.000000 0.000000 0.029741
#
#
# Mechanical properties :
#
#
# Convention : Reuss Voigt Hill
#
# Bulk Modulus (GPa) = 47.90806 60.48303 54.19554
# Shear Modulus (GPa) = 26.43001 29.14569 27.78785
#
# Velocity S-wave (km/s) = 3.49954 3.67493 3.58831
# Velocity P-wave (km/s) = 6.20710 6.78474 6.50233
#
# Compressibility (1/GPa) = 0.02087331
#
# Stress axis : x y z
#
# Youngs Moduli (GPa) = 36.94645 99.57446 72.82281
#
# Poissons Ratio (x) = 0.35127 0.55549
# Poissons Ratio (y) = 0.13033 0.27878
# Poissons Ratio (z) = 0.28183 0.38118
#
# Static dielectric constant tensor:
#      x y z
#    x 1.832140 0.000000 0.000000 
#    y 0.000000 1.854920 0.000000 
#    z 0.000000 0.000000 1.776780 
# 
# From -- ./inp_files/30542.got.cif
#   From: 2010.05.17/outbox.cif.g08.bks.cpg/sg73_16_cif.got.tgz:30542.got - 2010.06.03 17:35:07.
