data_PCOD9532535
_publ_section_title
;
Structure prediction by ZEFSAII (Michael W. Deem and Ramdas Pophale) SiO2 
 PCOD9532535
Probable space group: I B C A 
;
_chemical_formula_sum "Si O2"
_cell_formula_units_Z 64
_cell_length_a 17.917467
_cell_length_b 17.472943
_cell_length_c 9.708420
_cell_angle_alpha 90.000000
_cell_angle_beta 90.000000
_cell_angle_gamma 90.000000
_cell_volume 3039.423589
_symmetry_space_group_name_H-M "I B C A "
_symmetry_group_IT_number 73
_symmetry_cell_setting 'orthorhombic'
loop_
_space_group_symop_operation_xyz
x,y,z
-x,1/2-y,z
x,-y,1/2-z
1/2-x,y,-z
-x,-y,-z
x,1/2+y,-z
-x,y,1/2+z
1/2+x,-y,z
1/2+x,1/2+y,1/2+z
1/2-x,-y,1/2+z
1/2+x,1/2-y,-z
-x,1/2+y,1/2-z
1/2-x,1/2-y,1/2-z
1/2+x,y,1/2-z
1/2-x,1/2+y,z
x,1/2-y,1/2+z
loop_
_atom_site_type_symbol
_atom_site_label
_atom_site_fract_x
_atom_site_fract_y
_atom_site_fract_z
Si Si1 0.809731 0.500000 0.750000
Si Si2 0.826466 0.276001 0.172632
Si Si3 0.583927 0.623678 0.120501
Si Si4 0.250000 0.898168 0.500000
Si Si5 0.964351 0.830450 0.653115
O O1 0.861765 0.557032 0.834996
O O2 0.766907 0.550082 0.634195
O O3 0.750000 0.250000 0.250000
O O4 0.866355 0.200777 0.113727
O O5 0.812540 0.338228 0.052863
O O6 0.884627 0.312263 0.279660
O O7 0.520521 0.637604 0.233487
O O8 0.546048 0.613221 0.973575
O O9 0.000000 0.750000 0.602382
#
# Coordination Sequence:
#
# PCOD9532535 Si02
#       5
#     8  16  16   8  16
#     4  12  30  46  70 108 156 186 236 304 380 436
#     4  11  22  44  77 101 134 190 249 299 345 433
#     4  11  25  45  70 103 143 186 237 292 366 427
#     4  12  28  48  70 110 146 190 248 300 366 432
#     4  10  23  42  71 103 138 182 241 298 346 427
#
# _framework density 21.056625
#
# number of rings (size 3 to 8) (size 9 to 14) (size 15 to 20)
#    0.000    1.000    2.500    3.750   10.500    2.000 
#    0.000    0.000    0.000    0.000    0.000    0.000 
#    0.000    0.000    0.000    0.000    0.000    0.000 
#
# Total GULP energy -178971.241467 kJ/mol
# GULP energy per Si atom -5592.851296 kJ/mol
# Density = 2.100870 g / cm^3
# Si number density = 21.056625 Si / 1000 Ang^3
#
#
#
# Elastic Constant Matrix: (Units=GPa)
#
#
# Indices 1 2 3 4 5 6 
#
# 1 94.0835 32.1442 36.4875 0.0000 0.0000 0.0000
# 2 32.1442 95.4026 58.7222 0.0000 0.0000 0.0000
# 3 36.4875 58.7222 90.9274 0.0000 0.0000 0.0000
# 4 0.0000 0.0000 0.0000 41.6900 0.0000 0.0000
# 5 0.0000 0.0000 0.0000 0.0000 26.2613 0.0000
# 6 0.0000 0.0000 0.0000 0.0000 0.0000 -10.3890
#
#
#
# Elastic Compliance Matrix: (Units=1/GPa)
#
#
# Indices 1 2 3 4 5 6 
#
# 1 0.012794 -0.001910 -0.003901 0.000000 0.000000 0.000000
# 2 -0.001910 0.017683 -0.010653 0.000000 0.000000 0.000000
# 3 -0.003901 -0.010653 0.019443 0.000000 0.000000 0.000000
# 4 0.000000 0.000000 0.000000 0.023987 0.000000 0.000000
# 5 0.000000 0.000000 0.000000 0.000000 0.038079 0.000000
# 6 0.000000 0.000000 0.000000 0.000000 0.000000 -0.096256
#
#
# Mechanical properties :
#
#
# Convention : Reuss Voigt Hill
#
# Bulk Modulus (GPa) = 58.85025 59.45794 59.15410
# Shear Modulus (GPa) = 92.04439 21.71643 56.88041
#
# Velocity S-wave (km/s) = 6.61874 3.21492 5.20305
# Velocity P-wave (km/s) = 9.29621 6.48687 8.01558
#
# Compressibility (1/GPa) = 0.01699228
#
# Stress axis : x y z
#
# Youngs Moduli (GPa) = 78.16093 56.55229 51.43193
#
# Poissons Ratio (x) = 0.10800 0.20062
# Poissons Ratio (y) = 0.14927 0.54793
# Poissons Ratio (z) = 0.30488 0.60247
#
# Static dielectric constant tensor:
#      x y z
#    x 1.755000 0.000000 0.000000 
#    y 0.000000 1.750680 0.000000 
#    z 0.000000 0.000000 1.755290 
# 
# From -- ./inp_files/5241.got.cif
#   From: 2010.05.17/outbox.cif.g08.bks.cpg/sg73_3_cif.got.tgz:5241.got - 2010.06.03 17:35:07.
