data_PCOD9532130
_publ_section_title
;
Structure prediction by ZEFSAII (Michael W. Deem and Ramdas Pophale) SiO2 
 PCOD9532130
Probable space group: I B C A 
;
_chemical_formula_sum "Si O2"
_cell_formula_units_Z 104
_cell_length_a 8.828255
_cell_length_b 21.285614
_cell_length_c 25.228879
_cell_angle_alpha 90.000000
_cell_angle_beta 90.000000
_cell_angle_gamma 90.000000
_cell_volume 4740.880464
_symmetry_space_group_name_H-M "I B C A "
_symmetry_group_IT_number 73
_symmetry_cell_setting 'orthorhombic'
loop_
_space_group_symop_operation_xyz
x,y,z
-x,1/2-y,z
x,-y,1/2-z
1/2-x,y,-z
-x,-y,-z
x,1/2+y,-z
-x,y,1/2+z
1/2+x,-y,z
1/2+x,1/2+y,1/2+z
1/2-x,-y,1/2+z
1/2+x,1/2-y,-z
-x,1/2+y,1/2-z
1/2-x,1/2-y,1/2-z
1/2+x,y,1/2-z
1/2-x,1/2+y,z
x,1/2-y,1/2+z
loop_
_atom_site_type_symbol
_atom_site_label
_atom_site_fract_x
_atom_site_fract_y
_atom_site_fract_z
Si Si1 0.504309 0.054321 0.208277
Si Si2 0.750000 0.736452 0.000000
Si Si3 0.422797 0.957919 0.408150
Si Si4 0.042947 0.842385 0.519138
Si Si5 0.754360 0.359001 0.750841
Si Si6 0.996961 0.818520 0.330558
Si Si7 0.420055 0.578639 0.082214
O O1 0.497898 0.031408 0.148945
O O2 0.382947 0.110204 0.212876
O O3 0.663022 0.083946 0.224426
O O4 0.467918 0.000000 0.250000
O O5 0.607984 0.689562 0.006000
O O6 0.659773 0.787267 0.962720
O O7 0.484375 0.894451 0.435733
O O8 0.243311 0.949306 0.402434
O O9 0.466762 0.023171 0.435584
O O10 0.108443 0.879972 0.469475
O O11 0.634241 0.323096 0.787699
O O12 0.843340 0.324299 0.703839
O O13 0.016911 0.876118 0.371228
O O14 0.000000 0.750000 0.357334
#
# Coordination Sequence:
#
# PCOD9532130 Si02
#       7
#    16   8  16  16  16  16  16
#     4  11  23  39  68  97 142 180 233 290 350 424
#     4  10  24  46  76 104 138 196 228 300 354 424
#     4  12  26  45  69 103 141 186 238 292 360 425
#     4  11  25  48  74 102 148 179 241 293 357 421
#     4  10  22  42  62  99 132 180 236 293 351 424
#     4  11  24  43  70  96 139 183 241 295 365 427
#     4  12  27  44  68 105 137 187 233 295 357 436
#
# _framework density 21.936855000000001
#
# number of rings (size 3 to 8) (size 9 to 14) (size 15 to 20)
#    0.000    0.923    3.077    3.231    8.615    0.000 
#    0.000    0.000    3.385    0.000    0.000    0.000 
#    0.000    0.000    0.000    0.000    0.000    0.000 
#
# Total GULP energy -290061.272748 kJ/mol
# GULP energy per Si atom -5578.101399 kJ/mol
# Density = 2.188693 g / cm^3
# Si number density = 21.936855 Si / 1000 Ang^3
#
#
#
# Elastic Constant Matrix: (Units=GPa)
#
#
# Indices 1 2 3 4 5 6 
#
# 1 81.6990 46.6065 14.4431 0.0000 0.0000 0.0000
# 2 46.6065 132.4601 27.1869 0.0000 0.0000 0.0000
# 3 14.4431 27.1869 76.8014 0.0000 0.0000 0.0000
# 4 0.0000 0.0000 0.0000 28.6776 0.0000 0.0000
# 5 0.0000 0.0000 0.0000 0.0000 7.2586 0.0000
# 6 0.0000 0.0000 0.0000 0.0000 0.0000 23.7644
#
#
#
# Elastic Compliance Matrix: (Units=1/GPa)
#
#
# Indices 1 2 3 4 5 6 
#
# 1 0.015393 -0.005200 -0.001054 0.000000 0.000000 0.000000
# 2 -0.005200 0.009897 -0.002526 0.000000 0.000000 0.000000
# 3 -0.001054 -0.002526 0.014113 0.000000 0.000000 0.000000
# 4 0.000000 0.000000 0.000000 0.034870 0.000000 0.000000
# 5 0.000000 0.000000 0.000000 0.000000 0.137768 0.000000
# 6 0.000000 0.000000 0.000000 0.000000 0.000000 0.042080
#
#
# Mechanical properties :
#
#
# Convention : Reuss Voigt Hill
#
# Bulk Modulus (GPa) = 45.77916 51.93707 48.85811
# Shear Modulus (GPa) = 17.92363 25.45504 21.68933
#
# Velocity S-wave (km/s) = 2.86152 3.41013 3.14780
# Velocity P-wave (km/s) = 5.64195 6.26358 5.96087
#
# Compressibility (1/GPa) = 0.02184400
#
# Stress axis : x y z
#
# Youngs Moduli (GPa) = 64.96640 101.03741 70.85709
#
# Poissons Ratio (x) = 0.52535 0.07469
# Poissons Ratio (y) = 0.33780 0.17897
# Poissons Ratio (z) = 0.06848 0.25519
#
# Static dielectric constant tensor:
#      x y z
#    x 1.804850 0.000000 0.000000 
#    y 0.000000 1.842290 0.000000 
#    z 0.000000 0.000000 1.892580 
# 
# From -- ./inp_files/31244.got.cif
#   From: 2010.05.17/outbox.cif.g08.bks.cpg/sg73_16_cif.got.tgz:31244.got - 2010.06.03 17:35:07.
