data_PCOD9532656
_publ_section_title
;
Structure prediction by ZEFSAII (Michael W. Deem and Ramdas Pophale) SiO2 
 PCOD9532656
Probable space group: I B C A 
;
_chemical_formula_sum "Si O2"
_cell_formula_units_Z 120
_cell_length_a 28.010567
_cell_length_b 11.266214
_cell_length_c 15.401844
_cell_angle_alpha 90.000000
_cell_angle_beta 90.000000
_cell_angle_gamma 90.000000
_cell_volume 4860.406765
_symmetry_space_group_name_H-M "I B C A "
_symmetry_group_IT_number 73
_symmetry_cell_setting 'orthorhombic'
loop_
_space_group_symop_operation_xyz
x,y,z
-x,1/2-y,z
x,-y,1/2-z
1/2-x,y,-z
-x,-y,-z
x,1/2+y,-z
-x,y,1/2+z
1/2+x,-y,z
1/2+x,1/2+y,1/2+z
1/2-x,-y,1/2+z
1/2+x,1/2-y,-z
-x,1/2+y,1/2-z
1/2-x,1/2-y,1/2-z
1/2+x,y,1/2-z
1/2-x,1/2+y,z
x,1/2-y,1/2+z
loop_
_atom_site_type_symbol
_atom_site_label
_atom_site_fract_x
_atom_site_fract_y
_atom_site_fract_z
Si Si1 0.725386 0.331525 0.593707
Si Si2 0.716531 0.895803 0.135099
Si Si3 0.359080 0.000000 0.750000
Si Si4 0.851795 0.321279 0.980676
Si Si5 0.104328 0.448583 0.341652
Si Si6 0.069363 0.809116 0.206649
Si Si7 0.050366 0.809925 0.414416
Si Si8 0.501466 0.975489 0.354688
O O1 0.750000 0.340033 0.500000
O O2 0.747611 0.216003 0.644072
O O3 0.732388 0.464438 0.632847
O O4 0.671533 0.289171 0.571034
O O5 0.674591 0.902854 0.205615
O O6 0.688311 0.864828 0.047490
O O7 0.394822 0.080564 0.695335
O O8 0.859008 0.435826 0.918701
O O9 0.901605 0.290959 0.030121
O O10 0.120820 0.500000 0.250000
O O11 0.090462 0.312761 0.324751
O O12 0.053864 0.502975 0.371576
O O13 0.059354 0.789804 0.310307
O O14 0.024527 0.847506 0.148984
O O15 0.000000 0.750000 0.438924
O O16 0.034770 0.946863 0.415289
O O17 0.505183 0.000000 0.250000
#
# Coordination Sequence:
#
# PCOD9532656 Si02
#       8
#    16  16   8  16  16  16  16  16
#     4  10  23  46  74 100 140 181 228 292 379 436
#     4  11  24  47  74 107 134 185 232 298 366 450
#     4  12  22  42  76 102 136 180 238 290 370 428
#     4  11  24  43  64 101 142 186 235 293 359 434
#     4  11  24  39  60  93 137 186 234 293 343 405
#     4  11  19  40  64  91 135 189 232 280 355 421
#     4  11  21  36  63  98 138 187 249 287 340 416
#     4   9  18  36  57  87 129 185 230 286 336 395
#
# _framework density 24.689292999999999
#
# number of rings (size 3 to 8) (size 9 to 14) (size 15 to 20)
#    0.000    1.333    3.333    4.800    0.000    4.267 
#    3.600    0.000    0.000    0.000    0.000    0.000 
#    0.000    0.000    0.000    0.000    0.000    0.000 
#
# Total GULP energy -334735.940213 kJ/mol
# GULP energy per Si atom -5578.932337 kJ/mol
# Density = 2.463310 g / cm^3
# Si number density = 24.689293 Si / 1000 Ang^3
#
#
#
# Elastic Constant Matrix: (Units=GPa)
#
#
# Indices 1 2 3 4 5 6 
#
# 1 107.1665 43.1864 24.7822 0.0000 0.0000 0.0000
# 2 43.1864 135.1174 -1.0981 0.0000 0.0000 0.0000
# 3 24.7822 -1.0981 48.2899 0.0000 0.0000 0.0000
# 4 0.0000 0.0000 0.0000 20.4346 0.0000 0.0000
# 5 0.0000 0.0000 0.0000 0.0000 42.2408 0.0000
# 6 0.0000 0.0000 0.0000 0.0000 0.0000 39.8512
#
#
#
# Elastic Compliance Matrix: (Units=1/GPa)
#
#
# Indices 1 2 3 4 5 6 
#
# 1 0.012456 -0.004034 -0.006484 0.000000 0.000000 0.000000
# 2 -0.004034 0.008709 0.002268 0.000000 0.000000 0.000000
# 3 -0.006484 0.002268 0.024088 0.000000 0.000000 0.000000
# 4 0.000000 0.000000 0.000000 0.048937 0.000000 0.000000
# 5 0.000000 0.000000 0.000000 0.000000 0.023674 0.000000
# 6 0.000000 0.000000 0.000000 0.000000 0.000000 0.025093
#
#
# Mechanical properties :
#
#
# Convention : Reuss Voigt Hill
#
# Bulk Modulus (GPa) = 34.77942 47.14607 40.96274
# Shear Modulus (GPa) = 29.57866 35.41889 32.49877
#
# Velocity S-wave (km/s) = 3.46502 3.79170 3.63204
# Velocity P-wave (km/s) = 5.48871 6.18923 5.84946
#
# Compressibility (1/GPa) = 0.02875264
#
# Stress axis : x y z
#
# Youngs Moduli (GPa) = 80.27985 114.82675 41.51517
#
# Poissons Ratio (x) = 0.46322 0.26920
# Poissons Ratio (y) = 0.32385 -0.09417
# Poissons Ratio (z) = 0.52056 -0.26046
#
# Static dielectric constant tensor:
#      x y z
#    x 2.015100 0.000000 0.000000 
#    y 0.000000 1.992790 0.000000 
#    z 0.000000 0.000000 2.033280 
# 
# From -- ./inp_files/23978.got.cif
#   From: 2010.05.17/outbox.cif.g08.bks.cpg/sg73_12_cif.got.tgz:23978.got - 2010.06.03 17:35:07.
