data_PCOD9532444
_publ_section_title
;
Structure prediction by ZEFSAII (Michael W. Deem and Ramdas Pophale) SiO2 
 PCOD9532444
Probable space group: I B C A 
;
_chemical_formula_sum "Si O2"
_cell_formula_units_Z 112
_cell_length_a 14.976710
_cell_length_b 14.014963
_cell_length_c 23.784911
_cell_angle_alpha 90.000000
_cell_angle_beta 90.000000
_cell_angle_gamma 90.000000
_cell_volume 4992.406118
_symmetry_space_group_name_H-M "I B C A "
_symmetry_group_IT_number 73
_symmetry_cell_setting 'orthorhombic'
loop_
_space_group_symop_operation_xyz
x,y,z
-x,1/2-y,z
x,-y,1/2-z
1/2-x,y,-z
-x,-y,-z
x,1/2+y,-z
-x,y,1/2+z
1/2+x,-y,z
1/2+x,1/2+y,1/2+z
1/2-x,-y,1/2+z
1/2+x,1/2-y,-z
-x,1/2+y,1/2-z
1/2-x,1/2-y,1/2-z
1/2+x,y,1/2-z
1/2-x,1/2+y,z
x,1/2-y,1/2+z
loop_
_atom_site_type_symbol
_atom_site_label
_atom_site_fract_x
_atom_site_fract_y
_atom_site_fract_z
Si Si1 0.140816 0.410342 0.279928
Si Si2 0.909445 0.871677 0.402810
Si Si3 0.449266 0.348448 0.031469
Si Si4 0.223499 0.458705 0.940057
Si Si5 0.829522 0.457790 0.169749
Si Si6 0.601561 0.245132 0.300235
Si Si7 0.001708 0.549546 0.641005
O O1 0.093420 0.500000 0.250000
O O2 0.230066 0.458707 0.305020
O O3 0.154555 0.321930 0.237991
O O4 0.071672 0.384963 0.329156
O O5 0.952907 0.862194 0.464315
O O6 0.812295 0.917102 0.412299
O O7 0.897336 0.778044 0.365509
O O8 0.966651 0.941650 0.363744
O O9 0.500000 0.250000 0.043250
O O10 0.345393 0.371403 0.047374
O O11 0.493528 0.420820 0.075572
O O12 0.183419 0.537036 0.897912
O O13 0.250000 0.501455 0.000000
O O14 0.865683 0.362303 0.197877
O O15 0.903285 0.542756 0.173608
O O16 0.500000 0.250000 0.279883
#
# Coordination Sequence:
#
# PCOD9532444 Si02
#       7
#    16  16  16  16  16  16  16
#     4  12  24  44  67  94 133 178 226 284 342 407
#     4  11  20  44  67  93 137 177 224 271 336 410
#     4  10  23  39  68 103 137 173 220 280 336 400
#     4   9  20  41  66  97 139 178 222 273 339 409
#     4  11  23  42  66  99 129 176 228 279 340 410
#     4  12  24  41  65  97 133 175 232 284 342 405
#     4  11  23  43  70  95 133 181 221 276 347 410
#
# _framework density 22.434073000000001
#
# number of rings (size 3 to 8) (size 9 to 14) (size 15 to 20)
#    0.000    1.143    4.286    1.286    0.000    3.429 
#    0.000    3.571    0.000    0.000    0.000    0.000 
#    0.000    0.000    0.000    0.000    0.000    0.000 
#
# Total GULP energy -312189.130691 kJ/mol
# GULP energy per Si atom -5574.805905 kJ/mol
# Density = 2.238301 g / cm^3
# Si number density = 22.434073 Si / 1000 Ang^3
#
#
#
# Elastic Constant Matrix: (Units=GPa)
#
#
# Indices 1 2 3 4 5 6 
#
# 1 82.4261 8.5592 42.3902 0.0000 0.0000 0.0000
# 2 8.5592 47.9922 26.0215 0.0000 0.0000 0.0000
# 3 42.3902 26.0215 116.3655 0.0000 0.0000 0.0000
# 4 0.0000 0.0000 0.0000 28.2714 0.0000 0.0000
# 5 0.0000 0.0000 0.0000 0.0000 -50.4385 0.0000
# 6 0.0000 0.0000 0.0000 0.0000 0.0000 21.6465
#
#
#
# Elastic Compliance Matrix: (Units=1/GPa)
#
#
# Indices 1 2 3 4 5 6 
#
# 1 0.014933 0.000326 -0.005513 0.000000 0.000000 0.000000
# 2 0.000326 0.023719 -0.005423 0.000000 0.000000 0.000000
# 3 -0.005513 -0.005423 0.011814 0.000000 0.000000 0.000000
# 4 0.000000 0.000000 0.000000 0.035371 0.000000 0.000000
# 5 0.000000 0.000000 0.000000 0.000000 -0.019826 0.000000
# 6 0.000000 0.000000 0.000000 0.000000 0.000000 0.046197
#
#
# Mechanical properties :
#
#
# Convention : Reuss Voigt Hill
#
# Bulk Modulus (GPa) = 34.19127 44.52507 39.35817
# Shear Modulus (GPa) = 34.92172 11.21674 23.06923
#
# Velocity S-wave (km/s) = 3.94971 2.23846 3.21021
# Velocity P-wave (km/s) = 6.00617 5.15472 5.59666
#
# Compressibility (1/GPa) = 0.02924723
#
# Stress axis : x y z
#
# Youngs Moduli (GPa) = 66.96390 42.16064 84.64194
#
# Poissons Ratio (x) = -0.01374 0.46662
# Poissons Ratio (y) = -0.02182 0.45898
# Poissons Ratio (z) = 0.36916 0.22862
#
# Static dielectric constant tensor:
#      x y z
#    x 1.920350 0.000000 0.000000 
#    y 0.000000 1.829380 0.000000 
#    z 0.000000 0.000000 1.860620 
# 
# From -- ./inp_files/29548.got.cif
#   From: 2010.05.17/outbox.cif.g08.bks.cpg/sg73_15_cif.got.tgz:29548.got - 2010.06.03 17:35:07.
