data_PCOD9532483
_publ_section_title
;
Structure prediction by ZEFSAII (Michael W. Deem and Ramdas Pophale) SiO2 
 PCOD9532483
Probable space group: I B C A 
;
_chemical_formula_sum "Si O2"
_cell_formula_units_Z 88
_cell_length_a 11.635045
_cell_length_b 25.557811
_cell_length_c 13.635177
_cell_angle_alpha 90.000000
_cell_angle_beta 90.000000
_cell_angle_gamma 90.000000
_cell_volume 4054.641876
_symmetry_space_group_name_H-M "I B C A "
_symmetry_group_IT_number 73
_symmetry_cell_setting 'orthorhombic'
loop_
_space_group_symop_operation_xyz
x,y,z
-x,1/2-y,z
x,-y,1/2-z
1/2-x,y,-z
-x,-y,-z
x,1/2+y,-z
-x,y,1/2+z
1/2+x,-y,z
1/2+x,1/2+y,1/2+z
1/2-x,-y,1/2+z
1/2+x,1/2-y,-z
-x,1/2+y,1/2-z
1/2-x,1/2-y,1/2-z
1/2+x,y,1/2-z
1/2-x,1/2+y,z
x,1/2-y,1/2+z
loop_
_atom_site_type_symbol
_atom_site_label
_atom_site_fract_x
_atom_site_fract_y
_atom_site_fract_z
Si Si1 0.402940 0.371042 0.775193
Si Si2 0.311896 0.381629 0.100103
Si Si3 0.030145 0.190151 0.906696
Si Si4 0.250000 0.132244 0.000000
Si Si5 0.499160 0.543385 0.361241
Si Si6 0.563853 0.070967 0.413577
O O1 0.280620 0.360687 0.823502
O O2 0.443142 0.323770 0.706824
O O3 0.414371 0.423451 0.707001
O O4 0.488466 0.383834 0.864366
O O5 0.412873 0.341621 0.072933
O O6 0.375758 0.429465 0.152052
O O7 0.250000 0.398951 0.000000
O O8 0.000000 0.250000 0.925047
O O9 0.143287 0.167532 0.962061
O O10 0.192572 0.093621 0.080756
O O11 0.473936 0.481876 0.357134
O O12 0.534828 0.557184 0.473352
#
# Coordination Sequence:
#
# PCOD9532483 Si02
#       6
#    16  16  16   8  16  16
#     4  11  23  46  69 101 150 183 241 307 353 445
#     4  11  22  46  72 102 141 190 242 302 354 435
#     4  11  28  48  72 108 136 190 255 303 389 428
#     4  12  24  48  74 104 148 188 242 324 350 450
#     4  10  23  41  66 110 143 192 241 271 364 436
#     4  11  23  42  70 106 149 191 237 293 360 429
#
# _framework density 21.703519
#
# number of rings (size 3 to 8) (size 9 to 14) (size 15 to 20)
#    0.000    1.091    5.455    0.545    7.636    0.727 
#    3.273    0.909    0.000    0.000    0.000    0.000 
#    0.000    0.000    0.000    0.000    0.000    0.000 
#
# Total GULP energy -245478.826114 kJ/mol
# GULP energy per Si atom -5579.064230 kJ/mol
# Density = 2.165412 g / cm^3
# Si number density = 21.703519 Si / 1000 Ang^3
#
#
#
# Elastic Constant Matrix: (Units=GPa)
#
#
# Indices 1 2 3 4 5 6 
#
# 1 148.3684 39.0422 36.5649 0.0000 0.0000 0.0000
# 2 39.0422 79.3464 8.1473 0.0000 0.0000 0.0000
# 3 36.5649 8.1473 75.7948 0.0002 0.0000 0.0000
# 4 0.0000 0.0000 0.0002 16.5075 0.0000 0.0000
# 5 0.0000 0.0000 0.0000 0.0000 49.2324 0.0000
# 6 0.0000 0.0000 0.0000 0.0000 0.0000 13.4698
#
#
#
# Elastic Compliance Matrix: (Units=1/GPa)
#
#
# Indices 1 2 3 4 5 6 
#
# 1 0.008694 -0.003890 -0.003776 0.000000 0.000000 0.000000
# 2 -0.003890 0.014484 0.000320 0.000000 0.000000 0.000000
# 3 -0.003776 0.000320 0.014981 0.000000 0.000000 0.000000
# 4 0.000000 0.000000 0.000000 0.060578 0.000000 0.000000
# 5 0.000000 0.000000 0.000000 0.000000 0.020312 0.000000
# 6 0.000000 0.000000 0.000000 0.000000 0.000000 0.074240
#
#
# Mechanical properties :
#
#
# Convention : Reuss Voigt Hill
#
# Bulk Modulus (GPa) = 42.61442 52.33538 47.47490
# Shear Modulus (GPa) = 23.16907 30.49230 26.83068
#
# Velocity S-wave (km/s) = 3.27085 3.75233 3.51983
# Velocity P-wave (km/s) = 5.82598 6.55282 6.20006
#
# Compressibility (1/GPa) = 0.02346624
#
# Stress axis : x y z
#
# Youngs Moduli (GPa) = 115.01797 69.04019 66.75197
#
# Poissons Ratio (x) = 0.26858 0.25206
# Poissons Ratio (y) = 0.44745 -0.02135
# Poissons Ratio (z) = 0.43432 -0.02208
#
# Static dielectric constant tensor:
#      x y z
#    x 1.789930 0.000000 0.000000 
#    y 0.000000 1.815670 0.000000 
#    z 0.000000 0.000000 1.860380 
# 
# From -- ./inp_files/16222.got.cif
#   From: 2010.05.17/outbox.cif.g08.bks.cpg/sg73_9_cif.got.tgz:16222.got - 2010.06.03 17:35:07.
