data_PCOD9532729
_publ_section_title
;
Structure prediction by ZEFSAII (Michael W. Deem and Ramdas Pophale) SiO2 
 PCOD9532729
Probable space group: I B C A 
;
_chemical_formula_sum "Si O2"
_cell_formula_units_Z 72
_cell_length_a 17.733916
_cell_length_b 9.368604
_cell_length_c 17.123673
_cell_angle_alpha 90.000000
_cell_angle_beta 90.000000
_cell_angle_gamma 90.000000
_cell_volume 2844.961902
_symmetry_space_group_name_H-M "I B C A "
_symmetry_group_IT_number 73
_symmetry_cell_setting 'orthorhombic'
loop_
_space_group_symop_operation_xyz
x,y,z
-x,1/2-y,z
x,-y,1/2-z
1/2-x,y,-z
-x,-y,-z
x,1/2+y,-z
-x,y,1/2+z
1/2+x,-y,z
1/2+x,1/2+y,1/2+z
1/2-x,-y,1/2+z
1/2+x,1/2-y,-z
-x,1/2+y,1/2-z
1/2-x,1/2-y,1/2-z
1/2+x,y,1/2-z
1/2-x,1/2+y,z
x,1/2-y,1/2+z
loop_
_atom_site_type_symbol
_atom_site_label
_atom_site_fract_x
_atom_site_fract_y
_atom_site_fract_z
Si Si1 0.837471 0.395979 0.999736
Si Si2 0.926862 0.346352 0.463832
Si Si3 0.040555 0.893403 0.201496
Si Si4 0.833926 0.708210 0.325130
Si Si5 0.286603 0.500000 0.750000
O O1 0.891751 0.529991 0.982739
O O2 0.851191 0.319407 0.084112
O O3 0.750000 0.437770 0.000000
O O4 0.861401 0.267637 0.942797
O O5 0.939817 0.437617 0.385197
O O6 0.000000 0.250000 0.487183
O O7 0.104758 0.854863 0.264266
O O8 0.000000 0.750000 0.184306
O O9 0.988880 0.000000 0.250000
O O10 0.762780 0.605149 0.305589
O O11 0.823812 0.875712 0.303986
#
# Coordination Sequence:
#
# PCOD9532729 Si02
#       5
#    16  16  16  16   8
#     4  12  27  43  73 108 150 195 246 309 378 447
#     4  11  26  49  71 103 150 197 246 305 372 452
#     4  11  24  47  72 100 136 183 241 298 357 436
#     4  11  24  44  70 101 141 182 239 292 363 433
#     4  10  24  40  70 100 138 180 232 294 356 422
#
# _framework density 25.307896
#
# number of rings (size 3 to 8) (size 9 to 14) (size 15 to 20)
#    0.000    0.889    3.333    1.333   14.000    0.889 
#    4.000    0.000    0.000    0.000    0.000    0.000 
#    0.000    0.000    0.000    0.000    0.000    0.000 
#
# Total GULP energy -200770.402827 kJ/mol
# GULP energy per Si atom -5576.955634 kJ/mol
# Density = 2.525029 g / cm^3
# Si number density = 25.307896 Si / 1000 Ang^3
#
#
#
# Elastic Constant Matrix: (Units=GPa)
#
#
# Indices 1 2 3 4 5 6 
#
# 1 63.1543 18.2239 11.8195 0.0000 0.0000 0.0000
# 2 18.2239 160.3010 11.3442 0.0000 0.0000 0.0000
# 3 11.8195 11.3442 42.6473 0.0000 0.0000 0.0000
# 4 0.0000 0.0000 0.0000 24.9961 0.0000 0.0000
# 5 0.0000 0.0000 0.0000 0.0000 21.5756 0.0000
# 6 0.0000 0.0000 0.0000 0.0000 0.0000 6.4237
#
#
#
# Elastic Compliance Matrix: (Units=1/GPa)
#
#
# Indices 1 2 3 4 5 6 
#
# 1 0.017114 -0.001641 -0.004307 0.000000 0.000000 0.000000
# 2 -0.001641 0.006515 -0.001278 0.000000 0.000000 0.000000
# 3 -0.004307 -0.001278 0.024982 0.000000 0.000000 0.000000
# 4 0.000000 0.000000 0.000000 0.040006 0.000000 0.000000
# 5 0.000000 0.000000 0.000000 0.000000 0.046349 0.000000
# 6 0.000000 0.000000 0.000000 0.000000 0.000000 0.155674
#
#
# Mechanical properties :
#
#
# Convention : Reuss Voigt Hill
#
# Bulk Modulus (GPa) = 29.27455 38.76420 34.01938
# Shear Modulus (GPa) = 15.79895 25.58008 20.68951
#
# Velocity S-wave (km/s) = 2.50125 3.18269 2.86232
# Velocity P-wave (km/s) = 4.46477 5.37180 4.93915
#
# Compressibility (1/GPa) = 0.03415936
#
# Stress axis : x y z
#
# Youngs Moduli (GPa) = 58.43278 153.48572 40.02926
#
# Poissons Ratio (x) = 0.25184 0.17239
# Poissons Ratio (y) = 0.09588 0.05117
# Poissons Ratio (z) = 0.25164 0.19620
#
# Static dielectric constant tensor:
#      x y z
#    x 2.084010 0.000000 0.000000 
#    y 0.000000 2.094250 0.000000 
#    z 0.000000 0.000000 2.325120 
# 
# From -- ./inp_files/5360.got.cif
#   From: 2010.05.17/outbox.cif.g08.bks.cpg/sg73_3_cif.got.tgz:5360.got - 2010.06.03 17:35:07.
