data_PCOD9532991
_publ_section_title
;
Structure prediction by ZEFSAII (Michael W. Deem and Ramdas Pophale) SiO2 
 PCOD9532991
Probable space group: I B C A 
;
_chemical_formula_sum "Si O2"
_cell_formula_units_Z 72
_cell_length_a 14.893469
_cell_length_b 20.475572
_cell_length_c 9.879181
_cell_angle_alpha 90.000000
_cell_angle_beta 90.000000
_cell_angle_gamma 90.000000
_cell_volume 3012.678937
_symmetry_space_group_name_H-M "I B C A "
_symmetry_group_IT_number 73
_symmetry_cell_setting 'orthorhombic'
loop_
_space_group_symop_operation_xyz
x,y,z
-x,1/2-y,z
x,-y,1/2-z
1/2-x,y,-z
-x,-y,-z
x,1/2+y,-z
-x,y,1/2+z
1/2+x,-y,z
1/2+x,1/2+y,1/2+z
1/2-x,-y,1/2+z
1/2+x,1/2-y,-z
-x,1/2+y,1/2-z
1/2-x,1/2-y,1/2-z
1/2+x,y,1/2-z
1/2-x,1/2+y,z
x,1/2-y,1/2+z
loop_
_atom_site_type_symbol
_atom_site_label
_atom_site_fract_x
_atom_site_fract_y
_atom_site_fract_z
Si Si1 0.870433 0.132478 0.773884
Si Si2 0.500000 0.250000 0.307509
Si Si3 0.405254 0.140366 0.437919
Si Si4 0.564867 0.058363 0.459226
Si Si5 0.197859 0.928466 0.699786
O O1 0.915952 0.070535 0.699004
O O2 0.774013 0.127907 0.699022
O O3 0.940243 0.192998 0.763518
O O4 0.846390 0.126450 0.931002
O O5 0.421454 0.213507 0.390436
O O6 0.504300 0.121063 0.490532
O O7 0.373779 0.096785 0.311694
O O8 0.650163 0.059722 0.556352
O O9 0.500000 0.000000 0.500000
O O10 0.231114 0.000000 0.750000
#
# Coordination Sequence:
#
# PCOD9532991 Si02
#       5
#    16   8  16  16  16
#     4  11  26  44  75 104 146 191 247 317 367 442
#     4  10  24  50  72 104 144 196 262 296 382 444
#     4  11  24  44  75 103 144 200 248 306 369 445
#     4  11  23  43  68 101 145 197 235 292 372 453
#     4  12  26  44  69 114 151 188 248 312 378 437
#
# _framework density 23.898996
#
# number of rings (size 3 to 8) (size 9 to 14) (size 15 to 20)
#    0.000    0.889    2.222    4.667    3.111    4.444 
#    0.000    4.444    0.000    0.000    0.000    0.000 
#    0.000    0.000    0.000    0.000    0.000    0.000 
#
# Total GULP energy -200643.178507 kJ/mol
# GULP energy per Si atom -5573.421625 kJ/mol
# Density = 2.384460 g / cm^3
# Si number density = 23.898996 Si / 1000 Ang^3
#
#
#
# Elastic Constant Matrix: (Units=GPa)
#
#
# Indices 1 2 3 4 5 6 
#
# 1 111.7951 28.1925 21.5680 0.0000 0.0000 0.0000
# 2 28.1925 102.2222 50.3118 0.0000 0.0000 0.0000
# 3 21.5680 50.3118 118.7687 0.0000 0.0000 0.0000
# 4 0.0000 0.0000 0.0000 19.4155 0.0000 0.0000
# 5 0.0000 0.0000 0.0000 0.0000 38.4271 0.0000
# 6 0.0000 0.0000 0.0000 0.0000 0.0000 43.1914
#
#
#
# Elastic Compliance Matrix: (Units=1/GPa)
#
#
# Indices 1 2 3 4 5 6 
#
# 1 0.009672 -0.002278 -0.000791 0.000000 0.000000 0.000000
# 2 -0.002278 0.012896 -0.005049 0.000000 0.000000 0.000000
# 3 -0.000791 -0.005049 0.010702 0.000000 0.000000 0.000000
# 4 0.000000 0.000000 0.000000 0.051505 0.000000 0.000000
# 5 0.000000 0.000000 0.000000 0.000000 0.026023 0.000000
# 6 0.000000 0.000000 0.000000 0.000000 0.000000 0.023153
#
#
# Mechanical properties :
#
#
# Convention : Reuss Voigt Hill
#
# Bulk Modulus (GPa) = 58.70903 59.21449 58.96176
# Shear Modulus (GPa) = 32.07867 35.72105 33.89986
#
# Velocity S-wave (km/s) = 3.66766 3.87029 3.77034
# Velocity P-wave (km/s) = 6.52338 6.69350 6.60899
#
# Compressibility (1/GPa) = 0.01703315
#
# Stress axis : x y z
#
# Youngs Moduli (GPa) = 103.39031 77.54338 93.43732
#
# Poissons Ratio (x) = 0.17664 0.07395
# Poissons Ratio (y) = 0.23552 0.47179
# Poissons Ratio (z) = 0.08183 0.39153
#
# Static dielectric constant tensor:
#      x y z
#    x 2.024300 0.000000 0.000000 
#    y 0.000000 1.971830 0.000000 
#    z 0.000000 0.000000 2.111040 
# 
# From -- ./inp_files/5346.got.cif
#   From: 2010.05.17/outbox.cif.g08.bks.cpg/sg73_3_cif.got.tgz:5346.got - 2010.06.03 17:35:07.
