data_PCOD9532698
_publ_section_title
;
Structure prediction by ZEFSAII (Michael W. Deem and Ramdas Pophale) SiO2 
 PCOD9532698
Probable space group: I B C A 
;
_chemical_formula_sum "Si O2"
_cell_formula_units_Z 72
_cell_length_a 8.900094
_cell_length_b 21.492688
_cell_length_c 18.042332
_cell_angle_alpha 90.000000
_cell_angle_beta 90.000000
_cell_angle_gamma 90.000000
_cell_volume 3451.262542
_symmetry_space_group_name_H-M "I B C A "
_symmetry_group_IT_number 73
_symmetry_cell_setting 'orthorhombic'
loop_
_space_group_symop_operation_xyz
x,y,z
-x,1/2-y,z
x,-y,1/2-z
1/2-x,y,-z
-x,-y,-z
x,1/2+y,-z
-x,y,1/2+z
1/2+x,-y,z
1/2+x,1/2+y,1/2+z
1/2-x,-y,1/2+z
1/2+x,1/2-y,-z
-x,1/2+y,1/2-z
1/2-x,1/2-y,1/2-z
1/2+x,y,1/2-z
1/2-x,1/2+y,z
x,1/2-y,1/2+z
loop_
_atom_site_type_symbol
_atom_site_label
_atom_site_fract_x
_atom_site_fract_y
_atom_site_fract_z
Si Si1 0.164479 0.418631 0.680723
Si Si2 0.250000 0.190731 0.500000
Si Si3 0.347078 0.688106 0.760246
Si Si4 0.097469 0.000000 0.750000
Si Si5 0.504990 0.824061 0.603602
Si Si6 0.500000 0.250000 0.107322
O O1 0.234958 0.369035 0.737137
O O2 0.294272 0.471079 0.686224
O O3 0.013898 0.450568 0.711339
O O4 0.128914 0.374633 0.608997
O O5 0.364522 0.152053 0.449731
O O6 0.356906 0.229213 0.557640
O O7 0.250000 0.750000 0.750000
O O8 0.447400 0.681018 0.688576
O O9 0.440921 0.696812 0.836028
O O10 0.500000 0.750000 0.582006
#
# Coordination Sequence:
#
# PCOD9532698 Si02
#       6
#    16   8  16   8  16   8
#     4  11  22  40  63  96 134 170 225 282 338 382
#     4  12  26  38  58  98 148 178 210 262 356 430
#     4  12  21  37  67 101 128 168 216 279 334 404
#     4  10  24  38  62 100 132 172 232 296 316 388
#     4  12  22  39  64  99 137 170 214 274 346 416
#     4  12  24  40  60 100 146 176 214 266 348 434
#
# _framework density 20.861930000000001
#
# number of rings (size 3 to 8) (size 9 to 14) (size 15 to 20)
#    0.000    0.444    8.889    0.000    0.000    0.000 
#    0.000    0.000    0.000    1.333    0.000    0.000 
#    0.000    0.000    0.000    0.000    0.000    0.000 
#
# Total GULP energy -200450.320542 kJ/mol
# GULP energy per Si atom -5568.064460 kJ/mol
# Density = 2.081445 g / cm^3
# Si number density = 20.861930 Si / 1000 Ang^3
#
#
#
# Elastic Constant Matrix: (Units=GPa)
#
#
# Indices 1 2 3 4 5 6 
#
# 1 117.9836 44.3430 31.7540 0.0000 0.0000 0.0000
# 2 44.3430 100.6819 7.6883 0.0000 0.0000 0.0000
# 3 31.7540 7.6883 89.7783 0.0000 0.0000 0.0000
# 4 0.0000 0.0000 0.0000 -1.9368 0.0000 0.0000
# 5 0.0000 0.0000 0.0000 0.0000 30.0344 0.0000
# 6 0.0000 0.0000 0.0000 0.0000 0.0000 57.7611
#
#
#
# Elastic Compliance Matrix: (Units=1/GPa)
#
#
# Indices 1 2 3 4 5 6 
#
# 1 0.011182 -0.004653 -0.003556 0.000000 0.000000 0.000000
# 2 -0.004653 0.011934 0.000624 0.000000 0.000000 0.000000
# 3 -0.003556 0.000624 0.012343 0.000000 0.000000 0.000000
# 4 0.000000 0.000000 0.000000 -0.516323 0.000000 0.000000
# 5 0.000000 0.000000 0.000000 0.000000 0.033295 0.000000
# 6 0.000000 0.000000 0.000000 0.000000 0.000000 0.017313
#
#
# Mechanical properties :
#
#
# Convention : Reuss Voigt Hill
#
# Bulk Modulus (GPa) = 49.29214 52.89049 51.09131
# Shear Modulus (GPa) = -12.24522 32.14900 9.95189
#
# Velocity S-wave (km/s) = -2.42536 3.92986 2.18648
# Velocity P-wave (km/s) = 3.97943 6.78229 5.56037
#
# Compressibility (1/GPa) = 0.02028721
#
# Stress axis : x y z
#
# Youngs Moduli (GPa) = 89.43118 83.79401 81.01746
#
# Poissons Ratio (x) = 0.38991 0.28813
# Poissons Ratio (y) = 0.41614 -0.05054
# Poissons Ratio (z) = 0.31806 -0.05227
#
# Static dielectric constant tensor:
#      x y z
#    x 1.852080 0.000000 0.000000 
#    y 0.000000 1.897030 0.000000 
#    z 0.000000 0.000000 1.742930 
# 
# From -- ./inp_files/5496.got.cif
#   From: 2010.05.17/outbox.cif.g08.bks.cpg/sg73_3_cif.got.tgz:5496.got - 2010.06.03 17:35:07.
