data_PCOD9532340
_publ_section_title
;
Structure prediction by ZEFSAII (Michael W. Deem and Ramdas Pophale) SiO2 
 PCOD9532340
Probable space group: I B C A 
;
_chemical_formula_sum "Si O2"
_cell_formula_units_Z 72
_cell_length_a 5.836367
_cell_length_b 18.435890
_cell_length_c 25.830958
_cell_angle_alpha 90.000000
_cell_angle_beta 90.000000
_cell_angle_gamma 90.000000
_cell_volume 2779.375434
_symmetry_space_group_name_H-M "I B C A "
_symmetry_group_IT_number 73
_symmetry_cell_setting 'orthorhombic'
loop_
_space_group_symop_operation_xyz
x,y,z
-x,1/2-y,z
x,-y,1/2-z
1/2-x,y,-z
-x,-y,-z
x,1/2+y,-z
-x,y,1/2+z
1/2+x,-y,z
1/2+x,1/2+y,1/2+z
1/2-x,-y,1/2+z
1/2+x,1/2-y,-z
-x,1/2+y,1/2-z
1/2-x,1/2-y,1/2-z
1/2+x,y,1/2-z
1/2-x,1/2+y,z
x,1/2-y,1/2+z
loop_
_atom_site_type_symbol
_atom_site_label
_atom_site_fract_x
_atom_site_fract_y
_atom_site_fract_z
Si Si1 0.245855 0.607512 0.444035
Si Si2 0.376639 0.159445 0.120807
Si Si3 0.500000 0.750000 0.581951
Si Si4 0.520499 0.665860 0.766389
Si Si5 0.242425 0.506242 0.847938
O O1 0.250000 0.570833 0.500000
O O2 0.482142 0.648638 0.431094
O O3 0.237685 0.549880 0.396627
O O4 0.066357 0.674647 0.445814
O O5 0.212444 0.227192 0.116956
O O6 0.530712 0.164464 0.171787
O O7 0.232568 0.086754 0.129098
O O8 0.500000 0.750000 0.747880
O O9 0.765428 0.634973 0.747191
O O10 0.494255 0.503668 0.821082
#
# Coordination Sequence:
#
# PCOD9532340 Si02
#       5
#    16  16   8  16  16
#     4  11  26  43  68 101 145 192 244 293 359 430
#     4  11  25  43  71 103 143 187 241 298 360 428
#     4  12  24  42  68 106 138 190 230 310 354 422
#     4  10  23  40  69 106 143 183 232 295 364 434
#     4  10  22  45  67  96 133 190 233 287 344 427
#
# _framework density 25.905103
#
# number of rings (size 3 to 8) (size 9 to 14) (size 15 to 20)
#    0.000    1.333    2.222    2.000   10.889    3.556 
#    0.000    0.000    0.000   16.000    0.000    0.000 
#    0.000    0.000    0.000    0.000    0.000    0.000 
#
# Total GULP energy -200984.398311 kJ/mol
# GULP energy per Si atom -5582.899953 kJ/mol
# Density = 2.584614 g / cm^3
# Si number density = 25.905103 Si / 1000 Ang^3
#
#
#
# Elastic Constant Matrix: (Units=GPa)
#
#
# Indices 1 2 3 4 5 6 
#
# 1 194.1345 4.4937 49.3823 0.0000 0.0000 0.0000
# 2 4.4937 85.2381 5.0837 0.0000 0.0000 0.0000
# 3 49.3823 5.0837 98.4210 0.0000 0.0000 0.0000
# 4 0.0000 0.0000 0.0000 17.8464 0.0000 0.0000
# 5 0.0000 0.0000 0.0000 0.0000 12.4378 0.0000
# 6 0.0000 0.0000 0.0000 0.0000 0.0000 51.7795
#
#
#
# Elastic Compliance Matrix: (Units=1/GPa)
#
#
# Indices 1 2 3 4 5 6 
#
# 1 0.005906 -0.000135 -0.002956 0.000000 0.000000 0.000000
# 2 -0.000135 0.011771 -0.000540 0.000000 0.000000 0.000000
# 3 -0.002956 -0.000540 0.011672 0.000000 0.000000 0.000000
# 4 0.000000 0.000000 0.000000 0.056034 0.000000 0.000000
# 5 0.000000 0.000000 0.000000 0.000000 0.080400 0.000000
# 6 0.000000 0.000000 0.000000 0.000000 0.000000 0.019313
#
#
# Mechanical properties :
#
#
# Convention : Reuss Voigt Hill
#
# Bulk Modulus (GPa) = 45.27829 55.07922 50.17875
# Shear Modulus (GPa) = 25.03492 37.66832 31.35162
#
# Velocity S-wave (km/s) = 3.11208 3.81739 3.48264
# Velocity P-wave (km/s) = 5.51633 6.38263 5.96523
#
# Compressibility (1/GPa) = 0.02208564
#
# Stress axis : x y z
#
# Youngs Moduli (GPa) = 169.31267 84.95317 85.67714
#
# Poissons Ratio (x) = 0.01147 0.25330
# Poissons Ratio (y) = 0.02287 0.04629
# Poissons Ratio (z) = 0.50056 0.04590
#
# Static dielectric constant tensor:
#      x y z
#    x 2.157720 0.000000 0.000000 
#    y 0.000000 2.113180 0.000000 
#    z 0.000000 0.000000 1.963800 
# 
# From -- ./inp_files/1705.got.cif
#   From: 2010.05.17/outbox.cif.g08.bks.cpg/sg73_1_cif.got.tgz:1705.got - 2010.06.03 17:35:07.
