data_PCOD9532828
_publ_section_title
;
Structure prediction by ZEFSAII (Michael W. Deem and Ramdas Pophale) SiO2 
 PCOD9532828
Probable space group: I B C A 
;
_chemical_formula_sum "Si O2"
_cell_formula_units_Z 104
_cell_length_a 8.615912
_cell_length_b 24.032175
_cell_length_c 24.186458
_cell_angle_alpha 90.000000
_cell_angle_beta 90.000000
_cell_angle_gamma 90.000000
_cell_volume 5008.026346
_symmetry_space_group_name_H-M "I B C A "
_symmetry_group_IT_number 73
_symmetry_cell_setting 'orthorhombic'
loop_
_space_group_symop_operation_xyz
x,y,z
-x,1/2-y,z
x,-y,1/2-z
1/2-x,y,-z
-x,-y,-z
x,1/2+y,-z
-x,y,1/2+z
1/2+x,-y,z
1/2+x,1/2+y,1/2+z
1/2-x,-y,1/2+z
1/2+x,1/2-y,-z
-x,1/2+y,1/2-z
1/2-x,1/2-y,1/2-z
1/2+x,y,1/2-z
1/2-x,1/2+y,z
x,1/2-y,1/2+z
loop_
_atom_site_type_symbol
_atom_site_label
_atom_site_fract_x
_atom_site_fract_y
_atom_site_fract_z
Si Si1 0.320609 0.269602 0.556764
Si Si2 0.467417 0.378035 0.513086
Si Si3 0.500000 0.750000 0.124892
Si Si4 0.750000 0.020460 0.500000
Si Si5 0.190294 0.062717 0.404575
Si Si6 0.868696 0.536724 0.329779
Si Si7 0.481751 0.868794 0.113884
Si Si8 0.892649 0.500000 0.750000
O O1 0.500000 0.250000 0.568572
O O2 0.250000 0.244404 0.500000
O O3 0.352782 0.334822 0.543347
O O4 0.173978 0.258168 0.596604
O O5 0.393735 0.437834 0.499422
O O6 0.597385 0.393570 0.557815
O O7 0.515626 0.355167 0.452436
O O8 0.483927 0.812067 0.148331
O O9 0.736261 0.981051 0.552483
O O10 0.326063 0.096592 0.375773
O O11 0.102905 0.021343 0.362723
O O12 0.711577 0.529321 0.296113
O O13 0.880576 0.589073 0.370144
O O14 0.997497 0.542255 0.282440
#
# Coordination Sequence:
#
# PCOD9532828 Si02
#       8
#    16  16   8   8  16  16  16   8
#     4  12  22  38  56  78 120 187 236 267 298 357
#     4  12  22  34  53  88 137 178 218 257 312 382
#     4  12  26  42  60  90 136 180 238 268 312 382
#     4  12  20  32  50  88 134 172 206 260 320 384
#     4  12  23  35  59  94 134 173 215 261 326 403
#     4  11  23  42  68  95 124 161 209 277 342 402
#     4  12  22  40  61  93 132 181 218 265 317 389
#     4  10  24  44  66  98 122 154 208 278 356 402
#
# _framework density 20.766665
#
# number of rings (size 3 to 8) (size 9 to 14) (size 15 to 20)
#    0.000    0.308    7.692    2.308    0.000    0.000 
#    0.000    0.000    0.000    0.923    0.000    0.000 
#    0.000    0.000    0.000    0.000    0.000    0.000 
#
# Total GULP energy -289820.038080 kJ/mol
# GULP energy per Si atom -5573.462271 kJ/mol
# Density = 2.071940 g / cm^3
# Si number density = 20.766665 Si / 1000 Ang^3
#
#
#
# Elastic Constant Matrix: (Units=GPa)
#
#
# Indices 1 2 3 4 5 6 
#
# 1 96.4520 34.9665 13.9276 0.0000 0.0000 0.0000
# 2 34.9665 114.2174 10.6651 0.0000 0.0000 0.0000
# 3 13.9276 10.6651 50.6923 0.0000 0.0000 0.0000
# 4 0.0000 0.0000 0.0000 7.9875 0.0000 0.0000
# 5 0.0000 0.0000 0.0000 0.0000 37.6900 0.0000
# 6 0.0000 0.0000 0.0000 0.0000 0.0000 27.7104
#
#
#
# Elastic Compliance Matrix: (Units=1/GPa)
#
#
# Indices 1 2 3 4 5 6 
#
# 1 0.011982 -0.003428 -0.002571 0.000000 0.000000 0.000000
# 2 -0.003428 0.009911 -0.001143 0.000000 0.000000 0.000000
# 3 -0.002571 -0.001143 0.020674 0.000000 0.000000 0.000000
# 4 0.000000 0.000000 0.000000 0.125195 0.000000 0.000000
# 5 0.000000 0.000000 0.000000 0.000000 0.026532 0.000000
# 6 0.000000 0.000000 0.000000 0.000000 0.000000 0.036087
#
#
# Mechanical properties :
#
#
# Convention : Reuss Voigt Hill
#
# Bulk Modulus (GPa) = 35.35746 42.27556 38.81651
# Shear Modulus (GPa) = 19.67776 28.13108 23.90442
#
# Velocity S-wave (km/s) = 3.08159 3.68452 3.39646
# Velocity P-wave (km/s) = 5.45203 6.20504 5.84068
#
# Compressibility (1/GPa) = 0.02828257
#
# Stress axis : x y z
#
# Youngs Moduli (GPa) = 83.45967 100.89322 48.37051
#
# Poissons Ratio (x) = 0.34587 0.12435
# Poissons Ratio (y) = 0.28611 0.05531
# Poissons Ratio (z) = 0.21455 0.11536
#
# Static dielectric constant tensor:
#      x y z
#    x 1.855930 0.000000 0.000000 
#    y 0.000000 1.783450 0.000000 
#    z 0.000000 0.000000 1.766030 
# 
# From -- ./inp_files/28515.got.cif
#   From: 2010.05.17/outbox.cif.g08.bks.cpg/sg73_15_cif.got.tgz:28515.got - 2010.06.03 17:35:07.
