data_PCOD9532178
_publ_section_title
;
Structure prediction by ZEFSAII (Michael W. Deem and Ramdas Pophale) SiO2 
 PCOD9532178
Probable space group: I B C A 
;
_chemical_formula_sum "Si O2"
_cell_formula_units_Z 88
_cell_length_a 23.309843
_cell_length_b 8.834071
_cell_length_c 20.217539
_cell_angle_alpha 90.000000
_cell_angle_beta 90.000000
_cell_angle_gamma 90.000000
_cell_volume 4163.211968
_symmetry_space_group_name_H-M "I B C A "
_symmetry_group_IT_number 73
_symmetry_cell_setting 'orthorhombic'
loop_
_space_group_symop_operation_xyz
x,y,z
-x,1/2-y,z
x,-y,1/2-z
1/2-x,y,-z
-x,-y,-z
x,1/2+y,-z
-x,y,1/2+z
1/2+x,-y,z
1/2+x,1/2+y,1/2+z
1/2-x,-y,1/2+z
1/2+x,1/2-y,-z
-x,1/2+y,1/2-z
1/2-x,1/2-y,1/2-z
1/2+x,y,1/2-z
1/2-x,1/2+y,z
x,1/2-y,1/2+z
loop_
_atom_site_type_symbol
_atom_site_label
_atom_site_fract_x
_atom_site_fract_y
_atom_site_fract_z
Si Si1 0.879257 0.533132 0.491474
Si Si2 0.681298 0.239120 0.310434
Si Si3 0.436087 0.818311 0.753825
Si Si4 0.199454 0.213121 0.548183
Si Si5 0.751279 0.500000 0.750000
Si Si6 0.932097 0.236439 0.906152
O O1 0.825860 0.438256 0.518101
O O2 0.852656 0.667612 0.448934
O O3 0.908444 0.618267 0.553494
O O4 0.914588 0.414584 0.447165
O O5 0.612954 0.234840 0.297881
O O6 0.711588 0.307013 0.375593
O O7 0.706588 0.357615 0.257782
O O8 0.706179 0.069519 0.302873
O O9 0.500000 0.750000 0.742484
O O10 0.415764 0.774671 0.828701
O O11 0.440513 0.000000 0.750000
O O12 0.250000 0.264160 0.500000
O O13 0.000000 0.250000 0.906833
#
# Coordination Sequence:
#
# PCOD9532178 Si02
#       6
#    16  16  16  16   8  16
#     4  10  23  39  64  97 132 179 217 283 340 407
#     4  11  25  44  66 100 139 176 235 284 355 414
#     4  11  25  44  71 102 141 187 237 293 348 423
#     4  11  25  40  66  95 132 176 223 284 338 414
#     4  10  26  40  68  94 130 188 218 290 346 422
#     4  10  22  42  68  97 135 180 231 284 342 410
#
# _framework density 21.137526000000001
#
# number of rings (size 3 to 8) (size 9 to 14) (size 15 to 20)
#    0.000    1.455    0.909    2.182    8.909    4.364 
#    0.000    4.545    0.000    0.000    0.000    0.000 
#    0.000    0.000    0.000    0.000    0.000    0.000 
#
# Total GULP energy -245124.756607 kJ/mol
# GULP energy per Si atom -5571.017196 kJ/mol
# Density = 2.108942 g / cm^3
# Si number density = 21.137526 Si / 1000 Ang^3
#
#
#
# Elastic Constant Matrix: (Units=GPa)
#
#
# Indices 1 2 3 4 5 6 
#
# 1 101.5904 30.3152 39.4371 0.0000 0.0000 0.0000
# 2 30.3152 70.5598 0.8355 0.0000 0.0000 0.0000
# 3 39.4371 0.8355 79.1781 0.0000 0.0000 0.0000
# 4 0.0000 0.0000 0.0000 -99.2068 0.0000 0.0000
# 5 0.0000 0.0000 0.0000 0.0000 23.9315 0.0000
# 6 0.0000 0.0000 0.0000 0.0000 0.0000 43.0806
#
#
#
# Elastic Compliance Matrix: (Units=1/GPa)
#
#
# Indices 1 2 3 4 5 6 
#
# 1 0.014435 -0.006117 -0.007125 0.000000 0.000000 0.000000
# 2 -0.006117 0.016767 0.002870 0.000000 0.000000 0.000000
# 3 -0.007125 0.002870 0.016148 0.000000 0.000000 0.000000
# 4 0.000000 0.000000 0.000000 -0.010080 0.000000 0.000000
# 5 0.000000 0.000000 0.000000 0.000000 0.041786 0.000000
# 6 0.000000 0.000000 0.000000 0.000000 0.000000 0.023212
#
#
# Mechanical properties :
#
#
# Convention : Reuss Voigt Hill
#
# Bulk Modulus (GPa) = 37.58720 43.61157 40.59938
# Shear Modulus (GPa) = 37.91277 5.61042 21.76160
#
# Velocity S-wave (km/s) = 4.23971 1.63095 3.21210
# Velocity P-wave (km/s) = 6.46434 4.92176 5.74506
#
# Compressibility (1/GPa) = 0.02660480
#
# Stress axis : x y z
#
# Youngs Moduli (GPa) = 69.27655 59.64217 61.92569
#
# Poissons Ratio (x) = 0.36486 0.44123
# Poissons Ratio (y) = 0.42379 -0.17773
# Poissons Ratio (z) = 0.49361 -0.17118
#
# Static dielectric constant tensor:
#      x y z
#    x 1.780620 0.000000 0.000000 
#    y 0.000000 1.789180 0.000000 
#    z 0.000000 0.000000 1.737950 
# 
# From -- ./inp_files/6259.got.cif
#   From: 2010.05.17/outbox.cif.g08.bks.cpg/sg73_4_cif.got.tgz:6259.got - 2010.06.03 17:35:07.
