data_PCOD9532012
_publ_section_title
;
Structure prediction by ZEFSAII (Michael W. Deem and Ramdas Pophale) SiO2 
 PCOD9532012
Probable space group: I B C A 
;
_chemical_formula_sum "Si O2"
_cell_formula_units_Z 80
_cell_length_a 12.890649
_cell_length_b 26.764529
_cell_length_c 10.235234
_cell_angle_alpha 90.000000
_cell_angle_beta 90.000000
_cell_angle_gamma 90.000000
_cell_volume 3531.280078
_symmetry_space_group_name_H-M "I B C A "
_symmetry_group_IT_number 73
_symmetry_cell_setting 'orthorhombic'
loop_
_space_group_symop_operation_xyz
x,y,z
-x,1/2-y,z
x,-y,1/2-z
1/2-x,y,-z
-x,-y,-z
x,1/2+y,-z
-x,y,1/2+z
1/2+x,-y,z
1/2+x,1/2+y,1/2+z
1/2-x,-y,1/2+z
1/2+x,1/2-y,-z
-x,1/2+y,1/2-z
1/2-x,1/2-y,1/2-z
1/2+x,y,1/2-z
1/2-x,1/2+y,z
x,1/2-y,1/2+z
loop_
_atom_site_type_symbol
_atom_site_label
_atom_site_fract_x
_atom_site_fract_y
_atom_site_fract_z
Si Si1 0.938491 0.636384 0.120937
Si Si2 0.972872 0.192321 0.140494
Si Si3 0.799539 0.458405 0.135510
Si Si4 0.472047 0.945924 0.203679
Si Si5 0.291811 0.622237 0.682327
O O1 0.815717 0.628653 0.107604
O O2 0.952578 0.671202 0.248101
O O3 0.994911 0.586180 0.168721
O O4 0.986141 0.664225 0.997342
O O5 0.857320 0.173919 0.188263
O O6 0.000000 0.250000 0.124120
O O7 0.791575 0.500000 0.250000
O O8 0.745623 0.407099 0.185968
O O9 0.922675 0.449765 0.121577
O O10 0.750000 0.474779 0.000000
O O11 0.379758 0.916825 0.133462
O O12 0.438984 0.000000 0.250000
#
# Coordination Sequence:
#
# PCOD9532012 Si02
#       5
#    16  16  16  16  16
#     4  10  23  44  69  99 135 176 227 286 350 422
#     4  11  24  44  69  98 133 175 227 290 358 423
#     4  10  22  41  67 103 145 189 233 279 338 411
#     4   9  20  39  65 100 140 180 224 275 334 408
#     4  10  22  40  65  98 136 181 231 283 342 410
#
# _framework density 22.654672999999999
#
# number of rings (size 3 to 8) (size 9 to 14) (size 15 to 20)
#    0.000    2.000    0.000    1.800    0.000   16.000 
#    0.000   13.000    0.000    0.000    0.000    0.000 
#    0.000    0.000    0.000    0.000    0.000    0.000 
#
# Total GULP energy -223494.416041 kJ/mol
# GULP energy per Si atom -5587.360401 kJ/mol
# Density = 2.260311 g / cm^3
# Si number density = 22.654673 Si / 1000 Ang^3
#
#
#
# Elastic Constant Matrix: (Units=GPa)
#
#
# Indices 1 2 3 4 5 6 
#
# 1 133.0569 30.3874 49.4284 0.0001 0.0000 0.0000
# 2 30.3874 162.0486 54.1668 0.0000 0.0000 -0.0002
# 3 49.4284 54.1668 156.0550 0.0003 0.0000 0.0012
# 4 0.0001 0.0000 0.0003 11.8968 0.0000 0.0006
# 5 0.0000 0.0000 0.0000 0.0000 33.4995 0.0001
# 6 0.0000 -0.0002 0.0012 0.0006 0.0001 33.0278
#
#
#
# Elastic Compliance Matrix: (Units=1/GPa)
#
#
# Indices 1 2 3 4 5 6 
#
# 1 0.008607 -0.000795 -0.002450 0.000000 0.000000 0.000000
# 2 -0.000795 0.007054 -0.002197 0.000000 0.000000 0.000000
# 3 -0.002450 -0.002197 0.007947 0.000000 0.000000 0.000000
# 4 0.000000 0.000000 0.000000 0.084056 0.000000 -0.000002
# 5 0.000000 0.000000 0.000000 0.000000 0.029851 0.000000
# 6 0.000000 0.000000 0.000000 -0.000002 0.000000 0.030277
#
#
# Mechanical properties :
#
#
# Convention : Reuss Voigt Hill
#
# Bulk Modulus (GPa) = 78.59065 79.90284 79.24674
# Shear Modulus (GPa) = 27.33456 36.83003 32.08230
#
# Velocity S-wave (km/s) = 3.47735 4.03639 3.76725
# Velocity P-wave (km/s) = 7.13362 7.55445 7.34705
#
# Compressibility (1/GPa) = 0.01272416
#
# Stress axis : x y z
#
# Youngs Moduli (GPa) = 116.17905 141.75618 125.83988
#
# Poissons Ratio (x) = 0.11270 0.30835
# Poissons Ratio (y) = 0.09236 0.27644
# Poissons Ratio (z) = 0.28468 0.31141
#
# Static dielectric constant tensor:
#      x y z
#    x 1.867670 0.000000 0.000000 
#    y 0.000000 1.850720 0.000000 
#    z 0.000000 0.000000 1.901130 
# 
# From -- ./inp_files/11036.got.cif
#   From: 2010.05.17/outbox.cif.g08.bks.cpg/sg73_6_cif.got.tgz:11036.got - 2010.06.03 17:35:07.
