data_PCOD9532809
_publ_section_title
;
Structure prediction by ZEFSAII (Michael W. Deem and Ramdas Pophale) SiO2 
 PCOD9532809
Probable space group: I B C A 
;
_chemical_formula_sum "Si O2"
_cell_formula_units_Z 80
_cell_length_a 9.418911
_cell_length_b 16.005843
_cell_length_c 25.380892
_cell_angle_alpha 90.000000
_cell_angle_beta 90.000000
_cell_angle_gamma 90.000000
_cell_volume 3826.362635
_symmetry_space_group_name_H-M "I B C A "
_symmetry_group_IT_number 73
_symmetry_cell_setting 'orthorhombic'
loop_
_space_group_symop_operation_xyz
x,y,z
-x,1/2-y,z
x,-y,1/2-z
1/2-x,y,-z
-x,-y,-z
x,1/2+y,-z
-x,y,1/2+z
1/2+x,-y,z
1/2+x,1/2+y,1/2+z
1/2-x,-y,1/2+z
1/2+x,1/2-y,-z
-x,1/2+y,1/2-z
1/2-x,1/2-y,1/2-z
1/2+x,y,1/2-z
1/2-x,1/2+y,z
x,1/2-y,1/2+z
loop_
_atom_site_type_symbol
_atom_site_label
_atom_site_fract_x
_atom_site_fract_y
_atom_site_fract_z
Si Si1 0.279635 0.588315 0.438360
Si Si2 0.823779 0.821489 0.782776
Si Si3 0.945682 0.915758 0.222740
Si Si4 0.078061 0.443043 0.400469
Si Si5 0.167214 0.267358 0.385588
O O1 0.250000 0.594407 0.500000
O O2 0.173293 0.524871 0.408447
O O3 0.434564 0.548280 0.432419
O O4 0.286706 0.681873 0.413814
O O5 0.750000 0.750000 0.750000
O O6 0.722160 0.900887 0.773920
O O7 0.972659 0.844957 0.756468
O O8 0.786831 0.790979 0.841913
O O9 0.969366 0.926137 0.160295
O O10 0.987751 0.000000 0.250000
O O11 0.152115 0.355037 0.417021
O O12 0.000000 0.250000 0.367109
#
# Coordination Sequence:
#
# PCOD9532809 Si02
#       5
#    16  16  16  16  16
#     4  11  23  44  72  97 130 179 228 284 344 396
#     4  11  21  39  61  90 128 175 212 263 325 392
#     4  11  25  38  64  95 133 173 216 265 326 401
#     4  10  24  43  67  98 139 170 223 282 336 400
#     4   9  21  42  65  92 133 174 219 282 335 395
#
# _framework density 20.907585000000001
#
# number of rings (size 3 to 8) (size 9 to 14) (size 15 to 20)
#    0.000    1.600    0.000    5.400   11.200    0.800 
#    0.000    3.000    0.000    0.000    0.000    0.000 
#    0.000    0.000    0.000    0.000    0.000    0.000 
#
# Total GULP energy -222753.856357 kJ/mol
# GULP energy per Si atom -5568.846409 kJ/mol
# Density = 2.086000 g / cm^3
# Si number density = 20.907585 Si / 1000 Ang^3
#
#
#
# Elastic Constant Matrix: (Units=GPa)
#
#
# Indices 1 2 3 4 5 6 
#
# 1 87.9124 46.8337 58.8846 0.0000 0.0000 0.0000
# 2 46.8337 156.1078 52.2190 0.0000 0.0000 0.0000
# 3 58.8846 52.2190 82.0927 0.0000 0.0000 0.0000
# 4 0.0000 0.0000 0.0000 22.5295 0.0000 0.0000
# 5 0.0000 0.0000 0.0000 0.0000 25.9593 0.0000
# 6 0.0000 0.0000 0.0000 0.0000 0.0000 15.7716
#
#
#
# Elastic Compliance Matrix: (Units=1/GPa)
#
#
# Indices 1 2 3 4 5 6 
#
# 1 0.022242 -0.001697 -0.014875 0.000000 0.000000 0.000000
# 2 -0.001697 0.008267 -0.004041 0.000000 0.000000 0.000000
# 3 -0.014875 -0.004041 0.025421 0.000000 0.000000 0.000000
# 4 0.000000 0.000000 0.000000 0.044386 0.000000 0.000000
# 5 0.000000 0.000000 0.000000 0.000000 0.038522 0.000000
# 6 0.000000 0.000000 0.000000 0.000000 0.000000 0.063405
#
#
# Mechanical properties :
#
#
# Convention : Reuss Voigt Hill
#
# Bulk Modulus (GPa) = 68.00622 71.33193 69.66907
# Shear Modulus (GPa) = 20.13116 24.06379 22.09748
#
# Velocity S-wave (km/s) = 3.10637 3.39626 3.25455
# Velocity P-wave (km/s) = 6.74268 7.04068 6.89329
#
# Compressibility (1/GPa) = 0.01470454
#
# Stress axis : x y z
#
# Youngs Moduli (GPa) = 44.95932 120.96617 39.33697
#
# Poissons Ratio (x) = 0.20531 0.58512
# Poissons Ratio (y) = 0.07631 0.15896
# Poissons Ratio (z) = 0.66876 0.48883
#
# Static dielectric constant tensor:
#      x y z
#    x 2.084660 0.000000 0.000000 
#    y 0.000000 1.813930 0.000000 
#    z 0.000000 0.000000 1.942690 
# 
# From -- ./inp_files/31114.got.cif
#   From: 2010.05.17/outbox.cif.g08.bks.cpg/sg73_16_cif.got.tgz:31114.got - 2010.06.03 17:35:07.
