data_PCOD9532370
_publ_section_title
;
Structure prediction by ZEFSAII (Michael W. Deem and Ramdas Pophale) SiO2 
 PCOD9532370
Probable space group: I B C A 
;
_chemical_formula_sum "Si O2"
_cell_formula_units_Z 64
_cell_length_a 11.714256
_cell_length_b 11.906519
_cell_length_c 20.969946
_cell_angle_alpha 90.000000
_cell_angle_beta 90.000000
_cell_angle_gamma 90.000000
_cell_volume 2924.804432
_symmetry_space_group_name_H-M "I B C A "
_symmetry_group_IT_number 73
_symmetry_cell_setting 'orthorhombic'
loop_
_space_group_symop_operation_xyz
x,y,z
-x,1/2-y,z
x,-y,1/2-z
1/2-x,y,-z
-x,-y,-z
x,1/2+y,-z
-x,y,1/2+z
1/2+x,-y,z
1/2+x,1/2+y,1/2+z
1/2-x,-y,1/2+z
1/2+x,1/2-y,-z
-x,1/2+y,1/2-z
1/2-x,1/2-y,1/2-z
1/2+x,y,1/2-z
1/2-x,1/2+y,z
x,1/2-y,1/2+z
loop_
_atom_site_type_symbol
_atom_site_label
_atom_site_fract_x
_atom_site_fract_y
_atom_site_fract_z
Si Si1 0.289081 0.700439 0.071251
Si Si2 0.500000 0.750000 0.141975
Si Si3 0.910060 0.657823 0.667796
Si Si4 0.089925 0.021491 0.142954
Si Si5 0.237042 0.500000 0.250000
O O1 0.391379 0.779053 0.096935
O O2 0.182025 0.706413 0.118543
O O3 0.345272 0.575767 0.082480
O O4 0.250000 0.720353 0.000000
O O5 0.541535 0.863263 0.175564
O O6 0.840478 0.601196 0.725068
O O7 0.000000 0.750000 0.688780
O O8 0.985640 0.561431 0.633503
O O9 0.181888 0.969442 0.190794
#
# Coordination Sequence:
#
# PCOD9532370 Si02
#       5
#    16   8  16  16   8
#     4   9  21  41  70 102 132 179 217 272 346 400
#     4   8  20  44  66  94 140 168 222 278 328 412
#     4  11  24  41  66 101 133 177 231 281 337 404
#     4   9  21  43  62  94 137 173 223 277 330 402
#     4  10  22  46  62  94 132 180 230 274 342 392
#
# _framework density 21.881803999999999
#
# number of rings (size 3 to 8) (size 9 to 14) (size 15 to 20)
#    1.500    1.000    0.000    0.750    1.750    6.000 
#    9.000    2.500    0.000    0.000    0.000    0.000 
#    0.000    0.000    0.000    0.000    0.000    0.000 
#
# Total GULP energy -178442.390972 kJ/mol
# GULP energy per Si atom -5576.324718 kJ/mol
# Density = 2.183200 g / cm^3
# Si number density = 21.881804 Si / 1000 Ang^3
#
#
#
# Elastic Constant Matrix: (Units=GPa)
#
#
# Indices 1 2 3 4 5 6 
#
# 1 161.0111 42.1383 45.8280 0.0000 0.0000 0.0000
# 2 42.1383 65.2740 21.6266 0.0000 0.0000 0.0000
# 3 45.8280 21.6266 68.1917 0.0000 0.0000 0.0000
# 4 0.0000 0.0000 0.0000 5.5771 0.0000 0.0000
# 5 0.0000 0.0000 0.0000 0.0000 19.5088 0.0000
# 6 0.0000 0.0000 0.0000 0.0000 0.0000 17.6555
#
#
#
# Elastic Compliance Matrix: (Units=1/GPa)
#
#
# Indices 1 2 3 4 5 6 
#
# 1 0.008535 -0.004033 -0.004457 0.000000 0.000000 0.000000
# 2 -0.004033 0.019025 -0.003323 0.000000 0.000000 0.000000
# 3 -0.004457 -0.003323 0.018714 0.000000 0.000000 0.000000
# 4 0.000000 0.000000 0.000000 0.179304 0.000000 0.000000
# 5 0.000000 0.000000 0.000000 0.000000 0.051259 0.000000
# 6 0.000000 0.000000 0.000000 0.000000 0.000000 0.056640
#
#
# Mechanical properties :
#
#
# Convention : Reuss Voigt Hill
#
# Bulk Modulus (GPa) = 44.15566 57.07363 50.61464
# Shear Modulus (GPa) = 13.71174 20.87386 17.29280
#
# Velocity S-wave (km/s) = 2.50597 3.09194 2.81425
# Velocity P-wave (km/s) = 5.34754 6.23587 5.80871
#
# Compressibility (1/GPa) = 0.02264715
#
# Stress axis : x y z
#
# Youngs Moduli (GPa) = 117.16808 52.56333 53.43719
#
# Poissons Ratio (x) = 0.21199 0.23815
# Poissons Ratio (y) = 0.47255 0.17758
# Poissons Ratio (z) = 0.52218 0.17467
#
# Static dielectric constant tensor:
#      x y z
#    x 1.820640 0.000000 0.000000 
#    y 0.000000 1.827680 0.000000 
#    z 0.000000 0.000000 1.791370 
# 
# From -- ./inp_files/25211.got.cif
#   From: 2010.05.17/outbox.cif.g08.bks.cpg/sg73_13_cif.got.tgz:25211.got - 2010.06.03 17:35:07.
