data_PCOD9532948
_publ_section_title
;
Structure prediction by ZEFSAII (Michael W. Deem and Ramdas Pophale) SiO2 
 PCOD9532948
Probable space group: I B C A 
;
_chemical_formula_sum "Si O2"
_cell_formula_units_Z 112
_cell_length_a 14.116707
_cell_length_b 13.981616
_cell_length_c 23.122308
_cell_angle_alpha 90.000000
_cell_angle_beta 90.000000
_cell_angle_gamma 90.000000
_cell_volume 4563.751124
_symmetry_space_group_name_H-M "I B C A "
_symmetry_group_IT_number 73
_symmetry_cell_setting 'orthorhombic'
loop_
_space_group_symop_operation_xyz
x,y,z
-x,1/2-y,z
x,-y,1/2-z
1/2-x,y,-z
-x,-y,-z
x,1/2+y,-z
-x,y,1/2+z
1/2+x,-y,z
1/2+x,1/2+y,1/2+z
1/2-x,-y,1/2+z
1/2+x,1/2-y,-z
-x,1/2+y,1/2-z
1/2-x,1/2-y,1/2-z
1/2+x,y,1/2-z
1/2-x,1/2+y,z
x,1/2-y,1/2+z
loop_
_atom_site_type_symbol
_atom_site_label
_atom_site_fract_x
_atom_site_fract_y
_atom_site_fract_z
Si Si1 0.848732 0.519761 0.470314
Si Si2 0.474958 0.010229 0.184022
Si Si3 0.492496 0.357115 0.025675
Si Si4 0.152173 0.325645 0.294744
Si Si5 0.765402 0.336886 0.671474
Si Si6 0.571042 0.830609 0.605811
Si Si7 0.814366 0.544106 0.342941
O O1 0.750000 0.490733 0.500000
O O2 0.915652 0.431411 0.449574
O O3 0.827989 0.572048 0.409854
O O4 0.909270 0.585645 0.514566
O O5 0.439307 0.932341 0.137890
O O6 0.438940 0.000000 0.250000
O O7 0.432768 0.116643 0.174488
O O8 0.585226 0.983603 0.184305
O O9 0.500000 0.250000 0.050727
O O10 0.453207 0.343193 0.960546
O O11 0.161258 0.321411 0.225095
O O12 0.168712 0.218976 0.316927
O O13 0.250919 0.378517 0.310855
O O14 0.821505 0.299730 0.615906
O O15 0.743999 0.446805 0.662300
O O16 0.500000 0.750000 0.629923
#
# Coordination Sequence:
#
# PCOD9532948 Si02
#       7
#    16  16  16  16  16  16  16
#     4  11  25  45  69  98 130 171 219 277 344 401
#     4  12  22  40  66  95 134 178 214 267 328 385
#     4  10  24  47  69  98 131 168 225 283 331 408
#     4  11  24  41  63  97 137 178 224 271 323 396
#     4  11  23  42  63  96 138 177 221 276 322 395
#     4  11  21  40  69  93 125 176 226 264 327 397
#     4  12  24  43  65  98 132 174 220 274 337 393
#
# _framework density 24.541215000000001
#
# number of rings (size 3 to 8) (size 9 to 14) (size 15 to 20)
#    0.000    0.857    4.286    3.000    2.000    2.286 
#    5.143    0.000    0.000    0.000    0.000    0.000 
#    0.000    0.000    0.000    0.000    0.000    0.000 
#
# Total GULP energy -313013.389689 kJ/mol
# GULP energy per Si atom -5589.524816 kJ/mol
# Density = 2.448536 g / cm^3
# Si number density = 24.541215 Si / 1000 Ang^3
#
#
#
# Elastic Constant Matrix: (Units=GPa)
#
#
# Indices 1 2 3 4 5 6 
#
# 1 62.7818 -8.0704 -5.0967 0.0000 0.0000 0.0000
# 2 -8.0704 89.6506 -1.6607 0.0000 0.0000 0.0000
# 3 -5.0967 -1.6607 48.8725 0.0000 0.0000 0.0000
# 4 0.0000 0.0000 0.0000 31.2822 0.0000 0.0000
# 5 0.0000 0.0000 0.0000 0.0000 19.8483 0.0000
# 6 0.0000 0.0000 0.0000 0.0000 0.0000 34.0390
#
#
#
# Elastic Compliance Matrix: (Units=1/GPa)
#
#
# Indices 1 2 3 4 5 6 
#
# 1 0.016262 0.001496 0.001747 0.000000 0.000000 0.000000
# 2 0.001496 0.011299 0.000540 0.000000 0.000000 0.000000
# 3 0.001747 0.000540 0.020662 0.000000 0.000000 0.000000
# 4 0.000000 0.000000 0.000000 0.031967 0.000000 0.000000
# 5 0.000000 0.000000 0.000000 0.000000 0.050382 0.000000
# 6 0.000000 0.000000 0.000000 0.000000 0.000000 0.029378
#
#
# Mechanical properties :
#
#
# Convention : Reuss Voigt Hill
#
# Bulk Modulus (GPa) = 17.92450 19.07212 18.49831
# Shear Modulus (GPa) = 29.24302 31.44276 30.34289
#
# Velocity S-wave (km/s) = 3.45568 3.58330 3.52007
# Velocity P-wave (km/s) = 4.82100 4.99083 4.90665
#
# Compressibility (1/GPa) = 0.05578957
#
# Stress axis : x y z
#
# Youngs Moduli (GPa) = 61.49175 88.50250 48.39817
#
# Poissons Ratio (x) = -0.13243 -0.08454
# Poissons Ratio (y) = -0.09201 -0.02613
# Poissons Ratio (z) = -0.10741 -0.04779
#
# Static dielectric constant tensor:
#      x y z
#    x 2.078660 0.000000 0.000000 
#    y 0.000000 2.070670 0.000000 
#    z 0.000000 0.000000 1.979120 
# 
# From -- ./inp_files/17235.got.cif
#   From: 2010.05.17/outbox.cif.g08.bks.cpg/sg73_9_cif.got.tgz:17235.got - 2010.06.03 17:35:07.
