data_PCOD9532427
_publ_section_title
;
Structure prediction by ZEFSAII (Michael W. Deem and Ramdas Pophale) SiO2 
 PCOD9532427
Probable space group: I B C A 
;
_chemical_formula_sum "Si O2"
_cell_formula_units_Z 120
_cell_length_a 18.630933
_cell_length_b 17.225520
_cell_length_c 17.668314
_cell_angle_alpha 90.000000
_cell_angle_beta 90.000000
_cell_angle_gamma 90.000000
_cell_volume 5670.248000
_symmetry_space_group_name_H-M "I B C A "
_symmetry_group_IT_number 73
_symmetry_cell_setting 'orthorhombic'
loop_
_space_group_symop_operation_xyz
x,y,z
-x,1/2-y,z
x,-y,1/2-z
1/2-x,y,-z
-x,-y,-z
x,1/2+y,-z
-x,y,1/2+z
1/2+x,-y,z
1/2+x,1/2+y,1/2+z
1/2-x,-y,1/2+z
1/2+x,1/2-y,-z
-x,1/2+y,1/2-z
1/2-x,1/2-y,1/2-z
1/2+x,y,1/2-z
1/2-x,1/2+y,z
x,1/2-y,1/2+z
loop_
_atom_site_type_symbol
_atom_site_label
_atom_site_fract_x
_atom_site_fract_y
_atom_site_fract_z
Si Si1 0.323806 0.085918 0.713612
Si Si2 0.500000 0.750000 0.557486
Si Si3 0.582231 0.862062 0.159716
Si Si4 0.470997 0.664328 0.768269
Si Si5 0.819223 0.578329 0.547635
Si Si6 0.486055 0.621003 0.940387
Si Si7 0.672882 0.916130 0.775444
Si Si8 0.615233 0.016952 0.068562
O O1 0.364875 0.145396 0.768631
O O2 0.240192 0.100530 0.722643
O O3 0.349999 0.076603 0.628187
O O4 0.336855 0.000000 0.750000
O O5 0.437318 0.787166 0.609385
O O6 0.480555 0.680597 0.500565
O O7 0.508443 0.886045 0.202434
O O8 0.610413 0.932159 0.108184
O O9 0.500000 0.750000 0.753996
O O10 0.494558 0.644489 0.853088
O O11 0.387038 0.648815 0.767324
O O12 0.750000 0.609917 0.500000
O O13 0.899762 0.616555 0.546260
O O14 0.801685 0.575894 0.636901
O O15 0.837872 0.496788 0.506381
O O16 0.534955 0.545160 0.946495
O O17 0.642537 0.000000 0.750000
#
# Coordination Sequence:
#
# PCOD9532427 Si02
#       8
#    16   8  16  16  16  16  16  16
#     4   9  19  39  64  95 128 164 220 274 333 395
#     4  12  24  38  62  90 132 166 216 270 324 404
#     4  11  22  38  66  91 123 171 216 271 328 394
#     4  11  23  40  60  90 130 171 215 274 327 398
#     4  11  22  38  64  98 136 170 214 274 337 393
#     4  11  24  40  64  95 130 172 219 273 330 392
#     4  10  23  38  64  98 129 171 226 274 328 402
#     4  11  22  40  68  98 128 169 222 282 336 388
#
# _framework density 21.163094999999998
#
# number of rings (size 3 to 8) (size 9 to 14) (size 15 to 20)
#    0.000    1.333    4.000    2.800    3.733    0.000 
#    0.000    0.667    0.000    2.400    0.000    0.000 
#    0.000    0.000    0.000    0.000    0.000    0.000 
#
# Total GULP energy -334354.710802 kJ/mol
# GULP energy per Si atom -5572.578513 kJ/mol
# Density = 2.111493 g / cm^3
# Si number density = 21.163095 Si / 1000 Ang^3
#
#
#
# Elastic Constant Matrix: (Units=GPa)
#
#
# Indices 1 2 3 4 5 6 
#
# 1 103.8627 36.4489 31.1580 0.0000 0.0000 0.0000
# 2 36.4489 41.9771 15.9316 0.0000 0.0000 0.0000
# 3 31.1580 15.9316 102.4520 0.0000 0.0000 0.0000
# 4 0.0000 0.0000 0.0000 23.9035 0.0000 0.0000
# 5 0.0000 0.0000 0.0000 0.0000 42.4593 0.0000
# 6 0.0000 0.0000 0.0000 0.0000 0.0000 18.7631
#
#
#
# Elastic Compliance Matrix: (Units=1/GPa)
#
#
# Indices 1 2 3 4 5 6 
#
# 1 0.014472 -0.011579 -0.002601 0.000000 0.000000 0.000000
# 2 -0.011579 0.034581 -0.001856 0.000000 0.000000 0.000000
# 3 -0.002601 -0.001856 0.010840 0.000000 0.000000 0.000000
# 4 0.000000 0.000000 0.000000 0.041835 0.000000 0.000000
# 5 0.000000 0.000000 0.000000 0.000000 0.023552 0.000000
# 6 0.000000 0.000000 0.000000 0.000000 0.000000 0.053296
#
#
# Mechanical properties :
#
#
# Convention : Reuss Voigt Hill
#
# Bulk Modulus (GPa) = 35.94305 46.15207 41.04756
# Shear Modulus (GPa) = 22.73549 28.00874 25.37212
#
# Velocity S-wave (km/s) = 3.28121 3.64190 3.46625
# Velocity P-wave (km/s) = 5.60141 6.28806 5.95464
#
# Compressibility (1/GPa) = 0.02782179
#
# Stress axis : x y z
#
# Youngs Moduli (GPa) = 69.10064 28.91774 92.24927
#
# Poissons Ratio (x) = 0.33483 0.23991
# Poissons Ratio (y) = 0.80010 0.17122
# Poissons Ratio (z) = 0.17970 0.05367
#
# Static dielectric constant tensor:
#      x y z
#    x 1.808590 0.000000 0.000000 
#    y 0.000000 1.803200 0.000000 
#    z 0.000000 0.000000 1.813420 
# 
# From -- ./inp_files/22681.got.cif
#   From: 2010.05.17/outbox.cif.g08.bks.cpg/sg73_12_cif.got.tgz:22681.got - 2010.06.03 17:35:07.
