data_PCOD9532556
_publ_section_title
;
Structure prediction by ZEFSAII (Michael W. Deem and Ramdas Pophale) SiO2 
 PCOD9532556
Probable space group: I B C A 
;
_chemical_formula_sum "Si O2"
_cell_formula_units_Z 120
_cell_length_a 17.596915
_cell_length_b 11.190976
_cell_length_c 26.352816
_cell_angle_alpha 90.000000
_cell_angle_beta 90.000000
_cell_angle_gamma 90.000000
_cell_volume 5189.571864
_symmetry_space_group_name_H-M "I B C A "
_symmetry_group_IT_number 73
_symmetry_cell_setting 'orthorhombic'
loop_
_space_group_symop_operation_xyz
x,y,z
-x,1/2-y,z
x,-y,1/2-z
1/2-x,y,-z
-x,-y,-z
x,1/2+y,-z
-x,y,1/2+z
1/2+x,-y,z
1/2+x,1/2+y,1/2+z
1/2-x,-y,1/2+z
1/2+x,1/2-y,-z
-x,1/2+y,1/2-z
1/2-x,1/2-y,1/2-z
1/2+x,y,1/2-z
1/2-x,1/2+y,z
x,1/2-y,1/2+z
loop_
_atom_site_type_symbol
_atom_site_label
_atom_site_fract_x
_atom_site_fract_y
_atom_site_fract_z
Si Si1 0.133112 0.743138 0.050762
Si Si2 0.663127 0.612450 0.289575
Si Si3 0.505168 0.438709 0.554179
Si Si4 0.255155 0.589378 0.403114
Si Si5 0.084909 0.947782 0.864934
Si Si6 0.750000 0.910953 0.000000
Si Si7 0.078711 0.739235 0.784261
Si Si8 0.179448 0.955614 0.308161
O O1 0.066752 0.649447 0.063418
O O2 0.206404 0.784152 0.083183
O O3 0.083389 0.864850 0.051051
O O4 0.176468 0.675484 0.004959
O O5 0.665065 0.500000 0.250000
O O6 0.605385 0.567226 0.332486
O O7 0.640590 0.726242 0.257393
O O8 0.746528 0.628963 0.311806
O O9 0.500000 0.500000 0.500000
O O10 0.486225 0.533590 0.598039
O O11 0.165037 0.588136 0.391431
O O12 0.259893 0.497349 0.450933
O O13 0.301543 0.546620 0.353096
O O14 0.071305 0.842698 0.825363
O O15 0.102667 0.618769 0.811706
O O16 0.000000 0.750000 0.754920
O O17 0.177871 0.000000 0.250000
#
# Coordination Sequence:
#
# PCOD9532556 Si02
#       8
#    16  16  16  16  16   8  16  16
#     4  11  26  43  72 100 137 187 235 290 368 413
#     4   8  18  41  66  89 128 172 222 281 338 410
#     4  11  25  47  66 101 141 183 229 294 357 432
#     4  11  25  45  74 105 135 185 239 299 349 427
#     4  10  23  44  68  98 141 177 235 293 352 421
#     4  12  24  46  70 106 140 186 250 296 344 438
#     4  11  24  40  65 101 135 188 221 285 360 418
#     4  10  23  43  68 102 136 176 233 294 349 428
#
# _framework density 23.123296
#
# number of rings (size 3 to 8) (size 9 to 14) (size 15 to 20)
#    0.000    1.600    1.333    2.400    5.600    2.667 
#    4.800    0.000    0.000    0.000    0.000    0.000 
#    0.000    0.000    0.000    0.000    0.000    0.000 
#
# Total GULP energy -334534.678507 kJ/mol
# GULP energy per Si atom -5575.577975 kJ/mol
# Density = 2.307067 g / cm^3
# Si number density = 23.123296 Si / 1000 Ang^3
#
#
#
# Elastic Constant Matrix: (Units=GPa)
#
#
# Indices 1 2 3 4 5 6 
#
# 1 60.3778 16.6840 18.8530 0.0000 0.0000 0.0000
# 2 16.6840 40.7210 27.4070 0.0000 0.0000 0.0000
# 3 18.8530 27.4070 104.7622 0.0000 0.0000 0.0000
# 4 0.0000 0.0000 0.0000 19.9336 0.0000 0.0000
# 5 0.0000 0.0000 0.0000 0.0000 35.8574 0.0000
# 6 0.0000 0.0000 0.0000 0.0000 0.0000 24.6832
#
#
#
# Elastic Compliance Matrix: (Units=1/GPa)
#
#
# Indices 1 2 3 4 5 6 
#
# 1 0.018915 -0.006625 -0.001671 0.000000 0.000000 0.000000
# 2 -0.006625 0.032126 -0.007212 0.000000 0.000000 0.000000
# 3 -0.001671 -0.007212 0.011733 0.000000 0.000000 0.000000
# 4 0.000000 0.000000 0.000000 0.050167 0.000000 0.000000
# 5 0.000000 0.000000 0.000000 0.000000 0.027888 0.000000
# 6 0.000000 0.000000 0.000000 0.000000 0.000000 0.040513
#
#
# Mechanical properties :
#
#
# Convention : Reuss Voigt Hill
#
# Bulk Modulus (GPa) = 31.48877 36.86099 34.17488
# Shear Modulus (GPa) = 22.42717 25.62264 24.02491
#
# Velocity S-wave (km/s) = 3.11769 3.33241 3.22684
# Velocity P-wave (km/s) = 5.15823 5.54818 5.35675
#
# Compressibility (1/GPa) = 0.03175735
#
# Stress axis : x y z
#
# Youngs Moduli (GPa) = 52.86879 31.12745 85.23046
#
# Poissons Ratio (x) = 0.20623 0.14239
# Poissons Ratio (y) = 0.35027 0.61470
# Poissons Ratio (z) = 0.08833 0.22450
#
# Static dielectric constant tensor:
#      x y z
#    x 1.959800 0.000000 0.000000 
#    y 0.000000 1.891150 0.000000 
#    z 0.000000 0.000000 1.885940 
# 
# From -- ./inp_files/32480.got.cif
#   From: 2010.05.17/outbox.cif.g08.bks.cpg/sg73_17_cif.got.tgz:32480.got - 2010.06.03 17:35:07.
