data_PCOD9532814
_publ_section_title
;
Structure prediction by ZEFSAII (Michael W. Deem and Ramdas Pophale) SiO2 
 PCOD9532814
Probable space group: I B C A 
;
_chemical_formula_sum "Si O2"
_cell_formula_units_Z 96
_cell_length_a 8.467638
_cell_length_b 17.064076
_cell_length_c 28.176999
_cell_angle_alpha 90.000000
_cell_angle_beta 90.000000
_cell_angle_gamma 90.000000
_cell_volume 4071.362728
_symmetry_space_group_name_H-M "I B C A "
_symmetry_group_IT_number 73
_symmetry_cell_setting 'orthorhombic'
loop_
_space_group_symop_operation_xyz
x,y,z
-x,1/2-y,z
x,-y,1/2-z
1/2-x,y,-z
-x,-y,-z
x,1/2+y,-z
-x,y,1/2+z
1/2+x,-y,z
1/2+x,1/2+y,1/2+z
1/2-x,-y,1/2+z
1/2+x,1/2-y,-z
-x,1/2+y,1/2-z
1/2-x,1/2-y,1/2-z
1/2+x,y,1/2-z
1/2-x,1/2+y,z
x,1/2-y,1/2+z
loop_
_atom_site_type_symbol
_atom_site_label
_atom_site_fract_x
_atom_site_fract_y
_atom_site_fract_z
Si Si1 0.521216 0.071838 0.192851
Si Si2 0.500000 0.750000 0.959291
Si Si3 0.976108 0.661961 0.379396
Si Si4 0.250000 0.041530 0.500000
Si Si5 0.599526 0.391475 0.975291
Si Si6 0.676588 0.383469 0.596967
Si Si7 0.342859 0.400057 0.288141
O O1 0.560168 0.098021 0.139995
O O2 0.618931 0.117648 0.233552
O O3 0.340215 0.084079 0.205129
O O4 0.567753 0.980984 0.198773
O O5 0.620531 0.697808 0.928191
O O6 0.413351 0.686941 0.993015
O O7 0.149188 0.623884 0.380686
O O8 0.000000 0.750000 0.396128
O O9 0.868860 0.623361 0.420339
O O10 0.901175 0.660076 0.327677
O O11 0.426294 0.072849 0.480164
O O12 0.323729 0.050828 0.556550
O O13 0.750000 0.439902 0.000000
#
# Coordination Sequence:
#
# PCOD9532814 Si02
#       7
#    16   8  16   8  16  16  16
#     4  11  24  46  77 106 149 189 247 314 376 456
#     4  12  26  42  70  96 158 192 250 296 400 444
#     4  12  25  44  71 104 145 199 245 311 383 454
#     4  10  26  44  72 106 146 192 262 306 364 448
#     4  10  24  43  68 102 145 195 244 311 362 452
#     4  12  27  45  70 110 145 201 249 316 378 461
#     4  11  24  46  76 110 144 192 249 308 382 448
#
# _framework density 23.579329000000001
#
# number of rings (size 3 to 8) (size 9 to 14) (size 15 to 20)
#    0.500    0.333    0.833    7.000    5.833    4.000 
#    1.500    1.667    0.000    0.000    0.000    0.000 
#    0.000    0.000    0.000    0.000    0.000    0.000 
#
# Total GULP energy -268305.906044 kJ/mol
# GULP energy per Si atom -5589.706376 kJ/mol
# Density = 2.352566 g / cm^3
# Si number density = 23.579329 Si / 1000 Ang^3
#
#
#
# Elastic Constant Matrix: (Units=GPa)
#
#
# Indices 1 2 3 4 5 6 
#
# 1 126.4513 19.6238 50.1893 0.0000 0.0000 0.0000
# 2 19.6238 90.9273 39.1743 0.0000 0.0000 0.0000
# 3 50.1893 39.1743 159.0179 0.0000 0.0000 0.0000
# 4 0.0000 0.0000 0.0000 36.1692 0.0000 0.0000
# 5 0.0000 0.0000 0.0000 0.0000 44.1359 0.0000
# 6 0.0000 0.0000 0.0000 0.0000 0.0000 32.3595
#
#
#
# Elastic Compliance Matrix: (Units=1/GPa)
#
#
# Indices 1 2 3 4 5 6 
#
# 1 0.009094 -0.000812 -0.002670 0.000000 0.000000 0.000000
# 2 -0.000812 0.012376 -0.002793 0.000000 0.000000 0.000000
# 3 -0.002670 -0.002793 0.007819 0.000000 0.000000 0.000000
# 4 0.000000 0.000000 0.000000 0.027648 0.000000 0.000000
# 5 0.000000 0.000000 0.000000 0.000000 0.022657 0.000000
# 6 0.000000 0.000000 0.000000 0.000000 0.000000 0.030903
#
#
# Mechanical properties :
#
#
# Convention : Reuss Voigt Hill
#
# Bulk Modulus (GPa) = 59.73850 66.04127 62.88988
# Shear Modulus (GPa) = 38.87197 40.36017 39.61607
#
# Velocity S-wave (km/s) = 4.06465 4.14173 4.10337
# Velocity P-wave (km/s) = 6.88612 7.13728 7.01283
#
# Compressibility (1/GPa) = 0.01673962
#
# Stress axis : x y z
#
# Youngs Moduli (GPa) = 109.96207 80.80014 127.88862
#
# Poissons Ratio (x) = 0.06563 0.34148
# Poissons Ratio (y) = 0.08932 0.35713
# Poissons Ratio (z) = 0.29362 0.22564
#
# Static dielectric constant tensor:
#      x y z
#    x 1.882940 0.000000 0.000000 
#    y 0.000000 1.964910 0.000000 
#    z 0.000000 0.000000 1.927990 
# 
# From -- ./inp_files/7222.got.cif
#   From: 2010.05.17/outbox.cif.g08.bks.cpg/sg73_4_cif.got.tgz:7222.got - 2010.06.03 17:35:07.
