data_PCOD9532018
_publ_section_title
;
Structure prediction by ZEFSAII (Michael W. Deem and Ramdas Pophale) SiO2 
 PCOD9532018
Probable space group: I B C A 
;
_chemical_formula_sum "Si O2"
_cell_formula_units_Z 96
_cell_length_a 23.860196
_cell_length_b 8.983305
_cell_length_c 20.386001
_cell_angle_alpha 90.000000
_cell_angle_beta 90.000000
_cell_angle_gamma 90.000000
_cell_volume 4369.605134
_symmetry_space_group_name_H-M "I B C A "
_symmetry_group_IT_number 73
_symmetry_cell_setting 'orthorhombic'
loop_
_space_group_symop_operation_xyz
x,y,z
-x,1/2-y,z
x,-y,1/2-z
1/2-x,y,-z
-x,-y,-z
x,1/2+y,-z
-x,y,1/2+z
1/2+x,-y,z
1/2+x,1/2+y,1/2+z
1/2-x,-y,1/2+z
1/2+x,1/2-y,-z
-x,1/2+y,1/2-z
1/2-x,1/2-y,1/2-z
1/2+x,y,1/2-z
1/2-x,1/2+y,z
x,1/2-y,1/2+z
loop_
_atom_site_type_symbol
_atom_site_label
_atom_site_fract_x
_atom_site_fract_y
_atom_site_fract_z
Si Si1 0.810428 0.540985 0.368439
Si Si2 0.630067 0.318718 0.312735
Si Si3 0.275565 0.500000 0.750000
Si Si4 0.389585 0.799725 0.929436
Si Si5 0.966988 0.000000 0.250000
Si Si6 0.137374 0.031193 0.549039
Si Si7 0.500000 0.250000 0.655185
Si Si8 0.250000 0.020372 0.000000
O O1 0.856213 0.656146 0.340091
O O2 0.763505 0.520456 0.313055
O O3 0.844496 0.391919 0.386895
O O4 0.778721 0.592713 0.435265
O O5 0.681942 0.365115 0.266127
O O6 0.573482 0.367401 0.276752
O O7 0.627858 0.420368 0.377400
O O8 0.363801 0.645821 0.954049
O O9 0.444320 0.757242 0.888712
O O10 0.402324 0.898315 0.994014
O O11 0.000548 0.905219 0.196313
O O12 0.199890 0.076967 0.529237
#
# Coordination Sequence:
#
# PCOD9532018 Si02
#       8
#    16  16   8  16   8  16   8   8
#     4  11  25  39  71 106 150 191 241 289 353 442
#     4  11  24  46  66 109 144 190 231 294 356 437
#     4  11  24  39  70 104 150 199 236 283 356 442
#     4  11  27  45  72 104 138 188 244 305 363 428
#     4  11  28  49  78  98 148 183 244 311 374 430
#     4  11  22  45  68 104 146 180 237 289 354 433
#     4  12  28  54  74 104 132 192 246 314 378 436
#     4  10  22  40  66 104 144 192 222 280 352 424
#
# _framework density 21.969947999999999
#
# number of rings (size 3 to 8) (size 9 to 14) (size 15 to 20)
#    0.000    1.000    3.333    2.500    7.000    4.000 
#    0.000    0.000    0.000    0.000    0.000    0.000 
#    0.000    0.000    0.000    0.000    0.000    0.000 
#
# Total GULP energy -268100.987123 kJ/mol
# GULP energy per Si atom -5585.437232 kJ/mol
# Density = 2.191994 g / cm^3
# Si number density = 21.969948 Si / 1000 Ang^3
#
#
#
# Elastic Constant Matrix: (Units=GPa)
#
#
# Indices 1 2 3 4 5 6 
#
# 1 64.6475 18.7644 38.8880 0.0000 0.0000 0.0000
# 2 18.7644 112.8761 17.7990 0.0000 0.0000 0.0000
# 3 38.8880 17.7990 104.0368 0.0000 0.0000 0.0000
# 4 0.0000 0.0000 0.0000 37.9748 0.0000 0.0000
# 5 0.0000 0.0000 0.0000 0.0000 24.9812 0.0000
# 6 0.0000 0.0000 0.0000 0.0000 0.0000 -8.7233
#
#
#
# Elastic Compliance Matrix: (Units=1/GPa)
#
#
# Indices 1 2 3 4 5 6 
#
# 1 0.020502 -0.002261 -0.007277 0.000000 0.000000 0.000000
# 2 -0.002261 0.009354 -0.000755 0.000000 0.000000 0.000000
# 3 -0.007277 -0.000755 0.012461 0.000000 0.000000 0.000000
# 4 0.000000 0.000000 0.000000 0.026333 0.000000 0.000000
# 5 0.000000 0.000000 0.000000 0.000000 0.040030 0.000000
# 6 0.000000 0.000000 0.000000 0.000000 0.000000 -0.114636
#
#
# Mechanical properties :
#
#
# Convention : Reuss Voigt Hill
#
# Bulk Modulus (GPa) = 46.01551 48.05149 47.03350
# Shear Modulus (GPa) = 228.58137 24.58715 126.58426
#
# Velocity S-wave (km/s) = 10.21120 3.34896 7.59882
# Velocity P-wave (km/s) = 12.64971 6.07232 9.92190
#
# Compressibility (1/GPa) = 0.02173180
#
# Stress axis : x y z
#
# Youngs Moduli (GPa) = 48.77602 106.90387 80.24948
#
# Poissons Ratio (x) = 0.24169 0.58395
# Poissons Ratio (y) = 0.11027 0.06061
# Poissons Ratio (z) = 0.35493 0.08074
#
# Static dielectric constant tensor:
#      x y z
#    x 1.763090 0.000000 0.000000 
#    y 0.000000 1.819770 0.000000 
#    z 0.000000 0.000000 1.826300 
# 
# From -- ./inp_files/27569.got.cif
#   From: 2010.05.17/outbox.cif.g08.bks.cpg/sg73_14_cif.got.tgz:27569.got - 2010.06.03 17:35:07.
