data_PCOD9532846
_publ_section_title
;
Structure prediction by ZEFSAII (Michael W. Deem and Ramdas Pophale) SiO2 
 PCOD9532846
Probable space group: I B C A 
;
_chemical_formula_sum "Si O2"
_cell_formula_units_Z 64
_cell_length_a 11.424690
_cell_length_b 12.639777
_cell_length_c 18.528754
_cell_angle_alpha 90.000000
_cell_angle_beta 90.000000
_cell_angle_gamma 90.000000
_cell_volume 2675.654614
_symmetry_space_group_name_H-M "I B C A "
_symmetry_group_IT_number 73
_symmetry_cell_setting 'orthorhombic'
loop_
_space_group_symop_operation_xyz
x,y,z
-x,1/2-y,z
x,-y,1/2-z
1/2-x,y,-z
-x,-y,-z
x,1/2+y,-z
-x,y,1/2+z
1/2+x,-y,z
1/2+x,1/2+y,1/2+z
1/2-x,-y,1/2+z
1/2+x,1/2-y,-z
-x,1/2+y,1/2-z
1/2-x,1/2-y,1/2-z
1/2+x,y,1/2-z
1/2-x,1/2+y,z
x,1/2-y,1/2+z
loop_
_atom_site_type_symbol
_atom_site_label
_atom_site_fract_x
_atom_site_fract_y
_atom_site_fract_z
Si Si1 0.181090 0.299853 0.936166
Si Si2 0.370505 0.240959 0.816055
Si Si3 0.049011 0.411552 0.444489
Si Si4 0.687089 0.406793 0.197346
O O1 0.273355 0.282045 0.872697
O O2 0.124400 0.191649 0.971371
O O3 0.069532 0.364108 0.910554
O O4 0.250000 0.357171 0.000000
O O5 0.500000 0.250000 0.846062
O O6 0.365918 0.304613 0.740202
O O7 0.324431 0.121686 0.806989
O O8 0.132286 0.441914 0.378272
O O9 0.000000 0.500000 0.500000
O O10 0.664145 0.500000 0.250000
#
# Coordination Sequence:
#
# PCOD9532846 Si02
#       4
#    16  16  16  16
#     4  10  24  44  70 101 142 185 232 290 353 423
#     4  10  24  44  71 101 144 186 233 287 352 422
#     4  10  24  46  73 102 140 182 234 294 354 424
#     4  10  24  44  72 106 138 183 237 291 352 424
#
# _framework density 23.91938
#
# number of rings (size 3 to 8) (size 9 to 14) (size 15 to 20)
#    0.000    2.000    0.000    0.000   17.500    2.000 
#    4.500    0.000    0.000    0.000    0.000    0.000 
#    0.000    0.000    0.000    0.000    0.000    0.000 
#
# Total GULP energy -178449.230286 kJ/mol
# GULP energy per Si atom -5576.538446 kJ/mol
# Density = 2.386494 g / cm^3
# Si number density = 23.919380 Si / 1000 Ang^3
#
#
#
# Elastic Constant Matrix: (Units=GPa)
#
#
# Indices 1 2 3 4 5 6 
#
# 1 155.3819 29.3196 37.0820 0.0000 0.0000 0.0000
# 2 29.3196 71.0816 41.4115 0.0000 0.0000 0.0000
# 3 37.0820 41.4115 103.4756 0.0000 0.0000 0.0000
# 4 0.0000 0.0000 0.0000 81.7100 0.0000 0.0000
# 5 0.0000 0.0000 0.0000 0.0000 36.1604 0.0000
# 6 0.0000 0.0000 0.0000 0.0000 0.0000 13.1379
#
#
#
# Elastic Compliance Matrix: (Units=1/GPa)
#
#
# Indices 1 2 3 4 5 6 
#
# 1 0.007233 -0.001921 -0.001823 0.000000 0.000000 0.000000
# 2 -0.001921 0.018856 -0.006858 0.000000 0.000000 0.000000
# 3 -0.001823 -0.006858 0.013062 0.000000 0.000000 0.000000
# 4 0.000000 0.000000 0.000000 0.012238 0.000000 0.000000
# 5 0.000000 0.000000 0.000000 0.000000 0.027655 0.000000
# 6 0.000000 0.000000 0.000000 0.000000 0.000000 0.076116
#
#
# Mechanical properties :
#
#
# Convention : Reuss Voigt Hill
#
# Bulk Modulus (GPa) = 55.72044 60.61838 58.16941
# Shear Modulus (GPa) = 27.42021 41.01008 34.21514
#
# Velocity S-wave (km/s) = 3.38947 4.14516 3.78621
# Velocity P-wave (km/s) = 6.21801 6.95037 6.59436
#
# Compressibility (1/GPa) = 0.01794674
#
# Stress axis : x y z
#
# Youngs Moduli (GPa) = 138.24692 53.03305 76.55782
#
# Poissons Ratio (x) = 0.10190 0.13958
# Poissons Ratio (y) = 0.26563 0.52502
# Poissons Ratio (z) = 0.25206 0.36369
#
# Static dielectric constant tensor:
#      x y z
#    x 1.187070 0.000000 0.000000 
#    y 0.000000 2.091550 0.000000 
#    z 0.000000 0.000000 1.945420 
# 
# From -- ./inp_files/21039.got.cif
#   From: 2010.05.17/outbox.cif.g08.bks.cpg/sg73_11_cif.got.tgz:21039.got - 2010.06.03 17:35:07.
