data_PCOD9532871
_publ_section_title
;
Structure prediction by ZEFSAII (Michael W. Deem and Ramdas Pophale) SiO2 
 PCOD9532871
Probable space group: I B C A 
;
_chemical_formula_sum "Si O2"
_cell_formula_units_Z 96
_cell_length_a 20.461866
_cell_length_b 8.925896
_cell_length_c 18.278796
_cell_angle_alpha 90.000000
_cell_angle_beta 90.000000
_cell_angle_gamma 90.000000
_cell_volume 3338.448219
_symmetry_space_group_name_H-M "I B C A "
_symmetry_group_IT_number 73
_symmetry_cell_setting 'orthorhombic'
loop_
_space_group_symop_operation_xyz
x,y,z
-x,1/2-y,z
x,-y,1/2-z
1/2-x,y,-z
-x,-y,-z
x,1/2+y,-z
-x,y,1/2+z
1/2+x,-y,z
1/2+x,1/2+y,1/2+z
1/2-x,-y,1/2+z
1/2+x,1/2-y,-z
-x,1/2+y,1/2-z
1/2-x,1/2-y,1/2-z
1/2+x,y,1/2-z
1/2-x,1/2+y,z
x,1/2-y,1/2+z
loop_
_atom_site_type_symbol
_atom_site_label
_atom_site_fract_x
_atom_site_fract_y
_atom_site_fract_z
Si Si1 0.288558 0.263770 0.157466
Si Si2 0.619341 0.035858 0.499285
Si Si3 0.051412 0.500000 0.250000
Si Si4 0.250000 0.293707 0.500000
Si Si5 0.000000 0.750000 0.978145
Si Si6 0.033178 0.993677 0.371719
Si Si7 0.128192 0.000000 0.250000
Si Si8 0.161260 0.423338 0.153502
O O1 0.419218 0.448077 0.064839
O O2 0.331777 0.382493 0.201111
O O3 0.214115 0.301763 0.176076
O O4 0.282678 0.288102 0.069156
O O5 0.687070 0.111224 0.471830
O O6 0.562647 0.164965 0.516350
O O7 0.643098 0.938517 0.568062
O O8 0.099154 0.398790 0.203537
O O9 0.011910 0.417881 0.314887
O O10 0.987973 0.617012 0.919130
O O11 0.081800 0.923427 0.311612
O O12 0.809809 0.091725 0.332647
#
# Coordination Sequence:
#
# PCOD9532871 Si02
#       8
#    16  16   8   8   8  16   8  16
#     4  11  28  46  76 111 157 200 262 323 395 462
#     4   9  22  45  73 108 149 204 260 329 383 467
#     4  11  25  46  70 114 159 209 252 326 391 488
#     4  10  24  44  74 106 146 206 262 326 384 464
#     4   8  20  42  74 100 146 208 244 330 382 462
#     4   9  23  44  69 107 156 207 250 319 399 464
#     4  11  25  44  68 114 151 209 252 320 397 482
#     4  11  27  48  76 116 157 204 264 326 392 475
#
# _framework density 28.755876000000001
#
# number of rings (size 3 to 8) (size 9 to 14) (size 15 to 20)
#    1.000    1.000    0.000    0.500   11.667    4.000 
#   12.000    0.000    0.000    0.000    0.000    0.000 
#    0.000    0.000    0.000    0.000    0.000    0.000 
#
# Total GULP energy -267876.181339 kJ/mol
# GULP energy per Si atom -5580.753778 kJ/mol
# Density = 2.869043 g / cm^3
# Si number density = 28.755876 Si / 1000 Ang^3
#
#
#
# Elastic Constant Matrix: (Units=GPa)
#
#
# Indices 1 2 3 4 5 6 
#
# 1 154.5813 54.5300 36.9241 0.0000 0.0000 0.0000
# 2 54.5300 145.2866 54.7326 0.0000 0.0000 0.0000
# 3 36.9241 54.7326 182.0547 0.0000 0.0000 0.0000
# 4 0.0000 0.0000 0.0000 21.0726 0.0000 0.0000
# 5 0.0000 0.0000 0.0000 0.0000 78.8584 0.0000
# 6 0.0000 0.0000 0.0000 0.0000 0.0000 8.7751
#
#
#
# Elastic Compliance Matrix: (Units=1/GPa)
#
#
# Indices 1 2 3 4 5 6 
#
# 1 0.007550 -0.002545 -0.000766 0.000000 0.000000 0.000000
# 2 -0.002545 0.008620 -0.002075 0.000000 0.000000 0.000000
# 3 -0.000766 -0.002075 0.006272 0.000000 0.000000 0.000000
# 4 0.000000 0.000000 0.000000 0.047455 0.000000 0.000000
# 5 0.000000 0.000000 0.000000 0.000000 0.012681 0.000000
# 6 0.000000 0.000000 0.000000 0.000000 0.000000 0.113958
#
#
# Mechanical properties :
#
#
# Convention : Reuss Voigt Hill
#
# Bulk Modulus (GPa) = 85.69678 86.03289 85.86484
# Shear Modulus (GPa) = 23.67438 44.12363 33.89900
#
# Velocity S-wave (km/s) = 2.87241 3.92142 3.43717
# Velocity P-wave (km/s) = 6.39275 7.10540 6.75847
#
# Compressibility (1/GPa) = 0.01166905
#
# Stress axis : x y z
#
# Youngs Moduli (GPa) = 132.45243 116.00941 159.43487
#
# Poissons Ratio (x) = 0.29525 0.12215
# Poissons Ratio (y) = 0.33710 0.33088
# Poissons Ratio (z) = 0.10147 0.24076
#
# Static dielectric constant tensor:
#      x y z
#    x 2.366940 0.000000 0.000000 
#    y 0.000000 2.250270 0.000000 
#    z 0.000000 0.000000 2.302450 
# 
# From -- ./inp_files/26946.got.cif
#   From: 2010.05.17/outbox.cif.g08.bks.cpg/sg73_14_cif.got.tgz:26946.got - 2010.06.03 17:35:07.
