data_PCOD9532479
_publ_section_title
;
Structure prediction by ZEFSAII (Michael W. Deem and Ramdas Pophale) SiO2 
 PCOD9532479
Probable space group: I B C A 
;
_chemical_formula_sum "Si O2"
_cell_formula_units_Z 120
_cell_length_a 18.836321
_cell_length_b 21.888942
_cell_length_c 14.035290
_cell_angle_alpha 90.000000
_cell_angle_beta 90.000000
_cell_angle_gamma 90.000000
_cell_volume 5786.850249
_symmetry_space_group_name_H-M "I B C A "
_symmetry_group_IT_number 73
_symmetry_cell_setting 'orthorhombic'
loop_
_space_group_symop_operation_xyz
x,y,z
-x,1/2-y,z
x,-y,1/2-z
1/2-x,y,-z
-x,-y,-z
x,1/2+y,-z
-x,y,1/2+z
1/2+x,-y,z
1/2+x,1/2+y,1/2+z
1/2-x,-y,1/2+z
1/2+x,1/2-y,-z
-x,1/2+y,1/2-z
1/2-x,1/2-y,1/2-z
1/2+x,y,1/2-z
1/2-x,1/2+y,z
x,1/2-y,1/2+z
loop_
_atom_site_type_symbol
_atom_site_label
_atom_site_fract_x
_atom_site_fract_y
_atom_site_fract_z
Si Si1 0.523459 0.608919 0.725782
Si Si2 0.563259 0.871168 0.904300
Si Si3 0.673333 0.081283 0.043013
Si Si4 0.832601 0.170602 0.780847
Si Si5 0.813761 0.807908 0.204753
Si Si6 0.934646 0.528519 0.441501
Si Si7 0.500000 0.750000 0.990655
Si Si8 0.898115 0.326715 0.607078
O O1 0.488045 0.595202 0.828168
O O2 0.590708 0.653509 0.739538
O O3 0.546450 0.551020 0.663955
O O4 0.462691 0.642705 0.665064
O O5 0.635925 0.852853 0.852824
O O6 0.521556 0.809185 0.930549
O O7 0.580154 0.910505 0.996918
O O8 0.681832 0.119208 0.140224
O O9 0.628106 0.020342 0.058376
O O10 0.750000 0.067245 0.000000
O O11 0.631811 0.125464 0.969376
O O12 0.829437 0.238359 0.826618
O O13 0.768471 0.173642 0.704822
O O14 0.838984 0.810134 0.315295
O O15 0.000000 0.500000 0.500000
O O16 0.432610 0.769223 0.054160
#
# Coordination Sequence:
#
# PCOD9532479 Si02
#       8
#    16  16  16  16  16  16   8  16
#     4  11  23  43  69 100 133 177 232 284 344 415
#     4  11  24  41  67 101 138 176 224 288 353 414
#     4  12  25  45  68  96 139 188 237 284 354 420
#     4  11  23  43  66 100 136 178 226 281 350 422
#     4  10  23  41  65 100 140 173 222 288 353 418
#     4  12  25  45  65  98 134 180 237 287 337 412
#     4  12  20  38  74 106 138 178 228 290 364 432
#     4  11  21  41  70 103 135 175 229 283 351 419
#
# _framework density 20.73667
#
# number of rings (size 3 to 8) (size 9 to 14) (size 15 to 20)
#    0.000    0.800    4.000    4.000    0.000    5.333 
#    0.000    0.000    0.000    0.000    0.000    0.000 
#    0.000    0.000    0.000    0.000    0.000    0.000 
#
# Total GULP energy -335679.991274 kJ/mol
# GULP energy per Si atom -5594.666521 kJ/mol
# Density = 2.068947 g / cm^3
# Si number density = 20.736670 Si / 1000 Ang^3
#
#
#
# Elastic Constant Matrix: (Units=GPa)
#
#
# Indices 1 2 3 4 5 6 
#
# 1 110.6705 35.3354 3.7385 0.0000 0.0000 0.0000
# 2 35.3354 111.6347 42.5379 0.0000 0.0000 0.0000
# 3 3.7385 42.5379 63.2214 0.0000 0.0000 0.0000
# 4 0.0000 0.0000 0.0000 33.2297 0.0000 0.0000
# 5 0.0000 0.0000 0.0000 0.0000 25.5678 0.0000
# 6 0.0000 0.0000 0.0000 0.0000 0.0000 34.9430
#
#
#
# Elastic Compliance Matrix: (Units=1/GPa)
#
#
# Indices 1 2 3 4 5 6 
#
# 1 0.010259 -0.004056 0.002122 0.000000 0.000000 0.000000
# 2 -0.004056 0.013650 -0.008944 0.000000 0.000000 0.000000
# 3 0.002122 -0.008944 0.021710 0.000000 0.000000 0.000000
# 4 0.000000 0.000000 0.000000 0.030094 0.000000 0.000000
# 5 0.000000 0.000000 0.000000 0.000000 0.039112 0.000000
# 6 0.000000 0.000000 0.000000 0.000000 0.000000 0.028618
#
#
# Mechanical properties :
#
#
# Convention : Reuss Voigt Hill
#
# Bulk Modulus (GPa) = 41.90566 49.86113 45.88340
# Shear Modulus (GPa) = 28.87629 32.34243 30.60936
#
# Velocity S-wave (km/s) = 3.73570 3.95355 3.84617
# Velocity P-wave (km/s) = 6.23375 6.70357 6.47293
#
# Compressibility (1/GPa) = 0.02386313
#
# Stress axis : x y z
#
# Youngs Moduli (GPa) = 97.47383 73.26100 46.06171
#
# Poissons Ratio (x) = 0.29715 -0.09776
# Poissons Ratio (y) = 0.39536 0.41199
# Poissons Ratio (z) = -0.20688 0.65527
#
# Static dielectric constant tensor:
#      x y z
#    x 1.729360 0.000000 0.000000 
#    y 0.000000 1.736080 0.000000 
#    z 0.000000 0.000000 1.749410 
# 
# From -- ./inp_files/18977.got.cif
#   From: 2010.05.17/outbox.cif.g08.bks.cpg/sg73_10_cif.got.tgz:18977.got - 2010.06.03 17:35:07.
