data_PCOD9532101
_publ_section_title
;
Structure prediction by ZEFSAII (Michael W. Deem and Ramdas Pophale) SiO2 
 PCOD9532101
Probable space group: I B C A 
;
_chemical_formula_sum "Si O2"
_cell_formula_units_Z 88
_cell_length_a 17.733806
_cell_length_b 14.662221
_cell_length_c 17.235815
_cell_angle_alpha 90.000000
_cell_angle_beta 90.000000
_cell_angle_gamma 90.000000
_cell_volume 4481.604611
_symmetry_space_group_name_H-M "I B C A "
_symmetry_group_IT_number 73
_symmetry_cell_setting 'orthorhombic'
loop_
_space_group_symop_operation_xyz
x,y,z
-x,1/2-y,z
x,-y,1/2-z
1/2-x,y,-z
-x,-y,-z
x,1/2+y,-z
-x,y,1/2+z
1/2+x,-y,z
1/2+x,1/2+y,1/2+z
1/2-x,-y,1/2+z
1/2+x,1/2-y,-z
-x,1/2+y,1/2-z
1/2-x,1/2-y,1/2-z
1/2+x,y,1/2-z
1/2-x,1/2+y,z
x,1/2-y,1/2+z
loop_
_atom_site_type_symbol
_atom_site_label
_atom_site_fract_x
_atom_site_fract_y
_atom_site_fract_z
Si Si1 0.140841 0.175743 0.659356
Si Si2 0.500000 0.750000 0.561282
Si Si3 0.924737 0.811759 0.169433
Si Si4 0.448019 0.576994 0.965961
Si Si5 0.203369 0.994644 0.930998
Si Si6 0.733108 0.194725 0.591734
O O1 0.067438 0.207079 0.611127
O O2 0.113231 0.172626 0.747671
O O3 0.171896 0.079038 0.628407
O O4 0.207225 0.248297 0.641890
O O5 0.533440 0.670521 0.508271
O O6 0.952795 0.903152 0.125793
O O7 0.853152 0.779048 0.116044
O O8 0.000000 0.750000 0.174664
O O9 0.364293 0.542150 0.977962
O O10 0.500000 0.500000 0.000000
O O11 0.240969 0.085051 0.893796
O O12 0.250000 0.947833 0.000000
O O13 0.750000 0.210111 0.500000
#
# Coordination Sequence:
#
# PCOD9532101 Si02
#       6
#    16   8  16  16  16  16
#     4  12  23  41  69 102 141 183 225 293 355 409
#     4  12  22  40  70 100 136 184 234 278 346 418
#     4  11  24  43  67 102 145 178 225 289 354 413
#     4  11  23  41  66 100 132 182 234 279 330 420
#     4  10  22  41  67  99 134 183 240 285 344 415
#     4  10  23  43  68  98 134 184 239 286 341 427
#
# _framework density 19.635824
#
# number of rings (size 3 to 8) (size 9 to 14) (size 15 to 20)
#    0.000    1.091    3.636    4.364    0.000    4.364 
#    0.000    0.000    0.000    2.182    0.000    0.000 
#    0.000    0.000    0.000    0.000    0.000    0.000 
#
# Total GULP energy -245440.634218 kJ/mol
# GULP energy per Si atom -5578.196232 kJ/mol
# Density = 1.959113 g / cm^3
# Si number density = 19.635824 Si / 1000 Ang^3
#
#
#
# Elastic Constant Matrix: (Units=GPa)
#
#
# Indices 1 2 3 4 5 6 
#
# 1 119.1170 60.8714 77.1420 0.0000 0.0000 0.0000
# 2 60.8714 123.8035 71.7165 0.0000 0.0000 0.0000
# 3 77.1420 71.7165 155.3049 0.0000 0.0000 0.0000
# 4 0.0000 0.0000 0.0000 -0.1967 0.0000 0.0000
# 5 0.0000 0.0000 0.0000 0.0000 41.5902 0.0000
# 6 0.0000 0.0000 0.0000 0.0000 0.0000 36.2760
#
#
#
# Elastic Compliance Matrix: (Units=1/GPa)
#
#
# Indices 1 2 3 4 5 6 
#
# 1 0.013556 -0.003774 -0.004990 0.000000 0.000000 0.000000
# 2 -0.003774 0.012078 -0.003703 0.000000 0.000000 0.000000
# 3 -0.004990 -0.003703 0.010628 0.000000 0.000000 0.000000
# 4 0.000000 0.000000 0.000000 -5.082847 0.000000 0.000000
# 5 0.000000 0.000000 0.000000 0.000000 0.024044 0.000000
# 6 0.000000 0.000000 0.000000 0.000000 0.000000 0.027566
#
#
# Mechanical properties :
#
#
# Convention : Reuss Voigt Hill
#
# Bulk Modulus (GPa) = 88.28768 90.85391 89.57079
# Shear Modulus (GPa) = -1.00679 28.10026 13.54673
#
# Velocity S-wave (km/s) = -0.71683 3.78705 2.62944
# Velocity P-wave (km/s) = 6.66146 8.09273 7.41172
#
# Compressibility (1/GPa) = 0.01132661
#
# Stress axis : x y z
#
# Youngs Moduli (GPa) = 73.76979 82.79637 94.09504
#
# Poissons Ratio (x) = 0.31249 0.46958
# Poissons Ratio (y) = 0.27842 0.34840
# Poissons Ratio (z) = 0.36814 0.30656
#
# Static dielectric constant tensor:
#      x y z
#    x 1.756650 0.000000 0.000000 
#    y 0.000000 1.767910 0.000000 
#    z 0.000000 0.000000 1.465230 
# 
# From -- ./inp_files/22456.got.cif
#   From: 2010.05.17/outbox.cif.g08.bks.cpg/sg73_12_cif.got.tgz:22456.got - 2010.06.03 17:35:07.
