data_PCOD9532019
_publ_section_title
;
Structure prediction by ZEFSAII (Michael W. Deem and Ramdas Pophale) SiO2 
 PCOD9532019
Probable space group: I B C A 
;
_chemical_formula_sum "Si O2"
_cell_formula_units_Z 88
_cell_length_a 14.474303
_cell_length_b 23.561969
_cell_length_c 12.373921
_cell_angle_alpha 90.000000
_cell_angle_beta 90.000000
_cell_angle_gamma 90.000000
_cell_volume 4220.040112
_symmetry_space_group_name_H-M "I B C A "
_symmetry_group_IT_number 73
_symmetry_cell_setting 'orthorhombic'
loop_
_space_group_symop_operation_xyz
x,y,z
-x,1/2-y,z
x,-y,1/2-z
1/2-x,y,-z
-x,-y,-z
x,1/2+y,-z
-x,y,1/2+z
1/2+x,-y,z
1/2+x,1/2+y,1/2+z
1/2-x,-y,1/2+z
1/2+x,1/2-y,-z
-x,1/2+y,1/2-z
1/2-x,1/2-y,1/2-z
1/2+x,y,1/2-z
1/2-x,1/2+y,z
x,1/2-y,1/2+z
loop_
_atom_site_type_symbol
_atom_site_label
_atom_site_fract_x
_atom_site_fract_y
_atom_site_fract_z
Si Si1 0.362991 0.560138 0.795146
Si Si2 0.000000 0.750000 0.065066
Si Si3 0.380545 0.177872 0.907157
Si Si4 0.260721 0.369591 0.128509
Si Si5 0.537206 0.861512 0.299446
Si Si6 0.250000 0.750000 0.750000
Si Si7 0.250000 0.082811 0.000000
O O1 0.395375 0.500000 0.750000
O O2 0.308432 0.593071 0.700683
O O3 0.450229 0.599490 0.825885
O O4 0.293942 0.551368 0.897061
O O5 0.032580 0.801180 0.139962
O O6 0.078614 0.722286 0.991680
O O7 0.459619 0.154065 0.827405
O O8 0.306248 0.209000 0.832758
O O9 0.330779 0.124789 0.960581
O O10 0.364788 0.386759 0.164506
O O11 0.243671 0.304312 0.163459
O O12 0.250000 0.376417 0.000000
#
# Coordination Sequence:
#
# PCOD9532019 Si02
#       7
#    16   8  16  16  16   8   8
#     4  12  29  51  77 102 143 199 254 310 365 432
#     4  12  24  38  68 108 156 190 230 300 380 452
#     4  11  25  39  70 105 152 191 233 300 373 461
#     4  11  26  45  73 108 147 192 243 302 370 442
#     4  11  26  45  66 114 146 190 245 300 370 454
#     4  10  22  40  66 106 146 188 224 290 370 452
#     4  12  24  52  70 108 144 194 254 302 378 438
#
# _framework density 20.852882999999999
#
# number of rings (size 3 to 8) (size 9 to 14) (size 15 to 20)
#    0.000    0.727    5.455    1.636   17.818    0.727 
#    0.000    1.818    0.000    0.000    0.000    0.000 
#    0.000    0.000    0.000    0.000    0.000    0.000 
#
# Total GULP energy -244999.951204 kJ/mol
# GULP energy per Si atom -5568.180709 kJ/mol
# Density = 2.080542 g / cm^3
# Si number density = 20.852883 Si / 1000 Ang^3
#
#
#
# Elastic Constant Matrix: (Units=GPa)
#
#
# Indices 1 2 3 4 5 6 
#
# 1 60.4027 18.4135 12.8198 0.0000 0.0000 0.0000
# 2 18.4135 51.9355 12.6569 0.0000 0.0000 0.0000
# 3 12.8198 12.6569 89.8367 0.0000 0.0000 0.0000
# 4 0.0000 0.0000 0.0000 -2.7063 0.0000 0.0000
# 5 0.0000 0.0000 0.0000 0.0000 35.2953 0.0000
# 6 0.0000 0.0000 0.0000 0.0000 0.0000 6.5750
#
#
#
# Elastic Compliance Matrix: (Units=1/GPa)
#
#
# Indices 1 2 3 4 5 6 
#
# 1 0.018842 -0.006239 -0.001810 0.000000 0.000000 0.000000
# 2 -0.006239 0.022005 -0.002210 0.000000 0.000000 0.000000
# 3 -0.001810 -0.002210 0.011701 0.000000 0.000000 0.000000
# 4 0.000000 0.000000 0.000000 -0.369513 0.000000 -0.000001
# 5 0.000000 0.000000 0.000000 0.000000 0.028332 0.000000
# 6 0.000000 0.000000 0.000000 -0.000001 0.000000 0.152092
#
#
# Mechanical properties :
#
#
# Convention : Reuss Voigt Hill
#
# Bulk Modulus (GPa) = 31.22055 32.21727 31.71891
# Shear Modulus (GPa) = -47.46239 18.38511 -14.53864
#
# Velocity S-wave (km/s) = -4.77598 2.97249 -2.64332
# Velocity P-wave (km/s) = 3.92543 5.22152 2.43467
#
# Compressibility (1/GPa) = 0.03203018
#
# Stress axis : x y z
#
# Youngs Moduli (GPa) = 53.07395 45.44353 85.46345
#
# Poissons Ratio (x) = 0.28353 0.15466
# Poissons Ratio (y) = 0.33114 0.18887
# Poissons Ratio (z) = 0.09605 0.10043
#
# Static dielectric constant tensor:
#      x y z
#    x 1.829530 0.000000 0.000000 
#    y 0.000000 1.702940 0.000000 
#    z 0.000000 0.000000 1.790940 
# 
# From -- ./inp_files/10999.got.cif
#   From: 2010.05.17/outbox.cif.g08.bks.cpg/sg73_6_cif.got.tgz:10999.got - 2010.06.03 17:35:07.
