data_PCOD9532008
_publ_section_title
;
Structure prediction by ZEFSAII (Michael W. Deem and Ramdas Pophale) SiO2 
 PCOD9532008
Probable space group: I B C A 
;
_chemical_formula_sum "Si O2"
_cell_formula_units_Z 120
_cell_length_a 19.359644
_cell_length_b 9.714189
_cell_length_c 26.011570
_cell_angle_alpha 90.000000
_cell_angle_beta 90.000000
_cell_angle_gamma 90.000000
_cell_volume 4891.820152
_symmetry_space_group_name_H-M "I B C A "
_symmetry_group_IT_number 73
_symmetry_cell_setting 'orthorhombic'
loop_
_space_group_symop_operation_xyz
x,y,z
-x,1/2-y,z
x,-y,1/2-z
1/2-x,y,-z
-x,-y,-z
x,1/2+y,-z
-x,y,1/2+z
1/2+x,-y,z
1/2+x,1/2+y,1/2+z
1/2-x,-y,1/2+z
1/2+x,1/2-y,-z
-x,1/2+y,1/2-z
1/2-x,1/2-y,1/2-z
1/2+x,y,1/2-z
1/2-x,1/2+y,z
x,1/2-y,1/2+z
loop_
_atom_site_type_symbol
_atom_site_label
_atom_site_fract_x
_atom_site_fract_y
_atom_site_fract_z
Si Si1 0.642651 0.362424 0.806370
Si Si2 0.666905 0.081071 0.108377
Si Si3 0.314601 0.859707 0.119781
Si Si4 0.027285 0.500000 0.750000
Si Si5 0.320527 0.171773 0.969193
Si Si6 0.573036 0.193301 0.555782
Si Si7 0.557406 0.867192 0.835667
Si Si8 0.698371 0.595423 0.299186
O O1 0.641177 0.500218 0.841455
O O2 0.638001 0.230601 0.842754
O O3 0.580950 0.380075 0.766624
O O4 0.723270 0.354386 0.788614
O O5 0.732675 0.179193 0.119043
O O6 0.610986 0.175706 0.081476
O O7 0.687341 0.956788 0.069579
O O8 0.336071 0.811682 0.062992
O O9 0.304296 0.003973 0.148601
O O10 0.977303 0.523344 0.701813
O O11 0.250000 0.191824 0.000000
O O12 0.380540 0.140832 0.009629
O O13 0.500000 0.250000 0.537351
O O14 0.566242 0.090262 0.604486
O O15 0.500000 0.750000 0.837970
O O16 0.629599 0.817453 0.810384
O O17 0.683100 0.500000 0.250000
#
# Coordination Sequence:
#
# PCOD9532008 Si02
#       8
#    16  16  16   8  16  16  16  16
#     4  10  22  40  65 101 139 177 230 298 345 415
#     4  10  22  42  66 100 140 176 231 287 358 416
#     4  10  23  42  67 102 143 175 233 299 348 424
#     4  12  24  42  68 100 136 188 240 292 362 416
#     4  11  24  41  72 108 136 185 234 295 361 414
#     4  11  24  44  69  98 138 190 230 285 357 433
#     4  11  26  45  68  96 143 189 233 289 356 440
#     4  11  23  42  67 104 133 188 237 288 354 418
#
# _framework density 24.530747999999999
#
# number of rings (size 3 to 8) (size 9 to 14) (size 15 to 20)
#    0.000    1.333    2.667    2.400    7.467    2.133 
#    0.000    4.000    0.000    0.000    0.000    0.000 
#    0.000    0.000    0.000    0.000    0.000    0.000 
#
# Total GULP energy -335243.283289 kJ/mol
# GULP energy per Si atom -5587.388055 kJ/mol
# Density = 2.447492 g / cm^3
# Si number density = 24.530748 Si / 1000 Ang^3
#
#
#
# Elastic Constant Matrix: (Units=GPa)
#
#
# Indices 1 2 3 4 5 6 
#
# 1 114.2839 4.8181 46.1966 0.0000 0.0000 0.0000
# 2 4.8181 50.1970 30.1981 0.0000 0.0000 0.0000
# 3 46.1966 30.1981 139.7888 0.0000 0.0000 0.0000
# 4 0.0000 0.0000 0.0000 42.6695 0.0000 0.0000
# 5 0.0000 0.0000 0.0000 0.0000 37.0383 0.0000
# 6 0.0000 0.0000 0.0000 0.0000 0.0000 14.8199
#
#
#
# Elastic Compliance Matrix: (Units=1/GPa)
#
#
# Indices 1 2 3 4 5 6 
#
# 1 0.010162 0.001201 -0.003618 0.000000 0.000000 0.000000
# 2 0.001201 0.023039 -0.005374 0.000000 0.000000 0.000000
# 3 -0.003618 -0.005374 0.009510 0.000000 0.000000 0.000000
# 4 0.000000 0.000000 0.000000 0.023436 0.000000 0.000000
# 5 0.000000 0.000000 0.000000 0.000000 0.026999 0.000000
# 6 0.000000 0.000000 0.000000 0.000000 0.000000 0.067477
#
#
# Mechanical properties :
#
#
# Convention : Reuss Voigt Hill
#
# Bulk Modulus (GPa) = 36.85979 51.85502 44.35741
# Shear Modulus (GPa) = 26.99089 33.77600 30.38345
#
# Velocity S-wave (km/s) = 3.32066 3.71466 3.52317
# Velocity P-wave (km/s) = 5.45536 6.29150 5.88829
#
# Compressibility (1/GPa) = 0.02712983
#
# Stress axis : x y z
#
# Youngs Moduli (GPa) = 98.40711 43.40438 105.15113
#
# Poissons Ratio (x) = -0.05213 0.38040
# Poissons Ratio (y) = -0.11819 0.56508
# Poissons Ratio (z) = 0.35601 0.23325
#
# Static dielectric constant tensor:
#      x y z
#    x 1.979930 0.000000 0.000000 
#    y 0.000000 2.005530 0.000000 
#    z 0.000000 0.000000 1.992350 
# 
# From -- ./inp_files/32475.got.cif
#   From: 2010.05.17/outbox.cif.g08.bks.cpg/sg73_17_cif.got.tgz:32475.got - 2010.06.03 17:35:07.
