data_PCOD9532402
_publ_section_title
;
Structure prediction by ZEFSAII (Michael W. Deem and Ramdas Pophale) SiO2 
 PCOD9532402
Probable space group: I B C A 
;
_chemical_formula_sum "Si O2"
_cell_formula_units_Z 72
_cell_length_a 11.512277
_cell_length_b 13.375060
_cell_length_c 20.789684
_cell_angle_alpha 90.000000
_cell_angle_beta 90.000000
_cell_angle_gamma 90.000000
_cell_volume 3201.141398
_symmetry_space_group_name_H-M "I B C A "
_symmetry_group_IT_number 73
_symmetry_cell_setting 'orthorhombic'
loop_
_space_group_symop_operation_xyz
x,y,z
-x,1/2-y,z
x,-y,1/2-z
1/2-x,y,-z
-x,-y,-z
x,1/2+y,-z
-x,y,1/2+z
1/2+x,-y,z
1/2+x,1/2+y,1/2+z
1/2-x,-y,1/2+z
1/2+x,1/2-y,-z
-x,1/2+y,1/2-z
1/2-x,1/2-y,1/2-z
1/2+x,y,1/2-z
1/2-x,1/2+y,z
x,1/2-y,1/2+z
loop_
_atom_site_type_symbol
_atom_site_label
_atom_site_fract_x
_atom_site_fract_y
_atom_site_fract_z
Si Si1 0.075112 0.124014 0.643906
Si Si2 0.323446 0.911290 0.368246
Si Si3 0.000000 0.250000 0.333609
Si Si4 0.500000 0.250000 0.471150
Si Si5 0.750000 0.824675 0.000000
Si Si6 0.637373 0.827752 0.216496
O O1 0.022616 0.155916 0.575599
O O2 0.131805 0.224239 0.674588
O O3 0.966922 0.103509 0.690516
O O4 0.152137 0.027845 0.636148
O O5 0.438901 0.841867 0.369739
O O6 0.252441 0.885969 0.433114
O O7 0.254711 0.880489 0.303579
O O8 0.900699 0.297965 0.287609
O O9 0.627254 0.235073 0.502505
#
# Coordination Sequence:
#
# PCOD9532402 Si02
#       6
#    16  16   8   8   8  16
#     4   9  20  42  67  89 138 178 225 278 354 414
#     4  12  23  41  68 104 131 184 234 283 359 423
#     4  10  24  42  68 100 136 172 242 286 354 422
#     4  10  22  48  66  98 148 182 230 288 352 412
#     4  12  24  44  74 104 144 190 230 296 350 432
#     4   9  21  46  64  92 136 180 220 299 347 407
#
# _framework density 22.491976999999999
#
# number of rings (size 3 to 8) (size 9 to 14) (size 15 to 20)
#    0.000    2.222    4.444    1.333    0.000    7.111 
#    4.000    4.444    0.000    0.000    0.000    0.000 
#    0.000    0.000    0.000    0.000    0.000    0.000 
#
# Total GULP energy -200831.078311 kJ/mol
# GULP energy per Si atom -5578.641064 kJ/mol
# Density = 2.244078 g / cm^3
# Si number density = 22.491977 Si / 1000 Ang^3
#
#
#
# Elastic Constant Matrix: (Units=GPa)
#
#
# Indices 1 2 3 4 5 6 
#
# 1 115.7571 42.0248 16.7102 0.0000 0.0000 0.0000
# 2 42.0248 76.7671 16.0031 0.0000 0.0000 0.0000
# 3 16.7102 16.0031 67.5214 0.0000 0.0000 0.0000
# 4 0.0000 0.0000 0.0000 10.6765 0.0000 0.0000
# 5 0.0000 0.0000 0.0000 0.0000 15.0414 0.0000
# 6 0.0000 0.0000 0.0000 0.0000 0.0000 32.6343
#
#
#
# Elastic Compliance Matrix: (Units=1/GPa)
#
#
# Indices 1 2 3 4 5 6 
#
# 1 0.010897 -0.005684 -0.001350 0.000000 0.000000 0.000000
# 2 -0.005684 0.016668 -0.002544 0.000000 0.000000 0.000000
# 3 -0.001350 -0.002544 0.015747 0.000000 0.000000 0.000000
# 4 0.000000 0.000000 0.000000 0.093664 0.000000 0.000000
# 5 0.000000 0.000000 0.000000 0.000000 0.066483 0.000000
# 6 0.000000 0.000000 0.000000 0.000000 0.000000 0.030643
#
#
# Mechanical properties :
#
#
# Convention : Reuss Voigt Hill
#
# Bulk Modulus (GPa) = 41.39519 45.50243 43.44881
# Shear Modulus (GPa) = 19.13438 24.02428 21.57933
#
# Velocity S-wave (km/s) = 2.91988 3.27177 3.10082
# Velocity P-wave (km/s) = 5.46003 5.87767 5.67270
#
# Compressibility (1/GPa) = 0.02415739
#
# Stress axis : x y z
#
# Youngs Moduli (GPa) = 91.76677 59.99378 63.50398
#
# Poissons Ratio (x) = 0.34101 0.08571
# Poissons Ratio (y) = 0.52161 0.16154
# Poissons Ratio (z) = 0.12385 0.15261
#
# Static dielectric constant tensor:
#      x y z
#    x 1.890470 0.000000 0.000000 
#    y 0.000000 1.785380 0.000000 
#    z 0.000000 0.000000 1.882550 
# 
# From -- ./inp_files/13393.got.cif
#   From: 2010.05.17/outbox.cif.g08.bks.cpg/sg73_7_cif.got.tgz:13393.got - 2010.06.03 17:35:07.
