data_PCOD9532408
_publ_section_title
;
Structure prediction by ZEFSAII (Michael W. Deem and Ramdas Pophale) SiO2 
 PCOD9532408
Probable space group: I B C A 
;
_chemical_formula_sum "Si O2"
_cell_formula_units_Z 48
_cell_length_a 10.377566
_cell_length_b 9.499317
_cell_length_c 19.613569
_cell_angle_alpha 90.000000
_cell_angle_beta 90.000000
_cell_angle_gamma 90.000000
_cell_volume 1933.501496
_symmetry_space_group_name_H-M "I B C A "
_symmetry_group_IT_number 73
_symmetry_cell_setting 'orthorhombic'
loop_
_space_group_symop_operation_xyz
x,y,z
-x,1/2-y,z
x,-y,1/2-z
1/2-x,y,-z
-x,-y,-z
x,1/2+y,-z
-x,y,1/2+z
1/2+x,-y,z
1/2+x,1/2+y,1/2+z
1/2-x,-y,1/2+z
1/2+x,1/2-y,-z
-x,1/2+y,1/2-z
1/2-x,1/2-y,1/2-z
1/2+x,y,1/2-z
1/2-x,1/2+y,z
x,1/2-y,1/2+z
loop_
_atom_site_type_symbol
_atom_site_label
_atom_site_fract_x
_atom_site_fract_y
_atom_site_fract_z
Si Si1 0.849625 0.232724 0.360096
Si Si2 0.750000 0.757804 0.000000
Si Si3 0.647616 0.461831 0.822735
Si Si4 0.000000 0.250000 0.579543
O O1 0.812524 0.168526 0.433833
O O2 0.805552 0.394505 0.357478
O O3 0.770827 0.136991 0.308679
O O4 0.000000 0.250000 0.349184
O O5 0.618728 0.694779 0.032959
O O6 0.586717 0.500000 0.750000
O O7 0.554258 0.373662 0.872040
#
# Coordination Sequence:
#
# PCOD9532408 Si02
#       4
#    16   8  16   8
#     4  11  26  45  75 107 150 203 248 328 382 457
#     4  10  22  48  70 114 152 194 262 312 398 456
#     4  11  27  48  73 110 152 199 265 304 388 459
#     4  10  24  46  80 112 148 208 246 334 378 460
#
# _framework density 24.825426
#
# number of rings (size 3 to 8) (size 9 to 14) (size 15 to 20)
#    0.000    1.333    1.667    1.000   11.667    8.000 
#    0.000    0.000    0.000    0.000    0.000    0.000 
#    0.000    0.000    0.000    0.000    0.000    0.000 
#
# Total GULP energy -133910.559603 kJ/mol
# GULP energy per Si atom -5579.606650 kJ/mol
# Density = 2.476892 g / cm^3
# Si number density = 24.825426 Si / 1000 Ang^3
#
#
#
# Elastic Constant Matrix: (Units=GPa)
#
#
# Indices 1 2 3 4 5 6 
#
# 1 190.3932 45.3564 40.9004 0.0000 0.0000 0.0000
# 2 45.3564 135.6634 27.2830 0.0000 0.0000 0.0000
# 3 40.9004 27.2830 116.5438 0.0000 0.0000 0.0000
# 4 0.0000 0.0000 0.0000 -11.8192 0.0000 0.0000
# 5 0.0000 0.0000 0.0000 0.0000 25.6085 0.0000
# 6 0.0000 0.0000 0.0000 0.0000 0.0000 33.0115
#
#
#
# Elastic Compliance Matrix: (Units=1/GPa)
#
#
# Indices 1 2 3 4 5 6 
#
# 1 0.006019 -0.001666 -0.001722 0.000000 0.000000 0.000000
# 2 -0.001666 0.008196 -0.001334 0.000000 0.000000 0.000000
# 3 -0.001722 -0.001334 0.009497 0.000000 0.000000 0.000000
# 4 0.000000 0.000000 0.000000 -0.084608 0.000000 0.000000
# 5 0.000000 0.000000 0.000000 0.000000 0.039050 0.000000
# 6 0.000000 0.000000 0.000000 0.000000 0.000000 0.030293
#
#
# Mechanical properties :
#
#
# Convention : Reuss Voigt Hill
#
# Bulk Modulus (GPa) = 70.08755 74.40890 72.24822
# Shear Modulus (GPa) = 220.77057 31.29751 126.03404
#
# Velocity S-wave (km/s) = 9.44046 3.55449 7.13291
# Velocity P-wave (km/s) = 12.12943 6.84718 9.84903
#
# Compressibility (1/GPa) = 0.01426787
#
# Stress axis : x y z
#
# Youngs Moduli (GPa) = 166.13568 122.00344 105.29365
#
# Poissons Ratio (x) = 0.20326 0.18136
# Poissons Ratio (y) = 0.27678 0.14048
# Poissons Ratio (z) = 0.28615 0.16277
#
# Static dielectric constant tensor:
#      x y z
#    x 2.005360 0.000000 0.000000 
#    y 0.000000 2.012320 0.000000 
#    z 0.000000 0.000000 1.989990 
# 
# From -- ./inp_files/6767.got.cif
#   From: 2010.05.17/outbox.cif.g08.bks.cpg/sg73_4_cif.got.tgz:6767.got - 2010.06.03 17:35:07.
