data_PCOD9532345
_publ_section_title
;
Structure prediction by ZEFSAII (Michael W. Deem and Ramdas Pophale) SiO2 
 PCOD9532345
Probable space group: I B C A 
;
_chemical_formula_sum "Si O2"
_cell_formula_units_Z 72
_cell_length_a 23.005020
_cell_length_b 12.936476
_cell_length_c 10.190372
_cell_angle_alpha 90.000000
_cell_angle_beta 90.000000
_cell_angle_gamma 90.000000
_cell_volume 3032.694339
_symmetry_space_group_name_H-M "I B C A "
_symmetry_group_IT_number 73
_symmetry_cell_setting 'orthorhombic'
loop_
_space_group_symop_operation_xyz
x,y,z
-x,1/2-y,z
x,-y,1/2-z
1/2-x,y,-z
-x,-y,-z
x,1/2+y,-z
-x,y,1/2+z
1/2+x,-y,z
1/2+x,1/2+y,1/2+z
1/2-x,-y,1/2+z
1/2+x,1/2-y,-z
-x,1/2+y,1/2-z
1/2-x,1/2-y,1/2-z
1/2+x,y,1/2-z
1/2-x,1/2+y,z
x,1/2-y,1/2+z
loop_
_atom_site_type_symbol
_atom_site_label
_atom_site_fract_x
_atom_site_fract_y
_atom_site_fract_z
Si Si1 0.088334 0.450403 0.547838
Si Si2 0.820371 0.500000 0.250000
Si Si3 0.531160 0.847681 0.553528
Si Si4 0.109787 0.617899 0.234426
Si Si5 0.234926 0.335798 0.144634
O O1 0.137070 0.436774 0.656371
O O2 0.076358 0.573849 0.518415
O O3 0.109309 0.380805 0.423079
O O4 0.024766 0.415183 0.591138
O O5 0.778869 0.569224 0.161837
O O6 0.500000 0.750000 0.484750
O O7 0.565090 0.812233 0.684444
O O8 0.087812 0.500000 0.250000
O O9 0.170855 0.627964 0.310382
O O10 0.250000 0.250000 0.250000
O O11 0.250000 0.295065 0.000000
#
# Coordination Sequence:
#
# PCOD9532345 Si02
#       5
#    16   8  16  16  16
#     4  10  25  43  71 106 144 196 250 309 374 456
#     4  12  28  48  78 100 154 200 258 306 390 452
#     4  10  23  42  70 102 146 187 245 302 376 443
#     4  10  22  45  69  98 148 189 245 307 373 441
#     4  12  29  48  77 112 150 199 258 316 387 461
#
# _framework density 23.741266
#
# number of rings (size 3 to 8) (size 9 to 14) (size 15 to 20)
#    0.000    1.333    1.111    2.667   14.000    2.667 
#    0.000    0.000    0.000    0.000    0.000    0.000 
#    0.000    0.000    0.000    0.000    0.000    0.000 
#
# Total GULP energy -200840.092373 kJ/mol
# GULP energy per Si atom -5578.891455 kJ/mol
# Density = 2.368723 g / cm^3
# Si number density = 23.741266 Si / 1000 Ang^3
#
#
#
# Elastic Constant Matrix: (Units=GPa)
#
#
# Indices 1 2 3 4 5 6 
#
# 1 147.1246 -4.4603 52.0798 0.0000 0.0000 0.0000
# 2 -4.4603 41.7646 -12.9864 0.0000 0.0000 0.0000
# 3 52.0798 -12.9864 134.8688 0.0000 0.0000 0.0000
# 4 0.0000 0.0000 0.0000 26.5723 0.0000 0.0000
# 5 0.0000 0.0000 0.0000 0.0000 27.9383 0.0000
# 6 0.0000 0.0000 0.0000 0.0000 0.0000 20.8741
#
#
#
# Elastic Compliance Matrix: (Units=1/GPa)
#
#
# Indices 1 2 3 4 5 6 
#
# 1 0.007874 -0.000108 -0.003051 0.000000 0.000000 0.000000
# 2 -0.000108 0.024684 0.002418 0.000000 0.000000 0.000000
# 3 -0.003051 0.002418 0.008826 0.000000 0.000000 0.000000
# 4 0.000000 0.000000 0.000000 0.037633 0.000000 0.000000
# 5 0.000000 0.000000 0.000000 0.000000 0.035793 0.000000
# 6 0.000000 0.000000 0.000000 0.000000 0.000000 0.047906
#
#
# Mechanical properties :
#
#
# Convention : Reuss Voigt Hill
#
# Bulk Modulus (GPa) = 25.06067 43.66933 34.36500
# Shear Modulus (GPa) = 28.16947 34.35195 31.26071
#
# Velocity S-wave (km/s) = 3.44833 3.80798 3.63261
# Velocity P-wave (km/s) = 5.14133 6.14557 5.66574
#
# Compressibility (1/GPa) = 0.03990316
#
# Stress axis : x y z
#
# Youngs Moduli (GPa) = 127.00631 40.51176 113.30740
#
# Poissons Ratio (x) = 0.00436 0.34568
# Poissons Ratio (y) = 0.01368 -0.27403
# Poissons Ratio (z) = 0.38747 -0.09797
#
# Static dielectric constant tensor:
#      x y z
#    x 1.968070 0.000000 0.000000 
#    y 0.000000 1.982460 0.000000 
#    z 0.000000 0.000000 2.030890 
# 
# From -- ./inp_files/12559.got.cif
#   From: 2010.05.17/outbox.cif.g08.bks.cpg/sg73_7_cif.got.tgz:12559.got - 2010.06.03 17:35:07.
