data_PCOD9532407
_publ_section_title
;
Structure prediction by ZEFSAII (Michael W. Deem and Ramdas Pophale) SiO2 
 PCOD9532407
Probable space group: I B C A 
;
_chemical_formula_sum "Si O2"
_cell_formula_units_Z 56
_cell_length_a 14.852046
_cell_length_b 14.469858
_cell_length_c 10.524055
_cell_angle_alpha 90.000000
_cell_angle_beta 90.000000
_cell_angle_gamma 90.000000
_cell_volume 2261.693052
_symmetry_space_group_name_H-M "I B C A "
_symmetry_group_IT_number 73
_symmetry_cell_setting 'orthorhombic'
loop_
_space_group_symop_operation_xyz
x,y,z
-x,1/2-y,z
x,-y,1/2-z
1/2-x,y,-z
-x,-y,-z
x,1/2+y,-z
-x,y,1/2+z
1/2+x,-y,z
1/2+x,1/2+y,1/2+z
1/2-x,-y,1/2+z
1/2+x,1/2-y,-z
-x,1/2+y,1/2-z
1/2-x,1/2-y,1/2-z
1/2+x,y,1/2-z
1/2-x,1/2+y,z
x,1/2-y,1/2+z
loop_
_atom_site_type_symbol
_atom_site_label
_atom_site_fract_x
_atom_site_fract_y
_atom_site_fract_z
Si Si1 0.206386 0.506559 0.124232
Si Si2 0.500000 0.750000 0.250081
Si Si3 0.307753 0.275755 0.624393
Si Si4 0.487657 0.057084 0.369340
O O1 0.265837 0.500000 0.250000
O O2 0.184247 0.613541 0.103732
O O3 0.119758 0.444823 0.148137
O O4 0.250000 0.469409 0.000000
O O5 0.589030 0.751216 0.340497
O O6 0.513299 0.837698 0.155955
O O7 0.250000 0.243421 0.500000
O O8 0.250000 0.250000 0.750000
O O9 0.525598 0.000000 0.250000
O O10 0.500000 0.000000 0.500000
#
# Coordination Sequence:
#
# PCOD9532407 Si02
#       4
#    16   8  16  16
#     4  10  22  48  70 107 163 205 277 343 409 494
#     4  12  26  54  88 116 182 226 280 368 434 514
#     4  11  27  48  78 120 162 219 287 343 424 516
#     4  11  26  48  75 119 156 219 282 338 431 505
#
# _framework density 24.760213
#
# number of rings (size 3 to 8) (size 9 to 14) (size 15 to 20)
#    0.000    1.143    5.714    0.000    8.000    6.857 
#    0.000    0.000    0.000    0.000    0.000    0.000 
#    0.000    0.000    0.000    0.000    0.000    0.000 
#
# Total GULP energy -156307.693362 kJ/mol
# GULP energy per Si atom -5582.417620 kJ/mol
# Density = 2.470386 g / cm^3
# Si number density = 24.760213 Si / 1000 Ang^3
#
#
#
# Elastic Constant Matrix: (Units=GPa)
#
#
# Indices 1 2 3 4 5 6 
#
# 1 155.6566 8.8823 63.4909 0.0000 0.0000 0.0000
# 2 8.8823 171.1651 45.9191 0.0000 0.0000 0.0000
# 3 63.4909 45.9191 241.4647 0.0000 0.0000 0.0000
# 4 0.0000 0.0000 0.0000 35.3428 0.0000 0.0000
# 5 0.0000 0.0000 0.0000 0.0000 46.2324 0.0000
# 6 0.0000 0.0000 0.0000 0.0000 0.0000 20.7003
#
#
#
# Elastic Compliance Matrix: (Units=1/GPa)
#
#
# Indices 1 2 3 4 5 6 
#
# 1 0.007199 0.000141 -0.001920 0.000000 0.000000 0.000000
# 2 0.000141 0.006159 -0.001208 0.000000 0.000000 0.000000
# 3 -0.001920 -0.001208 0.004876 0.000000 0.000000 0.000000
# 4 0.000000 0.000000 0.000000 0.028294 0.000000 0.000000
# 5 0.000000 0.000000 0.000000 0.000000 0.021630 0.000000
# 6 0.000000 0.000000 0.000000 0.000000 0.000000 0.048309
#
#
# Mechanical properties :
#
#
# Convention : Reuss Voigt Hill
#
# Bulk Modulus (GPa) = 81.56098 89.43012 85.49555
# Shear Modulus (GPa) = 39.51686 50.45468 44.98577
#
# Velocity S-wave (km/s) = 3.99931 4.51902 4.26708
# Velocity P-wave (km/s) = 7.37142 7.96402 7.67344
#
# Compressibility (1/GPa) = 0.01226076
#
# Stress axis : x y z
#
# Youngs Moduli (GPa) = 138.89957 162.35938 205.08461
#
# Poissons Ratio (x) = -0.02297 0.39375
# Poissons Ratio (y) = -0.01965 0.24784
# Poissons Ratio (z) = 0.26668 0.19621
#
# Static dielectric constant tensor:
#      x y z
#    x 2.011380 0.000000 0.000000 
#    y 0.000000 2.024910 0.000000 
#    z 0.000000 0.000000 2.327180 
# 
# From -- ./inp_files/10239.got.cif
#   From: 2010.05.17/outbox.cif.g08.bks.cpg/sg73_6_cif.got.tgz:10239.got - 2010.06.03 17:35:07.
