data_PCOD9532398
_publ_section_title
;
Structure prediction by ZEFSAII (Michael W. Deem and Ramdas Pophale) SiO2 
 PCOD9532398
Probable space group: I B C A 
;
_chemical_formula_sum "Si O2"
_cell_formula_units_Z 96
_cell_length_a 22.611800
_cell_length_b 15.275671
_cell_length_c 12.780317
_cell_angle_alpha 90.000000
_cell_angle_beta 90.000000
_cell_angle_gamma 90.000000
_cell_volume 4414.454631
_symmetry_space_group_name_H-M "I B C A "
_symmetry_group_IT_number 73
_symmetry_cell_setting 'orthorhombic'
loop_
_space_group_symop_operation_xyz
x,y,z
-x,1/2-y,z
x,-y,1/2-z
1/2-x,y,-z
-x,-y,-z
x,1/2+y,-z
-x,y,1/2+z
1/2+x,-y,z
1/2+x,1/2+y,1/2+z
1/2-x,-y,1/2+z
1/2+x,1/2-y,-z
-x,1/2+y,1/2-z
1/2-x,1/2-y,1/2-z
1/2+x,y,1/2-z
1/2-x,1/2+y,z
x,1/2-y,1/2+z
loop_
_atom_site_type_symbol
_atom_site_label
_atom_site_fract_x
_atom_site_fract_y
_atom_site_fract_z
Si Si1 0.398338 0.906917 0.239155
Si Si2 0.500000 0.250000 0.501050
Si Si3 0.202198 0.345934 0.805146
Si Si4 0.485455 0.935257 0.598551
Si Si5 0.882032 0.000000 0.750000
Si Si6 0.115844 0.780038 0.582380
Si Si7 0.184498 0.268964 0.122599
O O1 0.459198 0.929095 0.178768
O O2 0.403330 0.867809 0.356684
O O3 0.366174 0.832430 0.170696
O O4 0.365283 0.000000 0.250000
O O5 0.521578 0.165083 0.439362
O O6 0.556449 0.276204 0.568228
O O7 0.163023 0.431853 0.803047
O O8 0.158179 0.270748 0.840969
O O9 0.259934 0.336620 0.876833
O O10 0.213306 0.312438 0.687074
O O11 0.426609 0.962566 0.661551
O O12 0.500000 0.000000 0.500000
O O13 0.153655 0.776669 0.476311
#
# Coordination Sequence:
#
# PCOD9532398 Si02
#       7
#    16   8  16  16   8  16  16
#     4  11  24  42  70 104 142 191 243 310 377 459
#     4  12  24  40  72  96 144 188 238 296 386 462
#     4  10  24  43  70  99 141 189 244 307 371 460
#     4  12  26  45  66 106 151 192 245 312 386 471
#     4  12  26  42  68 110 148 192 252 312 382 464
#     4  11  23  42  69 100 137 192 240 303 378 452
#     4  10  22  47  71  98 138 188 251 305 383 453
#
# _framework density 21.746741
#
# number of rings (size 3 to 8) (size 9 to 14) (size 15 to 20)
#    0.000    1.000    2.500    3.500    5.833    0.000 
#    0.000    0.000    0.000    0.000    0.000    0.000 
#    0.000    0.000    0.000    0.000    0.000    0.000 
#
# Total GULP energy -267392.235193 kJ/mol
# GULP energy per Si atom -5570.671567 kJ/mol
# Density = 2.169724 g / cm^3
# Si number density = 21.746741 Si / 1000 Ang^3
#
#
#
# Elastic Constant Matrix: (Units=GPa)
#
#
# Indices 1 2 3 4 5 6 
#
# 1 150.1446 33.0759 50.9600 0.0000 0.0000 0.0000
# 2 33.0759 90.5172 54.2845 0.0000 0.0000 0.0000
# 3 50.9600 54.2845 99.3047 0.0000 0.0000 0.0000
# 4 0.0000 0.0000 0.0000 31.8294 0.0000 0.0000
# 5 0.0000 0.0000 0.0000 0.0000 24.4907 0.0000
# 6 0.0000 0.0000 0.0000 0.0000 0.0000 41.8038
#
#
#
# Elastic Compliance Matrix: (Units=1/GPa)
#
#
# Indices 1 2 3 4 5 6 
#
# 1 0.008094 -0.000694 -0.003774 0.000000 0.000000 0.000000
# 2 -0.000694 0.016495 -0.008661 0.000000 0.000000 0.000000
# 3 -0.003774 -0.008661 0.016741 0.000000 0.000000 0.000000
# 4 0.000000 0.000000 0.000000 0.031418 0.000000 0.000000
# 5 0.000000 0.000000 0.000000 0.000000 0.040832 0.000000
# 6 0.000000 0.000000 0.000000 0.000000 0.000000 0.023921
#
#
# Mechanical properties :
#
#
# Convention : Reuss Voigt Hill
#
# Bulk Modulus (GPa) = 66.34733 68.51193 67.42963
# Shear Modulus (GPa) = 29.62369 33.06785 31.34577
#
# Velocity S-wave (km/s) = 3.69482 3.90370 3.80070
# Velocity P-wave (km/s) = 6.98410 7.20357 7.09468
#
# Compressibility (1/GPa) = 0.01507220
#
# Stress axis : x y z
#
# Youngs Moduli (GPa) = 123.54594 60.62318 59.73287
#
# Poissons Ratio (x) = 0.04209 0.22544
# Poissons Ratio (y) = 0.08577 0.51734
# Poissons Ratio (z) = 0.46628 0.52505
#
# Static dielectric constant tensor:
#      x y z
#    x 1.822200 0.000000 0.000000 
#    y 0.000000 1.878610 0.000000 
#    z 0.000000 0.000000 2.070900 
# 
# From -- ./inp_files/18693.got.cif
#   From: 2010.05.17/outbox.cif.g08.bks.cpg/sg73_10_cif.got.tgz:18693.got - 2010.06.03 17:35:07.
