data_PCOD9532503
_publ_section_title
;
Structure prediction by ZEFSAII (Michael W. Deem and Ramdas Pophale) SiO2 
 PCOD9532503
Probable space group: I B C A 
;
_chemical_formula_sum "Si O2"
_cell_formula_units_Z 96
_cell_length_a 9.038653
_cell_length_b 21.284819
_cell_length_c 21.304942
_cell_angle_alpha 90.000000
_cell_angle_beta 90.000000
_cell_angle_gamma 90.000000
_cell_volume 4098.774555
_symmetry_space_group_name_H-M "I B C A "
_symmetry_group_IT_number 73
_symmetry_cell_setting 'orthorhombic'
loop_
_space_group_symop_operation_xyz
x,y,z
-x,1/2-y,z
x,-y,1/2-z
1/2-x,y,-z
-x,-y,-z
x,1/2+y,-z
-x,y,1/2+z
1/2+x,-y,z
1/2+x,1/2+y,1/2+z
1/2-x,-y,1/2+z
1/2+x,1/2-y,-z
-x,1/2+y,1/2-z
1/2-x,1/2-y,1/2-z
1/2+x,y,1/2-z
1/2-x,1/2+y,z
x,1/2-y,1/2+z
loop_
_atom_site_type_symbol
_atom_site_label
_atom_site_fract_x
_atom_site_fract_y
_atom_site_fract_z
Si Si1 0.186985 0.342878 0.059848
Si Si2 0.390706 0.309776 0.801048
Si Si3 0.333647 0.463559 0.102818
Si Si4 0.896823 0.021705 0.312870
Si Si5 0.147052 0.609113 0.940814
Si Si6 0.190965 0.864616 0.302648
O O1 0.184408 0.313300 0.130163
O O2 0.294275 0.403644 0.062165
O O3 0.018353 0.365525 0.049901
O O4 0.250000 0.304497 0.000000
O O5 0.500000 0.250000 0.798896
O O6 0.275194 0.318159 0.744592
O O7 0.515466 0.363970 0.792603
O O8 0.191923 0.469634 0.148272
O O9 0.482096 0.450072 0.140994
O O10 0.352531 0.532944 0.071920
O O11 0.769531 0.069362 0.292165
O O12 0.973620 0.000000 0.250000
O O13 0.207164 0.643229 0.877825
O O14 0.250000 0.620535 0.000000
#
# Coordination Sequence:
#
# PCOD9532503 Si02
#       6
#    16  16  16  16  16  16
#     4  11  25  41  68  98 131 178 226 275 339 406
#     4  11  25  49  71  97 128 170 231 297 345 398
#     4  11  22  38  59  94 139 180 220 261 320 403
#     4  11  23  35  60  97 141 179 214 264 320 403
#     4  10  23  42  61  99 142 180 219 262 320 411
#     4  10  25  41  68  98 130 171 222 278 337 394
#
# _framework density 23.421634999999998
#
# number of rings (size 3 to 8) (size 9 to 14) (size 15 to 20)
#    0.000    1.333    1.667    2.500   14.000    1.333 
#    0.000    3.333    0.000    1.000    0.000    0.000 
#    0.000    0.000    0.000    0.000    0.000    0.000 
#
# Total GULP energy -268265.999025 kJ/mol
# GULP energy per Si atom -5588.874980 kJ/mol
# Density = 2.336833 g / cm^3
# Si number density = 23.421635 Si / 1000 Ang^3
#
#
#
# Elastic Constant Matrix: (Units=GPa)
#
#
# Indices 1 2 3 4 5 6 
#
# 1 110.4174 8.3017 68.5859 0.0000 0.0000 0.0000
# 2 8.3017 46.5120 28.3259 0.0000 0.0000 0.0000
# 3 68.5859 28.3259 171.4688 0.0000 0.0000 0.0000
# 4 0.0000 0.0000 0.0000 0.9810 0.0000 0.0000
# 5 0.0000 0.0000 0.0000 0.0000 54.7430 0.0000
# 6 0.0000 0.0000 0.0000 0.0000 0.0000 20.3438
#
#
#
# Elastic Compliance Matrix: (Units=1/GPa)
#
#
# Indices 1 2 3 4 5 6 
#
# 1 0.012082 0.000875 -0.004977 0.000000 0.000000 0.000000
# 2 0.000875 0.023968 -0.004309 0.000000 0.000000 0.000000
# 3 -0.004977 -0.004309 0.008535 0.000000 0.000000 0.000000
# 4 0.000000 0.000000 0.000000 1.019362 0.000000 0.000000
# 5 0.000000 0.000000 0.000000 0.000000 0.018267 0.000000
# 6 0.000000 0.000000 0.000000 0.000000 0.000000 0.049155
#
#
# Mechanical properties :
#
#
# Convention : Reuss Voigt Hill
#
# Bulk Modulus (GPa) = 36.02131 59.86947 47.94539
# Shear Modulus (GPa) = 4.31985 30.09255 17.20620
#
# Velocity S-wave (km/s) = 1.35955 3.58833 2.71334
# Velocity P-wave (km/s) = 4.22817 6.54104 5.50739
#
# Compressibility (1/GPa) = 0.02776134
#
# Stress axis : x y z
#
# Youngs Moduli (GPa) = 82.76454 41.72215 117.16822
#
# Poissons Ratio (x) = -0.03649 0.58319
# Poissons Ratio (y) = -0.07239 0.50491
# Poissons Ratio (z) = 0.41195 0.17979
#
# Static dielectric constant tensor:
#      x y z
#    x 1.835980 0.000000 0.000000 
#    y 0.000000 2.018250 0.000000 
#    z 0.000000 0.000000 1.947990 
# 
# From -- ./inp_files/24869.got.cif
#   From: 2010.05.17/outbox.cif.g08.bks.cpg/sg73_13_cif.got.tgz:24869.got - 2010.06.03 17:35:07.
