data_PCOD9532142
_publ_section_title
;
Structure prediction by ZEFSAII (Michael W. Deem and Ramdas Pophale) SiO2 
 PCOD9532142
Probable space group: I B C A 
;
_chemical_formula_sum "Si O2"
_cell_formula_units_Z 72
_cell_length_a 8.944277
_cell_length_b 16.985030
_cell_length_c 21.226575
_cell_angle_alpha 90.000000
_cell_angle_beta 90.000000
_cell_angle_gamma 90.000000
_cell_volume 3224.716082
_symmetry_space_group_name_H-M "I B C A "
_symmetry_group_IT_number 73
_symmetry_cell_setting 'orthorhombic'
loop_
_space_group_symop_operation_xyz
x,y,z
-x,1/2-y,z
x,-y,1/2-z
1/2-x,y,-z
-x,-y,-z
x,1/2+y,-z
-x,y,1/2+z
1/2+x,-y,z
1/2+x,1/2+y,1/2+z
1/2-x,-y,1/2+z
1/2+x,1/2-y,-z
-x,1/2+y,1/2-z
1/2-x,1/2-y,1/2-z
1/2+x,y,1/2-z
1/2-x,1/2+y,z
x,1/2-y,1/2+z
loop_
_atom_site_type_symbol
_atom_site_label
_atom_site_fract_x
_atom_site_fract_y
_atom_site_fract_z
Si Si1 0.500000 0.750000 0.083698
Si Si2 0.856866 0.423897 0.284022
Si Si3 0.250000 0.710223 0.500000
Si Si4 0.069085 0.167930 0.702354
Si Si5 0.949767 0.080742 0.928869
Si Si6 0.250000 0.047920 0.000000
O O1 0.644992 0.762780 0.042956
O O2 0.534988 0.676169 0.128290
O O3 0.784507 0.500000 0.250000
O O4 0.740356 0.351547 0.287479
O O5 0.928213 0.428306 0.353687
O O6 0.982159 0.401509 0.234332
O O7 0.358809 0.655438 0.457645
O O8 0.000000 0.250000 0.727452
O O9 0.858931 0.006719 0.957514
O O10 0.122185 0.084951 0.953229
#
# Coordination Sequence:
#
# PCOD9532142 Si02
#       6
#     8  16   8  16  16   8
#     4  10  24  46  72  94 142 188 252 296 374 438
#     4  12  25  42  73 108 146 193 243 306 375 438
#     4  11  22  47  70  98 136 189 243 310 356 449
#     4  10  24  47  68  99 148 191 240 307 359 446
#     4  10  22  42  65  99 144 180 241 297 366 438
#     4   9  22  39  66  94 138 191 219 294 372 429
#
# _framework density 22.327546999999999
#
# number of rings (size 3 to 8) (size 9 to 14) (size 15 to 20)
#    0.667    0.889    2.222    1.333    6.222    2.667 
#    6.000    0.000    0.000    0.000    0.000    0.000 
#    0.000    0.000    0.000    0.000    0.000    0.000 
#
# Total GULP energy -200715.495842 kJ/mol
# GULP energy per Si atom -5575.430440 kJ/mol
# Density = 2.227673 g / cm^3
# Si number density = 22.327547 Si / 1000 Ang^3
#
#
#
# Elastic Constant Matrix: (Units=GPa)
#
#
# Indices 1 2 3 4 5 6 
#
# 1 173.7131 33.6512 65.6872 0.0000 0.0000 0.0000
# 2 33.6512 43.6284 23.2940 0.0000 0.0000 0.0000
# 3 65.6872 23.2940 121.1981 0.0000 0.0000 0.0000
# 4 0.0000 0.0000 0.0000 24.4438 0.0000 0.0000
# 5 0.0000 0.0000 0.0000 0.0000 23.2210 0.0000
# 6 0.0000 0.0000 0.0000 0.0000 0.0000 23.7928
#
#
#
# Elastic Compliance Matrix: (Units=1/GPa)
#
#
# Indices 1 2 3 4 5 6 
#
# 1 0.007885 -0.004235 -0.003460 0.000000 0.000000 0.000000
# 2 -0.004235 0.027816 -0.003051 0.000000 0.000000 0.000000
# 3 -0.003460 -0.003051 0.010712 0.000000 0.000000 0.000000
# 4 0.000000 0.000000 0.000000 0.040910 0.000000 0.000000
# 5 0.000000 0.000000 0.000000 0.000000 0.043065 0.000000
# 6 0.000000 0.000000 0.000000 0.000000 0.000000 0.042030
#
#
# Mechanical properties :
#
#
# Convention : Reuss Voigt Hill
#
# Bulk Modulus (GPa) = 40.12391 64.86716 52.49553
# Shear Modulus (GPa) = 24.72595 28.68534 26.70564
#
# Velocity S-wave (km/s) = 3.33140 3.58823 3.46220
# Velocity P-wave (km/s) = 5.72776 6.80315 6.28848
#
# Compressibility (1/GPa) = 0.02492280
#
# Stress axis : x y z
#
# Youngs Moduli (GPa) = 126.81954 35.95030 93.34913
#
# Poissons Ratio (x) = 0.15224 0.32296
# Poissons Ratio (y) = 0.53705 0.28481
# Poissons Ratio (z) = 0.43876 0.10969
#
# Static dielectric constant tensor:
#      x y z
#    x 1.799760 0.000000 0.000000 
#    y 0.000000 1.933770 0.000000 
#    z 0.000000 0.000000 1.833520 
# 
# From -- ./inp_files/6056.got.cif
#   From: 2010.05.17/outbox.cif.g08.bks.cpg/sg73_4_cif.got.tgz:6056.got - 2010.06.03 17:35:07.
