data_PCOD9532596
_publ_section_title
;
Structure prediction by ZEFSAII (Michael W. Deem and Ramdas Pophale) SiO2 
 PCOD9532596
Probable space group: I B C A 
;
_chemical_formula_sum "Si O2"
_cell_formula_units_Z 56
_cell_length_a 18.767036
_cell_length_b 14.562017
_cell_length_c 8.668164
_cell_angle_alpha 90.000000
_cell_angle_beta 90.000000
_cell_angle_gamma 90.000000
_cell_volume 2368.886976
_symmetry_space_group_name_H-M "I B C A "
_symmetry_group_IT_number 73
_symmetry_cell_setting 'orthorhombic'
loop_
_space_group_symop_operation_xyz
x,y,z
-x,1/2-y,z
x,-y,1/2-z
1/2-x,y,-z
-x,-y,-z
x,1/2+y,-z
-x,y,1/2+z
1/2+x,-y,z
1/2+x,1/2+y,1/2+z
1/2-x,-y,1/2+z
1/2+x,1/2-y,-z
-x,1/2+y,1/2-z
1/2-x,1/2-y,1/2-z
1/2+x,y,1/2-z
1/2-x,1/2+y,z
x,1/2-y,1/2+z
loop_
_atom_site_type_symbol
_atom_site_label
_atom_site_fract_x
_atom_site_fract_y
_atom_site_fract_z
Si Si1 0.869484 0.120222 0.388738
Si Si2 0.097553 0.959322 0.085322
Si Si3 0.077424 0.215812 0.583254
Si Si4 0.750000 0.993265 0.000000
O O1 0.877300 0.199608 0.516964
O O2 0.888777 0.162567 0.226128
O O3 0.815436 0.451956 0.425372
O O4 0.917421 0.035090 0.452000
O O5 0.208450 0.075045 0.884560
O O6 0.077903 0.000000 0.250000
O O7 0.067817 0.859808 0.050716
O O8 0.000000 0.250000 0.629470
#
# Coordination Sequence:
#
# PCOD9532596 Si02
#       4
#    16  16  16   8
#     4  10  24  43  68 107 139 190 237 302 359 421
#     4  10  23  44  72 106 141 185 234 306 365 424
#     4  12  25  44  70 101 150 196 242 285 358 437
#     4   8  24  42  72 112 138 182 242 296 388 402
#
# _framework density 23.639792
#
# number of rings (size 3 to 8) (size 9 to 14) (size 15 to 20)
#    1.714    0.000    0.000    3.429    4.000    3.429 
#    0.000    4.286    0.000    0.000    0.000    0.000 
#    0.000    0.000    0.000    0.000    0.000    0.000 
#
# Total GULP energy -156533.765946 kJ/mol
# GULP energy per Si atom -5590.491641 kJ/mol
# Density = 2.358599 g / cm^3
# Si number density = 23.639792 Si / 1000 Ang^3
#
#
#
# Elastic Constant Matrix: (Units=GPa)
#
#
# Indices 1 2 3 4 5 6 
#
# 1 68.6979 11.3513 11.3114 0.0000 0.0000 0.0000
# 2 11.3513 107.2799 13.2840 0.0000 0.0000 0.0000
# 3 11.3114 13.2840 81.8562 0.0000 0.0000 0.0000
# 4 0.0000 0.0000 0.0000 41.2366 0.0000 0.0000
# 5 0.0000 0.0000 0.0000 0.0000 30.8964 0.0000
# 6 0.0000 0.0000 0.0000 0.0000 0.0000 -7.1822
#
#
#
# Elastic Compliance Matrix: (Units=1/GPa)
#
#
# Indices 1 2 3 4 5 6 
#
# 1 0.015089 -0.001366 -0.001863 0.000000 0.000000 0.000000
# 2 -0.001366 0.009636 -0.001375 0.000000 0.000000 0.000000
# 3 -0.001863 -0.001375 0.012697 0.000000 0.000000 0.000000
# 4 0.000000 0.000000 0.000000 0.024250 0.000000 0.000000
# 5 0.000000 0.000000 0.000000 0.000000 0.032366 0.000000
# 6 0.000000 0.000000 0.000000 0.000000 0.000000 -0.139233
#
#
# Mechanical properties :
#
#
# Convention : Reuss Voigt Hill
#
# Bulk Modulus (GPa) = 35.44372 36.63635 36.04003
# Shear Modulus (GPa) = -188.10382 27.78267 -80.16057
#
# Velocity S-wave (km/s) = -8.92993 3.43191 -5.82948
# Velocity P-wave (km/s) = 9.55505 5.58886 5.48013
#
# Compressibility (1/GPa) = 0.02821374
#
# Stress axis : x y z
#
# Youngs Moduli (GPa) = 66.27353 103.77538 78.75752
#
# Poissons Ratio (x) = 0.14174 0.14676
# Poissons Ratio (y) = 0.09052 0.10830
# Poissons Ratio (z) = 0.12350 0.14270
#
# Static dielectric constant tensor:
#      x y z
#    x 1.909670 0.000000 0.000000 
#    y 0.000000 1.856010 0.000000 
#    z 0.000000 0.000000 1.920850 
# 
# From -- ./inp_files/4533.got.cif
#   From: 2010.05.17/outbox.cif.g08.bks.cpg/sg73_3_cif.got.tgz:4533.got - 2010.06.03 17:35:07.
