data_PCOD9532232
_publ_section_title
;
Structure prediction by ZEFSAII (Michael W. Deem and Ramdas Pophale) SiO2 
 PCOD9532232
Probable space group: I B C A 
;
_chemical_formula_sum "Si O2"
_cell_formula_units_Z 64
_cell_length_a 18.279949
_cell_length_b 12.472807
_cell_length_c 11.585479
_cell_angle_alpha 90.000000
_cell_angle_beta 90.000000
_cell_angle_gamma 90.000000
_cell_volume 2641.515579
_symmetry_space_group_name_H-M "I B C A "
_symmetry_group_IT_number 73
_symmetry_cell_setting 'orthorhombic'
loop_
_space_group_symop_operation_xyz
x,y,z
-x,1/2-y,z
x,-y,1/2-z
1/2-x,y,-z
-x,-y,-z
x,1/2+y,-z
-x,y,1/2+z
1/2+x,-y,z
1/2+x,1/2+y,1/2+z
1/2-x,-y,1/2+z
1/2+x,1/2-y,-z
-x,1/2+y,1/2-z
1/2-x,1/2-y,1/2-z
1/2+x,y,1/2-z
1/2-x,1/2+y,z
x,1/2-y,1/2+z
loop_
_atom_site_type_symbol
_atom_site_label
_atom_site_fract_x
_atom_site_fract_y
_atom_site_fract_z
Si Si1 0.189717 0.351680 0.318494
Si Si2 0.152735 0.058152 0.130301
Si Si3 0.350715 0.573330 0.586402
Si Si4 0.420796 0.740083 0.983690
O O1 0.272013 0.375301 0.356760
O O2 0.142758 0.457303 0.354862
O O3 0.192967 0.355947 0.180093
O O4 0.144372 0.263435 0.388305
O O5 0.132023 0.000000 0.250000
O O6 0.095391 0.139424 0.069765
O O7 0.173416 0.964431 0.040131
O O8 0.417124 0.651923 0.559622
O O9 0.500000 0.750000 0.926212
#
# Coordination Sequence:
#
# PCOD9532232 Si02
#       4
#    16  16  16  16
#     4  10  23  43  70 100 141 186 240 301 366 423
#     4  11  24  44  71 109 140 188 240 307 363 427
#     4  10  22  43  67 100 138 184 234 299 356 431
#     4  11  26  44  67 104 142 191 238 292 368 440
#
# _framework density 24.228515000000002
#
# number of rings (size 3 to 8) (size 9 to 14) (size 15 to 20)
#    0.000    1.500    2.500    3.000    3.500   10.000 
#    4.500    0.000    0.000    0.000    0.000    0.000 
#    0.000    0.000    0.000    0.000    0.000    0.000 
#
# Total GULP energy -178151.468519 kJ/mol
# GULP energy per Si atom -5567.233391 kJ/mol
# Density = 2.417337 g / cm^3
# Si number density = 24.228515 Si / 1000 Ang^3
#
#
#
# Elastic Constant Matrix: (Units=GPa)
#
#
# Indices 1 2 3 4 5 6 
#
# 1 102.9846 28.1993 25.8138 0.0000 0.0000 0.0000
# 2 28.1993 122.2286 18.7058 0.0000 0.0000 0.0000
# 3 25.8138 18.7058 133.7967 0.0000 0.0000 0.0000
# 4 0.0000 0.0000 0.0000 -0.3590 0.0000 0.0000
# 5 0.0000 0.0000 0.0000 0.0000 9.9044 0.0000
# 6 0.0000 0.0000 0.0000 0.0000 0.0000 7.3012
#
#
#
# Elastic Compliance Matrix: (Units=1/GPa)
#
#
# Indices 1 2 3 4 5 6 
#
# 1 0.010759 -0.002212 -0.001766 0.000000 0.000000 0.000000
# 2 -0.002212 0.008815 -0.000806 0.000000 0.000000 0.000000
# 3 -0.001766 -0.000806 0.007927 0.000000 0.000000 0.000000
# 4 0.000000 0.000000 0.000000 -2.785853 0.000000 0.000000
# 5 0.000000 0.000000 0.000000 0.000000 0.100966 0.000000
# 6 0.000000 0.000000 0.000000 0.000000 0.000000 0.136965
#
#
# Mechanical properties :
#
#
# Convention : Reuss Voigt Hill
#
# Bulk Modulus (GPa) = 55.76247 56.04976 55.90612
# Shear Modulus (GPa) = -1.99611 22.45538 10.22964
#
# Velocity S-wave (km/s) = -0.90866 3.04767 2.05702
# Velocity P-wave (km/s) = 4.68661 5.96392 5.36343
#
# Compressibility (1/GPa) = 0.01793321
#
# Stress axis : x y z
#
# Youngs Moduli (GPa) = 92.94896 113.44343 126.14360
#
# Poissons Ratio (x) = 0.25091 0.22283
# Poissons Ratio (y) = 0.20558 0.10163
# Poissons Ratio (z) = 0.16419 0.09140
#
# Static dielectric constant tensor:
#      x y z
#    x 1.894060 0.000000 0.000000 
#    y 0.000000 2.010250 0.000000 
#    z 0.000000 0.000000 2.060920 
# 
# From -- ./inp_files/11526.got.cif
#   From: 2010.05.17/outbox.cif.g08.bks.cpg/sg73_6_cif.got.tgz:11526.got - 2010.06.03 17:35:07.
