data_PCOD9532270
_publ_section_title
;
Structure prediction by ZEFSAII (Michael W. Deem and Ramdas Pophale) SiO2 
 PCOD9532270
Probable space group: I B C A 
;
_chemical_formula_sum "Si O2"
_cell_formula_units_Z 112
_cell_length_a 30.253732
_cell_length_b 14.854196
_cell_length_c 10.765252
_cell_angle_alpha 90.000000
_cell_angle_beta 90.000000
_cell_angle_gamma 90.000000
_cell_volume 4837.848968
_symmetry_space_group_name_H-M "I B C A "
_symmetry_group_IT_number 73
_symmetry_cell_setting 'orthorhombic'
loop_
_space_group_symop_operation_xyz
x,y,z
-x,1/2-y,z
x,-y,1/2-z
1/2-x,y,-z
-x,-y,-z
x,1/2+y,-z
-x,y,1/2+z
1/2+x,-y,z
1/2+x,1/2+y,1/2+z
1/2-x,-y,1/2+z
1/2+x,1/2-y,-z
-x,1/2+y,1/2-z
1/2-x,1/2-y,1/2-z
1/2+x,y,1/2-z
1/2-x,1/2+y,z
x,1/2-y,1/2+z
loop_
_atom_site_type_symbol
_atom_site_label
_atom_site_fract_x
_atom_site_fract_y
_atom_site_fract_z
Si Si1 0.090609 0.686187 0.024097
Si Si2 0.063180 0.484136 0.078661
Si Si3 0.500000 0.250000 0.630281
Si Si4 0.703095 0.408908 0.678915
Si Si5 0.805743 0.585333 0.887524
Si Si6 0.869095 0.000000 0.250000
Si Si7 0.141254 0.748148 0.774698
Si Si8 0.470313 0.568283 0.337914
O O1 0.087102 0.577223 0.039141
O O2 0.116571 0.727788 0.144173
O O3 0.040016 0.716498 0.045028
O O4 0.110956 0.714475 0.891015
O O5 0.093126 0.438854 0.183734
O O6 0.014684 0.513147 0.124730
O O7 0.057240 0.419828 0.962622
O O8 0.515864 0.335062 0.710723
O O9 0.690247 0.500000 0.750000
O O10 0.756561 0.409554 0.666894
O O11 0.690947 0.404293 0.534074
O O12 0.678394 0.327326 0.746197
O O13 0.832334 0.493136 0.857638
O O14 0.832719 0.663730 0.820131
O O15 0.444934 0.500000 0.250000
#
# Coordination Sequence:
#
# PCOD9532270 Si02
#       8
#    16  16   8  16  16   8  16  16
#     4  11  26  46  69 107 145 195 250 303 380 446
#     4  10  23  41  68  95 135 184 242 298 363 443
#     4  10  26  46  68 106 150 198 242 316 370 456
#     4  11  26  49  73 110 148 194 252 315 384 459
#     4  11  25  47  74 107 146 194 248 313 384 455
#     4  12  22  42  70 100 142 188 240 310 362 452
#     4  12  25  48  74 109 149 197 249 312 377 461
#     4  10  22  44  66 101 136 190 245 307 370 435
#
# _framework density 23.150784999999999
#
# number of rings (size 3 to 8) (size 9 to 14) (size 15 to 20)
#    0.000    1.143    4.286    0.429    6.000    0.571 
#    5.143    0.000    0.000    0.000    0.000    0.000 
#    0.000    0.000    0.000    0.000    0.000    0.000 
#
# Total GULP energy -312324.118420 kJ/mol
# GULP energy per Si atom -5577.216400 kJ/mol
# Density = 2.309809 g / cm^3
# Si number density = 23.150785 Si / 1000 Ang^3
#
#
#
# Elastic Constant Matrix: (Units=GPa)
#
#
# Indices 1 2 3 4 5 6 
#
# 1 105.1248 21.9526 59.3430 0.0000 0.0000 0.0000
# 2 21.9526 117.6970 34.0412 0.0000 0.0000 0.0000
# 3 59.3430 34.0412 115.3928 0.0000 0.0000 0.0000
# 4 0.0000 0.0000 0.0000 32.1308 0.0000 0.0000
# 5 0.0000 0.0000 0.0000 0.0000 11.9868 0.0000
# 6 0.0000 0.0000 0.0000 0.0000 0.0000 37.6627
#
#
#
# Elastic Compliance Matrix: (Units=1/GPa)
#
#
# Indices 1 2 3 4 5 6 
#
# 1 0.013437 -0.000555 -0.006746 0.000000 0.000000 0.000000
# 2 -0.000555 0.009312 -0.002462 0.000000 0.000000 0.000000
# 3 -0.006746 -0.002462 0.012862 0.000000 0.000000 0.000000
# 4 0.000000 0.000000 0.000000 0.031123 0.000000 0.000000
# 5 0.000000 0.000000 0.000000 0.000000 0.083425 0.000000
# 6 0.000000 0.000000 0.000000 0.000000 0.000000 0.026551
#
#
# Mechanical properties :
#
#
# Convention : Reuss Voigt Hill
#
# Bulk Modulus (GPa) = 62.17217 63.20977 62.69097
# Shear Modulus (GPa) = 24.80198 31.21458 28.00828
#
# Velocity S-wave (km/s) = 3.27666 3.67593 3.48202
# Velocity P-wave (km/s) = 6.42098 6.73642 6.58059
#
# Compressibility (1/GPa) = 0.01608437
#
# Stress axis : x y z
#
# Youngs Moduli (GPa) = 74.42286 107.38977 77.75019
#
# Poissons Ratio (x) = 0.05960 0.52453
# Poissons Ratio (y) = 0.04130 0.19139
# Poissons Ratio (z) = 0.50209 0.26435
#
# Static dielectric constant tensor:
#      x y z
#    x 1.864910 0.000000 0.000000 
#    y 0.000000 2.235430 0.000000 
#    z 0.000000 0.000000 1.964250 
# 
# From -- ./inp_files/14848.got.cif
#   From: 2010.05.17/outbox.cif.g08.bks.cpg/sg73_8_cif.got.tgz:14848.got - 2010.06.03 17:35:07.
