data_PCOD9532721
_publ_section_title
;
Structure prediction by ZEFSAII (Michael W. Deem and Ramdas Pophale) SiO2 
 PCOD9532721
Probable space group: I B C A 
;
_chemical_formula_sum "Si O2"
_cell_formula_units_Z 48
_cell_length_a 7.782716
_cell_length_b 12.643821
_cell_length_c 22.236352
_cell_angle_alpha 90.000000
_cell_angle_beta 90.000000
_cell_angle_gamma 90.000000
_cell_volume 2188.129705
_symmetry_space_group_name_H-M "I B C A "
_symmetry_group_IT_number 73
_symmetry_cell_setting 'orthorhombic'
loop_
_space_group_symop_operation_xyz
x,y,z
-x,1/2-y,z
x,-y,1/2-z
1/2-x,y,-z
-x,-y,-z
x,1/2+y,-z
-x,y,1/2+z
1/2+x,-y,z
1/2+x,1/2+y,1/2+z
1/2-x,-y,1/2+z
1/2+x,1/2-y,-z
-x,1/2+y,1/2-z
1/2-x,1/2-y,1/2-z
1/2+x,y,1/2-z
1/2-x,1/2+y,z
x,1/2-y,1/2+z
loop_
_atom_site_type_symbol
_atom_site_label
_atom_site_fract_x
_atom_site_fract_y
_atom_site_fract_z
Si Si1 0.385505 0.877612 0.549690
Si Si2 0.650208 0.500000 0.250000
Si Si3 0.250000 0.084803 0.500000
Si Si4 0.909490 0.142829 0.685962
O O1 0.750000 0.663463 0.500000
O O2 0.343031 0.004155 0.546944
O O3 0.354969 0.841488 0.617230
O O4 0.584861 0.861290 0.531131
O O5 0.757324 0.599927 0.272916
O O6 0.541316 0.544939 0.194213
O O7 0.000000 0.250000 0.706596
#
# Coordination Sequence:
#
# PCOD9532721 Si02
#       4
#    16   8   8  16
#     4   9  17  33  58  86 124 158 201 258 320 378
#     4  10  24  40  66  88 128 172 214 274 314 362
#     4   8  16  30  56  88 120 158 204 244 314 392
#     4  11  22  41  64  93 126 167 219 263 320 388
#
# _framework density 21.936543
#
# number of rings (size 3 to 8) (size 9 to 14) (size 15 to 20)
#    1.000    1.333    0.000    3.000    0.000    0.000 
#    3.000    0.000    0.000    0.000    0.000    0.000 
#    0.000    0.000    0.000    0.000    0.000    0.000 
#
# Total GULP energy -133690.456444 kJ/mol
# GULP energy per Si atom -5570.435685 kJ/mol
# Density = 2.188661 g / cm^3
# Si number density = 21.936543 Si / 1000 Ang^3
#
#
#
# Elastic Constant Matrix: (Units=GPa)
#
#
# Indices 1 2 3 4 5 6 
#
# 1 119.7175 19.7096 54.2273 0.0000 0.0000 0.0000
# 2 19.7096 66.3175 21.7256 0.0000 0.0000 0.0000
# 3 54.2273 21.7256 104.8930 0.0000 0.0000 0.0000
# 4 0.0000 0.0000 0.0000 24.2694 0.0000 0.0000
# 5 0.0000 0.0000 0.0000 0.0000 6.8981 0.0000
# 6 0.0000 0.0000 0.0000 0.0000 0.0000 35.0049
#
#
#
# Elastic Compliance Matrix: (Units=1/GPa)
#
#
# Indices 1 2 3 4 5 6 
#
# 1 0.011047 -0.001515 -0.005397 0.000000 0.000000 0.000000
# 2 -0.001515 0.016384 -0.002610 0.000000 0.000000 0.000000
# 3 -0.005397 -0.002610 0.012864 0.000000 0.000000 0.000000
# 4 0.000000 0.000000 0.000000 0.041204 0.000000 0.000000
# 5 0.000000 0.000000 0.000000 0.000000 0.144967 0.000000
# 6 0.000000 0.000000 0.000000 0.000000 0.000000 0.028567
#
#
# Mechanical properties :
#
#
# Convention : Reuss Voigt Hill
#
# Bulk Modulus (GPa) = 47.05740 53.58365 50.32053
# Shear Modulus (GPa) = 17.78321 26.25218 22.01769
#
# Velocity S-wave (km/s) = 2.85031 3.46314 3.17156
# Velocity P-wave (km/s) = 5.68599 6.36166 6.03329
#
# Compressibility (1/GPa) = 0.02125064
#
# Stress axis : x y z
#
# Youngs Moduli (GPa) = 90.52050 61.03367 77.73341
#
# Poissons Ratio (x) = 0.09247 0.41955
# Poissons Ratio (y) = 0.13715 0.20291
# Poissons Ratio (z) = 0.48857 0.15932
#
# Static dielectric constant tensor:
#      x y z
#    x 1.846250 0.000000 0.000000 
#    y 0.000000 1.886980 0.000000 
#    z 0.000000 0.000000 1.740690 
# 
# From -- ./inp_files/4314.got.cif
#   From: 2010.05.17/outbox.cif.g08.bks.cpg/sg73_3_cif.got.tgz:4314.got - 2010.06.03 17:35:07.
