data_PCOD9532421
_publ_section_title
;
Structure prediction by ZEFSAII (Michael W. Deem and Ramdas Pophale) SiO2 
 PCOD9532421
Probable space group: I B C A 
;
_chemical_formula_sum "Si O2"
_cell_formula_units_Z 96
_cell_length_a 11.831785
_cell_length_b 16.281757
_cell_length_c 24.178618
_cell_angle_alpha 90.000000
_cell_angle_beta 90.000000
_cell_angle_gamma 90.000000
_cell_volume 4657.823331
_symmetry_space_group_name_H-M "I B C A "
_symmetry_group_IT_number 73
_symmetry_cell_setting 'orthorhombic'
loop_
_space_group_symop_operation_xyz
x,y,z
-x,1/2-y,z
x,-y,1/2-z
1/2-x,y,-z
-x,-y,-z
x,1/2+y,-z
-x,y,1/2+z
1/2+x,-y,z
1/2+x,1/2+y,1/2+z
1/2-x,-y,1/2+z
1/2+x,1/2-y,-z
-x,1/2+y,1/2-z
1/2-x,1/2-y,1/2-z
1/2+x,y,1/2-z
1/2-x,1/2+y,z
x,1/2-y,1/2+z
loop_
_atom_site_type_symbol
_atom_site_label
_atom_site_fract_x
_atom_site_fract_y
_atom_site_fract_z
Si Si1 0.196115 0.128357 0.443115
Si Si2 0.206681 0.479054 0.839994
Si Si3 0.145440 0.645698 0.270614
Si Si4 0.122908 0.259309 0.118923
Si Si5 0.524941 0.000000 0.250000
Si Si6 0.313988 0.148273 0.150142
Si Si7 0.000000 0.750000 0.082426
O O1 0.250000 0.097554 0.500000
O O2 0.169572 0.057980 0.398512
O O3 0.297430 0.178889 0.414249
O O4 0.089157 0.190317 0.448908
O O5 0.258860 0.408816 0.800434
O O6 0.101343 0.509177 0.804413
O O7 0.300754 0.550003 0.847466
O O8 0.106804 0.705527 0.319029
O O9 0.185885 0.683102 0.212782
O O10 0.049837 0.581890 0.250517
O O11 0.197500 0.177669 0.122207
O O12 0.000000 0.250000 0.093404
O O13 0.419995 0.189550 0.119188
#
# Coordination Sequence:
#
# PCOD9532421 Si02
#       7
#    16  16  16  16   8  16   8
#     4  10  24  45  68  92 128 164 220 268 319 387
#     4  11  22  38  61  93 128 168 213 261 322 380
#     4  11  21  34  55  91 129 170 201 254 318 386
#     4  10  23  37  61  92 124 167 212 263 317 385
#     4  12  18  34  62  88 134 170 198 260 326 384
#     4  11  20  41  59  94 132 165 217 258 325 394
#     4  10  24  42  70  92 126 176 208 272 330 382
#
# _framework density 20.610485000000001
#
# number of rings (size 3 to 8) (size 9 to 14) (size 15 to 20)
#    0.000    1.333    3.333    2.500    2.333    0.000 
#    0.000    4.167    0.000    0.000    0.000    0.000 
#    0.000    0.000    0.000    0.000    0.000    0.000 
#
# Total GULP energy -267906.445473 kJ/mol
# GULP energy per Si atom -5581.384281 kJ/mol
# Density = 2.056357 g / cm^3
# Si number density = 20.610485 Si / 1000 Ang^3
#
#
#
# Elastic Constant Matrix: (Units=GPa)
#
#
# Indices 1 2 3 4 5 6 
#
# 1 111.6643 13.6859 19.5841 0.0000 0.0000 0.0000
# 2 13.6859 23.9420 8.3790 0.0000 0.0000 0.0000
# 3 19.5841 8.3790 88.4890 0.0000 0.0000 0.0000
# 4 0.0000 0.0000 0.0000 16.4750 0.0000 0.0000
# 5 0.0000 0.0000 0.0000 0.0000 13.4936 0.0000
# 6 0.0000 0.0000 0.0000 0.0000 0.0000 -72.3419
#
#
#
# Elastic Compliance Matrix: (Units=1/GPa)
#
#
# Indices 1 2 3 4 5 6 
#
# 1 0.009873 -0.005046 -0.001707 0.000000 0.000000 0.000000
# 2 -0.005046 0.045778 -0.003218 0.000000 0.000000 0.000000
# 3 -0.001707 -0.003218 0.011983 0.000000 0.000000 0.000000
# 4 0.000000 0.000000 0.000000 0.060698 0.000000 0.000000
# 5 0.000000 0.000000 0.000000 0.000000 0.074109 0.000000
# 6 0.000000 0.000000 0.000000 0.000000 0.000000 -0.013823
#
#
# Mechanical properties :
#
#
# Convention : Reuss Voigt Hill
#
# Bulk Modulus (GPa) = 20.96786 34.15480 27.56133
# Shear Modulus (GPa) = 22.27573 3.68843 12.98208
#
# Velocity S-wave (km/s) = 3.29111 1.33921 2.51246
# Velocity P-wave (km/s) = 4.96361 4.35877 4.67099
#
# Compressibility (1/GPa) = 0.04769203
#
# Stress axis : x y z
#
# Youngs Moduli (GPa) = 101.28276 21.84434 83.44883
#
# Poissons Ratio (x) = 0.11023 0.14247
# Poissons Ratio (y) = 0.51111 0.26853
# Poissons Ratio (z) = 0.17292 0.07029
#
# Static dielectric constant tensor:
#      x y z
#    x 1.755100 0.000000 0.000000 
#    y 0.000000 1.742230 0.000000 
#    z 0.000000 0.000000 1.731030 
# 
# From -- ./inp_files/12136.got.cif
#   From: 2010.05.17/outbox.cif.g08.bks.cpg/sg73_7_cif.got.tgz:12136.got - 2010.06.03 17:35:07.
