data_PCOD9532660
_publ_section_title
;
Structure prediction by ZEFSAII (Michael W. Deem and Ramdas Pophale) SiO2 
 PCOD9532660
Probable space group: I B C A 
;
_chemical_formula_sum "Si O2"
_cell_formula_units_Z 88
_cell_length_a 17.391691
_cell_length_b 13.568085
_cell_length_c 18.438403
_cell_angle_alpha 90.000000
_cell_angle_beta 90.000000
_cell_angle_gamma 90.000000
_cell_volume 4350.945759
_symmetry_space_group_name_H-M "I B C A "
_symmetry_group_IT_number 73
_symmetry_cell_setting 'orthorhombic'
loop_
_space_group_symop_operation_xyz
x,y,z
-x,1/2-y,z
x,-y,1/2-z
1/2-x,y,-z
-x,-y,-z
x,1/2+y,-z
-x,y,1/2+z
1/2+x,-y,z
1/2+x,1/2+y,1/2+z
1/2-x,-y,1/2+z
1/2+x,1/2-y,-z
-x,1/2+y,1/2-z
1/2-x,1/2-y,1/2-z
1/2+x,y,1/2-z
1/2-x,1/2+y,z
x,1/2-y,1/2+z
loop_
_atom_site_type_symbol
_atom_site_label
_atom_site_fract_x
_atom_site_fract_y
_atom_site_fract_z
Si Si1 0.755246 0.500000 0.250000
Si Si2 0.750000 0.588118 0.000000
Si Si3 0.107964 0.071812 0.687454
Si Si4 0.870840 0.724832 0.920365
Si Si5 0.500000 0.750000 0.961183
Si Si6 0.487505 0.536717 0.918075
Si Si7 0.150268 0.046341 0.109272
O O1 0.694882 0.577794 0.216258
O O2 0.805022 0.461111 0.184503
O O3 0.798820 0.658861 0.946277
O O4 0.693679 0.519731 0.951379
O O5 0.092070 0.179707 0.653820
O O6 0.070589 0.000000 0.750000
O O7 0.089400 0.007535 0.616232
O O8 0.851896 0.839591 0.912931
O O9 0.931408 0.719128 0.985690
O O10 0.481608 0.653757 0.915327
O O11 0.563690 0.494278 0.880047
O O12 0.500000 0.500000 0.000000
#
# Coordination Sequence:
#
# PCOD9532660 Si02
#       7
#     8   8  16  16   8  16  16
#     4  10  26  46  64  94 146 184 224 276 350 404
#     4  12  22  44  66 106 136 174 226 294 340 416
#     4  10  23  47  65  94 141 181 222 288 335 408
#     4  12  23  41  71 100 135 182 234 281 352 408
#     4  12  24  42  70 112 126 184 228 294 352 408
#     4  12  23  44  73  98 138 171 240 289 344 404
#     4  12  25  43  71 101 139 184 227 289 347 416
#
# _framework density 20.225489
#
# number of rings (size 3 to 8) (size 9 to 14) (size 15 to 20)
#    0.545    0.000    7.273    0.545    1.273    2.182 
#    3.273    0.000    0.000    0.000    0.000    0.000 
#    0.000    0.000    0.000    0.000    0.000    0.000 
#
# Total GULP energy -245192.021236 kJ/mol
# GULP energy per Si atom -5572.545937 kJ/mol
# Density = 2.017945 g / cm^3
# Si number density = 20.225489 Si / 1000 Ang^3
#
#
#
# Elastic Constant Matrix: (Units=GPa)
#
#
# Indices 1 2 3 4 5 6 
#
# 1 54.0859 13.6030 16.6327 0.0000 0.0000 0.0000
# 2 13.6030 114.8163 3.9426 0.0000 0.0000 0.0000
# 3 16.6327 3.9426 68.1992 0.0000 0.0000 0.0000
# 4 0.0000 0.0000 0.0000 11.9639 0.0000 0.0000
# 5 0.0000 0.0000 0.0000 0.0000 33.2067 0.0000
# 6 0.0000 0.0000 0.0000 0.0000 0.0000 24.4418
#
#
#
# Elastic Compliance Matrix: (Units=1/GPa)
#
#
# Indices 1 2 3 4 5 6 
#
# 1 0.020561 -0.002268 -0.004883 0.000000 0.000000 0.000000
# 2 -0.002268 0.008977 0.000034 0.000000 0.000000 0.000000
# 3 -0.004883 0.000034 0.015852 0.000000 0.000000 0.000000
# 4 0.000000 0.000000 0.000000 0.083585 0.000000 0.000000
# 5 0.000000 0.000000 0.000000 0.000000 0.030114 0.000000
# 6 0.000000 0.000000 0.000000 0.000000 0.000000 0.040914
#
#
# Mechanical properties :
#
#
# Convention : Reuss Voigt Hill
#
# Bulk Modulus (GPa) = 32.09723 33.93978 33.01851
# Shear Modulus (GPa) = 22.25950 27.45069 24.85509
#
# Velocity S-wave (km/s) = 3.32108 3.68806 3.50937
# Velocity P-wave (km/s) = 5.53265 5.91209 5.72552
#
# Compressibility (1/GPa) = 0.03115534
#
# Stress axis : x y z
#
# Youngs Moduli (GPa) = 48.63487 111.39414 63.08373
#
# Poissons Ratio (x) = 0.25268 0.30807
# Poissons Ratio (y) = 0.11032 -0.00216
# Poissons Ratio (z) = 0.23751 -0.00382
#
# Static dielectric constant tensor:
#      x y z
#    x 1.759260 0.000000 0.000000 
#    y 0.000000 1.777100 0.000000 
#    z 0.000000 0.000000 1.735690 
# 
# From -- ./inp_files/22485.got.cif
#   From: 2010.05.17/outbox.cif.g08.bks.cpg/sg73_12_cif.got.tgz:22485.got - 2010.06.03 17:35:07.
