data_PCOD9532509
_publ_section_title
;
Structure prediction by ZEFSAII (Michael W. Deem and Ramdas Pophale) SiO2 
 PCOD9532509
Probable space group: I B C A 
;
_chemical_formula_sum "Si O2"
_cell_formula_units_Z 104
_cell_length_a 14.856736
_cell_length_b 19.014753
_cell_length_c 18.712583
_cell_angle_alpha 90.000000
_cell_angle_beta 90.000000
_cell_angle_gamma 90.000000
_cell_volume 5286.251655
_symmetry_space_group_name_H-M "I B C A "
_symmetry_group_IT_number 73
_symmetry_cell_setting 'orthorhombic'
loop_
_space_group_symop_operation_xyz
x,y,z
-x,1/2-y,z
x,-y,1/2-z
1/2-x,y,-z
-x,-y,-z
x,1/2+y,-z
-x,y,1/2+z
1/2+x,-y,z
1/2+x,1/2+y,1/2+z
1/2-x,-y,1/2+z
1/2+x,1/2-y,-z
-x,1/2+y,1/2-z
1/2-x,1/2-y,1/2-z
1/2+x,y,1/2-z
1/2-x,1/2+y,z
x,1/2-y,1/2+z
loop_
_atom_site_type_symbol
_atom_site_label
_atom_site_fract_x
_atom_site_fract_y
_atom_site_fract_z
Si Si1 0.838186 0.734728 0.089639
Si Si2 0.635732 0.820966 0.561018
Si Si3 0.000000 0.250000 0.668360
Si Si4 0.361783 0.385150 0.655782
Si Si5 0.737569 0.425385 0.720648
Si Si6 0.940068 0.353557 0.288848
Si Si7 0.693086 0.472323 0.428093
O O1 0.736150 0.705792 0.082590
O O2 0.841044 0.817013 0.107659
O O3 0.891960 0.694285 0.151327
O O4 0.883248 0.715599 0.014523
O O5 0.568861 0.792877 0.620121
O O6 0.629438 0.905770 0.551985
O O7 0.046894 0.305231 0.720296
O O8 0.299260 0.377245 0.727748
O O9 0.464859 0.381872 0.682682
O O10 0.344181 0.456097 0.608653
O O11 0.766234 0.500000 0.750000
O O12 0.633034 0.411494 0.731723
O O13 0.752470 0.433980 0.636228
O O14 0.750000 0.487975 0.500000
#
# Coordination Sequence:
#
# PCOD9532509 Si02
#       7
#    16  16   8  16  16  16  16
#     4  11  23  45  69  94 137 180 227 290 351 416
#     4  11  24  43  69  96 136 183 223 290 356 428
#     4  12  26  36  68 106 132 172 238 284 346 432
#     4  11  25  41  71 101 133 182 233 294 338 429
#     4  10  23  42  65  94 135 174 225 278 343 411
#     4  12  23  42  67  99 133 178 228 288 347 412
#     4  11  22  45  67  96 139 184 229 280 364 416
#
# _framework density 19.673676
#
# number of rings (size 3 to 8) (size 9 to 14) (size 15 to 20)
#    0.000    0.923    4.615    1.846    4.308    4.308 
#    0.000    3.077    0.000    0.000    0.000    0.000 
#    0.000    0.000    0.000    0.000    0.000    0.000 
#
# Total GULP energy -289964.439753 kJ/mol
# GULP energy per Si atom -5576.239226 kJ/mol
# Density = 1.962890 g / cm^3
# Si number density = 19.673676 Si / 1000 Ang^3
#
#
#
# Elastic Constant Matrix: (Units=GPa)
#
#
# Indices 1 2 3 4 5 6 
#
# 1 62.3174 13.9495 32.6238 0.0000 0.0000 0.0000
# 2 13.9495 71.1144 18.6714 0.0000 0.0000 0.0000
# 3 32.6238 18.6714 128.4741 0.0000 0.0000 0.0000
# 4 0.0000 0.0000 0.0000 5.3536 0.0000 0.0000
# 5 0.0000 0.0000 0.0000 0.0000 50.6551 0.0000
# 6 0.0000 0.0000 0.0000 0.0000 0.0000 28.3320
#
#
#
# Elastic Compliance Matrix: (Units=1/GPa)
#
#
# Indices 1 2 3 4 5 6 
#
# 1 0.018942 -0.002550 -0.004439 0.000000 0.000000 0.000000
# 2 -0.002550 0.014963 -0.001527 0.000000 0.000000 0.000000
# 3 -0.004439 -0.001527 0.009133 0.000000 0.000000 0.000000
# 4 0.000000 0.000000 0.000000 0.186791 0.000000 0.000000
# 5 0.000000 0.000000 0.000000 0.000000 0.019741 0.000000
# 6 0.000000 0.000000 0.000000 0.000000 0.000000 0.035296
#
#
# Mechanical properties :
#
#
# Convention : Reuss Voigt Hill
#
# Bulk Modulus (GPa) = 38.45439 43.59949 41.02694
# Shear Modulus (GPa) = 16.09962 29.97888 23.03925
#
# Velocity S-wave (km/s) = 2.86376 3.90783 3.42580
# Velocity P-wave (km/s) = 5.52479 6.52464 6.04542
#
# Compressibility (1/GPa) = 0.02600483
#
# Stress axis : x y z
#
# Youngs Moduli (GPa) = 52.79352 66.83162 109.49427
#
# Poissons Ratio (x) = 0.17042 0.48608
# Poissons Ratio (y) = 0.13462 0.16721
# Poissons Ratio (z) = 0.23437 0.10206
#
# Static dielectric constant tensor:
#      x y z
#    x 1.683710 0.000000 0.000000 
#    y 0.000000 1.809830 0.000000 
#    z 0.000000 0.000000 1.591170 
# 
# From -- ./inp_files/18820.got.cif
#   From: 2010.05.17/outbox.cif.g08.bks.cpg/sg73_10_cif.got.tgz:18820.got - 2010.06.03 17:35:07.
