data_PCOD9532139
_publ_section_title
;
Structure prediction by ZEFSAII (Michael W. Deem and Ramdas Pophale) SiO2 
 PCOD9532139
Probable space group: I B C A 
;
_chemical_formula_sum "Si O2"
_cell_formula_units_Z 64
_cell_length_a 13.027977
_cell_length_b 9.667498
_cell_length_c 21.861737
_cell_angle_alpha 90.000000
_cell_angle_beta 90.000000
_cell_angle_gamma 90.000000
_cell_volume 2753.440775
_symmetry_space_group_name_H-M "I B C A "
_symmetry_group_IT_number 73
_symmetry_cell_setting 'orthorhombic'
loop_
_space_group_symop_operation_xyz
x,y,z
-x,1/2-y,z
x,-y,1/2-z
1/2-x,y,-z
-x,-y,-z
x,1/2+y,-z
-x,y,1/2+z
1/2+x,-y,z
1/2+x,1/2+y,1/2+z
1/2-x,-y,1/2+z
1/2+x,1/2-y,-z
-x,1/2+y,1/2-z
1/2-x,1/2-y,1/2-z
1/2+x,y,1/2-z
1/2-x,1/2+y,z
x,1/2-y,1/2+z
loop_
_atom_site_type_symbol
_atom_site_label
_atom_site_fract_x
_atom_site_fract_y
_atom_site_fract_z
Si Si1 0.901714 0.653009 0.505508
Si Si2 0.145927 0.971513 0.821785
Si Si3 0.189288 0.231921 0.380876
Si Si4 0.465688 0.502657 0.102326
O O1 0.819894 0.735601 0.546396
O O2 0.883625 0.586817 0.438879
O O3 0.000000 0.750000 0.494728
O O4 0.946058 0.537879 0.552664
O O5 0.176878 0.121245 0.848835
O O6 0.154288 0.000000 0.750000
O O7 0.218204 0.855047 0.852080
O O8 0.030087 0.932963 0.842868
O O9 0.090117 0.132970 0.372718
#
# Coordination Sequence:
#
# PCOD9532139 Si02
#       4
#    16  16  16  16
#     4   8  16  36  61  86 122 159 205 267 332 397
#     4  11  23  41  65  95 132 179 230 280 343 418
#     4  10  22  42  64  95 133 173 224 282 343 415
#     4   9  19  39  63  89 126 172 218 273 338 412
#
# _framework density 23.243645999999998
#
# number of rings (size 3 to 8) (size 9 to 14) (size 15 to 20)
#    0.000    2.500    0.000    3.000    0.000    3.000 
#    0.000   40.000    0.000    0.000    0.000    0.000 
#    0.000    0.000    0.000    0.000    0.000    0.000 
#
# Total GULP energy -178437.655148 kJ/mol
# GULP energy per Si atom -5576.176723 kJ/mol
# Density = 2.319074 g / cm^3
# Si number density = 23.243646 Si / 1000 Ang^3
#
#
#
# Elastic Constant Matrix: (Units=GPa)
#
#
# Indices 1 2 3 4 5 6 
#
# 1 67.6589 26.6827 44.6461 0.0000 0.0000 0.0000
# 2 26.6827 102.7820 56.6235 0.0000 0.0000 0.0000
# 3 44.6461 56.6235 97.3844 0.0000 0.0000 0.0000
# 4 0.0000 0.0000 0.0000 29.7957 0.0000 0.0000
# 5 0.0000 0.0000 0.0000 0.0000 28.3598 0.0000
# 6 0.0000 0.0000 0.0000 0.0000 0.0000 27.5382
#
#
#
# Elastic Compliance Matrix: (Units=1/GPa)
#
#
# Indices 1 2 3 4 5 6 
#
# 1 0.021194 -0.000220 -0.009589 0.000000 0.000000 0.000000
# 2 -0.000220 0.014317 -0.008224 0.000000 0.000000 0.000000
# 3 -0.009589 -0.008224 0.019446 0.000000 0.000000 0.000000
# 4 0.000000 0.000000 0.000000 0.033562 0.000000 0.000000
# 5 0.000000 0.000000 0.000000 0.000000 0.035261 0.000000
# 6 0.000000 0.000000 0.000000 0.000000 0.000000 0.036313
#
#
# Mechanical properties :
#
#
# Convention : Reuss Voigt Hill
#
# Bulk Modulus (GPa) = 52.93000 58.19221 55.56111
# Shear Modulus (GPa) = 24.69682 26.46360 25.58021
#
# Velocity S-wave (km/s) = 3.26317 3.37787 3.32101
# Velocity P-wave (km/s) = 6.08432 6.34850 6.21781
#
# Compressibility (1/GPa) = 0.01889288
#
# Stress axis : x y z
#
# Youngs Moduli (GPa) = 47.18333 69.84761 51.42383
#
# Poissons Ratio (x) = 0.01533 0.49309
# Poissons Ratio (y) = 0.01036 0.42290
# Poissons Ratio (z) = 0.45243 0.57441
#
# Static dielectric constant tensor:
#      x y z
#    x 1.984310 0.000000 0.000000 
#    y 0.000000 1.905190 0.000000 
#    z 0.000000 0.000000 1.908260 
# 
# From -- ./inp_files/9588.got.cif
#   From: 2010.05.17/outbox.cif.g08.bks.cpg/sg73_5_cif.got.tgz:9588.got - 2010.06.03 17:35:07.
