data_PCOD9532223
_publ_section_title
;
Structure prediction by ZEFSAII (Michael W. Deem and Ramdas Pophale) SiO2 
 PCOD9532223
Probable space group: I B C A 
;
_chemical_formula_sum "Si O2"
_cell_formula_units_Z 80
_cell_length_a 24.683256
_cell_length_b 13.411968
_cell_length_c 10.112317
_cell_angle_alpha 90.000000
_cell_angle_beta 90.000000
_cell_angle_gamma 90.000000
_cell_volume 3347.693056
_symmetry_space_group_name_H-M "I B C A "
_symmetry_group_IT_number 73
_symmetry_cell_setting 'orthorhombic'
loop_
_space_group_symop_operation_xyz
x,y,z
-x,1/2-y,z
x,-y,1/2-z
1/2-x,y,-z
-x,-y,-z
x,1/2+y,-z
-x,y,1/2+z
1/2+x,-y,z
1/2+x,1/2+y,1/2+z
1/2-x,-y,1/2+z
1/2+x,1/2-y,-z
-x,1/2+y,1/2-z
1/2-x,1/2-y,1/2-z
1/2+x,y,1/2-z
1/2-x,1/2+y,z
x,1/2-y,1/2+z
loop_
_atom_site_type_symbol
_atom_site_label
_atom_site_fract_x
_atom_site_fract_y
_atom_site_fract_z
Si Si1 0.067754 0.000000 0.750000
Si Si2 0.339113 0.071661 0.065811
Si Si3 0.386892 0.885425 0.722150
Si Si4 0.948670 0.300298 0.622266
Si Si5 0.250000 0.797588 0.500000
Si Si6 0.336365 0.353449 0.008308
O O1 0.109338 0.934432 0.660825
O O2 0.035921 0.910389 0.821087
O O3 0.286262 0.135933 0.097900
O O4 0.361513 0.105347 0.923435
O O5 0.320812 0.959001 0.049912
O O6 0.427594 0.790079 0.717975
O O7 0.341505 0.862061 0.833341
O O8 0.407660 0.000000 0.750000
O O9 0.897304 0.326530 0.533218
O O10 0.000000 0.250000 0.552176
O O11 0.295094 0.723596 0.553920
#
# Coordination Sequence:
#
# PCOD9532223 Si02
#       6
#     8  16  16  16   8  16
#     4  10  24  48  68 100 144 176 240 292 350 422
#     4  10  22  43  64  97 133 179 226 286 346 411
#     4  10  22  44  67  95 137 177 236 286 345 428
#     4  11  24  43  70  99 137 183 230 291 354 418
#     4  12  20  40  68  92 140 176 228 278 350 410
#     4  10  23  42  63 101 134 174 235 284 344 419
#
# _framework density 23.897053
#
# number of rings (size 3 to 8) (size 9 to 14) (size 15 to 20)
#    0.000    1.600    2.000    1.800    1.400    1.600 
#   12.600    3.000    0.000    0.000    0.000    0.000 
#    0.000    0.000    0.000    0.000    0.000    0.000 
#
# Total GULP energy -223013.824585 kJ/mol
# GULP energy per Si atom -5575.345615 kJ/mol
# Density = 2.384266 g / cm^3
# Si number density = 23.897053 Si / 1000 Ang^3
#
#
#
# Elastic Constant Matrix: (Units=GPa)
#
#
# Indices 1 2 3 4 5 6 
#
# 1 87.5263 50.2358 7.0788 0.0000 0.0000 0.0000
# 2 50.2358 177.5900 5.1164 0.0000 0.0000 0.0000
# 3 7.0788 5.1164 54.5225 0.0000 0.0000 0.0000
# 4 0.0000 0.0000 0.0000 6.8446 0.0000 0.0000
# 5 0.0000 0.0000 0.0000 0.0000 -12.7115 0.0000
# 6 0.0000 0.0000 0.0000 0.0000 0.0000 39.6356
#
#
#
# Elastic Compliance Matrix: (Units=1/GPa)
#
#
# Indices 1 2 3 4 5 6 
#
# 1 0.013749 -0.003848 -0.001424 0.000000 0.000000 0.000000
# 2 -0.003848 0.006723 -0.000131 0.000000 0.000000 0.000000
# 3 -0.001424 -0.000131 0.018538 0.000000 0.000000 0.000000
# 4 0.000000 0.000000 0.000000 0.146102 0.000000 0.000000
# 5 0.000000 0.000000 0.000000 0.000000 -0.078669 0.000000
# 6 0.000000 0.000000 0.000000 0.000000 0.000000 0.025230
#
#
# Mechanical properties :
#
#
# Convention : Reuss Voigt Hill
#
# Bulk Modulus (GPa) = 35.45646 49.38898 42.42272
# Shear Modulus (GPa) = 32.92046 23.90091 28.41069
#
# Velocity S-wave (km/s) = 3.71562 3.16596 3.45175
# Velocity P-wave (km/s) = 5.76864 5.83753 5.80318
#
# Compressibility (1/GPa) = 0.02820361
#
# Stress axis : x y z
#
# Youngs Moduli (GPa) = 72.73263 148.73657 53.94252
#
# Poissons Ratio (x) = 0.57237 0.07681
# Poissons Ratio (y) = 0.27989 0.00708
# Poissons Ratio (z) = 0.10357 0.01953
#
# Static dielectric constant tensor:
#      x y z
#    x 1.907290 0.000000 0.000000 
#    y 0.000000 1.969990 0.000000 
#    z 0.000000 0.000000 1.947110 
# 
# From -- ./inp_files/13455.got.cif
#   From: 2010.05.17/outbox.cif.g08.bks.cpg/sg73_7_cif.got.tgz:13455.got - 2010.06.03 17:35:07.
