data_PCOD9532515
_publ_section_title
;
Structure prediction by ZEFSAII (Michael W. Deem and Ramdas Pophale) SiO2 
 PCOD9532515
Probable space group: I B C A 
;
_chemical_formula_sum "Si O2"
_cell_formula_units_Z 80
_cell_length_a 27.423029
_cell_length_b 10.145952
_cell_length_c 12.860661
_cell_angle_alpha 90.000000
_cell_angle_beta 90.000000
_cell_angle_gamma 90.000000
_cell_volume 3578.256896
_symmetry_space_group_name_H-M "I B C A "
_symmetry_group_IT_number 73
_symmetry_cell_setting 'orthorhombic'
loop_
_space_group_symop_operation_xyz
x,y,z
-x,1/2-y,z
x,-y,1/2-z
1/2-x,y,-z
-x,-y,-z
x,1/2+y,-z
-x,y,1/2+z
1/2+x,-y,z
1/2+x,1/2+y,1/2+z
1/2-x,-y,1/2+z
1/2+x,1/2-y,-z
-x,1/2+y,1/2-z
1/2-x,1/2-y,1/2-z
1/2+x,y,1/2-z
1/2-x,1/2+y,z
x,1/2-y,1/2+z
loop_
_atom_site_type_symbol
_atom_site_label
_atom_site_fract_x
_atom_site_fract_y
_atom_site_fract_z
Si Si1 0.610759 0.635700 0.797715
Si Si2 0.198519 0.686542 0.230899
Si Si3 0.700942 0.953812 0.566686
Si Si4 0.904423 0.495386 0.005588
Si Si5 0.057811 0.762954 0.895550
O O1 0.631459 0.500000 0.750000
O O2 0.656548 0.727601 0.821799
O O3 0.580190 0.581276 0.894020
O O4 0.578095 0.711220 0.714325
O O5 0.250000 0.750000 0.250000
O O6 0.209363 0.569650 0.150236
O O7 0.183095 0.656874 0.350843
O O8 0.750000 0.926177 0.500000
O O9 0.654343 0.994554 0.499065
O O10 0.920551 0.345009 0.021743
O O11 0.926102 0.585375 0.913886
O O12 0.000000 0.750000 0.899936
#
# Coordination Sequence:
#
# PCOD9532515 Si02
#       5
#    16  16  16  16  16
#     4  10  23  42  66  93 132 174 221 279 336 401
#     4  11  24  40  64  96 134 177 224 275 331 401
#     4  11  25  41  66 100 133 181 222 274 337 409
#     4  11  23  44  70  99 138 180 227 283 342 407
#     4  11  24  44  69 101 134 177 230 284 342 402
#
# _framework density 22.357254000000001
#
# number of rings (size 3 to 8) (size 9 to 14) (size 15 to 20)
#    0.000    1.200    2.000    3.000    8.400    3.200 
#    0.000    8.000    0.000    0.000    0.000    0.000 
#    0.000    0.000    0.000    0.000    0.000    0.000 
#
# Total GULP energy -223192.723702 kJ/mol
# GULP energy per Si atom -5579.818093 kJ/mol
# Density = 2.230637 g / cm^3
# Si number density = 22.357254 Si / 1000 Ang^3
#
#
#
# Elastic Constant Matrix: (Units=GPa)
#
#
# Indices 1 2 3 4 5 6 
#
# 1 97.7997 -6.0699 -12.4458 0.0000 0.0000 0.0000
# 2 -6.0699 37.9825 2.0583 0.0000 0.0000 0.0000
# 3 -12.4458 2.0583 57.2063 0.0000 0.0000 0.0000
# 4 0.0000 0.0000 0.0000 35.0911 0.0000 0.0000
# 5 0.0000 0.0000 0.0000 0.0000 22.3253 0.0000
# 6 0.0000 0.0000 0.0000 0.0000 0.0000 23.7100
#
#
#
# Elastic Compliance Matrix: (Units=1/GPa)
#
#
# Indices 1 2 3 4 5 6 
#
# 1 0.010609 0.001573 0.002252 0.000000 0.000000 0.000000
# 2 0.001573 0.026613 -0.000615 0.000000 0.000000 0.000000
# 3 0.002252 -0.000615 0.017993 0.000000 0.000000 0.000000
# 4 0.000000 0.000000 0.000000 0.028497 0.000000 0.000000
# 5 0.000000 0.000000 0.000000 0.000000 0.044792 0.000000
# 6 0.000000 0.000000 0.000000 0.000000 0.000000 0.042176
#
#
# Mechanical properties :
#
#
# Convention : Reuss Voigt Hill
#
# Bulk Modulus (GPa) = 16.22486 17.78597 17.00542
# Shear Modulus (GPa) = 27.05545 30.18831 28.62188
#
# Velocity S-wave (km/s) = 3.48248 3.67859 3.58188
# Velocity P-wave (km/s) = 4.84181 5.10052 4.97285
#
# Compressibility (1/GPa) = 0.06163381
#
# Stress axis : x y z
#
# Youngs Moduli (GPa) = 94.25818 37.57604 55.57854
#
# Poissons Ratio (x) = -0.05912 -0.12514
# Poissons Ratio (y) = -0.14831 0.03419
# Poissons Ratio (z) = -0.21222 0.02312
#
# Static dielectric constant tensor:
#      x y z
#    x 1.702930 0.000000 0.000000 
#    y 0.000000 1.879620 0.000000 
#    z 0.000000 0.000000 1.929140 
# 
# From -- ./inp_files/19158.got.cif
#   From: 2010.05.17/outbox.cif.g08.bks.cpg/sg73_10_cif.got.tgz:19158.got - 2010.06.03 17:35:07.
