data_PCOD9532294
_publ_section_title
;
Structure prediction by ZEFSAII (Michael W. Deem and Ramdas Pophale) SiO2 
 PCOD9532294
Probable space group: I B C A 
;
_chemical_formula_sum "Si O2"
_cell_formula_units_Z 120
_cell_length_a 28.718263
_cell_length_b 13.141746
_cell_length_c 15.656868
_cell_angle_alpha 90.000000
_cell_angle_beta 90.000000
_cell_angle_gamma 90.000000
_cell_volume 5909.029084
_symmetry_space_group_name_H-M "I B C A "
_symmetry_group_IT_number 73
_symmetry_cell_setting 'orthorhombic'
loop_
_space_group_symop_operation_xyz
x,y,z
-x,1/2-y,z
x,-y,1/2-z
1/2-x,y,-z
-x,-y,-z
x,1/2+y,-z
-x,y,1/2+z
1/2+x,-y,z
1/2+x,1/2+y,1/2+z
1/2-x,-y,1/2+z
1/2+x,1/2-y,-z
-x,1/2+y,1/2-z
1/2-x,1/2-y,1/2-z
1/2+x,y,1/2-z
1/2-x,1/2+y,z
x,1/2-y,1/2+z
loop_
_atom_site_type_symbol
_atom_site_label
_atom_site_fract_x
_atom_site_fract_y
_atom_site_fract_z
Si Si1 0.713263 0.181237 0.802836
Si Si2 0.036647 0.500000 0.250000
Si Si3 0.427070 0.245219 0.417316
Si Si4 0.388637 0.181013 0.239828
Si Si5 0.360263 0.771085 0.931571
Si Si6 0.507182 0.924074 0.078697
Si Si7 0.779582 0.937896 0.587653
Si Si8 0.701011 0.841809 0.047600
O O1 0.750000 0.250000 0.750000
O O2 0.665854 0.151117 0.754379
O O3 0.742993 0.087341 0.838291
O O4 0.698698 0.250836 0.884297
O O5 0.072824 0.407498 0.267674
O O6 0.003662 0.519800 0.331757
O O7 0.403465 0.240816 0.324809
O O8 0.393983 0.201971 0.491089
O O9 0.469139 0.165667 0.419222
O O10 0.444985 0.360388 0.430973
O O11 0.387681 0.247185 0.154255
O O12 0.319848 0.853106 0.915077
O O13 0.335803 0.670943 0.971543
O O14 0.500000 0.000000 0.000000
O O15 0.750000 0.932941 0.500000
O O16 0.801163 0.049810 0.593218
O O17 0.750000 0.833589 0.000000
#
# Coordination Sequence:
#
# PCOD9532294 Si02
#       8
#    16   8  16  16  16  16  16  16
#     4  12  21  40  59  88 134 174 222 271 321 380
#     4  10  24  42  66 100 128 162 224 266 328 406
#     4  10  23  41  66  95 132 163 208 274 330 395
#     4  11  23  39  64  95 130 173 217 270 325 392
#     4  12  21  41  62  90 128 167 217 266 327 394
#     4  10  22  44  69  97 126 166 209 265 338 406
#     4  11  22  37  60  85 122 174 221 272 322 370
#     4  11  22  38  59  87 124 173 220 272 320 376
#
# _framework density 20.307905999999999
#
# number of rings (size 3 to 8) (size 9 to 14) (size 15 to 20)
#    0.000    1.067    5.333    0.800    0.000    8.000 
#    0.000    2.667    0.000    0.000    0.000    0.000 
#    0.000    0.000    0.000    0.000    0.000    0.000 
#
# Total GULP energy -334885.527945 kJ/mol
# GULP energy per Si atom -5581.425466 kJ/mol
# Density = 2.026168 g / cm^3
# Si number density = 20.307906 Si / 1000 Ang^3
#
#
#
# Elastic Constant Matrix: (Units=GPa)
#
#
# Indices 1 2 3 4 5 6 
#
# 1 40.9647 3.7069 7.8213 0.0000 0.0000 0.0000
# 2 3.7069 77.0987 20.3912 0.0000 0.0000 0.0000
# 3 7.8213 20.3912 105.8250 0.0000 0.0000 0.0000
# 4 0.0000 0.0000 0.0000 21.8733 0.0000 0.0000
# 5 0.0000 0.0000 0.0000 0.0000 23.8555 0.0000
# 6 0.0000 0.0000 0.0000 0.0000 0.0000 9.1119
#
#
#
# Elastic Compliance Matrix: (Units=1/GPa)
#
#
# Indices 1 2 3 4 5 6 
#
# 1 0.024801 -0.000746 -0.001689 0.000000 0.000000 0.000000
# 2 -0.000746 0.013689 -0.002583 0.000000 0.000000 0.000000
# 3 -0.001689 -0.002583 0.010072 0.000000 0.000000 0.000000
# 4 0.000000 0.000000 0.000000 0.045718 0.000000 0.000000
# 5 0.000000 0.000000 0.000000 0.000000 0.041919 0.000000
# 6 0.000000 0.000000 0.000000 0.000000 0.000000 0.109746
#
#
# Mechanical properties :
#
#
# Convention : Reuss Voigt Hill
#
# Bulk Modulus (GPa) = 25.95558 31.96968 28.96263
# Shear Modulus (GPa) = 18.59956 23.76606 21.18281
#
# Velocity S-wave (km/s) = 3.02963 3.42466 3.23318
# Velocity P-wave (km/s) = 5.00470 5.60485 5.31325
#
# Compressibility (1/GPa) = 0.03852737
#
# Stress axis : x y z
#
# Youngs Moduli (GPa) = 40.32051 73.04974 99.28448
#
# Poissons Ratio (x) = 0.05447 0.16772
# Poissons Ratio (y) = 0.03007 0.25642
# Poissons Ratio (z) = 0.06811 0.18866
#
# Static dielectric constant tensor:
#      x y z
#    x 1.931940 0.000000 0.000000 
#    y 0.000000 1.849930 0.000000 
#    z 0.000000 0.000000 1.721660 
# 
# From -- ./inp_files/20140.got.cif
#   From: 2010.05.17/outbox.cif.g08.bks.cpg/sg73_11_cif.got.tgz:20140.got - 2010.06.03 17:35:07.
