data_PCOD9532231
_publ_section_title
;
Structure prediction by ZEFSAII (Michael W. Deem and Ramdas Pophale) SiO2 
 PCOD9532231
Probable space group: I B C A 
;
_chemical_formula_sum "Si O2"
_cell_formula_units_Z 88
_cell_length_a 10.889230
_cell_length_b 12.882283
_cell_length_c 29.674095
_cell_angle_alpha 90.000000
_cell_angle_beta 90.000000
_cell_angle_gamma 90.000000
_cell_volume 4162.626927
_symmetry_space_group_name_H-M "I B C A "
_symmetry_group_IT_number 73
_symmetry_cell_setting 'orthorhombic'
loop_
_space_group_symop_operation_xyz
x,y,z
-x,1/2-y,z
x,-y,1/2-z
1/2-x,y,-z
-x,-y,-z
x,1/2+y,-z
-x,y,1/2+z
1/2+x,-y,z
1/2+x,1/2+y,1/2+z
1/2-x,-y,1/2+z
1/2+x,1/2-y,-z
-x,1/2+y,1/2-z
1/2-x,1/2-y,1/2-z
1/2+x,y,1/2-z
1/2-x,1/2+y,z
x,1/2-y,1/2+z
loop_
_atom_site_type_symbol
_atom_site_label
_atom_site_fract_x
_atom_site_fract_y
_atom_site_fract_z
Si Si1 0.255032 0.366966 0.332718
Si Si2 0.981472 0.564425 0.393799
Si Si3 0.890952 0.832649 0.318424
Si Si4 0.750000 0.207090 0.500000
Si Si5 0.500000 0.750000 0.538826
Si Si6 0.583384 0.147414 0.581836
Si Si7 0.337237 0.500000 0.750000
O O1 0.367667 0.420448 0.359912
O O2 0.278392 0.247175 0.317604
O O3 0.147579 0.357031 0.369330
O O4 0.233578 0.438292 0.289228
O O5 0.969263 0.651548 0.431162
O O6 0.099691 0.598177 0.363486
O O7 0.998701 0.454509 0.417240
O O8 0.000000 0.750000 0.320254
O O9 0.907040 0.909751 0.276889
O O10 0.629743 0.271854 0.485303
O O11 0.687850 0.145842 0.542453
O O12 0.500000 0.250000 0.577243
#
# Coordination Sequence:
#
# PCOD9532231 Si02
#       7
#    16  16  16   8   8  16   8
#     4  11  24  45  68 102 146 188 245 303 376 435
#     4  11  23  46  74  97 145 198 233 303 374 449
#     4  10  22  43  66  99 137 188 238 302 367 439
#     4  12  26  50  74 120 142 194 250 312 376 458
#     4  12  24  50  78 104 150 190 250 304 380 446
#     4  12  27  46  74 110 146 189 248 306 378 450
#     4  12  24  40  70 106 138 194 250 308 368 446
#
# _framework density 21.140495999999999
#
# number of rings (size 3 to 8) (size 9 to 14) (size 15 to 20)
#    0.000    0.727    7.273    0.545    2.545    6.545 
#    0.000    0.000    0.000    0.000    0.000    0.000 
#    0.000    0.000    0.000    0.000    0.000    0.000 
#
# Total GULP energy -245271.821561 kJ/mol
# GULP energy per Si atom -5574.359581 kJ/mol
# Density = 2.109238 g / cm^3
# Si number density = 21.140496 Si / 1000 Ang^3
#
#
#
# Elastic Constant Matrix: (Units=GPa)
#
#
# Indices 1 2 3 4 5 6 
#
# 1 71.2774 30.6619 39.3637 0.0000 0.0000 0.0000
# 2 30.6619 150.1124 43.4605 0.0000 0.0000 0.0000
# 3 39.3637 43.4605 103.0928 0.0000 0.0000 0.0000
# 4 0.0000 0.0000 0.0000 61.4602 0.0000 0.0000
# 5 0.0000 0.0000 0.0000 0.0000 36.7982 0.0000
# 6 0.0000 0.0000 0.0000 0.0000 0.0000 19.1130
#
#
#
# Elastic Compliance Matrix: (Units=1/GPa)
#
#
# Indices 1 2 3 4 5 6 
#
# 1 0.018266 -0.001950 -0.006153 0.000000 0.000000 0.000000
# 2 -0.001950 0.007796 -0.002542 0.000000 0.000000 0.000000
# 3 -0.006153 -0.002542 0.013121 0.000000 0.000000 0.000000
# 4 0.000000 0.000000 0.000000 0.016271 0.000000 0.000000
# 5 0.000000 0.000000 0.000000 0.000000 0.027175 0.000000
# 6 0.000000 0.000000 0.000000 0.000000 0.000000 0.052320
#
#
# Mechanical properties :
#
#
# Convention : Reuss Voigt Hill
#
# Bulk Modulus (GPa) = 55.88382 61.27272 58.57827
# Shear Modulus (GPa) = 30.82557 37.54072 34.18315
#
# Velocity S-wave (km/s) = 3.82269 4.21856 4.02550
# Velocity P-wave (km/s) = 6.78055 7.26463 7.02676
#
# Compressibility (1/GPa) = 0.01789427
#
# Stress axis : x y z
#
# Youngs Moduli (GPa) = 54.74566 128.27265 76.21447
#
# Poissons Ratio (x) = 0.25010 0.46892
# Poissons Ratio (y) = 0.10674 0.19374
# Poissons Ratio (z) = 0.33683 0.32607
#
# Static dielectric constant tensor:
#      x y z
#    x 1.917170 0.000000 0.000000 
#    y 0.000000 1.739970 0.000000 
#    z 0.000000 0.000000 1.798790 
# 
# From -- ./inp_files/9925.got.cif
#   From: 2010.05.17/outbox.cif.g08.bks.cpg/sg73_5_cif.got.tgz:9925.got - 2010.06.03 17:35:07.
