data_PCOD9532897
_publ_section_title
;
Structure prediction by ZEFSAII (Michael W. Deem and Ramdas Pophale) SiO2 
 PCOD9532897
Probable space group: I B C A 
;
_chemical_formula_sum "Si O2"
_cell_formula_units_Z 80
_cell_length_a 16.149876
_cell_length_b 13.610356
_cell_length_c 17.693291
_cell_angle_alpha 90.000000
_cell_angle_beta 90.000000
_cell_angle_gamma 90.000000
_cell_volume 3889.083767
_symmetry_space_group_name_H-M "I B C A "
_symmetry_group_IT_number 73
_symmetry_cell_setting 'orthorhombic'
loop_
_space_group_symop_operation_xyz
x,y,z
-x,1/2-y,z
x,-y,1/2-z
1/2-x,y,-z
-x,-y,-z
x,1/2+y,-z
-x,y,1/2+z
1/2+x,-y,z
1/2+x,1/2+y,1/2+z
1/2-x,-y,1/2+z
1/2+x,1/2-y,-z
-x,1/2+y,1/2-z
1/2-x,1/2-y,1/2-z
1/2+x,y,1/2-z
1/2-x,1/2+y,z
x,1/2-y,1/2+z
loop_
_atom_site_type_symbol
_atom_site_label
_atom_site_fract_x
_atom_site_fract_y
_atom_site_fract_z
Si Si1 0.000000 0.750000 0.836066
Si Si2 0.139948 0.679107 0.441098
Si Si3 0.250000 0.495417 0.000000
Si Si4 0.902567 0.758656 0.608202
Si Si5 0.123676 0.612143 0.743061
Si Si6 0.752098 0.850698 0.869844
O O1 0.940432 0.682477 0.887857
O O2 0.941284 0.817678 0.785503
O O3 0.180134 0.575694 0.464387
O O4 0.114240 0.728042 0.520080
O O5 0.207602 0.749453 0.401116
O O6 0.276060 0.566674 0.068848
O O7 0.871341 0.850796 0.657582
O O8 0.846070 0.667179 0.634092
O O9 0.000000 0.750000 0.620714
O O10 0.097759 0.500000 0.750000
O O11 0.209029 0.625230 0.788999
#
# Coordination Sequence:
#
# PCOD9532897 Si02
#       6
#     8  16   8  16  16  16
#     4  10  24  46  64 100 140 174 220 294 330 390
#     4  11  22  41  70  94 135 174 223 277 335 392
#     4  12  20  40  72 102 124 178 232 268 332 416
#     4  12  22  43  67  98 132 176 217 279 341 389
#     4  11  25  45  68  97 139 182 225 270 343 410
#     4  11  24  44  65  97 138 174 223 281 330 400
#
# _framework density 20.570397
#
# number of rings (size 3 to 8) (size 9 to 14) (size 15 to 20)
#    0.000    0.800    6.000    1.800    0.000    1.600 
#    0.000    5.000    0.000    0.000    0.000    0.000 
#    0.000    0.000    0.000    0.000    0.000    0.000 
#
# Total GULP energy -223577.139111 kJ/mol
# GULP energy per Si atom -5589.428478 kJ/mol
# Density = 2.052358 g / cm^3
# Si number density = 20.570397 Si / 1000 Ang^3
#
#
#
# Elastic Constant Matrix: (Units=GPa)
#
#
# Indices 1 2 3 4 5 6 
#
# 1 102.0585 15.9497 14.4585 0.0000 0.0000 0.0000
# 2 15.9497 75.5903 -5.4901 0.0000 0.0000 0.0000
# 3 14.4585 -5.4901 47.3322 0.0000 0.0000 0.0000
# 4 0.0000 0.0000 0.0000 30.2102 0.0000 0.0000
# 5 0.0000 0.0000 0.0000 0.0000 4.4364 0.0000
# 6 0.0000 0.0000 0.0000 0.0000 0.0000 16.7404
#
#
#
# Elastic Compliance Matrix: (Units=1/GPa)
#
#
# Indices 1 2 3 4 5 6 
#
# 1 0.010696 -0.002515 -0.003559 0.000000 0.000000 0.000000
# 2 -0.002515 0.013933 0.002384 0.000000 0.000000 0.000000
# 3 -0.003559 0.002384 0.022491 0.000000 0.000000 0.000000
# 4 0.000000 0.000000 0.000000 0.033101 0.000000 0.000000
# 5 0.000000 0.000000 0.000000 0.000000 0.225407 0.000000
# 6 0.000000 0.000000 0.000000 0.000000 0.000000 0.059736
#
#
# Mechanical properties :
#
#
# Convention : Reuss Voigt Hill
#
# Bulk Modulus (GPa) = 25.16344 30.53523 27.84934
# Shear Modulus (GPa) = 12.95372 23.61493 18.28433
#
# Velocity S-wave (km/s) = 2.51216 3.39190 2.98462
# Velocity P-wave (km/s) = 4.54686 5.49695 5.04433
#
# Compressibility (1/GPa) = 0.03974020
#
# Stress axis : x y z
#
# Youngs Moduli (GPa) = 93.49663 71.77145 44.46234
#
# Poissons Ratio (x) = 0.18052 0.15824
# Poissons Ratio (y) = 0.23517 -0.10602
# Poissons Ratio (z) = 0.33274 -0.17113
#
# Static dielectric constant tensor:
#      x y z
#    x 1.828380 0.000000 0.000000 
#    y 0.000000 1.715950 0.000000 
#    z 0.000000 0.000000 1.720270 
# 
# From -- ./inp_files/22424.got.cif
#   From: 2010.05.17/outbox.cif.g08.bks.cpg/sg73_12_cif.got.tgz:22424.got - 2010.06.03 17:35:07.
