data_PCOD9532075
_publ_section_title
;
Structure prediction by ZEFSAII (Michael W. Deem and Ramdas Pophale) SiO2 
 PCOD9532075
Probable space group: I B C A 
;
_chemical_formula_sum "Si O2"
_cell_formula_units_Z 72
_cell_length_a 20.384379
_cell_length_b 10.756465
_cell_length_c 12.967682
_cell_angle_alpha 90.000000
_cell_angle_beta 90.000000
_cell_angle_gamma 90.000000
_cell_volume 2843.344001
_symmetry_space_group_name_H-M "I B C A "
_symmetry_group_IT_number 73
_symmetry_cell_setting 'orthorhombic'
loop_
_space_group_symop_operation_xyz
x,y,z
-x,1/2-y,z
x,-y,1/2-z
1/2-x,y,-z
-x,-y,-z
x,1/2+y,-z
-x,y,1/2+z
1/2+x,-y,z
1/2+x,1/2+y,1/2+z
1/2-x,-y,1/2+z
1/2+x,1/2-y,-z
-x,1/2+y,1/2-z
1/2-x,1/2-y,1/2-z
1/2+x,y,1/2-z
1/2-x,1/2+y,z
x,1/2-y,1/2+z
loop_
_atom_site_type_symbol
_atom_site_label
_atom_site_fract_x
_atom_site_fract_y
_atom_site_fract_z
Si Si1 0.100266 0.058427 0.653459
Si Si2 0.696849 0.251077 0.396119
Si Si3 0.398170 0.438495 0.453047
Si Si4 0.500000 0.750000 0.653659
Si Si5 0.318856 0.883419 0.814926
O O1 0.150474 0.133406 0.582595
O O2 0.045024 0.145445 0.704674
O O3 0.136152 0.000000 0.750000
O O4 0.073051 0.969503 0.565053
O O5 0.672556 0.132882 0.461287
O O6 0.672905 0.212207 0.279625
O O7 0.769304 0.308083 0.388724
O O8 0.448214 0.336493 0.407386
O O9 0.380644 0.552507 0.373821
O O10 0.288623 0.000000 0.750000
#
# Coordination Sequence:
#
# PCOD9532075 Si02
#       5
#    16  16  16   8  16
#     4  11  24  40  61  89 124 164 213 265 314 376
#     4   9  20  38  62  94 125 162 206 251 316 377
#     4  10  22  41  64  91 127 165 209 261 317 379
#     4  10  24  44  64  90 118 166 220 262 324 378
#     4   9  18  38  66  94 129 163 203 259 312 377
#
# _framework density 25.322298
#
# number of rings (size 3 to 8) (size 9 to 14) (size 15 to 20)
#    0.000    2.222    0.000    1.333    0.000    9.778 
#    0.000    8.889    0.000    0.000    0.000    0.000 
#    0.000    0.000    0.000    0.000    0.000    0.000 
#
# Total GULP energy -200415.979786 kJ/mol
# GULP energy per Si atom -5567.110550 kJ/mol
# Density = 2.526466 g / cm^3
# Si number density = 25.322298 Si / 1000 Ang^3
#
#
#
# Elastic Constant Matrix: (Units=GPa)
#
#
# Indices 1 2 3 4 5 6 
#
# 1 85.0260 19.2908 16.9503 0.0000 0.0000 0.0000
# 2 19.2908 66.6641 26.1496 0.0000 0.0000 0.0000
# 3 16.9503 26.1496 80.3683 0.0000 0.0000 0.0000
# 4 0.0000 0.0000 0.0000 15.5524 0.0000 0.0000
# 5 0.0000 0.0000 0.0000 0.0000 21.7159 0.0000
# 6 0.0000 0.0000 0.0000 0.0000 0.0000 41.9295
#
#
#
# Elastic Compliance Matrix: (Units=1/GPa)
#
#
# Indices 1 2 3 4 5 6 
#
# 1 0.012790 -0.003030 -0.001712 0.000000 0.000000 0.000000
# 2 -0.003030 0.017913 -0.005189 0.000000 0.000000 0.000000
# 3 -0.001712 -0.005189 0.014492 0.000000 0.000000 0.000000
# 4 0.000000 0.000000 0.000000 0.064299 0.000000 0.000000
# 5 0.000000 0.000000 0.000000 0.000000 0.046049 0.000000
# 6 0.000000 0.000000 0.000000 0.000000 0.000000 0.023850
#
#
# Mechanical properties :
#
#
# Convention : Reuss Voigt Hill
#
# Bulk Modulus (GPa) = 39.47354 39.64889 39.56121
# Shear Modulus (GPa) = 24.07341 27.15074 25.61208
#
# Velocity S-wave (km/s) = 3.08666 3.27801 3.18377
# Velocity P-wave (km/s) = 5.32218 5.47894 5.40113
#
# Compressibility (1/GPa) = 0.02533342
#
# Stress axis : x y z
#
# Youngs Moduli (GPa) = 78.18792 55.82593 69.00263
#
# Poissons Ratio (x) = 0.16913 0.11811
# Poissons Ratio (y) = 0.23688 0.35808
# Poissons Ratio (z) = 0.13384 0.28970
#
# Static dielectric constant tensor:
#      x y z
#    x 2.090760 0.000000 0.000000 
#    y 0.000000 2.100750 0.000000 
#    z 0.000000 0.000000 2.037340 
# 
# From -- ./inp_files/18470.got.cif
#   From: 2010.05.17/outbox.cif.g08.bks.cpg/sg73_10_cif.got.tgz:18470.got - 2010.06.03 17:35:07.
