data_PCOD9532302
_publ_section_title
;
Structure prediction by ZEFSAII (Michael W. Deem and Ramdas Pophale) SiO2 
 PCOD9532302
Probable space group: I B C A 
;
_chemical_formula_sum "Si O2"
_cell_formula_units_Z 64
_cell_length_a 15.441708
_cell_length_b 8.516403
_cell_length_c 20.174600
_cell_angle_alpha 90.000000
_cell_angle_beta 90.000000
_cell_angle_gamma 90.000000
_cell_volume 2653.117430
_symmetry_space_group_name_H-M "I B C A "
_symmetry_group_IT_number 73
_symmetry_cell_setting 'orthorhombic'
loop_
_space_group_symop_operation_xyz
x,y,z
-x,1/2-y,z
x,-y,1/2-z
1/2-x,y,-z
-x,-y,-z
x,1/2+y,-z
-x,y,1/2+z
1/2+x,-y,z
1/2+x,1/2+y,1/2+z
1/2-x,-y,1/2+z
1/2+x,1/2-y,-z
-x,1/2+y,1/2-z
1/2-x,1/2-y,1/2-z
1/2+x,y,1/2-z
1/2-x,1/2+y,z
x,1/2-y,1/2+z
loop_
_atom_site_type_symbol
_atom_site_label
_atom_site_fract_x
_atom_site_fract_y
_atom_site_fract_z
Si Si1 0.905680 0.177011 0.224106
Si Si2 0.209820 0.310607 0.612423
Si Si3 0.451506 0.086800 0.941344
Si Si4 0.854353 0.119079 0.849296
O O1 0.847985 0.195626 0.158362
O O2 0.868377 0.287630 0.282451
O O3 0.000000 0.250000 0.211692
O O4 0.910891 0.000000 0.250000
O O5 0.149832 0.362863 0.550883
O O6 0.208539 0.468749 0.656456
O O7 0.302963 0.236997 0.602214
O O8 0.500000 0.250000 0.929929
O O9 0.440062 0.960259 0.881159
O O10 0.500000 0.000000 0.000000
#
# Coordination Sequence:
#
# PCOD9532302 Si02
#       4
#    16  16  16  16
#     4  12  24  38  69 112 155 197 240 295 382 472
#     4  10  22  44  70 105 147 186 245 294 387 449
#     4  10  25  50  74  99 139 194 261 314 372 432
#     4  10  23  43  74 103 150 190 238 306 379 448
#
# _framework density 24.122567
#
# number of rings (size 3 to 8) (size 9 to 14) (size 15 to 20)
#    1.500    0.000    0.000    5.250    3.500    1.000 
#    4.500    3.750    0.000    0.000    0.000    0.000 
#    0.000    0.000    0.000    0.000    0.000    0.000 
#
# Total GULP energy -178455.811610 kJ/mol
# GULP energy per Si atom -5576.744113 kJ/mol
# Density = 2.406766 g / cm^3
# Si number density = 24.122567 Si / 1000 Ang^3
#
#
#
# Elastic Constant Matrix: (Units=GPa)
#
#
# Indices 1 2 3 4 5 6 
#
# 1 84.3312 49.9042 35.9318 0.0000 0.0000 0.0000
# 2 49.9042 169.3354 57.3832 0.0000 0.0000 0.0000
# 3 35.9318 57.3832 82.4659 0.0000 0.0000 0.0000
# 4 0.0000 0.0000 0.0000 8.9713 0.0000 0.0000
# 5 0.0000 0.0000 0.0000 0.0000 28.4151 0.0000
# 6 0.0000 0.0000 0.0000 0.0000 0.0000 54.7294
#
#
#
# Elastic Compliance Matrix: (Units=1/GPa)
#
#
# Indices 1 2 3 4 5 6 
#
# 1 0.015654 -0.003012 -0.004725 0.000000 0.000000 0.000000
# 2 -0.003012 0.008307 -0.004468 0.000000 0.000000 0.000000
# 3 -0.004725 -0.004468 0.017294 0.000000 0.000000 0.000000
# 4 0.000000 0.000000 0.000000 0.111467 0.000000 0.000000
# 5 0.000000 0.000000 0.000000 0.000000 0.035193 0.000000
# 6 0.000000 0.000000 0.000000 0.000000 0.000000 0.018272
#
#
# Mechanical properties :
#
#
# Convention : Reuss Voigt Hill
#
# Bulk Modulus (GPa) = 59.36448 69.17457 64.26952
# Shear Modulus (GPa) = 21.16755 31.28403 26.22579
#
# Velocity S-wave (km/s) = 2.96548 3.60513 3.30083
# Velocity P-wave (km/s) = 6.03228 6.78733 6.42091
#
# Compressibility (1/GPa) = 0.01684509
#
# Stress axis : x y z
#
# Youngs Moduli (GPa) = 63.88338 120.37663 57.82406
#
# Poissons Ratio (x) = 0.36260 0.27319
# Poissons Ratio (y) = 0.19243 0.25836
# Poissons Ratio (z) = 0.30182 0.53785
#
# Static dielectric constant tensor:
#      x y z
#    x 2.149110 0.000000 0.000000 
#    y 0.000000 1.966390 0.000000 
#    z 0.000000 0.000000 1.998770 
# 
# From -- ./inp_files/29273.got.cif
#   From: 2010.05.17/outbox.cif.g08.bks.cpg/sg73_15_cif.got.tgz:29273.got - 2010.06.03 17:35:07.
