data_PCOD9532285
_publ_section_title
;
Structure prediction by ZEFSAII (Michael W. Deem and Ramdas Pophale) SiO2 
 PCOD9532285
Probable space group: I B C A 
;
_chemical_formula_sum "Si O2"
_cell_formula_units_Z 104
_cell_length_a 16.740290
_cell_length_b 9.362287
_cell_length_c 30.279069
_cell_angle_alpha 90.000000
_cell_angle_beta 90.000000
_cell_angle_gamma 90.000000
_cell_volume 4745.559742
_symmetry_space_group_name_H-M "I B C A "
_symmetry_group_IT_number 73
_symmetry_cell_setting 'orthorhombic'
loop_
_space_group_symop_operation_xyz
x,y,z
-x,1/2-y,z
x,-y,1/2-z
1/2-x,y,-z
-x,-y,-z
x,1/2+y,-z
-x,y,1/2+z
1/2+x,-y,z
1/2+x,1/2+y,1/2+z
1/2-x,-y,1/2+z
1/2+x,1/2-y,-z
-x,1/2+y,1/2-z
1/2-x,1/2-y,1/2-z
1/2+x,y,1/2-z
1/2-x,1/2+y,z
x,1/2-y,1/2+z
loop_
_atom_site_type_symbol
_atom_site_label
_atom_site_fract_x
_atom_site_fract_y
_atom_site_fract_z
Si Si1 0.153847 0.194689 0.955513
Si Si2 0.511941 0.501610 0.188436
Si Si3 0.910176 0.024820 0.983972
Si Si4 0.000000 0.750000 0.745844
Si Si5 0.345730 0.118009 0.135230
Si Si6 0.069773 0.143602 0.103995
Si Si7 0.272561 0.677074 0.610870
O O1 0.107545 0.309098 0.983963
O O2 0.107703 0.156722 0.910056
O O3 0.266771 0.271070 0.064145
O O4 0.153654 0.053981 0.984710
O O5 0.536813 0.635120 0.219631
O O6 0.464771 0.372458 0.213062
O O7 0.593670 0.431187 0.171673
O O8 0.463298 0.562085 0.146923
O O9 0.904589 0.964526 0.934349
O O10 0.000000 0.000000 0.000000
O O11 0.290805 0.254126 0.144849
O O12 0.287663 0.988856 0.119306
O O13 0.143570 0.244573 0.115858
O O14 0.000000 0.250000 0.087767
#
# Coordination Sequence:
#
# PCOD9532285 Si02
#       7
#    16  16  16   8  16  16  16
#     4  10  26  43  63  96 136 187 236 299 343 411
#     4  11  22  43  73 103 142 176 231 288 366 433
#     4  12  25  43  62  97 140 181 245 294 353 410
#     4  10  24  40  70 110 134 176 224 290 364 442
#     4  10  22  44  67  97 139 186 235 292 352 426
#     4  12  23  41  71  99 137 190 236 293 351 426
#     4  10  23  42  65  98 132 190 239 281 347 415
#
# _framework density 21.915223000000001
#
# number of rings (size 3 to 8) (size 9 to 14) (size 15 to 20)
#    0.923    0.308    2.308    3.231    4.308    0.615 
#    0.000    0.000    0.000   16.615    0.000    0.000 
#    0.000    0.000    0.000    0.000    0.000    0.000 
#
# Total GULP energy -290005.804561 kJ/mol
# GULP energy per Si atom -5577.034703 kJ/mol
# Density = 2.186534 g / cm^3
# Si number density = 21.915223 Si / 1000 Ang^3
#
#
#
# Elastic Constant Matrix: (Units=GPa)
#
#
# Indices 1 2 3 4 5 6 
#
# 1 63.7618 6.6450 5.1818 0.0000 0.0000 0.0000
# 2 6.6450 102.5226 13.6813 0.0000 0.0000 0.0000
# 3 5.1818 13.6813 54.8365 0.0000 0.0000 0.0000
# 4 0.0000 0.0000 0.0000 45.2366 0.0000 0.0000
# 5 0.0000 0.0000 0.0000 0.0000 -3.4668 0.0000
# 6 0.0000 0.0000 0.0000 0.0000 0.0000 16.4139
#
#
#
# Elastic Compliance Matrix: (Units=1/GPa)
#
#
# Indices 1 2 3 4 5 6 
#
# 1 0.015877 -0.000857 -0.001286 0.000000 0.000000 0.000000
# 2 -0.000857 0.010136 -0.002448 0.000000 0.000000 0.000000
# 3 -0.001286 -0.002448 0.018968 0.000000 0.000000 0.000000
# 4 0.000000 0.000000 0.000000 0.022106 0.000000 0.000000
# 5 0.000000 0.000000 0.000000 0.000000 -0.288447 0.000000
# 6 0.000000 0.000000 0.000000 0.000000 0.000000 0.060924
#
#
# Mechanical properties :
#
#
# Convention : Reuss Voigt Hill
#
# Bulk Modulus (GPa) = 27.93422 30.23744 29.08583
# Shear Modulus (GPa) = -35.88898 24.67759 -5.60570
#
# Velocity S-wave (km/s) = -4.05115 3.35930 -1.60108
# Velocity P-wave (km/s) = 3.01799 5.37345 3.14370
#
# Compressibility (1/GPa) = 0.03579838
#
# Stress axis : x y z
#
# Youngs Moduli (GPa) = 62.98307 98.65650 52.71953
#
# Poissons Ratio (x) = 0.08459 0.06782
# Poissons Ratio (y) = 0.05400 0.12905
# Poissons Ratio (z) = 0.08102 0.24150
#
# Static dielectric constant tensor:
#      x y z
#    x 1.810690 0.000000 0.000000 
#    y 0.000000 1.833970 0.000000 
#    z 0.000000 0.000000 1.850220 
# 
# From -- ./inp_files/34673.got.cif
#   From: 2010.05.17/outbox.cif.g08.bks.cpg/sg73_18_cif.got.tgz:34673.got - 2010.06.03 17:35:07.
