data_PCOD9532761
_publ_section_title
;
Structure prediction by ZEFSAII (Michael W. Deem and Ramdas Pophale) SiO2 
 PCOD9532761
Probable space group: I B C A 
;
_chemical_formula_sum "Si O2"
_cell_formula_units_Z 64
_cell_length_a 9.640650
_cell_length_b 32.020314
_cell_length_c 8.835309
_cell_angle_alpha 90.000000
_cell_angle_beta 90.000000
_cell_angle_gamma 90.000000
_cell_volume 2727.430203
_symmetry_space_group_name_H-M "I B C A "
_symmetry_group_IT_number 73
_symmetry_cell_setting 'orthorhombic'
loop_
_space_group_symop_operation_xyz
x,y,z
-x,1/2-y,z
x,-y,1/2-z
1/2-x,y,-z
-x,-y,-z
x,1/2+y,-z
-x,y,1/2+z
1/2+x,-y,z
1/2+x,1/2+y,1/2+z
1/2-x,-y,1/2+z
1/2+x,1/2-y,-z
-x,1/2+y,1/2-z
1/2-x,1/2-y,1/2-z
1/2+x,y,1/2-z
1/2-x,1/2+y,z
x,1/2-y,1/2+z
loop_
_atom_site_type_symbol
_atom_site_label
_atom_site_fract_x
_atom_site_fract_y
_atom_site_fract_z
Si Si1 0.397662 0.402090 0.544006
Si Si2 0.390238 0.526266 0.403809
Si Si3 0.896563 0.285870 0.460897
Si Si4 0.498551 0.655566 0.722106
O O1 0.250000 0.422825 0.500000
O O2 0.519868 0.431291 0.609914
O O3 0.383532 0.365939 0.670159
O O4 0.446949 0.379594 0.391729
O O5 0.362296 0.500000 0.250000
O O6 0.250000 0.533146 0.500000
O O7 0.500000 0.500000 0.500000
O O8 0.750000 0.266355 0.500000
O O9 0.893530 0.322761 0.336980
O O10 0.000000 0.250000 0.410839
O O11 0.946713 0.307923 0.613784
#
# Coordination Sequence:
#
# PCOD9532761 Si02
#       4
#    16  16  16  16
#     4  11  24  45  72 100 131 172 223 278 335 398
#     4  12  27  47  71 102 140 182 228 282 345 413
#     4  11  24  42  65  96 135 178 224 275 332 396
#     4  10  24  42  67  98 134 174 221 276 336 397
#
# _framework density 23.465309999999999
#
# number of rings (size 3 to 8) (size 9 to 14) (size 15 to 20)
#    0.000    1.000    0.000    5.250    0.000   18.000 
#    0.000    1.250    0.000    0.000    0.000    0.000 
#    0.000    0.000    0.000    0.000    0.000    0.000 
#
# Total GULP energy -178869.573209 kJ/mol
# GULP energy per Si atom -5589.674163 kJ/mol
# Density = 2.341190 g / cm^3
# Si number density = 23.465310 Si / 1000 Ang^3
#
#
#
# Elastic Constant Matrix: (Units=GPa)
#
#
# Indices 1 2 3 4 5 6 
#
# 1 128.2212 36.4165 33.9675 -0.0006 0.0002 0.0011
# 2 36.4165 92.6394 44.4688 -0.0011 0.0004 0.0037
# 3 33.9675 44.4688 154.9959 -0.0003 0.0001 0.0065
# 4 -0.0006 -0.0011 -0.0003 4.0473 -0.0005 -0.0002
# 5 0.0002 0.0004 0.0001 -0.0005 17.2113 0.0014
# 6 0.0011 0.0037 0.0065 -0.0002 0.0014 44.2416
#
#
#
# Elastic Compliance Matrix: (Units=1/GPa)
#
#
# Indices 1 2 3 4 5 6 
#
# 1 0.008939 -0.002985 -0.001103 0.000000 0.000000 0.000000
# 2 -0.002985 0.013515 -0.003223 0.000003 0.000000 -0.000001
# 3 -0.001103 -0.003223 0.007618 0.000000 0.000000 -0.000001
# 4 0.000000 0.000003 0.000000 0.247076 0.000008 0.000001
# 5 0.000000 0.000000 0.000000 0.000008 0.058101 -0.000002
# 6 0.000000 -0.000001 -0.000001 0.000001 -0.000002 0.022603
#
#
# Mechanical properties :
#
#
# Convention : Reuss Voigt Hill
#
# Bulk Modulus (GPa) = 64.72153 67.28467 66.00310
# Shear Modulus (GPa) = 13.24067 30.50030 21.87049
#
# Velocity S-wave (km/s) = 2.37801 3.60919 3.05624
# Velocity P-wave (km/s) = 5.93140 6.79004 6.37520
#
# Compressibility (1/GPa) = 0.01545081
#
# Stress axis : x y z
#
# Youngs Moduli (GPa) = 111.87211 73.99146 131.26370
#
# Poissons Ratio (x) = 0.22083 0.14474
# Poissons Ratio (y) = 0.33388 0.42312
# Poissons Ratio (z) = 0.12336 0.23851
#
# Static dielectric constant tensor:
#      x y z
#    x 1.917860 0.000000 0.000000 
#    y 0.000000 2.009520 0.000000 
#    z 0.000000 0.000000 1.864660 
# 
# From -- ./inp_files/3982.got.cif
#   From: 2010.05.17/outbox.cif.g08.bks.cpg/sg73_2_cif.got.tgz:3982.got - 2010.06.03 17:35:07.
