data_PCOD9532979
_publ_section_title
;
Structure prediction by ZEFSAII (Michael W. Deem and Ramdas Pophale) SiO2 
 PCOD9532979
Probable space group: I B C A 
;
_chemical_formula_sum "Si O2"
_cell_formula_units_Z 48
_cell_length_a 13.670317
_cell_length_b 17.179108
_cell_length_c 7.396065
_cell_angle_alpha 90.000000
_cell_angle_beta 90.000000
_cell_angle_gamma 90.000000
_cell_volume 1736.920395
_symmetry_space_group_name_H-M "I B C A "
_symmetry_group_IT_number 73
_symmetry_cell_setting 'orthorhombic'
loop_
_space_group_symop_operation_xyz
x,y,z
-x,1/2-y,z
x,-y,1/2-z
1/2-x,y,-z
-x,-y,-z
x,1/2+y,-z
-x,y,1/2+z
1/2+x,-y,z
1/2+x,1/2+y,1/2+z
1/2-x,-y,1/2+z
1/2+x,1/2-y,-z
-x,1/2+y,1/2-z
1/2-x,1/2-y,1/2-z
1/2+x,y,1/2-z
1/2-x,1/2+y,z
x,1/2-y,1/2+z
loop_
_atom_site_type_symbol
_atom_site_label
_atom_site_fract_x
_atom_site_fract_y
_atom_site_fract_z
Si Si1 0.635027 0.837011 0.819329
Si Si2 0.250000 0.365487 0.000000
Si Si3 0.500000 0.750000 0.078188
Si Si4 0.113255 0.494199 0.537879
O O1 0.730997 0.825049 0.693278
O O2 0.536100 0.823339 0.696715
O O3 0.598390 0.773823 0.969782
O O4 0.645997 0.917612 0.928846
O O5 0.338039 0.426479 0.974727
O O6 0.133702 0.500000 0.750000
O O7 0.000000 0.500000 0.500000
#
# Coordination Sequence:
#
# PCOD9532979 Si02
#       4
#    16   8   8  16
#     4  11  24  45  71 109 148 198 254 302 380 448
#     4  12  26  44  72 108 146 192 256 322 374 440
#     4  10  24  48  76 104 154 206 248 304 368 470
#     4  12  24  43  73 104 143 192 251 322 379 437
#
# _framework density 27.635117000000001
#
# number of rings (size 3 to 8) (size 9 to 14) (size 15 to 20)
#    0.000    0.667    0.000    9.000    0.000    4.000 
#    0.000    1.667    0.000    0.000    0.000    0.000 
#    0.000    0.000    0.000    0.000    0.000    0.000 
#
# Total GULP energy -133976.546796 kJ/mol
# GULP energy per Si atom -5582.356117 kJ/mol
# Density = 2.757222 g / cm^3
# Si number density = 27.635117 Si / 1000 Ang^3
#
#
#
# Elastic Constant Matrix: (Units=GPa)
#
#
# Indices 1 2 3 4 5 6 
#
# 1 132.2965 47.8930 43.2926 0.0000 0.0000 0.0000
# 2 47.8930 167.0846 92.9672 0.0000 0.0000 0.0000
# 3 43.2926 92.9672 189.4165 0.0000 0.0000 0.0000
# 4 0.0000 0.0000 0.0000 51.1798 0.0000 0.0000
# 5 0.0000 0.0000 0.0000 0.0000 32.0902 0.0000
# 6 0.0000 0.0000 0.0000 0.0000 0.0000 54.7190
#
#
#
# Elastic Compliance Matrix: (Units=1/GPa)
#
#
# Indices 1 2 3 4 5 6 
#
# 1 0.008580 -0.001882 -0.001037 0.000000 0.000000 0.000000
# 2 -0.001882 0.008646 -0.003814 0.000000 0.000000 0.000000
# 3 -0.001037 -0.003814 0.007388 0.000000 0.000000 0.000000
# 4 0.000000 0.000000 0.000000 0.019539 0.000000 0.000000
# 5 0.000000 0.000000 0.000000 0.000000 0.031162 0.000000
# 6 0.000000 0.000000 0.000000 0.000000 0.000000 0.018275
#
#
# Mechanical properties :
#
#
# Convention : Reuss Voigt Hill
#
# Bulk Modulus (GPa) = 89.69914 95.23371 92.46642
# Shear Modulus (GPa) = 45.13770 47.90743 46.52257
#
# Velocity S-wave (km/s) = 4.04585 4.16813 4.10745
# Velocity P-wave (km/s) = 7.37252 7.59608 7.48513
#
# Compressibility (1/GPa) = 0.01114838
#
# Stress axis : x y z
#
# Youngs Moduli (GPa) = 116.55635 115.65540 135.35217
#
# Poissons Ratio (x) = 0.21768 0.14038
# Poissons Ratio (y) = 0.21938 0.51617
# Poissons Ratio (z) = 0.12089 0.44106
#
# Static dielectric constant tensor:
#      x y z
#    x 2.105420 0.000000 0.000000 
#    y 0.000000 2.384140 0.000000 
#    z 0.000000 0.000000 2.810740 
# 
# From -- ./inp_files/4338.got.cif
#   From: 2010.05.17/outbox.cif.g08.bks.cpg/sg73_3_cif.got.tgz:4338.got - 2010.06.03 17:35:07.
