data_PCOD9532639
_publ_section_title
;
Structure prediction by ZEFSAII (Michael W. Deem and Ramdas Pophale) SiO2 
 PCOD9532639
Probable space group: I B C A 
;
_chemical_formula_sum "Si O2"
_cell_formula_units_Z 64
_cell_length_a 11.963237
_cell_length_b 20.055673
_cell_length_c 13.756223
_cell_angle_alpha 90.000000
_cell_angle_beta 90.000000
_cell_angle_gamma 90.000000
_cell_volume 3300.541167
_symmetry_space_group_name_H-M "I B C A "
_symmetry_group_IT_number 73
_symmetry_cell_setting 'orthorhombic'
loop_
_space_group_symop_operation_xyz
x,y,z
-x,1/2-y,z
x,-y,1/2-z
1/2-x,y,-z
-x,-y,-z
x,1/2+y,-z
-x,y,1/2+z
1/2+x,-y,z
1/2+x,1/2+y,1/2+z
1/2-x,-y,1/2+z
1/2+x,1/2-y,-z
-x,1/2+y,1/2-z
1/2-x,1/2-y,1/2-z
1/2+x,y,1/2-z
1/2-x,1/2+y,z
x,1/2-y,1/2+z
loop_
_atom_site_type_symbol
_atom_site_label
_atom_site_fract_x
_atom_site_fract_y
_atom_site_fract_z
Si Si1 0.172556 0.312942 0.772617
Si Si2 0.066064 0.861330 0.427300
Si Si3 0.688804 0.094130 0.903400
Si Si4 0.250000 0.464200 0.500000
Si Si5 0.500000 0.750000 0.423296
O O1 0.250000 0.250000 0.750000
O O2 0.110626 0.333915 0.674661
O O3 0.250321 0.372279 0.812883
O O4 0.084028 0.290607 0.854226
O O5 0.148318 0.918715 0.465273
O O6 0.062192 0.802307 0.506566
O O7 0.940914 0.888421 0.410962
O O8 0.750000 0.122988 0.000000
O O9 0.710323 0.015190 0.915313
#
# Coordination Sequence:
#
# PCOD9532639 Si02
#       5
#    16  16  16   8   8
#     4  12  25  40  67 105 137 184 237 287 355 432
#     4  12  24  43  71 101 134 187 235 287 364 430
#     4  10  23  46  66  95 141 181 222 298 350 416
#     4  10  24  44  72  96 134 188 234 282 366 426
#     4  12  22  42  66  96 144 176 222 302 352 414
#
# _framework density 19.390758999999999
#
# number of rings (size 3 to 8) (size 9 to 14) (size 15 to 20)
#    0.750    0.000    2.500    6.000    0.000    1.000 
#    0.000    2.500    0.000    0.000    0.000    0.000 
#    0.000    0.000    0.000    0.000    0.000    0.000 
#
# Total GULP energy -178867.108545 kJ/mol
# GULP energy per Si atom -5589.597142 kJ/mol
# Density = 1.934663 g / cm^3
# Si number density = 19.390759 Si / 1000 Ang^3
#
#
#
# Elastic Constant Matrix: (Units=GPa)
#
#
# Indices 1 2 3 4 5 6 
#
# 1 173.1521 83.0255 84.3777 0.0001 0.0000 0.0000
# 2 83.0255 152.8150 85.8857 0.0000 0.0000 0.0000
# 3 84.3777 85.8857 142.8285 -0.0001 0.0000 0.0000
# 4 0.0001 0.0000 -0.0001 224.3649 -0.0002 -0.0001
# 5 0.0000 0.0000 0.0000 -0.0002 49.1885 0.0000
# 6 0.0000 0.0000 0.0000 -0.0001 0.0000 48.6803
#
#
#
# Elastic Compliance Matrix: (Units=1/GPa)
#
#
# Indices 1 2 3 4 5 6 
#
# 1 0.008849 -0.002824 -0.003530 0.000000 0.000000 0.000000
# 2 -0.002824 0.010786 -0.004817 0.000000 0.000000 0.000000
# 3 -0.003530 -0.004817 0.011983 0.000000 0.000000 0.000000
# 4 0.000000 0.000000 0.000000 0.004457 0.000000 0.000000
# 5 0.000000 0.000000 0.000000 0.000000 0.020330 0.000000
# 6 0.000000 0.000000 0.000000 0.000000 0.000000 0.020542
#
#
# Mechanical properties :
#
#
# Convention : Reuss Voigt Hill
#
# Bulk Modulus (GPa) = 107.80235 108.37483 108.08859
# Shear Modulus (GPa) = 48.83675 78.81386 63.82530
#
# Velocity S-wave (km/s) = 5.02397 6.38226 5.74341
# Velocity P-wave (km/s) = 9.45352 10.50344 9.99228
#
# Compressibility (1/GPa) = 0.00927624
#
# Stress axis : x y z
#
# Youngs Moduli (GPa) = 113.00077 92.71567 83.44951
#
# Poissons Ratio (x) = 0.26185 0.29455
# Poissons Ratio (y) = 0.31914 0.40199
# Poissons Ratio (z) = 0.39886 0.44663
#
# Static dielectric constant tensor:
#      x y z
#    x 1.648970 0.000000 0.000000 
#    y 0.000000 1.663650 0.000000 
#    z 0.000000 0.000000 1.635760 
# 
# From -- ./inp_files/9499.got.cif
#   From: 2010.05.17/outbox.cif.g08.bks.cpg/sg73_5_cif.got.tgz:9499.got - 2010.06.03 17:35:07.
