data_PCOD9532837
_publ_section_title
;
Structure prediction by ZEFSAII (Michael W. Deem and Ramdas Pophale) SiO2 
 PCOD9532837
Probable space group: I B C A 
;
_chemical_formula_sum "Si O2"
_cell_formula_units_Z 112
_cell_length_a 12.252152
_cell_length_b 15.073877
_cell_length_c 28.349398
_cell_angle_alpha 90.000000
_cell_angle_beta 90.000000
_cell_angle_gamma 90.000000
_cell_volume 5235.777522
_symmetry_space_group_name_H-M "I B C A "
_symmetry_group_IT_number 73
_symmetry_cell_setting 'orthorhombic'
loop_
_space_group_symop_operation_xyz
x,y,z
-x,1/2-y,z
x,-y,1/2-z
1/2-x,y,-z
-x,-y,-z
x,1/2+y,-z
-x,y,1/2+z
1/2+x,-y,z
1/2+x,1/2+y,1/2+z
1/2-x,-y,1/2+z
1/2+x,1/2-y,-z
-x,1/2+y,1/2-z
1/2-x,1/2-y,1/2-z
1/2+x,y,1/2-z
1/2-x,1/2+y,z
x,1/2-y,1/2+z
loop_
_atom_site_type_symbol
_atom_site_label
_atom_site_fract_x
_atom_site_fract_y
_atom_site_fract_z
Si Si1 0.112012 0.914970 0.318108
Si Si2 0.658942 0.113258 0.207955
Si Si3 0.000000 0.250000 0.837554
Si Si4 0.000000 0.750000 0.487700
Si Si5 0.667269 0.397041 0.135248
Si Si6 0.287275 0.163155 0.447343
Si Si7 0.632525 0.592915 0.153992
Si Si8 0.834379 0.158552 0.458889
O O1 0.134987 0.897941 0.263064
O O2 0.213218 0.871743 0.346055
O O3 0.994441 0.882905 0.337336
O O4 0.124128 0.022890 0.320051
O O5 0.586173 0.194276 0.191878
O O6 0.784813 0.129547 0.193672
O O7 0.926092 0.323130 0.863154
O O8 0.900846 0.787334 0.458087
O O9 0.953232 0.671221 0.519803
O O10 0.633548 0.486387 0.161140
O O11 0.677338 0.415134 0.080012
O O12 0.250000 0.124119 0.500000
O O13 0.313202 0.114546 0.397486
O O14 0.201004 0.243516 0.439669
O O15 0.750000 0.139416 0.500000
#
# Coordination Sequence:
#
# PCOD9532837 Si02
#       8
#    16  16   8   8  16  16  16  16
#     4  10  24  44  68  96 128 180 217 280 333 402
#     4  10  24  44  69  91 136 172 222 267 344 394
#     4  12  23  44  65 100 128 174 214 279 325 416
#     4   8  17  36  61  86 126 178 204 269 329 384
#     4  11  24  40  66  96 133 170 225 272 339 401
#     4   9  20  38  63  93 129 173 219 266 326 395
#     4  11  23  43  68  97 131 179 219 281 334 396
#     4   9  19  36  57  88 126 170 213 263 326 384
#
# _framework density 21.391283000000001
#
# number of rings (size 3 to 8) (size 9 to 14) (size 15 to 20)
#    0.000    2.286    1.429    1.286    6.000    3.429 
#    2.571    0.714    0.000    0.000    0.000    0.000 
#    0.000    0.000    0.000    0.000    0.000    0.000 
#
# Total GULP energy -311965.035275 kJ/mol
# GULP energy per Si atom -5570.804201 kJ/mol
# Density = 2.134260 g / cm^3
# Si number density = 21.391283 Si / 1000 Ang^3
#
#
#
# Elastic Constant Matrix: (Units=GPa)
#
#
# Indices 1 2 3 4 5 6 
#
# 1 122.0007 14.1787 9.8499 0.0000 0.0000 0.0000
# 2 14.1787 34.4675 10.0126 0.0000 0.0000 0.0000
# 3 9.8499 10.0126 48.8902 0.0000 0.0000 0.0000
# 4 0.0000 0.0000 0.0000 -24.3236 0.0000 0.0000
# 5 0.0000 0.0000 0.0000 0.0000 12.5188 0.0000
# 6 0.0000 0.0000 0.0000 0.0000 0.0000 21.9305
#
#
#
# Elastic Compliance Matrix: (Units=1/GPa)
#
#
# Indices 1 2 3 4 5 6 
#
# 1 0.008661 -0.003249 -0.001080 0.000000 0.000000 0.000000
# 2 -0.003249 0.032067 -0.005913 0.000000 0.000000 0.000000
# 3 -0.001080 -0.005913 0.021882 0.000000 0.000000 0.000000
# 4 0.000000 0.000000 0.000000 -0.041112 0.000000 0.000000
# 5 0.000000 0.000000 0.000000 0.000000 0.079880 0.000000
# 6 0.000000 0.000000 0.000000 0.000000 0.000000 0.045599
#
#
# Mechanical properties :
#
#
# Convention : Reuss Voigt Hill
#
# Bulk Modulus (GPa) = 23.73730 30.38232 27.05981
# Shear Modulus (GPa) = 27.54772 13.44628 20.49700
#
# Velocity S-wave (km/s) = 3.59249 2.50988 3.09883
# Velocity P-wave (km/s) = 5.32248 4.75745 5.04788
#
# Compressibility (1/GPa) = 0.04212779
#
# Stress axis : x y z
#
# Youngs Moduli (GPa) = 115.45381 31.18456 45.69887
#
# Poissons Ratio (x) = 0.10133 0.04933
# Poissons Ratio (y) = 0.37516 0.27020
# Poissons Ratio (z) = 0.12464 0.18438
#
# Static dielectric constant tensor:
#      x y z
#    x 1.831310 0.000000 0.000000 
#    y 0.000000 1.854060 0.000000 
#    z 0.000000 0.000000 1.860560 
# 
# From -- ./inp_files/34072.got.cif
#   From: 2010.05.17/outbox.cif.g08.bks.cpg/sg73_18_cif.got.tgz:34072.got - 2010.06.03 17:35:07.
