data_PCOD9532266
_publ_section_title
;
Structure prediction by ZEFSAII (Michael W. Deem and Ramdas Pophale) SiO2 
 PCOD9532266
Probable space group: I B C A 
;
_chemical_formula_sum "Si O2"
_cell_formula_units_Z 72
_cell_length_a 22.799492
_cell_length_b 10.788055
_cell_length_c 14.206559
_cell_angle_alpha 90.000000
_cell_angle_beta 90.000000
_cell_angle_gamma 90.000000
_cell_volume 3494.276132
_symmetry_space_group_name_H-M "I B C A "
_symmetry_group_IT_number 73
_symmetry_cell_setting 'orthorhombic'
loop_
_space_group_symop_operation_xyz
x,y,z
-x,1/2-y,z
x,-y,1/2-z
1/2-x,y,-z
-x,-y,-z
x,1/2+y,-z
-x,y,1/2+z
1/2+x,-y,z
1/2+x,1/2+y,1/2+z
1/2-x,-y,1/2+z
1/2+x,1/2-y,-z
-x,1/2+y,1/2-z
1/2-x,1/2-y,1/2-z
1/2+x,y,1/2-z
1/2-x,1/2+y,z
x,1/2-y,1/2+z
loop_
_atom_site_type_symbol
_atom_site_label
_atom_site_fract_x
_atom_site_fract_y
_atom_site_fract_z
Si Si1 0.391382 0.500000 0.750000
Si Si2 0.435405 0.006198 0.041315
Si Si3 0.162867 0.626687 0.930296
Si Si4 0.320514 0.254148 0.242698
Si Si5 0.834012 0.644430 0.036117
O O1 0.428905 0.515338 0.845906
O O2 0.349878 0.620487 0.739676
O O3 0.397437 0.887930 0.007976
O O4 0.500000 0.000000 0.000000
O O5 0.397599 0.112666 0.988632
O O6 0.156209 0.648655 0.819948
O O7 0.192718 0.493991 0.951435
O O8 0.192417 0.752649 0.967033
O O9 0.250000 0.250000 0.250000
O O10 0.336863 0.297371 0.138699
#
# Coordination Sequence:
#
# PCOD9532266 Si02
#       5
#     8  16  16  16  16
#     4  12  24  46  64 110 132 172 246 276 318 442
#     4  10  24  45  72  97 137 181 217 287 352 389
#     4  10  22  44  65 100 138 170 236 276 328 416
#     4  12  25  43  69  97 139 188 225 283 342 388
#     4  10  22  44  65 100 138 170 236 276 328 416
#
# _framework density 20.605125000000001
#
# number of rings (size 3 to 8) (size 9 to 14) (size 15 to 20)
#    1.333    0.000    4.444    0.667    3.111    3.556 
#    0.000    6.667    0.000    0.000    0.000    0.000 
#    0.000    0.000    0.000    0.000    0.000    0.000 
#
# Total GULP energy -200570.203149 kJ/mol
# GULP energy per Si atom -5571.394532 kJ/mol
# Density = 2.055823 g / cm^3
# Si number density = 20.605125 Si / 1000 Ang^3
#
#
#
# Elastic Constant Matrix: (Units=GPa)
#
#
# Indices 1 2 3 4 5 6 
#
# 1 104.0205 -6.5207 40.6573 0.0000 0.0000 0.0000
# 2 -6.5207 120.0178 -4.6617 0.0000 0.0000 0.0000
# 3 40.6573 -4.6617 151.4584 0.0000 0.0000 0.0000
# 4 0.0000 0.0000 0.0000 46.7390 0.0000 0.0000
# 5 0.0000 0.0000 0.0000 0.0000 22.4995 0.0000
# 6 0.0000 0.0000 0.0000 0.0000 0.0000 -430.8927
#
#
#
# Elastic Compliance Matrix: (Units=1/GPa)
#
#
# Indices 1 2 3 4 5 6 
#
# 1 0.010767 0.000473 -0.002876 0.000000 0.000000 0.000000
# 2 0.000473 0.008363 0.000130 0.000000 0.000000 0.000000
# 3 -0.002876 0.000130 0.007378 0.000000 0.000000 0.000000
# 4 0.000000 0.000000 0.000000 0.021395 0.000000 0.000000
# 5 0.000000 0.000000 0.000000 0.000000 0.044445 0.000000
# 6 0.000000 0.000000 0.000000 0.000000 0.000000 -0.002321
#
#
# Mechanical properties :
#
#
# Convention : Reuss Voigt Hill
#
# Bulk Modulus (GPa) = 45.52850 48.27183 46.90017
# Shear Modulus (GPa) = 49.07049 -49.26272 -0.09611
#
# Velocity S-wave (km/s) = 4.88533 -4.89488 -0.21621
# Velocity P-wave (km/s) = 7.34613 2.91008 4.76954
#
# Compressibility (1/GPa) = 0.02196426
#
# Stress axis : x y z
#
# Youngs Moduli (GPa) = 92.87489 119.57611 135.52980
#
# Poissons Ratio (x) = -0.05659 0.38975
# Poissons Ratio (y) = -0.04396 -0.01767
# Poissons Ratio (z) = 0.26709 -0.01559
#
# Static dielectric constant tensor:
#      x y z
#    x 1.715030 0.000000 0.000000 
#    y 0.000000 1.802820 0.000000 
#    z 0.000000 0.000000 1.727300 
# 
# From -- ./inp_files/18452.got.cif
#   From: 2010.05.17/outbox.cif.g08.bks.cpg/sg73_10_cif.got.tgz:18452.got - 2010.06.03 17:35:07.
