data_PCOD9532386
_publ_section_title
;
Structure prediction by ZEFSAII (Michael W. Deem and Ramdas Pophale) SiO2 
 PCOD9532386
Probable space group: I B C A 
;
_chemical_formula_sum "Si O2"
_cell_formula_units_Z 104
_cell_length_a 24.074544
_cell_length_b 9.273190
_cell_length_c 23.075690
_cell_angle_alpha 90.000000
_cell_angle_beta 90.000000
_cell_angle_gamma 90.000000
_cell_volume 5151.597503
_symmetry_space_group_name_H-M "I B C A "
_symmetry_group_IT_number 73
_symmetry_cell_setting 'orthorhombic'
loop_
_space_group_symop_operation_xyz
x,y,z
-x,1/2-y,z
x,-y,1/2-z
1/2-x,y,-z
-x,-y,-z
x,1/2+y,-z
-x,y,1/2+z
1/2+x,-y,z
1/2+x,1/2+y,1/2+z
1/2-x,-y,1/2+z
1/2+x,1/2-y,-z
-x,1/2+y,1/2-z
1/2-x,1/2-y,1/2-z
1/2+x,y,1/2-z
1/2-x,1/2+y,z
x,1/2-y,1/2+z
loop_
_atom_site_type_symbol
_atom_site_label
_atom_site_fract_x
_atom_site_fract_y
_atom_site_fract_z
Si Si1 0.185255 0.742725 0.095390
Si Si2 0.766699 0.385574 0.788857
Si Si3 0.097093 0.237387 0.082996
Si Si4 0.630171 0.023467 0.514895
Si Si5 0.442529 0.000000 0.750000
Si Si6 0.750000 0.121049 0.000000
Si Si7 0.346680 0.522064 0.157115
Si Si8 0.500000 0.750000 0.677380
O O1 0.202040 0.664035 0.154037
O O2 0.140602 0.649764 0.061127
O O3 0.238833 0.777326 0.055420
O O4 0.159877 0.895847 0.111327
O O5 0.799913 0.500000 0.750000
O O6 0.750000 0.250000 0.750000
O O7 0.710881 0.465672 0.809271
O O8 0.105134 0.380872 0.044926
O O9 0.144992 0.175685 0.125568
O O10 0.049760 0.268517 0.130709
O O11 0.095717 0.102356 0.036787
O O12 0.694234 0.973185 0.503241
O O13 0.398187 0.024430 0.697673
O O14 0.481416 0.877849 0.721107
#
# Coordination Sequence:
#
# PCOD9532386 Si02
#       8
#    16  16  16  16   8   8  16   8
#     4  12  24  39  61  96 137 187 227 269 318 407
#     4  12  24  39  58  90 131 184 228 270 324 393
#     4  11  24  44  67  99 130 174 227 286 349 412
#     4  12  24  40  64  97 140 178 220 272 333 408
#     4  10  22  46  72  92 122 164 222 296 354 408
#     4  12  22  40  62  98 138 186 228 256 330 408
#     4  11  21  43  62  88 133 173 221 279 341 396
#     4  10  26  46  76 100 124 170 234 296 364 418
#
# _framework density 20.187913000000002
#
# number of rings (size 3 to 8) (size 9 to 14) (size 15 to 20)
#    0.000    0.615    5.385    2.308    2.154    1.846 
#    0.000    0.000    0.000    0.000    0.000    0.000 
#    0.000    0.000    0.000    0.000    0.000    0.000 
#
# Total GULP energy -289691.075024 kJ/mol
# GULP energy per Si atom -5570.982212 kJ/mol
# Density = 2.014196 g / cm^3
# Si number density = 20.187913 Si / 1000 Ang^3
#
#
#
# Elastic Constant Matrix: (Units=GPa)
#
#
# Indices 1 2 3 4 5 6 
#
# 1 58.5642 35.5129 29.9251 0.0000 0.0000 0.0000
# 2 35.5129 110.1377 53.1637 0.0000 0.0000 0.0000
# 3 29.9251 53.1637 120.0852 0.0000 0.0000 0.0000
# 4 0.0000 0.0000 0.0000 56.8226 0.0000 0.0000
# 5 0.0000 0.0000 0.0000 0.0000 30.6411 0.0000
# 6 0.0000 0.0000 0.0000 0.0000 0.0000 14.9860
#
#
#
# Elastic Compliance Matrix: (Units=1/GPa)
#
#
# Indices 1 2 3 4 5 6 
#
# 1 0.022035 -0.005665 -0.002983 0.000000 0.000000 0.000000
# 2 -0.005665 0.013004 -0.004345 0.000000 0.000000 0.000000
# 3 -0.002983 -0.004345 0.010994 0.000000 0.000000 0.000000
# 4 0.000000 0.000000 0.000000 0.017599 0.000000 0.000000
# 5 0.000000 0.000000 0.000000 0.000000 0.032636 0.000000
# 6 0.000000 0.000000 0.000000 0.000000 0.000000 0.066729
#
#
# Mechanical properties :
#
#
# Convention : Reuss Voigt Hill
#
# Bulk Modulus (GPa) = 49.88434 58.44337 54.16386
# Shear Modulus (GPa) = 25.55391 31.83565 28.69478
#
# Velocity S-wave (km/s) = 3.56167 3.97541 3.77421
# Velocity P-wave (km/s) = 6.45582 7.07703 6.77355
#
# Compressibility (1/GPa) = 0.02004637
#
# Stress axis : x y z
#
# Youngs Moduli (GPa) = 45.38289 76.90179 90.95467
#
# Poissons Ratio (x) = 0.43565 0.27132
# Poissons Ratio (y) = 0.25709 0.39522
# Poissons Ratio (z) = 0.13538 0.33415
#
# Static dielectric constant tensor:
#      x y z
#    x 1.937190 0.000000 0.000000 
#    y 0.000000 1.737730 0.000000 
#    z 0.000000 0.000000 1.703730 
# 
# From -- ./inp_files/30502.got.cif
#   From: 2010.05.17/outbox.cif.g08.bks.cpg/sg73_16_cif.got.tgz:30502.got - 2010.06.03 17:35:07.
