data_PCOD9532475
_publ_section_title
;
Structure prediction by ZEFSAII (Michael W. Deem and Ramdas Pophale) SiO2 
 PCOD9532475
Probable space group: I B C A 
;
_chemical_formula_sum "Si O2"
_cell_formula_units_Z 88
_cell_length_a 18.864644
_cell_length_b 12.492174
_cell_length_c 18.087940
_cell_angle_alpha 90.000000
_cell_angle_beta 90.000000
_cell_angle_gamma 90.000000
_cell_volume 4262.611452
_symmetry_space_group_name_H-M "I B C A "
_symmetry_group_IT_number 73
_symmetry_cell_setting 'orthorhombic'
loop_
_space_group_symop_operation_xyz
x,y,z
-x,1/2-y,z
x,-y,1/2-z
1/2-x,y,-z
-x,-y,-z
x,1/2+y,-z
-x,y,1/2+z
1/2+x,-y,z
1/2+x,1/2+y,1/2+z
1/2-x,-y,1/2+z
1/2+x,1/2-y,-z
-x,1/2+y,1/2-z
1/2-x,1/2-y,1/2-z
1/2+x,y,1/2-z
1/2-x,1/2+y,z
x,1/2-y,1/2+z
loop_
_atom_site_type_symbol
_atom_site_label
_atom_site_fract_x
_atom_site_fract_y
_atom_site_fract_z
Si Si1 0.562223 0.580924 0.066223
Si Si2 0.407296 0.190625 0.722000
Si Si3 0.000000 0.750000 0.343543
Si Si4 0.206046 0.591972 0.813124
Si Si5 0.091610 0.980109 0.090853
Si Si6 0.130959 0.579205 0.179231
O O1 0.560223 0.693753 0.108328
O O2 0.478491 0.549522 0.071404
O O3 0.601590 0.489309 0.111668
O O4 0.597018 0.585397 0.985707
O O5 0.463664 0.167747 0.786731
O O6 0.333517 0.184632 0.767539
O O7 0.416726 0.104061 0.657900
O O8 0.411444 0.310686 0.691214
O O9 0.206374 0.500000 0.750000
O O10 0.157645 0.551962 0.881652
O O11 0.287021 0.609915 0.834014
O O12 0.125977 0.500000 0.250000
#
# Coordination Sequence:
#
# PCOD9532475 Si02
#       6
#    16  16   8  16  16  16
#     4  11  24  40  61  92 127 162 209 260 316 380
#     4  11  21  38  65  93 125 163 212 258 317 373
#     4  12  22  36  66  96 126 160 216 268 312 376
#     4   9  20  39  64  90 125 162 206 257 310 374
#     4  10  23  41  62  87 126 168 204 254 321 372
#     4  11  22  38  63  95 123 161 210 258 308 378
#
# _framework density 20.644621999999998
#
# number of rings (size 3 to 8) (size 9 to 14) (size 15 to 20)
#    0.000    1.455    3.636    1.636    0.000    4.364 
#    0.000    0.000    0.000    0.000    0.000    0.000 
#    0.000    0.000    0.000    0.000    0.000    0.000 
#
# Total GULP energy -245370.416642 kJ/mol
# GULP energy per Si atom -5576.600378 kJ/mol
# Density = 2.059763 g / cm^3
# Si number density = 20.644622 Si / 1000 Ang^3
#
#
#
# Elastic Constant Matrix: (Units=GPa)
#
#
# Indices 1 2 3 4 5 6 
#
# 1 51.8800 -18.5475 6.1122 0.0000 0.0000 0.0000
# 2 -18.5475 57.6221 18.5344 0.0000 0.0000 0.0000
# 3 6.1122 18.5344 114.2321 0.0000 0.0000 0.0000
# 4 0.0000 0.0000 0.0000 22.7737 0.0000 0.0000
# 5 0.0000 0.0000 0.0000 0.0000 16.2626 0.0000
# 6 0.0000 0.0000 0.0000 0.0000 0.0000 27.8177
#
#
#
# Elastic Compliance Matrix: (Units=1/GPa)
#
#
# Indices 1 2 3 4 5 6 
#
# 1 0.022440 0.008028 -0.002503 0.000000 0.000000 0.000000
# 2 0.008028 0.021182 -0.003866 0.000000 0.000000 0.000000
# 3 -0.002503 -0.003866 0.009515 0.000000 0.000000 0.000000
# 4 0.000000 0.000000 0.000000 0.043910 0.000000 0.000000
# 5 0.000000 0.000000 0.000000 0.000000 0.061491 0.000000
# 6 0.000000 0.000000 0.000000 0.000000 0.000000 0.035948
#
#
# Mechanical properties :
#
#
# Convention : Reuss Voigt Hill
#
# Bulk Modulus (GPa) = 17.71317 26.21472 21.96394
# Shear Modulus (GPa) = 23.81083 27.87982 25.84532
#
# Velocity S-wave (km/s) = 3.39981 3.67885 3.54208
# Velocity P-wave (km/s) = 4.90003 5.54716 5.23360
#
# Compressibility (1/GPa) = 0.05645518
#
# Stress axis : x y z
#
# Youngs Moduli (GPa) = 44.56255 47.20928 105.09285
#
# Poissons Ratio (x) = -0.37901 0.26308
# Poissons Ratio (y) = -0.35776 0.40634
# Poissons Ratio (z) = 0.11156 0.18253
#
# Static dielectric constant tensor:
#      x y z
#    x 1.789970 0.000000 0.000000 
#    y 0.000000 1.804000 0.000000 
#    z 0.000000 0.000000 1.757740 
# 
# From -- ./inp_files/13516.got.cif
#   From: 2010.05.17/outbox.cif.g08.bks.cpg/sg73_7_cif.got.tgz:13516.got - 2010.06.03 17:35:07.
