data_PCOD9532312
_publ_section_title
;
Structure prediction by ZEFSAII (Michael W. Deem and Ramdas Pophale) SiO2 
 PCOD9532312
Probable space group: I B C A 
;
_chemical_formula_sum "Si O2"
_cell_formula_units_Z 80
_cell_length_a 10.493373
_cell_length_b 13.708922
_cell_length_c 25.322667
_cell_angle_alpha 90.000000
_cell_angle_beta 90.000000
_cell_angle_gamma 90.000000
_cell_volume 3642.737361
_symmetry_space_group_name_H-M "I B C A "
_symmetry_group_IT_number 73
_symmetry_cell_setting 'orthorhombic'
loop_
_space_group_symop_operation_xyz
x,y,z
-x,1/2-y,z
x,-y,1/2-z
1/2-x,y,-z
-x,-y,-z
x,1/2+y,-z
-x,y,1/2+z
1/2+x,-y,z
1/2+x,1/2+y,1/2+z
1/2-x,-y,1/2+z
1/2+x,1/2-y,-z
-x,1/2+y,1/2-z
1/2-x,1/2-y,1/2-z
1/2+x,y,1/2-z
1/2-x,1/2+y,z
x,1/2-y,1/2+z
loop_
_atom_site_type_symbol
_atom_site_label
_atom_site_fract_x
_atom_site_fract_y
_atom_site_fract_z
Si Si1 0.630672 0.812674 0.092486
Si Si2 0.369705 0.995693 0.966798
Si Si3 0.518735 0.068669 0.828186
Si Si4 0.776212 0.632130 0.126424
Si Si5 0.968981 0.360064 0.288914
O O1 0.500000 0.750000 0.082764
O O2 0.601136 0.882496 0.142494
O O3 0.746271 0.739965 0.104695
O O4 0.656325 0.891993 0.048164
O O5 0.365085 0.927836 0.914092
O O6 0.250000 0.957177 0.000000
O O7 0.500000 0.000000 0.000000
O O8 0.636080 0.087883 0.867054
O O9 0.507973 0.123096 0.771704
O O10 0.528525 0.954404 0.816622
O O11 0.826709 0.630651 0.186940
O O12 0.000000 0.250000 0.304380
#
# Coordination Sequence:
#
# PCOD9532312 Si02
#       5
#    16  16  16  16  16
#     4  10  22  44  71  98 143 186 232 295 370 435
#     4  12  27  47  75 102 140 182 247 310 369 428
#     4  10  23  44  64 100 150 188 229 296 355 433
#     4  11  25  44  70  99 144 187 235 295 371 426
#     4  11  24  38  68 104 137 182 244 278 355 430
#
# _framework density 21.961507000000001
#
# number of rings (size 3 to 8) (size 9 to 14) (size 15 to 20)
#    0.000    1.200    2.000    4.200    2.800    8.800 
#    0.000    0.000    0.000    0.000    0.000    0.000 
#    0.000    0.000    0.000    0.000    0.000    0.000 
#
# Total GULP energy -222719.882526 kJ/mol
# GULP energy per Si atom -5567.997063 kJ/mol
# Density = 2.191152 g / cm^3
# Si number density = 21.961507 Si / 1000 Ang^3
#
#
#
# Elastic Constant Matrix: (Units=GPa)
#
#
# Indices 1 2 3 4 5 6 
#
# 1 61.1686 17.4563 36.9702 0.0000 0.0000 0.0000
# 2 17.4563 147.4205 23.8433 0.0000 0.0000 0.0000
# 3 36.9702 23.8433 89.5661 0.0000 0.0000 0.0000
# 4 0.0000 0.0000 0.0000 -115.8348 0.0000 0.0000
# 5 0.0000 0.0000 0.0000 0.0000 36.4579 0.0000
# 6 0.0000 0.0000 0.0000 0.0000 0.0000 18.9217
#
#
#
# Elastic Compliance Matrix: (Units=1/GPa)
#
#
# Indices 1 2 3 4 5 6 
#
# 1 0.021979 -0.001186 -0.008757 0.000000 0.000000 0.000000
# 2 -0.001186 0.007153 -0.001414 0.000000 0.000000 0.000000
# 3 -0.008757 -0.001414 0.015156 0.000000 0.000000 0.000000
# 4 0.000000 0.000000 0.000000 -0.008633 0.000000 0.000000
# 5 0.000000 0.000000 0.000000 0.000000 0.027429 0.000000
# 6 0.000000 0.000000 0.000000 0.000000 0.000000 0.052849
#
#
# Mechanical properties :
#
#
# Convention : Reuss Voigt Hill
#
# Bulk Modulus (GPa) = 46.35394 50.52163 48.43778
# Shear Modulus (GPa) = 34.28448 2.56798 18.42623
#
# Velocity S-wave (km/s) = 3.95538 1.08252 2.89973
# Velocity P-wave (km/s) = 6.48173 4.96156 5.77191
#
# Compressibility (1/GPa) = 0.02157314
#
# Stress axis : x y z
#
# Youngs Moduli (GPa) = 45.49741 139.81023 65.98087
#
# Poissons Ratio (x) = 0.16586 0.57777
# Poissons Ratio (y) = 0.05398 0.09332
# Poissons Ratio (z) = 0.39840 0.19775
#
# Static dielectric constant tensor:
#      x y z
#    x 1.858850 0.000000 0.000000 
#    y 0.000000 1.824460 0.000000 
#    z 0.000000 0.000000 1.901940 
# 
# From -- ./inp_files/28784.got.cif
#   From: 2010.05.17/outbox.cif.g08.bks.cpg/sg73_15_cif.got.tgz:28784.got - 2010.06.03 17:35:07.
