data_PCOD9532659
_publ_section_title
;
Structure prediction by ZEFSAII (Michael W. Deem and Ramdas Pophale) SiO2 
 PCOD9532659
Probable space group: I B C A 
;
_chemical_formula_sum "Si O2"
_cell_formula_units_Z 56
_cell_length_a 14.396032
_cell_length_b 11.990144
_cell_length_c 12.202827
_cell_angle_alpha 90.000000
_cell_angle_beta 90.000000
_cell_angle_gamma 90.000000
_cell_volume 2106.336030
_symmetry_space_group_name_H-M "I B C A "
_symmetry_group_IT_number 73
_symmetry_cell_setting 'orthorhombic'
loop_
_space_group_symop_operation_xyz
x,y,z
-x,1/2-y,z
x,-y,1/2-z
1/2-x,y,-z
-x,-y,-z
x,1/2+y,-z
-x,y,1/2+z
1/2+x,-y,z
1/2+x,1/2+y,1/2+z
1/2-x,-y,1/2+z
1/2+x,1/2-y,-z
-x,1/2+y,1/2-z
1/2-x,1/2-y,1/2-z
1/2+x,y,1/2-z
1/2-x,1/2+y,z
x,1/2-y,1/2+z
loop_
_atom_site_type_symbol
_atom_site_label
_atom_site_fract_x
_atom_site_fract_y
_atom_site_fract_z
Si Si1 0.609884 0.233356 0.834555
Si Si2 0.119309 0.536274 0.892357
Si Si3 0.550851 0.130186 0.620472
Si Si4 0.750000 0.376209 0.500000
O O1 0.500000 0.250000 0.860184
O O2 0.639847 0.360679 0.812983
O O3 0.611654 0.153323 0.728950
O O4 0.669851 0.188792 0.935159
O O5 0.201791 0.451799 0.909184
O O6 0.026011 0.467037 0.866863
O O7 0.105155 0.592547 0.012672
O O8 0.500000 0.250000 0.605659
#
# Coordination Sequence:
#
# PCOD9532659 Si02
#       4
#    16  16  16   8
#     4  11  25  48  76 113 155 205 266 321 388 475
#     4  11  23  45  75 109 153 200 249 325 394 452
#     4  10  23  46  78 109 148 202 260 317 388 469
#     4  12  26  46  76 114 160 208 262 328 394 468
#
# _framework density 26.586452000000001
#
# number of rings (size 3 to 8) (size 9 to 14) (size 15 to 20)
#    0.000    1.143    0.000    6.857    0.000   10.286 
#    0.000   31.429    0.000    0.000    0.000    0.000 
#    0.000    0.000    0.000    0.000    0.000    0.000 
#
# Total GULP energy -157022.903725 kJ/mol
# GULP energy per Si atom -5607.960847 kJ/mol
# Density = 2.652594 g / cm^3
# Si number density = 26.586452 Si / 1000 Ang^3
#
#
#
# Elastic Constant Matrix: (Units=GPa)
#
#
# Indices 1 2 3 4 5 6 
#
# 1 103.9695 56.1331 68.5022 0.0000 0.0000 0.0000
# 2 56.1331 175.5189 63.2012 0.0000 0.0000 0.0000
# 3 68.5022 63.2012 169.5842 0.0000 0.0000 0.0000
# 4 0.0000 0.0000 0.0000 57.5237 0.0000 0.0000
# 5 0.0000 0.0000 0.0000 0.0000 38.4728 0.0000
# 6 0.0000 0.0000 0.0000 0.0000 0.0000 27.7827
#
#
#
# Elastic Compliance Matrix: (Units=1/GPa)
#
#
# Indices 1 2 3 4 5 6 
#
# 1 0.014258 -0.002871 -0.004689 0.000000 0.000000 0.000000
# 2 -0.002871 0.007159 -0.001508 0.000000 0.000000 0.000000
# 3 -0.004689 -0.001508 0.008353 0.000000 0.000000 0.000000
# 4 0.000000 0.000000 0.000000 0.017384 0.000000 0.000000
# 5 0.000000 0.000000 0.000000 0.000000 0.025992 0.000000
# 6 0.000000 0.000000 0.000000 0.000000 0.000000 0.035994
#
#
# Mechanical properties :
#
#
# Convention : Reuss Voigt Hill
#
# Bulk Modulus (GPa) = 85.96749 91.63840 88.80294
# Shear Modulus (GPa) = 38.12282 42.17157 40.14720
#
# Velocity S-wave (km/s) = 3.79082 3.98704 3.89017
# Velocity P-wave (km/s) = 7.18093 7.46580 7.32475
#
# Compressibility (1/GPa) = 0.01163230
#
# Stress axis : x y z
#
# Youngs Moduli (GPa) = 70.13554 139.68974 119.71704
#
# Poissons Ratio (x) = 0.40110 0.56139
# Poissons Ratio (y) = 0.20138 0.18054
# Poissons Ratio (z) = 0.32889 0.21066
#
# Static dielectric constant tensor:
#      x y z
#    x 2.079800 0.000000 0.000000 
#    y 0.000000 2.136520 0.000000 
#    z 0.000000 0.000000 2.164190 
# 
# From -- ./inp_files/16538.got.cif
#   From: 2010.05.17/outbox.cif.g08.bks.cpg/sg73_9_cif.got.tgz:16538.got - 2010.06.03 17:35:07.
