data_PCOD9532908
_publ_section_title
;
Structure prediction by ZEFSAII (Michael W. Deem and Ramdas Pophale) SiO2 
 PCOD9532908
Probable space group: I B C A 
;
_chemical_formula_sum "Si O2"
_cell_formula_units_Z 72
_cell_length_a 26.169923
_cell_length_b 7.342483
_cell_length_c 16.498706
_cell_angle_alpha 90.000000
_cell_angle_beta 90.000000
_cell_angle_gamma 90.000000
_cell_volume 3170.262898
_symmetry_space_group_name_H-M "I B C A "
_symmetry_group_IT_number 73
_symmetry_cell_setting 'orthorhombic'
loop_
_space_group_symop_operation_xyz
x,y,z
-x,1/2-y,z
x,-y,1/2-z
1/2-x,y,-z
-x,-y,-z
x,1/2+y,-z
-x,y,1/2+z
1/2+x,-y,z
1/2+x,1/2+y,1/2+z
1/2-x,-y,1/2+z
1/2+x,1/2-y,-z
-x,1/2+y,1/2-z
1/2-x,1/2-y,1/2-z
1/2+x,y,1/2-z
1/2-x,1/2+y,z
x,1/2-y,1/2+z
loop_
_atom_site_type_symbol
_atom_site_label
_atom_site_fract_x
_atom_site_fract_y
_atom_site_fract_z
Si Si1 0.605976 0.500000 0.250000
Si Si2 0.779126 0.623517 0.316520
Si Si3 0.856160 0.522516 0.079198
Si Si4 0.175679 0.567586 0.100666
Si Si5 0.950817 0.149847 0.816922
O O1 0.642135 0.509835 0.172823
O O2 0.575669 0.314531 0.232889
O O3 0.807746 0.500000 0.250000
O O4 0.750000 0.750000 0.250000
O O5 0.824516 0.644499 0.380825
O O6 0.734290 0.534292 0.372279
O O7 0.828189 0.712976 0.099160
O O8 0.912081 0.557369 0.118198
O O9 0.848616 0.495144 0.983734
O O10 0.000000 0.250000 0.855835
O O11 0.965691 0.000000 0.750000
#
# Coordination Sequence:
#
# PCOD9532908 Si02
#       5
#     8  16  16  16  16
#     4  10  24  46  68 104 136 200 246 306 380 466
#     4  12  24  41  66 100 142 194 246 291 357 449
#     4  11  27  43  67 108 144 197 244 313 369 453
#     4  11  25  42  67  98 150 194 248 300 373 443
#     4  11  24  47  77 105 142 188 258 317 391 453
#
# _framework density 22.71105
#
# number of rings (size 3 to 8) (size 9 to 14) (size 15 to 20)
#    0.000    0.889    4.444    1.333    9.333    1.778 
#    0.000    5.556    0.000    0.000    0.000    0.000 
#    0.000    0.000    0.000    0.000    0.000    0.000 
#
# Total GULP energy -200644.199475 kJ/mol
# GULP energy per Si atom -5573.449985 kJ/mol
# Density = 2.265936 g / cm^3
# Si number density = 22.711050 Si / 1000 Ang^3
#
#
#
# Elastic Constant Matrix: (Units=GPa)
#
#
# Indices 1 2 3 4 5 6 
#
# 1 147.4313 40.0003 72.0903 0.0000 0.0000 0.0000
# 2 40.0003 77.5289 46.4549 0.0000 0.0000 0.0000
# 3 72.0903 46.4549 199.1187 0.0000 0.0000 0.0000
# 4 0.0000 0.0000 0.0000 34.9341 0.0000 0.0000
# 5 0.0000 0.0000 0.0000 0.0000 10.5477 0.0000
# 6 0.0000 0.0000 0.0000 0.0000 0.0000 36.4164
#
#
#
# Elastic Compliance Matrix: (Units=1/GPa)
#
#
# Indices 1 2 3 4 5 6 
#
# 1 0.008828 -0.003069 -0.002480 0.000000 0.000000 0.000000
# 2 -0.003069 0.016061 -0.002636 0.000000 0.000000 0.000000
# 3 -0.002480 -0.002636 0.006535 0.000000 0.000000 0.000000
# 4 0.000000 0.000000 0.000000 0.028625 0.000000 0.000000
# 5 0.000000 0.000000 0.000000 0.000000 0.094808 0.000000
# 6 0.000000 0.000000 0.000000 0.000000 0.000000 0.027460
#
#
# Mechanical properties :
#
#
# Convention : Reuss Voigt Hill
#
# Bulk Modulus (GPa) = 66.42580 82.35222 74.38901
# Shear Modulus (GPa) = 24.54517 34.08186 29.31352
#
# Velocity S-wave (km/s) = 3.29106 3.87805 3.59655
# Velocity P-wave (km/s) = 6.61461 7.50946 7.07620
#
# Compressibility (1/GPa) = 0.01505439
#
# Stress axis : x y z
#
# Youngs Moduli (GPa) = 113.27346 62.26185 153.01906
#
# Poissons Ratio (x) = 0.19106 0.37953
# Poissons Ratio (y) = 0.34759 0.40338
# Poissons Ratio (z) = 0.28095 0.16413
#
# Static dielectric constant tensor:
#      x y z
#    x 1.894090 0.000000 0.000000 
#    y 0.000000 2.138420 0.000000 
#    z 0.000000 0.000000 1.794530 
# 
# From -- ./inp_files/8311.got.cif
#   From: 2010.05.17/outbox.cif.g08.bks.cpg/sg73_5_cif.got.tgz:8311.got - 2010.06.03 17:35:07.
