data_PCOD9532637
_publ_section_title
;
Structure prediction by ZEFSAII (Michael W. Deem and Ramdas Pophale) SiO2 
 PCOD9532637
Probable space group: I B C A 
;
_chemical_formula_sum "Si O2"
_cell_formula_units_Z 72
_cell_length_a 24.575964
_cell_length_b 10.953771
_cell_length_c 12.801399
_cell_angle_alpha 90.000000
_cell_angle_beta 90.000000
_cell_angle_gamma 90.000000
_cell_volume 3446.129977
_symmetry_space_group_name_H-M "I B C A "
_symmetry_group_IT_number 73
_symmetry_cell_setting 'orthorhombic'
loop_
_space_group_symop_operation_xyz
x,y,z
-x,1/2-y,z
x,-y,1/2-z
1/2-x,y,-z
-x,-y,-z
x,1/2+y,-z
-x,y,1/2+z
1/2+x,-y,z
1/2+x,1/2+y,1/2+z
1/2-x,-y,1/2+z
1/2+x,1/2-y,-z
-x,1/2+y,1/2-z
1/2-x,1/2-y,1/2-z
1/2+x,y,1/2-z
1/2-x,1/2+y,z
x,1/2-y,1/2+z
loop_
_atom_site_type_symbol
_atom_site_label
_atom_site_fract_x
_atom_site_fract_y
_atom_site_fract_z
Si Si1 0.099327 0.475975 0.905113
Si Si2 0.559364 0.194308 0.281762
Si Si3 0.290663 0.619164 0.095137
Si Si4 0.139919 0.141414 0.607635
Si Si5 0.219055 0.000000 0.750000
O O1 0.064688 0.598150 0.878824
O O2 0.079417 0.379547 0.819403
O O3 0.161858 0.518862 0.891589
O O4 0.101475 0.415359 0.018668
O O5 0.500000 0.250000 0.270560
O O6 0.601542 0.301854 0.304031
O O7 0.321755 0.745786 0.072329
O O8 0.256175 0.607317 0.201649
O O9 0.250000 0.594413 0.000000
O O10 0.180411 0.044819 0.657645
#
# Coordination Sequence:
#
# PCOD9532637 Si02
#       5
#    16  16  16  16   8
#     4  10  23  46  65  99 143 169 234 287 334 425
#     4  10  24  45  70  95 131 182 223 294 357 397
#     4  11  23  40  65  97 140 188 222 274 351 404
#     4  11  25  39  67  98 135 178 235 286 335 416
#     4  12  24  40  62 100 136 184 236 280 332 418
#
# _framework density 20.893001000000002
#
# number of rings (size 3 to 8) (size 9 to 14) (size 15 to 20)
#    0.000    1.333    2.222    3.333    6.222    3.556 
#    0.000    0.000    0.000    0.000    0.000    0.000 
#    0.000    0.000    0.000    0.000    0.000    0.000 
#
# Total GULP energy -200965.723116 kJ/mol
# GULP energy per Si atom -5582.381198 kJ/mol
# Density = 2.084545 g / cm^3
# Si number density = 20.893001 Si / 1000 Ang^3
#
#
#
# Elastic Constant Matrix: (Units=GPa)
#
#
# Indices 1 2 3 4 5 6 
#
# 1 119.7866 37.2753 24.1251 0.0000 0.0000 0.0000
# 2 37.2753 52.4719 15.9895 0.0000 0.0000 0.0000
# 3 24.1251 15.9895 57.1899 0.0000 0.0000 0.0000
# 4 0.0000 0.0000 0.0000 26.9053 0.0000 0.0000
# 5 0.0000 0.0000 0.0000 0.0000 33.9712 0.0000
# 6 0.0000 0.0000 0.0000 0.0000 0.0000 10.8162
#
#
#
# Elastic Compliance Matrix: (Units=1/GPa)
#
#
# Indices 1 2 3 4 5 6 
#
# 1 0.011088 -0.007052 -0.002706 0.000000 0.000000 0.000000
# 2 -0.007052 0.025318 -0.004104 0.000000 0.000000 0.000000
# 3 -0.002706 -0.004104 0.019774 0.000000 0.000000 0.000000
# 4 0.000000 0.000000 0.000000 0.037167 0.000000 0.000000
# 5 0.000000 0.000000 0.000000 0.000000 0.029437 0.000000
# 6 0.000000 0.000000 0.000000 0.000000 0.000000 0.092454
#
#
# Mechanical properties :
#
#
# Convention : Reuss Voigt Hill
#
# Bulk Modulus (GPa) = 35.14045 42.69202 38.91624
# Shear Modulus (GPa) = 19.80625 24.47578 22.14101
#
# Velocity S-wave (km/s) = 3.08228 3.42641 3.25889
# Velocity P-wave (km/s) = 5.43351 6.01096 5.72951
#
# Compressibility (1/GPa) = 0.02845724
#
# Stress axis : x y z
#
# Youngs Moduli (GPa) = 90.19162 39.49768 50.57072
#
# Poissons Ratio (x) = 0.27854 0.13682
# Poissons Ratio (y) = 0.63603 0.20753
# Poissons Ratio (z) = 0.24402 0.16209
#
# Static dielectric constant tensor:
#      x y z
#    x 1.722440 0.000000 0.000000 
#    y 0.000000 1.771320 0.000000 
#    z 0.000000 0.000000 1.771000 
# 
# From -- ./inp_files/9700.got.cif
#   From: 2010.05.17/outbox.cif.g08.bks.cpg/sg73_5_cif.got.tgz:9700.got - 2010.06.03 17:35:07.
