data_PCOD9532856
_publ_section_title
;
Structure prediction by ZEFSAII (Michael W. Deem and Ramdas Pophale) SiO2 
 PCOD9532856
Probable space group: I B C A 
;
_chemical_formula_sum "Si O2"
_cell_formula_units_Z 88
_cell_length_a 10.900541
_cell_length_b 23.655397
_cell_length_c 14.572294
_cell_angle_alpha 90.000000
_cell_angle_beta 90.000000
_cell_angle_gamma 90.000000
_cell_volume 3757.562547
_symmetry_space_group_name_H-M "I B C A "
_symmetry_group_IT_number 73
_symmetry_cell_setting 'orthorhombic'
loop_
_space_group_symop_operation_xyz
x,y,z
-x,1/2-y,z
x,-y,1/2-z
1/2-x,y,-z
-x,-y,-z
x,1/2+y,-z
-x,y,1/2+z
1/2+x,-y,z
1/2+x,1/2+y,1/2+z
1/2-x,-y,1/2+z
1/2+x,1/2-y,-z
-x,1/2+y,1/2-z
1/2-x,1/2-y,1/2-z
1/2+x,y,1/2-z
1/2-x,1/2+y,z
x,1/2-y,1/2+z
loop_
_atom_site_type_symbol
_atom_site_label
_atom_site_fract_x
_atom_site_fract_y
_atom_site_fract_z
Si Si1 0.250000 0.885115 0.000000
Si Si2 0.257365 0.221556 0.107682
Si Si3 0.869938 0.500000 0.250000
Si Si4 0.019015 0.549123 0.574977
Si Si5 0.500000 0.250000 0.717503
Si Si6 0.288747 0.399993 0.661830
Si Si7 0.616448 0.329759 0.330666
O O1 0.351582 0.920497 0.945242
O O2 0.157567 0.853256 0.929461
O O3 0.392884 0.231807 0.147558
O O4 0.223192 0.155851 0.121460
O O5 0.184077 0.269133 0.163631
O O6 0.250000 0.234084 0.000000
O O7 0.959837 0.473195 0.323538
O O8 0.790209 0.545531 0.308293
O O9 0.000000 0.500000 0.500000
O O10 0.895171 0.585372 0.587967
O O11 0.507628 0.305967 0.782966
O O12 0.339553 0.376235 0.758608
#
# Coordination Sequence:
#
# PCOD9532856 Si02
#       7
#     8  16   8  16   8  16  16
#     4  12  26  50  74 112 158 190 260 330 378 456
#     4  11  26  46  75 112 152 195 256 317 385 468
#     4  12  26  50  78 102 160 190 260 326 380 456
#     4  12  29  48  76 112 149 202 263 315 391 462
#     4  10  24  44  72 102 150 196 248 294 390 452
#     4  11  26  47  74 107 144 208 250 314 395 458
#     4  11  25  47  74 108 153 194 252 315 386 464
#
# _framework density 23.419436000000001
#
# number of rings (size 3 to 8) (size 9 to 14) (size 15 to 20)
#    0.000    0.727    2.727    3.818   10.182    5.091 
#    0.000    0.000    0.000    0.000    0.000    0.000 
#    0.000    0.000    0.000    0.000    0.000    0.000 
#
# Total GULP energy -245158.826314 kJ/mol
# GULP energy per Si atom -5571.791507 kJ/mol
# Density = 2.336613 g / cm^3
# Si number density = 23.419436 Si / 1000 Ang^3
#
#
#
# Elastic Constant Matrix: (Units=GPa)
#
#
# Indices 1 2 3 4 5 6 
#
# 1 63.5827 20.8774 21.9617 0.0000 0.0000 0.0000
# 2 20.8774 82.0228 20.4611 0.0000 0.0000 0.0000
# 3 21.9617 20.4611 136.5534 0.0001 0.0000 0.0000
# 4 0.0000 0.0000 0.0001 31.8204 0.0000 0.0000
# 5 0.0000 0.0000 0.0000 0.0000 34.5946 0.0000
# 6 0.0000 0.0000 0.0000 0.0000 0.0000 30.8060
#
#
#
# Elastic Compliance Matrix: (Units=1/GPa)
#
#
# Indices 1 2 3 4 5 6 
#
# 1 0.017815 -0.003968 -0.002271 0.000000 0.000000 0.000000
# 2 -0.003968 0.013549 -0.001392 0.000000 0.000000 0.000000
# 3 -0.002271 -0.001392 0.007897 0.000000 0.000000 0.000000
# 4 0.000000 0.000000 0.000000 0.031426 0.000000 0.000000
# 5 0.000000 0.000000 0.000000 0.000000 0.028906 0.000000
# 6 0.000000 0.000000 0.000000 0.000000 0.000000 0.032461
#
#
# Mechanical properties :
#
#
# Convention : Reuss Voigt Hill
#
# Bulk Modulus (GPa) = 41.66765 45.41770 43.54267
# Shear Modulus (GPa) = 32.19259 34.03480 33.11369
#
# Velocity S-wave (km/s) = 3.71160 3.81632 3.76432
# Velocity P-wave (km/s) = 6.01652 6.23332 6.12588
#
# Compressibility (1/GPa) = 0.02399944
#
# Stress axis : x y z
#
# Youngs Moduli (GPa) = 56.13345 73.80647 126.63218
#
# Poissons Ratio (x) = 0.29286 0.28752
# Poissons Ratio (y) = 0.22274 0.17627
# Poissons Ratio (z) = 0.12745 0.10274
#
# Static dielectric constant tensor:
#      x y z
#    x 2.028060 0.000000 0.000000 
#    y 0.000000 1.958530 0.000000 
#    z 0.000000 0.000000 1.922530 
# 
# From -- ./inp_files/16151.got.cif
#   From: 2010.05.17/outbox.cif.g08.bks.cpg/sg73_9_cif.got.tgz:16151.got - 2010.06.03 17:35:07.
