data_PCOD9532397
_publ_section_title
;
Structure prediction by ZEFSAII (Michael W. Deem and Ramdas Pophale) SiO2 
 PCOD9532397
Probable space group: I B C A 
;
_chemical_formula_sum "Si O2"
_cell_formula_units_Z 88
_cell_length_a 7.255771
_cell_length_b 24.391361
_cell_length_c 19.420667
_cell_angle_alpha 90.000000
_cell_angle_beta 90.000000
_cell_angle_gamma 90.000000
_cell_volume 3437.033325
_symmetry_space_group_name_H-M "I B C A "
_symmetry_group_IT_number 73
_symmetry_cell_setting 'orthorhombic'
loop_
_space_group_symop_operation_xyz
x,y,z
-x,1/2-y,z
x,-y,1/2-z
1/2-x,y,-z
-x,-y,-z
x,1/2+y,-z
-x,y,1/2+z
1/2+x,-y,z
1/2+x,1/2+y,1/2+z
1/2-x,-y,1/2+z
1/2+x,1/2-y,-z
-x,1/2+y,1/2-z
1/2-x,1/2-y,1/2-z
1/2+x,y,1/2-z
1/2-x,1/2+y,z
x,1/2-y,1/2+z
loop_
_atom_site_type_symbol
_atom_site_label
_atom_site_fract_x
_atom_site_fract_y
_atom_site_fract_z
Si Si1 0.494354 0.375532 0.241715
Si Si2 0.273338 0.709520 0.186210
Si Si3 0.468703 0.130711 0.984648
Si Si4 0.000000 0.750000 0.933187
Si Si5 0.441468 0.571929 0.378156
Si Si6 0.878190 0.445937 0.140653
O O1 0.442794 0.330998 0.299313
O O2 0.611613 0.334056 0.192912
O O3 0.345901 0.393461 0.182994
O O4 0.479608 0.431141 0.287881
O O5 0.250000 0.750000 0.250000
O O6 0.321681 0.739152 0.115886
O O7 0.528926 0.193151 0.972755
O O8 0.473510 0.090088 0.919158
O O9 0.250000 0.133637 0.000000
O O10 0.565287 0.102087 0.049459
O O11 0.658951 0.568221 0.353920
O O12 0.380287 0.509427 0.379883
#
# Coordination Sequence:
#
# PCOD9532397 Si02
#       6
#    16  16  16   8  16  16
#     4  12  23  42  67 103 140 178 234 287 356 426
#     4  12  22  41  68 101 139 184 229 285 350 417
#     4  10  22  47  66  93 136 183 233 287 354 417
#     4  12  22  46  72  98 142 190 230 298 350 430
#     4  11  25  42  69 102 134 182 232 291 351 432
#     4  11  23  44  70  97 139 182 232 291 359 418
#
# _framework density 25.603477999999999
#
# number of rings (size 3 to 8) (size 9 to 14) (size 15 to 20)
#    0.000    0.727    5.455    2.182    2.545    1.455 
#    6.545    0.000    0.000    0.000    0.000    0.000 
#    0.000    0.000    0.000    0.000    0.000    0.000 
#
# Total GULP energy -245473.160563 kJ/mol
# GULP energy per Si atom -5578.935467 kJ/mol
# Density = 2.554520 g / cm^3
# Si number density = 25.603478 Si / 1000 Ang^3
#
#
#
# Elastic Constant Matrix: (Units=GPa)
#
#
# Indices 1 2 3 4 5 6 
#
# 1 40.5523 -16.4267 -19.5541 0.0000 0.0000 0.0000
# 2 -16.4267 211.6578 58.0602 0.0000 0.0000 0.0000
# 3 -19.5541 58.0602 124.7064 0.0000 0.0000 0.0000
# 4 0.0000 0.0000 0.0000 59.6512 0.0000 0.0000
# 5 0.0000 0.0000 0.0000 0.0000 12.0379 0.0000
# 6 0.0000 0.0000 0.0000 0.0000 0.0000 23.0467
#
#
#
# Elastic Compliance Matrix: (Units=1/GPa)
#
#
# Indices 1 2 3 4 5 6 
#
# 1 0.026885 0.001066 0.003719 0.000000 0.000000 0.000000
# 2 0.001066 0.005459 -0.002374 0.000000 0.000000 0.000000
# 3 0.003719 -0.002374 0.009707 0.000000 0.000000 0.000000
# 4 0.000000 0.000000 0.000000 0.016764 0.000000 0.000000
# 5 0.000000 0.000000 0.000000 0.000000 0.083071 0.000000
# 6 0.000000 0.000000 0.000000 0.000000 0.000000 0.043390
#
#
# Mechanical properties :
#
#
# Convention : Reuss Voigt Hill
#
# Bulk Modulus (GPa) = 21.33413 46.78614 34.06013
# Shear Modulus (GPa) = 25.50007 42.60297 34.05152
#
# Velocity S-wave (km/s) = 3.15931 4.08358 3.65081
# Velocity P-wave (km/s) = 4.65391 6.36767 5.57701
#
# Compressibility (1/GPa) = 0.04687325
#
# Stress axis : x y z
#
# Youngs Moduli (GPa) = 37.19577 183.19591 103.01457
#
# Poissons Ratio (x) = -0.19535 -0.38312
# Poissons Ratio (y) = -0.03966 0.24458
# Poissons Ratio (z) = -0.13834 0.43494
#
# Static dielectric constant tensor:
#      x y z
#    x 3.410530 0.000000 0.000000 
#    y 0.000000 1.853180 0.000000 
#    z 0.000000 0.000000 1.718530 
# 
# From -- ./inp_files/24773.got.cif
#   From: 2010.05.17/outbox.cif.g08.bks.cpg/sg73_13_cif.got.tgz:24773.got - 2010.06.03 17:35:07.
