data_PCOD9532300
_publ_section_title
;
Structure prediction by ZEFSAII (Michael W. Deem and Ramdas Pophale) SiO2 
 PCOD9532300
Probable space group: I B C A 
;
_chemical_formula_sum "Si O2"
_cell_formula_units_Z 72
_cell_length_a 18.462656
_cell_length_b 8.792899
_cell_length_c 17.137928
_cell_angle_alpha 90.000000
_cell_angle_beta 90.000000
_cell_angle_gamma 90.000000
_cell_volume 2782.175850
_symmetry_space_group_name_H-M "I B C A "
_symmetry_group_IT_number 73
_symmetry_cell_setting 'orthorhombic'
loop_
_space_group_symop_operation_xyz
x,y,z
-x,1/2-y,z
x,-y,1/2-z
1/2-x,y,-z
-x,-y,-z
x,1/2+y,-z
-x,y,1/2+z
1/2+x,-y,z
1/2+x,1/2+y,1/2+z
1/2-x,-y,1/2+z
1/2+x,1/2-y,-z
-x,1/2+y,1/2-z
1/2-x,1/2-y,1/2-z
1/2+x,y,1/2-z
1/2-x,1/2+y,z
x,1/2-y,1/2+z
loop_
_atom_site_type_symbol
_atom_site_label
_atom_site_fract_x
_atom_site_fract_y
_atom_site_fract_z
Si Si1 0.334826 0.604165 0.505611
Si Si2 0.831966 0.211714 0.829097
Si Si3 0.025003 0.584257 0.680524
Si Si4 0.430465 0.348150 0.452231
Si Si5 0.784909 0.500000 0.750000
O O1 0.250000 0.560695 0.500000
O O2 0.345511 0.678699 0.419801
O O3 0.390835 0.465424 0.510298
O O4 0.364305 0.730763 0.565987
O O5 0.899105 0.141720 0.782872
O O6 0.824883 0.387813 0.809164
O O7 0.763125 0.114679 0.801881
O O8 0.982406 0.500000 0.750000
O O9 0.040365 0.456546 0.616253
O O10 0.000000 0.750000 0.650932
O O11 0.500000 0.250000 0.477950
#
# Coordination Sequence:
#
# PCOD9532300 Si02
#       5
#    16  16  16  16   8
#     4  11  26  44  74 109 145 191 249 298 357 439
#     4  10  24  42  70 102 140 184 233 290 370 423
#     4  11  25  47  72 106 137 188 245 296 359 433
#     4  11  26  48  71 104 150 196 239 299 370 435
#     4  10  22  44  70 100 148 176 230 300 366 426
#
# _framework density 25.879026
#
# number of rings (size 3 to 8) (size 9 to 14) (size 15 to 20)
#    0.000    1.333    1.111    2.000   10.889    7.111 
#    0.000    0.000    0.000    0.000    0.000    0.000 
#    0.000    0.000    0.000    0.000    0.000    0.000 
#
# Total GULP energy -201084.719271 kJ/mol
# GULP energy per Si atom -5585.686646 kJ/mol
# Density = 2.582012 g / cm^3
# Si number density = 25.879026 Si / 1000 Ang^3
#
#
#
# Elastic Constant Matrix: (Units=GPa)
#
#
# Indices 1 2 3 4 5 6 
#
# 1 125.9523 72.0193 22.1964 0.0000 0.0000 0.0000
# 2 72.0193 213.6629 59.5975 0.0000 0.0000 0.0000
# 3 22.1964 59.5975 78.9022 0.0000 0.0000 0.0000
# 4 0.0000 0.0000 0.0000 20.2477 0.0000 0.0000
# 5 0.0000 0.0000 0.0000 0.0000 14.4878 0.0000
# 6 0.0000 0.0000 0.0000 0.0000 0.0000 49.4501
#
#
#
# Elastic Compliance Matrix: (Units=1/GPa)
#
#
# Indices 1 2 3 4 5 6 
#
# 1 0.009842 -0.003225 -0.000333 0.000000 0.000000 0.000000
# 2 -0.003225 0.006986 -0.004370 0.000000 0.000000 0.000000
# 3 -0.000333 -0.004370 0.016068 0.000000 0.000000 0.000000
# 4 0.000000 0.000000 0.000000 0.049388 0.000000 0.000000
# 5 0.000000 0.000000 0.000000 0.000000 0.069024 0.000000
# 6 0.000000 0.000000 0.000000 0.000000 0.000000 0.020222
#
#
# Mechanical properties :
#
#
# Convention : Reuss Voigt Hill
#
# Bulk Modulus (GPa) = 58.67995 80.68265 69.68130
# Shear Modulus (GPa) = 25.89789 34.48404 30.19096
#
# Velocity S-wave (km/s) = 3.16686 3.65432 3.41929
# Velocity P-wave (km/s) = 6.00799 7.00356 6.52479
#
# Compressibility (1/GPa) = 0.01704160
#
# Stress axis : x y z
#
# Youngs Moduli (GPa) = 101.60539 143.14338 62.23479
#
# Poissons Ratio (x) = 0.46157 0.02073
# Poissons Ratio (y) = 0.32763 0.27194
# Poissons Ratio (z) = 0.03385 0.62549
#
# Static dielectric constant tensor:
#      x y z
#    x 2.100700 0.000000 0.000000 
#    y 0.000000 2.115060 0.000000 
#    z 0.000000 0.000000 2.089480 
# 
# From -- ./inp_files/20598.got.cif
#   From: 2010.05.17/outbox.cif.g08.bks.cpg/sg73_11_cif.got.tgz:20598.got - 2010.06.03 17:35:07.
