data_PCOD9532490
_publ_section_title
;
Structure prediction by ZEFSAII (Michael W. Deem and Ramdas Pophale) SiO2 
 PCOD9532490
Probable space group: I B C A 
;
_chemical_formula_sum "Si O2"
_cell_formula_units_Z 88
_cell_length_a 5.397884
_cell_length_b 25.807365
_cell_length_c 27.934068
_cell_angle_alpha 90.000000
_cell_angle_beta 90.000000
_cell_angle_gamma 90.000000
_cell_volume 3891.359885
_symmetry_space_group_name_H-M "I B C A "
_symmetry_group_IT_number 73
_symmetry_cell_setting 'orthorhombic'
loop_
_space_group_symop_operation_xyz
x,y,z
-x,1/2-y,z
x,-y,1/2-z
1/2-x,y,-z
-x,-y,-z
x,1/2+y,-z
-x,y,1/2+z
1/2+x,-y,z
1/2+x,1/2+y,1/2+z
1/2-x,-y,1/2+z
1/2+x,1/2-y,-z
-x,1/2+y,1/2-z
1/2-x,1/2-y,1/2-z
1/2+x,y,1/2-z
1/2-x,1/2+y,z
x,1/2-y,1/2+z
loop_
_atom_site_type_symbol
_atom_site_label
_atom_site_fract_x
_atom_site_fract_y
_atom_site_fract_z
Si Si1 0.946969 0.974473 0.427364
Si Si2 0.000932 0.862321 0.968782
Si Si3 0.775099 0.620420 0.281315
Si Si4 0.750016 0.728090 0.325088
Si Si5 0.000000 0.750000 0.418068
Si Si6 0.388818 0.514146 0.818557
O O1 0.987526 0.912982 0.434192
O O2 0.683230 0.994139 0.447468
O O3 0.933143 0.992465 0.371715
O O4 0.005096 0.804342 0.946047
O O5 0.750000 0.866728 0.000000
O O6 0.250000 0.866272 0.000000
O O7 0.540644 0.623117 0.245061
O O8 0.755227 0.667507 0.318086
O O9 0.739281 0.569247 0.312546
O O10 0.500000 0.750000 0.304345
O O11 0.774768 0.746010 0.380192
O O12 0.000000 0.750000 0.302086
O O13 0.665940 0.520755 0.797186
#
# Coordination Sequence:
#
# PCOD9532490 Si02
#       6
#    16  16  16  16   8  16
#     4  10  23  42  70 100 139 182 228 277 340 422
#     4  12  27  45  73 105 141 179 228 295 353 405
#     4  12  26  43  68 102 141 178 230 293 346 398
#     4  10  25  43  71  99 132 183 237 274 349 410
#     4  10  28  46  76  98 144 180 240 274 354 422
#     4  10  23  41  67  96 133 183 225 272 342 407
#
# _framework density 22.6142
#
# number of rings (size 3 to 8) (size 9 to 14) (size 15 to 20)
#    0.545    0.727    0.000    3.818    7.636    9.455 
#    0.000    0.000    0.000    0.000    0.000    0.000 
#    0.000    0.000    0.000    0.000    0.000    0.000 
#
# Total GULP energy -245455.902118 kJ/mol
# GULP energy per Si atom -5578.543230 kJ/mol
# Density = 2.256273 g / cm^3
# Si number density = 22.614200 Si / 1000 Ang^3
#
#
#
# Elastic Constant Matrix: (Units=GPa)
#
#
# Indices 1 2 3 4 5 6 
#
# 1 207.8850 18.0660 23.4218 0.0000 0.0000 0.0000
# 2 18.0660 138.1392 20.5540 0.0000 0.0000 0.0000
# 3 23.4218 20.5540 84.5384 0.0000 0.0000 0.0000
# 4 0.0000 0.0000 0.0000 63.1507 0.0000 0.0000
# 5 0.0000 0.0000 0.0000 0.0000 51.9707 0.0000
# 6 0.0000 0.0000 0.0000 0.0000 0.0000 27.7508
#
#
#
# Elastic Compliance Matrix: (Units=1/GPa)
#
#
# Indices 1 2 3 4 5 6 
#
# 1 0.004994 -0.000464 -0.001271 0.000000 0.000000 0.000000
# 2 -0.000464 0.007554 -0.001708 0.000000 0.000000 0.000000
# 3 -0.001271 -0.001708 0.012596 0.000000 0.000000 0.000000
# 4 0.000000 0.000000 0.000000 0.015835 0.000000 0.000000
# 5 0.000000 0.000000 0.000000 0.000000 0.019242 0.000000
# 6 0.000000 0.000000 0.000000 0.000000 0.000000 0.036035
#
#
# Mechanical properties :
#
#
# Convention : Reuss Voigt Hill
#
# Bulk Modulus (GPa) = 54.76926 61.62736 58.19831
# Shear Modulus (GPa) = 45.77603 53.14252 49.45927
#
# Velocity S-wave (km/s) = 4.50401 4.85290 4.68171
# Velocity P-wave (km/s) = 7.16378 7.66235 7.41725
#
# Compressibility (1/GPa) = 0.01825842
#
# Stress axis : x y z
#
# Youngs Moduli (GPa) = 200.24634 132.38197 79.38843
#
# Poissons Ratio (x) = 0.06143 0.10088
# Poissons Ratio (y) = 0.09292 0.13560
# Poissons Ratio (z) = 0.25446 0.22611
#
# Static dielectric constant tensor:
#      x y z
#    x 1.969380 0.000000 0.000000 
#    y 0.000000 1.859080 0.000000 
#    z 0.000000 0.000000 2.079520 
# 
# From -- ./inp_files/33255.got.cif
#   From: 2010.05.17/outbox.cif.g08.bks.cpg/sg73_17_cif.got.tgz:33255.got - 2010.06.03 17:35:07.
