data_PCOD9532781
_publ_section_title
;
Structure prediction by ZEFSAII (Michael W. Deem and Ramdas Pophale) SiO2 
 PCOD9532781
Probable space group: I B C A 
;
_chemical_formula_sum "Si O2"
_cell_formula_units_Z 80
_cell_length_a 10.163117
_cell_length_b 11.523936
_cell_length_c 29.843305
_cell_angle_alpha 90.000000
_cell_angle_beta 90.000000
_cell_angle_gamma 90.000000
_cell_volume 3495.221317
_symmetry_space_group_name_H-M "I B C A "
_symmetry_group_IT_number 73
_symmetry_cell_setting 'orthorhombic'
loop_
_space_group_symop_operation_xyz
x,y,z
-x,1/2-y,z
x,-y,1/2-z
1/2-x,y,-z
-x,-y,-z
x,1/2+y,-z
-x,y,1/2+z
1/2+x,-y,z
1/2+x,1/2+y,1/2+z
1/2-x,-y,1/2+z
1/2+x,1/2-y,-z
-x,1/2+y,1/2-z
1/2-x,1/2-y,1/2-z
1/2+x,y,1/2-z
1/2-x,1/2+y,z
x,1/2-y,1/2+z
loop_
_atom_site_type_symbol
_atom_site_label
_atom_site_fract_x
_atom_site_fract_y
_atom_site_fract_z
Si Si1 0.000000 0.250000 0.018659
Si Si2 0.526366 0.076520 0.060068
Si Si3 0.245596 0.851547 0.821541
Si Si4 0.000000 0.250000 0.359021
Si Si5 0.000000 0.750000 0.770816
Si Si6 0.823318 0.380928 0.575243
Si Si7 0.622215 0.000000 0.250000
O O1 0.129332 0.265058 0.049827
O O2 0.979144 0.353504 0.983097
O O3 0.492001 0.143712 0.106306
O O4 0.684270 0.073259 0.057208
O O5 0.447033 0.960026 0.064215
O O6 0.373360 0.770334 0.828741
O O7 0.133674 0.780467 0.796765
O O8 0.194865 0.874919 0.871640
O O9 0.288203 0.965962 0.793382
O O10 0.036644 0.618537 0.753284
#
# Coordination Sequence:
#
# PCOD9532781 Si02
#       7
#     8  16  16   8   8  16   8
#     4  11  23  44  65 105 146 190 247 301 386 466
#     4  10  24  42  71 105 146 194 247 314 387 457
#     4  11  26  46  77 111 153 205 264 322 409 467
#     4   9  23  46  69 103 154 194 249 325 380 476
#     4  12  28  48  82 116 154 218 262 342 408 494
#     4  11  25  43  72 107 146 198 251 323 381 478
#     4  12  28  50  78 120 162 204 276 342 412 494
#
# _framework density 22.888394000000002
#
# number of rings (size 3 to 8) (size 9 to 14) (size 15 to 20)
#    0.000    1.200    0.000    3.600    8.400    6.400 
#    0.000    0.000    0.000    0.000    0.000    0.000 
#    0.000    0.000    0.000    0.000    0.000    0.000 
#
# Total GULP energy -223295.105452 kJ/mol
# GULP energy per Si atom -5582.377636 kJ/mol
# Density = 2.283630 g / cm^3
# Si number density = 22.888394 Si / 1000 Ang^3
#
#
#
# Elastic Constant Matrix: (Units=GPa)
#
#
# Indices 1 2 3 4 5 6 
#
# 1 151.4011 72.7767 80.6179 0.0000 0.0000 0.0000
# 2 72.7767 93.7884 39.6753 0.0000 0.0000 0.0000
# 3 80.6179 39.6753 95.2204 0.0000 0.0000 0.0000
# 4 0.0000 0.0000 0.0000 19.9286 0.0000 0.0000
# 5 0.0000 0.0000 0.0000 0.0000 31.5035 0.0000
# 6 0.0000 0.0000 0.0000 0.0000 0.0000 46.8802
#
#
#
# Elastic Compliance Matrix: (Units=1/GPa)
#
#
# Indices 1 2 3 4 5 6 
#
# 1 0.015805 -0.008017 -0.010041 0.000000 0.000000 0.000000
# 2 -0.008017 0.017010 -0.000300 0.000000 0.000000 0.000000
# 3 -0.010041 -0.000300 0.019128 0.000000 0.000000 0.000000
# 4 0.000000 0.000000 0.000000 0.050179 0.000000 0.000000
# 5 0.000000 0.000000 0.000000 0.000000 0.031742 0.000000
# 6 0.000000 0.000000 0.000000 0.000000 0.000000 0.021331
#
#
# Mechanical properties :
#
#
# Convention : Reuss Voigt Hill
#
# Bulk Modulus (GPa) = 65.67086 80.72773 73.19929
# Shear Modulus (GPa) = 25.38234 29.48515 27.43374
#
# Velocity S-wave (km/s) = 3.33372 3.59306 3.46582
# Velocity P-wave (km/s) = 6.60093 7.24984 6.93298
#
# Compressibility (1/GPa) = 0.01522745
#
# Stress axis : x y z
#
# Youngs Moduli (GPa) = 63.27081 58.78926 52.27861
#
# Poissons Ratio (x) = 0.47129 0.52493
# Poissons Ratio (y) = 0.50721 0.01570
# Poissons Ratio (z) = 0.63531 0.01765
#
# Static dielectric constant tensor:
#      x y z
#    x 1.867110 0.000000 0.000000 
#    y 0.000000 5.777910 0.000000 
#    z 0.000000 0.000000 1.921130 
# 
# From -- ./inp_files/33853.got.cif
#   From: 2010.05.17/outbox.cif.g08.bks.cpg/sg73_17_cif.got.tgz:33853.got - 2010.06.03 17:35:07.
