data_PCOD9532054
_publ_section_title
;
Structure prediction by ZEFSAII (Michael W. Deem and Ramdas Pophale) SiO2 
 PCOD9532054
Probable space group: I B C A 
;
_chemical_formula_sum "Si O2"
_cell_formula_units_Z 72
_cell_length_a 14.875040
_cell_length_b 22.162944
_cell_length_c 10.199331
_cell_angle_alpha 90.000000
_cell_angle_beta 90.000000
_cell_angle_gamma 90.000000
_cell_volume 3362.461169
_symmetry_space_group_name_H-M "I B C A "
_symmetry_group_IT_number 73
_symmetry_cell_setting 'orthorhombic'
loop_
_space_group_symop_operation_xyz
x,y,z
-x,1/2-y,z
x,-y,1/2-z
1/2-x,y,-z
-x,-y,-z
x,1/2+y,-z
-x,y,1/2+z
1/2+x,-y,z
1/2+x,1/2+y,1/2+z
1/2-x,-y,1/2+z
1/2+x,1/2-y,-z
-x,1/2+y,1/2-z
1/2-x,1/2-y,1/2-z
1/2+x,y,1/2-z
1/2-x,1/2+y,z
x,1/2-y,1/2+z
loop_
_atom_site_type_symbol
_atom_site_label
_atom_site_fract_x
_atom_site_fract_y
_atom_site_fract_z
Si Si1 0.153512 0.734718 0.183719
Si Si2 0.065789 0.373384 0.176323
Si Si3 0.083802 0.633768 0.619193
Si Si4 0.750000 0.647612 0.500000
Si Si5 0.255763 0.929128 0.758745
O O1 0.250000 0.750000 0.250000
O O2 0.097322 0.694209 0.284299
O O3 0.105057 0.795898 0.143897
O O4 0.173987 0.692113 0.058353
O O5 0.152865 0.413953 0.206926
O O6 0.983588 0.389233 0.269780
O O7 0.043800 0.375871 0.023972
O O8 0.178148 0.599639 0.634534
O O9 0.723106 0.605681 0.622157
O O10 0.269746 0.000000 0.750000
#
# Coordination Sequence:
#
# PCOD9532054 Si02
#       5
#    16  16  16   8  16
#     4  11  21  41  72 102 145 182 231 291 367 435
#     4  11  27  44  69 106 141 185 235 292 354 430
#     4  12  26  45  72 104 144 185 235 291 363 422
#     4  10  22  40  74 104 138 178 244 290 364 422
#     4  11  27  48  74  99 142 195 243 295 354 424
#
# _framework density 21.412886
#
# number of rings (size 3 to 8) (size 9 to 14) (size 15 to 20)
#    0.000    0.889    4.444    2.667    9.333    2.667 
#    0.000    2.222    0.000    0.000    0.000    0.000 
#    0.000    0.000    0.000    0.000    0.000    0.000 
#
# Total GULP energy -201516.999296 kJ/mol
# GULP energy per Si atom -5597.694425 kJ/mol
# Density = 2.136415 g / cm^3
# Si number density = 21.412886 Si / 1000 Ang^3
#
#
#
# Elastic Constant Matrix: (Units=GPa)
#
#
# Indices 1 2 3 4 5 6 
#
# 1 80.8890 5.9235 32.4680 0.0000 0.0000 0.0000
# 2 5.9235 111.5555 17.2062 0.0000 0.0000 0.0000
# 3 32.4680 17.2062 145.4055 0.0000 0.0000 0.0000
# 4 0.0000 0.0000 0.0000 13.8889 0.0000 0.0000
# 5 0.0000 0.0000 0.0000 0.0000 31.3449 0.0000
# 6 0.0000 0.0000 0.0000 0.0000 0.0000 -3.5671
#
#
#
# Elastic Compliance Matrix: (Units=1/GPa)
#
#
# Indices 1 2 3 4 5 6 
#
# 1 0.013587 -0.000258 -0.003003 0.000000 0.000000 0.000000
# 2 -0.000258 0.009136 -0.001023 0.000000 0.000000 0.000000
# 3 -0.003003 -0.001023 0.007669 0.000000 0.000000 0.000000
# 4 0.000000 0.000000 0.000000 0.072000 0.000000 0.000000
# 5 0.000000 0.000000 0.000000 0.000000 0.031903 0.000000
# 6 0.000000 0.000000 0.000000 0.000000 0.000000 -0.280337
#
#
# Mechanical properties :
#
#
# Convention : Reuss Voigt Hill
#
# Bulk Modulus (GPa) = 45.82559 49.89396 47.85977
# Shear Modulus (GPa) = -38.40311 27.15015 -5.62648
#
# Velocity S-wave (km/s) = -4.23952 3.56467 -1.62275
# Velocity P-wave (km/s) = 1.58660 6.34775 4.34607
#
# Compressibility (1/GPa) = 0.02182187
#
# Stress axis : x y z
#
# Youngs Moduli (GPa) = 73.59959 109.46061 130.39440
#
# Poissons Ratio (x) = 0.02827 0.39162
# Poissons Ratio (y) = 0.01901 0.13344
# Poissons Ratio (z) = 0.22104 0.11202
#
# Static dielectric constant tensor:
#      x y z
#    x 1.785800 0.000000 0.000000 
#    y 0.000000 1.734740 0.000000 
#    z 0.000000 0.000000 1.796120 
# 
# From -- ./inp_files/10722.got.cif
#   From: 2010.05.17/outbox.cif.g08.bks.cpg/sg73_6_cif.got.tgz:10722.got - 2010.06.03 17:35:07.
