data_PCOD9532530
_publ_section_title
;
Structure prediction by ZEFSAII (Michael W. Deem and Ramdas Pophale) SiO2 
 PCOD9532530
Probable space group: I B C A 
;
_chemical_formula_sum "Si O2"
_cell_formula_units_Z 88
_cell_length_a 24.942100
_cell_length_b 12.613651
_cell_length_c 13.198425
_cell_angle_alpha 90.000000
_cell_angle_beta 90.000000
_cell_angle_gamma 90.000000
_cell_volume 4152.368957
_symmetry_space_group_name_H-M "I B C A "
_symmetry_group_IT_number 73
_symmetry_cell_setting 'orthorhombic'
loop_
_space_group_symop_operation_xyz
x,y,z
-x,1/2-y,z
x,-y,1/2-z
1/2-x,y,-z
-x,-y,-z
x,1/2+y,-z
-x,y,1/2+z
1/2+x,-y,z
1/2+x,1/2+y,1/2+z
1/2-x,-y,1/2+z
1/2+x,1/2-y,-z
-x,1/2+y,1/2-z
1/2-x,1/2-y,1/2-z
1/2+x,y,1/2-z
1/2-x,1/2+y,z
x,1/2-y,1/2+z
loop_
_atom_site_type_symbol
_atom_site_label
_atom_site_fract_x
_atom_site_fract_y
_atom_site_fract_z
Si Si1 0.327274 0.434293 0.889149
Si Si2 0.805734 0.664068 0.670988
Si Si3 0.534253 0.500000 0.750000
Si Si4 0.084455 0.277883 0.787822
Si Si5 0.949993 0.624994 0.883863
Si Si6 0.500000 0.750000 0.941100
Si Si7 0.750000 0.210015 0.000000
O O1 0.301677 0.386202 0.784537
O O2 0.316696 0.558751 0.894368
O O3 0.391364 0.425518 0.888436
O O4 0.300696 0.365365 0.977356
O O5 0.855173 0.745117 0.687433
O O6 0.761423 0.722805 0.602382
O O7 0.570334 0.597803 0.790063
O O8 0.493649 0.448441 0.830597
O O9 0.063627 0.231188 0.681164
O O10 0.047729 0.214980 0.868170
O O11 0.974691 0.660447 0.989334
#
# Coordination Sequence:
#
# PCOD9532530 Si02
#       7
#    16  16   8  16  16   8   8
#     4  10  23  42  69  89 127 175 209 260 341 384
#     4  10  23  45  65  92 129 169 210 269 326 389
#     4  12  20  42  64  92 134 176 214 256 308 384
#     4  11  23  41  61  94 133 169 215 261 312 387
#     4  11  22  41  59  92 131 172 212 256 319 389
#     4  12  20  38  58  88 128 174 204 258 312 358
#     4  12  22  44  68 102 120 156 228 282 320 380
#
# _framework density 21.192722
#
# number of rings (size 3 to 8) (size 9 to 14) (size 15 to 20)
#    0.000    1.091    3.636    4.364    0.000    0.727 
#    3.273    5.455    0.000    0.000    0.000    0.000 
#    0.000    0.000    0.000    0.000    0.000    0.000 
#
# Total GULP energy -245469.463375 kJ/mol
# GULP energy per Si atom -5578.851440 kJ/mol
# Density = 2.114449 g / cm^3
# Si number density = 21.192722 Si / 1000 Ang^3
#
#
#
# Elastic Constant Matrix: (Units=GPa)
#
#
# Indices 1 2 3 4 5 6 
#
# 1 62.8509 53.5489 5.8321 0.0000 0.0000 0.0000
# 2 53.5489 136.8706 12.6535 0.0000 0.0000 0.0000
# 3 5.8321 12.6535 42.7796 0.0000 0.0000 0.0000
# 4 0.0000 0.0000 0.0000 -8.2000 0.0000 0.0000
# 5 0.0000 0.0000 0.0000 0.0000 11.8719 0.0000
# 6 0.0000 0.0000 0.0000 0.0000 0.0000 32.8475
#
#
#
# Elastic Compliance Matrix: (Units=1/GPa)
#
#
# Indices 1 2 3 4 5 6 
#
# 1 0.023877 -0.009295 -0.000506 0.000000 0.000000 0.000000
# 2 -0.009295 0.011130 -0.002025 0.000000 0.000000 0.000000
# 3 -0.000506 -0.002025 0.024044 0.000000 0.000000 0.000000
# 4 0.000000 0.000000 0.000000 -0.121951 0.000000 0.000000
# 5 0.000000 0.000000 0.000000 0.000000 0.084232 0.000000
# 6 0.000000 0.000000 0.000000 0.000000 0.000000 0.030444
#
#
# Mechanical properties :
#
#
# Convention : Reuss Voigt Hill
#
# Bulk Modulus (GPa) = 28.24928 42.95221 35.60075
# Shear Modulus (GPa) = 57.32229 18.66832 37.99530
#
# Velocity S-wave (km/s) = 5.20642 2.97119 4.23880
# Velocity P-wave (km/s) = 7.03570 5.66410 6.38683
#
# Compressibility (1/GPa) = 0.03539913
#
# Stress axis : x y z
#
# Youngs Moduli (GPa) = 41.88194 89.84897 41.59128
#
# Poissons Ratio (x) = 0.83512 0.02104
# Poissons Ratio (y) = 0.38928 0.08422
# Poissons Ratio (z) = 0.02119 0.18193
#
# Static dielectric constant tensor:
#      x y z
#    x 1.749630 0.000000 0.000000 
#    y 0.000000 -0.115250 0.000000 
#    z 0.000000 0.000000 1.819190 
# 
# From -- ./inp_files/13568.got.cif
#   From: 2010.05.17/outbox.cif.g08.bks.cpg/sg73_7_cif.got.tgz:13568.got - 2010.06.03 17:35:07.
