data_PCOD9532250
_publ_section_title
;
Structure prediction by ZEFSAII (Michael W. Deem and Ramdas Pophale) SiO2 
 PCOD9532250
Probable space group: I B C A 
;
_chemical_formula_sum "Si O2"
_cell_formula_units_Z 80
_cell_length_a 13.518159
_cell_length_b 19.981823
_cell_length_c 12.971563
_cell_angle_alpha 90.000000
_cell_angle_beta 90.000000
_cell_angle_gamma 90.000000
_cell_volume 3503.845655
_symmetry_space_group_name_H-M "I B C A "
_symmetry_group_IT_number 73
_symmetry_cell_setting 'orthorhombic'
loop_
_space_group_symop_operation_xyz
x,y,z
-x,1/2-y,z
x,-y,1/2-z
1/2-x,y,-z
-x,-y,-z
x,1/2+y,-z
-x,y,1/2+z
1/2+x,-y,z
1/2+x,1/2+y,1/2+z
1/2-x,-y,1/2+z
1/2+x,1/2-y,-z
-x,1/2+y,1/2-z
1/2-x,1/2-y,1/2-z
1/2+x,y,1/2-z
1/2-x,1/2+y,z
x,1/2-y,1/2+z
loop_
_atom_site_type_symbol
_atom_site_label
_atom_site_fract_x
_atom_site_fract_y
_atom_site_fract_z
Si Si1 0.589507 0.547366 0.528389
Si Si2 0.303675 0.155048 0.665367
Si Si3 0.770345 0.695121 0.618745
Si Si4 0.740060 0.008884 0.862594
Si Si5 0.015427 0.324526 0.435565
O O1 0.500000 0.500000 0.500000
O O2 0.650720 0.523741 0.627486
O O3 0.668508 0.530438 0.438675
O O4 0.545300 0.621301 0.520967
O O5 0.255897 0.224740 0.626311
O O6 0.289904 0.160276 0.789462
O O7 0.252410 0.088345 0.621645
O O8 0.417154 0.155236 0.626417
O O9 0.750000 0.674874 0.500000
O O10 0.887111 0.681255 0.636253
O O11 0.698472 0.000000 0.750000
O O12 0.000000 0.250000 0.479340
#
# Coordination Sequence:
#
# PCOD9532250 Si02
#       5
#    16  16  16  16  16
#     4  11  24  44  71 102 137 184 238 292 355 442
#     4  10  22  45  66 102 140 188 233 306 367 431
#     4  10  23  41  73  99 142 186 246 298 362 437
#     4  11  25  42  70  99 145 185 237 292 369 434
#     4  10  22  43  69 103 141 179 241 295 363 440
#
# _framework density 22.832056000000001
#
# number of rings (size 3 to 8) (size 9 to 14) (size 15 to 20)
#    0.000    1.600    2.000    1.200    8.400    0.800 
#    3.600   15.000    0.000    0.000    0.000    0.000 
#    0.000    0.000    0.000    0.000    0.000    0.000 
#
# Total GULP energy -223449.088171 kJ/mol
# GULP energy per Si atom -5586.227204 kJ/mol
# Density = 2.278009 g / cm^3
# Si number density = 22.832056 Si / 1000 Ang^3
#
#
#
# Elastic Constant Matrix: (Units=GPa)
#
#
# Indices 1 2 3 4 5 6 
#
# 1 78.0059 21.7727 9.1236 0.0000 0.0000 0.0000
# 2 21.7727 170.6070 11.8688 0.0002 0.0000 0.0000
# 3 9.1236 11.8688 107.2211 0.0004 0.0000 0.0000
# 4 0.0000 0.0002 0.0004 31.2412 0.0000 0.0000
# 5 0.0000 0.0000 0.0000 0.0000 25.3295 0.0000
# 6 0.0000 0.0000 0.0000 0.0000 0.0000 32.9743
#
#
#
# Elastic Compliance Matrix: (Units=1/GPa)
#
#
# Indices 1 2 3 4 5 6 
#
# 1 0.013390 -0.001642 -0.000958 0.000000 0.000000 0.000000
# 2 -0.001642 0.006108 -0.000536 0.000000 0.000000 0.000000
# 3 -0.000958 -0.000536 0.009467 0.000000 0.000000 0.000000
# 4 0.000000 0.000000 0.000000 0.032009 0.000000 0.000000
# 5 0.000000 0.000000 0.000000 0.000000 0.039480 0.000000
# 6 0.000000 0.000000 0.000000 0.000000 0.000000 0.030327
#
#
# Mechanical properties :
#
#
# Convention : Reuss Voigt Hill
#
# Bulk Modulus (GPa) = 44.06605 49.04047 46.55326
# Shear Modulus (GPa) = 34.57388 38.78025 36.67707
#
# Velocity S-wave (km/s) = 3.89558 4.12576 4.01232
# Velocity P-wave (km/s) = 6.29095 6.64991 6.47292
#
# Compressibility (1/GPa) = 0.02269321
#
# Stress axis : x y z
#
# Youngs Moduli (GPa) = 74.68312 163.71121 105.62585
#
# Poissons Ratio (x) = 0.26885 0.10115
# Poissons Ratio (y) = 0.12264 0.05666
# Poissons Ratio (z) = 0.07152 0.08782
#
# Static dielectric constant tensor:
#      x y z
#    x 1.854160 0.000000 0.000000 
#    y 0.000000 1.909500 0.000000 
#    z 0.000000 0.000000 1.864250 
# 
# From -- ./inp_files/16868.got.cif
#   From: 2010.05.17/outbox.cif.g08.bks.cpg/sg73_9_cif.got.tgz:16868.got - 2010.06.03 17:35:07.
