data_PCOD9532633
_publ_section_title
;
Structure prediction by ZEFSAII (Michael W. Deem and Ramdas Pophale) SiO2 
 PCOD9532633
Probable space group: I B C A 
;
_chemical_formula_sum "Si O2"
_cell_formula_units_Z 88
_cell_length_a 24.210089
_cell_length_b 5.699470
_cell_length_c 28.564644
_cell_angle_alpha 90.000000
_cell_angle_beta 90.000000
_cell_angle_gamma 90.000000
_cell_volume 3941.483146
_symmetry_space_group_name_H-M "I B C A "
_symmetry_group_IT_number 73
_symmetry_cell_setting 'orthorhombic'
loop_
_space_group_symop_operation_xyz
x,y,z
-x,1/2-y,z
x,-y,1/2-z
1/2-x,y,-z
-x,-y,-z
x,1/2+y,-z
-x,y,1/2+z
1/2+x,-y,z
1/2+x,1/2+y,1/2+z
1/2-x,-y,1/2+z
1/2+x,1/2-y,-z
-x,1/2+y,1/2-z
1/2-x,1/2-y,1/2-z
1/2+x,y,1/2-z
1/2-x,1/2+y,z
x,1/2-y,1/2+z
loop_
_atom_site_type_symbol
_atom_site_label
_atom_site_fract_x
_atom_site_fract_y
_atom_site_fract_z
Si Si1 0.623280 0.359184 0.890013
Si Si2 0.277140 0.829920 0.154915
Si Si3 0.000000 0.250000 0.622984
Si Si4 0.000000 0.250000 0.320947
Si Si5 0.882319 0.662287 0.205212
Si Si6 0.799027 0.500000 0.750000
Si Si7 0.273486 0.550717 0.053304
O O1 0.661349 0.155833 0.867251
O O2 0.560658 0.279830 0.901324
O O3 0.621529 0.542898 0.846212
O O4 0.660893 0.445080 0.934036
O O5 0.257655 0.563000 0.144071
O O6 0.273740 0.824911 0.211696
O O7 0.996614 0.500842 0.650675
O O8 0.055116 0.246619 0.290967
O O9 0.872512 0.500000 0.250000
O O10 0.838736 0.862637 0.213764
O O11 0.249696 0.302246 0.070394
O O12 0.250000 0.551654 0.000000
#
# Coordination Sequence:
#
# PCOD9532633 Si02
#       7
#    16  16   8   8  16   8  16
#     4  11  23  45  67  98 137 179 236 284 358 412
#     4  12  25  39  60  84 123 174 226 282 335 398
#     4  10  24  43  64  98 131 180 224 298 341 411
#     4  10  24  39  60  86 127 186 254 280 333 381
#     4  11  24  39  59  88 135 187 240 293 332 401
#     4  12  24  40  54  86 130 182 238 296 348 396
#     4  10  23  45  76 108 136 172 224 288 349 428
#
# _framework density 22.326619000000001
#
# number of rings (size 3 to 8) (size 9 to 14) (size 15 to 20)
#    0.000    1.091    1.818    3.818    3.818    6.545 
#    0.000    0.000    0.000    4.364    0.000    0.000 
#    0.000    0.000    0.000    0.000    0.000    0.000 
#
# Total GULP energy -245018.514973 kJ/mol
# GULP energy per Si atom -5568.602613 kJ/mol
# Density = 2.227580 g / cm^3
# Si number density = 22.326619 Si / 1000 Ang^3
#
#
#
# Elastic Constant Matrix: (Units=GPa)
#
#
# Indices 1 2 3 4 5 6 
#
# 1 169.1572 32.2828 35.2482 0.0000 0.0000 0.0000
# 2 32.2828 102.9270 29.5147 0.0000 0.0000 0.0000
# 3 35.2482 29.5147 74.8957 0.0000 0.0000 0.0000
# 4 0.0000 0.0000 0.0000 29.0132 0.0000 0.0000
# 5 0.0000 0.0000 0.0000 0.0000 29.0248 0.0000
# 6 0.0000 0.0000 0.0000 0.0000 0.0000 23.0161
#
#
#
# Elastic Compliance Matrix: (Units=1/GPa)
#
#
# Indices 1 2 3 4 5 6 
#
# 1 0.006718 -0.001353 -0.002628 0.000000 0.000000 0.000000
# 2 -0.001353 0.011226 -0.003787 0.000000 0.000000 0.000000
# 3 -0.002628 -0.003787 0.016081 0.000000 0.000000 0.000000
# 4 0.000000 0.000000 0.000000 0.034467 0.000000 0.000000
# 5 0.000000 0.000000 0.000000 0.000000 0.034453 0.000000
# 6 0.000000 0.000000 0.000000 0.000000 0.000000 0.043448
#
#
# Mechanical properties :
#
#
# Convention : Reuss Voigt Hill
#
# Bulk Modulus (GPa) = 54.08980 60.11901 57.10441
# Shear Modulus (GPa) = 29.74550 32.87310 31.30930
#
# Velocity S-wave (km/s) = 3.65401 3.84131 3.74883
# Velocity P-wave (km/s) = 6.48703 6.83080 6.66113
#
# Compressibility (1/GPa) = 0.01848777
#
# Stress axis : x y z
#
# Youngs Moduli (GPa) = 148.86313 89.07872 62.18447
#
# Poissons Ratio (x) = 0.12055 0.16343
# Poissons Ratio (y) = 0.20146 0.23549
# Poissons Ratio (z) = 0.39124 0.33734
#
# Static dielectric constant tensor:
#      x y z
#    x 1.878950 0.000000 0.000000 
#    y 0.000000 1.942160 0.000000 
#    z 0.000000 0.000000 2.559810 
# 
# From -- ./inp_files/2306.got.cif
#   From: 2010.05.17/outbox.cif.g08.bks.cpg/sg73_2_cif.got.tgz:2306.got - 2010.06.03 17:35:07.
