data_PCOD9532187
_publ_section_title
;
Structure prediction by ZEFSAII (Michael W. Deem and Ramdas Pophale) SiO2 
 PCOD9532187
Probable space group: I B C A 
;
_chemical_formula_sum "Si O2"
_cell_formula_units_Z 72
_cell_length_a 10.516140
_cell_length_b 16.248597
_cell_length_c 18.425505
_cell_angle_alpha 90.000000
_cell_angle_beta 90.000000
_cell_angle_gamma 90.000000
_cell_volume 3148.412487
_symmetry_space_group_name_H-M "I B C A "
_symmetry_group_IT_number 73
_symmetry_cell_setting 'orthorhombic'
loop_
_space_group_symop_operation_xyz
x,y,z
-x,1/2-y,z
x,-y,1/2-z
1/2-x,y,-z
-x,-y,-z
x,1/2+y,-z
-x,y,1/2+z
1/2+x,-y,z
1/2+x,1/2+y,1/2+z
1/2-x,-y,1/2+z
1/2+x,1/2-y,-z
-x,1/2+y,1/2-z
1/2-x,1/2-y,1/2-z
1/2+x,y,1/2-z
1/2-x,1/2+y,z
x,1/2-y,1/2+z
loop_
_atom_site_type_symbol
_atom_site_label
_atom_site_fract_x
_atom_site_fract_y
_atom_site_fract_z
Si Si1 0.360128 0.059455 0.894338
Si Si2 0.750000 0.556194 0.000000
Si Si3 0.750451 0.152027 0.737869
Si Si4 0.994660 0.589551 0.176432
Si Si5 0.004626 0.654922 0.019831
O O1 0.309029 0.126144 0.839213
O O2 0.254561 0.997563 0.926566
O O3 0.465645 0.002647 0.853702
O O4 0.405408 0.104677 0.966633
O O5 0.629173 0.613057 0.995556
O O6 0.750000 0.250000 0.750000
O O7 0.855941 0.116141 0.793267
O O8 0.609167 0.110088 0.733167
O O9 0.030048 0.641972 0.104896
O O10 0.000000 0.750000 0.001654
#
# Coordination Sequence:
#
# PCOD9532187 Si02
#       5
#    16   8  16  16  16
#     4  11  24  44  72 100 139 184 232 282 346 421
#     4  10  22  42  70 100 136 180 228 284 348 410
#     4  12  26  45  70 102 140 185 233 290 349 410
#     4  11  26  47  70 101 141 185 231 285 348 419
#     4  11  24  43  70 106 138 175 230 291 344 406
#
# _framework density 22.868669000000001
#
# number of rings (size 3 to 8) (size 9 to 14) (size 15 to 20)
#    0.000    0.889    0.000    8.000    0.000   15.111 
#    0.000    0.000    0.000    0.000    0.000    0.000 
#    0.000    0.000    0.000    0.000    0.000    0.000 
#
# Total GULP energy -201229.744535 kJ/mol
# GULP energy per Si atom -5589.715126 kJ/mol
# Density = 2.281662 g / cm^3
# Si number density = 22.868669 Si / 1000 Ang^3
#
#
#
# Elastic Constant Matrix: (Units=GPa)
#
#
# Indices 1 2 3 4 5 6 
#
# 1 115.8895 67.3924 62.9595 0.0000 0.0000 0.0000
# 2 67.3924 124.3258 74.7441 0.0000 0.0000 0.0000
# 3 62.9595 74.7441 118.5198 0.0000 0.0000 0.0000
# 4 0.0000 0.0000 0.0000 41.4980 0.0000 0.0000
# 5 0.0000 0.0000 0.0000 0.0000 45.6395 0.0000
# 6 0.0000 0.0000 0.0000 0.0000 0.0000 28.7557
#
#
#
# Elastic Compliance Matrix: (Units=1/GPa)
#
#
# Indices 1 2 3 4 5 6 
#
# 1 0.013791 -0.004947 -0.004206 0.000000 0.000000 0.000000
# 2 -0.004947 0.014730 -0.006661 0.000000 0.000000 0.000000
# 3 -0.004206 -0.006661 0.014873 0.000000 0.000000 0.000000
# 4 0.000000 0.000000 0.000000 0.024098 0.000000 0.000000
# 5 0.000000 0.000000 0.000000 0.000000 0.021911 0.000000
# 6 0.000000 0.000000 0.000000 0.000000 0.000000 0.034776
#
#
# Mechanical properties :
#
#
# Convention : Reuss Voigt Hill
#
# Bulk Modulus (GPa) = 85.00169 85.43635 85.21902
# Shear Modulus (GPa) = 31.30339 33.42125 32.36232
#
# Velocity S-wave (km/s) = 3.70379 3.82703 3.76591
# Velocity P-wave (km/s) = 7.45258 7.54777 7.50033
#
# Compressibility (1/GPa) = 0.01176447
#
# Stress axis : x y z
#
# Youngs Moduli (GPa) = 72.51316 67.89058 67.23674
#
# Poissons Ratio (x) = 0.33583 0.28281
# Poissons Ratio (y) = 0.35869 0.44789
# Poissons Ratio (z) = 0.30501 0.45225
#
# Static dielectric constant tensor:
#      x y z
#    x 1.874820 0.000000 0.000000 
#    y 0.000000 1.811630 0.000000 
#    z 0.000000 0.000000 1.887220 
# 
# From -- ./inp_files/25246.got.cif
#   From: 2010.05.17/outbox.cif.g08.bks.cpg/sg73_13_cif.got.tgz:25246.got - 2010.06.03 17:35:07.
