data_PCOD9532123
_publ_section_title
;
Structure prediction by ZEFSAII (Michael W. Deem and Ramdas Pophale) SiO2 
 PCOD9532123
Probable space group: I B C A 
;
_chemical_formula_sum "Si O2"
_cell_formula_units_Z 88
_cell_length_a 13.708082
_cell_length_b 17.940024
_cell_length_c 17.790886
_cell_angle_alpha 90.000000
_cell_angle_beta 90.000000
_cell_angle_gamma 90.000000
_cell_volume 4375.193752
_symmetry_space_group_name_H-M "I B C A "
_symmetry_group_IT_number 73
_symmetry_cell_setting 'orthorhombic'
loop_
_space_group_symop_operation_xyz
x,y,z
-x,1/2-y,z
x,-y,1/2-z
1/2-x,y,-z
-x,-y,-z
x,1/2+y,-z
-x,y,1/2+z
1/2+x,-y,z
1/2+x,1/2+y,1/2+z
1/2-x,-y,1/2+z
1/2+x,1/2-y,-z
-x,1/2+y,1/2-z
1/2-x,1/2-y,1/2-z
1/2+x,y,1/2-z
1/2-x,1/2+y,z
x,1/2-y,1/2+z
loop_
_atom_site_type_symbol
_atom_site_label
_atom_site_fract_x
_atom_site_fract_y
_atom_site_fract_z
Si Si1 0.635432 0.764925 0.753865
Si Si2 0.197694 0.524597 0.859116
Si Si3 0.897659 0.597586 0.211478
Si Si4 0.638519 0.359468 0.981470
Si Si5 0.902615 0.093051 0.354752
Si Si6 0.000000 0.250000 0.116295
O O1 0.750000 0.750000 0.750000
O O2 0.593682 0.686348 0.784387
O O3 0.624921 0.832569 0.810174
O O4 0.580585 0.782802 0.675305
O O5 0.175237 0.437697 0.849589
O O6 0.142853 0.568332 0.791007
O O7 0.160866 0.566403 0.932978
O O8 0.312108 0.537728 0.850299
O O9 0.000410 0.564756 0.184779
O O10 0.565876 0.305636 0.934585
O O11 0.750000 0.329321 0.000000
O O12 0.587173 0.382967 0.058747
#
# Coordination Sequence:
#
# PCOD9532123 Si02
#       6
#    16  16  16  16  16   8
#     4  12  21  40  67  99 128 163 221 282 323 395
#     4  10  22  42  61  87 128 171 209 264 325 391
#     4  11  22  38  65  95 121 165 223 261 325 389
#     4  10  22  42  64  90 131 174 214 264 337 400
#     4  11  22  40  68  89 126 171 213 270 328 387
#     4  12  22  40  66  98 128 174 210 274 340 384
#
# _framework density 20.113395000000001
#
# number of rings (size 3 to 8) (size 9 to 14) (size 15 to 20)
#    0.000    1.091    5.455    1.091    2.545    3.636 
#    3.273    0.000    0.000    0.000    0.000    0.000 
#    0.000    0.000    0.000    0.000    0.000    0.000 
#
# Total GULP energy -245412.157180 kJ/mol
# GULP energy per Si atom -5577.549027 kJ/mol
# Density = 2.006762 g / cm^3
# Si number density = 20.113395 Si / 1000 Ang^3
#
#
#
# Elastic Constant Matrix: (Units=GPa)
#
#
# Indices 1 2 3 4 5 6 
#
# 1 104.7397 5.1229 45.2171 0.0000 0.0000 0.0000
# 2 5.1229 54.3804 9.2710 0.0000 0.0000 0.0000
# 3 45.2171 9.2710 109.4567 0.0000 0.0000 0.0000
# 4 0.0000 0.0000 0.0000 24.2852 0.0000 0.0000
# 5 0.0000 0.0000 0.0000 0.0000 37.8910 0.0000
# 6 0.0000 0.0000 0.0000 0.0000 0.0000 23.3082
#
#
#
# Elastic Compliance Matrix: (Units=1/GPa)
#
#
# Indices 1 2 3 4 5 6 
#
# 1 0.011624 -0.000280 -0.004778 0.000000 0.000000 0.000000
# 2 -0.000280 0.018665 -0.001465 0.000000 0.000000 0.000000
# 3 -0.004778 -0.001465 0.011234 0.000000 0.000000 0.000000
# 4 0.000000 0.000000 0.000000 0.041177 0.000000 0.000000
# 5 0.000000 0.000000 0.000000 0.000000 0.026392 0.000000
# 6 0.000000 0.000000 0.000000 0.000000 0.000000 0.042903
#
#
# Mechanical properties :
#
#
# Convention : Reuss Voigt Hill
#
# Bulk Modulus (GPa) = 35.11759 43.08877 39.10318
# Shear Modulus (GPa) = 28.64759 31.02792 29.83776
#
# Velocity S-wave (km/s) = 3.77809 3.93192 3.85577
# Velocity P-wave (km/s) = 6.04398 6.48712 6.26947
#
# Compressibility (1/GPa) = 0.02847576
#
# Stress axis : x y z
#
# Youngs Moduli (GPa) = 86.02908 53.57568 89.01537
#
# Poissons Ratio (x) = 0.01502 0.42533
# Poissons Ratio (y) = 0.02413 0.13042
# Poissons Ratio (z) = 0.41106 0.07849
#
# Static dielectric constant tensor:
#      x y z
#    x 1.785940 0.000000 0.000000 
#    y 0.000000 1.765040 0.000000 
#    z 0.000000 0.000000 1.709520 
# 
# From -- ./inp_files/16936.got.cif
#   From: 2010.05.17/outbox.cif.g08.bks.cpg/sg73_9_cif.got.tgz:16936.got - 2010.06.03 17:35:07.
