data_PCOD9532141
_publ_section_title
;
Structure prediction by ZEFSAII (Michael W. Deem and Ramdas Pophale) SiO2 
 PCOD9532141
Probable space group: I B C A 
;
_chemical_formula_sum "Si O2"
_cell_formula_units_Z 96
_cell_length_a 17.940694
_cell_length_b 11.195052
_cell_length_c 23.101428
_cell_angle_alpha 90.000000
_cell_angle_beta 90.000000
_cell_angle_gamma 90.000000
_cell_volume 4639.852561
_symmetry_space_group_name_H-M "I B C A "
_symmetry_group_IT_number 73
_symmetry_cell_setting 'orthorhombic'
loop_
_space_group_symop_operation_xyz
x,y,z
-x,1/2-y,z
x,-y,1/2-z
1/2-x,y,-z
-x,-y,-z
x,1/2+y,-z
-x,y,1/2+z
1/2+x,-y,z
1/2+x,1/2+y,1/2+z
1/2-x,-y,1/2+z
1/2+x,1/2-y,-z
-x,1/2+y,1/2-z
1/2-x,1/2-y,1/2-z
1/2+x,y,1/2-z
1/2-x,1/2+y,z
x,1/2-y,1/2+z
loop_
_atom_site_type_symbol
_atom_site_label
_atom_site_fract_x
_atom_site_fract_y
_atom_site_fract_z
Si Si1 0.676096 0.778715 0.086315
Si Si2 0.432541 0.921071 0.661038
Si Si3 0.412928 0.049281 0.405950
Si Si4 0.924476 0.182610 0.784428
Si Si5 0.081162 0.691340 0.513468
Si Si6 0.847329 0.289424 0.881772
O O1 0.632416 0.884520 0.117573
O O2 0.647239 0.650783 0.111194
O O3 0.762988 0.791314 0.096500
O O4 0.643587 0.769071 0.021174
O O5 0.510631 0.918001 0.626651
O O6 0.425992 0.830895 0.715412
O O7 0.425008 0.050768 0.688990
O O8 0.421662 0.071163 0.475219
O O9 0.385837 0.917301 0.392236
O O10 0.857375 0.253308 0.814912
O O11 0.000000 0.250000 0.802179
O O12 0.107572 0.692911 0.579177
O O13 0.000000 0.750000 0.509177
#
# Coordination Sequence:
#
# PCOD9532141 Si02
#       6
#    16  16  16  16  16  16
#     4  10  23  44  65  96 136 177 216 277 340 398
#     4  11  22  45  71  93 127 179 229 267 338 387
#     4  10  22  44  66  93 129 178 225 276 315 413
#     4  11  24  40  69 100 130 170 222 286 319 408
#     4  10  22  42  65  97 127 175 222 267 326 400
#     4  12  25  41  64 103 138 169 221 282 346 386
#
# _framework density 20.690311999999999
#
# number of rings (size 3 to 8) (size 9 to 14) (size 15 to 20)
#    1.000    0.333    3.333    2.500    2.333    2.667 
#    3.000    0.000    0.000    0.000    0.000    0.000 
#    0.000    0.000    0.000    0.000    0.000    0.000 
#
# Total GULP energy -267861.532095 kJ/mol
# GULP energy per Si atom -5580.448585 kJ/mol
# Density = 2.064322 g / cm^3
# Si number density = 20.690312 Si / 1000 Ang^3
#
#
#
# Elastic Constant Matrix: (Units=GPa)
#
#
# Indices 1 2 3 4 5 6 
#
# 1 130.7305 15.5008 37.2504 0.0000 0.0000 0.0000
# 2 15.5008 67.2118 28.5269 0.0000 0.0000 0.0000
# 3 37.2504 28.5269 84.5551 0.0000 0.0000 0.0000
# 4 0.0000 0.0000 0.0000 29.0588 0.0000 0.0000
# 5 0.0000 0.0000 0.0000 0.0000 -8.1860 0.0000
# 6 0.0000 0.0000 0.0000 0.0000 0.0000 14.3942
#
#
#
# Elastic Compliance Matrix: (Units=1/GPa)
#
#
# Indices 1 2 3 4 5 6 
#
# 1 0.008759 -0.000446 -0.003708 0.000000 0.000000 0.000000
# 2 -0.000446 0.017388 -0.005670 0.000000 0.000000 0.000000
# 3 -0.003708 -0.005670 0.015373 0.000000 0.000000 0.000000
# 4 0.000000 0.000000 0.000000 0.034413 0.000000 0.000000
# 5 0.000000 0.000000 0.000000 0.000000 -0.122160 0.000000
# 6 0.000000 0.000000 0.000000 0.000000 0.000000 0.069472
#
#
# Mechanical properties :
#
#
# Convention : Reuss Voigt Hill
#
# Bulk Modulus (GPa) = 45.72138 49.45041 47.58590
# Shear Modulus (GPa) = 99.63529 20.46803 60.05166
#
# Velocity S-wave (km/s) = 6.94695 3.14866 5.39324
# Velocity P-wave (km/s) = 9.30014 6.09679 7.86332
#
# Compressibility (1/GPa) = 0.02187161
#
# Stress axis : x y z
#
# Youngs Moduli (GPa) = 114.17055 57.51220 65.04905
#
# Poissons Ratio (x) = 0.02566 0.24121
# Poissons Ratio (y) = 0.05094 0.36880
# Poissons Ratio (z) = 0.42336 0.32607
#
# Static dielectric constant tensor:
#      x y z
#    x 1.691390 0.000000 0.000000 
#    y 0.000000 1.753820 0.000000 
#    z 0.000000 0.000000 1.754240 
# 
# From -- ./inp_files/29780.got.cif
#   From: 2010.05.17/outbox.cif.g08.bks.cpg/sg73_15_cif.got.tgz:29780.got - 2010.06.03 17:35:07.
