data_PCOD9532433
_publ_section_title
;
Structure prediction by ZEFSAII (Michael W. Deem and Ramdas Pophale) SiO2 
 PCOD9532433
Probable space group: I B C A 
;
_chemical_formula_sum "Si O2"
_cell_formula_units_Z 64
_cell_length_a 20.029923
_cell_length_b 5.231999
_cell_length_c 24.372084
_cell_angle_alpha 90.000000
_cell_angle_beta 90.000000
_cell_angle_gamma 90.000000
_cell_volume 2554.110005
_symmetry_space_group_name_H-M "I B C A "
_symmetry_group_IT_number 73
_symmetry_cell_setting 'orthorhombic'
loop_
_space_group_symop_operation_xyz
x,y,z
-x,1/2-y,z
x,-y,1/2-z
1/2-x,y,-z
-x,-y,-z
x,1/2+y,-z
-x,y,1/2+z
1/2+x,-y,z
1/2+x,1/2+y,1/2+z
1/2-x,-y,1/2+z
1/2+x,1/2-y,-z
-x,1/2+y,1/2-z
1/2-x,1/2-y,1/2-z
1/2+x,y,1/2-z
1/2-x,1/2+y,z
x,1/2-y,1/2+z
loop_
_atom_site_type_symbol
_atom_site_label
_atom_site_fract_x
_atom_site_fract_y
_atom_site_fract_z
Si Si1 0.707055 0.062683 0.690441
Si Si2 0.000000 0.250000 0.213021
Si Si3 0.000000 0.250000 0.036162
Si Si4 0.675066 0.023582 0.025305
Si Si5 0.885807 0.236757 0.623846
O O1 0.766852 0.851243 0.688522
O O2 0.656546 0.978681 0.643715
O O3 0.676322 0.000000 0.750000
O O4 0.014606 0.500000 0.250000
O O5 0.065232 0.171513 0.175520
O O6 0.938914 0.218404 0.077232
O O7 0.000000 0.500000 0.000000
O O8 0.666117 0.943424 0.088800
O O9 0.750000 0.051334 0.000000
O O10 0.645083 0.798894 0.987527
#
# Coordination Sequence:
#
# PCOD9532433 Si02
#       5
#    16   8   8  16  16
#     4  10  24  42  65 100 139 177 227 284 347 418
#     4  11  28  49  72 106 136 185 246 293 348 420
#     4  11  26  47  68 102 140 181 238 293 348 416
#     4  10  23  39  62 100 139 178 227 279 336 421
#     4  11  25  44  76  99 141 189 231 294 357 413
#
# _framework density 25.057649999999999
#
# number of rings (size 3 to 8) (size 9 to 14) (size 15 to 20)
#    0.000    1.500    0.000    2.250    7.000   13.000 
#    0.000    0.000    0.000    0.000    0.000    0.000 
#    0.000    0.000    0.000    0.000    0.000    0.000 
#
# Total GULP energy -178666.530605 kJ/mol
# GULP energy per Si atom -5583.329081 kJ/mol
# Density = 2.500062 g / cm^3
# Si number density = 25.057650 Si / 1000 Ang^3
#
#
#
# Elastic Constant Matrix: (Units=GPa)
#
#
# Indices 1 2 3 4 5 6 
#
# 1 105.8430 5.6944 60.6094 0.0000 0.0000 0.0000
# 2 5.6944 142.3780 62.5103 0.0000 0.0000 0.0000
# 3 60.6094 62.5103 181.9567 0.0000 0.0000 0.0000
# 4 0.0000 0.0000 0.0000 41.2697 0.0000 0.0000
# 5 0.0000 0.0000 0.0000 0.0000 59.5308 0.0000
# 6 0.0000 0.0000 0.0000 0.0000 0.0000 -218.3320
#
#
#
# Elastic Compliance Matrix: (Units=1/GPa)
#
#
# Indices 1 2 3 4 5 6 
#
# 1 0.011939 0.001494 -0.004490 0.000000 0.000000 0.000000
# 2 0.001494 0.008458 -0.003403 0.000000 0.000000 0.000000
# 3 -0.004490 -0.003403 0.008161 0.000000 0.000000 0.000000
# 4 0.000000 0.000000 0.000000 0.024231 0.000000 0.000000
# 5 0.000000 0.000000 0.000000 0.000000 0.016798 0.000000
# 6 0.000000 0.000000 0.000000 0.000000 0.000000 -0.004580
#
#
# Mechanical properties :
#
#
# Convention : Reuss Voigt Hill
#
# Bulk Modulus (GPa) = 63.45813 76.42288 69.94050
# Shear Modulus (GPa) = 60.19917 -3.41540 28.39189
#
# Velocity S-wave (km/s) = 4.90677 -1.16875 3.36975
# Velocity P-wave (km/s) = 7.58167 5.36132 6.56603
#
# Compressibility (1/GPa) = 0.01575842
#
# Stress axis : x y z
#
# Youngs Moduli (GPa) = 83.76130 118.23118 122.54030
#
# Poissons Ratio (x) = -0.17661 0.55020
# Poissons Ratio (y) = -0.12512 0.41704
# Poissons Ratio (z) = 0.37608 0.40237
#
# Static dielectric constant tensor:
#      x y z
#    x 1.900100 0.000000 0.000000 
#    y 0.000000 1.962900 0.000000 
#    z 0.000000 0.000000 1.981950 
# 
# From -- ./inp_files/1566.got.cif
#   From: 2010.05.17/outbox.cif.g08.bks.cpg/sg73_1_cif.got.tgz:1566.got - 2010.06.03 17:35:07.
