data_PCOD9532042
_publ_section_title
;
Structure prediction by ZEFSAII (Michael W. Deem and Ramdas Pophale) SiO2 
 PCOD9532042
Probable space group: I B C A 
;
_chemical_formula_sum "Si O2"
_cell_formula_units_Z 120
_cell_length_a 26.044916
_cell_length_b 10.429414
_cell_length_c 21.690551
_cell_angle_alpha 90.000000
_cell_angle_beta 90.000000
_cell_angle_gamma 90.000000
_cell_volume 5891.874029
_symmetry_space_group_name_H-M "I B C A "
_symmetry_group_IT_number 73
_symmetry_cell_setting 'orthorhombic'
loop_
_space_group_symop_operation_xyz
x,y,z
-x,1/2-y,z
x,-y,1/2-z
1/2-x,y,-z
-x,-y,-z
x,1/2+y,-z
-x,y,1/2+z
1/2+x,-y,z
1/2+x,1/2+y,1/2+z
1/2-x,-y,1/2+z
1/2+x,1/2-y,-z
-x,1/2+y,1/2-z
1/2-x,1/2-y,1/2-z
1/2+x,y,1/2-z
1/2-x,1/2+y,z
x,1/2-y,1/2+z
loop_
_atom_site_type_symbol
_atom_site_label
_atom_site_fract_x
_atom_site_fract_y
_atom_site_fract_z
Si Si1 0.604698 0.314456 0.195079
Si Si2 0.861593 0.371987 0.942456
Si Si3 0.808654 0.394969 0.483679
Si Si4 0.333005 0.495819 0.353500
Si Si5 0.017469 0.119713 0.962575
Si Si6 0.052964 0.947290 0.152234
Si Si7 0.479616 0.000000 0.250000
Si Si8 0.692669 0.298914 0.755788
O O1 0.634725 0.353242 0.132049
O O2 0.576005 0.178139 0.185996
O O3 0.558647 0.403717 0.216509
O O4 0.648485 0.305995 0.246839
O O5 0.838593 0.240593 0.972591
O O6 0.921856 0.380391 0.956980
O O7 0.833741 0.500594 0.968691
O O8 0.750000 0.365536 0.500000
O O9 0.808083 0.465161 0.417359
O O10 0.393993 0.486867 0.367681
O O11 0.319817 0.602279 0.300749
O O12 0.314276 0.367304 0.321166
O O13 0.000000 0.250000 0.994218
O O14 0.984429 0.106986 0.900013
O O15 0.000000 0.000000 0.000000
O O16 0.019475 0.038283 0.196119
O O17 0.750000 0.250000 0.750000
#
# Coordination Sequence:
#
# PCOD9532042 Si02
#       8
#    16  16  16  16  16  16   8  16
#     4  11  23  43  66  98 140 176 231 292 352 425
#     4  12  24  48  70 105 142 190 241 297 358 433
#     4  12  27  46  77 102 143 192 248 307 365 427
#     4  10  22  44  64 100 131 181 235 283 353 440
#     4  12  22  40  68  99 138 186 228 280 354 422
#     4  11  20  43  68  89 134 186 218 276 357 423
#     4  12  22  36  68 104 126 176 230 286 348 418
#     4  10  22  40  70  93 133 182 225 288 368 424
#
# _framework density 20.367034
#
# number of rings (size 3 to 8) (size 9 to 14) (size 15 to 20)
#    0.000    0.800    5.333    4.000    1.867    2.133 
#    2.400    2.667    0.000    0.000    0.000    0.000 
#    0.000    0.000    0.000    0.000    0.000    0.000 
#
# Total GULP energy -334646.208216 kJ/mol
# GULP energy per Si atom -5577.436804 kJ/mol
# Density = 2.032068 g / cm^3
# Si number density = 20.367034 Si / 1000 Ang^3
#
#
#
# Elastic Constant Matrix: (Units=GPa)
#
#
# Indices 1 2 3 4 5 6 
#
# 1 185.2284 50.7926 48.4430 0.0000 0.0000 0.0000
# 2 50.7926 82.4262 34.3166 0.0000 0.0000 0.0000
# 3 48.4430 34.3166 64.8086 0.0000 0.0000 0.0000
# 4 0.0000 0.0000 0.0000 19.3705 0.0000 0.0000
# 5 0.0000 0.0000 0.0000 0.0000 32.2754 0.0000
# 6 0.0000 0.0000 0.0000 0.0000 0.0000 23.4288
#
#
#
# Elastic Compliance Matrix: (Units=1/GPa)
#
#
# Indices 1 2 3 4 5 6 
#
# 1 0.007185 -0.002811 -0.003882 0.000000 0.000000 0.000000
# 2 -0.002811 0.016663 -0.006722 0.000000 0.000000 0.000000
# 3 -0.003882 -0.006722 0.021891 0.000000 0.000000 0.000000
# 4 0.000000 0.000000 0.000000 0.051625 0.000000 0.000000
# 5 0.000000 0.000000 0.000000 0.000000 0.030983 0.000000
# 6 0.000000 0.000000 0.000000 0.000000 0.000000 0.042683
#
#
# Mechanical properties :
#
#
# Convention : Reuss Voigt Hill
#
# Bulk Modulus (GPa) = 52.88555 66.61863 59.75209
# Shear Modulus (GPa) = 24.49028 28.27565 26.38297
#
# Velocity S-wave (km/s) = 3.47139 3.73004 3.60304
# Velocity P-wave (km/s) = 6.48768 7.16456 6.83451
#
# Compressibility (1/GPa) = 0.01890876
#
# Stress axis : x y z
#
# Youngs Moduli (GPa) = 139.18089 60.01351 45.68100
#
# Poissons Ratio (x) = 0.16872 0.17733
# Poissons Ratio (y) = 0.39128 0.30706
# Poissons Ratio (z) = 0.54029 0.40340
#
# Static dielectric constant tensor:
#      x y z
#    x 1.689630 0.000000 0.000000 
#    y 0.000000 1.769190 0.000000 
#    z 0.000000 0.000000 1.734810 
# 
# From -- ./inp_files/27349.got.cif
#   From: 2010.05.17/outbox.cif.g08.bks.cpg/sg73_14_cif.got.tgz:27349.got - 2010.06.03 17:35:07.
