data_PCOD9532365
_publ_section_title
;
Structure prediction by ZEFSAII (Michael W. Deem and Ramdas Pophale) SiO2 
 PCOD9532365
Probable space group: I B C A 
;
_chemical_formula_sum "Si O2"
_cell_formula_units_Z 64
_cell_length_a 11.321881
_cell_length_b 16.830213
_cell_length_c 12.079414
_cell_angle_alpha 90.000000
_cell_angle_beta 90.000000
_cell_angle_gamma 90.000000
_cell_volume 2301.728337
_symmetry_space_group_name_H-M "I B C A "
_symmetry_group_IT_number 73
_symmetry_cell_setting 'orthorhombic'
loop_
_space_group_symop_operation_xyz
x,y,z
-x,1/2-y,z
x,-y,1/2-z
1/2-x,y,-z
-x,-y,-z
x,1/2+y,-z
-x,y,1/2+z
1/2+x,-y,z
1/2+x,1/2+y,1/2+z
1/2-x,-y,1/2+z
1/2+x,1/2-y,-z
-x,1/2+y,1/2-z
1/2-x,1/2-y,1/2-z
1/2+x,y,1/2-z
1/2-x,1/2+y,z
x,1/2-y,1/2+z
loop_
_atom_site_type_symbol
_atom_site_label
_atom_site_fract_x
_atom_site_fract_y
_atom_site_fract_z
Si Si1 0.711967 0.342392 0.759255
Si Si2 0.127533 0.217744 0.026491
Si Si3 0.006028 0.106686 0.888033
Si Si4 0.352992 0.448860 0.912279
O O1 0.750000 0.250000 0.750000
O O2 0.673736 0.348607 0.887811
O O3 0.590622 0.368684 0.699559
O O4 0.804409 0.396378 0.689703
O O5 0.000000 0.250000 0.069650
O O6 0.250000 0.267186 0.000000
O O7 0.092140 0.179808 0.909379
O O8 0.076311 0.025776 0.871919
O O9 0.940538 0.097562 0.006278
O O10 0.250000 0.472299 0.000000
#
# Coordination Sequence:
#
# PCOD9532365 Si02
#       4
#    16  16  16  16
#     4  11  24  46  79 117 162 218 281 348 424 507
#     4  12  27  48  76 114 161 214 277 348 421 505
#     4  10  22  45  75 112 159 215 277 343 416 502
#     4   9  20  45  76 111 160 216 273 338 415 500
#
# _framework density 27.805192000000002
#
# number of rings (size 3 to 8) (size 9 to 14) (size 15 to 20)
#    0.000    1.500    0.000    3.750    0.000    7.000 
#    0.000   30.000    0.000    6.000    0.000    0.000 
#    0.000    0.000    0.000    0.000    0.000    0.000 
#
# Total GULP energy -179036.288107 kJ/mol
# GULP energy per Si atom -5594.884003 kJ/mol
# Density = 2.774191 g / cm^3
# Si number density = 27.805192 Si / 1000 Ang^3
#
#
#
# Elastic Constant Matrix: (Units=GPa)
#
#
# Indices 1 2 3 4 5 6 
#
# 1 225.1623 84.6648 52.5111 -0.0001 0.0000 0.0000
# 2 84.6648 141.3003 55.2060 0.0000 0.0000 0.0000
# 3 52.5111 55.2060 154.1289 -0.0003 0.0001 0.0001
# 4 -0.0001 0.0000 -0.0003 54.8410 0.0000 0.0001
# 5 0.0000 0.0000 0.0001 0.0000 40.4427 0.0000
# 6 0.0000 0.0000 0.0001 0.0001 0.0000 61.0627
#
#
#
# Elastic Compliance Matrix: (Units=1/GPa)
#
#
# Indices 1 2 3 4 5 6 
#
# 1 0.005828 -0.003158 -0.000854 0.000000 0.000000 0.000000
# 2 -0.003158 0.009940 -0.002484 0.000000 0.000000 0.000000
# 3 -0.000854 -0.002484 0.007669 0.000000 0.000000 0.000000
# 4 0.000000 0.000000 0.000000 0.018235 0.000000 0.000000
# 5 0.000000 0.000000 0.000000 0.000000 0.024726 0.000000
# 6 0.000000 0.000000 0.000000 0.000000 0.000000 0.016377
#
#
# Mechanical properties :
#
#
# Convention : Reuss Voigt Hill
#
# Bulk Modulus (GPa) = 95.75594 100.59504 98.17549
# Shear Modulus (GPa) = 50.37797 53.14992 51.76394
#
# Velocity S-wave (km/s) = 4.26116 4.37683 4.31938
# Velocity P-wave (km/s) = 7.66309 7.86125 7.76280
#
# Compressibility (1/GPa) = 0.01044322
#
# Stress axis : x y z
#
# Youngs Moduli (GPa) = 171.58382 100.60208 130.39499
#
# Poissons Ratio (x) = 0.31773 0.11140
# Poissons Ratio (y) = 0.54191 0.32395
# Poissons Ratio (z) = 0.14659 0.24993
#
# Static dielectric constant tensor:
#      x y z
#    x 2.308470 0.000000 0.000000 
#    y 0.000000 2.180340 0.000000 
#    z 0.000000 0.000000 2.240900 
# 
# From -- ./inp_files/15872.got.cif
#   From: 2010.05.17/outbox.cif.g08.bks.cpg/sg73_8_cif.got.tgz:15872.got - 2010.06.03 17:35:07.
