data_PCOD9532703
_publ_section_title
;
Structure prediction by ZEFSAII (Michael W. Deem and Ramdas Pophale) SiO2 
 PCOD9532703
Probable space group: I B C A 
;
_chemical_formula_sum "Si O2"
_cell_formula_units_Z 96
_cell_length_a 9.009667
_cell_length_b 26.591498
_cell_length_c 19.733398
_cell_angle_alpha 90.000000
_cell_angle_beta 90.000000
_cell_angle_gamma 90.000000
_cell_volume 4727.738189
_symmetry_space_group_name_H-M "I B C A "
_symmetry_group_IT_number 73
_symmetry_cell_setting 'orthorhombic'
loop_
_space_group_symop_operation_xyz
x,y,z
-x,1/2-y,z
x,-y,1/2-z
1/2-x,y,-z
-x,-y,-z
x,1/2+y,-z
-x,y,1/2+z
1/2+x,-y,z
1/2+x,1/2+y,1/2+z
1/2-x,-y,1/2+z
1/2+x,1/2-y,-z
-x,1/2+y,1/2-z
1/2-x,1/2-y,1/2-z
1/2+x,y,1/2-z
1/2-x,1/2+y,z
x,1/2-y,1/2+z
loop_
_atom_site_type_symbol
_atom_site_label
_atom_site_fract_x
_atom_site_fract_y
_atom_site_fract_z
Si Si1 0.000000 0.250000 0.480417
Si Si2 0.491436 0.478003 0.094459
Si Si3 0.968585 0.802390 0.145142
Si Si4 0.070336 0.086373 0.155373
Si Si5 0.906177 0.405217 0.790092
Si Si6 0.750000 0.512550 0.000000
Si Si7 0.324613 0.829458 0.564596
O O1 0.940015 0.291165 0.424918
O O2 0.102026 0.281722 0.529538
O O3 0.444571 0.534458 0.114857
O O4 0.522299 0.447270 0.161817
O O5 0.356311 0.456573 0.050049
O O6 0.636410 0.481115 0.046870
O O7 0.983732 0.852556 0.187928
O O8 0.802709 0.809717 0.115114
O O9 0.000000 0.750000 0.184047
O O10 0.230921 0.091665 0.192670
O O11 0.067989 0.133288 0.104216
O O12 0.943576 0.086616 0.212071
O O13 0.250000 0.857687 0.500000
#
# Coordination Sequence:
#
# PCOD9532703 Si02
#       7
#     8  16  16  16  16   8  16
#     4   8  16  34  62  88 116 160 204 262 318 372
#     4  11  23  43  65  95 132 168 212 271 318 394
#     4   8  18  38  60  87 118 166 200 263 316 375
#     4  11  25  41  67  92 129 182 211 264 325 395
#     4  11  24  44  63  92 131 175 219 259 326 389
#     4  10  24  38  64 100 124 166 212 268 326 366
#     4   9  18  37  65  89 121 163 213 257 329 377
#
# _framework density 20.305693000000002
#
# number of rings (size 3 to 8) (size 9 to 14) (size 15 to 20)
#    0.500    1.667    1.667    0.500    3.500    5.333 
#    4.500    3.333    1.833    0.000    0.000    0.000 
#    0.000    0.000    0.000    0.000    0.000    0.000 
#
# Total GULP energy -267220.054389 kJ/mol
# GULP energy per Si atom -5567.084466 kJ/mol
# Density = 2.025948 g / cm^3
# Si number density = 20.305693 Si / 1000 Ang^3
#
#
#
# Elastic Constant Matrix: (Units=GPa)
#
#
# Indices 1 2 3 4 5 6 
#
# 1 56.6654 20.0990 23.9660 0.0000 0.0000 0.0000
# 2 20.0990 87.1128 17.2687 0.0000 0.0000 0.0000
# 3 23.9660 17.2687 73.4870 0.0000 0.0000 0.0000
# 4 0.0000 0.0000 0.0000 18.7745 0.0000 0.0000
# 5 0.0000 0.0000 0.0000 0.0000 35.4005 0.0000
# 6 0.0000 0.0000 0.0000 0.0000 0.0000 17.4722
#
#
#
# Elastic Compliance Matrix: (Units=1/GPa)
#
#
# Indices 1 2 3 4 5 6 
#
# 1 0.021585 -0.003760 -0.006156 0.000000 0.000000 0.000000
# 2 -0.003760 0.012695 -0.001757 0.000000 0.000000 0.000000
# 3 -0.006156 -0.001757 0.016028 0.000000 0.000000 0.000000
# 4 0.000000 0.000000 0.000000 0.053264 0.000000 0.000000
# 5 0.000000 0.000000 0.000000 0.000000 0.028248 0.000000
# 6 0.000000 0.000000 0.000000 0.000000 0.000000 0.057234
#
#
# Mechanical properties :
#
#
# Convention : Reuss Voigt Hill
#
# Bulk Modulus (GPa) = 37.08820 37.77029 37.42925
# Shear Modulus (GPa) = 22.58496 24.72489 23.65493
#
# Velocity S-wave (km/s) = 3.33866 3.49325 3.41683
# Velocity P-wave (km/s) = 5.75906 5.90860 5.83431
#
# Compressibility (1/GPa) = 0.02696275
#
# Stress axis : x y z
#
# Youngs Moduli (GPa) = 46.32951 78.77021 62.38969
#
# Poissons Ratio (x) = 0.29616 0.38406
# Poissons Ratio (y) = 0.17419 0.10962
# Poissons Ratio (z) = 0.28519 0.13841
#
# Static dielectric constant tensor:
#      x y z
#    x 1.799360 0.000000 0.000000 
#    y 0.000000 1.728590 0.000000 
#    z 0.000000 0.000000 1.745500 
# 
# From -- ./inp_files/24905.got.cif
#   From: 2010.05.17/outbox.cif.g08.bks.cpg/sg73_13_cif.got.tgz:24905.got - 2010.06.03 17:35:07.
