data_PCOD9532359
_publ_section_title
;
Structure prediction by ZEFSAII (Michael W. Deem and Ramdas Pophale) SiO2 
 PCOD9532359
Probable space group: I B C A 
;
_chemical_formula_sum "Si O2"
_cell_formula_units_Z 64
_cell_length_a 18.929282
_cell_length_b 9.671561
_cell_length_c 13.448517
_cell_angle_alpha 90.000000
_cell_angle_beta 90.000000
_cell_angle_gamma 90.000000
_cell_volume 2462.096738
_symmetry_space_group_name_H-M "I B C A "
_symmetry_group_IT_number 73
_symmetry_cell_setting 'orthorhombic'
loop_
_space_group_symop_operation_xyz
x,y,z
-x,1/2-y,z
x,-y,1/2-z
1/2-x,y,-z
-x,-y,-z
x,1/2+y,-z
-x,y,1/2+z
1/2+x,-y,z
1/2+x,1/2+y,1/2+z
1/2-x,-y,1/2+z
1/2+x,1/2-y,-z
-x,1/2+y,1/2-z
1/2-x,1/2-y,1/2-z
1/2+x,y,1/2-z
1/2-x,1/2+y,z
x,1/2-y,1/2+z
loop_
_atom_site_type_symbol
_atom_site_label
_atom_site_fract_x
_atom_site_fract_y
_atom_site_fract_z
Si Si1 0.667483 0.788643 0.168887
Si Si2 0.820284 0.240704 0.896572
Si Si3 0.021550 0.102199 0.158826
Si Si4 0.619665 0.462574 0.434758
O O1 0.740363 0.801956 0.109715
O O2 0.602014 0.874888 0.124898
O O3 0.650304 0.625726 0.158659
O O4 0.671685 0.179394 0.214593
O O5 0.866329 0.376792 0.917325
O O6 0.842451 0.121428 0.974736
O O7 0.000000 0.250000 0.202029
O O8 0.963713 0.069282 0.075476
O O9 0.018083 0.000000 0.250000
#
# Coordination Sequence:
#
# PCOD9532359 Si02
#       4
#    16  16  16  16
#     4  10  24  46  74 105 146 200 252 305 373 451
#     4  11  25  46  76 108 148 197 250 311 377 452
#     4  10  22  45  73 105 147 193 245 303 370 448
#     4  11  24  47  72 106 146 189 249 312 376 449
#
# _framework density 25.994105000000001
#
# number of rings (size 3 to 8) (size 9 to 14) (size 15 to 20)
#    0.000    1.500    0.000    4.500    0.000   12.000 
#    0.000   33.750    0.000    0.000    0.000    0.000 
#    0.000    0.000    0.000    0.000    0.000    0.000 
#
# Total GULP energy -179055.250389 kJ/mol
# GULP energy per Si atom -5595.476575 kJ/mol
# Density = 2.593494 g / cm^3
# Si number density = 25.994105 Si / 1000 Ang^3
#
#
#
# Elastic Constant Matrix: (Units=GPa)
#
#
# Indices 1 2 3 4 5 6 
#
# 1 205.2758 50.5108 72.0561 0.0000 0.0000 0.0000
# 2 50.5108 137.7764 20.1043 0.0000 0.0000 0.0000
# 3 72.0561 20.1043 151.5112 0.0000 0.0000 0.0000
# 4 0.0000 0.0000 0.0000 37.6520 0.0000 0.0000
# 5 0.0000 0.0000 0.0000 0.0000 35.8111 0.0000
# 6 0.0000 0.0000 0.0000 0.0000 0.0000 25.4794
#
#
#
# Elastic Compliance Matrix: (Units=1/GPa)
#
#
# Indices 1 2 3 4 5 6 
#
# 1 0.006305 -0.001911 -0.002745 0.000000 0.000000 0.000000
# 2 -0.001911 0.007981 -0.000150 0.000000 0.000000 0.000000
# 3 -0.002745 -0.000150 0.007926 0.000000 0.000000 0.000000
# 4 0.000000 0.000000 0.000000 0.026559 0.000000 0.000000
# 5 0.000000 0.000000 0.000000 0.000000 0.027924 0.000000
# 6 0.000000 0.000000 0.000000 0.000000 0.000000 0.039247
#
#
# Mechanical properties :
#
#
# Convention : Reuss Voigt Hill
#
# Bulk Modulus (GPa) = 79.37109 86.65620 83.01364
# Shear Modulus (GPa) = 38.53430 43.24800 40.89115
#
# Velocity S-wave (km/s) = 3.85440 4.08335 3.97053
# Velocity P-wave (km/s) = 7.09994 7.45928 7.28183
#
# Compressibility (1/GPa) = 0.01259905
#
# Stress axis : x y z
#
# Youngs Moduli (GPa) = 158.59604 125.30297 126.17307
#
# Poissons Ratio (x) = 0.23946 0.34636
# Poissons Ratio (y) = 0.30309 0.01894
# Poissons Ratio (z) = 0.43537 0.01881
#
# Static dielectric constant tensor:
#      x y z
#    x 2.151840 0.000000 0.000000 
#    y 0.000000 1.986440 0.000000 
#    z 0.000000 0.000000 2.123510 
# 
# From -- ./inp_files/24663.got.cif
#   From: 2010.05.17/outbox.cif.g08.bks.cpg/sg73_13_cif.got.tgz:24663.got - 2010.06.03 17:35:07.
