data_PCOD9532707
_publ_section_title
;
Structure prediction by ZEFSAII (Michael W. Deem and Ramdas Pophale) SiO2 
 PCOD9532707
Probable space group: I B C A 
;
_chemical_formula_sum "Si O2"
_cell_formula_units_Z 56
_cell_length_a 27.459796
_cell_length_b 8.139287
_cell_length_c 9.620547
_cell_angle_alpha 90.000000
_cell_angle_beta 90.000000
_cell_angle_gamma 90.000000
_cell_volume 2150.222661
_symmetry_space_group_name_H-M "I B C A "
_symmetry_group_IT_number 73
_symmetry_cell_setting 'orthorhombic'
loop_
_space_group_symop_operation_xyz
x,y,z
-x,1/2-y,z
x,-y,1/2-z
1/2-x,y,-z
-x,-y,-z
x,1/2+y,-z
-x,y,1/2+z
1/2+x,-y,z
1/2+x,1/2+y,1/2+z
1/2-x,-y,1/2+z
1/2+x,1/2-y,-z
-x,1/2+y,1/2-z
1/2-x,1/2-y,1/2-z
1/2+x,y,1/2-z
1/2-x,1/2+y,z
x,1/2-y,1/2+z
loop_
_atom_site_type_symbol
_atom_site_label
_atom_site_fract_x
_atom_site_fract_y
_atom_site_fract_z
Si Si1 0.345415 0.232126 0.194523
Si Si2 0.806401 0.919258 0.464967
Si Si3 0.955223 0.880915 0.145707
Si Si4 0.500000 0.750000 0.119931
O O1 0.326309 0.210739 0.350500
O O2 0.401718 0.185072 0.180420
O O3 0.315945 0.092552 0.108645
O O4 0.335385 0.395854 0.108345
O O5 0.750000 0.897886 0.500000
O O6 0.000000 0.750000 0.195645
O O7 0.961293 0.846831 0.978693
O O8 0.965328 0.078638 0.154077
#
# Coordination Sequence:
#
# PCOD9532707 Si02
#       4
#    16  16  16   8
#     4  11  24  42  66  93 131 166 208 265 305 381
#     4  11  23  42  65  94 127 166 212 259 315 369
#     4  11  21  42  62  91 126 158 212 250 321 362
#     4  10  24  38  66  90 120 166 202 266 304 378
#
# _framework density 26.043814999999999
#
# number of rings (size 3 to 8) (size 9 to 14) (size 15 to 20)
#    0.000    1.143    2.857    4.286    0.000    3.429 
#    0.000    0.000    0.000    0.000    0.000    0.000 
#    0.000    0.000    0.000    0.000    0.000    0.000 
#
# Total GULP energy -156618.167781 kJ/mol
# GULP energy per Si atom -5593.505992 kJ/mol
# Density = 2.598454 g / cm^3
# Si number density = 26.043815 Si / 1000 Ang^3
#
#
#
# Elastic Constant Matrix: (Units=GPa)
#
#
# Indices 1 2 3 4 5 6 
#
# 1 234.4139 27.2321 77.1395 0.0000 0.0000 0.0000
# 2 27.2321 111.2478 27.5759 0.0000 0.0000 0.0000
# 3 77.1395 27.5759 155.0872 0.0000 0.0000 0.0000
# 4 0.0000 0.0000 0.0000 62.8343 0.0000 0.0000
# 5 0.0000 0.0000 0.0000 0.0000 48.6624 0.0000
# 6 0.0000 0.0000 0.0000 0.0000 0.0000 2.9168
#
#
#
# Elastic Compliance Matrix: (Units=1/GPa)
#
#
# Indices 1 2 3 4 5 6 
#
# 1 0.005146 -0.000654 -0.002443 0.000000 0.000000 0.000000
# 2 -0.000654 0.009487 -0.001361 0.000000 0.000000 0.000000
# 3 -0.002443 -0.001361 0.007905 0.000000 0.000000 0.000000
# 4 0.000000 0.000000 0.000000 0.015915 0.000000 0.000000
# 5 0.000000 0.000000 0.000000 0.000000 0.020550 0.000000
# 6 0.000000 0.000000 0.000000 0.000000 0.000000 0.342844
#
#
# Mechanical properties :
#
#
# Convention : Reuss Voigt Hill
#
# Bulk Modulus (GPa) = 73.42009 84.96042 79.19026
# Shear Modulus (GPa) = 12.03936 47.46945 29.75441
#
# Velocity S-wave (km/s) = 2.15239 4.27391 3.38372
# Velocity P-wave (km/s) = 5.86764 7.55302 6.76303
#
# Compressibility (1/GPa) = 0.01362025
#
# Stress axis : x y z
#
# Youngs Moduli (GPa) = 194.32737 105.41267 126.49678
#
# Poissons Ratio (x) = 0.06894 0.30907
# Poissons Ratio (y) = 0.12710 0.17222
# Poissons Ratio (z) = 0.47480 0.14352
#
# Static dielectric constant tensor:
#      x y z
#    x 1.887820 0.000000 0.000000 
#    y 0.000000 2.082550 0.000000 
#    z 0.000000 0.000000 2.243570 
# 
# From -- ./inp_files/14054.got.cif
#   From: 2010.05.17/outbox.cif.g08.bks.cpg/sg73_8_cif.got.tgz:14054.got - 2010.06.03 17:35:07.
