data_PCOD9532180
_publ_section_title
;
Structure prediction by ZEFSAII (Michael W. Deem and Ramdas Pophale) SiO2 
 PCOD9532180
Probable space group: I B C A 
;
_chemical_formula_sum "Si O2"
_cell_formula_units_Z 80
_cell_length_a 10.205369
_cell_length_b 15.962753
_cell_length_c 21.745360
_cell_angle_alpha 90.000000
_cell_angle_beta 90.000000
_cell_angle_gamma 90.000000
_cell_volume 3542.444933
_symmetry_space_group_name_H-M "I B C A "
_symmetry_group_IT_number 73
_symmetry_cell_setting 'orthorhombic'
loop_
_space_group_symop_operation_xyz
x,y,z
-x,1/2-y,z
x,-y,1/2-z
1/2-x,y,-z
-x,-y,-z
x,1/2+y,-z
-x,y,1/2+z
1/2+x,-y,z
1/2+x,1/2+y,1/2+z
1/2-x,-y,1/2+z
1/2+x,1/2-y,-z
-x,1/2+y,1/2-z
1/2-x,1/2-y,1/2-z
1/2+x,y,1/2-z
1/2-x,1/2+y,z
x,1/2-y,1/2+z
loop_
_atom_site_type_symbol
_atom_site_label
_atom_site_fract_x
_atom_site_fract_y
_atom_site_fract_z
Si Si1 0.923760 0.503070 0.436818
Si Si2 0.456072 0.331088 0.094794
Si Si3 0.272596 0.782383 0.182205
Si Si4 0.605244 0.533019 0.184061
Si Si5 0.746604 0.888638 0.873256
O O1 0.009929 0.523986 0.375387
O O2 0.000000 0.500000 0.500000
O O3 0.874755 0.407464 0.432524
O O4 0.812432 0.572157 0.433017
O O5 0.500000 0.250000 0.055755
O O6 0.367187 0.303003 0.151410
O O7 0.596313 0.365246 0.115134
O O8 0.250000 0.750000 0.250000
O O9 0.353007 0.869200 0.185012
O O10 0.318694 0.696734 0.147514
O O11 0.550214 0.500000 0.250000
O O12 0.728453 0.468923 0.172322
#
# Coordination Sequence:
#
# PCOD9532180 Si02
#       5
#    16  16  16  16  16
#     4  11  25  46  71  98 148 194 246 304 381 458
#     4   9  21  42  67  98 133 186 241 302 366 441
#     4  11  21  40  71 103 144 184 243 309 384 448
#     4  11  23  41  68 103 137 186 244 307 375 449
#     4  10  22  42  68  98 137 190 238 303 374 447
#
# _framework density 22.583273999999999
#
# number of rings (size 3 to 8) (size 9 to 14) (size 15 to 20)
#    0.000    1.600    4.000    0.000    0.000    8.000 
#    7.200    0.000    0.000    0.000    0.000    0.000 
#    0.000    0.000    0.000    0.000    0.000    0.000 
#
# Total GULP energy -222674.130829 kJ/mol
# GULP energy per Si atom -5566.853271 kJ/mol
# Density = 2.253187 g / cm^3
# Si number density = 22.583274 Si / 1000 Ang^3
#
#
#
# Elastic Constant Matrix: (Units=GPa)
#
#
# Indices 1 2 3 4 5 6 
#
# 1 48.2841 21.4484 39.4253 0.0000 0.0000 0.0000
# 2 21.4484 186.2157 28.7162 0.0000 0.0000 0.0000
# 3 39.4253 28.7162 117.5116 0.0000 0.0000 0.0000
# 4 0.0000 0.0000 0.0000 6.3786 0.0000 0.0000
# 5 0.0000 0.0000 0.0000 0.0000 32.8017 0.0000
# 6 0.0000 0.0000 0.0000 0.0000 0.0000 33.1254
#
#
#
# Elastic Compliance Matrix: (Units=1/GPa)
#
#
# Indices 1 2 3 4 5 6 
#
# 1 0.029173 -0.001923 -0.009318 0.000000 0.000000 0.000000
# 2 -0.001923 0.005707 -0.000749 0.000000 0.000000 0.000000
# 3 -0.009318 -0.000749 0.011819 0.000000 0.000000 0.000000
# 4 0.000000 0.000000 0.000000 0.156773 0.000000 0.000000
# 5 0.000000 0.000000 0.000000 0.000000 0.030486 0.000000
# 6 0.000000 0.000000 0.000000 0.000000 0.000000 0.030188
#
#
# Mechanical properties :
#
#
# Convention : Reuss Voigt Hill
#
# Bulk Modulus (GPa) = 44.01652 59.02123 51.51888
# Shear Modulus (GPa) = 16.90897 31.95592 24.43244
#
# Velocity S-wave (km/s) = 2.73928 3.76576 3.29277
# Velocity P-wave (km/s) = 5.43488 6.71563 6.10891
#
# Compressibility (1/GPa) = 0.02271874
#
# Stress axis : x y z
#
# Youngs Moduli (GPa) = 34.27797 175.21706 84.60950
#
# Poissons Ratio (x) = 0.33700 0.78836
# Poissons Ratio (y) = 0.06593 0.06341
# Poissons Ratio (z) = 0.31939 0.13131
#
# Static dielectric constant tensor:
#      x y z
#    x 1.778460 0.000000 0.000000 
#    y 0.000000 2.153740 0.000000 
#    z 0.000000 0.000000 1.851490 
# 
# From -- ./inp_files/28778.got.cif
#   From: 2010.05.17/outbox.cif.g08.bks.cpg/sg73_15_cif.got.tgz:28778.got - 2010.06.03 17:35:07.
