data_PCOD9532217
_publ_section_title
;
Structure prediction by ZEFSAII (Michael W. Deem and Ramdas Pophale) SiO2 
 PCOD9532217
Probable space group: I B C A 
;
_chemical_formula_sum "Si O2"
_cell_formula_units_Z 88
_cell_length_a 25.293179
_cell_length_b 15.759263
_cell_length_c 10.466745
_cell_angle_alpha 90.000000
_cell_angle_beta 90.000000
_cell_angle_gamma 90.000000
_cell_volume 4172.064025
_symmetry_space_group_name_H-M "I B C A "
_symmetry_group_IT_number 73
_symmetry_cell_setting 'orthorhombic'
loop_
_space_group_symop_operation_xyz
x,y,z
-x,1/2-y,z
x,-y,1/2-z
1/2-x,y,-z
-x,-y,-z
x,1/2+y,-z
-x,y,1/2+z
1/2+x,-y,z
1/2+x,1/2+y,1/2+z
1/2-x,-y,1/2+z
1/2+x,1/2-y,-z
-x,1/2+y,1/2-z
1/2-x,1/2-y,1/2-z
1/2+x,y,1/2-z
1/2-x,1/2+y,z
x,1/2-y,1/2+z
loop_
_atom_site_type_symbol
_atom_site_label
_atom_site_fract_x
_atom_site_fract_y
_atom_site_fract_z
Si Si1 0.250000 0.350128 0.500000
Si Si2 0.556423 0.465987 0.377337
Si Si3 0.554528 0.394974 0.900346
Si Si4 0.828594 0.251847 0.835159
Si Si5 0.102300 0.214165 0.584191
Si Si6 0.172074 0.083781 0.189020
O O1 0.224245 0.297436 0.383999
O O2 0.298750 0.401729 0.443852
O O3 0.584272 0.500000 0.250000
O O4 0.553172 0.547436 0.470531
O O5 0.499312 0.426853 0.335659
O O6 0.582336 0.381729 0.438273
O O7 0.559614 0.291963 0.907505
O O8 0.609186 0.418938 0.831932
O O9 0.862912 0.288146 0.715434
O O10 0.816090 0.158868 0.785510
O O11 0.863440 0.243319 0.963069
O O12 0.193200 0.000000 0.250000
#
# Coordination Sequence:
#
# PCOD9532217 Si02
#       6
#     8  16  16  16  16  16
#     4  12  24  46  66  96 128 178 230 280 328 404
#     4  11  23  39  68 101 133 177 223 275 329 409
#     4  10  22  43  62  97 139 171 222 272 339 393
#     4  11  23  44  68  94 131 177 219 278 335 392
#     4  11  23  42  70  98 134 180 220 273 336 405
#     4  11  24  43  66  95 134 174 220 282 335 394
#
# _framework density 21.092676999999998
#
# number of rings (size 3 to 8) (size 9 to 14) (size 15 to 20)
#    0.000    1.091    3.636    3.818    0.000    5.091 
#    3.273    7.273    0.000    0.000    0.000    0.000 
#    0.000    0.000    0.000    0.000    0.000    0.000 
#
# Total GULP energy -245262.198800 kJ/mol
# GULP energy per Si atom -5574.140882 kJ/mol
# Density = 2.104467 g / cm^3
# Si number density = 21.092677 Si / 1000 Ang^3
#
#
#
# Elastic Constant Matrix: (Units=GPa)
#
#
# Indices 1 2 3 4 5 6 
#
# 1 72.4732 18.6242 23.2240 0.0000 0.0000 0.0000
# 2 18.6242 81.7233 4.3289 0.0000 0.0000 0.0000
# 3 23.2240 4.3289 77.8788 0.0000 0.0000 0.0000
# 4 0.0000 0.0000 0.0000 -21.9000 0.0000 0.0000
# 5 0.0000 0.0000 0.0000 0.0000 26.2823 0.0000
# 6 0.0000 0.0000 0.0000 0.0000 0.0000 -8.3777
#
#
#
# Elastic Compliance Matrix: (Units=1/GPa)
#
#
# Indices 1 2 3 4 5 6 
#
# 1 0.016165 -0.003439 -0.004629 0.000000 0.000000 0.000000
# 2 -0.003439 0.013004 0.000303 0.000000 0.000000 0.000000
# 3 -0.004629 0.000303 0.014204 0.000000 0.000000 0.000000
# 4 0.000000 0.000000 0.000000 -0.045662 0.000000 0.000000
# 5 0.000000 0.000000 0.000000 0.000000 0.038048 0.000000
# 6 0.000000 0.000000 0.000000 0.000000 0.000000 -0.119365
#
#
# Mechanical properties :
#
#
# Convention : Reuss Voigt Hill
#
# Bulk Modulus (GPa) = 35.91645 36.04773 35.98209
# Shear Modulus (GPa) = -85.04408 11.59414 -36.72497
#
# Velocity S-wave (km/s) = -6.35663 2.34706 -4.17720
# Velocity P-wave (km/s) = 6.06719 4.94694 2.48381
#
# Compressibility (1/GPa) = 0.02784240
#
# Stress axis : x y z
#
# Youngs Moduli (GPa) = 61.86044 76.89910 70.40177
#
# Poissons Ratio (x) = 0.26444 0.32592
# Poissons Ratio (y) = 0.21272 -0.02131
# Poissons Ratio (z) = 0.28638 -0.02327
#
# Static dielectric constant tensor:
#      x y z
#    x 1.810070 0.000000 0.000000 
#    y 0.000000 1.771590 0.000000 
#    z 0.000000 0.000000 1.784090 
# 
# From -- ./inp_files/14216.got.cif
#   From: 2010.05.17/outbox.cif.g08.bks.cpg/sg73_8_cif.got.tgz:14216.got - 2010.06.03 17:35:07.
