data_PCOD9532680
_publ_section_title
;
Structure prediction by ZEFSAII (Michael W. Deem and Ramdas Pophale) SiO2 
 PCOD9532680
Probable space group: I B C A 
;
_chemical_formula_sum "Si O2"
_cell_formula_units_Z 64
_cell_length_a 19.457956
_cell_length_b 12.119806
_cell_length_c 9.396299
_cell_angle_alpha 90.000000
_cell_angle_beta 90.000000
_cell_angle_gamma 90.000000
_cell_volume 2215.897733
_symmetry_space_group_name_H-M "I B C A "
_symmetry_group_IT_number 73
_symmetry_cell_setting 'orthorhombic'
loop_
_space_group_symop_operation_xyz
x,y,z
-x,1/2-y,z
x,-y,1/2-z
1/2-x,y,-z
-x,-y,-z
x,1/2+y,-z
-x,y,1/2+z
1/2+x,-y,z
1/2+x,1/2+y,1/2+z
1/2-x,-y,1/2+z
1/2+x,1/2-y,-z
-x,1/2+y,1/2-z
1/2-x,1/2-y,1/2-z
1/2+x,y,1/2-z
1/2-x,1/2+y,z
x,1/2-y,1/2+z
loop_
_atom_site_type_symbol
_atom_site_label
_atom_site_fract_x
_atom_site_fract_y
_atom_site_fract_z
Si Si1 0.852051 0.096389 0.609134
Si Si2 0.208186 0.642904 0.191388
Si Si3 0.920636 0.817684 0.321372
Si Si4 0.963071 0.590659 0.099613
O O1 0.773796 0.072847 0.650259
O O2 0.893272 0.191284 0.700634
O O3 0.519920 0.131831 0.717566
O O4 0.894203 0.016199 0.882657
O O5 0.250000 0.750000 0.250000
O O6 0.650241 0.614186 0.193553
O O7 0.161425 0.649614 0.048344
O O8 0.944662 0.818750 0.483005
O O9 0.000000 0.000000 0.500000
#
# Coordination Sequence:
#
# PCOD9532680 Si02
#       4
#    16  16  16  16
#     4  10  23  48  84 118 166 216 278 356 428 507
#     4   9  20  48  81 117 162 217 281 344 433 502
#     4  11  26  51  79 119 167 218 278 346 424 515
#     4  12  26  50  77 122 164 215 280 339 431 514
#
# _framework density 28.882200000000001
#
# number of rings (size 3 to 8) (size 9 to 14) (size 15 to 20)
#    0.000    1.500    2.500    0.750    0.000    3.000 
#   18.000   15.000    0.000    0.000    0.000    1.750 
#    0.000    0.000    0.000    0.000    0.000    0.000 
#
# Total GULP energy -178550.953364 kJ/mol
# GULP energy per Si atom -5579.717293 kJ/mol
# Density = 2.881646 g / cm^3
# Si number density = 28.882200 Si / 1000 Ang^3
#
#
#
# Elastic Constant Matrix: (Units=GPa)
#
#
# Indices 1 2 3 4 5 6 
#
# 1 343.3862 72.4247 94.6174 0.0000 0.0000 0.0000
# 2 72.4247 170.1937 63.6107 0.0000 0.0000 0.0000
# 3 94.6174 63.6107 196.8950 0.0000 0.0000 0.0000
# 4 0.0000 0.0000 0.0000 31.3003 0.0000 0.0000
# 5 0.0000 0.0000 0.0000 0.0000 52.4752 0.0000
# 6 0.0000 0.0000 0.0000 0.0000 0.0000 61.6256
#
#
#
# Elastic Compliance Matrix: (Units=1/GPa)
#
#
# Indices 1 2 3 4 5 6 
#
# 1 0.003494 -0.000977 -0.001363 0.000000 0.000000 0.000000
# 2 -0.000977 0.006956 -0.001778 0.000000 0.000000 0.000000
# 3 -0.001363 -0.001778 0.006308 0.000000 0.000000 0.000000
# 4 0.000000 0.000000 0.000000 0.031949 0.000000 0.000000
# 5 0.000000 0.000000 0.000000 0.000000 0.019057 0.000000
# 6 0.000000 0.000000 0.000000 0.000000 0.000000 0.016227
#
#
# Mechanical properties :
#
#
# Convention : Reuss Voigt Hill
#
# Bulk Modulus (GPa) = 117.34641 130.19784 123.77213
# Shear Modulus (GPa) = 52.59433 61.06835 56.83134
#
# Velocity S-wave (km/s) = 4.27194 4.60324 4.44068
# Velocity P-wave (km/s) = 8.06537 8.56912 8.32106
#
# Compressibility (1/GPa) = 0.00852178
#
# Stress axis : x y z
#
# Youngs Moduli (GPa) = 286.21023 143.76231 158.52238
#
# Poissons Ratio (x) = 0.14050 0.21611
# Poissons Ratio (y) = 0.27971 0.28179
# Poissons Ratio (z) = 0.39018 0.25555
#
# Static dielectric constant tensor:
#      x y z
#    x 2.197810 0.000000 0.000000 
#    y 0.000000 2.434840 0.000000 
#    z 0.000000 0.000000 2.939910 
# 
# From -- ./inp_files/9576.got.cif
#   From: 2010.05.17/outbox.cif.g08.bks.cpg/sg73_5_cif.got.tgz:9576.got - 2010.06.03 17:35:07.
