data_PCOD9532467
_publ_section_title
;
Structure prediction by ZEFSAII (Michael W. Deem and Ramdas Pophale) SiO2 
 PCOD9532467
Probable space group: I B C A 
;
_chemical_formula_sum "Si O2"
_cell_formula_units_Z 96
_cell_length_a 13.802283
_cell_length_b 22.670473
_cell_length_c 13.987148
_cell_angle_alpha 90.000000
_cell_angle_beta 90.000000
_cell_angle_gamma 90.000000
_cell_volume 4376.638531
_symmetry_space_group_name_H-M "I B C A "
_symmetry_group_IT_number 73
_symmetry_cell_setting 'orthorhombic'
loop_
_space_group_symop_operation_xyz
x,y,z
-x,1/2-y,z
x,-y,1/2-z
1/2-x,y,-z
-x,-y,-z
x,1/2+y,-z
-x,y,1/2+z
1/2+x,-y,z
1/2+x,1/2+y,1/2+z
1/2-x,-y,1/2+z
1/2+x,1/2-y,-z
-x,1/2+y,1/2-z
1/2-x,1/2-y,1/2-z
1/2+x,y,1/2-z
1/2-x,1/2+y,z
x,1/2-y,1/2+z
loop_
_atom_site_type_symbol
_atom_site_label
_atom_site_fract_x
_atom_site_fract_y
_atom_site_fract_z
Si Si1 0.786242 0.738105 0.358165
Si Si2 0.386030 0.496372 0.483082
Si Si3 0.112243 0.351859 0.184208
Si Si4 0.754626 0.461565 0.655267
Si Si5 0.918484 0.200839 0.393158
Si Si6 0.915024 0.370145 0.082298
O O1 0.750000 0.750000 0.250000
O O2 0.855962 0.793777 0.375551
O O3 0.685907 0.730692 0.414630
O O4 0.846451 0.677822 0.366938
O O5 0.500000 0.500000 0.500000
O O6 0.344069 0.542593 0.405933
O O7 0.329281 0.506894 0.581603
O O8 0.364951 0.432437 0.437314
O O9 0.198154 0.398998 0.179449
O O10 0.092227 0.332953 0.293015
O O11 0.013676 0.377678 0.140958
O O12 0.741815 0.500000 0.750000
O O13 0.940535 0.157116 0.479325
O O14 0.000000 0.250000 0.383708
#
# Coordination Sequence:
#
# PCOD9532467 Si02
#       6
#    16  16  16  16  16  16
#     4  10  23  40  69 101 137 180 232 293 374 433
#     4  11  26  49  69 106 144 190 252 305 370 447
#     4  11  23  46  69 101 144 180 243 301 358 444
#     4  11  26  47  74 101 141 191 249 303 371 442
#     4  11  24  42  68 105 142 187 238 293 374 443
#     4  12  24  44  71 101 147 189 236 307 364 443
#
# _framework density 21.934640999999999
#
# number of rings (size 3 to 8) (size 9 to 14) (size 15 to 20)
#    0.000    1.000    1.667    5.000    9.333    2.000 
#    9.000    0.000    0.000    0.000    0.000    0.000 
#    0.000    0.000    0.000    0.000    0.000    0.000 
#
# Total GULP energy -268611.363053 kJ/mol
# GULP energy per Si atom -5596.070064 kJ/mol
# Density = 2.188472 g / cm^3
# Si number density = 21.934641 Si / 1000 Ang^3
#
#
#
# Elastic Constant Matrix: (Units=GPa)
#
#
# Indices 1 2 3 4 5 6 
#
# 1 106.0419 7.7522 27.2342 -0.0001 0.0000 0.0000
# 2 7.7522 82.1628 12.9769 -0.0004 0.0001 0.0000
# 3 27.2342 12.9769 116.0259 -0.0004 0.0001 0.0000
# 4 -0.0001 -0.0004 -0.0004 30.7342 0.0001 0.0000
# 5 0.0000 0.0001 0.0001 0.0001 27.7394 0.0000
# 6 0.0000 0.0000 0.0000 0.0000 0.0000 41.9069
#
#
#
# Elastic Compliance Matrix: (Units=1/GPa)
#
#
# Indices 1 2 3 4 5 6 
#
# 1 0.010063 -0.000587 -0.002296 0.000000 0.000000 0.000000
# 2 -0.000587 0.012424 -0.001252 0.000000 0.000000 0.000000
# 3 -0.002296 -0.001252 0.009298 0.000000 0.000000 0.000000
# 4 0.000000 0.000000 0.000000 0.032537 0.000000 0.000000
# 5 0.000000 0.000000 0.000000 0.000000 0.036050 0.000000
# 6 0.000000 0.000000 0.000000 0.000000 0.000000 0.023862
#
#
# Mechanical properties :
#
#
# Convention : Reuss Voigt Hill
#
# Bulk Modulus (GPa) = 42.52648 44.46192 43.49420
# Shear Modulus (GPa) = 35.62717 37.16057 36.39387
#
# Velocity S-wave (km/s) = 4.03456 4.12047 4.07774
# Velocity P-wave (km/s) = 6.41354 6.55377 6.48403
#
# Compressibility (1/GPa) = 0.02351476
#
# Stress axis : x y z
#
# Youngs Moduli (GPa) = 99.37493 80.48913 107.55236
#
# Poissons Ratio (x) = 0.04723 0.24698
# Poissons Ratio (y) = 0.05831 0.13464
# Poissons Ratio (z) = 0.22820 0.10076
#
# Static dielectric constant tensor:
#      x y z
#    x 1.815310 0.000000 0.000000 
#    y 0.000000 1.801210 0.000000 
#    z 0.000000 0.000000 1.797520 
# 
# From -- ./inp_files/17013.got.cif
#   From: 2010.05.17/outbox.cif.g08.bks.cpg/sg73_9_cif.got.tgz:17013.got - 2010.06.03 17:35:07.
