data_PCOD9532677
_publ_section_title
;
Structure prediction by ZEFSAII (Michael W. Deem and Ramdas Pophale) SiO2 
 PCOD9532677
Probable space group: I B C A 
;
_chemical_formula_sum "Si O2"
_cell_formula_units_Z 64
_cell_length_a 24.835605
_cell_length_b 11.285321
_cell_length_c 8.733178
_cell_angle_alpha 90.000000
_cell_angle_beta 90.000000
_cell_angle_gamma 90.000000
_cell_volume 2447.715695
_symmetry_space_group_name_H-M "I B C A "
_symmetry_group_IT_number 73
_symmetry_cell_setting 'orthorhombic'
loop_
_space_group_symop_operation_xyz
x,y,z
-x,1/2-y,z
x,-y,1/2-z
1/2-x,y,-z
-x,-y,-z
x,1/2+y,-z
-x,y,1/2+z
1/2+x,-y,z
1/2+x,1/2+y,1/2+z
1/2-x,-y,1/2+z
1/2+x,1/2-y,-z
-x,1/2+y,1/2-z
1/2-x,1/2-y,1/2-z
1/2+x,y,1/2-z
1/2-x,1/2+y,z
x,1/2-y,1/2+z
loop_
_atom_site_type_symbol
_atom_site_label
_atom_site_fract_x
_atom_site_fract_y
_atom_site_fract_z
Si Si1 0.690737 0.000000 0.750000
Si Si2 0.151776 0.324095 0.490004
Si Si3 0.649608 0.500000 0.750000
Si Si4 0.250000 0.152245 0.500000
Si Si5 0.066108 0.131750 0.463280
Si Si6 0.516694 0.500000 0.250000
O O1 0.654290 0.087788 0.652235
O O2 0.729281 0.070692 0.863747
O O3 0.170613 0.391978 0.644739
O O4 0.199247 0.231585 0.458597
O O5 0.093424 0.259876 0.497901
O O6 0.613924 0.562143 0.880182
O O7 0.018259 0.100101 0.343084
O O8 0.048548 0.071976 0.621178
#
# Coordination Sequence:
#
# PCOD9532677 Si02
#       6
#     8  16   8   8  16   8
#     4  12  28  49  76 115 160 198 260 315 378 469
#     4  12  27  49  78 112 158 210 257 319 387 455
#     4  11  26  47  74 112 156 199 260 315 382 468
#     4  12  28  50  80 116 156 208 256 312 384 464
#     4  10  23  48  79 114 154 202 254 326 398 458
#     4   9  22  50  84 117 152 197 266 326 388 481
#
# _framework density 26.146827999999999
#
# number of rings (size 3 to 8) (size 9 to 14) (size 15 to 20)
#    0.000    1.000    0.000    4.500    0.000   14.000 
#    0.000   26.250    0.000    3.000    0.000    0.000 
#    0.000    0.000    0.000    0.000    0.000    0.000 
#
# Total GULP energy -179297.433899 kJ/mol
# GULP energy per Si atom -5603.044809 kJ/mol
# Density = 2.608732 g / cm^3
# Si number density = 26.146828 Si / 1000 Ang^3
#
#
#
# Elastic Constant Matrix: (Units=GPa)
#
#
# Indices 1 2 3 4 5 6 
#
# 1 122.6022 88.9128 85.9345 0.0000 0.0000 0.0000
# 2 88.9128 159.7222 104.7700 0.0000 0.0000 0.0000
# 3 85.9345 104.7700 213.2305 0.0000 0.0000 0.0000
# 4 0.0000 0.0000 0.0000 48.1944 0.0000 0.0000
# 5 0.0000 0.0000 0.0000 0.0000 93.0520 0.0000
# 6 0.0000 0.0000 0.0000 0.0000 0.0000 50.5056
#
#
#
# Elastic Compliance Matrix: (Units=1/GPa)
#
#
# Indices 1 2 3 4 5 6 
#
# 1 0.014743 -0.006359 -0.002817 0.000000 0.000000 0.000000
# 2 -0.006359 0.011981 -0.003324 0.000000 0.000000 0.000000
# 3 -0.002817 -0.003324 0.007458 0.000000 0.000000 0.000000
# 4 0.000000 0.000000 0.000000 0.020749 0.000000 0.000000
# 5 0.000000 0.000000 0.000000 0.000000 0.010747 0.000000
# 6 0.000000 0.000000 0.000000 0.000000 0.000000 0.019800
#
#
# Mechanical properties :
#
#
# Convention : Reuss Voigt Hill
#
# Bulk Modulus (GPa) = 108.91006 117.19882 113.05444
# Shear Modulus (GPa) = 44.03782 52.74623 48.39202
#
# Velocity S-wave (km/s) = 4.10841 4.49632 4.30674
# Velocity P-wave (km/s) = 8.01555 8.47800 8.25002
#
# Compressibility (1/GPa) = 0.00918189
#
# Stress axis : x y z
#
# Youngs Moduli (GPa) = 67.83092 83.46397 134.07759
#
# Poissons Ratio (x) = 0.53074 0.37769
# Poissons Ratio (y) = 0.43133 0.44570
# Poissons Ratio (z) = 0.19108 0.27745
#
# Static dielectric constant tensor:
#      x y z
#    x 2.121860 0.000000 0.000000 
#    y 0.000000 2.174760 0.000000 
#    z 0.000000 0.000000 1.977830 
# 
# From -- ./inp_files/8269.got.cif
#   From: 2010.05.17/outbox.cif.g08.bks.cpg/sg73_5_cif.got.tgz:8269.got - 2010.06.03 17:35:07.
