data_PCOD9532585
_publ_section_title
;
Structure prediction by ZEFSAII (Michael W. Deem and Ramdas Pophale) SiO2 
 PCOD9532585
Probable space group: I B C A 
;
_chemical_formula_sum "Si O2"
_cell_formula_units_Z 64
_cell_length_a 8.405081
_cell_length_b 11.110047
_cell_length_c 28.958842
_cell_angle_alpha 90.000000
_cell_angle_beta 90.000000
_cell_angle_gamma 90.000000
_cell_volume 2704.201135
_symmetry_space_group_name_H-M "I B C A "
_symmetry_group_IT_number 73
_symmetry_cell_setting 'orthorhombic'
loop_
_space_group_symop_operation_xyz
x,y,z
-x,1/2-y,z
x,-y,1/2-z
1/2-x,y,-z
-x,-y,-z
x,1/2+y,-z
-x,y,1/2+z
1/2+x,-y,z
1/2+x,1/2+y,1/2+z
1/2-x,-y,1/2+z
1/2+x,1/2-y,-z
-x,1/2+y,1/2-z
1/2-x,1/2-y,1/2-z
1/2+x,y,1/2-z
1/2-x,1/2+y,z
x,1/2-y,1/2+z
loop_
_atom_site_type_symbol
_atom_site_label
_atom_site_fract_x
_atom_site_fract_y
_atom_site_fract_z
Si Si1 0.000000 0.250000 0.260340
Si Si2 0.242660 0.093929 0.708262
Si Si3 0.124710 0.540635 0.036705
Si Si4 0.154905 0.157798 0.614604
Si Si5 0.000000 0.750000 0.600668
O O1 0.868297 0.201355 0.225764
O O2 0.923036 0.355949 0.290529
O O3 0.165984 0.066240 0.658621
O O4 0.235588 0.000000 0.750000
O O5 0.166722 0.424656 0.068712
O O6 0.042398 0.635490 0.069728
O O7 0.250000 0.596105 0.000000
O O8 0.000000 0.500000 0.000000
O O9 0.323129 0.227200 0.621922
O O10 0.000000 0.250000 0.614064
#
# Coordination Sequence:
#
# PCOD9532585 Si02
#       5
#     8  16  16  16   8
#     4  10  23  44  69 104 144 192 254 301 389 454
#     4  11  24  46  75 105 150 198 249 319 383 456
#     4  12  27  49  77 114 153 207 257 321 393 459
#     4  12  28  50  81 115 158 205 269 324 391 472
#     4  12  29  50  81 114 160 206 262 325 395 466
#
# _framework density 23.666879000000002
#
# number of rings (size 3 to 8) (size 9 to 14) (size 15 to 20)
#    0.000    0.500    3.750    3.000    5.250    8.000 
#    0.000    0.000    0.000    0.000    0.000    0.000 
#    0.000    0.000    0.000    0.000    0.000    0.000 
#
# Total GULP energy -178150.105705 kJ/mol
# GULP energy per Si atom -5567.190803 kJ/mol
# Density = 2.361301 g / cm^3
# Si number density = 23.666879 Si / 1000 Ang^3
#
#
#
# Elastic Constant Matrix: (Units=GPa)
#
#
# Indices 1 2 3 4 5 6 
#
# 1 138.0109 17.9969 18.3308 0.0000 0.0000 0.0000
# 2 17.9969 41.8286 10.7897 0.0000 0.0000 0.0000
# 3 18.3308 10.7897 128.0442 0.0000 0.0000 0.0000
# 4 0.0000 0.0000 0.0000 -57.9695 0.0000 0.0000
# 5 0.0000 0.0000 0.0000 0.0000 -33.8074 0.0000
# 6 0.0000 0.0000 0.0000 0.0000 0.0000 22.9544
#
#
#
# Elastic Compliance Matrix: (Units=1/GPa)
#
#
# Indices 1 2 3 4 5 6 
#
# 1 0.007766 -0.003122 -0.000849 0.000000 0.000000 0.000000
# 2 -0.003122 0.025694 -0.001718 0.000000 0.000000 0.000000
# 3 -0.000849 -0.001718 0.008076 0.000000 0.000000 0.000000
# 4 0.000000 0.000000 0.000000 -0.017250 0.000000 0.000000
# 5 0.000000 0.000000 0.000000 0.000000 -0.029579 0.000000
# 6 0.000000 0.000000 0.000000 0.000000 0.000000 0.043565
#
#
# Mechanical properties :
#
#
# Convention : Reuss Voigt Hill
#
# Bulk Modulus (GPa) = 33.15943 44.67981 38.91962
# Shear Modulus (GPa) = 83.75107 3.61992 43.68549
#
# Velocity S-wave (km/s) = 5.95519 1.23808 4.30100
# Velocity P-wave (km/s) = 7.83116 4.57858 6.41445
#
# Compressibility (1/GPa) = 0.03015734
#
# Stress axis : x y z
#
# Youngs Moduli (GPa) = 128.77178 38.92015 123.82265
#
# Poissons Ratio (x) = 0.12152 0.10508
# Poissons Ratio (y) = 0.40206 0.21274
# Poissons Ratio (z) = 0.10928 0.06687
#
# Static dielectric constant tensor:
#      x y z
#    x 1.925340 0.000000 0.000000 
#    y 0.000000 1.925610 0.000000 
#    z 0.000000 0.000000 1.978920 
# 
# From -- ./inp_files/4019.got.cif
#   From: 2010.05.17/outbox.cif.g08.bks.cpg/sg73_3_cif.got.tgz:4019.got - 2010.06.03 17:35:07.
