data_PCOD9532636
_publ_section_title
;
Structure prediction by ZEFSAII (Michael W. Deem and Ramdas Pophale) SiO2 
 PCOD9532636
Probable space group: I B C A 
;
_chemical_formula_sum "Si O2"
_cell_formula_units_Z 88
_cell_length_a 11.070388
_cell_length_b 18.328630
_cell_length_c 19.262351
_cell_angle_alpha 90.000000
_cell_angle_beta 90.000000
_cell_angle_gamma 90.000000
_cell_volume 3908.428208
_symmetry_space_group_name_H-M "I B C A "
_symmetry_group_IT_number 73
_symmetry_cell_setting 'orthorhombic'
loop_
_space_group_symop_operation_xyz
x,y,z
-x,1/2-y,z
x,-y,1/2-z
1/2-x,y,-z
-x,-y,-z
x,1/2+y,-z
-x,y,1/2+z
1/2+x,-y,z
1/2+x,1/2+y,1/2+z
1/2-x,-y,1/2+z
1/2+x,1/2-y,-z
-x,1/2+y,1/2-z
1/2-x,1/2-y,1/2-z
1/2+x,y,1/2-z
1/2-x,1/2+y,z
x,1/2-y,1/2+z
loop_
_atom_site_type_symbol
_atom_site_label
_atom_site_fract_x
_atom_site_fract_y
_atom_site_fract_z
Si Si1 0.421399 0.114580 0.893675
Si Si2 0.147676 0.332528 0.421415
Si Si3 0.000000 0.750000 0.969397
Si Si4 0.500000 0.250000 0.693720
Si Si5 0.364762 0.383503 0.237188
Si Si6 0.665141 0.500000 0.250000
Si Si7 0.993147 0.963937 0.117100
O O1 0.286584 0.144967 0.910963
O O2 0.510550 0.178071 0.921308
O O3 0.427549 0.100331 0.810909
O O4 0.449092 0.033464 0.920045
O O5 0.109848 0.272259 0.478858
O O6 0.085867 0.301422 0.352241
O O7 0.072696 0.406814 0.433278
O O8 0.599525 0.299154 0.731823
O O9 0.237997 0.423709 0.245244
O O10 0.412869 0.420781 0.166536
O O11 0.600551 0.509211 0.323926
#
# Coordination Sequence:
#
# PCOD9532636 Si02
#       7
#    16  16   8   8  16   8  16
#     4  12  22  40  66  93 128 176 218 278 331 393
#     4  10  23  46  62  89 133 179 222 283 322 388
#     4  11  27  44  62  86 129 175 242 272 314 385
#     4   9  23  38  62  92 139 175 212 266 340 403
#     4  11  20  37  61 102 133 173 208 267 341 412
#     4  12  18  36  64 102 140 164 206 270 334 422
#     4  11  21  39  69 101 136 166 214 276 343 412
#
# _framework density 22.515446000000001
#
# number of rings (size 3 to 8) (size 9 to 14) (size 15 to 20)
#    0.000    1.091    5.455    1.091    0.000    2.909 
#    0.000    5.455    0.000    0.000    0.000    0.000 
#    0.000    0.000    0.000    0.000    0.000    0.000 
#
# Total GULP energy -245009.645759 kJ/mol
# GULP energy per Si atom -5568.401040 kJ/mol
# Density = 2.246420 g / cm^3
# Si number density = 22.515446 Si / 1000 Ang^3
#
#
#
# Elastic Constant Matrix: (Units=GPa)
#
#
# Indices 1 2 3 4 5 6 
#
# 1 90.3968 50.1878 10.6005 0.0000 0.0000 0.0000
# 2 50.1878 104.9828 -2.9279 0.0000 0.0000 0.0000
# 3 10.6005 -2.9279 36.2550 0.0000 0.0000 0.0000
# 4 0.0000 0.0000 0.0000 8.5726 0.0000 0.0000
# 5 0.0000 0.0000 0.0000 0.0000 23.9330 0.0000
# 6 0.0000 0.0000 0.0000 0.0000 0.0000 48.8047
#
#
#
# Elastic Compliance Matrix: (Units=1/GPa)
#
#
# Indices 1 2 3 4 5 6 
#
# 1 0.016020 -0.007807 -0.005314 0.000000 0.000000 0.000000
# 2 -0.007807 0.013351 0.003361 0.000000 0.000000 0.000000
# 3 -0.005314 0.003361 0.029408 0.000000 0.000000 0.000000
# 4 0.000000 0.000000 0.000000 0.116651 0.000000 0.000000
# 5 0.000000 0.000000 0.000000 0.000000 0.041783 0.000000
# 6 0.000000 0.000000 0.000000 0.000000 0.000000 0.020490
#
#
# Mechanical properties :
#
#
# Convention : Reuss Voigt Hill
#
# Bulk Modulus (GPa) = 25.47246 38.59504 32.03375
# Shear Modulus (GPa) = 18.49738 27.84701 23.17219
#
# Velocity S-wave (km/s) = 2.86936 3.52063 3.21155
# Velocity P-wave (km/s) = 4.72393 5.80562 5.29248
#
# Compressibility (1/GPa) = 0.03925809
#
# Stress axis : x y z
#
# Youngs Moduli (GPa) = 62.42318 74.90031 34.00469
#
# Poissons Ratio (x) = 0.58471 0.18071
# Poissons Ratio (y) = 0.48731 -0.11428
# Poissons Ratio (z) = 0.33174 -0.25172
#
# Static dielectric constant tensor:
#      x y z
#    x 1.871620 0.000000 0.000000 
#    y 0.000000 1.764940 0.000000 
#    z 0.000000 0.000000 1.893730 
# 
# From -- ./inp_files/11927.got.cif
#   From: 2010.05.17/outbox.cif.g08.bks.cpg/sg73_6_cif.got.tgz:11927.got - 2010.06.03 17:35:07.
