data_PCOD9532587
_publ_section_title
;
Structure prediction by ZEFSAII (Michael W. Deem and Ramdas Pophale) SiO2 
 PCOD9532587
Probable space group: I B C A 
;
_chemical_formula_sum "Si O2"
_cell_formula_units_Z 64
_cell_length_a 12.940330
_cell_length_b 25.115037
_cell_length_c 8.111923
_cell_angle_alpha 90.000000
_cell_angle_beta 90.000000
_cell_angle_gamma 90.000000
_cell_volume 2636.349558
_symmetry_space_group_name_H-M "I B C A "
_symmetry_group_IT_number 73
_symmetry_cell_setting 'orthorhombic'
loop_
_space_group_symop_operation_xyz
x,y,z
-x,1/2-y,z
x,-y,1/2-z
1/2-x,y,-z
-x,-y,-z
x,1/2+y,-z
-x,y,1/2+z
1/2+x,-y,z
1/2+x,1/2+y,1/2+z
1/2-x,-y,1/2+z
1/2+x,1/2-y,-z
-x,1/2+y,1/2-z
1/2-x,1/2-y,1/2-z
1/2+x,y,1/2-z
1/2-x,1/2+y,z
x,1/2-y,1/2+z
loop_
_atom_site_type_symbol
_atom_site_label
_atom_site_fract_x
_atom_site_fract_y
_atom_site_fract_z
Si Si1 0.923679 0.071924 0.104154
Si Si2 0.084301 0.681048 0.560005
Si Si3 0.867727 0.545809 0.525249
Si Si4 0.862424 0.294058 0.064033
O O1 0.894982 0.065655 0.292937
O O2 0.883950 0.018082 0.016705
O O3 0.884863 0.124759 0.016491
O O4 0.048394 0.070724 0.095559
O O5 0.128718 0.729910 0.452785
O O6 0.959237 0.685585 0.544882
O O7 0.118394 0.689234 0.747793
O O8 0.750000 0.558894 0.500000
O O9 0.750000 0.310605 0.000000
#
# Coordination Sequence:
#
# PCOD9532587 Si02
#       4
#    16  16  16  16
#     4  10  23  44  71 103 141 182 231 290 348 418
#     4  11  23  44  69 102 146 186 235 291 348 416
#     4  10  23  44  70 104 142 179 230 290 352 420
#     4  11  24  43  69 104 146 188 236 291 347 413
#
# _framework density 24.275991999999999
#
# number of rings (size 3 to 8) (size 9 to 14) (size 15 to 20)
#    0.000    1.500    0.000    5.250    0.000   10.000 
#    0.000   12.500    0.000    0.000    0.000    0.000 
#    0.000    0.000    0.000    0.000    0.000    0.000 
#
# Total GULP energy -179532.219659 kJ/mol
# GULP energy per Si atom -5610.381864 kJ/mol
# Density = 2.422074 g / cm^3
# Si number density = 24.275992 Si / 1000 Ang^3
#
#
#
# Elastic Constant Matrix: (Units=GPa)
#
#
# Indices 1 2 3 4 5 6 
#
# 1 166.9897 38.5749 64.1558 0.0000 0.0001 0.0042
# 2 38.5749 190.2252 87.3544 -0.0001 0.0001 -0.0083
# 3 64.1558 87.3544 138.1275 0.0013 -0.0024 0.0344
# 4 0.0000 -0.0001 0.0013 27.8360 -0.0002 0.0018
# 5 0.0001 0.0001 -0.0024 -0.0002 23.2623 -0.0107
# 6 0.0042 -0.0083 0.0344 0.0018 -0.0107 -282.2480
#
#
#
# Elastic Compliance Matrix: (Units=1/GPa)
#
#
# Indices 1 2 3 4 5 6 
#
# 1 0.007291 0.000108 -0.003455 0.000000 0.000000 0.000000
# 2 0.000108 0.007410 -0.004736 0.000000 -0.000001 -0.000001
# 3 -0.003455 -0.004736 0.011840 -0.000001 0.000001 0.000002
# 4 0.000000 0.000000 -0.000001 0.035925 0.000000 0.000000
# 5 0.000000 -0.000001 0.000001 0.000000 0.042988 -0.000002
# 6 0.000000 -0.000001 0.000002 0.000000 -0.000002 -0.003543
#
#
# Mechanical properties :
#
#
# Convention : Reuss Voigt Hill
#
# Bulk Modulus (GPa) = 96.39182 97.27918 96.83550
# Shear Modulus (GPa) = 41.14068 -25.87946 7.63061
#
# Velocity S-wave (km/s) = 4.12115 -3.26859 1.77485
# Velocity P-wave (km/s) = 7.90177 5.09061 6.64651
#
# Compressibility (1/GPa) = 0.01037432
#
# Stress axis : x y z
#
# Youngs Moduli (GPa) = 137.16177 134.95150 84.46228
#
# Poissons Ratio (x) = -0.01457 0.29178
# Poissons Ratio (y) = -0.01481 0.40005
# Poissons Ratio (z) = 0.47383 0.63918
#
# Static dielectric constant tensor:
#      x y z
#    x 1.903420 0.000000 0.000000 
#    y 0.000000 1.977970 0.000000 
#    z 0.000000 0.000000 1.846580 
# 
# From -- ./inp_files/4621.got.cif
#   From: 2010.05.17/outbox.cif.g08.bks.cpg/sg73_3_cif.got.tgz:4621.got - 2010.06.03 17:35:07.
