data_PCOD9532201
_publ_section_title
;
Structure prediction by ZEFSAII (Michael W. Deem and Ramdas Pophale) SiO2 
 PCOD9532201
Probable space group: I B C A 
;
_chemical_formula_sum "Si O2"
_cell_formula_units_Z 96
_cell_length_a 9.668085
_cell_length_b 24.063069
_cell_length_c 17.719485
_cell_angle_alpha 90.000000
_cell_angle_beta 90.000000
_cell_angle_gamma 90.000000
_cell_volume 4122.328262
_symmetry_space_group_name_H-M "I B C A "
_symmetry_group_IT_number 73
_symmetry_cell_setting 'orthorhombic'
loop_
_space_group_symop_operation_xyz
x,y,z
-x,1/2-y,z
x,-y,1/2-z
1/2-x,y,-z
-x,-y,-z
x,1/2+y,-z
-x,y,1/2+z
1/2+x,-y,z
1/2+x,1/2+y,1/2+z
1/2-x,-y,1/2+z
1/2+x,1/2-y,-z
-x,1/2+y,1/2-z
1/2-x,1/2-y,1/2-z
1/2+x,y,1/2-z
1/2-x,1/2+y,z
x,1/2-y,1/2+z
loop_
_atom_site_type_symbol
_atom_site_label
_atom_site_fract_x
_atom_site_fract_y
_atom_site_fract_z
Si Si1 0.770444 0.113464 0.588747
Si Si2 0.041208 0.186426 0.827087
Si Si3 0.262151 0.930964 0.091663
Si Si4 0.643299 0.273348 0.932172
Si Si5 0.771442 0.821048 0.319831
Si Si6 0.533897 0.009368 0.410155
O O1 0.750000 0.103524 0.500000
O O2 0.626497 0.142159 0.619850
O O3 0.874291 0.165018 0.599003
O O4 0.855679 0.058194 0.610257
O O5 0.137984 0.187184 0.754002
O O6 0.000000 0.250000 0.854723
O O7 0.888976 0.167652 0.802261
O O8 0.305100 0.872763 0.126438
O O9 0.382676 0.973458 0.117275
O O10 0.112925 0.954335 0.116474
O O11 0.250000 0.927198 0.000000
O O12 0.500000 0.250000 0.960150
O O13 0.702565 0.234013 0.868152
O O14 0.750000 0.275175 0.000000
O O15 0.500000 0.000000 0.500000
#
# Coordination Sequence:
#
# PCOD9532201 Si02
#       6
#    16  16  16  16  16  16
#     4  11  25  41  73 102 144 182 244 307 370 443
#     4  12  28  48  71 104 145 203 242 299 378 456
#     4  10  23  42  74 105 140 184 242 306 370 445
#     4  11  25  41  70 107 145 183 239 306 368 446
#     4  12  27  46  72 100 149 194 250 298 375 459
#     4  10  22  42  71 107 143 185 238 302 381 439
#
# _framework density 23.28781
#
# number of rings (size 3 to 8) (size 9 to 14) (size 15 to 20)
#    0.000    1.000    1.667    4.000   16.333    0.000 
#    0.000    0.833    0.000    0.000    0.000    0.000 
#    0.000    0.000    0.000    0.000    0.000    0.000 
#
# Total GULP energy -267713.226717 kJ/mol
# GULP energy per Si atom -5577.358890 kJ/mol
# Density = 2.323481 g / cm^3
# Si number density = 23.287810 Si / 1000 Ang^3
#
#
#
# Elastic Constant Matrix: (Units=GPa)
#
#
# Indices 1 2 3 4 5 6 
#
# 1 170.8654 42.0597 37.5124 0.0000 0.0000 0.0000
# 2 42.0597 116.6844 18.7024 0.0000 0.0000 0.0000
# 3 37.5124 18.7024 75.1466 0.0000 0.0000 0.0001
# 4 0.0000 0.0000 0.0000 12.3973 0.0000 0.0000
# 5 0.0000 0.0000 0.0000 0.0000 30.8340 0.0000
# 6 0.0000 0.0000 0.0001 0.0000 0.0000 19.7601
#
#
#
# Elastic Compliance Matrix: (Units=1/GPa)
#
#
# Indices 1 2 3 4 5 6 
#
# 1 0.007014 -0.002049 -0.002991 0.000000 0.000000 0.000000
# 2 -0.002049 0.009525 -0.001348 0.000000 0.000000 0.000000
# 3 -0.002991 -0.001348 0.015136 0.000000 0.000000 0.000000
# 4 0.000000 0.000000 0.000000 0.080663 0.000000 0.000000
# 5 0.000000 0.000000 0.000000 0.000000 0.032432 0.000000
# 6 0.000000 0.000000 0.000000 0.000000 0.000000 0.050607
#
#
# Mechanical properties :
#
#
# Convention : Reuss Voigt Hill
#
# Bulk Modulus (GPa) = 52.91358 62.13839 57.52598
# Shear Modulus (GPa) = 23.31543 30.22642 26.77093
#
# Velocity S-wave (km/s) = 3.16758 3.60662 3.39421
# Velocity P-wave (km/s) = 6.01241 6.63960 6.33377
#
# Compressibility (1/GPa) = 0.01889874
#
# Stress axis : x y z
#
# Youngs Moduli (GPa) = 142.58113 104.99120 66.06789
#
# Poissons Ratio (x) = 0.21509 0.19762
# Poissons Ratio (y) = 0.29210 0.08905
# Poissons Ratio (z) = 0.42649 0.14151
#
# Static dielectric constant tensor:
#      x y z
#    x 1.923630 0.000000 0.000000 
#    y 0.000000 1.929900 0.000000 
#    z 0.000000 0.000000 1.849300 
# 
# From -- ./inp_files/24895.got.cif
#   From: 2010.05.17/outbox.cif.g08.bks.cpg/sg73_13_cif.got.tgz:24895.got - 2010.06.03 17:35:07.
