data_PCOD9532986
_publ_section_title
;
Structure prediction by ZEFSAII (Michael W. Deem and Ramdas Pophale) SiO2 
 PCOD9532986
Probable space group: I B C A 
;
_chemical_formula_sum "Si O2"
_cell_formula_units_Z 96
_cell_length_a 11.570254
_cell_length_b 16.680334
_cell_length_c 21.216297
_cell_angle_alpha 90.000000
_cell_angle_beta 90.000000
_cell_angle_gamma 90.000000
_cell_volume 4094.654116
_symmetry_space_group_name_H-M "I B C A "
_symmetry_group_IT_number 73
_symmetry_cell_setting 'orthorhombic'
loop_
_space_group_symop_operation_xyz
x,y,z
-x,1/2-y,z
x,-y,1/2-z
1/2-x,y,-z
-x,-y,-z
x,1/2+y,-z
-x,y,1/2+z
1/2+x,-y,z
1/2+x,1/2+y,1/2+z
1/2-x,-y,1/2+z
1/2+x,1/2-y,-z
-x,1/2+y,1/2-z
1/2-x,1/2-y,1/2-z
1/2+x,y,1/2-z
1/2-x,1/2+y,z
x,1/2-y,1/2+z
loop_
_atom_site_type_symbol
_atom_site_label
_atom_site_fract_x
_atom_site_fract_y
_atom_site_fract_z
Si Si1 0.412307 0.641164 0.467312
Si Si2 0.378903 0.296167 0.716656
Si Si3 0.738767 0.801526 0.629624
Si Si4 0.117525 0.079912 0.887380
Si Si5 0.750000 0.996369 0.000000
Si Si6 0.349154 0.441451 0.804909
Si Si7 0.000000 0.750000 0.423280
O O1 0.320409 0.700538 0.432510
O O2 0.509211 0.623085 0.417120
O O3 0.353609 0.557546 0.485102
O O4 0.474729 0.677151 0.528622
O O5 0.500000 0.250000 0.709193
O O6 0.290932 0.224715 0.697015
O O7 0.334869 0.355820 0.661384
O O8 0.401993 0.363021 0.771136
O O9 0.726550 0.897371 0.641873
O O10 0.618514 0.754822 0.616777
O O11 0.208351 0.056015 0.940937
O O12 0.076826 0.002896 0.846579
O O13 0.298548 0.500000 0.750000
#
# Coordination Sequence:
#
# PCOD9532986 Si02
#       7
#    16  16  16  16   8  16   8
#     4  12  23  45  69 107 151 194 240 303 368 449
#     4  11  24  46  73 106 146 194 254 310 367 437
#     4  12  24  48  71 110 150 192 248 310 369 445
#     4  11  24  44  72 105 147 197 244 305 374 443
#     4  12  24  44  70 104 156 188 250 292 374 454
#     4  10  24  49  70 104 143 194 254 299 370 432
#     4  12  26  42  78 108 150 192 242 304 380 448
#
# _framework density 23.445204
#
# number of rings (size 3 to 8) (size 9 to 14) (size 15 to 20)
#    0.000    0.667    5.000    2.000    3.500    0.000 
#    3.000    0.000    0.000    0.000    0.000    0.000 
#    0.000    0.000    0.000    0.000    0.000    0.000 
#
# Total GULP energy -267293.982084 kJ/mol
# GULP energy per Si atom -5568.624627 kJ/mol
# Density = 2.339184 g / cm^3
# Si number density = 23.445204 Si / 1000 Ang^3
#
#
#
# Elastic Constant Matrix: (Units=GPa)
#
#
# Indices 1 2 3 4 5 6 
#
# 1 54.8795 18.0261 -2.2818 0.0000 0.0000 0.0000
# 2 18.0261 72.2805 4.7837 0.0000 0.0000 0.0000
# 3 -2.2818 4.7837 69.9872 0.0000 0.0000 0.0000
# 4 0.0000 0.0000 0.0000 24.5224 0.0000 0.0000
# 5 0.0000 0.0000 0.0000 0.0000 -197.4624 0.0000
# 6 0.0000 0.0000 0.0000 0.0000 0.0000 7.8267
#
#
#
# Elastic Compliance Matrix: (Units=1/GPa)
#
#
# Indices 1 2 3 4 5 6 
#
# 1 0.019916 -0.005033 0.000993 0.000000 0.000000 0.000000
# 2 -0.005033 0.015170 -0.001201 0.000000 0.000000 0.000000
# 3 0.000993 -0.001201 0.014403 0.000000 0.000000 0.000000
# 4 0.000000 0.000000 0.000000 0.040779 0.000000 0.000000
# 5 0.000000 0.000000 0.000000 0.000000 -0.005064 0.000000
# 6 0.000000 0.000000 0.000000 0.000000 0.000000 0.127768
#
#
# Mechanical properties :
#
#
# Convention : Reuss Voigt Hill
#
# Bulk Modulus (GPa) = 25.63579 26.46701 26.05140
# Shear Modulus (GPa) = 21.14575 -21.24804 -0.05114
#
# Velocity S-wave (km/s) = 3.00646 -3.01372 -0.14786
# Velocity P-wave (km/s) = 4.79686 0.89255 3.33265
#
# Compressibility (1/GPa) = 0.03900796
#
# Stress axis : x y z
#
# Youngs Moduli (GPa) = 50.21063 65.92144 69.43093
#
# Poissons Ratio (x) = 0.33176 -0.06897
# Poissons Ratio (y) = 0.25269 0.08338
# Poissons Ratio (z) = -0.04987 0.07917
#
# Static dielectric constant tensor:
#      x y z
#    x 0.277440 0.000000 0.000000 
#    y 0.000000 1.930320 0.000000 
#    z 0.000000 0.000000 1.997950 
# 
# From -- ./inp_files/28951.got.cif
#   From: 2010.05.17/outbox.cif.g08.bks.cpg/sg73_15_cif.got.tgz:28951.got - 2010.06.03 17:35:07.
