data_PCOD9532756
_publ_section_title
;
Structure prediction by ZEFSAII (Michael W. Deem and Ramdas Pophale) SiO2 
 PCOD9532756
Probable space group: I B C A 
;
_chemical_formula_sum "Si O2"
_cell_formula_units_Z 64
_cell_length_a 12.053447
_cell_length_b 26.806699
_cell_length_c 7.916234
_cell_angle_alpha 90.000000
_cell_angle_beta 90.000000
_cell_angle_gamma 90.000000
_cell_volume 2557.839111
_symmetry_space_group_name_H-M "I B C A "
_symmetry_group_IT_number 73
_symmetry_cell_setting 'orthorhombic'
loop_
_space_group_symop_operation_xyz
x,y,z
-x,1/2-y,z
x,-y,1/2-z
1/2-x,y,-z
-x,-y,-z
x,1/2+y,-z
-x,y,1/2+z
1/2+x,-y,z
1/2+x,1/2+y,1/2+z
1/2-x,-y,1/2+z
1/2+x,1/2-y,-z
-x,1/2+y,1/2-z
1/2-x,1/2-y,1/2-z
1/2+x,y,1/2-z
1/2-x,1/2+y,z
x,1/2-y,1/2+z
loop_
_atom_site_type_symbol
_atom_site_label
_atom_site_fract_x
_atom_site_fract_y
_atom_site_fract_z
Si Si1 0.840582 0.905987 0.618339
Si Si2 0.750000 0.002514 0.500000
Si Si3 0.586895 0.091663 0.495200
Si Si4 0.500000 0.750000 0.650946
Si Si5 0.137045 0.807050 0.593850
O O1 0.750000 0.877558 0.500000
O O2 0.875162 0.890541 0.807266
O O3 0.955404 0.911758 0.516410
O O4 0.785768 0.960722 0.637586
O O5 0.646577 0.039221 0.530766
O O6 0.630704 0.134019 0.624207
O O7 0.462567 0.795607 0.536094
O O8 0.396252 0.729723 0.756803
O O9 0.250000 0.794776 0.500000
#
# Coordination Sequence:
#
# PCOD9532756 Si02
#       5
#    16   8  16   8  16
#     4  10  27  41  66  96 139 181 223 276 324 388
#     4  10  24  42  66  94 140 180 222 270 332 376
#     4  12  23  44  69 100 132 181 229 271 330 395
#     4  10  24  44  66 102 130 170 212 272 348 392
#     4  11  23  43  71  98 133 170 217 275 328 405
#
# _framework density 25.021118000000001
#
# number of rings (size 3 to 8) (size 9 to 14) (size 15 to 20)
#    0.750    0.500    1.250    3.750    3.500    2.000 
#    0.000    6.250    0.000    0.000    0.000    0.000 
#    0.000    0.000    0.000    0.000    0.000    0.000 
#
# Total GULP energy -178748.917115 kJ/mol
# GULP energy per Si atom -5585.903660 kJ/mol
# Density = 2.496417 g / cm^3
# Si number density = 25.021118 Si / 1000 Ang^3
#
#
#
# Elastic Constant Matrix: (Units=GPa)
#
#
# Indices 1 2 3 4 5 6 
#
# 1 144.6467 -27.0901 23.6452 -0.0013 0.0004 0.0004
# 2 -27.0901 67.1541 5.2475 -0.0016 0.0006 0.0007
# 3 23.6452 5.2475 72.1053 -0.0027 0.0022 0.0015
# 4 -0.0013 -0.0016 -0.0027 10.8158 0.0005 0.0008
# 5 0.0004 0.0006 0.0022 0.0005 41.4553 -0.0002
# 6 0.0004 0.0007 0.0015 0.0008 -0.0002 30.9816
#
#
#
# Elastic Compliance Matrix: (Units=1/GPa)
#
#
# Indices 1 2 3 4 5 6 
#
# 1 0.008035 0.003467 -0.002887 0.000001 0.000000 0.000000
# 2 0.003467 0.016472 -0.002336 0.000002 0.000000 0.000000
# 3 -0.002887 -0.002336 0.014985 0.000003 -0.000001 -0.000001
# 4 0.000001 0.000002 0.000003 0.092458 -0.000001 -0.000002
# 5 0.000000 0.000000 -0.000001 -0.000001 0.024122 0.000000
# 6 0.000000 0.000000 -0.000001 -0.000002 0.000000 0.032277
#
#
# Mechanical properties :
#
#
# Convention : Reuss Voigt Hill
#
# Bulk Modulus (GPa) = 27.79300 31.94569 29.86935
# Shear Modulus (GPa) = 24.52729 35.45743 29.99236
#
# Velocity S-wave (km/s) = 3.13431 3.76852 3.46595
# Velocity P-wave (km/s) = 4.92245 5.63302 5.28968
#
# Compressibility (1/GPa) = 0.03598028
#
# Stress axis : x y z
#
# Youngs Moduli (GPa) = 124.46153 60.70861 66.73198
#
# Poissons Ratio (x) = -0.21046 0.19266
# Poissons Ratio (y) = -0.43148 0.15586
# Poissons Ratio (z) = 0.35933 0.14179
#
# Static dielectric constant tensor:
#      x y z
#    x 1.944180 0.000000 0.000000 
#    y 0.000000 1.948730 0.000000 
#    z 0.000000 0.000000 2.115770 
# 
# From -- ./inp_files/4037.got.cif
#   From: 2010.05.17/outbox.cif.g08.bks.cpg/sg73_3_cif.got.tgz:4037.got - 2010.06.03 17:35:07.
