data_PCOD9532277
_publ_section_title
;
Structure prediction by ZEFSAII (Michael W. Deem and Ramdas Pophale) SiO2 
 PCOD9532277
Probable space group: I B C A 
;
_chemical_formula_sum "Si O2"
_cell_formula_units_Z 120
_cell_length_a 26.755811
_cell_length_b 23.607380
_cell_length_c 9.367001
_cell_angle_alpha 90.000000
_cell_angle_beta 90.000000
_cell_angle_gamma 90.000000
_cell_volume 5916.521906
_symmetry_space_group_name_H-M "I B C A "
_symmetry_group_IT_number 73
_symmetry_cell_setting 'orthorhombic'
loop_
_space_group_symop_operation_xyz
x,y,z
-x,1/2-y,z
x,-y,1/2-z
1/2-x,y,-z
-x,-y,-z
x,1/2+y,-z
-x,y,1/2+z
1/2+x,-y,z
1/2+x,1/2+y,1/2+z
1/2-x,-y,1/2+z
1/2+x,1/2-y,-z
-x,1/2+y,1/2-z
1/2-x,1/2-y,1/2-z
1/2+x,y,1/2-z
1/2-x,1/2+y,z
x,1/2-y,1/2+z
loop_
_atom_site_type_symbol
_atom_site_label
_atom_site_fract_x
_atom_site_fract_y
_atom_site_fract_z
Si Si1 0.163821 0.837554 0.683164
Si Si2 0.890016 0.727865 0.128293
Si Si3 0.909028 0.102027 0.535115
Si Si4 0.553558 0.487206 0.420408
Si Si5 0.325250 0.933472 0.738611
Si Si6 0.044702 0.206357 0.099717
Si Si7 0.750000 0.613073 0.500000
Si Si8 0.637467 0.389219 0.478331
O O1 0.151850 0.770481 0.692491
O O2 0.120189 0.866748 0.590690
O O3 0.212831 0.848493 0.591424
O O4 0.163404 0.872890 0.829217
O O5 0.925567 0.709223 0.254678
O O6 0.921528 0.766181 0.021355
O O7 0.875905 0.672172 0.042167
O O8 0.873445 0.098766 0.672795
O O9 0.959010 0.139244 0.564297
O O10 0.914989 0.038441 0.485700
O O11 0.547585 0.500000 0.250000
O O12 0.500000 0.500000 0.500000
O O13 0.588177 0.430523 0.451609
O O14 0.281691 0.921113 0.621380
O O15 0.333523 0.000000 0.750000
O O16 0.324315 0.914279 0.903888
O O17 0.000000 0.250000 0.112782
#
# Coordination Sequence:
#
# PCOD9532277 Si02
#       8
#    16  16  16  16  16  16   8  16
#     4  10  23  46  70  96 136 178 233 288 361 422
#     4  11  23  42  65  98 137 184 230 284 350 417
#     4  10  22  44  66  94 140 184 224 287 352 406
#     4  12  28  44  69 104 143 190 245 289 339 421
#     4  11  23  43  72 102 139 181 231 288 367 430
#     4  11  23  39  66  97 137 182 240 287 335 401
#     4  10  26  46  72 106 134 178 230 304 356 442
#     4  12  24  44  74 101 140 192 233 287 360 427
#
# _framework density 20.282187
#
# number of rings (size 3 to 8) (size 9 to 14) (size 15 to 20)
#    0.000    1.067    5.333    0.400    3.733    1.600 
#    0.000    2.667    0.000    0.000    0.000    0.000 
#    0.000    0.000    0.000    0.000    0.000    0.000 
#
# Total GULP energy -334014.958433 kJ/mol
# GULP energy per Si atom -5566.915974 kJ/mol
# Density = 2.023602 g / cm^3
# Si number density = 20.282187 Si / 1000 Ang^3
#
#
#
# Elastic Constant Matrix: (Units=GPa)
#
#
# Indices 1 2 3 4 5 6 
#
# 1 65.1653 34.5294 42.0852 0.0000 0.0000 0.0000
# 2 34.5294 130.4234 38.0006 0.0000 0.0000 0.0000
# 3 42.0852 38.0006 144.6276 0.0000 0.0000 0.0000
# 4 0.0000 0.0000 0.0000 39.7470 0.0000 0.0000
# 5 0.0000 0.0000 0.0000 0.0000 19.8473 0.0000
# 6 0.0000 0.0000 0.0000 0.0000 0.0000 -16.1833
#
#
#
# Elastic Compliance Matrix: (Units=1/GPa)
#
#
# Indices 1 2 3 4 5 6 
#
# 1 0.020685 -0.004031 -0.004960 0.000000 0.000000 0.000000
# 2 -0.004031 0.009089 -0.001215 0.000000 0.000000 0.000000
# 3 -0.004960 -0.001215 0.008677 0.000000 0.000000 0.000000
# 4 0.000000 0.000000 0.000000 0.025159 0.000000 0.000000
# 5 0.000000 0.000000 0.000000 0.000000 0.050385 0.000000
# 6 0.000000 0.000000 0.000000 0.000000 0.000000 -0.061792
#
#
# Mechanical properties :
#
#
# Convention : Reuss Voigt Hill
#
# Bulk Modulus (GPa) = 55.43803 63.27186 59.35494
# Shear Modulus (GPa) = 63.59155 23.72227 43.65691
#
# Velocity S-wave (km/s) = 5.60549 3.42367 4.64451
# Velocity P-wave (km/s) = 8.32394 6.84779 7.62168
#
# Compressibility (1/GPa) = 0.01803816
#
# Stress axis : x y z
#
# Youngs Moduli (GPa) = 48.34465 110.02831 115.24946
#
# Poissons Ratio (x) = 0.44354 0.57163
# Poissons Ratio (y) = 0.19488 0.14003
# Poissons Ratio (z) = 0.23979 0.13368
#
# Static dielectric constant tensor:
#      x y z
#    x 1.776180 0.000000 0.000000 
#    y 0.000000 1.785670 0.000000 
#    z 0.000000 0.000000 1.739970 
# 
# From -- ./inp_files/7379.got.cif
#   From: 2010.05.17/outbox.cif.g08.bks.cpg/sg73_4_cif.got.tgz:7379.got - 2010.06.03 17:35:07.
