data_PCOD9532211
_publ_section_title
;
Structure prediction by ZEFSAII (Michael W. Deem and Ramdas Pophale) SiO2 
 PCOD9532211
Probable space group: I B C A 
;
_chemical_formula_sum "Si O2"
_cell_formula_units_Z 120
_cell_length_a 23.987891
_cell_length_b 14.392769
_cell_length_c 17.344616
_cell_angle_alpha 90.000000
_cell_angle_beta 90.000000
_cell_angle_gamma 90.000000
_cell_volume 5988.266381
_symmetry_space_group_name_H-M "I B C A "
_symmetry_group_IT_number 73
_symmetry_cell_setting 'orthorhombic'
loop_
_space_group_symop_operation_xyz
x,y,z
-x,1/2-y,z
x,-y,1/2-z
1/2-x,y,-z
-x,-y,-z
x,1/2+y,-z
-x,y,1/2+z
1/2+x,-y,z
1/2+x,1/2+y,1/2+z
1/2-x,-y,1/2+z
1/2+x,1/2-y,-z
-x,1/2+y,1/2-z
1/2-x,1/2-y,1/2-z
1/2+x,y,1/2-z
1/2-x,1/2+y,z
x,1/2-y,1/2+z
loop_
_atom_site_type_symbol
_atom_site_label
_atom_site_fract_x
_atom_site_fract_y
_atom_site_fract_z
Si Si1 0.891800 0.953105 0.416415
Si Si2 0.989899 0.643658 0.420267
Si Si3 0.086863 0.246055 0.820318
Si Si4 0.616559 0.349974 0.021624
Si Si5 0.847137 0.000000 0.250000
Si Si6 0.491791 0.388972 0.243088
Si Si7 0.695347 0.305789 0.268945
Si Si8 0.807521 0.300862 0.546661
O O1 0.855092 0.878948 0.463582
O O2 0.956079 0.922516 0.430274
O O3 0.868750 0.052309 0.441578
O O4 0.882615 0.962046 0.323249
O O5 0.934963 0.620763 0.467475
O O6 0.978517 0.644877 0.329202
O O7 0.000000 0.750000 0.444333
O O8 0.099024 0.217596 0.907963
O O9 0.055446 0.344207 0.811674
O O10 0.141746 0.244758 0.767768
O O11 0.047017 0.163841 0.786854
O O12 0.665150 0.297018 0.976910
O O13 0.809167 0.090225 0.266193
O O14 0.494779 0.500000 0.250000
O O15 0.750000 0.250000 0.250000
O O16 0.697516 0.307778 0.361322
O O17 0.750000 0.315495 0.500000
#
# Coordination Sequence:
#
# PCOD9532211 Si02
#       8
#    16  16  16  16   8  16  16  16
#     4  11  24  42  70  96 134 178 229 267 334 410
#     4  12  23  41  65  96 136 177 214 278 339 395
#     4  11  23  41  68  94 129 181 225 270 321 411
#     4  12  25  42  67  97 138 174 220 276 342 400
#     4  10  22  42  74  96 122 180 232 268 318 410
#     4  11  24  40  65  98 132 175 220 270 330 399
#     4  11  23  46  71  96 127 173 225 274 329 395
#     4  11  25  43  67  98 133 172 218 284 338 395
#
# _framework density 20.039189
#
# number of rings (size 3 to 8) (size 9 to 14) (size 15 to 20)
#    0.000    0.800    4.000    4.400    3.733    1.600 
#    3.600    0.000    0.000    0.000    0.000    0.000 
#    0.000    0.000    0.000    0.000    0.000    0.000 
#
# Total GULP energy -334730.113528 kJ/mol
# GULP energy per Si atom -5578.835225 kJ/mol
# Density = 1.999358 g / cm^3
# Si number density = 20.039189 Si / 1000 Ang^3
#
#
#
# Elastic Constant Matrix: (Units=GPa)
#
#
# Indices 1 2 3 4 5 6 
#
# 1 92.6394 1.2331 13.0110 0.0000 0.0000 0.0000
# 2 1.2331 75.0798 -18.3553 0.0000 0.0000 0.0000
# 3 13.0110 -18.3553 61.3390 0.0000 0.0000 0.0000
# 4 0.0000 0.0000 0.0000 95.7213 0.0000 0.0000
# 5 0.0000 0.0000 0.0000 0.0000 -3.4001 0.0000
# 6 0.0000 0.0000 0.0000 0.0000 0.0000 24.4204
#
#
#
# Elastic Compliance Matrix: (Units=1/GPa)
#
#
# Indices 1 2 3 4 5 6 
#
# 1 0.011173 -0.000823 -0.002616 0.000000 0.000000 0.000000
# 2 -0.000823 0.014431 0.004493 0.000000 0.000000 0.000000
# 3 -0.002616 0.004493 0.018202 0.000000 0.000000 0.000000
# 4 0.000000 0.000000 0.000000 0.010447 0.000000 0.000000
# 5 0.000000 0.000000 0.000000 0.000000 -0.294112 0.000000
# 6 0.000000 0.000000 0.000000 0.000000 0.000000 0.040949
#
#
# Mechanical properties :
#
#
# Convention : Reuss Voigt Hill
#
# Bulk Modulus (GPa) = 21.78004 24.53732 23.15868
# Shear Modulus (GPa) = -26.92338 38.89295 5.98478
#
# Velocity S-wave (km/s) = -3.66940 4.41028 1.73004
# Velocity P-wave (km/s) = 2.65714 6.18105 3.94620
#
# Compressibility (1/GPa) = 0.04591359
#
# Stress axis : x y z
#
# Youngs Moduli (GPa) = 89.50192 69.29469 54.93811
#
# Poissons Ratio (x) = 0.05704 0.14373
# Poissons Ratio (y) = 0.07367 -0.24684
# Poissons Ratio (z) = 0.23416 -0.31134
#
# Static dielectric constant tensor:
#      x y z
#    x 1.751920 0.000000 0.000000 
#    y 0.000000 1.971120 0.000000 
#    z 0.000000 0.000000 1.750390 
# 
# From -- ./inp_files/23657.got.cif
#   From: 2010.05.17/outbox.cif.g08.bks.cpg/sg73_12_cif.got.tgz:23657.got - 2010.06.03 17:35:07.
