data_PCOD9532162
_publ_section_title
;
Structure prediction by ZEFSAII (Michael W. Deem and Ramdas Pophale) SiO2 
 PCOD9532162
Probable space group: I B C A 
;
_chemical_formula_sum "Si O2"
_cell_formula_units_Z 120
_cell_length_a 11.587545
_cell_length_b 28.106069
_cell_length_c 18.244171
_cell_angle_alpha 90.000000
_cell_angle_beta 90.000000
_cell_angle_gamma 90.000000
_cell_volume 5941.767802
_symmetry_space_group_name_H-M "I B C A "
_symmetry_group_IT_number 73
_symmetry_cell_setting 'orthorhombic'
loop_
_space_group_symop_operation_xyz
x,y,z
-x,1/2-y,z
x,-y,1/2-z
1/2-x,y,-z
-x,-y,-z
x,1/2+y,-z
-x,y,1/2+z
1/2+x,-y,z
1/2+x,1/2+y,1/2+z
1/2-x,-y,1/2+z
1/2+x,1/2-y,-z
-x,1/2+y,1/2-z
1/2-x,1/2-y,1/2-z
1/2+x,y,1/2-z
1/2-x,1/2+y,z
x,1/2-y,1/2+z
loop_
_atom_site_type_symbol
_atom_site_label
_atom_site_fract_x
_atom_site_fract_y
_atom_site_fract_z
Si Si1 0.961126 0.197062 0.362077
Si Si2 0.108298 0.624550 0.720374
Si Si3 0.047475 0.467655 0.687624
Si Si4 0.913970 0.564057 0.955221
Si Si5 0.163680 0.547010 0.605898
Si Si6 0.500000 0.750000 0.616476
Si Si7 0.889200 0.174262 0.008597
Si Si8 0.218111 0.793248 0.303814
O O1 0.821892 0.198973 0.362112
O O2 0.000000 0.250000 0.339528
O O3 0.002105 0.158074 0.303142
O O4 0.033546 0.185096 0.435867
O O5 0.077787 0.582196 0.775446
O O6 0.149317 0.596799 0.648094
O O7 0.201820 0.659367 0.755740
O O8 0.982582 0.500000 0.750000
O O9 0.147592 0.504144 0.662650
O O10 0.992118 0.454058 0.610315
O O11 0.788544 0.547686 0.928603
O O12 0.927092 0.545383 0.038549
O O13 0.916339 0.621111 0.963614
O O14 0.429215 0.713093 0.567028
O O15 0.404365 0.779505 0.661074
O O16 0.750000 0.177501 0.000000
O O17 0.250000 0.750000 0.250000
#
# Coordination Sequence:
#
# PCOD9532162 Si02
#       8
#    16  16  16  16  16   8  16  16
#     4  12  23  43  68 101 141 188 242 296 352 431
#     4  11  23  44  63 100 140 185 227 290 368 425
#     4  10  24  42  66  98 135 171 234 295 357 439
#     4  11  21  42  71  95 131 181 231 287 365 429
#     4  10  22  42  67  97 129 179 235 286 359 435
#     4  12  28  42  68 102 140 192 240 292 360 422
#     4  12  24  44  73 101 140 189 240 298 358 438
#     4  12  26  42  67  99 146 188 240 295 356 435
#
# _framework density 20.196010000000001
#
# number of rings (size 3 to 8) (size 9 to 14) (size 15 to 20)
#    0.000    0.800    4.667    2.800    3.733    1.600 
#    2.400    1.333    0.000    0.000    0.000    0.000 
#    0.000    0.000    0.000    0.000    0.000    0.000 
#
# Total GULP energy -334799.414448 kJ/mol
# GULP energy per Si atom -5579.990241 kJ/mol
# Density = 2.015004 g / cm^3
# Si number density = 20.196010 Si / 1000 Ang^3
#
#
#
# Elastic Constant Matrix: (Units=GPa)
#
#
# Indices 1 2 3 4 5 6 
#
# 1 92.4090 35.4151 41.3565 0.0000 0.0000 0.0000
# 2 35.4151 142.7049 62.5405 -0.0001 0.0000 0.0000
# 3 41.3565 62.5405 122.0224 0.0001 -0.0001 0.0000
# 4 0.0000 -0.0001 0.0001 42.3897 0.0000 0.0000
# 5 0.0000 0.0000 -0.0001 0.0000 28.8281 0.0000
# 6 0.0000 0.0000 0.0000 0.0000 0.0000 27.0609
#
#
#
# Elastic Compliance Matrix: (Units=1/GPa)
#
#
# Indices 1 2 3 4 5 6 
#
# 1 0.013061 -0.001678 -0.003566 0.000000 0.000000 0.000000
# 2 -0.001678 0.009253 -0.004174 0.000000 0.000000 0.000000
# 3 -0.003566 -0.004174 0.011543 0.000000 0.000000 0.000000
# 4 0.000000 0.000000 0.000000 0.023591 0.000000 0.000000
# 5 0.000000 0.000000 0.000000 0.000000 0.034688 0.000000
# 6 0.000000 0.000000 0.000000 0.000000 0.000000 0.036954
#
#
# Mechanical properties :
#
#
# Convention : Reuss Voigt Hill
#
# Bulk Modulus (GPa) = 66.57740 70.64007 68.60873
# Shear Modulus (GPa) = 32.69399 34.17736 33.43568
#
# Velocity S-wave (km/s) = 4.02784 4.11820 4.07327
# Velocity P-wave (km/s) = 7.39381 7.59381 7.49448
#
# Compressibility (1/GPa) = 0.01502011
#
# Stress axis : x y z
#
# Youngs Moduli (GPa) = 76.56515 108.07193 86.63152
#
# Poissons Ratio (x) = 0.18138 0.30897
# Poissons Ratio (y) = 0.12850 0.36157
# Poissons Ratio (z) = 0.27307 0.45106
#
# Static dielectric constant tensor:
#      x y z
#    x 1.724940 0.000000 0.000000 
#    y 0.000000 1.692250 0.000000 
#    z 0.000000 0.000000 1.891690 
# 
# From -- ./inp_files/21500.got.cif
#   From: 2010.05.17/outbox.cif.g08.bks.cpg/sg73_11_cif.got.tgz:21500.got - 2010.06.03 17:35:07.
