data_PCOD9532682
_publ_section_title
;
Structure prediction by ZEFSAII (Michael W. Deem and Ramdas Pophale) SiO2 
 PCOD9532682
Probable space group: I B C A 
;
_chemical_formula_sum "Si O2"
_cell_formula_units_Z 48
_cell_length_a 8.382555
_cell_length_b 15.666225
_cell_length_c 13.153672
_cell_angle_alpha 90.000000
_cell_angle_beta 90.000000
_cell_angle_gamma 90.000000
_cell_volume 1727.379572
_symmetry_space_group_name_H-M "I B C A "
_symmetry_group_IT_number 73
_symmetry_cell_setting 'orthorhombic'
loop_
_space_group_symop_operation_xyz
x,y,z
-x,1/2-y,z
x,-y,1/2-z
1/2-x,y,-z
-x,-y,-z
x,1/2+y,-z
-x,y,1/2+z
1/2+x,-y,z
1/2+x,1/2+y,1/2+z
1/2-x,-y,1/2+z
1/2+x,1/2-y,-z
-x,1/2+y,1/2-z
1/2-x,1/2-y,1/2-z
1/2+x,y,1/2-z
1/2-x,1/2+y,z
x,1/2-y,1/2+z
loop_
_atom_site_type_symbol
_atom_site_label
_atom_site_fract_x
_atom_site_fract_y
_atom_site_fract_z
Si Si1 0.334873 0.385191 0.803986
Si Si2 0.874089 0.029949 0.584967
Si Si3 0.818797 0.716515 0.612166
O O1 0.210171 0.452579 0.852428
O O2 0.509509 0.413764 0.842025
O O3 0.323303 0.369480 0.682303
O O4 0.292019 0.290750 0.840708
O O5 0.750000 0.061916 0.500000
O O6 0.000000 0.000000 0.500000
O O7 0.750000 0.715735 0.500000
O O8 0.000000 0.750000 0.611348
#
# Coordination Sequence:
#
# PCOD9532682 Si02
#       3
#    16  16  16
#     4  10  23  49  84 124 164 218 285 351 424 508
#     4   9  18  42  84 129 171 214 268 341 423 505
#     4  11  26  53  82 114 165 225 287 351 423 507
#
# _framework density 27.787756000000002
#
# number of rings (size 3 to 8) (size 9 to 14) (size 15 to 20)
#    0.000    2.000    0.000    3.000    0.000    5.333 
#    0.000   46.667    0.000   16.000    0.000    0.000 
#    0.000    0.000    0.000    0.000    0.000    0.000 
#
# Total GULP energy -134261.764706 kJ/mol
# GULP energy per Si atom -5594.240196 kJ/mol
# Density = 2.772451 g / cm^3
# Si number density = 27.787756 Si / 1000 Ang^3
#
#
#
# Elastic Constant Matrix: (Units=GPa)
#
#
# Indices 1 2 3 4 5 6 
#
# 1 233.1890 53.3623 85.9045 0.0000 0.0000 0.0000
# 2 53.3623 156.1493 101.3283 0.0000 0.0000 0.0000
# 3 85.9045 101.3283 313.4462 0.0000 0.0000 0.0000
# 4 0.0000 0.0000 0.0000 -27.4173 0.0000 0.0000
# 5 0.0000 0.0000 0.0000 0.0000 43.8301 0.0000
# 6 0.0000 0.0000 0.0000 0.0000 0.0000 43.7903
#
#
#
# Elastic Compliance Matrix: (Units=1/GPa)
#
#
# Indices 1 2 3 4 5 6 
#
# 1 0.004894 -0.001015 -0.001013 0.000000 0.000000 0.000000
# 2 -0.001015 0.008315 -0.002410 0.000000 0.000000 0.000000
# 3 -0.001013 -0.002410 0.004247 0.000000 0.000000 0.000000
# 4 0.000000 0.000000 0.000000 -0.036473 0.000000 0.000000
# 5 0.000000 0.000000 0.000000 0.000000 0.022815 0.000000
# 6 0.000000 0.000000 0.000000 0.000000 0.000000 0.022836
#
#
# Mechanical properties :
#
#
# Convention : Reuss Voigt Hill
#
# Bulk Modulus (GPa) = 116.55174 131.55275 124.05224
# Shear Modulus (GPa) = 130.31230 42.85325 86.58277
#
# Velocity S-wave (km/s) = 6.85546 3.93130 5.58805
# Velocity P-wave (km/s) = 10.23219 8.24934 9.29380
#
# Compressibility (1/GPa) = 0.00857988
#
# Stress axis : x y z
#
# Youngs Moduli (GPa) = 204.33785 120.26866 235.46037
#
# Poissons Ratio (x) = 0.12207 0.23855
# Poissons Ratio (y) = 0.20740 0.56740
# Poissons Ratio (z) = 0.20702 0.28982
#
# Static dielectric constant tensor:
#      x y z
#    x 2.660810 0.000000 0.000000 
#    y 0.000000 2.674900 0.000000 
#    z 0.000000 0.000000 2.714140 
# 
# From -- ./inp_files/15332.got.cif
#   From: 2010.05.17/outbox.cif.g08.bks.cpg/sg73_8_cif.got.tgz:15332.got - 2010.06.03 17:35:07.
