data_PCOD9532826
_publ_section_title
;
Structure prediction by ZEFSAII (Michael W. Deem and Ramdas Pophale) SiO2 
 PCOD9532826
Probable space group: I B C A 
;
_chemical_formula_sum "Si O2"
_cell_formula_units_Z 96
_cell_length_a 21.156351
_cell_length_b 8.605159
_cell_length_c 23.241088
_cell_angle_alpha 90.000000
_cell_angle_beta 90.000000
_cell_angle_gamma 90.000000
_cell_volume 4231.127555
_symmetry_space_group_name_H-M "I B C A "
_symmetry_group_IT_number 73
_symmetry_cell_setting 'orthorhombic'
loop_
_space_group_symop_operation_xyz
x,y,z
-x,1/2-y,z
x,-y,1/2-z
1/2-x,y,-z
-x,-y,-z
x,1/2+y,-z
-x,y,1/2+z
1/2+x,-y,z
1/2+x,1/2+y,1/2+z
1/2-x,-y,1/2+z
1/2+x,1/2-y,-z
-x,1/2+y,1/2-z
1/2-x,1/2-y,1/2-z
1/2+x,y,1/2-z
1/2-x,1/2+y,z
x,1/2-y,1/2+z
loop_
_atom_site_type_symbol
_atom_site_label
_atom_site_fract_x
_atom_site_fract_y
_atom_site_fract_z
Si Si1 0.548239 0.015029 0.691327
Si Si2 0.172774 0.197687 0.812132
Si Si3 0.500000 0.750000 0.120773
Si Si4 0.719384 0.500000 0.750000
Si Si5 0.500000 0.750000 0.403166
Si Si6 0.331150 0.364197 0.552780
Si Si7 0.936484 0.007991 0.535552
Si Si8 0.750000 0.897283 0.500000
O O1 0.610164 0.110930 0.710374
O O2 0.521673 0.116456 0.639407
O O3 0.508452 0.000000 0.750000
O O4 0.547539 0.847974 0.661164
O O5 0.180615 0.372531 0.787423
O O6 0.163410 0.179535 0.880523
O O7 0.234245 0.101350 0.791100
O O8 0.453354 0.641711 0.082165
O O9 0.441806 0.666968 0.437270
O O10 0.383477 0.443232 0.510616
O O11 0.274614 0.491976 0.550317
O O12 0.305495 0.213277 0.520680
O O13 0.000000 0.000000 0.500000
#
# Coordination Sequence:
#
# PCOD9532826 Si02
#       8
#    16  16   8   8   8  16  16   8
#     4  11  23  45  69 101 135 183 239 291 360 425
#     4  11  23  44  71  96 133 186 232 308 349 424
#     4  10  24  44  68 102 140 181 225 294 368 426
#     4  10  24  48  68  98 136 178 256 292 358 416
#     4  10  24  44  66 102 142 183 231 296 374 424
#     4  11  24  43  67  97 143 178 244 284 366 440
#     4  11  24  40  70 102 138 184 232 290 361 439
#     4  10  26  42  60 100 136 190 222 288 346 444
#
# _framework density 22.688987000000001
#
# number of rings (size 3 to 8) (size 9 to 14) (size 15 to 20)
#    0.000    1.333    0.833    4.000    9.333    0.000 
#    7.500    0.000    0.000    0.000    0.000    0.000 
#    0.000    0.000    0.000    0.000    0.000    0.000 
#
# Total GULP energy -267498.625382 kJ/mol
# GULP energy per Si atom -5572.888029 kJ/mol
# Density = 2.263735 g / cm^3
# Si number density = 22.688987 Si / 1000 Ang^3
#
#
#
# Elastic Constant Matrix: (Units=GPa)
#
#
# Indices 1 2 3 4 5 6 
#
# 1 83.1690 47.1216 37.7353 0.0000 0.0000 0.0000
# 2 47.1216 167.7449 80.0028 0.0000 0.0000 0.0000
# 3 37.7353 80.0028 155.8126 0.0000 0.0000 0.0000
# 4 0.0000 0.0000 0.0000-3294.7156 0.0000 0.0000
# 5 0.0000 0.0000 0.0000 0.0000 28.4738 0.0000
# 6 0.0000 0.0000 0.0000 0.0000 0.0000 24.9196
#
#
#
# Elastic Compliance Matrix: (Units=1/GPa)
#
#
# Indices 1 2 3 4 5 6 
#
# 1 0.014716 -0.003224 -0.001909 0.000000 0.000000 0.000000
# 2 -0.003224 0.008601 -0.003635 0.000000 0.000000 0.000000
# 3 -0.001909 -0.003635 0.008747 0.000000 0.000000 0.000000
# 4 0.000000 0.000000 0.000000 -0.000304 0.000000 0.000000
# 5 0.000000 0.000000 0.000000 0.000000 0.035120 0.000000
# 6 0.000000 0.000000 0.000000 0.000000 0.000000 0.040129
#
#
# Mechanical properties :
#
#
# Convention : Reuss Voigt Hill
#
# Bulk Modulus (GPa) = 68.83180 81.82734 75.32957
# Shear Modulus (GPa) = 38.64348 -632.13998 -296.74825
#
# Velocity S-wave (km/s) = 4.13144 -16.70975 -11.44873
# Velocity P-wave (km/s) = 7.29118 18.33425 11.89503
#
# Compressibility (1/GPa) = 0.01452817
#
# Stress axis : x y z
#
# Youngs Moduli (GPa) = 67.95240 116.26789 114.32616
#
# Poissons Ratio (x) = 0.37480 0.21823
# Poissons Ratio (y) = 0.21905 0.41563
# Poissons Ratio (z) = 0.12971 0.42269
#
# Static dielectric constant tensor:
#      x y z
#    x 1.938270 0.000000 0.000000 
#    y 0.000000 -6.801380 0.000000 
#    z 0.000000 0.000000 1.984280 
# 
# From -- ./inp_files/30328.got.cif
#   From: 2010.05.17/outbox.cif.g08.bks.cpg/sg73_16_cif.got.tgz:30328.got - 2010.06.03 17:35:07.
