data_PCOD9532346
_publ_section_title
;
Structure prediction by ZEFSAII (Michael W. Deem and Ramdas Pophale) SiO2 
 PCOD9532346
Probable space group: I B C A 
;
_chemical_formula_sum "Si O2"
_cell_formula_units_Z 72
_cell_length_a 13.935324
_cell_length_b 11.453825
_cell_length_c 19.503482
_cell_angle_alpha 90.000000
_cell_angle_beta 90.000000
_cell_angle_gamma 90.000000
_cell_volume 3113.004639
_symmetry_space_group_name_H-M "I B C A "
_symmetry_group_IT_number 73
_symmetry_cell_setting 'orthorhombic'
loop_
_space_group_symop_operation_xyz
x,y,z
-x,1/2-y,z
x,-y,1/2-z
1/2-x,y,-z
-x,-y,-z
x,1/2+y,-z
-x,y,1/2+z
1/2+x,-y,z
1/2+x,1/2+y,1/2+z
1/2-x,-y,1/2+z
1/2+x,1/2-y,-z
-x,1/2+y,1/2-z
1/2-x,1/2-y,1/2-z
1/2+x,y,1/2-z
1/2-x,1/2+y,z
x,1/2-y,1/2+z
loop_
_atom_site_type_symbol
_atom_site_label
_atom_site_fract_x
_atom_site_fract_y
_atom_site_fract_z
Si Si1 0.655443 0.520570 0.369975
Si Si2 0.004666 0.000000 0.750000
Si Si3 0.480238 0.406765 0.058866
Si Si4 0.843295 0.286297 0.541415
Si Si5 0.368989 0.912056 0.651293
O O1 0.582560 0.485981 0.310398
O O2 0.585223 0.611834 0.408576
O O3 0.676554 0.408889 0.418707
O O4 0.755013 0.570657 0.342492
O O5 0.926859 0.097580 0.722941
O O6 0.413735 0.471504 0.115612
O O7 0.500000 0.500000 0.000000
O O8 0.419117 0.314675 0.017296
O O9 0.750000 0.243513 0.500000
O O10 0.880367 0.193703 0.597419
#
# Coordination Sequence:
#
# PCOD9532346 Si02
#       5
#    16   8  16  16  16
#     4  10  22  45  70 101 141 193 233 300 353 429
#     4  10  24  46  70  92 140 190 246 274 356 428
#     4   9  21  38  63 101 145 174 231 288 362 423
#     4  11  23  40  71 107 140 182 234 294 369 424
#     4  11  23  44  70 100 142 190 233 303 350 427
#
# _framework density 23.128781
#
# number of rings (size 3 to 8) (size 9 to 14) (size 15 to 20)
#    0.000    1.778    2.222    0.667    6.222    8.000 
#    0.000    6.667    0.000    0.000    0.000    0.000 
#    0.000    0.000    0.000    0.000    0.000    0.000 
#
# Total GULP energy -200507.833124 kJ/mol
# GULP energy per Si atom -5569.662031 kJ/mol
# Density = 2.307614 g / cm^3
# Si number density = 23.128781 Si / 1000 Ang^3
#
#
#
# Elastic Constant Matrix: (Units=GPa)
#
#
# Indices 1 2 3 4 5 6 
#
# 1 173.5079 4.7156 7.4371 0.0000 0.0000 0.0000
# 2 4.7156 47.8295 -10.6726 0.0000 0.0000 0.0000
# 3 7.4371 -10.6726 25.7684 0.0000 0.0000 0.0000
# 4 0.0000 0.0000 0.0000 6.2051 0.0000 0.0000
# 5 0.0000 0.0000 0.0000 0.0000 38.4590 0.0000
# 6 0.0000 0.0000 0.0000 0.0000 0.0000 31.8409
#
#
#
# Elastic Compliance Matrix: (Units=1/GPa)
#
#
# Indices 1 2 3 4 5 6 
#
# 1 0.005884 -0.001057 -0.002136 0.000000 0.000000 0.000000
# 2 -0.001057 0.023226 0.009925 0.000000 0.000000 0.000000
# 3 -0.002136 0.009925 0.043534 0.000000 0.000000 0.000000
# 4 0.000000 0.000000 0.000000 0.161158 0.000000 0.000000
# 5 0.000000 0.000000 0.000000 0.000000 0.026002 0.000000
# 6 0.000000 0.000000 0.000000 0.000000 0.000000 0.031406
#
#
# Mechanical properties :
#
#
# Convention : Reuss Voigt Hill
#
# Bulk Modulus (GPa) = 11.61321 27.78513 19.69917
# Shear Modulus (GPa) = 16.31598 31.67603 23.99601
#
# Velocity S-wave (km/s) = 2.65889 3.70476 3.22451
# Velocity P-wave (km/s) = 3.80241 5.50814 4.73275
#
# Compressibility (1/GPa) = 0.08610880
#
# Stress axis : x y z
#
# Youngs Moduli (GPa) = 169.96132 43.05451 22.97048
#
# Poissons Ratio (x) = 0.04549 0.04906
# Poissons Ratio (y) = 0.17959 -0.22798
# Poissons Ratio (z) = 0.36300 -0.42730
#
# Static dielectric constant tensor:
#      x y z
#    x 1.822730 0.000000 0.000000 
#    y 0.000000 1.811000 0.000000 
#    z 0.000000 0.000000 1.963450 
# 
# From -- ./inp_files/25846.got.cif
#   From: 2010.05.17/outbox.cif.g08.bks.cpg/sg73_13_cif.got.tgz:25846.got - 2010.06.03 17:35:07.
