data_PCOD9532869
_publ_section_title
;
Structure prediction by ZEFSAII (Michael W. Deem and Ramdas Pophale) SiO2 
 PCOD9532869
Probable space group: I B C A 
;
_chemical_formula_sum "Si O2"
_cell_formula_units_Z 72
_cell_length_a 12.237212
_cell_length_b 9.232798
_cell_length_c 26.319421
_cell_angle_alpha 90.000000
_cell_angle_beta 90.000000
_cell_angle_gamma 90.000000
_cell_volume 2973.665737
_symmetry_space_group_name_H-M "I B C A "
_symmetry_group_IT_number 73
_symmetry_cell_setting 'orthorhombic'
loop_
_space_group_symop_operation_xyz
x,y,z
-x,1/2-y,z
x,-y,1/2-z
1/2-x,y,-z
-x,-y,-z
x,1/2+y,-z
-x,y,1/2+z
1/2+x,-y,z
1/2+x,1/2+y,1/2+z
1/2-x,-y,1/2+z
1/2+x,1/2-y,-z
-x,1/2+y,1/2-z
1/2-x,1/2-y,1/2-z
1/2+x,y,1/2-z
1/2-x,1/2+y,z
x,1/2-y,1/2+z
loop_
_atom_site_type_symbol
_atom_site_label
_atom_site_fract_x
_atom_site_fract_y
_atom_site_fract_z
Si Si1 0.000000 0.250000 0.393362
Si Si2 0.295846 0.000000 0.750000
Si Si3 0.750000 0.967092 0.500000
Si Si4 0.186518 0.252134 0.816748
Si Si5 0.434609 0.546164 0.062336
Si Si6 0.664120 0.811384 0.596365
O O1 0.900660 0.200141 0.357772
O O2 0.957422 0.381396 0.426168
O O3 0.226082 0.117871 0.782529
O O4 0.362835 0.112622 0.715126
O O5 0.737195 0.869847 0.550167
O O6 0.865344 0.052303 0.509242
O O7 0.284585 0.331172 0.848338
O O8 0.349010 0.637197 0.095775
O O9 0.548475 0.621239 0.078891
#
# Coordination Sequence:
#
# PCOD9532869 Si02
#       6
#     8   8   8  16  16  16
#     4  12  24  42  74 106 142 200 246 304 378 440
#     4  10  24  44  74 104 138 198 246 312 378 438
#     4  12  24  44  72 108 142 194 246 300 356 450
#     4  11  23  45  72 104 148 192 247 314 370 444
#     4  11  26  43  71 106 145 196 245 293 365 438
#     4  11  25  47  69 104 152 192 244 305 369 441
#
# _framework density 24.212540000000001
#
# number of rings (size 3 to 8) (size 9 to 14) (size 15 to 20)
#    0.000    0.889    2.222    4.000    3.111    4.444 
#    0.000    8.889    0.000    0.000    0.000    0.000 
#    0.000    0.000    0.000    0.000    0.000    0.000 
#
# Total GULP energy -200554.388692 kJ/mol
# GULP energy per Si atom -5570.955241 kJ/mol
# Density = 2.415743 g / cm^3
# Si number density = 24.212540 Si / 1000 Ang^3
#
#
#
# Elastic Constant Matrix: (Units=GPa)
#
#
# Indices 1 2 3 4 5 6 
#
# 1 125.1052 34.7663 43.8383 0.0000 0.0000 0.0000
# 2 34.7663 116.3432 28.5202 0.0000 0.0000 0.0000
# 3 43.8383 28.5202 76.3957 0.0000 0.0000 0.0000
# 4 0.0000 0.0000 0.0000 53.4508 0.0000 0.0000
# 5 0.0000 0.0000 0.0000 0.0000 21.5625 0.0000
# 6 0.0000 0.0000 0.0000 0.0000 0.0000 35.2679
#
#
#
# Elastic Compliance Matrix: (Units=1/GPa)
#
#
# Indices 1 2 3 4 5 6 
#
# 1 0.010336 -0.001799 -0.005260 0.000000 0.000000 0.000000
# 2 -0.001799 0.009774 -0.002616 0.000000 0.000000 0.000000
# 3 -0.005260 -0.002616 0.017085 0.000000 0.000000 0.000000
# 4 0.000000 0.000000 0.000000 0.018709 0.000000 0.000000
# 5 0.000000 0.000000 0.000000 0.000000 0.046377 0.000000
# 6 0.000000 0.000000 0.000000 0.000000 0.000000 0.028354
#
#
# Mechanical properties :
#
#
# Convention : Reuss Voigt Hill
#
# Bulk Modulus (GPa) = 56.03969 59.12154 57.58061
# Shear Modulus (GPa) = 32.06479 36.10420 34.08450
#
# Velocity S-wave (km/s) = 3.64305 3.86571 3.75603
# Velocity P-wave (km/s) = 6.39460 6.66301 6.53018
#
# Compressibility (1/GPa) = 0.01784450
#
# Stress axis : x y z
#
# Youngs Moduli (GPa) = 96.74603 102.30846 58.53222
#
# Poissons Ratio (x) = 0.18410 0.30785
# Poissons Ratio (y) = 0.17409 0.15314
# Poissons Ratio (z) = 0.50884 0.26768
#
# Static dielectric constant tensor:
#      x y z
#    x 2.101350 0.000000 0.000000 
#    y 0.000000 1.962740 0.000000 
#    z 0.000000 0.000000 1.993270 
# 
# From -- ./inp_files/8320.got.cif
#   From: 2010.05.17/outbox.cif.g08.bks.cpg/sg73_5_cif.got.tgz:8320.got - 2010.06.03 17:35:07.
