data_PCOD9532693
_publ_section_title
;
Structure prediction by ZEFSAII (Michael W. Deem and Ramdas Pophale) SiO2 
 PCOD9532693
Probable space group: I B C A 
;
_chemical_formula_sum "Si O2"
_cell_formula_units_Z 104
_cell_length_a 24.079246
_cell_length_b 8.867423
_cell_length_c 21.085913
_cell_angle_alpha 90.000000
_cell_angle_beta 90.000000
_cell_angle_gamma 90.000000
_cell_volume 4502.282273
_symmetry_space_group_name_H-M "I B C A "
_symmetry_group_IT_number 73
_symmetry_cell_setting 'orthorhombic'
loop_
_space_group_symop_operation_xyz
x,y,z
-x,1/2-y,z
x,-y,1/2-z
1/2-x,y,-z
-x,-y,-z
x,1/2+y,-z
-x,y,1/2+z
1/2+x,-y,z
1/2+x,1/2+y,1/2+z
1/2-x,-y,1/2+z
1/2+x,1/2-y,-z
-x,1/2+y,1/2-z
1/2-x,1/2-y,1/2-z
1/2+x,y,1/2-z
1/2-x,1/2+y,z
x,1/2-y,1/2+z
loop_
_atom_site_type_symbol
_atom_site_label
_atom_site_fract_x
_atom_site_fract_y
_atom_site_fract_z
Si Si1 0.825175 0.130998 0.964243
Si Si2 0.661173 0.873954 0.207264
Si Si3 0.855749 0.887133 0.389801
Si Si4 0.112424 0.624273 0.201999
Si Si5 0.078006 0.404405 0.863662
Si Si6 0.016034 0.422550 0.067322
Si Si7 0.750000 0.390655 0.000000
O O1 0.834270 0.111588 0.039144
O O2 0.792234 0.286145 0.961004
O O3 0.880815 0.120425 0.924066
O O4 0.783663 0.994420 0.950728
O O5 0.667513 0.762838 0.145333
O O6 0.647125 0.743121 0.257121
O O7 0.695427 0.000000 0.250000
O O8 0.611190 0.981311 0.182195
O O9 0.922204 0.907301 0.403749
O O10 0.847539 0.030750 0.344561
O O11 0.087140 0.500000 0.250000
O O12 0.071499 0.738050 0.165600
O O13 0.022766 0.487825 0.884168
O O14 0.000000 0.250000 0.058839
O O15 0.000000 0.500000 0.000000
#
# Coordination Sequence:
#
# PCOD9532693 Si02
#       7
#    16  16  16  16  16  16   8
#     4  11  22  39  64  96 124 163 198 263 337 378
#     4   9  19  38  58  86 121 168 218 256 301 368
#     4  11  21  39  64  90 128 163 212 259 319 380
#     4   9  21  38  60  90 121 172 219 259 304 371
#     4  11  21  39  66  90 129 168 208 263 321 375
#     4  12  26  38  57  98 132 168 215 252 317 395
#     4  10  24  38  56  96 132 154 208 246 324 424
#
# _framework density 23.099395000000001
#
# number of rings (size 3 to 8) (size 9 to 14) (size 15 to 20)
#    0.000    1.538    3.077    1.846    2.154    0.000 
#    0.000   11.538    0.000    0.000    0.000  271.385 
#    0.000    0.000    0.000    0.000    0.000    0.000 
#
# Total GULP energy -289649.712952 kJ/mol
# GULP energy per Si atom -5570.186788 kJ/mol
# Density = 2.304682 g / cm^3
# Si number density = 23.099395 Si / 1000 Ang^3
#
#
#
# Elastic Constant Matrix: (Units=GPa)
#
#
# Indices 1 2 3 4 5 6 
#
# 1 45.9271 19.9952 11.1230 0.0000 0.0000 0.0000
# 2 19.9952 193.8414 57.0660 0.0000 0.0000 0.0000
# 3 11.1230 57.0660 127.6055 0.0000 0.0000 0.0000
# 4 0.0000 0.0000 0.0000 54.5245 0.0000 0.0000
# 5 0.0000 0.0000 0.0000 0.0000 6.0976 0.0000
# 6 0.0000 0.0000 0.0000 0.0000 0.0000 9.6008
#
#
#
# Elastic Compliance Matrix: (Units=1/GPa)
#
#
# Indices 1 2 3 4 5 6 
#
# 1 0.022927 -0.002046 -0.001083 0.000000 0.000000 0.000000
# 2 -0.002046 0.006124 -0.002560 0.000000 0.000000 0.000000
# 3 -0.001083 -0.002560 0.009076 0.000000 0.000000 0.000000
# 4 0.000000 0.000000 0.000000 0.018340 0.000000 0.000000
# 5 0.000000 0.000000 0.000000 0.000000 0.163999 0.000000
# 6 0.000000 0.000000 0.000000 0.000000 0.000000 0.104158
#
#
# Mechanical properties :
#
#
# Convention : Reuss Voigt Hill
#
# Bulk Modulus (GPa) = 37.38716 60.41581 48.90149
# Shear Modulus (GPa) = 14.49616 32.65724 23.57670
#
# Velocity S-wave (km/s) = 2.50782 3.76409 3.19825
# Velocity P-wave (km/s) = 4.96045 6.71585 5.90376
#
# Compressibility (1/GPa) = 0.02674715
#
# Stress axis : x y z
#
# Youngs Moduli (GPa) = 43.61710 163.30245 110.18036
#
# Poissons Ratio (x) = 0.33411 0.11938
# Poissons Ratio (y) = 0.08924 0.28208
# Poissons Ratio (z) = 0.04726 0.41808
#
# Static dielectric constant tensor:
#      x y z
#    x 1.977810 0.000000 0.000000 
#    y 0.000000 1.901440 0.000000 
#    z 0.000000 0.000000 1.941730 
# 
# From -- ./inp_files/27790.got.cif
#   From: 2010.05.17/outbox.cif.g08.bks.cpg/sg73_14_cif.got.tgz:27790.got - 2010.06.03 17:35:07.
