data_PCOD9532126
_publ_section_title
;
Structure prediction by ZEFSAII (Michael W. Deem and Ramdas Pophale) SiO2 
 PCOD9532126
Probable space group: I B C A 
;
_chemical_formula_sum "Si O2"
_cell_formula_units_Z 120
_cell_length_a 28.077429
_cell_length_b 7.782805
_cell_length_c 24.003187
_cell_angle_alpha 90.000000
_cell_angle_beta 90.000000
_cell_angle_gamma 90.000000
_cell_volume 5245.204142
_symmetry_space_group_name_H-M "I B C A "
_symmetry_group_IT_number 73
_symmetry_cell_setting 'orthorhombic'
loop_
_space_group_symop_operation_xyz
x,y,z
-x,1/2-y,z
x,-y,1/2-z
1/2-x,y,-z
-x,-y,-z
x,1/2+y,-z
-x,y,1/2+z
1/2+x,-y,z
1/2+x,1/2+y,1/2+z
1/2-x,-y,1/2+z
1/2+x,1/2-y,-z
-x,1/2+y,1/2-z
1/2-x,1/2-y,1/2-z
1/2+x,y,1/2-z
1/2-x,1/2+y,z
x,1/2-y,1/2+z
loop_
_atom_site_type_symbol
_atom_site_label
_atom_site_fract_x
_atom_site_fract_y
_atom_site_fract_z
Si Si1 0.280950 0.864081 0.207503
Si Si2 0.937452 0.945773 0.312858
Si Si3 0.110348 0.443637 0.914173
Si Si4 0.250000 0.250179 0.500000
Si Si5 0.291414 0.344380 0.114778
Si Si6 0.153925 0.480860 0.120857
Si Si7 0.858153 0.760560 0.981904
Si Si8 0.548391 0.962793 0.185888
O O1 0.250000 0.750000 0.250000
O O2 0.239245 0.914537 0.165101
O O3 0.302672 0.000000 0.250000
O O4 0.323202 0.837524 0.162913
O O5 0.940237 0.739579 0.321114
O O6 0.992256 0.002313 0.319987
O O7 0.924200 0.000000 0.250000
O O8 0.898104 0.020087 0.354476
O O9 0.162841 0.461518 0.888990
O O10 0.105567 0.612819 0.951485
O O11 0.074864 0.435140 0.863032
O O12 0.118721 0.294164 0.959526
O O13 0.239618 0.153009 0.441746
O O14 0.303396 0.328655 0.490873
O O15 0.312279 0.150347 0.123121
O O16 0.148733 0.400486 0.059744
O O17 0.562302 0.000000 0.250000
#
# Coordination Sequence:
#
# PCOD9532126 Si02
#       8
#    16  16  16   8  16  16  16  16
#     4  12  26  42  61  95 140 181 227 277 345 411
#     4  10  23  44  74 101 136 183 228 281 355 416
#     4  11  25  44  67 104 135 177 232 286 342 414
#     4  10  22  42  62  88 126 178 228 272 310 396
#     4  11  26  40  66  96 134 181 230 279 340 397
#     4  12  24  44  65  98 139 183 227 284 338 408
#     4  11  23  41  69  95 136 179 232 278 336 399
#     4  10  23  46  75 105 136 174 230 290 352 427
#
# _framework density 22.878042000000001
#
# number of rings (size 3 to 8) (size 9 to 14) (size 15 to 20)
#    0.000    1.067    4.000    2.000    5.600    3.200 
#    0.000    0.667    0.000    0.000    0.000    0.000 
#    0.000    0.000    0.000    0.000    0.000    0.000 
#
# Total GULP energy -334730.408181 kJ/mol
# GULP energy per Si atom -5578.840136 kJ/mol
# Density = 2.282597 g / cm^3
# Si number density = 22.878042 Si / 1000 Ang^3
#
#
#
# Elastic Constant Matrix: (Units=GPa)
#
#
# Indices 1 2 3 4 5 6 
#
# 1 104.2198 17.3598 83.0424 0.0000 0.0000 0.0000
# 2 17.3598 63.8093 27.3817 0.0000 0.0000 0.0000
# 3 83.0424 27.3817 175.7442 0.0000 0.0000 0.0000
# 4 0.0000 0.0000 0.0000 33.7808 0.0000 0.0000
# 5 0.0000 0.0000 0.0000 0.0000 40.7552 0.0000
# 6 0.0000 0.0000 0.0000 0.0000 0.0000 17.3946
#
#
#
# Elastic Compliance Matrix: (Units=1/GPa)
#
#
# Indices 1 2 3 4 5 6 
#
# 1 0.015467 -0.001149 -0.007130 0.000000 0.000000 0.000000
# 2 -0.001149 0.016880 -0.002087 0.000000 0.000000 0.000000
# 3 -0.007130 -0.002087 0.009384 0.000000 0.000000 0.000000
# 4 0.000000 0.000000 0.000000 0.029603 0.000000 0.000000
# 5 0.000000 0.000000 0.000000 0.000000 0.024537 0.000000
# 6 0.000000 0.000000 0.000000 0.000000 0.000000 0.057489
#
#
# Mechanical properties :
#
#
# Convention : Reuss Voigt Hill
#
# Bulk Modulus (GPa) = 47.61794 66.59346 57.10570
# Shear Modulus (GPa) = 27.61044 32.78539 30.19792
#
# Velocity S-wave (km/s) = 3.47775 3.78967 3.63706
# Velocity P-wave (km/s) = 6.08156 6.95126 6.53090
#
# Compressibility (1/GPa) = 0.02100049
#
# Stress axis : x y z
#
# Youngs Moduli (GPa) = 64.65235 59.24224 106.56218
#
# Poissons Ratio (x) = 0.06804 0.75975
# Poissons Ratio (y) = 0.07425 0.22242
# Poissons Ratio (z) = 0.46095 0.12365
#
# Static dielectric constant tensor:
#      x y z
#    x 1.849280 0.000000 0.000000 
#    y 0.000000 1.962310 0.000000 
#    z 0.000000 0.000000 1.875930 
# 
# From -- ./inp_files/30533.got.cif
#   From: 2010.05.17/outbox.cif.g08.bks.cpg/sg73_16_cif.got.tgz:30533.got - 2010.06.03 17:35:07.
