data_PCOD9532308
_publ_section_title
;
Structure prediction by ZEFSAII (Michael W. Deem and Ramdas Pophale) SiO2 
 PCOD9532308
Probable space group: I B C A 
;
_chemical_formula_sum "Si O2"
_cell_formula_units_Z 88
_cell_length_a 24.195524
_cell_length_b 11.799867
_cell_length_c 14.220343
_cell_angle_alpha 90.000000
_cell_angle_beta 90.000000
_cell_angle_gamma 90.000000
_cell_volume 4059.964313
_symmetry_space_group_name_H-M "I B C A "
_symmetry_group_IT_number 73
_symmetry_cell_setting 'orthorhombic'
loop_
_space_group_symop_operation_xyz
x,y,z
-x,1/2-y,z
x,-y,1/2-z
1/2-x,y,-z
-x,-y,-z
x,1/2+y,-z
-x,y,1/2+z
1/2+x,-y,z
1/2+x,1/2+y,1/2+z
1/2-x,-y,1/2+z
1/2+x,1/2-y,-z
-x,1/2+y,1/2-z
1/2-x,1/2-y,1/2-z
1/2+x,y,1/2-z
1/2-x,1/2+y,z
x,1/2-y,1/2+z
loop_
_atom_site_type_symbol
_atom_site_label
_atom_site_fract_x
_atom_site_fract_y
_atom_site_fract_z
Si Si1 0.000000 0.250000 0.558576
Si Si2 0.235132 0.138171 0.609202
Si Si3 0.646619 0.546556 0.353221
Si Si4 0.070496 0.077974 0.176527
Si Si5 0.829920 0.784097 0.735926
Si Si6 0.561907 0.949540 0.497540
O O1 0.030658 0.335918 0.626196
O O2 0.048111 0.183670 0.502571
O O3 0.250000 0.165897 0.500000
O O4 0.288504 0.137051 0.676650
O O5 0.197665 0.228846 0.669120
O O6 0.201596 0.019715 0.611872
O O7 0.634374 0.500000 0.250000
O O8 0.655658 0.679833 0.334930
O O9 0.597450 0.503617 0.419399
O O10 0.118119 0.145890 0.228376
O O11 0.038507 0.000000 0.250000
O O12 0.091307 0.992504 0.096172
O O13 0.500000 0.000000 0.500000
#
# Coordination Sequence:
#
# PCOD9532308 Si02
#       6
#     8  16  16  16  16  16
#     4  10  22  46  68  98 144 182 230 288 364 414
#     4  10  23  41  68 100 138 188 235 289 348 423
#     4  10  22  44  70  97 138 187 232 288 356 426
#     4  11  26  41  69 103 137 178 235 289 342 431
#     4  10  24  43  66 101 144 182 235 290 360 413
#     4  10  24  43  69 103 138 185 241 285 354 429
#
# _framework density 21.675066999999999
#
# number of rings (size 3 to 8) (size 9 to 14) (size 15 to 20)
#    0.000    1.818    0.000    2.182    5.091   13.818 
#    0.000    0.000    0.000    0.000    0.000    0.000 
#    0.000    0.000    0.000    0.000    0.000    0.000 
#
# Total GULP energy -245479.960236 kJ/mol
# GULP energy per Si atom -5579.090005 kJ/mol
# Density = 2.162573 g / cm^3
# Si number density = 21.675067 Si / 1000 Ang^3
#
#
#
# Elastic Constant Matrix: (Units=GPa)
#
#
# Indices 1 2 3 4 5 6 
#
# 1 98.3919 63.5942 39.1257 0.0000 0.0000 0.0000
# 2 63.5942 116.0232 58.9302 0.0000 0.0000 0.0000
# 3 39.1257 58.9302 123.1747 0.0000 0.0000 0.0000
# 4 0.0000 0.0000 0.0000 20.8685 0.0000 0.0000
# 5 0.0000 0.0000 0.0000 0.0000 48.4608 0.0000
# 6 0.0000 0.0000 0.0000 0.0000 0.0000 21.6710
#
#
#
# Elastic Compliance Matrix: (Units=1/GPa)
#
#
# Indices 1 2 3 4 5 6 
#
# 1 0.015864 -0.008106 -0.001161 0.000000 0.000000 0.000000
# 2 -0.008106 0.015527 -0.004854 0.000000 0.000000 0.000000
# 3 -0.001161 -0.004854 0.010810 0.000000 0.000000 0.000000
# 4 0.000000 0.000000 0.000000 0.047919 0.000000 0.000000
# 5 0.000000 0.000000 0.000000 0.000000 0.020635 0.000000
# 6 0.000000 0.000000 0.000000 0.000000 0.000000 0.046145
#
#
# Mechanical properties :
#
#
# Convention : Reuss Voigt Hill
#
# Bulk Modulus (GPa) = 71.63587 73.43224 72.53406
# Shear Modulus (GPa) = 26.34427 29.92937 28.13682
#
# Velocity S-wave (km/s) = 3.49007 3.71997 3.60685
# Velocity P-wave (km/s) = 7.02584 7.23900 7.13322
#
# Compressibility (1/GPa) = 0.01395949
#
# Stress axis : x y z
#
# Youngs Moduli (GPa) = 63.03530 64.40317 92.50983
#
# Poissons Ratio (x) = 0.52203 0.10742
# Poissons Ratio (y) = 0.51094 0.44904
# Poissons Ratio (z) = 0.07320 0.31261
#
# Static dielectric constant tensor:
#      x y z
#    x 1.813200 0.000000 0.000000 
#    y 0.000000 2.030680 0.000000 
#    z 0.000000 0.000000 1.804230 
# 
# From -- ./inp_files/19747.got.cif
#   From: 2010.05.17/outbox.cif.g08.bks.cpg/sg73_10_cif.got.tgz:19747.got - 2010.06.03 17:35:07.
