data_PCOD9532685
_publ_section_title
;
Structure prediction by ZEFSAII (Michael W. Deem and Ramdas Pophale) SiO2 
 PCOD9532685
Probable space group: I B C A 
;
_chemical_formula_sum "Si O2"
_cell_formula_units_Z 96
_cell_length_a 13.852709
_cell_length_b 18.800173
_cell_length_c 14.990176
_cell_angle_alpha 90.000000
_cell_angle_beta 90.000000
_cell_angle_gamma 90.000000
_cell_volume 3903.941389
_symmetry_space_group_name_H-M "I B C A "
_symmetry_group_IT_number 73
_symmetry_cell_setting 'orthorhombic'
loop_
_space_group_symop_operation_xyz
x,y,z
-x,1/2-y,z
x,-y,1/2-z
1/2-x,y,-z
-x,-y,-z
x,1/2+y,-z
-x,y,1/2+z
1/2+x,-y,z
1/2+x,1/2+y,1/2+z
1/2-x,-y,1/2+z
1/2+x,1/2-y,-z
-x,1/2+y,1/2-z
1/2-x,1/2-y,1/2-z
1/2+x,y,1/2-z
1/2-x,1/2+y,z
x,1/2-y,1/2+z
loop_
_atom_site_type_symbol
_atom_site_label
_atom_site_fract_x
_atom_site_fract_y
_atom_site_fract_z
Si Si1 0.125458 0.292509 0.427409
Si Si2 0.906827 0.892635 0.335378
Si Si3 0.139908 0.541713 0.516187
Si Si4 0.287348 0.817057 0.804586
Si Si5 0.500000 0.250000 0.908499
Si Si6 0.472473 0.115979 0.677573
Si Si7 0.250000 0.405611 0.500000
O O1 0.173392 0.219501 0.395478
O O2 0.206149 0.353605 0.426679
O O3 0.081691 0.281377 0.525169
O O4 0.039193 0.322861 0.366627
O O5 0.913178 0.940459 0.423633
O O6 0.795463 0.874767 0.315046
O O7 0.952671 0.814890 0.355745
O O8 0.958651 0.921810 0.247942
O O9 0.250000 0.571484 0.500000
O O10 0.079542 0.572804 0.598137
O O11 0.164207 0.458511 0.528863
O O12 0.250000 0.750000 0.750000
O O13 0.383630 0.851705 0.766391
#
# Coordination Sequence:
#
# PCOD9532685 Si02
#       7
#    16  16  16  16   8  16   8
#     4  12  23  43  71 108 146 194 249 312 383 450
#     4  12  24  42  74 109 149 201 248 309 389 449
#     4  10  23  51  74  97 148 203 257 309 368 441
#     4  12  22  39  69 106 157 190 236 316 385 457
#     4  12  24  40  74 112 148 186 250 306 396 460
#     4  12  24  44  73 110 147 197 254 313 377 457
#     4  10  26  46  80 102 140 206 264 304 368 452
#
# _framework density 24.590530999999999
#
# number of rings (size 3 to 8) (size 9 to 14) (size 15 to 20)
#    0.500    0.000    6.667    2.000    0.000    0.667 
#    0.000    0.833    7.333    0.000    0.000    0.000 
#    0.000    0.000    0.000    0.000    0.000    0.000 
#
# Total GULP energy -268642.463618 kJ/mol
# GULP energy per Si atom -5596.717992 kJ/mol
# Density = 2.453456 g / cm^3
# Si number density = 24.590531 Si / 1000 Ang^3
#
#
#
# Elastic Constant Matrix: (Units=GPa)
#
#
# Indices 1 2 3 4 5 6 
#
# 1 155.2426 46.3745 57.4804 0.0000 0.0000 0.0000
# 2 46.3745 103.1995 23.1216 0.0001 0.0000 0.0000
# 3 57.4804 23.1216 102.6808 0.0001 0.0000 0.0000
# 4 0.0000 0.0001 0.0001 -14.1857 0.0000 0.0000
# 5 0.0000 0.0000 0.0000 0.0000 45.9708 0.0000
# 6 0.0000 0.0000 0.0000 0.0000 0.0000 26.2295
#
#
#
# Elastic Compliance Matrix: (Units=1/GPa)
#
#
# Indices 1 2 3 4 5 6 
#
# 1 0.008956 -0.003055 -0.004325 0.000000 0.000000 0.000000
# 2 -0.003055 0.011247 -0.000822 0.000000 0.000000 0.000000
# 3 -0.004325 -0.000822 0.012345 0.000000 0.000000 0.000000
# 4 0.000000 0.000000 0.000000 -0.070494 0.000000 0.000000
# 5 0.000000 0.000000 0.000000 0.000000 0.021753 0.000000
# 6 0.000000 0.000000 0.000000 0.000000 0.000000 0.038125
#
#
# Mechanical properties :
#
#
# Convention : Reuss Voigt Hill
#
# Bulk Modulus (GPa) = 61.94889 68.34178 65.14534
# Shear Modulus (GPa) = 114.36527 27.21267 70.78897
#
# Velocity S-wave (km/s) = 6.82706 3.33022 5.37118
# Velocity P-wave (km/s) = 9.34837 6.52988 8.06323
#
# Compressibility (1/GPa) = 0.01614234
#
# Stress axis : x y z
#
# Youngs Moduli (GPa) = 111.65995 88.91128 81.00167
#
# Poissons Ratio (x) = 0.27165 0.35037
# Poissons Ratio (y) = 0.34116 0.06660
# Poissons Ratio (z) = 0.48298 0.07311
#
# Static dielectric constant tensor:
#      x y z
#    x 1.986890 0.000000 0.000000 
#    y 0.000000 1.958170 0.000000 
#    z 0.000000 0.000000 1.964890 
# 
# From -- ./inp_files/17108.got.cif
#   From: 2010.05.17/outbox.cif.g08.bks.cpg/sg73_9_cif.got.tgz:17108.got - 2010.06.03 17:35:07.
