data_PCOD9532099
_publ_section_title
;
Structure prediction by ZEFSAII (Michael W. Deem and Ramdas Pophale) SiO2 
 PCOD9532099
Probable space group: I B C A 
;
_chemical_formula_sum "Si O2"
_cell_formula_units_Z 80
_cell_length_a 8.217706
_cell_length_b 16.140093
_cell_length_c 24.986890
_cell_angle_alpha 90.000000
_cell_angle_beta 90.000000
_cell_angle_gamma 90.000000
_cell_volume 3314.124638
_symmetry_space_group_name_H-M "I B C A "
_symmetry_group_IT_number 73
_symmetry_cell_setting 'orthorhombic'
loop_
_space_group_symop_operation_xyz
x,y,z
-x,1/2-y,z
x,-y,1/2-z
1/2-x,y,-z
-x,-y,-z
x,1/2+y,-z
-x,y,1/2+z
1/2+x,-y,z
1/2+x,1/2+y,1/2+z
1/2-x,-y,1/2+z
1/2+x,1/2-y,-z
-x,1/2+y,1/2-z
1/2-x,1/2-y,1/2-z
1/2+x,y,1/2-z
1/2-x,1/2+y,z
x,1/2-y,1/2+z
loop_
_atom_site_type_symbol
_atom_site_label
_atom_site_fract_x
_atom_site_fract_y
_atom_site_fract_z
Si Si1 0.197584 0.419339 0.939924
Si Si2 0.080186 0.922250 0.212910
Si Si3 0.194274 0.734269 0.060065
Si Si4 0.863952 0.306422 0.711570
Si Si5 0.137635 0.427483 0.390286
O O1 0.262830 0.326276 0.928138
O O2 0.256510 0.493510 0.902872
O O3 0.003408 0.421360 0.934805
O O4 0.250000 0.437833 0.000000
O O5 0.230790 0.870166 0.188388
O O6 0.978090 0.863169 0.251718
O O7 0.954739 0.940310 0.165316
O O8 0.131571 0.000000 0.250000
O O9 0.000000 0.750000 0.060884
O O10 0.772132 0.839071 0.102407
O O11 0.250000 0.710954 0.000000
O O12 0.750000 0.250000 0.750000
O O13 0.000000 0.250000 0.681766
#
# Coordination Sequence:
#
# PCOD9532099 Si02
#       5
#    16  16  16  16  16
#     4  10  22  41  66  99 134 176 231 286 354 428
#     4  11  24  41  68  98 139 179 233 290 352 415
#     4   9  20  40  67  96 134 182 228 293 359 424
#     4   9  21  42  67  92 127 177 223 286 348 405
#     4  11  24  40  67  98 136 183 228 287 356 424
#
# _framework density 24.139104
#
# number of rings (size 3 to 8) (size 9 to 14) (size 15 to 20)
#    0.000    2.000    0.000    1.800    5.600   10.400 
#    0.000    0.000    0.000   18.000    0.000    0.000 
#    0.000    0.000    0.000    0.000    0.000    0.000 
#
# Total GULP energy -223404.610712 kJ/mol
# GULP energy per Si atom -5585.115268 kJ/mol
# Density = 2.408416 g / cm^3
# Si number density = 24.139104 Si / 1000 Ang^3
#
#
#
# Elastic Constant Matrix: (Units=GPa)
#
#
# Indices 1 2 3 4 5 6 
#
# 1 57.1499 52.5697 -0.0300 0.0000 0.0000 0.0000
# 2 52.5697 168.5801 34.5011 0.0000 0.0000 0.0000
# 3 -0.0300 34.5011 58.4350 0.0000 0.0000 0.0000
# 4 0.0000 0.0000 0.0000 24.0428 0.0000 0.0000
# 5 0.0000 0.0000 0.0000 0.0000 32.1218 0.0000
# 6 0.0000 0.0000 0.0000 0.0000 0.0000 37.2543
#
#
#
# Elastic Compliance Matrix: (Units=1/GPa)
#
#
# Indices 1 2 3 4 5 6 
#
# 1 0.025980 -0.009218 0.005456 0.000000 0.000000 0.000000
# 2 -0.009218 0.010018 -0.005920 0.000000 0.000000 0.000000
# 3 0.005456 -0.005920 0.020611 0.000000 0.000000 0.000000
# 4 0.000000 0.000000 0.000000 0.041592 0.000000 0.000000
# 5 0.000000 0.000000 0.000000 0.000000 0.031131 0.000000
# 6 0.000000 0.000000 0.000000 0.000000 0.000000 0.026843
#
#
# Mechanical properties :
#
#
# Convention : Reuss Voigt Hill
#
# Bulk Modulus (GPa) = 26.84898 50.91629 38.88263
# Shear Modulus (GPa) = 26.60224 31.82539 29.21382
#
# Velocity S-wave (km/s) = 3.32330 3.63494 3.48261
# Velocity P-wave (km/s) = 5.08650 6.22541 5.68455
#
# Compressibility (1/GPa) = 0.03724537
#
# Stress axis : x y z
#
# Youngs Moduli (GPa) = 38.49094 99.82075 48.51819
#
# Poissons Ratio (x) = 0.92017 -0.26471
# Poissons Ratio (y) = 0.35482 0.28720
# Poissons Ratio (z) = -0.21000 0.59089
#
# Static dielectric constant tensor:
#      x y z
#    x 1.927380 0.000000 0.000000 
#    y 0.000000 2.054470 0.000000 
#    z 0.000000 0.000000 1.867830 
# 
# From -- ./inp_files/24074.got.cif
#   From: 2010.05.17/outbox.cif.g08.bks.cpg/sg73_13_cif.got.tgz:24074.got - 2010.06.03 17:35:07.
