data_PCOD9532758
_publ_section_title
;
Structure prediction by ZEFSAII (Michael W. Deem and Ramdas Pophale) SiO2 
 PCOD9532758
Probable space group: I B C A 
;
_chemical_formula_sum "Si O2"
_cell_formula_units_Z 120
_cell_length_a 12.284272
_cell_length_b 26.630089
_cell_length_c 17.666337
_cell_angle_alpha 90.000000
_cell_angle_beta 90.000000
_cell_angle_gamma 90.000000
_cell_volume 5779.211023
_symmetry_space_group_name_H-M "I B C A "
_symmetry_group_IT_number 73
_symmetry_cell_setting 'orthorhombic'
loop_
_space_group_symop_operation_xyz
x,y,z
-x,1/2-y,z
x,-y,1/2-z
1/2-x,y,-z
-x,-y,-z
x,1/2+y,-z
-x,y,1/2+z
1/2+x,-y,z
1/2+x,1/2+y,1/2+z
1/2-x,-y,1/2+z
1/2+x,1/2-y,-z
-x,1/2+y,1/2-z
1/2-x,1/2-y,1/2-z
1/2+x,y,1/2-z
1/2-x,1/2+y,z
x,1/2-y,1/2+z
loop_
_atom_site_type_symbol
_atom_site_label
_atom_site_fract_x
_atom_site_fract_y
_atom_site_fract_z
Si Si1 0.395329 0.394063 0.674839
Si Si2 0.157266 0.371770 0.609206
Si Si3 0.750000 0.443566 0.000000
Si Si4 0.553402 0.301704 0.681096
Si Si5 0.428446 0.410925 0.842393
Si Si6 0.879515 0.733877 0.349429
Si Si7 0.062402 0.514566 0.077031
Si Si8 0.759005 0.668734 0.909000
O O1 0.272191 0.385569 0.647017
O O2 0.454856 0.341027 0.688015
O O3 0.389022 0.417155 0.757451
O O4 0.460094 0.432665 0.619734
O O5 0.159611 0.406472 0.534857
O O6 0.159220 0.312323 0.599545
O O7 0.045798 0.383250 0.653171
O O8 0.690258 0.478937 0.058647
O O9 0.500000 0.250000 0.650429
O O10 0.609610 0.285352 0.761735
O O11 0.639370 0.330328 0.627980
O O12 0.450766 0.466129 0.872477
O O13 0.338458 0.377836 0.887451
O O14 0.808850 0.782397 0.366902
O O15 0.000000 0.750000 0.371509
O O16 0.000000 0.500000 0.000000
O O17 0.750000 0.673530 0.000000
#
# Coordination Sequence:
#
# PCOD9532758 Si02
#       8
#    16  16   8  16  16  16  16  16
#     4  11  25  45  72 106 132 191 243 285 368 437
#     4  11  22  43  70  97 139 178 234 284 350 435
#     4  10  24  42  66  98 126 198 216 284 372 416
#     4  11  23  45  72 101 140 185 233 294 351 433
#     4  12  24  47  69 101 144 183 237 303 359 423
#     4  11  21  43  69  98 137 186 225 285 348 420
#     4  11  25  44  71  97 143 182 239 299 363 434
#     4  12  28  41  68 110 143 188 235 294 368 426
#
# _framework density 20.76408
#
# number of rings (size 3 to 8) (size 9 to 14) (size 15 to 20)
#    0.000    0.800    4.000    3.200    3.733    0.533 
#    0.000    1.333    0.000    0.000    0.000    0.000 
#    0.000    0.000    0.000    0.000    0.000    0.000 
#
# Total GULP energy -334675.078350 kJ/mol
# GULP energy per Si atom -5577.917972 kJ/mol
# Density = 2.071682 g / cm^3
# Si number density = 20.764080 Si / 1000 Ang^3
#
#
#
# Elastic Constant Matrix: (Units=GPa)
#
#
# Indices 1 2 3 4 5 6 
#
# 1 77.1115 17.7105 27.0166 0.0003 0.0000 0.0000
# 2 17.7105 97.5049 29.1435 0.0063 0.0000 0.0000
# 3 27.0166 29.1435 89.1562 -0.0070 -0.0001 0.0000
# 4 0.0003 0.0063 -0.0070 3303.3717 0.0164 0.0001
# 5 0.0000 0.0000 -0.0001 0.0164 38.6347 0.0000
# 6 0.0000 0.0000 0.0000 0.0001 0.0000 39.5426
#
#
#
# Elastic Compliance Matrix: (Units=1/GPa)
#
#
# Indices 1 2 3 4 5 6 
#
# 1 0.014700 -0.001484 -0.003969 0.000000 0.000000 0.000000
# 2 -0.001484 0.011516 -0.003315 0.000000 0.000000 0.000000
# 3 -0.003969 -0.003315 0.013503 0.000000 0.000000 0.000000
# 4 0.000000 0.000000 0.000000 0.000303 0.000000 0.000000
# 5 0.000000 0.000000 0.000000 0.000000 0.025883 0.000000
# 6 0.000000 0.000000 0.000000 0.000000 0.000000 0.025289
#
#
# Mechanical properties :
#
#
# Convention : Reuss Voigt Hill
#
# Bulk Modulus (GPa) = 45.07997 45.72375 45.40186
# Shear Modulus (GPa) = 43.05750 688.96996 366.01373
#
# Velocity S-wave (km/s) = 4.55868 18.23538 13.29117
# Velocity P-wave (km/s) = 7.03324 21.57406 16.04535
#
# Compressibility (1/GPa) = 0.02218280
#
# Stress axis : x y z
#
# Youngs Moduli (GPa) = 68.02861 86.83462 74.05944
#
# Poissons Ratio (x) = 0.12883 0.29397
# Poissons Ratio (y) = 0.10093 0.24550
# Poissons Ratio (z) = 0.27004 0.28784
#
# Static dielectric constant tensor:
#      x y z
#    x 1.812500 0.000000 0.000000 
#    y 0.000000 1.770200 0.000000 
#    z 0.000000 0.000000 1.779860 
# 
# From -- ./inp_files/21499.got.cif
#   From: 2010.05.17/outbox.cif.g08.bks.cpg/sg73_11_cif.got.tgz:21499.got - 2010.06.03 17:35:07.
