data_PCOD9532866
_publ_section_title
;
Structure prediction by ZEFSAII (Michael W. Deem and Ramdas Pophale) SiO2 
 PCOD9532866
Probable space group: I B C A 
;
_chemical_formula_sum "Si O2"
_cell_formula_units_Z 72
_cell_length_a 13.764656
_cell_length_b 29.143480
_cell_length_c 8.339055
_cell_angle_alpha 90.000000
_cell_angle_beta 90.000000
_cell_angle_gamma 90.000000
_cell_volume 3345.211720
_symmetry_space_group_name_H-M "I B C A "
_symmetry_group_IT_number 73
_symmetry_cell_setting 'orthorhombic'
loop_
_space_group_symop_operation_xyz
x,y,z
-x,1/2-y,z
x,-y,1/2-z
1/2-x,y,-z
-x,-y,-z
x,1/2+y,-z
-x,y,1/2+z
1/2+x,-y,z
1/2+x,1/2+y,1/2+z
1/2-x,-y,1/2+z
1/2+x,1/2-y,-z
-x,1/2+y,1/2-z
1/2-x,1/2-y,1/2-z
1/2+x,y,1/2-z
1/2-x,1/2+y,z
x,1/2-y,1/2+z
loop_
_atom_site_type_symbol
_atom_site_label
_atom_site_fract_x
_atom_site_fract_y
_atom_site_fract_z
Si Si1 0.991596 0.000000 0.750000
Si Si2 0.471042 0.197128 0.654387
Si Si3 0.376180 0.149867 0.356435
Si Si4 0.718463 0.299535 0.817978
Si Si5 0.366283 0.548541 0.498719
O O1 0.918844 0.961962 0.671888
O O2 0.066638 0.981119 0.881939
O O3 0.500000 0.250000 0.640170
O O4 0.413405 0.183603 0.495192
O O5 0.555754 0.162008 0.703434
O O6 0.395528 0.195104 0.800902
O O7 0.270142 0.162892 0.293260
O O8 0.377793 0.099876 0.433087
O O9 0.750000 0.250000 0.750000
O O10 0.750000 0.303293 0.000000
O O11 0.250000 0.537554 0.500000
#
# Coordination Sequence:
#
# PCOD9532866 Si02
#       5
#     8  16  16  16  16
#     4  10  24  44  74 102 136 174 224 292 364 436
#     4  12  24  40  62  91 129 178 228 277 333 394
#     4  12  25  42  67  97 133 176 228 283 337 415
#     4  12  25  42  62  89 129 180 233 282 338 400
#     4  11  23  45  71 103 137 177 226 286 363 434
#
# _framework density 21.523299999999999
#
# number of rings (size 3 to 8) (size 9 to 14) (size 15 to 20)
#    0.000    0.444    2.222    7.333    0.000    0.000 
#    0.000    3.333    0.000    0.000    0.000    0.000 
#    0.000    0.000    0.000    0.000    0.000    0.000 
#
# Total GULP energy -201294.803598 kJ/mol
# GULP energy per Si atom -5591.522322 kJ/mol
# Density = 2.147431 g / cm^3
# Si number density = 21.523300 Si / 1000 Ang^3
#
#
#
# Elastic Constant Matrix: (Units=GPa)
#
#
# Indices 1 2 3 4 5 6 
#
# 1 145.9649 40.9204 28.2705 0.0000 0.0006 -0.0001
# 2 40.9204 99.4663 24.8406 0.0024 -0.0006 -0.0008
# 3 28.2705 24.8406 102.3385 0.0063 0.0006 -0.0012
# 4 0.0000 0.0024 0.0063 22.7454 -0.0008 -0.0012
# 5 0.0006 -0.0006 0.0006 -0.0008 40.5294 0.0000
# 6 -0.0001 -0.0008 -0.0012 -0.0012 0.0000 32.0483
#
#
#
# Elastic Compliance Matrix: (Units=1/GPa)
#
#
# Indices 1 2 3 4 5 6 
#
# 1 0.007953 -0.002899 -0.001493 0.000001 0.000000 0.000000
# 2 -0.002899 0.011759 -0.002053 -0.000001 0.000000 0.000000
# 3 -0.001493 -0.002053 0.010682 -0.000003 0.000000 0.000000
# 4 0.000001 -0.000001 -0.000003 0.043965 0.000001 0.000002
# 5 0.000000 0.000000 0.000000 0.000001 0.024673 0.000000
# 6 0.000000 0.000000 0.000000 0.000002 0.000000 0.031203
#
#
# Mechanical properties :
#
#
# Convention : Reuss Voigt Hill
#
# Bulk Modulus (GPa) = 57.13273 59.53697 58.33485
# Shear Modulus (GPa) = 33.56577 35.98052 34.77314
#
# Velocity S-wave (km/s) = 3.95335 4.09308 4.02382
# Velocity P-wave (km/s) = 6.88773 7.07527 6.98213
#
# Compressibility (1/GPa) = 0.01750310
#
# Stress axis : x y z
#
# Youngs Moduli (GPa) = 125.74085 85.04069 93.61152
#
# Poissons Ratio (x) = 0.24652 0.13979
# Poissons Ratio (y) = 0.36451 0.19223
# Poissons Ratio (z) = 0.18777 0.17463
#
# Static dielectric constant tensor:
#      x y z
#    x 1.852710 0.000000 0.000000 
#    y 0.000000 1.749760 0.000000 
#    z 0.000000 0.000000 1.813350 
# 
# From -- ./inp_files/4774.got.cif
#   From: 2010.05.17/outbox.cif.g08.bks.cpg/sg73_3_cif.got.tgz:4774.got - 2010.06.03 17:35:07.
