data_PCOD9532839
_publ_section_title
;
Structure prediction by ZEFSAII (Michael W. Deem and Ramdas Pophale) SiO2 
 PCOD9532839
Probable space group: I B C A 
;
_chemical_formula_sum "Si O2"
_cell_formula_units_Z 72
_cell_length_a 9.970708
_cell_length_b 18.252541
_cell_length_c 20.758522
_cell_angle_alpha 90.000000
_cell_angle_beta 90.000000
_cell_angle_gamma 90.000000
_cell_volume 3777.859124
_symmetry_space_group_name_H-M "I B C A "
_symmetry_group_IT_number 73
_symmetry_cell_setting 'orthorhombic'
loop_
_space_group_symop_operation_xyz
x,y,z
-x,1/2-y,z
x,-y,1/2-z
1/2-x,y,-z
-x,-y,-z
x,1/2+y,-z
-x,y,1/2+z
1/2+x,-y,z
1/2+x,1/2+y,1/2+z
1/2-x,-y,1/2+z
1/2+x,1/2-y,-z
-x,1/2+y,1/2-z
1/2-x,1/2-y,1/2-z
1/2+x,y,1/2-z
1/2-x,1/2+y,z
x,1/2-y,1/2+z
loop_
_atom_site_type_symbol
_atom_site_label
_atom_site_fract_x
_atom_site_fract_y
_atom_site_fract_z
Si Si1 0.695358 0.953069 0.687048
Si Si2 0.406181 0.889435 0.508499
Si Si3 0.500000 0.750000 0.583222
Si Si4 0.458655 0.474723 0.103598
Si Si5 0.364358 0.284769 0.792273
O O1 0.827772 0.948989 0.642539
O O2 0.646065 0.872190 0.706752
O O3 0.730078 0.000000 0.750000
O O4 0.574543 0.993675 0.649873
O O5 0.250000 0.871506 0.500000
O O6 0.481019 0.821669 0.541093
O O7 0.476229 0.913129 0.442012
O O8 0.415293 0.958895 0.556498
O O9 0.375324 0.740625 0.632930
O O10 0.500000 0.250000 0.764129
O O11 0.250000 0.250000 0.750000
#
# Coordination Sequence:
#
# PCOD9532839 Si02
#       5
#    16  16   8  16  16
#     4  12  26  43  73 102 139 183 236 289 348 421
#     4  11  23  44  68  97 140 180 231 288 342 417
#     4  10  24  44  68  98 140 184 236 276 350 420
#     4  11  24  44  69 101 134 180 229 288 351 404
#     4  10  25  46  67  97 145 180 226 288 350 418
#
# _framework density 19.058413000000002
#
# number of rings (size 3 to 8) (size 9 to 14) (size 15 to 20)
#    0.667    0.444    4.444    0.667    9.333    1.778 
#    0.000    0.000    0.000    0.000    0.000    0.000 
#    0.000    0.000    0.000    0.000    0.000    0.000 
#
# Total GULP energy -200996.524793 kJ/mol
# GULP energy per Si atom -5583.236800 kJ/mol
# Density = 1.901504 g / cm^3
# Si number density = 19.058413 Si / 1000 Ang^3
#
#
#
# Elastic Constant Matrix: (Units=GPa)
#
#
# Indices 1 2 3 4 5 6 
#
# 1 147.7354 46.7818 57.7039 0.0000 0.0000 0.0000
# 2 46.7818 131.1756 59.3036 0.0000 0.0000 0.0000
# 3 57.7039 59.3036 97.3583 0.0000 0.0000 0.0000
# 4 0.0000 0.0000 0.0000 40.5916 0.0000 0.0000
# 5 0.0000 0.0000 0.0000 0.0000 29.8971 0.0000
# 6 0.0000 0.0000 0.0000 0.0000 0.0000 14.3594
#
#
#
# Elastic Compliance Matrix: (Units=1/GPa)
#
#
# Indices 1 2 3 4 5 6 
#
# 1 0.008920 -0.001092 -0.004622 0.000000 0.000000 0.000000
# 2 -0.001092 0.010654 -0.005843 0.000000 0.000000 0.000000
# 3 -0.004622 -0.005843 0.016570 0.000000 0.000000 0.000000
# 4 0.000000 0.000000 0.000000 0.024636 0.000000 0.000000
# 5 0.000000 0.000000 0.000000 0.000000 0.033448 0.000000
# 6 0.000000 0.000000 0.000000 0.000000 0.000000 0.069641
#
#
# Mechanical properties :
#
#
# Convention : Reuss Voigt Hill
#
# Bulk Modulus (GPa) = 76.73854 78.20532 77.47193
# Shear Modulus (GPa) = 26.13367 31.13495 28.63431
#
# Velocity S-wave (km/s) = 3.70704 4.04624 3.88035
# Velocity P-wave (km/s) = 7.65998 7.93429 7.79834
#
# Compressibility (1/GPa) = 0.01303126
#
# Stress axis : x y z
#
# Youngs Moduli (GPa) = 112.11089 93.86024 60.35150
#
# Poissons Ratio (x) = 0.10246 0.27893
# Poissons Ratio (y) = 0.12238 0.35262
# Poissons Ratio (z) = 0.51815 0.54840
#
# Static dielectric constant tensor:
#      x y z
#    x 1.634010 0.000000 0.000000 
#    y 0.000000 1.645280 0.000000 
#    z 0.000000 0.000000 1.589260 
# 
# From -- ./inp_files/20611.got.cif
#   From: 2010.05.17/outbox.cif.g08.bks.cpg/sg73_11_cif.got.tgz:20611.got - 2010.06.03 17:35:07.
