data_PCOD9532269
_publ_section_title
;
Structure prediction by ZEFSAII (Michael W. Deem and Ramdas Pophale) SiO2 
 PCOD9532269
Probable space group: I B C A 
;
_chemical_formula_sum "Si O2"
_cell_formula_units_Z 104
_cell_length_a 9.051451
_cell_length_b 20.119447
_cell_length_c 28.595315
_cell_angle_alpha 90.000000
_cell_angle_beta 90.000000
_cell_angle_gamma 90.000000
_cell_volume 5207.498210
_symmetry_space_group_name_H-M "I B C A "
_symmetry_group_IT_number 73
_symmetry_cell_setting 'orthorhombic'
loop_
_space_group_symop_operation_xyz
x,y,z
-x,1/2-y,z
x,-y,1/2-z
1/2-x,y,-z
-x,-y,-z
x,1/2+y,-z
-x,y,1/2+z
1/2+x,-y,z
1/2+x,1/2+y,1/2+z
1/2-x,-y,1/2+z
1/2+x,1/2-y,-z
-x,1/2+y,1/2-z
1/2-x,1/2-y,1/2-z
1/2+x,y,1/2-z
1/2-x,1/2+y,z
x,1/2-y,1/2+z
loop_
_atom_site_type_symbol
_atom_site_label
_atom_site_fract_x
_atom_site_fract_y
_atom_site_fract_z
Si Si1 0.033572 0.500000 0.750000
Si Si2 0.828814 0.729040 0.703097
Si Si3 0.531263 0.577835 0.500286
Si Si4 0.324200 0.246136 0.388881
Si Si5 0.236904 0.395906 0.583237
Si Si6 0.283794 0.572338 0.810449
Si Si7 0.361204 0.202104 0.535093
O O1 0.142045 0.548041 0.780136
O O2 0.924994 0.465283 0.787961
O O3 0.750000 0.750000 0.750000
O O4 0.730583 0.763283 0.663241
O O5 0.813564 0.650086 0.697454
O O6 0.000000 0.750000 0.700303
O O7 0.500000 0.500000 0.500000
O O8 0.641912 0.588262 0.456266
O O9 0.590265 0.591806 0.552660
O O10 0.410258 0.633605 0.488467
O O11 0.500000 0.250000 0.394130
O O12 0.261863 0.317940 0.404586
O O13 0.237952 0.192283 0.419460
O O14 0.257143 0.433820 0.633034
O O15 0.500000 0.250000 0.543478
O O16 0.250000 0.239491 0.500000
#
# Coordination Sequence:
#
# PCOD9532269 Si02
#       7
#     8  16  16  16  16  16  16
#     4  10  22  44  66 100 126 184 226 276 332 404
#     4  11  23  41  67 100 138 173 215 287 344 399
#     4  11  25  42  63  95 134 175 224 277 340 403
#     4  11  23  42  67  98 128 175 230 273 338 407
#     4  10  23  44  64  92 137 174 222 283 332 405
#     4  10  23  42  69  96 135 174 228 276 334 407
#     4  12  23  40  66  93 124 171 218 273 328 406
#
# _framework density 19.971202999999999
#
# number of rings (size 3 to 8) (size 9 to 14) (size 15 to 20)
#    0.000    1.231    1.538    4.154    6.462    1.231 
#    0.000    0.000    0.000    0.000    0.000    0.000 
#    0.000    0.000    0.000    0.000    0.000    0.000 
#
# Total GULP energy -290009.821077 kJ/mol
# GULP energy per Si atom -5577.111944 kJ/mol
# Density = 1.992575 g / cm^3
# Si number density = 19.971203 Si / 1000 Ang^3
#
#
#
# Elastic Constant Matrix: (Units=GPa)
#
#
# Indices 1 2 3 4 5 6 
#
# 1 149.7761 48.3850 69.2530 0.0000 0.0000 0.0000
# 2 48.3850 71.5419 51.2093 0.0000 0.0000 0.0000
# 3 69.2530 51.2093 183.9850 0.0000 0.0000 0.0000
# 4 0.0000 0.0000 0.0000 30.5880 0.0000 0.0000
# 5 0.0000 0.0000 0.0000 0.0000 33.2259 0.0000
# 6 0.0000 0.0000 0.0000 0.0000 0.0000 22.3225
#
#
#
# Elastic Compliance Matrix: (Units=1/GPa)
#
#
# Indices 1 2 3 4 5 6 
#
# 1 0.009181 -0.004665 -0.002157 0.000000 0.000000 0.000000
# 2 -0.004665 0.019826 -0.003762 0.000000 0.000000 0.000000
# 3 -0.002157 -0.003762 0.007294 0.000000 0.000000 0.000000
# 4 0.000000 0.000000 0.000000 0.032693 0.000000 0.000000
# 5 0.000000 0.000000 0.000000 0.000000 0.030097 0.000000
# 6 0.000000 0.000000 0.000000 0.000000 0.000000 0.044798
#
#
# Mechanical properties :
#
#
# Convention : Reuss Voigt Hill
#
# Bulk Modulus (GPa) = 66.08504 82.55526 74.32015
# Shear Modulus (GPa) = 29.39399 32.99098 31.19248
#
# Velocity S-wave (km/s) = 3.84059 4.06880 3.95634
# Velocity P-wave (km/s) = 7.26835 7.96871 7.62657
#
# Compressibility (1/GPa) = 0.01513202
#
# Stress axis : x y z
#
# Youngs Moduli (GPa) = 108.91772 50.43894 137.09080
#
# Poissons Ratio (x) = 0.23531 0.29576
# Poissons Ratio (y) = 0.50812 0.51577
# Poissons Ratio (z) = 0.23498 0.18976
#
# Static dielectric constant tensor:
#      x y z
#    x 1.754900 0.000000 0.000000 
#    y 0.000000 1.713610 0.000000 
#    z 0.000000 0.000000 1.679230 
# 
# From -- ./inp_files/31277.got.cif
#   From: 2010.05.17/outbox.cif.g08.bks.cpg/sg73_16_cif.got.tgz:31277.got - 2010.06.03 17:35:07.
