data_PCOD9532510
_publ_section_title
;
Structure prediction by ZEFSAII (Michael W. Deem and Ramdas Pophale) SiO2 
 PCOD9532510
Probable space group: I B C A 
;
_chemical_formula_sum "Si O2"
_cell_formula_units_Z 112
_cell_length_a 13.872541
_cell_length_b 14.749873
_cell_length_c 25.341166
_cell_angle_alpha 90.000000
_cell_angle_beta 90.000000
_cell_angle_gamma 90.000000
_cell_volume 5185.264227
_symmetry_space_group_name_H-M "I B C A "
_symmetry_group_IT_number 73
_symmetry_cell_setting 'orthorhombic'
loop_
_space_group_symop_operation_xyz
x,y,z
-x,1/2-y,z
x,-y,1/2-z
1/2-x,y,-z
-x,-y,-z
x,1/2+y,-z
-x,y,1/2+z
1/2+x,-y,z
1/2+x,1/2+y,1/2+z
1/2-x,-y,1/2+z
1/2+x,1/2-y,-z
-x,1/2+y,1/2-z
1/2-x,1/2-y,1/2-z
1/2+x,y,1/2-z
1/2-x,1/2+y,z
x,1/2-y,1/2+z
loop_
_atom_site_type_symbol
_atom_site_label
_atom_site_fract_x
_atom_site_fract_y
_atom_site_fract_z
Si Si1 0.569745 0.830740 0.826253
Si Si2 0.286583 0.790349 0.694340
Si Si3 0.319781 0.041907 0.931454
Si Si4 0.618265 0.750862 0.084816
Si Si5 0.004356 0.988601 0.376455
Si Si6 0.526753 0.098922 0.275434
Si Si7 0.637351 0.942917 0.540625
O O1 0.500000 0.750000 0.844566
O O2 0.684047 0.820727 0.830303
O O3 0.536438 0.917197 0.858517
O O4 0.539673 0.846751 0.765032
O O5 0.250000 0.750000 0.750000
O O6 0.339637 0.742158 0.644510
O O7 0.369353 0.858695 0.714205
O O8 0.341478 0.150194 0.935535
O O9 0.380844 0.010083 0.881268
O O10 0.210616 0.007991 0.927021
O O11 0.353484 0.981669 0.981906
O O12 0.500000 0.750000 0.084198
O O13 0.654397 0.664309 0.050384
O O14 0.965148 0.959813 0.432815
O O15 0.977925 0.915946 0.331997
O O16 0.538805 0.000000 0.250000
#
# Coordination Sequence:
#
# PCOD9532510 Si02
#       7
#    16  16  16  16  16  16  16
#     4  11  25  42  59 101 137 184 230 288 351 424
#     4  12  25  40  69  97 140 182 239 286 345 437
#     4  11  25  47  72 106 139 178 247 294 360 435
#     4  12  26  47  76 103 143 195 240 291 367 430
#     4  11  23  44  68  95 142 179 235 294 355 424
#     4  10  23  42  65  96 134 181 228 282 349 419
#     4  11  26  45  75 102 139 183 236 300 359 420
#
# _framework density 21.59967
#
# number of rings (size 3 to 8) (size 9 to 14) (size 15 to 20)
#    0.000    0.857    4.286    1.286    6.000    4.000 
#    2.571    0.000    0.000    0.000    0.000    0.000 
#    0.000    0.000    0.000    0.000    0.000    0.000 
#
# Total GULP energy -312207.397780 kJ/mol
# GULP energy per Si atom -5575.132103 kJ/mol
# Density = 2.155051 g / cm^3
# Si number density = 21.599670 Si / 1000 Ang^3
#
#
#
# Elastic Constant Matrix: (Units=GPa)
#
#
# Indices 1 2 3 4 5 6 
#
# 1 116.5538 62.4648 3.9753 0.0000 0.0000 0.0000
# 2 62.4648 150.2934 42.3358 0.0000 0.0000 0.0000
# 3 3.9753 42.3358 83.2751 0.0000 0.0000 0.0000
# 4 0.0000 0.0000 0.0000 23.2517 0.0000 0.0000
# 5 0.0000 0.0000 0.0000 0.0000 -29.8805 0.0000
# 6 0.0000 0.0000 0.0000 0.0000 0.0000 32.1005
#
#
#
# Elastic Compliance Matrix: (Units=1/GPa)
#
#
# Indices 1 2 3 4 5 6 
#
# 1 0.011365 -0.005334 0.002169 0.000000 0.000000 0.000000
# 2 -0.005334 0.010270 -0.004966 0.000000 0.000000 0.000000
# 3 0.002169 -0.004966 0.014430 0.000000 0.000000 0.000000
# 4 0.000000 0.000000 0.000000 0.043008 0.000000 0.000000
# 5 0.000000 0.000000 0.000000 0.000000 -0.033467 0.000000
# 6 0.000000 0.000000 0.000000 0.000000 0.000000 0.031152
#
#
# Mechanical properties :
#
#
# Convention : Reuss Voigt Hill
#
# Bulk Modulus (GPa) = 50.50168 63.07487 56.78827
# Shear Modulus (GPa) = 50.19059 21.18410 35.68735
#
# Velocity S-wave (km/s) = 4.82568 3.13511 4.06916
# Velocity P-wave (km/s) = 7.38113 6.50925 6.95886
#
# Compressibility (1/GPa) = 0.01980132
#
# Stress axis : x y z
#
# Youngs Moduli (GPa) = 87.99221 97.37381 69.30186
#
# Poissons Ratio (x) = 0.51944 -0.15035
# Poissons Ratio (y) = 0.46939 0.34417
# Poissons Ratio (z) = -0.19089 0.48359
#
# Static dielectric constant tensor:
#      x y z
#    x 1.802130 0.000000 0.000000 
#    y 0.000000 1.807240 0.000000 
#    z 0.000000 0.000000 1.820800 
# 
# From -- ./inp_files/29517.got.cif
#   From: 2010.05.17/outbox.cif.g08.bks.cpg/sg73_15_cif.got.tgz:29517.got - 2010.06.03 17:35:07.
