data_PCOD9532046
_publ_section_title
;
Structure prediction by ZEFSAII (Michael W. Deem and Ramdas Pophale) SiO2 
 PCOD9532046
Probable space group: I B C A 
;
_chemical_formula_sum "Si O2"
_cell_formula_units_Z 72
_cell_length_a 22.577651
_cell_length_b 8.212256
_cell_length_c 15.799104
_cell_angle_alpha 90.000000
_cell_angle_beta 90.000000
_cell_angle_gamma 90.000000
_cell_volume 2929.366378
_symmetry_space_group_name_H-M "I B C A "
_symmetry_group_IT_number 73
_symmetry_cell_setting 'orthorhombic'
loop_
_space_group_symop_operation_xyz
x,y,z
-x,1/2-y,z
x,-y,1/2-z
1/2-x,y,-z
-x,-y,-z
x,1/2+y,-z
-x,y,1/2+z
1/2+x,-y,z
1/2+x,1/2+y,1/2+z
1/2-x,-y,1/2+z
1/2+x,1/2-y,-z
-x,1/2+y,1/2-z
1/2-x,1/2-y,1/2-z
1/2+x,y,1/2-z
1/2-x,1/2+y,z
x,1/2-y,1/2+z
loop_
_atom_site_type_symbol
_atom_site_label
_atom_site_fract_x
_atom_site_fract_y
_atom_site_fract_z
Si Si1 0.564531 0.449058 0.610174
Si Si2 0.816530 0.888021 0.910286
Si Si3 0.000000 0.750000 0.474079
Si Si4 0.500000 0.750000 0.246830
Si Si5 0.096972 0.000000 0.750000
Si Si6 0.685969 0.001362 0.604908
O O1 0.630476 0.506436 0.627525
O O2 0.528772 0.608472 0.580560
O O3 0.551732 0.323344 0.533639
O O4 0.534837 0.370659 0.690631
O O5 0.820138 0.694460 0.897731
O O6 0.753603 0.950204 0.875692
O O7 0.822380 0.925563 0.011055
O O8 0.445523 0.859386 0.212600
O O9 0.138936 0.062442 0.825861
#
# Coordination Sequence:
#
# PCOD9532046 Si02
#       6
#    16  16   8   8   8  16
#     4  10  22  40  71 106 144 189 258 308 375 442
#     4  11  24  45  80 109 146 201 259 320 363 451
#     4   9  20  35  68 116 141 187 244 324 367 425
#     4  11  30  47  70  98 155 201 252 310 397 465
#     4  12  32  54  72 112 158 202 246 324 398 468
#     4  11  27  48  78 111 156 195 260 313 383 448
#
# _framework density 24.578693999999999
#
# number of rings (size 3 to 8) (size 9 to 14) (size 15 to 20)
#    0.000    1.333    0.000    4.000   21.778    0.889 
#    0.000    0.000    0.000    0.000    0.000    0.000 
#    0.000    0.000    0.000    0.000    0.000    0.000 
#
# Total GULP energy -201711.410647 kJ/mol
# GULP energy per Si atom -5603.094740 kJ/mol
# Density = 2.452275 g / cm^3
# Si number density = 24.578694 Si / 1000 Ang^3
#
#
#
# Elastic Constant Matrix: (Units=GPa)
#
#
# Indices 1 2 3 4 5 6 
#
# 1 167.8543 37.1701 49.2290 0.0000 0.0000 0.0000
# 2 37.1701 105.7683 10.9981 0.0000 0.0000 0.0000
# 3 49.2290 10.9981 42.4350 0.0000 0.0000 0.0000
# 4 0.0000 0.0000 0.0000 45.9531 0.0000 0.0000
# 5 0.0000 0.0000 0.0000 0.0000 104.8405 0.0000
# 6 0.0000 0.0000 0.0000 0.0000 0.0000 45.5521
#
#
#
# Elastic Compliance Matrix: (Units=1/GPa)
#
#
# Indices 1 2 3 4 5 6 
#
# 1 0.009528 -0.002260 -0.010468 0.000000 0.000000 0.000000
# 2 -0.002260 0.010253 -0.000035 0.000000 0.000000 0.000000
# 3 -0.010468 -0.000035 0.035718 0.000000 0.000000 0.000000
# 4 0.000000 0.000000 0.000000 0.021761 0.000000 0.000000
# 5 0.000000 0.000000 0.000000 0.000000 0.009538 0.000000
# 6 0.000000 0.000000 0.000000 0.000000 0.000000 0.021953
#
#
# Mechanical properties :
#
#
# Convention : Reuss Voigt Hill
#
# Bulk Modulus (GPa) = 33.36382 56.76133 45.06258
# Shear Modulus (GPa) = 34.65760 53.84649 44.25205
#
# Velocity S-wave (km/s) = 3.75916 4.68565 4.24774
# Velocity P-wave (km/s) = 5.69609 7.24000 6.51395
#
# Compressibility (1/GPa) = 0.02997259
#
# Stress axis : x y z
#
# Youngs Moduli (GPa) = 104.95354 97.53694 27.99686
#
# Poissons Ratio (x) = 0.22043 0.29306
# Poissons Ratio (y) = 0.23719 0.00099
# Poissons Ratio (z) = 1.09863 0.00345
#
# Static dielectric constant tensor:
#      x y z
#    x 1.923390 0.000000 0.000000 
#    y 0.000000 2.095200 0.000000 
#    z 0.000000 0.000000 2.006460 
# 
# From -- ./inp_files/20619.got.cif
#   From: 2010.05.17/outbox.cif.g08.bks.cpg/sg73_11_cif.got.tgz:20619.got - 2010.06.03 17:35:07.
