data_PCOD9532789
_publ_section_title
;
Structure prediction by ZEFSAII (Michael W. Deem and Ramdas Pophale) SiO2 
 PCOD9532789
Probable space group: I B C A 
;
_chemical_formula_sum "Si O2"
_cell_formula_units_Z 120
_cell_length_a 12.509481
_cell_length_b 15.814529
_cell_length_c 27.551296
_cell_angle_alpha 90.000000
_cell_angle_beta 90.000000
_cell_angle_gamma 90.000000
_cell_volume 5450.515594
_symmetry_space_group_name_H-M "I B C A "
_symmetry_group_IT_number 73
_symmetry_cell_setting 'orthorhombic'
loop_
_space_group_symop_operation_xyz
x,y,z
-x,1/2-y,z
x,-y,1/2-z
1/2-x,y,-z
-x,-y,-z
x,1/2+y,-z
-x,y,1/2+z
1/2+x,-y,z
1/2+x,1/2+y,1/2+z
1/2-x,-y,1/2+z
1/2+x,1/2-y,-z
-x,1/2+y,1/2-z
1/2-x,1/2-y,1/2-z
1/2+x,y,1/2-z
1/2-x,1/2+y,z
x,1/2-y,1/2+z
loop_
_atom_site_type_symbol
_atom_site_label
_atom_site_fract_x
_atom_site_fract_y
_atom_site_fract_z
Si Si1 0.537709 0.886204 0.296437
Si Si2 0.703780 0.000000 0.250000
Si Si3 0.708785 0.527219 0.073849
Si Si4 0.813516 0.590863 0.664550
Si Si5 0.492231 0.352390 0.912987
Si Si6 0.769588 0.269860 0.306866
Si Si7 0.386800 0.530588 0.018850
Si Si8 0.453306 0.844000 0.191270
O O1 0.627392 0.956404 0.289143
O O2 0.441934 0.901908 0.332894
O O3 0.610654 0.805596 0.309249
O O4 0.484902 0.882034 0.242635
O O5 0.774887 0.938967 0.217648
O O6 0.713877 0.478151 0.124358
O O7 0.623575 0.604392 0.073401
O O8 0.826856 0.540998 0.051563
O O9 0.671866 0.458885 0.032839
O O10 0.764223 0.684998 0.661119
O O11 0.500000 0.250000 0.914418
O O12 0.584257 0.391128 0.946749
O O13 0.505630 0.381935 0.856893
O O14 0.750000 0.250000 0.250000
O O15 0.673342 0.334026 0.318711
O O16 0.500000 0.500000 0.000000
O O17 0.500000 0.750000 0.194992
#
# Coordination Sequence:
#
# PCOD9532789 Si02
#       8
#    16   8  16  16  16  16  16  16
#     4  12  24  40  61  89 139 184 236 292 339 419
#     4  12  26  36  58  94 136 176 238 280 344 422
#     4  10  24  43  72 101 140 179 225 299 357 437
#     4  12  26  41  63  99 138 186 235 284 355 418
#     4  10  24  42  73 103 131 180 237 291 355 436
#     4  12  22  41  62  88 134 192 232 290 346 417
#     4   9  21  48  72  99 133 176 228 288 372 424
#     4  11  21  38  62  95 130 177 235 282 344 408
#
# _framework density 22.016266999999999
#
# number of rings (size 3 to 8) (size 9 to 14) (size 15 to 20)
#    0.000    1.067    4.000    0.800   11.200    1.067 
#    0.000    6.667    0.000    0.000    0.000    0.000 
#    0.000    0.000    0.000    0.000    0.000    0.000 
#
# Total GULP energy -334715.193359 kJ/mol
# GULP energy per Si atom -5578.586556 kJ/mol
# Density = 2.196616 g / cm^3
# Si number density = 22.016267 Si / 1000 Ang^3
#
#
#
# Elastic Constant Matrix: (Units=GPa)
#
#
# Indices 1 2 3 4 5 6 
#
# 1 114.4706 28.6099 19.8497 0.0000 0.0000 0.0000
# 2 28.6099 80.1840 25.6929 0.0000 0.0000 0.0000
# 3 19.8497 25.6929 84.9183 0.0000 0.0000 0.0000
# 4 0.0000 0.0000 0.0000 20.0498 0.0000 0.0000
# 5 0.0000 0.0000 0.0000 0.0000 33.9703 0.0000
# 6 0.0000 0.0000 0.0000 0.0000 0.0000 33.7379
#
#
#
# Elastic Compliance Matrix: (Units=1/GPa)
#
#
# Indices 1 2 3 4 5 6 
#
# 1 0.009730 -0.003037 -0.001355 0.000000 0.000000 0.000000
# 2 -0.003037 0.014758 -0.003755 0.000000 0.000000 0.000000
# 3 -0.001355 -0.003755 0.013229 0.000000 0.000000 0.000000
# 4 0.000000 0.000000 0.000000 0.049876 0.000000 0.000000
# 5 0.000000 0.000000 0.000000 0.000000 0.029437 0.000000
# 6 0.000000 0.000000 0.000000 0.000000 0.000000 0.029640
#
#
# Mechanical properties :
#
#
# Convention : Reuss Voigt Hill
#
# Bulk Modulus (GPa) = 46.68266 47.54201 47.11233
# Shear Modulus (GPa) = 29.39317 31.24630 30.31973
#
# Velocity S-wave (km/s) = 3.65782 3.77136 3.71502
# Velocity P-wave (km/s) = 6.25214 6.37222 6.31246
#
# Compressibility (1/GPa) = 0.02142123
#
# Stress axis : x y z
#
# Youngs Moduli (GPa) = 102.77438 67.75819 75.59122
#
# Poissons Ratio (x) = 0.20581 0.10246
# Poissons Ratio (y) = 0.31217 0.28387
# Poissons Ratio (z) = 0.13930 0.25445
#
# Static dielectric constant tensor:
#      x y z
#    x 2.027340 0.000000 0.000000 
#    y 0.000000 2.319340 0.000000 
#    z 0.000000 0.000000 1.806990 
# 
# From -- ./inp_files/31835.got.cif
#   From: 2010.05.17/outbox.cif.g08.bks.cpg/sg73_16_cif.got.tgz:31835.got - 2010.06.03 17:35:07.
