data_PCOD9532111
_publ_section_title
;
Structure prediction by ZEFSAII (Michael W. Deem and Ramdas Pophale) SiO2 
 PCOD9532111
Probable space group: I B C A 
;
_chemical_formula_sum "Si O2"
_cell_formula_units_Z 96
_cell_length_a 13.933772
_cell_length_b 24.635241
_cell_length_c 13.999581
_cell_angle_alpha 90.000000
_cell_angle_beta 90.000000
_cell_angle_gamma 90.000000
_cell_volume 4805.521811
_symmetry_space_group_name_H-M "I B C A "
_symmetry_group_IT_number 73
_symmetry_cell_setting 'orthorhombic'
loop_
_space_group_symop_operation_xyz
x,y,z
-x,1/2-y,z
x,-y,1/2-z
1/2-x,y,-z
-x,-y,-z
x,1/2+y,-z
-x,y,1/2+z
1/2+x,-y,z
1/2+x,1/2+y,1/2+z
1/2-x,-y,1/2+z
1/2+x,1/2-y,-z
-x,1/2+y,1/2-z
1/2-x,1/2-y,1/2-z
1/2+x,y,1/2-z
1/2-x,1/2+y,z
x,1/2-y,1/2+z
loop_
_atom_site_type_symbol
_atom_site_label
_atom_site_fract_x
_atom_site_fract_y
_atom_site_fract_z
Si Si1 0.750000 0.345338 0.500000
Si Si2 0.500000 0.750000 0.357302
Si Si3 0.925850 0.575344 0.990118
Si Si4 0.290589 0.621269 0.140189
Si Si5 0.925892 0.018762 0.641400
Si Si6 0.400312 0.652732 0.962932
Si Si7 0.309993 0.202275 0.698804
O O1 0.837321 0.385044 0.529497
O O2 0.719706 0.308385 0.589620
O O3 0.563127 0.708831 0.420007
O O4 0.577769 0.783085 0.297298
O O5 0.901406 0.530114 0.069159
O O6 0.009914 0.612842 0.032650
O O7 0.976343 0.545991 0.899936
O O8 0.340700 0.563000 0.136662
O O9 0.183369 0.625349 0.099861
O O10 0.293054 0.646968 0.244051
O O11 0.354591 0.658027 0.068088
O O12 0.937723 0.000000 0.750000
O O13 0.250000 0.250000 0.750000
#
# Coordination Sequence:
#
# PCOD9532111 Si02
#       7
#     8   8  16  16  16  16  16
#     4  12  26  44  66  96 142 172 230 284 334 412
#     4  12  24  42  68  96 134 176 218 280 340 404
#     4  10  23  42  66  98 134 179 224 279 341 396
#     4  10  23  43  69  99 133 176 226 277 338 409
#     4  10  22  41  69  98 133 175 226 279 337 406
#     4  10  22  43  69  95 135 175 223 279 338 404
#     4  12  27  42  68 102 134 176 227 279 341 406
#
# _framework density 19.977018999999999
#
# number of rings (size 3 to 8) (size 9 to 14) (size 15 to 20)
#    0.000    1.333    3.333    1.000    2.333    8.667 
#    0.000    1.667    0.000    0.000    0.000    0.000 
#    0.000    0.000    0.000    0.000    0.000    0.000 
#
# Total GULP energy -268236.428628 kJ/mol
# GULP energy per Si atom -5588.258930 kJ/mol
# Density = 1.993155 g / cm^3
# Si number density = 19.977019 Si / 1000 Ang^3
#
#
#
# Elastic Constant Matrix: (Units=GPa)
#
#
# Indices 1 2 3 4 5 6 
#
# 1 125.1577 37.8960 31.9469 0.0000 0.0000 0.0000
# 2 37.8960 66.4263 23.4467 0.0001 0.0000 0.0000
# 3 31.9469 23.4467 95.4686 0.0001 0.0000 0.0000
# 4 0.0000 0.0001 0.0001 14.6917 0.0000 0.0000
# 5 0.0000 0.0000 0.0000 0.0000 11.6322 0.0000
# 6 0.0000 0.0000 0.0000 0.0000 0.0000 36.2895
#
#
#
# Elastic Compliance Matrix: (Units=1/GPa)
#
#
# Indices 1 2 3 4 5 6 
#
# 1 0.010042 -0.004974 -0.002139 0.000000 0.000000 0.000000
# 2 -0.004974 0.018947 -0.002989 0.000000 0.000000 0.000000
# 3 -0.002139 -0.002989 0.011924 0.000000 0.000000 0.000000
# 4 0.000000 0.000000 0.000000 0.068066 0.000000 0.000000
# 5 0.000000 0.000000 0.000000 0.000000 0.085968 0.000000
# 6 0.000000 0.000000 0.000000 0.000000 0.000000 0.027556
#
#
# Mechanical properties :
#
#
# Convention : Reuss Voigt Hill
#
# Bulk Modulus (GPa) = 48.28565 52.62575 50.45570
# Shear Modulus (GPa) = 20.03127 25.44022 22.73574
#
# Velocity S-wave (km/s) = 3.17000 3.57245 3.37723
# Velocity P-wave (km/s) = 6.13365 6.58915 6.36547
#
# Compressibility (1/GPa) = 0.02071009
#
# Stress axis : x y z
#
# Youngs Moduli (GPa) = 99.58285 52.77914 83.86168
#
# Poissons Ratio (x) = 0.26252 0.17936
# Poissons Ratio (y) = 0.49532 0.25065
# Poissons Ratio (z) = 0.21298 0.15775
#
# Static dielectric constant tensor:
#      x y z
#    x 1.700200 0.000000 0.000000 
#    y 0.000000 1.722850 0.000000 
#    z 0.000000 0.000000 1.701040 
# 
# From -- ./inp_files/17214.got.cif
#   From: 2010.05.17/outbox.cif.g08.bks.cpg/sg73_9_cif.got.tgz:17214.got - 2010.06.03 17:35:07.
