data_PCOD9532002
_publ_section_title
;
Structure prediction by ZEFSAII (Michael W. Deem and Ramdas Pophale) SiO2 
 PCOD9532002
Probable space group: I B C A 
;
_chemical_formula_sum "Si O2"
_cell_formula_units_Z 64
_cell_length_a 9.918441
_cell_length_b 11.666753
_cell_length_c 22.495536
_cell_angle_alpha 90.000000
_cell_angle_beta 90.000000
_cell_angle_gamma 90.000000
_cell_volume 2603.093473
_symmetry_space_group_name_H-M "I B C A "
_symmetry_group_IT_number 73
_symmetry_cell_setting 'orthorhombic'
loop_
_space_group_symop_operation_xyz
x,y,z
-x,1/2-y,z
x,-y,1/2-z
1/2-x,y,-z
-x,-y,-z
x,1/2+y,-z
-x,y,1/2+z
1/2+x,-y,z
1/2+x,1/2+y,1/2+z
1/2-x,-y,1/2+z
1/2+x,1/2-y,-z
-x,1/2+y,1/2-z
1/2-x,1/2-y,1/2-z
1/2+x,y,1/2-z
1/2-x,1/2+y,z
x,1/2-y,1/2+z
loop_
_atom_site_type_symbol
_atom_site_label
_atom_site_fract_x
_atom_site_fract_y
_atom_site_fract_z
Si Si1 0.300757 0.462460 0.437140
Si Si2 0.744420 0.144818 0.847693
Si Si3 0.085192 0.849649 0.646340
Si Si4 0.901019 0.000000 0.250000
Si Si5 0.000000 0.750000 0.922078
O O1 0.250000 0.508861 0.500000
O O2 0.195793 0.263975 0.324658
O O3 0.168319 0.416730 0.402718
O O4 0.408095 0.357995 0.447819
O O5 0.612734 0.182027 0.885078
O O6 0.837927 0.065872 0.892020
O O7 0.693418 0.071518 0.793254
O O8 0.000000 0.750000 0.615954
O O9 0.023837 0.919424 0.702027
#
# Coordination Sequence:
#
# PCOD9532002 Si02
#       5
#    16  16  16   8   8
#     4  10  24  43  68  98 131 182 227 286 344 408
#     4  10  23  42  64  96 132 177 227 277 348 408
#     4  10  23  41  64 100 135 173 227 282 344 411
#     4  10  22  40  64  96 130 180 218 282 342 418
#     4  10  24  44  64  94 138 172 226 286 346 416
#
# _framework density 24.586131000000002
#
# number of rings (size 3 to 8) (size 9 to 14) (size 15 to 20)
#    0.000    2.000    0.000    0.750   10.500    6.000 
#    0.000    0.000    0.000    0.000    0.000    0.000 
#    0.000    0.000    0.000    0.000    0.000    0.000 
#
# Total GULP energy -178166.010979 kJ/mol
# GULP energy per Si atom -5567.687843 kJ/mol
# Density = 2.453017 g / cm^3
# Si number density = 24.586131 Si / 1000 Ang^3
#
#
#
# Elastic Constant Matrix: (Units=GPa)
#
#
# Indices 1 2 3 4 5 6 
#
# 1 32.4661 -1.2832 -11.7860 0.0000 0.0000 0.0000
# 2 -1.2832 101.7820 51.4971 0.0000 0.0000 0.0000
# 3 -11.7860 51.4971 113.8091 0.0000 0.0000 0.0000
# 4 0.0000 0.0000 0.0000 17.8989 0.0000 0.0000
# 5 0.0000 0.0000 0.0000 0.0000 -17.6674 0.0000
# 6 0.0000 0.0000 0.0000 0.0000 0.0000 43.1044
#
#
#
# Elastic Compliance Matrix: (Units=1/GPa)
#
#
# Indices 1 2 3 4 5 6 
#
# 1 0.032220 -0.001663 0.004089 0.000000 0.000000 0.000000
# 2 -0.001663 0.012828 -0.005977 0.000000 0.000000 0.000000
# 3 0.004089 -0.005977 0.011914 0.000000 0.000000 0.000000
# 4 0.000000 0.000000 0.000000 0.055869 0.000000 0.000000
# 5 0.000000 0.000000 0.000000 0.000000 -0.056602 0.000000
# 6 0.000000 0.000000 0.000000 0.000000 0.000000 0.023199
#
#
# Mechanical properties :
#
#
# Convention : Reuss Voigt Hill
#
# Bulk Modulus (GPa) = 20.05540 36.10145 28.07843
# Shear Modulus (GPa) = 48.47266 22.64247 35.55756
#
# Velocity S-wave (km/s) = 4.44503 3.03800 3.80708
# Velocity P-wave (km/s) = 5.87531 5.19822 5.54710
#
# Compressibility (1/GPa) = 0.04986187
#
# Stress axis : x y z
#
# Youngs Moduli (GPa) = 31.03653 77.95537 83.93176
#
# Poissons Ratio (x) = 0.12961 -0.34320
# Poissons Ratio (y) = 0.05160 0.50163
# Poissons Ratio (z) = -0.12691 0.46591
#
# Static dielectric constant tensor:
#      x y z
#    x 2.130480 0.000000 0.000000 
#    y 0.000000 1.976680 0.000000 
#    z 0.000000 0.000000 1.889420 
# 
# From -- ./inp_files/25235.got.cif
#   From: 2010.05.17/outbox.cif.g08.bks.cpg/sg73_13_cif.got.tgz:25235.got - 2010.06.03 17:35:07.
