data_PCOD9532016
_publ_section_title
;
Structure prediction by ZEFSAII (Michael W. Deem and Ramdas Pophale) SiO2 
 PCOD9532016
Probable space group: I B C A 
;
_chemical_formula_sum "Si O2"
_cell_formula_units_Z 88
_cell_length_a 17.494678
_cell_length_b 8.865342
_cell_length_c 24.825890
_cell_angle_alpha 90.000000
_cell_angle_beta 90.000000
_cell_angle_gamma 90.000000
_cell_volume 3850.403774
_symmetry_space_group_name_H-M "I B C A "
_symmetry_group_IT_number 73
_symmetry_cell_setting 'orthorhombic'
loop_
_space_group_symop_operation_xyz
x,y,z
-x,1/2-y,z
x,-y,1/2-z
1/2-x,y,-z
-x,-y,-z
x,1/2+y,-z
-x,y,1/2+z
1/2+x,-y,z
1/2+x,1/2+y,1/2+z
1/2-x,-y,1/2+z
1/2+x,1/2-y,-z
-x,1/2+y,1/2-z
1/2-x,1/2-y,1/2-z
1/2+x,y,1/2-z
1/2-x,1/2+y,z
x,1/2-y,1/2+z
loop_
_atom_site_type_symbol
_atom_site_label
_atom_site_fract_x
_atom_site_fract_y
_atom_site_fract_z
Si Si1 0.968830 0.500000 0.750000
Si Si2 0.214981 0.000000 0.250000
Si Si3 0.500000 0.750000 0.672930
Si Si4 0.707006 0.261450 0.573743
Si Si5 0.367039 0.976833 0.505851
Si Si6 0.889721 0.220389 0.077262
Si Si7 0.341030 0.701243 0.807231
O O1 0.015252 0.395014 0.709563
O O2 0.914658 0.385854 0.784093
O O3 0.170410 0.864894 0.220386
O O4 0.270418 0.909117 0.291188
O O5 0.429237 0.711636 0.634534
O O6 0.680942 0.415107 0.545150
O O7 0.797733 0.269623 0.583530
O O8 0.663191 0.228337 0.629114
O O9 0.682387 0.134663 0.531283
O O10 0.407516 0.083136 0.462573
O O11 0.414627 0.870586 0.545525
#
# Coordination Sequence:
#
# PCOD9532016 Si02
#       7
#     8   8   8  16  16  16  16
#     4  11  28  51  62  94 131 176 237 292 314 409
#     4   9  22  39  62 110 123 166 209 286 342 409
#     4  12  30  48  66  86 132 188 230 264 328 390
#     4  11  21  37  67 104 132 167 203 276 343 398
#     4  10  22  40  66 103 135 158 213 275 342 388
#     4  11  23  41  64  94 134 174 211 265 323 408
#     4  10  23  40  71  98 135 164 222 280 358 379
#
# _framework density 22.854747
#
# number of rings (size 3 to 8) (size 9 to 14) (size 15 to 20)
#    0.000    1.455    0.000    5.455   12.727    2.909 
#    0.000    0.000    0.000    0.000    0.000    0.000 
#    0.000    0.000    0.000    0.000    0.000    0.000 
#
# Total GULP energy -246315.427811 kJ/mol
# GULP energy per Si atom -5598.077905 kJ/mol
# Density = 2.280273 g / cm^3
# Si number density = 22.854747 Si / 1000 Ang^3
#
#
#
# Elastic Constant Matrix: (Units=GPa)
#
#
# Indices 1 2 3 4 5 6 
#
# 1 30.2116 0.6560 -0.6059 0.0000 0.0000 0.0000
# 2 0.6560 152.3751 38.6086 0.0000 0.0000 0.0000
# 3 -0.6059 38.6086 131.1531 0.0000 0.0000 0.0000
# 4 0.0000 0.0000 0.0000 15.4376 0.0000 0.0000
# 5 0.0000 0.0000 0.0000 0.0000 34.4592 0.0000
# 6 0.0000 0.0000 0.0000 0.0000 0.0000 4.2002
#
#
#
# Elastic Compliance Matrix: (Units=1/GPa)
#
#
# Indices 1 2 3 4 5 6 
#
# 1 0.033108 -0.000196 0.000211 0.000000 0.000000 0.000000
# 2 -0.000196 0.007093 -0.002089 0.000000 0.000000 0.000000
# 3 0.000211 -0.002089 0.008241 0.000000 0.000000 0.000000
# 4 0.000000 0.000000 0.000000 0.064777 0.000000 0.000000
# 5 0.000000 0.000000 0.000000 0.000000 0.029020 0.000000
# 6 0.000000 0.000000 0.000000 0.000000 0.000000 0.238083
#
#
# Mechanical properties :
#
#
# Convention : Reuss Voigt Hill
#
# Bulk Modulus (GPa) = 22.57671 43.45081 33.01376
# Shear Modulus (GPa) = 12.52398 29.15815 20.84106
#
# Velocity S-wave (km/s) = 2.34344 3.57571 3.02303
# Velocity P-wave (km/s) = 4.14995 6.00838 5.16346
#
# Compressibility (1/GPa) = 0.04429343
#
# Stress axis : x y z
#
# Youngs Moduli (GPa) = 30.20387 140.98651 121.35083
#
# Poissons Ratio (x) = 0.02762 -0.02556
# Poissons Ratio (y) = 0.00592 0.25349
# Poissons Ratio (z) = -0.00636 0.29451
#
# Static dielectric constant tensor:
#      x y z
#    x 1.898600 0.000000 0.000000 
#    y 0.000000 1.856140 0.000000 
#    z 0.000000 0.000000 1.839010 
# 
# From -- ./inp_files/28357.got.cif
#   From: 2010.05.17/outbox.cif.g08.bks.cpg/sg73_15_cif.got.tgz:28357.got - 2010.06.03 17:35:07.
