data_PCOD9532120
_publ_section_title
;
Structure prediction by ZEFSAII (Michael W. Deem and Ramdas Pophale) SiO2 
 PCOD9532120
Probable space group: I B C A 
;
_chemical_formula_sum "Si O2"
_cell_formula_units_Z 96
_cell_length_a 10.836750
_cell_length_b 17.933574
_cell_length_c 21.287290
_cell_angle_alpha 90.000000
_cell_angle_beta 90.000000
_cell_angle_gamma 90.000000
_cell_volume 4137.007234
_symmetry_space_group_name_H-M "I B C A "
_symmetry_group_IT_number 73
_symmetry_cell_setting 'orthorhombic'
loop_
_space_group_symop_operation_xyz
x,y,z
-x,1/2-y,z
x,-y,1/2-z
1/2-x,y,-z
-x,-y,-z
x,1/2+y,-z
-x,y,1/2+z
1/2+x,-y,z
1/2+x,1/2+y,1/2+z
1/2-x,-y,1/2+z
1/2+x,1/2-y,-z
-x,1/2+y,1/2-z
1/2-x,1/2-y,1/2-z
1/2+x,y,1/2-z
1/2-x,1/2+y,z
x,1/2-y,1/2+z
loop_
_atom_site_type_symbol
_atom_site_label
_atom_site_fract_x
_atom_site_fract_y
_atom_site_fract_z
Si Si1 0.250000 0.756942 0.500000
Si Si2 0.959069 0.500000 0.750000
Si Si3 0.060425 0.385133 0.473720
Si Si4 0.250000 0.992074 0.000000
Si Si5 0.927040 0.374088 0.170800
Si Si6 0.645878 0.624427 0.338596
Si Si7 0.854694 0.369033 0.570412
Si Si8 0.500000 0.750000 0.768881
O O1 0.134756 0.809873 0.511896
O O2 0.223267 0.705373 0.439472
O O3 0.876779 0.560390 0.713069
O O4 0.044462 0.547063 0.796871
O O5 0.133097 0.453428 0.505661
O O6 0.065851 0.395689 0.399580
O O7 0.929624 0.376597 0.505099
O O8 0.272932 0.943330 0.063410
O O9 0.789815 0.372028 0.142779
O O10 0.933630 0.310047 0.223865
O O11 0.041861 0.362934 0.123308
O O12 0.595332 0.701949 0.310277
#
# Coordination Sequence:
#
# PCOD9532120 Si02
#       8
#     8   8  16   8  16  16  16   8
#     4  10  24  40  60 102 138 174 214 264 334 410
#     4  10  24  46  66  98 126 176 232 280 332 394
#     4  11  23  39  67  95 136 171 215 269 341 402
#     4  10  22  42  60 100 130 172 212 268 330 406
#     4  11  23  43  70  92 134 178 226 279 336 403
#     4  11  24  43  66  95 131 176 224 283 334 398
#     4  11  24  41  66 100 137 173 220 271 342 408
#     4  10  26  42  62  96 130 176 238 278 332 394
#
# _framework density 23.205182000000001
#
# number of rings (size 3 to 8) (size 9 to 14) (size 15 to 20)
#    0.000    1.333    0.000    5.000    7.000    1.333 
#    0.000    3.333    0.000    0.000    0.000    0.000 
#    0.000    0.000    0.000    0.000    0.000    0.000 
#
# Total GULP energy -268614.864402 kJ/mol
# GULP energy per Si atom -5596.143008 kJ/mol
# Density = 2.315237 g / cm^3
# Si number density = 23.205182 Si / 1000 Ang^3
#
#
#
# Elastic Constant Matrix: (Units=GPa)
#
#
# Indices 1 2 3 4 5 6 
#
# 1 69.2391 31.3723 26.9456 0.0000 0.0000 0.0000
# 2 31.3723 141.4668 28.6389 0.0000 0.0000 0.0000
# 3 26.9456 28.6389 94.3657 0.0000 0.0000 0.0000
# 4 0.0000 0.0000 0.0000 19.5393 0.0000 0.0000
# 5 0.0000 0.0000 0.0000 0.0000 35.6079 0.0000
# 6 0.0000 0.0000 0.0000 0.0000 0.0000 -11.5095
#
#
#
# Elastic Compliance Matrix: (Units=1/GPa)
#
#
# Indices 1 2 3 4 5 6 
#
# 1 0.017393 -0.003038 -0.004044 0.000000 0.000000 0.000000
# 2 -0.003038 0.008062 -0.001579 0.000000 0.000000 0.000000
# 3 -0.004044 -0.001579 0.012231 0.000000 0.000000 0.000000
# 4 0.000000 0.000000 0.000000 0.051179 0.000000 0.000000
# 5 0.000000 0.000000 0.000000 0.000000 0.028084 0.000000
# 6 0.000000 0.000000 0.000000 0.000000 0.000000 -0.086885
#
#
# Mechanical properties :
#
#
# Convention : Reuss Voigt Hill
#
# Bulk Modulus (GPa) = 49.10940 53.22056 51.16498
# Shear Modulus (GPa) = 92.29052 23.26852 57.77952
#
# Velocity S-wave (km/s) = 6.31331 3.17003 4.99534
# Velocity P-wave (km/s) = 8.62281 6.03186 7.44097
#
# Compressibility (1/GPa) = 0.02036270
#
# Stress axis : x y z
#
# Youngs Moduli (GPa) = 57.49305 124.03384 81.75806
#
# Poissons Ratio (x) = 0.37687 0.33067
# Poissons Ratio (y) = 0.17469 0.12911
# Poissons Ratio (z) = 0.23253 0.19587
#
# Static dielectric constant tensor:
#      x y z
#    x 1.851770 0.000000 0.000000 
#    y 0.000000 1.894240 0.000000 
#    z 0.000000 0.000000 2.047010 
# 
# From -- ./inp_files/28966.got.cif
#   From: 2010.05.17/outbox.cif.g08.bks.cpg/sg73_15_cif.got.tgz:28966.got - 2010.06.03 17:35:07.
