data_PCOD9532647
_publ_section_title
;
Structure prediction by ZEFSAII (Michael W. Deem and Ramdas Pophale) SiO2 
 PCOD9532647
Probable space group: I B C A 
;
_chemical_formula_sum "Si O2"
_cell_formula_units_Z 120
_cell_length_a 9.376090
_cell_length_b 23.429231
_cell_length_c 23.777545
_cell_angle_alpha 90.000000
_cell_angle_beta 90.000000
_cell_angle_gamma 90.000000
_cell_volume 5223.322175
_symmetry_space_group_name_H-M "I B C A "
_symmetry_group_IT_number 73
_symmetry_cell_setting 'orthorhombic'
loop_
_space_group_symop_operation_xyz
x,y,z
-x,1/2-y,z
x,-y,1/2-z
1/2-x,y,-z
-x,-y,-z
x,1/2+y,-z
-x,y,1/2+z
1/2+x,-y,z
1/2+x,1/2+y,1/2+z
1/2-x,-y,1/2+z
1/2+x,1/2-y,-z
-x,1/2+y,1/2-z
1/2-x,1/2-y,1/2-z
1/2+x,y,1/2-z
1/2-x,1/2+y,z
x,1/2-y,1/2+z
loop_
_atom_site_type_symbol
_atom_site_label
_atom_site_fract_x
_atom_site_fract_y
_atom_site_fract_z
Si Si1 0.675219 0.590218 0.813659
Si Si2 0.143753 0.877299 0.710464
Si Si3 0.851603 0.276342 0.173952
Si Si4 0.223991 0.318624 0.898642
Si Si5 0.961677 0.532887 0.443126
Si Si6 0.500000 0.250000 0.531365
Si Si7 0.209284 0.014952 0.867615
Si Si8 0.530590 0.667422 0.559023
O O1 0.802395 0.604386 0.771471
O O2 0.528312 0.617389 0.790286
O O3 0.693307 0.619303 0.874415
O O4 0.698014 0.523364 0.824468
O O5 0.234422 0.819172 0.700361
O O6 0.184447 0.924392 0.662733
O O7 0.765211 0.220987 0.154077
O O8 0.905450 0.310524 0.118053
O O9 0.000000 0.250000 0.200609
O O10 0.362008 0.320149 0.937405
O O11 0.094919 0.289836 0.929909
O O12 0.803495 0.519380 0.423054
O O13 0.960198 0.600777 0.450859
O O14 0.000000 0.500000 0.500000
O O15 0.065729 0.514747 0.391098
O O16 0.414505 0.293396 0.491232
#
# Coordination Sequence:
#
# PCOD9532647 Si02
#       8
#    16  16  16  16  16   8  16  16
#     4  12  29  47  78 110 146 197 250 319 385 443
#     4  12  28  48  77 110 143 199 254 316 382 452
#     4  10  23  46  71 103 143 192 244 306 368 434
#     4  11  24  45  68 102 148 184 241 311 361 444
#     4  12  27  46  73 112 150 198 240 308 377 449
#     4  12  24  40  70 104 138 198 244 284 368 446
#     4  12  26  49  75 108 153 193 256 311 373 461
#     4  11  23  42  72 100 143 197 241 299 361 448
#
# _framework density 22.973884999999999
#
# number of rings (size 3 to 8) (size 9 to 14) (size 15 to 20)
#    0.000    0.533    6.000    2.000    7.467    3.733 
#    3.600    0.000    0.000    0.000    0.000    0.000 
#    0.000    0.000    0.000    0.000    0.000    0.000 
#
# Total GULP energy -335263.355787 kJ/mol
# GULP energy per Si atom -5587.722596 kJ/mol
# Density = 2.292160 g / cm^3
# Si number density = 22.973885 Si / 1000 Ang^3
#
#
#
# Elastic Constant Matrix: (Units=GPa)
#
#
# Indices 1 2 3 4 5 6 
#
# 1 91.0470 4.2384 9.2442 0.0000 0.0000 0.0000
# 2 4.2384 94.1565 -7.7558 0.0000 0.0000 0.0000
# 3 9.2442 -7.7558 46.1530 0.0000 0.0000 0.0000
# 4 0.0000 0.0000 0.0000 4.2992 0.0000 0.0000
# 5 0.0000 0.0000 0.0000 0.0000 81.3363 0.0000
# 6 0.0000 0.0000 0.0000 0.0000 0.0000 24.9370
#
#
#
# Elastic Compliance Matrix: (Units=1/GPa)
#
#
# Indices 1 2 3 4 5 6 
#
# 1 0.011257 -0.000702 -0.002373 0.000000 0.000000 0.000000
# 2 -0.000702 0.010813 0.001958 0.000000 0.000000 0.000000
# 3 -0.002373 0.001958 0.022471 0.000000 0.000000 0.000000
# 4 0.000000 0.000000 0.000000 0.232600 0.000000 0.000000
# 5 0.000000 0.000000 0.000000 0.000000 0.012295 0.000000
# 6 0.000000 0.000000 0.000000 0.000000 0.000000 0.040101
#
#
# Mechanical properties :
#
#
# Convention : Reuss Voigt Hill
#
# Bulk Modulus (GPa) = 23.63643 26.97890 25.30767
# Shear Modulus (GPa) = 14.45611 37.15648 25.80630
#
# Velocity S-wave (km/s) = 2.51119 4.02597 3.35519
# Velocity P-wave (km/s) = 4.32653 5.77755 5.10387
#
# Compressibility (1/GPa) = 0.04230758
#
# Stress axis : x y z
#
# Youngs Moduli (GPa) = 88.83411 92.47711 44.50119
#
# Poissons Ratio (x) = 0.06493 0.10559
# Poissons Ratio (y) = 0.06238 -0.08712
# Poissons Ratio (z) = 0.21078 -0.18105
#
# Static dielectric constant tensor:
#      x y z
#    x 1.851520 0.000000 0.000000 
#    y 0.000000 1.868220 0.000000 
#    z 0.000000 0.000000 1.852860 
# 
# From -- ./inp_files/31409.got.cif
#   From: 2010.05.17/outbox.cif.g08.bks.cpg/sg73_16_cif.got.tgz:31409.got - 2010.06.03 17:35:07.
