data_PCOD9532236
_publ_section_title
;
Structure prediction by ZEFSAII (Michael W. Deem and Ramdas Pophale) SiO2 
 PCOD9532236
Probable space group: I B C A 
;
_chemical_formula_sum "Si O2"
_cell_formula_units_Z 96
_cell_length_a 22.371496
_cell_length_b 19.120705
_cell_length_c 9.504134
_cell_angle_alpha 90.000000
_cell_angle_beta 90.000000
_cell_angle_gamma 90.000000
_cell_volume 4065.476721
_symmetry_space_group_name_H-M "I B C A "
_symmetry_group_IT_number 73
_symmetry_cell_setting 'orthorhombic'
loop_
_space_group_symop_operation_xyz
x,y,z
-x,1/2-y,z
x,-y,1/2-z
1/2-x,y,-z
-x,-y,-z
x,1/2+y,-z
-x,y,1/2+z
1/2+x,-y,z
1/2+x,1/2+y,1/2+z
1/2-x,-y,1/2+z
1/2+x,1/2-y,-z
-x,1/2+y,1/2-z
1/2-x,1/2-y,1/2-z
1/2+x,y,1/2-z
1/2-x,1/2+y,z
x,1/2-y,1/2+z
loop_
_atom_site_type_symbol
_atom_site_label
_atom_site_fract_x
_atom_site_fract_y
_atom_site_fract_z
Si Si1 0.122381 0.441433 0.645670
Si Si2 0.301862 0.546952 0.887158
Si Si3 0.019109 0.575777 0.301698
Si Si4 0.864719 0.289484 0.117344
Si Si5 0.696391 0.790702 0.828745
Si Si6 0.987072 0.327385 0.964967
O O1 0.146619 0.500000 0.750000
O O2 0.139373 0.457372 0.485103
O O3 0.051152 0.439242 0.665579
O O4 0.151513 0.366048 0.679264
O O5 0.302807 0.500000 0.750000
O O6 0.294544 0.626862 0.837222
O O7 0.250000 0.529990 0.000000
O O8 0.043969 0.500000 0.250000
O O9 0.033106 0.625934 0.438153
O O10 0.026059 0.624252 0.166752
O O11 0.860228 0.231002 0.234254
O O12 0.821152 0.270553 0.987948
O O13 0.929910 0.306774 0.059336
O O14 0.750000 0.750000 0.750000
O O15 0.000000 0.250000 0.907622
#
# Coordination Sequence:
#
# PCOD9532236 Si02
#       6
#    16  16  16  16  16  16
#     4   9  20  42  64  95 135 179 229 278 342 418
#     4  11  24  43  67 102 139 178 232 292 351 421
#     4  10  22  43  67  94 137 189 230 285 353 426
#     4  10  24  39  65  98 128 171 226 273 336 414
#     4  11  23  44  67  94 134 172 220 280 343 415
#     4  11  24  41  66  99 137 176 233 292 349 411
#
# _framework density 23.613465000000001
#
# number of rings (size 3 to 8) (size 9 to 14) (size 15 to 20)
#    0.000    1.667    0.000    4.000    7.000    2.667 
#    3.000    7.500    0.000    0.000    0.000    0.000 
#    0.000    0.000    0.000    0.000    0.000    0.000 
#
# Total GULP energy -267968.125935 kJ/mol
# GULP energy per Si atom -5582.669290 kJ/mol
# Density = 2.355972 g / cm^3
# Si number density = 23.613465 Si / 1000 Ang^3
#
#
#
# Elastic Constant Matrix: (Units=GPa)
#
#
# Indices 1 2 3 4 5 6 
#
# 1 64.1080 1.1784 12.6539 0.0000 0.0000 0.0000
# 2 1.1784 104.6025 42.8684 0.0000 0.0000 0.0000
# 3 12.6539 42.8684 80.4705 0.0000 0.0000 0.0000
# 4 0.0000 0.0000 0.0000 52.8137 0.0000 0.0000
# 5 0.0000 0.0000 0.0000 0.0000 43.2709 0.0000
# 6 0.0000 0.0000 0.0000 0.0000 0.0000 12.8730
#
#
#
# Elastic Compliance Matrix: (Units=1/GPa)
#
#
# Indices 1 2 3 4 5 6 
#
# 1 0.016197 0.001102 -0.003134 0.000000 0.000000 0.000000
# 2 0.001102 0.012305 -0.006728 0.000000 0.000000 0.000000
# 3 -0.003134 -0.006728 0.016504 0.000000 0.000000 0.000000
# 4 0.000000 0.000000 0.000000 0.018934 0.000000 0.000000
# 5 0.000000 0.000000 0.000000 0.000000 0.023110 0.000000
# 6 0.000000 0.000000 0.000000 0.000000 0.000000 0.077682
#
#
# Mechanical properties :
#
#
# Convention : Reuss Voigt Hill
#
# Bulk Modulus (GPa) = 36.38323 40.28690 38.33507
# Shear Modulus (GPa) = 26.12120 34.62354 30.37237
#
# Velocity S-wave (km/s) = 3.32957 3.83333 3.59030
# Velocity P-wave (km/s) = 5.49751 6.05728 5.78417
#
# Compressibility (1/GPa) = 0.02748519
#
# Stress axis : x y z
#
# Youngs Moduli (GPa) = 61.73973 81.26743 60.59098
#
# Poissons Ratio (x) = -0.08955 0.18989
# Poissons Ratio (y) = -0.06803 0.40768
# Poissons Ratio (z) = 0.19349 0.54680
#
# Static dielectric constant tensor:
#      x y z
#    x 2.074100 0.000000 0.000000 
#    y 0.000000 1.990000 0.000000 
#    z 0.000000 0.000000 1.861520 
# 
# From -- ./inp_files/7802.got.cif
#   From: 2010.05.17/outbox.cif.g08.bks.cpg/sg73_4_cif.got.tgz:7802.got - 2010.06.03 17:35:07.
