data_PCOD9532799
_publ_section_title
;
Structure prediction by ZEFSAII (Michael W. Deem and Ramdas Pophale) SiO2 
 PCOD9532799
Probable space group: I B C A 
;
_chemical_formula_sum "Si O2"
_cell_formula_units_Z 72
_cell_length_a 8.444503
_cell_length_b 23.669052
_cell_length_c 14.924403
_cell_angle_alpha 90.000000
_cell_angle_beta 90.000000
_cell_angle_gamma 90.000000
_cell_volume 2982.990881
_symmetry_space_group_name_H-M "I B C A "
_symmetry_group_IT_number 73
_symmetry_cell_setting 'orthorhombic'
loop_
_space_group_symop_operation_xyz
x,y,z
-x,1/2-y,z
x,-y,1/2-z
1/2-x,y,-z
-x,-y,-z
x,1/2+y,-z
-x,y,1/2+z
1/2+x,-y,z
1/2+x,1/2+y,1/2+z
1/2-x,-y,1/2+z
1/2+x,1/2-y,-z
-x,1/2+y,1/2-z
1/2-x,1/2-y,1/2-z
1/2+x,y,1/2-z
1/2-x,1/2+y,z
x,1/2-y,1/2+z
loop_
_atom_site_type_symbol
_atom_site_label
_atom_site_fract_x
_atom_site_fract_y
_atom_site_fract_z
Si Si1 0.627696 0.674587 0.386237
Si Si2 0.291992 0.500000 0.750000
Si Si3 0.750000 0.587969 0.000000
Si Si4 0.046028 0.936777 0.152352
Si Si5 0.524790 0.337242 0.917153
Si Si6 0.500000 0.750000 0.244352
O O1 0.509034 0.627590 0.348069
O O2 0.560890 0.690713 0.484721
O O3 0.795175 0.642345 0.397727
O O4 0.630232 0.727465 0.318085
O O5 0.178754 0.448580 0.774122
O O6 0.405279 0.479742 0.671087
O O7 0.868317 0.552227 0.059442
O O8 0.630421 0.625044 0.062644
O O9 0.498516 0.300298 0.828739
#
# Coordination Sequence:
#
# PCOD9532799 Si02
#       6
#    16   8   8  16  16   8
#     4  10  24  44  69 102 148 188 231 291 354 411
#     4  10  24  44  72 104 134 176 242 292 346 436
#     4  10  24  46  70  98 142 192 224 292 362 410
#     4  10  24  44  70 103 140 180 229 296 352 422
#     4  10  24  43  64 103 148 185 239 284 333 430
#     4  12  24  38  74 110 138 194 234 278 354 422
#
# _framework density 24.136848000000001
#
# number of rings (size 3 to 8) (size 9 to 14) (size 15 to 20)
#    0.000    1.778    0.000    1.333    6.222    9.778 
#    0.000    2.222    0.000    0.000    0.000    0.000 
#    0.000    0.000    0.000    0.000    0.000    0.000 
#
# Total GULP energy -200500.374477 kJ/mol
# GULP energy per Si atom -5569.454847 kJ/mol
# Density = 2.408191 g / cm^3
# Si number density = 24.136848 Si / 1000 Ang^3
#
#
#
# Elastic Constant Matrix: (Units=GPa)
#
#
# Indices 1 2 3 4 5 6 
#
# 1 143.1701 41.4191 51.0117 0.0000 0.0000 0.0000
# 2 41.4191 36.7769 44.7538 0.0000 0.0000 0.0000
# 3 51.0117 44.7538 153.9314 -0.0001 0.0000 0.0000
# 4 0.0000 0.0000 -0.0001 5.6847 0.0000 0.0000
# 5 0.0000 0.0000 0.0000 0.0000 20.3283 0.0000
# 6 0.0000 0.0000 0.0000 0.0000 0.0000 7.5931
#
#
#
# Elastic Compliance Matrix: (Units=1/GPa)
#
#
# Indices 1 2 3 4 5 6 
#
# 1 0.010361 -0.011591 -0.000063 0.000000 0.000000 0.000000
# 2 -0.011591 0.055046 -0.012163 0.000000 0.000000 0.000000
# 3 -0.000063 -0.012163 0.010054 0.000000 0.000000 0.000000
# 4 0.000000 0.000000 0.000000 0.175911 0.000000 0.000000
# 5 0.000000 0.000000 0.000000 0.000000 0.049193 0.000000
# 6 0.000000 0.000000 0.000000 0.000000 0.000000 0.131698
#
#
# Mechanical properties :
#
#
# Convention : Reuss Voigt Hill
#
# Bulk Modulus (GPa) = 35.93817 67.58307 51.76062
# Shear Modulus (GPa) = 10.22135 19.83414 15.02774
#
# Velocity S-wave (km/s) = 2.06008 2.86971 2.49791
# Velocity P-wave (km/s) = 4.53655 6.24828 5.45991
#
# Compressibility (1/GPa) = 0.02782557
#
# Stress axis : x y z
#
# Youngs Moduli (GPa) = 96.51911 18.16651 99.46665
#
# Poissons Ratio (x) = 0.21057 0.00631
# Poissons Ratio (y) = 1.11878 1.20980
# Poissons Ratio (z) = 0.00612 0.22096
#
# Static dielectric constant tensor:
#      x y z
#    x 1.983970 0.000000 0.000000 
#    y 0.000000 1.941540 0.000000 
#    z 0.000000 0.000000 1.947740 
# 
# From -- ./inp_files/15545.got.cif
#   From: 2010.05.17/outbox.cif.g08.bks.cpg/sg73_8_cif.got.tgz:15545.got - 2010.06.03 17:35:07.
