data_PCOD9532888
_publ_section_title
;
Structure prediction by ZEFSAII (Michael W. Deem and Ramdas Pophale) SiO2 
 PCOD9532888
Probable space group: I B C A 
;
_chemical_formula_sum "Si O2"
_cell_formula_units_Z 120
_cell_length_a 22.201283
_cell_length_b 11.407987
_cell_length_c 24.161042
_cell_angle_alpha 90.000000
_cell_angle_beta 90.000000
_cell_angle_gamma 90.000000
_cell_volume 6119.314169
_symmetry_space_group_name_H-M "I B C A "
_symmetry_group_IT_number 73
_symmetry_cell_setting 'orthorhombic'
loop_
_space_group_symop_operation_xyz
x,y,z
-x,1/2-y,z
x,-y,1/2-z
1/2-x,y,-z
-x,-y,-z
x,1/2+y,-z
-x,y,1/2+z
1/2+x,-y,z
1/2+x,1/2+y,1/2+z
1/2-x,-y,1/2+z
1/2+x,1/2-y,-z
-x,1/2+y,1/2-z
1/2-x,1/2-y,1/2-z
1/2+x,y,1/2-z
1/2-x,1/2+y,z
x,1/2-y,1/2+z
loop_
_atom_site_type_symbol
_atom_site_label
_atom_site_fract_x
_atom_site_fract_y
_atom_site_fract_z
Si Si1 0.500000 0.250000 0.615988
Si Si2 0.865520 0.910655 0.410144
Si Si3 0.835109 0.492347 0.315087
Si Si4 0.496457 0.502014 0.934659
Si Si5 0.635872 0.240267 0.630774
Si Si6 0.183023 0.889317 0.521571
Si Si7 0.807975 0.519196 0.688436
Si Si8 0.889422 0.860191 0.912339
O O1 0.515286 0.367708 0.582681
O O2 0.564577 0.222342 0.643085
O O3 0.878906 0.776861 0.421983
O O4 0.928742 0.977649 0.415814
O O5 0.818603 0.985067 0.447147
O O6 0.839310 0.922715 0.349368
O O7 0.855527 0.500000 0.250000
O O8 0.849557 0.370052 0.346815
O O9 0.763412 0.506109 0.314143
O O10 0.861216 0.592888 0.355291
O O11 0.542052 0.404534 0.912095
O O12 0.500000 0.500000 0.000000
O O13 0.654566 0.204387 0.566584
O O14 0.673211 0.145535 0.665541
O O15 0.250000 0.857130 0.500000
O O16 0.142391 0.910799 0.467370
O O17 0.829199 0.500000 0.750000
#
# Coordination Sequence:
#
# PCOD9532888 Si02
#       8
#     8  16  16  16  16  16  16  16
#     4  12  22  46  66  94 136 182 228 282 340 418
#     4  11  25  42  63 101 135 174 229 281 348 415
#     4  11  27  45  71 103 135 186 236 285 348 413
#     4  12  24  41  66  96 135 184 230 275 351 415
#     4  11  24  47  71 100 140 181 234 284 350 423
#     4  11  25  43  66 103 135 183 222 282 358 415
#     4  10  24  45  71  97 131 181 228 282 346 406
#     4  12  25  41  68 100 139 176 226 290 340 415
#
# _framework density 19.610040999999999
#
# number of rings (size 3 to 8) (size 9 to 14) (size 15 to 20)
#    0.000    0.800    5.333    2.000   11.200    1.600 
#    0.000    2.667    0.000    0.000    0.000    0.000 
#    0.000    0.000    0.000    0.000    0.000    0.000 
#
# Total GULP energy -334689.612048 kJ/mol
# GULP energy per Si atom -5578.160201 kJ/mol
# Density = 1.956541 g / cm^3
# Si number density = 19.610041 Si / 1000 Ang^3
#
#
#
# Elastic Constant Matrix: (Units=GPa)
#
#
# Indices 1 2 3 4 5 6 
#
# 1 88.7637 -1.4879 27.9798 0.0000 0.0000 0.0000
# 2 -1.4879 100.5240 14.3259 0.0000 0.0000 0.0000
# 3 27.9798 14.3259 116.2940 0.0000 0.0000 0.0000
# 4 0.0000 0.0000 0.0000 15.6078 0.0000 0.0000
# 5 0.0000 0.0000 0.0000 0.0000 6.6097 0.0000
# 6 0.0000 0.0000 0.0000 0.0000 0.0000 28.6676
#
#
#
# Elastic Compliance Matrix: (Units=1/GPa)
#
#
# Indices 1 2 3 4 5 6 
#
# 1 0.012227 0.000611 -0.003017 0.000000 0.000000 0.000000
# 2 0.000611 0.010156 -0.001398 0.000000 0.000000 0.000000
# 3 -0.003017 -0.001398 0.009497 0.000000 0.000000 0.000000
# 4 0.000000 0.000000 0.000000 0.064070 0.000000 0.000000
# 5 0.000000 0.000000 0.000000 0.000000 0.151292 0.000000
# 6 0.000000 0.000000 0.000000 0.000000 0.000000 0.034883
#
#
# Mechanical properties :
#
#
# Convention : Reuss Voigt Hill
#
# Bulk Modulus (GPa) = 41.19989 43.02413 42.11201
# Shear Modulus (GPa) = 16.78843 27.82796 22.30820
#
# Velocity S-wave (km/s) = 2.92912 3.77114 3.37648
# Velocity P-wave (km/s) = 5.70042 6.39918 6.05988
#
# Compressibility (1/GPa) = 0.02427191
#
# Stress axis : x y z
#
# Youngs Moduli (GPa) = 81.78530 98.46235 105.29625
#
# Poissons Ratio (x) = -0.06016 0.31768
# Poissons Ratio (y) = -0.04997 0.14721
# Poissons Ratio (z) = 0.24675 0.13766
#
# Static dielectric constant tensor:
#      x y z
#    x 1.708570 0.000000 0.000000 
#    y 0.000000 1.838840 0.000000 
#    z 0.000000 0.000000 1.694560 
# 
# From -- ./inp_files/30187.got.cif
#   From: 2010.05.17/outbox.cif.g08.bks.cpg/sg73_16_cif.got.tgz:30187.got - 2010.06.03 17:35:07.
