data_PCOD9532272
_publ_section_title
;
Structure prediction by ZEFSAII (Michael W. Deem and Ramdas Pophale) SiO2 
 PCOD9532272
Probable space group: I B C A 
;
_chemical_formula_sum "Si O2"
_cell_formula_units_Z 88
_cell_length_a 5.186151
_cell_length_b 24.400981
_cell_length_c 31.093026
_cell_angle_alpha 90.000000
_cell_angle_beta 90.000000
_cell_angle_gamma 90.000000
_cell_volume 3934.734510
_symmetry_space_group_name_H-M "I B C A "
_symmetry_group_IT_number 73
_symmetry_cell_setting 'orthorhombic'
loop_
_space_group_symop_operation_xyz
x,y,z
-x,1/2-y,z
x,-y,1/2-z
1/2-x,y,-z
-x,-y,-z
x,1/2+y,-z
-x,y,1/2+z
1/2+x,-y,z
1/2+x,1/2+y,1/2+z
1/2-x,-y,1/2+z
1/2+x,1/2-y,-z
-x,1/2+y,1/2-z
1/2-x,1/2-y,1/2-z
1/2+x,y,1/2-z
1/2-x,1/2+y,z
x,1/2-y,1/2+z
loop_
_atom_site_type_symbol
_atom_site_label
_atom_site_fract_x
_atom_site_fract_y
_atom_site_fract_z
Si Si1 0.500000 0.250000 0.077035
Si Si2 0.514249 0.885031 0.059018
Si Si3 0.150926 0.960145 0.104169
Si Si4 0.250000 0.804088 0.500000
Si Si5 0.250000 0.964010 0.500000
Si Si6 0.032011 0.315882 0.273336
Si Si7 0.402236 0.147018 0.131638
O O1 0.708715 0.268021 0.042050
O O2 0.548813 0.196257 0.105736
O O3 0.255064 0.919271 0.065617
O O4 0.524808 0.843446 0.018750
O O5 0.726973 0.928443 0.042582
O O6 0.641291 0.862242 0.103143
O O7 0.057593 0.910041 0.134602
O O8 0.414184 0.996475 0.108340
O O9 0.500000 0.000000 0.500000
O O10 0.246533 0.335617 0.239289
O O11 0.000000 0.250000 0.272034
O O12 0.132650 0.331761 0.320329
#
# Coordination Sequence:
#
# PCOD9532272 Si02
#       7
#     8  16  16   8   8  16  16
#     4  10  22  44  66 106 146 192 248 294 376 436
#     4  10  23  42  62  98 139 192 243 292 357 409
#     4  12  25  43  69 102 138 188 251 297 342 416
#     4   9  22  40  61  98 144 193 238 307 356 440
#     4  11  24  38  61  90 132 183 240 303 342 380
#     4  10  23  45  74 113 149 178 225 295 370 447
#     4  11  24  44  75 107 144 195 235 302 367 445
#
# _framework density 22.364913999999999
#
# number of rings (size 3 to 8) (size 9 to 14) (size 15 to 20)
#    0.000    1.455    2.727    1.091    7.636    0.000 
#    0.000    0.000    0.000    3.273    0.000    0.000 
#    0.000    0.000    0.000    0.000    0.000    0.000 
#
# Total GULP energy -244970.575941 kJ/mol
# GULP energy per Si atom -5567.513090 kJ/mol
# Density = 2.231401 g / cm^3
# Si number density = 22.364914 Si / 1000 Ang^3
#
#
#
# Elastic Constant Matrix: (Units=GPa)
#
#
# Indices 1 2 3 4 5 6 
#
# 1 147.2022 47.9769 21.9412 0.0000 0.0000 0.0000
# 2 47.9769 106.6019 15.4008 0.0000 0.0000 0.0000
# 3 21.9412 15.4008 98.3352 0.0000 0.0000 0.0000
# 4 0.0000 0.0000 0.0000 -62.5157 0.0000 0.0000
# 5 0.0000 0.0000 0.0000 0.0000 20.7328 0.0000
# 6 0.0000 0.0000 0.0000 0.0000 0.0000 28.5682
#
#
#
# Elastic Compliance Matrix: (Units=1/GPa)
#
#
# Indices 1 2 3 4 5 6 
#
# 1 0.008113 -0.003468 -0.001267 0.000000 0.000000 0.000000
# 2 -0.003468 0.011080 -0.000962 0.000000 0.000000 0.000000
# 3 -0.001267 -0.000962 0.010603 0.000000 0.000000 0.000000
# 4 0.000000 0.000000 0.000000 -0.015996 0.000000 0.000000
# 5 0.000000 0.000000 0.000000 0.000000 0.048233 0.000000
# 6 0.000000 0.000000 0.000000 0.000000 0.000000 0.035004
#
#
# Mechanical properties :
#
#
# Convention : Reuss Voigt Hill
#
# Bulk Modulus (GPa) = 54.34076 58.08636 56.21356
# Shear Modulus (GPa) = 43.64385 15.14509 29.39447
#
# Velocity S-wave (km/s) = 4.42231 2.60509 3.62928
# Velocity P-wave (km/s) = 7.10111 5.92260 6.53846
#
# Compressibility (1/GPa) = 0.01840239
#
# Stress axis : x y z
#
# Youngs Moduli (GPa) = 123.26572 90.24914 94.31659
#
# Poissons Ratio (x) = 0.31299 0.11950
# Poissons Ratio (y) = 0.42749 0.09069
# Poissons Ratio (z) = 0.15617 0.08678
#
# Static dielectric constant tensor:
#      x y z
#    x 1.915700 0.000000 0.000000 
#    y 0.000000 1.968640 0.000000 
#    z 0.000000 0.000000 1.200890 
# 
# From -- ./inp_files/33277.got.cif
#   From: 2010.05.17/outbox.cif.g08.bks.cpg/sg73_17_cif.got.tgz:33277.got - 2010.06.03 17:35:07.
