data_PCOD9532681
_publ_section_title
;
Structure prediction by ZEFSAII (Michael W. Deem and Ramdas Pophale) SiO2 
 PCOD9532681
Probable space group: I B C A 
;
_chemical_formula_sum "Si O2"
_cell_formula_units_Z 120
_cell_length_a 27.867484
_cell_length_b 12.194667
_cell_length_c 15.412633
_cell_angle_alpha 90.000000
_cell_angle_beta 90.000000
_cell_angle_gamma 90.000000
_cell_volume 5237.747319
_symmetry_space_group_name_H-M "I B C A "
_symmetry_group_IT_number 73
_symmetry_cell_setting 'orthorhombic'
loop_
_space_group_symop_operation_xyz
x,y,z
-x,1/2-y,z
x,-y,1/2-z
1/2-x,y,-z
-x,-y,-z
x,1/2+y,-z
-x,y,1/2+z
1/2+x,-y,z
1/2+x,1/2+y,1/2+z
1/2-x,-y,1/2+z
1/2+x,1/2-y,-z
-x,1/2+y,1/2-z
1/2-x,1/2-y,1/2-z
1/2+x,y,1/2-z
1/2-x,1/2+y,z
x,1/2-y,1/2+z
loop_
_atom_site_type_symbol
_atom_site_label
_atom_site_fract_x
_atom_site_fract_y
_atom_site_fract_z
Si Si1 0.750000 0.474265 0.000000
Si Si2 0.681166 0.495121 0.146939
Si Si3 0.600964 0.825866 0.836531
Si Si4 0.039375 0.158004 0.550159
Si Si5 0.136964 0.277791 0.141596
Si Si6 0.177251 0.536742 0.848378
Si Si7 0.415216 0.904033 0.879027
Si Si8 0.512833 0.455112 0.164566
O O1 0.784453 0.433016 0.921370
O O2 0.708938 0.512805 0.928239
O O3 0.694848 0.500000 0.250000
O O4 0.631569 0.430819 0.138677
O O5 0.671595 0.619904 0.118558
O O6 0.615690 0.800648 0.737638
O O7 0.611967 0.711336 0.881502
O O8 0.546683 0.855267 0.861844
O O9 0.088111 0.215163 0.585771
O O10 0.056516 0.088555 0.468015
O O11 0.000000 0.250000 0.532734
O O12 0.014693 0.065185 0.608977
O O13 0.169273 0.167939 0.141940
O O14 0.192777 0.500000 0.750000
O O15 0.123329 0.493894 0.859325
O O16 0.460113 0.909674 0.813484
O O17 0.538843 0.500000 0.250000
#
# Coordination Sequence:
#
# PCOD9532681 Si02
#       8
#     8  16  16  16  16  16  16  16
#     4  12  28  50  80 106 142 180 244 308 382 458
#     4  10  23  49  73 105 141 188 238 302 372 436
#     4  11  22  44  71 102 144 196 238 294 357 434
#     4  12  25  41  63 106 149 196 247 295 343 424
#     4  11  23  46  74 100 147 190 237 298 355 431
#     4  12  27  51  74 112 146 186 242 308 377 436
#     4  12  27  43  68 105 152 194 235 302 362 429
#     4  12  23  40  68 104 148 198 251 284 349 430
#
# _framework density 22.910613000000001
#
# number of rings (size 3 to 8) (size 9 to 14) (size 15 to 20)
#    0.000    0.533    4.000    4.400    3.733    0.533 
#    2.400    2.000    0.000    0.000    0.000    0.000 
#    0.000    0.000    0.000    0.000    0.000    0.000 
#
# Total GULP energy -334171.574828 kJ/mol
# GULP energy per Si atom -5569.526247 kJ/mol
# Density = 2.285847 g / cm^3
# Si number density = 22.910613 Si / 1000 Ang^3
#
#
#
# Elastic Constant Matrix: (Units=GPa)
#
#
# Indices 1 2 3 4 5 6 
#
# 1 85.3360 1.9230 15.0059 0.0000 0.0000 0.0000
# 2 1.9230 101.2434 14.8672 0.0000 0.0000 0.0000
# 3 15.0059 14.8672 87.4040 0.0000 0.0000 0.0000
# 4 0.0000 0.0000 0.0000 8.3566 0.0000 0.0000
# 5 0.0000 0.0000 0.0000 0.0000 31.9616 0.0000
# 6 0.0000 0.0000 0.0000 0.0000 0.0000 -18.1455
#
#
#
# Elastic Compliance Matrix: (Units=1/GPa)
#
#
# Indices 1 2 3 4 5 6 
#
# 1 0.012084 0.000077 -0.002088 0.000000 0.000000 0.000000
# 2 0.000077 0.010131 -0.001736 0.000000 0.000000 0.000000
# 3 -0.002088 -0.001736 0.012095 0.000000 0.000000 0.000000
# 4 0.000000 0.000000 0.000000 0.119666 0.000000 0.000000
# 5 0.000000 0.000000 0.000000 0.000000 0.031288 0.000000
# 6 0.000000 0.000000 0.000000 0.000000 0.000000 -0.055110
#
#
# Mechanical properties :
#
#
# Convention : Reuss Voigt Hill
#
# Bulk Modulus (GPa) = 37.29225 37.50839 37.40032
# Shear Modulus (GPa) = 34.10974 20.58035 27.34505
#
# Velocity S-wave (km/s) = 3.86271 3.00040 3.45853
# Velocity P-wave (km/s) = 6.01719 5.33014 5.68406
#
# Compressibility (1/GPa) = 0.02681522
#
# Stress axis : x y z
#
# Youngs Moduli (GPa) = 82.75573 98.70974 82.67935
#
# Poissons Ratio (x) = -0.00761 0.17261
# Poissons Ratio (y) = -0.00638 0.14357
# Poissons Ratio (z) = 0.17277 0.17140
#
# Static dielectric constant tensor:
#      x y z
#    x 2.248370 0.000000 0.000000 
#    y 0.000000 1.882810 0.000000 
#    z 0.000000 0.000000 1.554730 
# 
# From -- ./inp_files/23981.got.cif
#   From: 2010.05.17/outbox.cif.g08.bks.cpg/sg73_12_cif.got.tgz:23981.got - 2010.06.03 17:35:07.
