data_PCOD9532546
_publ_section_title
;
Structure prediction by ZEFSAII (Michael W. Deem and Ramdas Pophale) SiO2 
 PCOD9532546
Probable space group: I B C A 
;
_chemical_formula_sum "Si O2"
_cell_formula_units_Z 48
_cell_length_a 4.963006
_cell_length_b 27.884529
_cell_length_c 14.679464
_cell_angle_alpha 90.000000
_cell_angle_beta 90.000000
_cell_angle_gamma 90.000000
_cell_volume 2031.506946
_symmetry_space_group_name_H-M "I B C A "
_symmetry_group_IT_number 73
_symmetry_cell_setting 'orthorhombic'
loop_
_space_group_symop_operation_xyz
x,y,z
-x,1/2-y,z
x,-y,1/2-z
1/2-x,y,-z
-x,-y,-z
x,1/2+y,-z
-x,y,1/2+z
1/2+x,-y,z
1/2+x,1/2+y,1/2+z
1/2-x,-y,1/2+z
1/2+x,1/2-y,-z
-x,1/2+y,1/2-z
1/2-x,1/2-y,1/2-z
1/2+x,y,1/2-z
1/2-x,1/2+y,z
x,1/2-y,1/2+z
loop_
_atom_site_type_symbol
_atom_site_label
_atom_site_fract_x
_atom_site_fract_y
_atom_site_fract_z
Si Si1 0.340120 0.472383 0.106229
Si Si2 0.754521 0.716864 0.609546
Si Si3 0.674163 0.611312 0.310389
O O1 0.547467 0.512644 0.144285
O O2 0.518856 0.424422 0.120492
O O3 0.250000 0.474239 0.000000
O O4 0.500000 0.750000 0.634281
O O5 0.750000 0.709881 0.500000
O O6 0.810517 0.665307 0.652786
O O7 0.000000 0.750000 0.635047
O O8 0.481368 0.604811 0.222338
#
# Coordination Sequence:
#
# PCOD9532546 Si02
#       3
#    16  16  16
#     4  10  23  43  66  92 127 174 223 268 318 388
#     4  10  23  43  66  91 124 172 225 273 326 398
#     4  12  26  40  64 100 134 170 212 273 344 400
#
# _framework density 23.627777999999999
#
# number of rings (size 3 to 8) (size 9 to 14) (size 15 to 20)
#    0.000    1.333    0.000    4.000    0.000   18.667 
#    0.000    0.000    0.000    0.000    0.000    0.000 
#    0.000    0.000    0.000    0.000    0.000    0.000 
#
# Total GULP energy -133703.846708 kJ/mol
# GULP energy per Si atom -5570.993613 kJ/mol
# Density = 2.357400 g / cm^3
# Si number density = 23.627778 Si / 1000 Ang^3
#
#
#
# Elastic Constant Matrix: (Units=GPa)
#
#
# Indices 1 2 3 4 5 6 
#
# 1 177.8801 74.1275 18.1119 0.0000 0.0000 0.0000
# 2 74.1275 231.6434 56.9425 0.0000 0.0000 0.0000
# 3 18.1119 56.9425 64.0624 0.0000 0.0000 0.0000
# 4 0.0000 0.0000 0.0000 55.4115 0.0000 0.0000
# 5 0.0000 0.0000 0.0000 0.0000 18.4390 0.0000
# 6 0.0000 0.0000 0.0000 0.0000 0.0000 45.3651
#
#
#
# Elastic Compliance Matrix: (Units=1/GPa)
#
#
# Indices 1 2 3 4 5 6 
#
# 1 0.006487 -0.002079 0.000014 0.000000 0.000000 0.000000
# 2 -0.002079 0.006190 -0.004915 0.000000 0.000000 0.000000
# 3 0.000014 -0.004915 0.019974 0.000000 0.000000 0.000000
# 4 0.000000 0.000000 0.000000 0.018047 0.000000 0.000000
# 5 0.000000 0.000000 0.000000 0.000000 0.054233 0.000000
# 6 0.000000 0.000000 0.000000 0.000000 0.000000 0.022043
#
#
# Mechanical properties :
#
#
# Convention : Reuss Voigt Hill
#
# Bulk Modulus (GPa) = 53.49851 85.77220 69.63535
# Shear Modulus (GPa) = 33.97556 45.47005 39.72281
#
# Velocity S-wave (km/s) = 3.79615 4.39159 4.10468
# Velocity P-wave (km/s) = 6.47346 7.88004 7.21113
#
# Compressibility (1/GPa) = 0.01869211
#
# Stress axis : x y z
#
# Youngs Moduli (GPa) = 154.15853 161.53813 50.06472
#
# Poissons Ratio (x) = 0.33589 -0.00071
# Poissons Ratio (y) = 0.32055 0.24605
# Poissons Ratio (z) = -0.00220 0.79390
#
# Static dielectric constant tensor:
#      x y z
#    x 1.847470 0.000000 0.000000 
#    y 0.000000 1.838670 0.000000 
#    z 0.000000 0.000000 1.986220 
# 
# From -- ./inp_files/555.got.cif
#   From: 2010.05.17/outbox.cif.g08.bks.cpg/sg73_1_cif.got.tgz:555.got - 2010.06.03 17:35:07.
