data_PCOD9532794
_publ_section_title
;
Structure prediction by ZEFSAII (Michael W. Deem and Ramdas Pophale) SiO2 
 PCOD9532794
Probable space group: I B C A 
;
_chemical_formula_sum "Si O2"
_cell_formula_units_Z 120
_cell_length_a 15.863796
_cell_length_b 21.318383
_cell_length_c 18.910667
_cell_angle_alpha 90.000000
_cell_angle_beta 90.000000
_cell_angle_gamma 90.000000
_cell_volume 6395.407530
_symmetry_space_group_name_H-M "I B C A "
_symmetry_group_IT_number 73
_symmetry_cell_setting 'orthorhombic'
loop_
_space_group_symop_operation_xyz
x,y,z
-x,1/2-y,z
x,-y,1/2-z
1/2-x,y,-z
-x,-y,-z
x,1/2+y,-z
-x,y,1/2+z
1/2+x,-y,z
1/2+x,1/2+y,1/2+z
1/2-x,-y,1/2+z
1/2+x,1/2-y,-z
-x,1/2+y,1/2-z
1/2-x,1/2-y,1/2-z
1/2+x,y,1/2-z
1/2-x,1/2+y,z
x,1/2-y,1/2+z
loop_
_atom_site_type_symbol
_atom_site_label
_atom_site_fract_x
_atom_site_fract_y
_atom_site_fract_z
Si Si1 0.343897 0.605501 0.310198
Si Si2 0.917310 0.927380 0.336601
Si Si3 0.682495 0.646859 0.279648
Si Si4 0.251284 0.976410 0.082567
Si Si5 0.040117 0.817264 0.375522
Si Si6 0.039674 0.500000 0.750000
Si Si7 0.086688 0.226020 0.282252
Si Si8 0.220610 0.124136 0.080096
O O1 0.266808 0.627069 0.261068
O O2 0.313916 0.566228 0.376068
O O3 0.404058 0.560280 0.266050
O O4 0.382436 0.671160 0.332060
O O5 0.884337 0.898553 0.260851
O O6 0.840519 0.957641 0.380792
O O7 0.967589 0.870940 0.375295
O O8 0.982076 0.981758 0.316209
O O9 0.649905 0.717224 0.267912
O O10 0.709368 0.644243 0.361680
O O11 0.222231 0.048591 0.090683
O O12 0.250000 0.962417 0.000000
O O13 0.064007 0.804248 0.293532
O O14 0.128457 0.843812 0.407674
O O15 0.000000 0.750000 0.401030
O O16 0.000000 0.250000 0.313208
O O17 0.250000 0.136943 0.000000
#
# Coordination Sequence:
#
# PCOD9532794 Si02
#       8
#    16  16  16  16  16   8  16  16
#     4  11  21  34  62  90 118 158 204 261 301 365
#     4  11  21  37  66  92 121 161 210 263 308 372
#     4  11  20  37  62  91 115 161 211 254 306 363
#     4  10  24  43  60  89 126 169 208 251 316 372
#     4  11  21  41  66  91 125 166 207 255 326 368
#     4  12  20  34  56  96 122 148 206 266 312 354
#     4  11  20  36  60  91 122 154 198 262 316 360
#     4  11  24  43  63  90 130 171 208 253 313 381
#
# _framework density 18.763463999999999
#
# number of rings (size 3 to 8) (size 9 to 14) (size 15 to 20)
#    0.000    1.067    5.333    2.800    0.000    2.133 
#    0.000   12.000    0.000    0.000    0.000    0.000 
#    0.000    0.000    0.000    0.000    0.000    0.000 
#
# Total GULP energy -334449.982518 kJ/mol
# GULP energy per Si atom -5574.166375 kJ/mol
# Density = 1.872076 g / cm^3
# Si number density = 18.763464 Si / 1000 Ang^3
#
#
#
# Elastic Constant Matrix: (Units=GPa)
#
#
# Indices 1 2 3 4 5 6 
#
# 1 104.9241 59.6251 32.9668 0.0000 0.0000 -0.0001
# 2 59.6251 109.0928 36.1176 0.0000 0.0000 0.0007
# 3 32.9668 36.1176 60.1083 0.0000 0.0000 0.0004
# 4 0.0000 0.0000 0.0000 19.5306 0.0000 0.0007
# 5 0.0000 0.0000 0.0000 0.0000 39.0841 -0.0007
# 6 -0.0001 0.0007 0.0004 0.0007 -0.0007 4700.6959
#
#
#
# Elastic Compliance Matrix: (Units=1/GPa)
#
#
# Indices 1 2 3 4 5 6 
#
# 1 0.014556 -0.006632 -0.003998 0.000000 0.000000 0.000000
# 2 -0.006632 0.014464 -0.005054 0.000000 0.000000 0.000000
# 3 -0.003998 -0.005054 0.021866 0.000000 0.000000 0.000000
# 4 0.000000 0.000000 0.000000 0.051202 0.000000 0.000000
# 5 0.000000 0.000000 0.000000 0.000000 0.025586 0.000000
# 6 0.000000 0.000000 0.000000 0.000000 0.000000 0.000213
#
#
# Mechanical properties :
#
#
# Convention : Reuss Voigt Hill
#
# Bulk Modulus (GPa) = 51.23422 59.06048 55.14735
# Shear Modulus (GPa) = 30.16400 961.55651 495.86025
#
# Velocity S-wave (km/s) = 4.01383 22.66219 16.27399
# Velocity P-wave (km/s) = 6.98897 26.76398 19.55961
#
# Compressibility (1/GPa) = 0.01951821
#
# Stress axis : x y z
#
# Youngs Moduli (GPa) = 68.70252 69.13550 45.73233
#
# Poissons Ratio (x) = 0.45848 0.18285
# Poissons Ratio (y) = 0.45561 0.23114
# Poissons Ratio (z) = 0.27469 0.34942
#
# Static dielectric constant tensor:
#      x y z
#    x 1.734200 0.000000 0.000000 
#    y 0.000000 2.079970 0.000000 
#    z 0.000000 0.000000 1.636880 
# 
# From -- ./inp_files/26242.got.cif
#   From: 2010.05.17/outbox.cif.g08.bks.cpg/sg73_14_cif.got.tgz:26242.got - 2010.06.03 17:35:07.
