data_PCOD9532095
_publ_section_title
;
Structure prediction by ZEFSAII (Michael W. Deem and Ramdas Pophale) SiO2 
 PCOD9532095
Probable space group: I B C A 
;
_chemical_formula_sum "Si O2"
_cell_formula_units_Z 72
_cell_length_a 22.150609
_cell_length_b 14.569963
_cell_length_c 9.896339
_cell_angle_alpha 90.000000
_cell_angle_beta 90.000000
_cell_angle_gamma 90.000000
_cell_volume 3193.880653
_symmetry_space_group_name_H-M "I B C A "
_symmetry_group_IT_number 73
_symmetry_cell_setting 'orthorhombic'
loop_
_space_group_symop_operation_xyz
x,y,z
-x,1/2-y,z
x,-y,1/2-z
1/2-x,y,-z
-x,-y,-z
x,1/2+y,-z
-x,y,1/2+z
1/2+x,-y,z
1/2+x,1/2+y,1/2+z
1/2-x,-y,1/2+z
1/2+x,1/2-y,-z
-x,1/2+y,1/2-z
1/2-x,1/2-y,1/2-z
1/2+x,y,1/2-z
1/2-x,1/2+y,z
x,1/2-y,1/2+z
loop_
_atom_site_type_symbol
_atom_site_label
_atom_site_fract_x
_atom_site_fract_y
_atom_site_fract_z
Si Si1 0.653777 0.500000 0.750000
Si Si2 0.854376 0.205670 0.288035
Si Si3 0.266281 0.350929 0.357429
Si Si4 0.433630 0.356399 0.112049
Si Si5 0.032559 0.101316 0.680266
O O1 0.696223 0.556379 0.648270
O O2 0.612151 0.564039 0.842371
O O3 0.802169 0.131006 0.311987
O O4 0.811239 0.282670 0.220591
O O5 0.893540 0.263067 0.399533
O O6 0.905377 0.154587 0.205608
O O7 0.250000 0.305713 0.500000
O O8 0.478272 0.349313 0.240330
O O9 0.471868 0.389028 0.982032
O O10 0.035078 0.000000 0.750000
#
# Coordination Sequence:
#
# PCOD9532095 Si02
#       5
#     8  16  16  16  16
#     4  10  24  40  66  96 138 176 224 284 326 402
#     4  10  24  42  66  99 132 177 224 274 333 410
#     4  10  22  41  66  94 133 176 221 272 335 391
#     4  11  25  46  65 101 137 178 224 278 342 403
#     4  12  26  42  71 101 137 177 229 278 338 403
#
# _framework density 22.543108
#
# number of rings (size 3 to 8) (size 9 to 14) (size 15 to 20)
#    0.000    1.333    1.111    2.667    4.667    5.333 
#    0.000    2.222    0.000    0.000    0.000    0.000 
#    0.000    0.000    0.000    0.000    0.000    0.000 
#
# Total GULP energy -200451.371659 kJ/mol
# GULP energy per Si atom -5568.093657 kJ/mol
# Density = 2.249180 g / cm^3
# Si number density = 22.543108 Si / 1000 Ang^3
#
#
#
# Elastic Constant Matrix: (Units=GPa)
#
#
# Indices 1 2 3 4 5 6 
#
# 1 152.8726 27.8304 36.1361 0.0000 0.0000 0.0000
# 2 27.8304 51.9137 11.4059 0.0000 0.0000 0.0000
# 3 36.1361 11.4059 98.1938 0.0000 0.0000 0.0000
# 4 0.0000 0.0000 0.0000 8.2359 0.0000 0.0000
# 5 0.0000 0.0000 0.0000 0.0000 43.3397 0.0000
# 6 0.0000 0.0000 0.0000 0.0000 0.0000 32.3603
#
#
#
# Elastic Compliance Matrix: (Units=1/GPa)
#
#
# Indices 1 2 3 4 5 6 
#
# 1 0.007780 -0.003635 -0.002441 0.000000 0.000000 0.000000
# 2 -0.003635 0.021465 -0.001156 0.000000 0.000000 0.000000
# 3 -0.002441 -0.001156 0.011216 0.000000 0.000000 0.000000
# 4 0.000000 0.000000 0.000000 0.121420 0.000000 0.000000
# 5 0.000000 0.000000 0.000000 0.000000 0.023074 0.000000
# 6 0.000000 0.000000 0.000000 0.000000 0.000000 0.030902
#
#
# Mechanical properties :
#
#
# Convention : Reuss Voigt Hill
#
# Bulk Modulus (GPa) = 38.46283 50.41389 44.43836
# Shear Modulus (GPa) = 20.92176 31.96102 26.44139
#
# Velocity S-wave (km/s) = 3.04974 3.76942 3.42852
# Velocity P-wave (km/s) = 5.43141 6.43091 5.95217
#
# Compressibility (1/GPa) = 0.02599913
#
# Stress axis : x y z
#
# Youngs Moduli (GPa) = 128.53385 46.58728 89.15451
#
# Poissons Ratio (x) = 0.16932 0.21762
# Poissons Ratio (y) = 0.46716 0.10304
# Poissons Ratio (z) = 0.31374 0.05384
#
# Static dielectric constant tensor:
#      x y z
#    x 1.952160 0.000000 0.000000 
#    y 0.000000 1.897560 0.000000 
#    z 0.000000 0.000000 2.371530 
# 
# From -- ./inp_files/6012.got.cif
#   From: 2010.05.17/outbox.cif.g08.bks.cpg/sg73_4_cif.got.tgz:6012.got - 2010.06.03 17:35:07.
