data_PCOD9532204
_publ_section_title
;
Structure prediction by ZEFSAII (Michael W. Deem and Ramdas Pophale) SiO2 
 PCOD9532204
Probable space group: I B C A 
;
_chemical_formula_sum "Si O2"
_cell_formula_units_Z 112
_cell_length_a 33.614335
_cell_length_b 10.802718
_cell_length_c 14.446320
_cell_angle_alpha 90.000000
_cell_angle_beta 90.000000
_cell_angle_gamma 90.000000
_cell_volume 5245.837022
_symmetry_space_group_name_H-M "I B C A "
_symmetry_group_IT_number 73
_symmetry_cell_setting 'orthorhombic'
loop_
_space_group_symop_operation_xyz
x,y,z
-x,1/2-y,z
x,-y,1/2-z
1/2-x,y,-z
-x,-y,-z
x,1/2+y,-z
-x,y,1/2+z
1/2+x,-y,z
1/2+x,1/2+y,1/2+z
1/2-x,-y,1/2+z
1/2+x,1/2-y,-z
-x,1/2+y,1/2-z
1/2-x,1/2-y,1/2-z
1/2+x,y,1/2-z
1/2-x,1/2+y,z
x,1/2-y,1/2+z
loop_
_atom_site_type_symbol
_atom_site_label
_atom_site_fract_x
_atom_site_fract_y
_atom_site_fract_z
Si Si1 0.829506 0.132297 0.930838
Si Si2 0.703890 0.372836 0.968829
Si Si3 0.780251 0.363004 0.242819
Si Si4 0.476457 0.038810 0.644928
Si Si5 0.065555 0.384546 0.306424
Si Si6 0.085321 0.795356 0.053607
Si Si7 0.453213 0.777613 0.627319
O O1 0.810823 0.139513 0.828161
O O2 0.876872 0.120596 0.926826
O O3 0.811387 0.013090 0.983232
O O4 0.818863 0.261328 0.981053
O O5 0.700483 0.353929 0.858307
O O6 0.750000 0.365576 0.000000
O O7 0.760557 0.500000 0.250000
O O8 0.750000 0.250000 0.250000
O O9 0.523604 0.064298 0.650816
O O10 0.454995 0.153893 0.599882
O O11 0.466471 0.000000 0.750000
O O12 0.456124 0.921094 0.597054
O O13 0.082972 0.500000 0.250000
O O14 0.091473 0.331811 0.389856
O O15 0.057828 0.277115 0.228596
O O16 0.075918 0.783677 0.946204
O O17 0.500000 0.750000 0.619318
#
# Coordination Sequence:
#
# PCOD9532204 Si02
#       7
#    16  16  16  16  16  16  16
#     4  11  27  44  68 104 143 181 219 283 349 411
#     4  11  23  45  75 101 138 174 228 279 334 414
#     4  10  22  42  72 103 129 175 221 271 336 407
#     4  11  22  43  68  88 133 179 230 281 338 394
#     4  11  23  43  66  94 132 180 233 288 333 397
#     4  12  28  41  63 100 141 174 229 277 349 413
#     4  12  23  40  69  96 124 182 230 283 339 396
#
# _framework density 21.350262000000001
#
# number of rings (size 3 to 8) (size 9 to 14) (size 15 to 20)
#    0.000    0.857    5.714    1.714    6.000    4.000 
#    0.000    0.714    0.000    0.000    0.000    0.000 
#    0.000    0.000    0.000    0.000    0.000    0.000 
#
# Total GULP energy -312381.101149 kJ/mol
# GULP energy per Si atom -5578.233949 kJ/mol
# Density = 2.130167 g / cm^3
# Si number density = 21.350262 Si / 1000 Ang^3
#
#
#
# Elastic Constant Matrix: (Units=GPa)
#
#
# Indices 1 2 3 4 5 6 
#
# 1 27.2068 -6.9002 14.5343 0.0000 0.0000 0.0000
# 2 -6.9002 72.8228 30.6803 0.0000 0.0000 0.0000
# 3 14.5343 30.6803 94.5529 0.0000 0.0000 0.0000
# 4 0.0000 0.0000 0.0000 29.0633 0.0000 0.0000
# 5 0.0000 0.0000 0.0000 0.0000 -236.4896 0.0000
# 6 0.0000 0.0000 0.0000 0.0000 0.0000 24.4259
#
#
#
# Elastic Compliance Matrix: (Units=1/GPa)
#
#
# Indices 1 2 3 4 5 6 
#
# 1 0.043809 0.008095 -0.009361 0.000000 0.000000 0.000000
# 2 0.008095 0.017402 -0.006891 0.000000 0.000000 0.000000
# 3 -0.009361 -0.006891 0.014251 0.000000 0.000000 0.000000
# 4 0.000000 0.000000 0.000000 0.034408 0.000000 0.000000
# 5 0.000000 0.000000 0.000000 0.000000 -0.004229 0.000000
# 6 0.000000 0.000000 0.000000 0.000000 0.000000 0.040940
#
#
# Mechanical properties :
#
#
# Convention : Reuss Voigt Hill
#
# Bulk Modulus (GPa) = 16.90666 30.13459 23.52062
# Shear Modulus (GPa) = 27.38057 -26.18222 0.59918
#
# Velocity S-wave (km/s) = 3.58501 -3.50568 0.53033
# Velocity P-wave (km/s) = 5.00723 1.49712 3.37868
#
# Compressibility (1/GPa) = 0.05914829
#
# Stress axis : x y z
#
# Youngs Moduli (GPa) = 22.82635 57.46439 70.17096
#
# Poissons Ratio (x) = -0.46516 0.65685
# Poissons Ratio (y) = -0.18477 0.48354
# Poissons Ratio (z) = 0.21367 0.39598
#
# Static dielectric constant tensor:
#      x y z
#    x 1.582710 0.000000 0.000000 
#    y 0.000000 3.389710 0.000000 
#    z 0.000000 0.000000 1.712850 
# 
# From -- ./inp_files/20048.got.cif
#   From: 2010.05.17/outbox.cif.g08.bks.cpg/sg73_11_cif.got.tgz:20048.got - 2010.06.03 17:35:07.
