data_PCOD9532338
_publ_section_title
;
Structure prediction by ZEFSAII (Michael W. Deem and Ramdas Pophale) SiO2 
 PCOD9532338
Probable space group: I B C A 
;
_chemical_formula_sum "Si O2"
_cell_formula_units_Z 88
_cell_length_a 19.771045
_cell_length_b 10.569228
_cell_length_c 18.579491
_cell_angle_alpha 90.000000
_cell_angle_beta 90.000000
_cell_angle_gamma 90.000000
_cell_volume 3882.457436
_symmetry_space_group_name_H-M "I B C A "
_symmetry_group_IT_number 73
_symmetry_cell_setting 'orthorhombic'
loop_
_space_group_symop_operation_xyz
x,y,z
-x,1/2-y,z
x,-y,1/2-z
1/2-x,y,-z
-x,-y,-z
x,1/2+y,-z
-x,y,1/2+z
1/2+x,-y,z
1/2+x,1/2+y,1/2+z
1/2-x,-y,1/2+z
1/2+x,1/2-y,-z
-x,1/2+y,1/2-z
1/2-x,1/2-y,1/2-z
1/2+x,y,1/2-z
1/2-x,1/2+y,z
x,1/2-y,1/2+z
loop_
_atom_site_type_symbol
_atom_site_label
_atom_site_fract_x
_atom_site_fract_y
_atom_site_fract_z
Si Si1 0.843827 0.007269 0.060534
Si Si2 0.619944 0.524185 0.904020
Si Si3 0.513849 0.606376 0.107372
Si Si4 0.056671 0.000000 0.750000
Si Si5 0.762868 0.567388 0.326265
Si Si6 0.360780 0.706331 0.845912
O O1 0.781559 0.016721 0.116325
O O2 0.909277 0.081500 0.086310
O O3 0.864062 0.860016 0.075171
O O4 0.837063 0.038972 0.977412
O O5 0.545369 0.479389 0.925594
O O6 0.661973 0.422468 0.857273
O O7 0.616082 0.651441 0.856539
O O8 0.500000 0.750000 0.091624
O O9 0.511920 0.571874 0.191715
O O10 0.100166 0.890873 0.707903
O O11 0.763510 0.500000 0.250000
O O12 0.717915 0.694021 0.324092
#
# Coordination Sequence:
#
# PCOD9532338 Si02
#       6
#    16  16  16   8  16  16
#     4   9  23  48  62  98 140 181 225 281 362 404
#     4  12  25  40  72 106 127 186 241 282 347 427
#     4  11  26  40  70  99 138 176 228 291 343 414
#     4  10  22  48  60 100 138 182 218 280 370 394
#     4  10  22  45  66 101 135 179 228 290 350 407
#     4   9  22  44  70  88 140 181 221 287 343 424
#
# _framework density 22.666056999999999
#
# number of rings (size 3 to 8) (size 9 to 14) (size 15 to 20)
#    1.091    0.727    0.909    1.091    6.364    4.364 
#    3.273    0.000    0.000    0.000    0.000    0.000 
#    0.000    0.000    0.000    0.000    0.000    0.000 
#
# Total GULP energy -245206.557131 kJ/mol
# GULP energy per Si atom -5572.876298 kJ/mol
# Density = 2.261447 g / cm^3
# Si number density = 22.666057 Si / 1000 Ang^3
#
#
#
# Elastic Constant Matrix: (Units=GPa)
#
#
# Indices 1 2 3 4 5 6 
#
# 1 78.6961 5.4502 18.5108 0.0000 0.0000 0.0000
# 2 5.4502 66.1495 -4.6042 0.0000 0.0000 0.0000
# 3 18.5108 -4.6042 98.3703 0.0000 0.0000 0.0000
# 4 0.0000 0.0000 0.0000 16.5477 0.0000 0.0000
# 5 0.0000 0.0000 0.0000 0.0000 33.1346 0.0000
# 6 0.0000 0.0000 0.0000 0.0000 0.0000 58.0722
#
#
#
# Elastic Compliance Matrix: (Units=1/GPa)
#
#
# Indices 1 2 3 4 5 6 
#
# 1 0.013403 -0.001284 -0.002582 0.000000 0.000000 0.000000
# 2 -0.001284 0.015290 0.000957 0.000000 0.000000 0.000000
# 3 -0.002582 0.000957 0.010696 0.000000 0.000000 0.000000
# 4 0.000000 0.000000 0.000000 0.060431 0.000000 0.000000
# 5 0.000000 0.000000 0.000000 0.000000 0.030180 0.000000
# 6 0.000000 0.000000 0.000000 0.000000 0.000000 0.017220
#
#
# Mechanical properties :
#
#
# Convention : Reuss Voigt Hill
#
# Bulk Modulus (GPa) = 29.78734 31.32551 30.55643
# Shear Modulus (GPa) = 30.44522 36.47483 33.46002
#
# Velocity S-wave (km/s) = 3.66896 4.01587 3.84633
# Velocity P-wave (km/s) = 5.57841 5.94587 5.76507
#
# Compressibility (1/GPa) = 0.03357131
#
# Stress axis : x y z
#
# Youngs Moduli (GPa) = 74.60773 65.40356 93.48950
#
# Poissons Ratio (x) = 0.08398 0.24142
# Poissons Ratio (y) = 0.09580 -0.08949
# Poissons Ratio (z) = 0.19266 -0.06261
#
# Static dielectric constant tensor:
#      x y z
#    x 1.882190 0.000000 0.000000 
#    y 0.000000 1.865920 0.000000 
#    z 0.000000 0.000000 1.893980 
# 
# From -- ./inp_files/23088.got.cif
#   From: 2010.05.17/outbox.cif.g08.bks.cpg/sg73_12_cif.got.tgz:23088.got - 2010.06.03 17:35:07.
