data_PCOD9532462
_publ_section_title
;
Structure prediction by ZEFSAII (Michael W. Deem and Ramdas Pophale) SiO2 
 PCOD9532462
Probable space group: I B C A 
;
_chemical_formula_sum "Si O2"
_cell_formula_units_Z 72
_cell_length_a 16.330495
_cell_length_b 8.389075
_cell_length_c 23.140195
_cell_angle_alpha 90.000000
_cell_angle_beta 90.000000
_cell_angle_gamma 90.000000
_cell_volume 3170.154588
_symmetry_space_group_name_H-M "I B C A "
_symmetry_group_IT_number 73
_symmetry_cell_setting 'orthorhombic'
loop_
_space_group_symop_operation_xyz
x,y,z
-x,1/2-y,z
x,-y,1/2-z
1/2-x,y,-z
-x,-y,-z
x,1/2+y,-z
-x,y,1/2+z
1/2+x,-y,z
1/2+x,1/2+y,1/2+z
1/2-x,-y,1/2+z
1/2+x,1/2-y,-z
-x,1/2+y,1/2-z
1/2-x,1/2-y,1/2-z
1/2+x,y,1/2-z
1/2-x,1/2+y,z
x,1/2-y,1/2+z
loop_
_atom_site_type_symbol
_atom_site_label
_atom_site_fract_x
_atom_site_fract_y
_atom_site_fract_z
Si Si1 0.018394 0.000000 0.250000
Si Si2 0.000000 0.750000 0.659539
Si Si3 0.214551 0.500000 0.250000
Si Si4 0.409544 0.807645 0.444329
Si Si5 0.405431 0.190842 0.436868
Si Si6 0.346793 0.700775 0.184046
O O1 0.074960 0.881743 0.287415
O O2 0.978197 0.896091 0.200182
O O3 0.081669 0.726724 0.619263
O O4 0.271454 0.589760 0.203080
O O5 0.165170 0.632389 0.283938
O O6 0.500000 0.750000 0.463473
O O7 0.365015 0.748468 0.502040
O O8 0.404827 0.997489 0.436940
O O9 0.500000 0.250000 0.426694
O O10 0.356416 0.265978 0.383454
#
# Coordination Sequence:
#
# PCOD9532462 Si02
#       6
#     8   8   8  16  16  16
#     4  11  24  33  58  94 129 170 193 252 306 381
#     4  10  24  36  50  96 144 156 196 234 314 394
#     4   9  22  47  60  90 115 162 225 262 306 347
#     4   9  21  34  54  83 132 168 188 238 292 386
#     4  11  20  36  61  93 126 159 198 242 315 377
#     4  10  23  40  67  86 118 166 210 262 306 366
#
# _framework density 22.711825000000001
#
# number of rings (size 3 to 8) (size 9 to 14) (size 15 to 20)
#    0.667    1.333    0.000    4.000   10.889    0.000 
#    0.000    0.000    0.000    4.000    0.000    0.000 
#    0.000    0.000    0.000    0.000    0.000    0.000 
#
# Total GULP energy -200521.825753 kJ/mol
# GULP energy per Si atom -5570.050715 kJ/mol
# Density = 2.266013 g / cm^3
# Si number density = 22.711825 Si / 1000 Ang^3
#
#
#
# Elastic Constant Matrix: (Units=GPa)
#
#
# Indices 1 2 3 4 5 6 
#
# 1 17.2081 17.9505 29.0776 0.0000 0.0000 0.0000
# 2 17.9505 119.4148 60.9392 0.0000 0.0000 0.0000
# 3 29.0776 60.9392 203.8234 0.0000 0.0000 0.0000
# 4 0.0000 0.0000 0.0000 38.0476 0.0000 0.0000
# 5 0.0000 0.0000 0.0000 0.0000 20.8736 0.0000
# 6 0.0000 0.0000 0.0000 0.0000 0.0000 14.0559
#
#
#
# Elastic Compliance Matrix: (Units=1/GPa)
#
#
# Indices 1 2 3 4 5 6 
#
# 1 0.081879 -0.007490 -0.009442 0.000000 0.000000 0.000000
# 2 -0.007490 0.010567 -0.002091 0.000000 0.000000 0.000000
# 3 -0.009442 -0.002091 0.006878 0.000000 0.000000 0.000000
# 4 0.000000 0.000000 0.000000 0.026283 0.000000 0.000000
# 5 0.000000 0.000000 0.000000 0.000000 0.047907 0.000000
# 6 0.000000 0.000000 0.000000 0.000000 0.000000 0.071145
#
#
# Mechanical properties :
#
#
# Convention : Reuss Voigt Hill
#
# Bulk Modulus (GPa) = 16.31855 61.82010 39.06933
# Shear Modulus (GPa) = 16.49452 30.09402 23.29427
#
# Velocity S-wave (km/s) = 2.69783 3.64406 3.20604
# Velocity P-wave (km/s) = 4.11157 6.70701 5.56278
#
# Compressibility (1/GPa) = 0.06127994
#
# Stress axis : x y z
#
# Youngs Moduli (GPa) = 12.21308 94.63388 145.38543
#
# Poissons Ratio (x) = 0.70880 1.37267
# Poissons Ratio (y) = 0.09148 0.30397
# Poissons Ratio (z) = 0.11531 0.19786
#
# Static dielectric constant tensor:
#      x y z
#    x 1.848940 0.000000 0.000000 
#    y 0.000000 1.834400 0.000000 
#    z 0.000000 0.000000 1.983330 
# 
# From -- ./inp_files/24653.got.cif
#   From: 2010.05.17/outbox.cif.g08.bks.cpg/sg73_13_cif.got.tgz:24653.got - 2010.06.03 17:35:07.
