data_PCOD9532389
_publ_section_title
;
Structure prediction by ZEFSAII (Michael W. Deem and Ramdas Pophale) SiO2 
 PCOD9532389
Probable space group: I B C A 
;
_chemical_formula_sum "Si O2"
_cell_formula_units_Z 56
_cell_length_a 13.527333
_cell_length_b 15.183791
_cell_length_c 9.877188
_cell_angle_alpha 90.000000
_cell_angle_beta 90.000000
_cell_angle_gamma 90.000000
_cell_volume 2028.736853
_symmetry_space_group_name_H-M "I B C A "
_symmetry_group_IT_number 73
_symmetry_cell_setting 'orthorhombic'
loop_
_space_group_symop_operation_xyz
x,y,z
-x,1/2-y,z
x,-y,1/2-z
1/2-x,y,-z
-x,-y,-z
x,1/2+y,-z
-x,y,1/2+z
1/2+x,-y,z
1/2+x,1/2+y,1/2+z
1/2-x,-y,1/2+z
1/2+x,1/2-y,-z
-x,1/2+y,1/2-z
1/2-x,1/2-y,1/2-z
1/2+x,y,1/2-z
1/2-x,1/2+y,z
x,1/2-y,1/2+z
loop_
_atom_site_type_symbol
_atom_site_label
_atom_site_fract_x
_atom_site_fract_y
_atom_site_fract_z
Si Si1 0.250000 0.511919 0.500000
Si Si2 0.881512 0.756687 0.895857
Si Si3 0.089210 0.593824 0.685800
Si Si4 0.135392 0.641030 0.152040
O O1 0.167345 0.570965 0.570905
O O2 0.192691 0.445887 0.396107
O O3 0.867033 0.842678 0.801068
O O4 0.846738 0.675194 0.803863
O O5 0.000000 0.750000 0.903019
O O6 0.844484 0.779730 0.045650
O O7 0.065622 0.500000 0.750000
O O8 0.982844 0.627720 0.637752
#
# Coordination Sequence:
#
# PCOD9532389 Si02
#       4
#     8  16  16  16
#     4  12  26  44  72 116 150 192 242 316 368 442
#     4  10  22  46  74 103 143 198 243 295 365 441
#     4  11  24  47  73 108 148 194 251 307 374 433
#     4  11  25  48  76 105 150 193 246 300 372 441
#
# _framework density 27.603382
#
# number of rings (size 3 to 8) (size 9 to 14) (size 15 to 20)
#    0.000    1.143    2.857    3.429    0.000    3.429 
#   10.286    0.000    0.000    0.000    0.000    0.000 
#    0.000    0.000    0.000    0.000    0.000    0.000 
#
# Total GULP energy -157284.469937 kJ/mol
# GULP energy per Si atom -5617.302498 kJ/mol
# Density = 2.754056 g / cm^3
# Si number density = 27.603382 Si / 1000 Ang^3
#
#
#
# Elastic Constant Matrix: (Units=GPa)
#
#
# Indices 1 2 3 4 5 6 
#
# 1 134.4118 3.3386 34.7030 0.0000 0.0000 0.0000
# 2 3.3386 111.0497 69.3547 0.0000 0.0000 0.0000
# 3 34.7030 69.3547 185.5995 0.0000 0.0000 0.0000
# 4 0.0000 0.0000 0.0000 72.4981 0.0000 0.0000
# 5 0.0000 0.0000 0.0000 0.0000 37.6085 0.0000
# 6 0.0000 0.0000 0.0000 0.0000 0.0000 49.9167
#
#
#
# Elastic Compliance Matrix: (Units=1/GPa)
#
#
# Indices 1 2 3 4 5 6 
#
# 1 0.007884 0.000892 -0.001807 0.000000 0.000000 0.000000
# 2 0.000892 0.011847 -0.004594 0.000000 0.000000 0.000000
# 3 -0.001807 -0.004594 0.007442 0.000000 0.000000 0.000000
# 4 0.000000 0.000000 0.000000 0.013793 0.000000 0.000000
# 5 0.000000 0.000000 0.000000 0.000000 0.026590 0.000000
# 6 0.000000 0.000000 0.000000 0.000000 0.000000 0.020033
#
#
# Mechanical properties :
#
#
# Convention : Reuss Voigt Hill
#
# Bulk Modulus (GPa) = 61.89994 71.76151 66.83072
# Shear Modulus (GPa) = 48.07949 53.58232 50.83090
#
# Velocity S-wave (km/s) = 4.17801 4.41063 4.29590
# Velocity P-wave (km/s) = 6.76371 7.21055 6.99070
#
# Compressibility (1/GPa) = 0.01615510
#
# Stress axis : x y z
#
# Youngs Moduli (GPa) = 126.83394 84.40844 134.36346
#
# Poissons Ratio (x) = -0.07527 0.24285
# Poissons Ratio (y) = -0.11311 0.61724
# Poissons Ratio (z) = 0.22924 0.38775
#
# Static dielectric constant tensor:
#      x y z
#    x 2.132750 0.000000 0.000000 
#    y 0.000000 2.123060 0.000000 
#    z 0.000000 0.000000 2.124280 
# 
# From -- ./inp_files/10235.got.cif
#   From: 2010.05.17/outbox.cif.g08.bks.cpg/sg73_6_cif.got.tgz:10235.got - 2010.06.03 17:35:07.
