data_PCOD9532080
_publ_section_title
;
Structure prediction by ZEFSAII (Michael W. Deem and Ramdas Pophale) SiO2 
 PCOD9532080
Probable space group: I B C A 
;
_chemical_formula_sum "Si O2"
_cell_formula_units_Z 96
_cell_length_a 15.514504
_cell_length_b 13.238492
_cell_length_c 20.196543
_cell_angle_alpha 90.000000
_cell_angle_beta 90.000000
_cell_angle_gamma 90.000000
_cell_volume 4148.140441
_symmetry_space_group_name_H-M "I B C A "
_symmetry_group_IT_number 73
_symmetry_cell_setting 'orthorhombic'
loop_
_space_group_symop_operation_xyz
x,y,z
-x,1/2-y,z
x,-y,1/2-z
1/2-x,y,-z
-x,-y,-z
x,1/2+y,-z
-x,y,1/2+z
1/2+x,-y,z
1/2+x,1/2+y,1/2+z
1/2-x,-y,1/2+z
1/2+x,1/2-y,-z
-x,1/2+y,1/2-z
1/2-x,1/2-y,1/2-z
1/2+x,y,1/2-z
1/2-x,1/2+y,z
x,1/2-y,1/2+z
loop_
_atom_site_type_symbol
_atom_site_label
_atom_site_fract_x
_atom_site_fract_y
_atom_site_fract_z
Si Si1 0.853815 0.865663 0.723241
Si Si2 0.015516 0.133837 0.681078
Si Si3 0.487592 0.554736 0.915095
Si Si4 0.152877 0.515521 0.976883
Si Si5 0.277426 0.064246 0.844184
Si Si6 0.888925 0.352576 0.810311
O O1 0.791385 0.854272 0.786539
O O2 0.861988 0.763093 0.683888
O O3 0.938862 0.889890 0.766903
O O4 0.816725 0.958447 0.681039
O O5 0.016039 0.056008 0.620728
O O6 0.095483 0.128355 0.732245
O O7 0.000000 0.250000 0.660155
O O8 0.582146 0.564135 0.948260
O O9 0.473775 0.630230 0.854566
O O10 0.409950 0.565445 0.968279
O O11 0.179285 0.585796 0.914339
O O12 0.250000 0.481133 0.000000
O O13 0.175009 0.066528 0.843535
#
# Coordination Sequence:
#
# PCOD9532080 Si02
#       6
#    16  16  16  16  16  16
#     4  10  23  41  68 103 137 178 231 308 368 427
#     4  10  22  41  65 101 136 174 237 299 361 426
#     4  11  23  41  71  98 139 194 240 285 358 431
#     4  11  23  43  68  99 139 201 238 284 359 427
#     4  11  22  41  66  98 144 183 234 296 356 430
#     4  11  23  40  70 106 138 181 238 298 375 430
#
# _framework density 23.142899
#
# number of rings (size 3 to 8) (size 9 to 14) (size 15 to 20)
#    0.000    1.333    3.333    2.000    7.000    0.000 
#    0.000    3.333    3.667    0.000    0.000    0.000 
#    0.000    0.000    0.000    0.000    0.000    0.000 
#
# Total GULP energy -267420.508427 kJ/mol
# GULP energy per Si atom -5571.260592 kJ/mol
# Density = 2.309022 g / cm^3
# Si number density = 23.142899 Si / 1000 Ang^3
#
#
#
# Elastic Constant Matrix: (Units=GPa)
#
#
# Indices 1 2 3 4 5 6 
#
# 1 126.4043 30.1250 32.1069 0.0000 0.0000 0.0000
# 2 30.1250 120.3466 25.0017 0.0000 0.0000 0.0000
# 3 32.1069 25.0017 112.0170 0.0000 0.0000 0.0000
# 4 0.0000 0.0000 0.0000 14.1079 0.0000 0.0000
# 5 0.0000 0.0000 0.0000 0.0000 51.5901 0.0000
# 6 0.0000 0.0000 0.0000 0.0000 0.0000 27.4173
#
#
#
# Elastic Compliance Matrix: (Units=1/GPa)
#
#
# Indices 1 2 3 4 5 6 
#
# 1 0.008880 -0.001776 -0.002149 0.000000 0.000000 0.000000
# 2 -0.001776 0.009069 -0.001515 0.000000 0.000000 0.000000
# 3 -0.002149 -0.001515 0.009881 0.000000 0.000000 0.000000
# 4 0.000000 0.000000 0.000000 0.070882 0.000000 0.000000
# 5 0.000000 0.000000 0.000000 0.000000 0.019384 0.000000
# 6 0.000000 0.000000 0.000000 0.000000 0.000000 0.036473
#
#
# Mechanical properties :
#
#
# Convention : Reuss Voigt Hill
#
# Bulk Modulus (GPa) = 58.99758 59.24833 59.12295
# Shear Modulus (GPa) = 29.22275 36.72537 32.97406
#
# Velocity S-wave (km/s) = 3.55732 3.98791 3.77875
# Velocity P-wave (km/s) = 6.51312 6.84552 6.68139
#
# Compressibility (1/GPa) = 0.01694985
#
# Stress axis : x y z
#
# Youngs Moduli (GPa) = 112.60881 110.26894 101.20183
#
# Poissons Ratio (x) = 0.19589 0.21746
# Poissons Ratio (y) = 0.20005 0.15331
# Poissons Ratio (z) = 0.24198 0.16705
#
# Static dielectric constant tensor:
#      x y z
#    x 2.249480 0.000000 0.000000 
#    y 0.000000 1.846460 0.000000 
#    z 0.000000 0.000000 1.931850 
# 
# From -- ./inp_files/25999.got.cif
#   From: 2010.05.17/outbox.cif.g08.bks.cpg/sg73_13_cif.got.tgz:25999.got - 2010.06.03 17:35:07.
