data_PCOD9532298
_publ_section_title
;
Structure prediction by ZEFSAII (Michael W. Deem and Ramdas Pophale) SiO2 
 PCOD9532298
Probable space group: I B C A 
;
_chemical_formula_sum "Si O2"
_cell_formula_units_Z 56
_cell_length_a 19.852415
_cell_length_b 15.896717
_cell_length_c 7.462701
_cell_angle_alpha 90.000000
_cell_angle_beta 90.000000
_cell_angle_gamma 90.000000
_cell_volume 2355.140548
_symmetry_space_group_name_H-M "I B C A "
_symmetry_group_IT_number 73
_symmetry_cell_setting 'orthorhombic'
loop_
_space_group_symop_operation_xyz
x,y,z
-x,1/2-y,z
x,-y,1/2-z
1/2-x,y,-z
-x,-y,-z
x,1/2+y,-z
-x,y,1/2+z
1/2+x,-y,z
1/2+x,1/2+y,1/2+z
1/2-x,-y,1/2+z
1/2+x,1/2-y,-z
-x,1/2+y,1/2-z
1/2-x,1/2-y,1/2-z
1/2+x,y,1/2-z
1/2-x,1/2+y,z
x,1/2-y,1/2+z
loop_
_atom_site_type_symbol
_atom_site_label
_atom_site_fract_x
_atom_site_fract_y
_atom_site_fract_z
Si Si1 0.000000 0.250000 0.644725
Si Si2 0.682016 0.636883 0.911563
Si Si3 0.355662 0.678820 0.019922
Si Si4 0.418473 0.408538 0.792480
O O1 0.929980 0.217209 0.561359
O O2 0.974660 0.336979 0.730511
O O3 0.673752 0.635609 0.697463
O O4 0.750000 0.601398 0.000000
O O5 0.681187 0.736803 0.956877
O O6 0.617599 0.598063 0.014877
O O7 0.362336 0.615370 0.855306
O O8 0.445806 0.500000 0.750000
#
# Coordination Sequence:
#
# PCOD9532298 Si02
#       4
#     8  16  16  16
#     4  10  22  44  70 100 140 182 228 288 352 418
#     4  11  23  42  68  99 131 186 239 286 342 411
#     4  11  22  39  71  97 133 180 234 285 349 412
#     4  11  26  44  66 104 139 179 233 288 353 416
#
# _framework density 23.777773
#
# number of rings (size 3 to 8) (size 9 to 14) (size 15 to 20)
#    0.000    1.143    5.714    1.714    4.000    2.286 
#    5.143    0.000    0.000    0.000    0.000    0.000 
#    0.000    0.000    0.000    0.000    0.000    0.000 
#
# Total GULP energy -156313.655146 kJ/mol
# GULP energy per Si atom -5582.630541 kJ/mol
# Density = 2.372365 g / cm^3
# Si number density = 23.777773 Si / 1000 Ang^3
#
#
#
# Elastic Constant Matrix: (Units=GPa)
#
#
# Indices 1 2 3 4 5 6 
#
# 1 62.6982 -8.4642 -20.0904 0.0000 0.0000 0.0000
# 2 -8.4642 107.1411 -13.0963 0.0000 0.0000 0.0000
# 3 -20.0904 -13.0963 68.3355 0.0000 0.0000 0.0000
# 4 0.0000 0.0000 0.0000 7.1673 0.0000 0.0000
# 5 0.0000 0.0000 0.0000 0.0000 35.5678 0.0000
# 6 0.0000 0.0000 0.0000 0.0000 0.0000 10.6002
#
#
#
# Elastic Compliance Matrix: (Units=1/GPa)
#
#
# Indices 1 2 3 4 5 6 
#
# 1 0.018069 0.002127 0.005720 0.000000 0.000000 0.000000
# 2 0.002127 0.009808 0.002505 0.000000 0.000000 0.000000
# 3 0.005720 0.002505 0.016795 0.000000 0.000000 0.000000
# 4 0.000000 0.000000 0.000000 0.139522 0.000000 0.000000
# 5 0.000000 0.000000 0.000000 0.000000 0.028115 0.000000
# 6 0.000000 0.000000 0.000000 0.000000 0.000000 0.094337
#
#
# Mechanical properties :
#
#
# Convention : Reuss Voigt Hill
#
# Bulk Modulus (GPa) = 15.29633 17.20810 16.25222
# Shear Modulus (GPa) = 16.24770 29.32213 22.78492
#
# Velocity S-wave (km/s) = 2.61686 3.51547 3.09891
# Velocity P-wave (km/s) = 3.94685 4.87142 4.43331
#
# Compressibility (1/GPa) = 0.06537516
#
# Stress axis : x y z
#
# Youngs Moduli (GPa) = 55.34232 101.96099 59.54029
#
# Poissons Ratio (x) = -0.21684 -0.34056
# Poissons Ratio (y) = -0.11769 -0.14914
# Poissons Ratio (z) = -0.31655 -0.25540
#
# Static dielectric constant tensor:
#      x y z
#    x 1.895480 0.000000 0.000000 
#    y 0.000000 1.864400 0.000000 
#    z 0.000000 0.000000 1.985210 
# 
# From -- ./inp_files/4455.got.cif
#   From: 2010.05.17/outbox.cif.g08.bks.cpg/sg73_3_cif.got.tgz:4455.got - 2010.06.03 17:35:07.
