data_PCOD9532879
_publ_section_title
;
Structure prediction by ZEFSAII (Michael W. Deem and Ramdas Pophale) SiO2 
 PCOD9532879
Probable space group: I B C A 
;
_chemical_formula_sum "Si O2"
_cell_formula_units_Z 112
_cell_length_a 14.860668
_cell_length_b 25.891320
_cell_length_c 12.548257
_cell_angle_alpha 90.000000
_cell_angle_beta 90.000000
_cell_angle_gamma 90.000000
_cell_volume 4828.096357
_symmetry_space_group_name_H-M "I B C A "
_symmetry_group_IT_number 73
_symmetry_cell_setting 'orthorhombic'
loop_
_space_group_symop_operation_xyz
x,y,z
-x,1/2-y,z
x,-y,1/2-z
1/2-x,y,-z
-x,-y,-z
x,1/2+y,-z
-x,y,1/2+z
1/2+x,-y,z
1/2+x,1/2+y,1/2+z
1/2-x,-y,1/2+z
1/2+x,1/2-y,-z
-x,1/2+y,1/2-z
1/2-x,1/2-y,1/2-z
1/2+x,y,1/2-z
1/2-x,1/2+y,z
x,1/2-y,1/2+z
loop_
_atom_site_type_symbol
_atom_site_label
_atom_site_fract_x
_atom_site_fract_y
_atom_site_fract_z
Si Si1 0.114896 0.126068 0.929100
Si Si2 0.712618 0.445864 0.683381
Si Si3 0.750000 0.378745 0.500000
Si Si4 0.912824 0.880115 0.826043
Si Si5 0.987791 0.694779 0.708407
Si Si6 0.307736 0.215997 0.339315
Si Si7 0.587723 0.443302 0.260454
Si Si8 0.750000 0.295048 0.000000
O O1 0.026686 0.154547 0.885642
O O2 0.122763 0.077307 0.853450
O O3 0.195430 0.167310 0.921594
O O4 0.107173 0.114276 0.051342
O O5 0.692307 0.500000 0.750000
O O6 0.686690 0.420404 0.567041
O O7 0.667361 0.405384 0.762210
O O8 0.820772 0.445619 0.673472
O O9 0.724788 0.336776 0.403816
O O10 0.930176 0.822854 0.781867
O O11 0.008699 0.907434 0.803036
O O12 0.899377 0.698810 0.781987
O O13 0.000000 0.750000 0.658205
O O14 0.250000 0.250000 0.250000
O O15 0.315450 0.257424 0.435329
O O16 0.548265 0.500000 0.250000
#
# Coordination Sequence:
#
# PCOD9532879 Si02
#       8
#    16  16   8  16  16  16  16   8
#     4  11  23  39  65  97 130 186 229 292 371 422
#     4  11  26  47  73 105 142 191 248 308 378 443
#     4  11  26  44  79 104 148 193 248 307 378 450
#     4  11  25  43  69 100 140 185 239 306 366 445
#     4  11  25  42  64  96 142 179 235 296 361 443
#     4  11  24  44  68 103 137 189 234 294 361 438
#     4  10  24  45  66  96 137 179 239 303 364 442
#     4  11  22  38  73  98 136 183 236 285 364 430
#
# _framework density 23.197548999999999
#
# number of rings (size 3 to 8) (size 9 to 14) (size 15 to 20)
#    0.000    1.143    1.429    3.857    4.000    9.143 
#    0.000    0.000    0.000    0.000    0.000    0.000 
#    0.000    0.000    0.000    0.000    0.000    0.000 
#
# Total GULP energy -311905.478950 kJ/mol
# GULP energy per Si atom -5569.740696 kJ/mol
# Density = 2.314475 g / cm^3
# Si number density = 23.197549 Si / 1000 Ang^3
#
#
#
# Elastic Constant Matrix: (Units=GPa)
#
#
# Indices 1 2 3 4 5 6 
#
# 1 45.0171 12.2401 6.5969 0.0000 0.0000 0.0000
# 2 12.2401 125.7731 46.7369 0.0000 0.0000 0.0000
# 3 6.5969 46.7369 132.4829 0.0000 0.0000 0.0001
# 4 0.0000 0.0000 0.0000 33.7171 0.0000 0.0000
# 5 0.0000 0.0000 0.0000 0.0000 18.9529 0.0000
# 6 0.0000 0.0000 0.0001 0.0000 0.0000 31.6893
#
#
#
# Elastic Compliance Matrix: (Units=1/GPa)
#
#
# Indices 1 2 3 4 5 6 
#
# 1 0.022837 -0.002071 -0.000406 0.000000 0.000000 0.000000
# 2 -0.002071 0.009338 -0.003191 0.000000 0.000000 0.000000
# 3 -0.000406 -0.003191 0.008694 0.000000 0.000000 0.000000
# 4 0.000000 0.000000 0.000000 0.029659 0.000000 0.000000
# 5 0.000000 0.000000 0.000000 0.000000 0.052762 0.000000
# 6 0.000000 0.000000 0.000000 0.000000 0.000000 0.031556
#
#
# Mechanical properties :
#
#
# Convention : Reuss Voigt Hill
#
# Bulk Modulus (GPa) = 33.86272 48.26897 41.06584
# Shear Modulus (GPa) = 28.40462 32.71849 30.56155
#
# Velocity S-wave (km/s) = 3.50303 3.75964 3.63360
# Velocity P-wave (km/s) = 5.56695 6.30075 5.94518
#
# Compressibility (1/GPa) = 0.02953100
#
# Stress axis : x y z
#
# Youngs Moduli (GPa) = 43.78948 107.08652 115.01991
#
# Poissons Ratio (x) = 0.22182 0.04674
# Poissons Ratio (y) = 0.09071 0.36705
# Poissons Ratio (z) = 0.01780 0.34173
#
# Static dielectric constant tensor:
#      x y z
#    x 1.925870 0.000000 0.000000 
#    y 0.000000 1.960060 0.000000 
#    z 0.000000 0.000000 1.908870 
# 
# From -- ./inp_files/11306.got.cif
#   From: 2010.05.17/outbox.cif.g08.bks.cpg/sg73_6_cif.got.tgz:11306.got - 2010.06.03 17:35:07.
