data_PCOD9532463
_publ_section_title
;
Structure prediction by ZEFSAII (Michael W. Deem and Ramdas Pophale) SiO2 
 PCOD9532463
Probable space group: I B C A 
;
_chemical_formula_sum "Si O2"
_cell_formula_units_Z 72
_cell_length_a 5.142650
_cell_length_b 24.722790
_cell_length_c 24.748785
_cell_angle_alpha 90.000000
_cell_angle_beta 90.000000
_cell_angle_gamma 90.000000
_cell_volume 3146.576760
_symmetry_space_group_name_H-M "I B C A "
_symmetry_group_IT_number 73
_symmetry_cell_setting 'orthorhombic'
loop_
_space_group_symop_operation_xyz
x,y,z
-x,1/2-y,z
x,-y,1/2-z
1/2-x,y,-z
-x,-y,-z
x,1/2+y,-z
-x,y,1/2+z
1/2+x,-y,z
1/2+x,1/2+y,1/2+z
1/2-x,-y,1/2+z
1/2+x,1/2-y,-z
-x,1/2+y,1/2-z
1/2-x,1/2-y,1/2-z
1/2+x,y,1/2-z
1/2-x,1/2+y,z
x,1/2-y,1/2+z
loop_
_atom_site_type_symbol
_atom_site_label
_atom_site_fract_x
_atom_site_fract_y
_atom_site_fract_z
Si Si1 0.250000 0.538048 0.000000
Si Si2 0.429263 0.127263 0.915303
Si Si3 0.500000 0.750000 0.288454
Si Si4 0.250000 0.783940 0.500000
Si Si5 0.208234 0.524304 0.689925
Si Si6 0.441113 0.136632 0.652153
O O1 0.324264 0.577838 0.049085
O O2 0.500000 0.500000 0.000000
O O3 0.359990 0.179500 0.951448
O O4 0.730321 0.129960 0.896716
O O5 0.238783 0.126984 0.864239
O O6 0.750000 0.750000 0.250000
O O7 0.551766 0.803475 0.323975
O O8 0.500000 0.750000 0.480751
O O9 0.239767 0.500000 0.750000
O O10 0.475922 0.508264 0.661809
O O11 0.145910 0.587527 0.691204
#
# Coordination Sequence:
#
# PCOD9532463 Si02
#       6
#     8  16   8   8  16  16
#     4  11  24  45  74 104 160 189 230 295 368 440
#     4  11  26  44  69 111 138 188 237 290 355 424
#     4  12  30  48  74  98 144 200 238 314 384 430
#     4  11  24  43  72  98 146 181 226 287 350 420
#     4  10  23  40  67  94 130 176 228 292 352 405
#     4  12  26  45  73 103 146 183 253 292 358 454
#
# _framework density 22.882007999999999
#
# number of rings (size 3 to 8) (size 9 to 14) (size 15 to 20)
#    0.000    0.889    0.000    5.333   10.889    8.889 
#    0.000    0.000    0.000    0.000    0.000    0.000 
#    0.000    0.000    0.000    0.000    0.000    0.000 
#
# Total GULP energy -201170.564591 kJ/mol
# GULP energy per Si atom -5588.071239 kJ/mol
# Density = 2.282993 g / cm^3
# Si number density = 22.882008 Si / 1000 Ang^3
#
#
#
# Elastic Constant Matrix: (Units=GPa)
#
#
# Indices 1 2 3 4 5 6 
#
# 1 142.9615 24.4427 -8.5843 0.0000 0.0000 0.0000
# 2 24.4427 170.5048 37.4362 0.0000 0.0000 0.0000
# 3 -8.5843 37.4362 40.4776 0.0000 0.0000 0.0000
# 4 0.0000 0.0000 0.0000 12.8883 0.0000 0.0000
# 5 0.0000 0.0000 0.0000 0.0000 34.7349 0.0000
# 6 0.0000 0.0000 0.0000 0.0000 0.0000 34.4766
#
#
#
# Elastic Compliance Matrix: (Units=1/GPa)
#
#
# Indices 1 2 3 4 5 6 
#
# 1 0.007495 -0.001786 0.003241 0.000000 0.000000 0.000000
# 2 -0.001786 0.007785 -0.007579 0.000000 0.000000 0.000000
# 3 0.003241 -0.007579 0.032402 0.000000 0.000000 0.000000
# 4 0.000000 0.000000 0.000000 0.077590 0.000000 0.000000
# 5 0.000000 0.000000 0.000000 0.000000 0.028789 0.000000
# 6 0.000000 0.000000 0.000000 0.000000 0.000000 0.029005
#
#
# Mechanical properties :
#
#
# Convention : Reuss Voigt Hill
#
# Bulk Modulus (GPa) = 28.22102 51.17035 39.69569
# Shear Modulus (GPa) = 24.14005 36.46326 30.30165
#
# Velocity S-wave (km/s) = 3.25157 3.99624 3.64298
# Velocity P-wave (km/s) = 5.14364 6.61094 5.92290
#
# Compressibility (1/GPa) = 0.03543457
#
# Stress axis : x y z
#
# Youngs Moduli (GPa) = 133.42407 128.45220 30.86249
#
# Poissons Ratio (x) = 0.22943 -0.10004
# Poissons Ratio (y) = 0.23831 0.23390
# Poissons Ratio (z) = -0.43248 0.97352
#
# Static dielectric constant tensor:
#      x y z
#    x 1.874390 0.000000 0.000000 
#    y 0.000000 2.045280 0.000000 
#    z 0.000000 0.000000 5.850220 
# 
# From -- ./inp_files/1721.got.cif
#   From: 2010.05.17/outbox.cif.g08.bks.cpg/sg73_1_cif.got.tgz:1721.got - 2010.06.03 17:35:07.
