data_PCOD9532759
_publ_section_title
;
Structure prediction by ZEFSAII (Michael W. Deem and Ramdas Pophale) SiO2 
 PCOD9532759
Probable space group: I B C A 
;
_chemical_formula_sum "Si O2"
_cell_formula_units_Z 96
_cell_length_a 19.334690
_cell_length_b 26.226268
_cell_length_c 8.590652
_cell_angle_alpha 90.000000
_cell_angle_beta 90.000000
_cell_angle_gamma 90.000000
_cell_volume 4356.119997
_symmetry_space_group_name_H-M "I B C A "
_symmetry_group_IT_number 73
_symmetry_cell_setting 'orthorhombic'
loop_
_space_group_symop_operation_xyz
x,y,z
-x,1/2-y,z
x,-y,1/2-z
1/2-x,y,-z
-x,-y,-z
x,1/2+y,-z
-x,y,1/2+z
1/2+x,-y,z
1/2+x,1/2+y,1/2+z
1/2-x,-y,1/2+z
1/2+x,1/2-y,-z
-x,1/2+y,1/2-z
1/2-x,1/2-y,1/2-z
1/2+x,y,1/2-z
1/2-x,1/2+y,z
x,1/2-y,1/2+z
loop_
_atom_site_type_symbol
_atom_site_label
_atom_site_fract_x
_atom_site_fract_y
_atom_site_fract_z
Si Si1 0.981707 0.500000 0.750000
Si Si2 0.600343 0.727909 0.562497
Si Si3 0.500000 0.750000 0.315636
Si Si4 0.819564 0.170742 0.078089
Si Si5 0.250000 0.424144 0.000000
Si Si6 0.678843 0.357408 0.057706
Si Si7 0.208917 0.000000 0.250000
Si Si8 0.591649 0.949811 0.042351
O O1 0.031820 0.456959 0.672848
O O2 0.935705 0.521109 0.609872
O O3 0.549114 0.715984 0.421159
O O4 0.553598 0.719097 0.711693
O O5 0.621111 0.787534 0.555178
O O6 0.666458 0.693049 0.545950
O O7 0.815735 0.158660 0.261973
O O8 0.750000 0.194214 0.000000
O O9 0.815893 0.114679 0.997577
O O10 0.251546 0.457896 0.845102
O O11 0.750000 0.381794 0.000000
O O12 0.615987 0.394588 0.014744
O O13 0.158627 0.024384 0.120628
#
# Coordination Sequence:
#
# PCOD9532759 Si02
#       8
#     8  16   8  16   8  16   8  16
#     4   9  22  49  72  96 141 190 227 308 344 417
#     4  11  23  45  68  97 142 177 234 281 350 407
#     4  10  24  42  66  98 128 192 222 286 330 408
#     4  10  25  44  66 101 133 185 226 285 354 419
#     4  10  26  42  68 102 144 180 232 286 366 416
#     4  12  26  42  70 106 137 185 226 293 351 431
#     4  11  24  41  68 104 139 188 221 304 340 435
#     4  10  24  44  71 104 136 179 243 279 365 416
#
# _framework density 22.037959000000001
#
# number of rings (size 3 to 8) (size 9 to 14) (size 15 to 20)
#    0.500    1.000    1.667    1.500    8.167    2.667 
#    0.000    0.000    0.000    0.000    0.000    0.000 
#    0.000    0.000    0.000    0.000    0.000    0.000 
#
# Total GULP energy -267739.403248 kJ/mol
# GULP energy per Si atom -5577.904234 kJ/mol
# Density = 2.198780 g / cm^3
# Si number density = 22.037959 Si / 1000 Ang^3
#
#
#
# Elastic Constant Matrix: (Units=GPa)
#
#
# Indices 1 2 3 4 5 6 
#
# 1 74.6354 42.3597 41.2636 0.0000 0.0000 0.0000
# 2 42.3597 102.7000 36.7702 0.0000 0.0000 0.0000
# 3 41.2636 36.7702 119.8345 0.0000 0.0000 0.0000
# 4 0.0000 0.0000 0.0000 10.5407 0.0000 0.0000
# 5 0.0000 0.0000 0.0000 0.0000 23.3692 0.0000
# 6 0.0000 0.0000 0.0000 0.0000 0.0000 28.8671
#
#
#
# Elastic Compliance Matrix: (Units=1/GPa)
#
#
# Indices 1 2 3 4 5 6 
#
# 1 0.019693 -0.006398 -0.004818 0.000000 0.000000 0.000000
# 2 -0.006398 0.013017 -0.001791 0.000000 0.000000 0.000000
# 3 -0.004818 -0.001791 0.010554 0.000000 0.000000 0.000000
# 4 0.000000 0.000000 0.000000 0.094871 0.000000 0.000000
# 5 0.000000 0.000000 0.000000 0.000000 0.042791 0.000000
# 6 0.000000 0.000000 0.000000 0.000000 0.000000 0.034641
#
#
# Mechanical properties :
#
#
# Convention : Reuss Voigt Hill
#
# Bulk Modulus (GPa) = 57.97100 59.77300 58.87200
# Shear Modulus (GPa) = 20.21578 24.34049 22.27813
#
# Velocity S-wave (km/s) = 3.03201 3.32698 3.18291
# Velocity P-wave (km/s) = 6.21447 6.47611 6.34664
#
# Compressibility (1/GPa) = 0.01725000
#
# Stress axis : x y z
#
# Youngs Moduli (GPa) = 50.77881 76.82139 94.75505
#
# Poissons Ratio (x) = 0.49148 0.45654
# Poissons Ratio (y) = 0.32487 0.16973
# Poissons Ratio (z) = 0.24466 0.13761
#
# Static dielectric constant tensor:
#      x y z
#    x 2.045850 0.000000 0.000000 
#    y 0.000000 1.836170 0.000000 
#    z 0.000000 0.000000 1.814010 
# 
# From -- ./inp_files/6518.got.cif
#   From: 2010.05.17/outbox.cif.g08.bks.cpg/sg73_4_cif.got.tgz:6518.got - 2010.06.03 17:35:07.
