data_PCOD9532025
_publ_section_title
;
Structure prediction by ZEFSAII (Michael W. Deem and Ramdas Pophale) SiO2 
 PCOD9532025
Probable space group: I B C A 
;
_chemical_formula_sum "Si O2"
_cell_formula_units_Z 112
_cell_length_a 12.559999
_cell_length_b 29.608967
_cell_length_c 14.494808
_cell_angle_alpha 90.000000
_cell_angle_beta 90.000000
_cell_angle_gamma 90.000000
_cell_volume 5390.453795
_symmetry_space_group_name_H-M "I B C A "
_symmetry_group_IT_number 73
_symmetry_cell_setting 'orthorhombic'
loop_
_space_group_symop_operation_xyz
x,y,z
-x,1/2-y,z
x,-y,1/2-z
1/2-x,y,-z
-x,-y,-z
x,1/2+y,-z
-x,y,1/2+z
1/2+x,-y,z
1/2+x,1/2+y,1/2+z
1/2-x,-y,1/2+z
1/2+x,1/2-y,-z
-x,1/2+y,1/2-z
1/2-x,1/2-y,1/2-z
1/2+x,y,1/2-z
1/2-x,1/2+y,z
x,1/2-y,1/2+z
loop_
_atom_site_type_symbol
_atom_site_label
_atom_site_fract_x
_atom_site_fract_y
_atom_site_fract_z
Si Si1 0.746763 0.463328 0.632686
Si Si2 0.048197 0.087675 0.635812
Si Si3 0.696718 0.437060 0.845434
Si Si4 0.232583 0.793133 0.106893
Si Si5 0.890344 0.616175 0.054247
Si Si6 0.602480 0.123814 0.662209
Si Si7 0.105120 0.777405 0.733207
O O1 0.873704 0.455507 0.626879
O O2 0.710413 0.449444 0.736706
O O3 0.720278 0.514637 0.609031
O O4 0.679859 0.427752 0.573758
O O5 0.088428 0.120553 0.554592
O O6 0.074628 0.106813 0.735632
O O7 0.922924 0.078019 0.631774
O O8 0.785132 0.398704 0.865740
O O9 0.170921 0.841088 0.098126
O O10 0.336114 0.793100 0.172779
O O11 0.163833 0.757981 0.166171
O O12 0.250000 0.779233 0.000000
O O13 0.005904 0.609161 0.097786
O O14 0.597756 0.177690 0.671331
O O15 0.000000 0.750000 0.760179
#
# Coordination Sequence:
#
# PCOD9532025 Si02
#       7
#    16  16  16  16  16  16  16
#     4  10  22  40  67  98 134 177 233 280 336 414
#     4  11  24  42  69  94 133 189 223 280 352 400
#     4  10  23  41  68  98 136 181 227 281 347 401
#     4  11  24  45  72 102 139 174 232 281 340 419
#     4  12  23  44  70  97 134 182 227 282 339 417
#     4  11  24  45  67  97 141 172 229 282 338 412
#     4  11  24  45  70 102 134 181 224 283 349 411
#
# _framework density 20.777470999999998
#
# number of rings (size 3 to 8) (size 9 to 14) (size 15 to 20)
#    0.000    1.143    2.857    3.857    2.000    2.857 
#    7.714    0.000    0.000    0.000    0.000    0.000 
#    0.000    0.000    0.000    0.000    0.000    0.000 
#
# Total GULP energy -312639.603647 kJ/mol
# GULP energy per Si atom -5582.850065 kJ/mol
# Density = 2.073018 g / cm^3
# Si number density = 20.777471 Si / 1000 Ang^3
#
#
#
# Elastic Constant Matrix: (Units=GPa)
#
#
# Indices 1 2 3 4 5 6 
#
# 1 184.1153 74.3316 28.1146 0.0000 0.0000 -0.0006
# 2 74.3316 126.8246 11.0292 -0.0001 -0.0001 0.0000
# 3 28.1146 11.0292 93.3727 0.0002 0.0000 -0.0029
# 4 0.0000 -0.0001 0.0002 25.2306 0.0000 -0.0004
# 5 0.0000 -0.0001 0.0000 0.0000 25.1408 0.0000
# 6 -0.0006 0.0000 -0.0029 -0.0004 0.0000 22.2635
#
#
#
# Elastic Compliance Matrix: (Units=1/GPa)
#
#
# Indices 1 2 3 4 5 6 
#
# 1 0.007381 -0.004176 -0.001729 0.000000 0.000000 0.000000
# 2 -0.004176 0.010329 0.000037 0.000000 0.000000 0.000000
# 3 -0.001729 0.000037 0.011226 0.000000 0.000000 0.000001
# 4 0.000000 0.000000 0.000000 0.039634 0.000000 0.000001
# 5 0.000000 0.000000 0.000000 0.000000 0.039776 0.000000
# 6 0.000000 0.000000 0.000001 0.000001 0.000000 0.044917
#
#
# Mechanical properties :
#
#
# Convention : Reuss Voigt Hill
#
# Bulk Modulus (GPa) = 58.13666 70.14038 64.13852
# Shear Modulus (GPa) = 29.28555 33.91612 31.60083
#
# Velocity S-wave (km/s) = 3.75838 4.04462 3.90413
# Velocity P-wave (km/s) = 6.84655 7.45943 7.15955
#
# Compressibility (1/GPa) = 0.01720085
#
# Stress axis : x y z
#
# Youngs Moduli (GPa) = 135.47756 96.81406 89.07848
#
# Poissons Ratio (x) = 0.40427 0.15404
# Poissons Ratio (y) = 0.56572 -0.00332
# Poissons Ratio (z) = 0.23428 -0.00361
#
# Static dielectric constant tensor:
#      x y z
#    x 1.750870 0.000000 0.000000 
#    y 0.000000 1.739410 0.000000 
#    z 0.000000 0.000000 1.764830 
# 
# From -- ./inp_files/11266.got.cif
#   From: 2010.05.17/outbox.cif.g08.bks.cpg/sg73_6_cif.got.tgz:11266.got - 2010.06.03 17:35:07.
