data_PCOD9532855
_publ_section_title
;
Structure prediction by ZEFSAII (Michael W. Deem and Ramdas Pophale) SiO2 
 PCOD9532855
Probable space group: I B C A 
;
_chemical_formula_sum "Si O2"
_cell_formula_units_Z 120
_cell_length_a 27.449940
_cell_length_b 23.109862
_cell_length_c 8.687465
_cell_angle_alpha 90.000000
_cell_angle_beta 90.000000
_cell_angle_gamma 90.000000
_cell_volume 5511.017873
_symmetry_space_group_name_H-M "I B C A "
_symmetry_group_IT_number 73
_symmetry_cell_setting 'orthorhombic'
loop_
_space_group_symop_operation_xyz
x,y,z
-x,1/2-y,z
x,-y,1/2-z
1/2-x,y,-z
-x,-y,-z
x,1/2+y,-z
-x,y,1/2+z
1/2+x,-y,z
1/2+x,1/2+y,1/2+z
1/2-x,-y,1/2+z
1/2+x,1/2-y,-z
-x,1/2+y,1/2-z
1/2-x,1/2-y,1/2-z
1/2+x,y,1/2-z
1/2-x,1/2+y,z
x,1/2-y,1/2+z
loop_
_atom_site_type_symbol
_atom_site_label
_atom_site_fract_x
_atom_site_fract_y
_atom_site_fract_z
Si Si1 0.072278 0.188637 0.130070
Si Si2 0.704492 0.669436 0.271764
Si Si3 0.732951 0.563157 0.822163
Si Si4 0.531905 0.540793 0.891536
Si Si5 0.018340 0.161291 0.813792
Si Si6 0.608922 0.186268 0.879877
Si Si7 0.876390 0.391627 0.343265
Si Si8 0.750000 0.246899 0.000000
O O1 0.106052 0.244646 0.128755
O O2 0.100968 0.131170 0.182838
O O3 0.030253 0.194789 0.260562
O O4 0.045200 0.182932 0.966995
O O5 0.735183 0.610568 0.269978
O O6 0.647928 0.660583 0.238784
O O7 0.712405 0.709901 0.418148
O O8 0.725345 0.706628 0.127586
O O9 0.739011 0.500000 0.750000
O O10 0.676325 0.581590 0.820812
O O11 0.750000 0.563988 0.000000
O O12 0.543296 0.500000 0.750000
O O13 0.499425 0.596035 0.844788
O O14 0.585055 0.566821 0.931163
O O15 0.500000 0.500000 0.000000
O O16 0.055733 0.164828 0.671830
O O17 0.625221 0.164414 0.046580
#
# Coordination Sequence:
#
# PCOD9532855 Si02
#       8
#    16  16  16  16  16  16  16   8
#     4  11  25  42  69 101 143 189 225 288 363 438
#     4  11  25  45  72 105 141 184 242 301 369 439
#     4  12  27  52  72 104 148 194 248 315 375 448
#     4  11  22  42  65  92 128 178 228 288 338 402
#     4  11  24  42  62 102 140 179 233 282 347 441
#     4  12  24  40  67 100 139 180 225 285 358 431
#     4  11  24  46  71 101 138 184 244 295 363 439
#     4  10  24  44  72 102 140 178 232 308 366 426
#
# _framework density 21.774560000000001
#
# number of rings (size 3 to 8) (size 9 to 14) (size 15 to 20)
#    0.000    0.800    2.000    5.600    8.400    2.133 
#    2.400    0.000    0.000    0.000    0.000    0.000 
#    0.000    0.000    0.000    0.000    0.000    0.000 
#
# Total GULP energy -335741.712630 kJ/mol
# GULP energy per Si atom -5595.695211 kJ/mol
# Density = 2.172500 g / cm^3
# Si number density = 21.774560 Si / 1000 Ang^3
#
#
#
# Elastic Constant Matrix: (Units=GPa)
#
#
# Indices 1 2 3 4 5 6 
#
# 1 105.7533 44.1800 -7.8648 0.0000 0.0000 0.0000
# 2 44.1800 131.0943 20.1998 0.0000 0.0000 0.0000
# 3 -7.8648 20.1998 49.9508 0.0000 0.0000 0.0000
# 4 0.0000 0.0000 0.0000 42.3281 0.0000 0.0000
# 5 0.0000 0.0000 0.0000 0.0000 27.0690 0.0000
# 6 0.0000 0.0000 0.0000 0.0000 0.0000 26.7704
#
#
#
# Elastic Compliance Matrix: (Units=1/GPa)
#
#
# Indices 1 2 3 4 5 6 
#
# 1 0.011592 -0.004466 0.003631 0.000000 0.000000 0.000000
# 2 -0.004466 0.009856 -0.004689 0.000000 0.000000 0.000000
# 3 0.003631 -0.004689 0.022488 0.000000 0.000000 0.000000
# 4 0.000000 0.000000 0.000000 0.023625 0.000000 0.000000
# 5 0.000000 0.000000 0.000000 0.000000 0.036943 0.000000
# 6 0.000000 0.000000 0.000000 0.000000 0.000000 0.037355
#
#
# Mechanical properties :
#
#
# Convention : Reuss Voigt Hill
#
# Bulk Modulus (GPa) = 30.40649 44.42538 37.41593
# Shear Modulus (GPa) = 30.51254 34.58574 32.54914
#
# Velocity S-wave (km/s) = 3.74745 3.98974 3.87049
# Velocity P-wave (km/s) = 5.72005 6.45529 6.09876
#
# Compressibility (1/GPa) = 0.03288772
#
# Stress axis : x y z
#
# Youngs Moduli (GPa) = 86.26810 101.46443 44.46909
#
# Poissons Ratio (x) = 0.45315 -0.16148
# Poissons Ratio (y) = 0.38528 0.20850
# Poissons Ratio (z) = -0.31325 0.47574
#
# Static dielectric constant tensor:
#      x y z
#    x 1.848720 0.000000 0.000000 
#    y 0.000000 1.778600 0.000000 
#    z 0.000000 0.000000 1.819800 
# 
# From -- ./inp_files/8041.got.cif
#   From: 2010.05.17/outbox.cif.g08.bks.cpg/sg73_5_cif.got.tgz:8041.got - 2010.06.03 17:35:07.
