data_PCOD9532384
_publ_section_title
;
Structure prediction by ZEFSAII (Michael W. Deem and Ramdas Pophale) SiO2 
 PCOD9532384
Probable space group: I B C A 
;
_chemical_formula_sum "Si O2"
_cell_formula_units_Z 56
_cell_length_a 13.634276
_cell_length_b 10.455880
_cell_length_c 13.978871
_cell_angle_alpha 90.000000
_cell_angle_beta 90.000000
_cell_angle_gamma 90.000000
_cell_volume 1992.804837
_symmetry_space_group_name_H-M "I B C A "
_symmetry_group_IT_number 73
_symmetry_cell_setting 'orthorhombic'
loop_
_space_group_symop_operation_xyz
x,y,z
-x,1/2-y,z
x,-y,1/2-z
1/2-x,y,-z
-x,-y,-z
x,1/2+y,-z
-x,y,1/2+z
1/2+x,-y,z
1/2+x,1/2+y,1/2+z
1/2-x,-y,1/2+z
1/2+x,1/2-y,-z
-x,1/2+y,1/2-z
1/2-x,1/2-y,1/2-z
1/2+x,y,1/2-z
1/2-x,1/2+y,z
x,1/2-y,1/2+z
loop_
_atom_site_type_symbol
_atom_site_label
_atom_site_fract_x
_atom_site_fract_y
_atom_site_fract_z
Si Si1 0.424532 0.945855 0.090321
Si Si2 0.139146 0.790199 0.532775
Si Si3 0.117804 0.267358 0.242269
Si Si4 0.912758 0.000000 0.750000
O O1 0.355236 0.883772 0.173829
O O2 0.512771 0.003633 0.157814
O O3 0.391911 0.061638 0.022143
O O4 0.421063 0.821416 0.020635
O O5 0.250000 0.774021 0.500000
O O6 0.133678 0.780948 0.646642
O O7 0.152554 0.123139 0.223417
O O8 0.000000 0.250000 0.225095
#
# Coordination Sequence:
#
# PCOD9532384 Si02
#       4
#    16  16  16   8
#     4  11  24  47  71 105 147 198 250 308 373 442
#     4  12  26  45  70 108 151 201 252 302 379 456
#     4  10  22  46  72 103 146 191 248 313 374 434
#     4  10  22  48  72 106 148 194 240 324 382 422
#
# _framework density 28.101095999999998
#
# number of rings (size 3 to 8) (size 9 to 14) (size 15 to 20)
#    0.000    1.143    5.714    0.857    4.000    5.714 
#    0.000    0.000    0.000    0.000    0.000    0.000 
#    0.000    0.000    0.000    0.000    0.000    0.000 
#
# Total GULP energy -156284.856933 kJ/mol
# GULP energy per Si atom -5581.602033 kJ/mol
# Density = 2.803714 g / cm^3
# Si number density = 28.101096 Si / 1000 Ang^3
#
#
#
# Elastic Constant Matrix: (Units=GPa)
#
#
# Indices 1 2 3 4 5 6 
#
# 1 80.6968 29.4502 21.8497 0.0000 0.0000 0.0000
# 2 29.4502 238.0579 70.6535 0.0000 0.0000 0.0000
# 3 21.8497 70.6535 185.4986 0.0000 0.0000 0.0000
# 4 0.0000 0.0000 0.0000 76.7969 0.0000 0.0000
# 5 0.0000 0.0000 0.0000 0.0000 15.9938 0.0000
# 6 0.0000 0.0000 0.0000 0.0000 0.0000 -0.1789
#
#
#
# Elastic Compliance Matrix: (Units=1/GPa)
#
#
# Indices 1 2 3 4 5 6 
#
# 1 0.013156 -0.001316 -0.001048 0.000000 0.000000 0.000000
# 2 -0.001316 0.004868 -0.001699 0.000000 0.000000 0.000000
# 3 -0.001048 -0.001699 0.006161 0.000000 0.000000 0.000000
# 4 0.000000 0.000000 0.000000 0.013021 0.000000 0.000000
# 5 0.000000 0.000000 0.000000 0.000000 0.062524 0.000000
# 6 0.000000 0.000000 0.000000 0.000000 0.000000 -5.588956
#
#
# Mechanical properties :
#
#
# Convention : Reuss Voigt Hill
#
# Bulk Modulus (GPa) = 62.27364 83.12890 72.70127
# Shear Modulus (GPa) = -0.91312 44.00902 21.54795
#
# Velocity S-wave (km/s) = -0.57065 3.96169 2.77212
# Velocity P-wave (km/s) = 4.66631 7.11146 6.01446
#
# Compressibility (1/GPa) = 0.01605816
#
# Stress axis : x y z
#
# Youngs Moduli (GPa) = 76.00904 205.43314 162.29897
#
# Poissons Ratio (x) = 0.27044 0.17013
# Poissons Ratio (y) = 0.10006 0.27574
# Poissons Ratio (z) = 0.07968 0.34903
#
# Static dielectric constant tensor:
#      x y z
#    x 2.387600 0.000000 0.000000 
#    y 0.000000 2.437310 0.000000 
#    z 0.000000 0.000000 2.151770 
# 
# From -- ./inp_files/16529.got.cif
#   From: 2010.05.17/outbox.cif.g08.bks.cpg/sg73_9_cif.got.tgz:16529.got - 2010.06.03 17:35:07.
