data_PCOD9532632
_publ_section_title
;
Structure prediction by ZEFSAII (Michael W. Deem and Ramdas Pophale) SiO2 
 PCOD9532632
Probable space group: I B C A 
;
_chemical_formula_sum "Si O2"
_cell_formula_units_Z 120
_cell_length_a 27.800539
_cell_length_b 14.510760
_cell_length_c 14.420905
_cell_angle_alpha 90.000000
_cell_angle_beta 90.000000
_cell_angle_gamma 90.000000
_cell_volume 5817.493292
_symmetry_space_group_name_H-M "I B C A "
_symmetry_group_IT_number 73
_symmetry_cell_setting 'orthorhombic'
loop_
_space_group_symop_operation_xyz
x,y,z
-x,1/2-y,z
x,-y,1/2-z
1/2-x,y,-z
-x,-y,-z
x,1/2+y,-z
-x,y,1/2+z
1/2+x,-y,z
1/2+x,1/2+y,1/2+z
1/2-x,-y,1/2+z
1/2+x,1/2-y,-z
-x,1/2+y,1/2-z
1/2-x,1/2-y,1/2-z
1/2+x,y,1/2-z
1/2-x,1/2+y,z
x,1/2-y,1/2+z
loop_
_atom_site_type_symbol
_atom_site_label
_atom_site_fract_x
_atom_site_fract_y
_atom_site_fract_z
Si Si1 0.690052 0.597322 0.065394
Si Si2 0.449248 0.493081 0.549851
Si Si3 0.251075 0.140748 0.740720
Si Si4 0.398869 0.690002 0.890984
Si Si5 0.896007 0.907808 0.298855
Si Si6 0.704835 0.884809 0.934997
Si Si7 0.335626 0.000000 0.750000
Si Si8 0.378485 0.894484 0.918834
O O1 0.733264 0.619052 0.136203
O O2 0.644381 0.622469 0.129358
O O3 0.695535 0.490448 0.039194
O O4 0.672411 0.635997 0.966709
O O5 0.500000 0.500000 0.500000
O O6 0.434944 0.386574 0.567239
O O7 0.442197 0.552425 0.645255
O O8 0.409520 0.541050 0.485615
O O9 0.250000 0.250000 0.750000
O O10 0.217476 0.110519 0.825864
O O11 0.299911 0.086893 0.766079
O O12 0.401117 0.666512 0.781318
O O13 0.346561 0.665905 0.935604
O O14 0.406318 0.798735 0.902253
O O15 0.876007 0.000000 0.250000
O O16 0.750000 0.850973 0.000000
O O17 0.367450 0.959335 0.832046
#
# Coordination Sequence:
#
# PCOD9532632 Si02
#       8
#    16  16  16  16  16  16   8  16
#     4  11  20  40  62  86 128 186 239 274 343 403
#     4  10  23  45  76 103 134 172 229 301 362 440
#     4  12  25  37  61  93 136 184 243 294 339 422
#     4  11  22  43  72 101 138 184 238 282 366 441
#     4   9  16  38  68  92 123 171 225 280 337 425
#     4  12  22  38  61  94 132 185 236 287 336 409
#     4  12  26  44  56  96 148 174 230 294 370 398
#     4  11  26  44  69  97 141 186 222 302 365 435
#
# _framework density 20.627441999999999
#
# number of rings (size 3 to 8) (size 9 to 14) (size 15 to 20)
#    0.000    1.067    6.667    1.600    1.867    0.533 
#    6.000    0.000    0.000    0.000    0.000    0.000 
#    0.000    0.000    0.000    0.000    0.000    0.000 
#
# Total GULP energy -334190.394372 kJ/mol
# GULP energy per Si atom -5569.839906 kJ/mol
# Density = 2.058049 g / cm^3
# Si number density = 20.627442 Si / 1000 Ang^3
#
#
#
# Elastic Constant Matrix: (Units=GPa)
#
#
# Indices 1 2 3 4 5 6 
#
# 1 91.2619 15.8121 44.1369 0.0000 0.0000 0.0000
# 2 15.8121 114.4026 41.2530 0.0000 0.0000 0.0000
# 3 44.1369 41.2530 95.5810 0.0000 0.0000 0.0000
# 4 0.0000 0.0000 0.0000 11.7460 0.0000 0.0000
# 5 0.0000 0.0000 0.0000 0.0000 13.5521 0.0000
# 6 0.0000 0.0000 0.0000 0.0000 0.0000 1.3359
#
#
#
# Elastic Compliance Matrix: (Units=1/GPa)
#
#
# Indices 1 2 3 4 5 6 
#
# 1 0.014130 0.000474 -0.006729 0.000000 0.000000 0.000000
# 2 0.000474 0.010368 -0.004694 0.000000 0.000000 0.000000
# 3 -0.006729 -0.004694 0.015595 0.000000 0.000000 0.000000
# 4 0.000000 0.000000 0.000000 0.085135 0.000000 0.000000
# 5 0.000000 0.000000 0.000000 0.000000 0.073789 0.000000
# 6 0.000000 0.000000 0.000000 0.000000 0.000000 0.748574
#
#
# Mechanical properties :
#
#
# Convention : Reuss Voigt Hill
#
# Bulk Modulus (GPa) = 54.96019 55.96106 55.46063
# Shear Modulus (GPa) = 5.12528 18.66304 11.89416
#
# Velocity S-wave (km/s) = 1.57800 3.01120 2.40389
# Velocity P-wave (km/s) = 5.47925 6.26722 5.88644
#
# Compressibility (1/GPa) = 0.01819499
#
# Stress axis : x y z
#
# Youngs Moduli (GPa) = 70.77208 96.44981 64.12122
#
# Poissons Ratio (x) = -0.04568 0.43148
# Poissons Ratio (y) = -0.03352 0.30096
# Poissons Ratio (z) = 0.47624 0.45269
#
# Static dielectric constant tensor:
#      x y z
#    x 1.791760 0.000000 0.000000 
#    y 0.000000 1.766000 0.000000 
#    z 0.000000 0.000000 1.824510 
# 
# From -- ./inp_files/20141.got.cif
#   From: 2010.05.17/outbox.cif.g08.bks.cpg/sg73_11_cif.got.tgz:20141.got - 2010.06.03 17:35:07.
