data_PCOD9532367
_publ_section_title
;
Structure prediction by ZEFSAII (Michael W. Deem and Ramdas Pophale) SiO2 
 PCOD9532367
Probable space group: I B C A 
;
_chemical_formula_sum "Si O2"
_cell_formula_units_Z 88
_cell_length_a 13.520789
_cell_length_b 13.493967
_cell_length_c 16.642896
_cell_angle_alpha 90.000000
_cell_angle_beta 90.000000
_cell_angle_gamma 90.000000
_cell_volume 3036.481073
_symmetry_space_group_name_H-M "I B C A "
_symmetry_group_IT_number 73
_symmetry_cell_setting 'orthorhombic'
loop_
_space_group_symop_operation_xyz
x,y,z
-x,1/2-y,z
x,-y,1/2-z
1/2-x,y,-z
-x,-y,-z
x,1/2+y,-z
-x,y,1/2+z
1/2+x,-y,z
1/2+x,1/2+y,1/2+z
1/2-x,-y,1/2+z
1/2+x,1/2-y,-z
-x,1/2+y,1/2-z
1/2-x,1/2-y,1/2-z
1/2+x,y,1/2-z
1/2-x,1/2+y,z
x,1/2-y,1/2+z
loop_
_atom_site_type_symbol
_atom_site_label
_atom_site_fract_x
_atom_site_fract_y
_atom_site_fract_z
Si Si1 0.253709 0.887527 0.409651
Si Si2 0.434564 0.386947 0.768303
Si Si3 0.848069 0.676981 0.244105
Si Si4 0.813072 0.889811 0.578662
Si Si5 0.500000 0.750000 0.590971
Si Si6 0.532895 0.104314 0.537297
O O1 0.250000 0.843515 0.500000
O O2 0.203151 0.841098 0.330483
O O3 0.373246 0.907658 0.404921
O O4 0.199115 0.992637 0.417512
O O5 0.398589 0.500000 0.750000
O O6 0.382623 0.289890 0.730485
O O7 0.550678 0.385835 0.744201
O O8 0.444338 0.335681 0.857832
O O9 0.782995 0.644820 0.167830
O O10 0.750000 0.861564 0.500000
O O11 0.927746 0.857857 0.571696
O O12 0.438482 0.819554 0.532568
O O13 0.500000 0.000000 0.500000
#
# Coordination Sequence:
#
# PCOD9532367 Si02
#       6
#    16  16  16  16   8  16
#     4  11  21  44  83 124 184 238 304 391 462 588
#     4  10  22  45  84 129 181 238 309 396 476 582
#     4  10  23  44  81 137 181 239 314 384 481 561
#     4  11  24  45  82 123 184 234 311 388 465 575
#     4  10  26  48  82 130 176 236 308 372 476 592
#     4  12  25  49  84 130 178 247 316 385 487 565
#
# _framework density 28.980915
#
# number of rings (size 3 to 8) (size 9 to 14) (size 15 to 20)
#    0.000    1.455    3.636    3.818    2.545    1.455 
#    0.000   13.636    0.000   13.091    0.000    2.545 
#    0.000    0.000    0.000    0.000    0.000    0.000 
#
# Total GULP energy -245995.307012 kJ/mol
# GULP energy per Si atom -5590.802432 kJ/mol
# Density = 2.891495 g / cm^3
# Si number density = 28.980915 Si / 1000 Ang^3
#
#
#
# Elastic Constant Matrix: (Units=GPa)
#
#
# Indices 1 2 3 4 5 6 
#
# 1 176.2553 30.1699 79.4264 0.0000 0.0000 0.0000
# 2 30.1699 258.9531 89.1258 0.0000 0.0000 0.0000
# 3 79.4264 89.1258 246.0707 0.0000 0.0000 0.0000
# 4 0.0000 0.0000 0.0000 40.3249 0.0000 0.0000
# 5 0.0000 0.0000 0.0000 0.0000 39.6174 0.0000
# 6 0.0000 0.0000 0.0000 0.0000 0.0000 45.6823
#
#
#
# Elastic Compliance Matrix: (Units=1/GPa)
#
#
# Indices 1 2 3 4 5 6 
#
# 1 0.006640 -0.000041 -0.002128 0.000000 0.000000 0.000000
# 2 -0.000041 0.004412 -0.001585 0.000000 0.000000 0.000000
# 3 -0.002128 -0.001585 0.005325 0.000000 0.000000 0.000000
# 4 0.000000 0.000000 0.000000 0.024799 0.000000 0.000000
# 5 0.000000 0.000000 0.000000 0.000000 0.025241 0.000000
# 6 0.000000 0.000000 0.000000 0.000000 0.000000 0.021890
#
#
# Mechanical properties :
#
#
# Convention : Reuss Voigt Hill
#
# Bulk Modulus (GPa) = 112.76133 119.85813 116.30973
# Shear Modulus (GPa) = 50.62216 57.29538 53.95877
#
# Velocity S-wave (km/s) = 4.18394 4.45117 4.31962
# Velocity P-wave (km/s) = 7.89517 8.23800 8.06841
#
# Compressibility (1/GPa) = 0.00886829
#
# Stress axis : x y z
#
# Youngs Moduli (GPa) = 150.60946 226.65903 187.79995
#
# Poissons Ratio (x) = 0.00931 0.39969
# Poissons Ratio (y) = 0.00619 0.29761
# Poissons Ratio (z) = 0.32054 0.35919
#
# Static dielectric constant tensor:
#      x y z
#    x 2.517890 0.000000 0.000000 
#    y 0.000000 2.215680 0.000000 
#    z 0.000000 0.000000 2.388410 
# 
# From -- ./inp_files/25927.got.cif
#   From: 2010.05.17/outbox.cif.g08.bks.cpg/sg73_13_cif.got.tgz:25927.got - 2010.06.03 17:35:07.
