data_PCOD9532341
_publ_section_title
;
Structure prediction by ZEFSAII (Michael W. Deem and Ramdas Pophale) SiO2 
 PCOD9532341
Probable space group: I B C A 
;
_chemical_formula_sum "Si O2"
_cell_formula_units_Z 96
_cell_length_a 26.450919
_cell_length_b 8.329433
_cell_length_c 18.116735
_cell_angle_alpha 90.000000
_cell_angle_beta 90.000000
_cell_angle_gamma 90.000000
_cell_volume 3991.500027
_symmetry_space_group_name_H-M "I B C A "
_symmetry_group_IT_number 73
_symmetry_cell_setting 'orthorhombic'
loop_
_space_group_symop_operation_xyz
x,y,z
-x,1/2-y,z
x,-y,1/2-z
1/2-x,y,-z
-x,-y,-z
x,1/2+y,-z
-x,y,1/2+z
1/2+x,-y,z
1/2+x,1/2+y,1/2+z
1/2-x,-y,1/2+z
1/2+x,1/2-y,-z
-x,1/2+y,1/2-z
1/2-x,1/2-y,1/2-z
1/2+x,y,1/2-z
1/2-x,1/2+y,z
x,1/2-y,1/2+z
loop_
_atom_site_type_symbol
_atom_site_label
_atom_site_fract_x
_atom_site_fract_y
_atom_site_fract_z
Si Si1 0.155758 0.428190 0.641736
Si Si2 0.076210 0.500000 0.250000
Si Si3 0.500000 0.750000 0.274238
Si Si4 0.229292 0.599054 0.105899
Si Si5 0.500000 0.250000 0.478303
Si Si6 0.449743 0.047870 0.594670
Si Si7 0.340807 0.776166 0.281236
Si Si8 0.250000 0.652430 0.500000
O O1 0.209980 0.407568 0.604505
O O2 0.104449 0.461307 0.598278
O O3 0.159470 0.599858 0.683921
O O4 0.152642 0.273138 0.695979
O O5 0.038492 0.642951 0.272819
O O6 0.114370 0.600326 0.197918
O O7 0.531984 0.869813 0.328237
O O8 0.208531 0.633633 0.186898
O O9 0.216047 0.444100 0.058646
O O10 0.214320 0.743318 0.052458
O O11 0.455781 0.189053 0.534094
O O12 0.486402 0.404603 0.430392
#
# Coordination Sequence:
#
# PCOD9532341 Si02
#       8
#    16   8   8  16   8  16  16   8
#     4  11  24  44  73 105 146 194 243 307 366 449
#     4  12  28  44  72 104 140 188 236 298 390 438
#     4  11  26  43  72 100 150 181 239 312 364 467
#     4  11  23  47  68 103 148 188 253 301 369 439
#     4   9  22  43  74 102 154 199 241 316 366 439
#     4  10  22  45  68 109 142 192 251 295 378 442
#     4  11  26  45  68 107 143 194 244 302 373 452
#     4  10  24  42  70  98 136 204 234 304 362 428
#
# _framework density 24.051106999999998
#
# number of rings (size 3 to 8) (size 9 to 14) (size 15 to 20)
#    0.000    1.333    3.333    0.500    7.000    2.667 
#    0.000    0.000    0.000    0.000    0.000    0.000 
#    0.000    0.000    0.000    0.000    0.000    0.000 
#
# Total GULP energy -267508.398537 kJ/mol
# GULP energy per Si atom -5573.091636 kJ/mol
# Density = 2.399637 g / cm^3
# Si number density = 24.051107 Si / 1000 Ang^3
#
#
#
# Elastic Constant Matrix: (Units=GPa)
#
#
# Indices 1 2 3 4 5 6 
#
# 1 119.0112 23.0726 42.9634 0.0000 0.0000 0.0000
# 2 23.0726 140.6449 45.2017 0.0000 0.0000 0.0000
# 3 42.9634 45.2017 73.7386 0.0000 0.0000 0.0000
# 4 0.0000 0.0000 0.0000 46.5142 0.0000 0.0000
# 5 0.0000 0.0000 0.0000 0.0000 16.6088 0.0000
# 6 0.0000 0.0000 0.0000 0.0000 0.0000 31.1451
#
#
#
# Elastic Compliance Matrix: (Units=1/GPa)
#
#
# Indices 1 2 3 4 5 6 
#
# 1 0.010651 0.000308 -0.006395 0.000000 0.000000 0.000000
# 2 0.000308 0.008863 -0.005613 0.000000 0.000000 0.000000
# 3 -0.006395 -0.005613 0.020728 0.000000 0.000000 0.000000
# 4 0.000000 0.000000 0.000000 0.021499 0.000000 0.000000
# 5 0.000000 0.000000 0.000000 0.000000 0.060209 0.000000
# 6 0.000000 0.000000 0.000000 0.000000 0.000000 0.032108
#
#
# Mechanical properties :
#
#
# Convention : Reuss Voigt Hill
#
# Bulk Modulus (GPa) = 59.36953 61.76332 60.56643
# Shear Modulus (GPa) = 27.31172 33.66410 30.48791
#
# Velocity S-wave (km/s) = 3.37348 3.74530 3.56424
# Velocity P-wave (km/s) = 6.31760 6.66625 6.49427
#
# Compressibility (1/GPa) = 0.01684366
#
# Stress axis : x y z
#
# Youngs Moduli (GPa) = 93.88452 112.82294 48.24440
#
# Poissons Ratio (x) = -0.03473 0.30851
# Poissons Ratio (y) = -0.02890 0.27078
# Poissons Ratio (z) = 0.60036 0.63323
#
# Static dielectric constant tensor:
#      x y z
#    x 1.953670 0.000000 0.000000 
#    y 0.000000 1.984720 0.000000 
#    z 0.000000 0.000000 1.974510 
# 
# From -- ./inp_files/27570.got.cif
#   From: 2010.05.17/outbox.cif.g08.bks.cpg/sg73_14_cif.got.tgz:27570.got - 2010.06.03 17:35:07.
