data_PCOD9532601
_publ_section_title
;
Structure prediction by ZEFSAII (Michael W. Deem and Ramdas Pophale) SiO2 
 PCOD9532601
Probable space group: I B C A 
;
_chemical_formula_sum "Si O2"
_cell_formula_units_Z 88
_cell_length_a 22.713235
_cell_length_b 5.603376
_cell_length_c 30.044144
_cell_angle_alpha 90.000000
_cell_angle_beta 90.000000
_cell_angle_gamma 90.000000
_cell_volume 3823.742118
_symmetry_space_group_name_H-M "I B C A "
_symmetry_group_IT_number 73
_symmetry_cell_setting 'orthorhombic'
loop_
_space_group_symop_operation_xyz
x,y,z
-x,1/2-y,z
x,-y,1/2-z
1/2-x,y,-z
-x,-y,-z
x,1/2+y,-z
-x,y,1/2+z
1/2+x,-y,z
1/2+x,1/2+y,1/2+z
1/2-x,-y,1/2+z
1/2+x,1/2-y,-z
-x,1/2+y,1/2-z
1/2-x,1/2-y,1/2-z
1/2+x,y,1/2-z
1/2-x,1/2+y,z
x,1/2-y,1/2+z
loop_
_atom_site_type_symbol
_atom_site_label
_atom_site_fract_x
_atom_site_fract_y
_atom_site_fract_z
Si Si1 0.725354 0.687530 0.550451
Si Si2 0.380812 0.000000 0.250000
Si Si3 0.055739 0.387545 0.164094
Si Si4 0.778956 0.905554 0.651448
Si Si5 0.685188 0.500000 0.750000
Si Si6 0.000000 0.750000 0.595173
Si Si7 0.614671 0.484201 0.902828
O O1 0.750000 0.700732 0.500000
O O2 0.758114 0.449331 0.567818
O O3 0.656667 0.634009 0.559633
O O4 0.414958 0.966420 0.296300
O O5 0.349781 0.254301 0.259832
O O6 0.094211 0.201938 0.135263
O O7 0.000000 0.250000 0.184886
O O8 0.029917 0.557485 0.126695
O O9 0.736822 0.682142 0.641617
O O10 0.782324 0.921056 0.705120
O O11 0.840652 0.850320 0.626122
O O12 0.057538 0.613030 0.575494
#
# Coordination Sequence:
#
# PCOD9532601 Si02
#       7
#    16   8  16  16   8   8  16
#     4  10  23  44  75 112 143 178 223 291 353 430
#     4  12  24  40  64  84 128 182 237 313 344 406
#     4  10  24  40  61  94 127 185 248 297 353 407
#     4  12  25  40  63  90 127 179 232 294 352 413
#     4  12  24  42  58  84 128 180 235 293 362 420
#     4  10  24  42  66  98 138 188 236 292 352 418
#     4  11  23  43  68 100 140 180 241 288 358 431
#
# _framework density 23.014105000000001
#
# number of rings (size 3 to 8) (size 9 to 14) (size 15 to 20)
#    0.000    1.091    1.818    3.818    8.909    0.000 
#    0.000    0.000    0.000    4.364    0.000    0.000 
#    0.000    0.000    0.000    0.000    0.000    0.000 
#
# Total GULP energy -245254.926156 kJ/mol
# GULP energy per Si atom -5573.975594 kJ/mol
# Density = 2.296172 g / cm^3
# Si number density = 23.014105 Si / 1000 Ang^3
#
#
#
# Elastic Constant Matrix: (Units=GPa)
#
#
# Indices 1 2 3 4 5 6 
#
# 1 130.5678 43.6284 26.6957 0.0000 0.0000 0.0000
# 2 43.6284 105.0361 19.3433 0.0000 0.0000 0.0000
# 3 26.6957 19.3433 74.3487 0.0000 0.0000 0.0000
# 4 0.0000 0.0000 0.0000 31.5362 0.0000 0.0000
# 5 0.0000 0.0000 0.0000 0.0000 -234.7004 0.0000
# 6 0.0000 0.0000 0.0000 0.0000 0.0000 16.7619
#
#
#
# Elastic Compliance Matrix: (Units=1/GPa)
#
#
# Indices 1 2 3 4 5 6 
#
# 1 0.009300 -0.003411 -0.002452 0.000000 0.000000 0.000000
# 2 -0.003411 0.011251 -0.001702 0.000000 0.000000 0.000000
# 3 -0.002452 -0.001702 0.014773 0.000000 0.000000 0.000000
# 4 0.000000 0.000000 0.000000 0.031710 0.000000 0.000000
# 5 0.000000 0.000000 0.000000 0.000000 -0.004261 0.000000
# 6 0.000000 0.000000 0.000000 0.000000 0.000000 0.059659
#
#
# Mechanical properties :
#
#
# Convention : Reuss Voigt Hill
#
# Bulk Modulus (GPa) = 49.52076 54.36527 51.94301
# Shear Modulus (GPa) = 34.65142 -22.59478 6.02832
#
# Velocity S-wave (km/s) = 3.88449 -3.13674 1.62021
# Velocity P-wave (km/s) = 6.45626 3.24885 5.11069
#
# Compressibility (1/GPa) = 0.02019355
#
# Stress axis : x y z
#
# Youngs Moduli (GPa) = 107.52654 88.88095 67.68952
#
# Poissons Ratio (x) = 0.30321 0.16596
# Poissons Ratio (y) = 0.36682 0.11523
# Poissons Ratio (z) = 0.26363 0.15130
#
# Static dielectric constant tensor:
#      x y z
#    x 2.107960 0.000000 0.000000 
#    y 0.000000 -0.673350 0.000000 
#    z 0.000000 0.000000 2.298340 
# 
# From -- ./inp_files/34768.got.cif
#   From: 2010.05.17/outbox.cif.g08.bks.cpg/sg73_18_cif.got.tgz:34768.got - 2010.06.03 17:35:07.
