data_PCOD9532551
_publ_section_title
;
Structure prediction by ZEFSAII (Michael W. Deem and Ramdas Pophale) SiO2 
 PCOD9532551
Probable space group: I B C A 
;
_chemical_formula_sum "Si O2"
_cell_formula_units_Z 80
_cell_length_a 21.841293
_cell_length_b 14.257042
_cell_length_c 11.652187
_cell_angle_alpha 90.000000
_cell_angle_beta 90.000000
_cell_angle_gamma 90.000000
_cell_volume 3628.400513
_symmetry_space_group_name_H-M "I B C A "
_symmetry_group_IT_number 73
_symmetry_cell_setting 'orthorhombic'
loop_
_space_group_symop_operation_xyz
x,y,z
-x,1/2-y,z
x,-y,1/2-z
1/2-x,y,-z
-x,-y,-z
x,1/2+y,-z
-x,y,1/2+z
1/2+x,-y,z
1/2+x,1/2+y,1/2+z
1/2-x,-y,1/2+z
1/2+x,1/2-y,-z
-x,1/2+y,1/2-z
1/2-x,1/2-y,1/2-z
1/2+x,y,1/2-z
1/2-x,1/2+y,z
x,1/2-y,1/2+z
loop_
_atom_site_type_symbol
_atom_site_label
_atom_site_fract_x
_atom_site_fract_y
_atom_site_fract_z
Si Si1 0.767252 0.097608 0.224062
Si Si2 0.654408 0.219043 0.627013
Si Si3 0.347411 0.897064 0.013235
Si Si4 0.654693 0.098811 0.402244
Si Si5 0.928692 0.232488 0.178989
O O1 0.799901 0.188267 0.274831
O O2 0.786562 0.101250 0.091466
O O3 0.707871 0.086755 0.307081
O O4 0.802977 0.000000 0.250000
O O5 0.661710 0.325238 0.590652
O O6 0.671273 0.157423 0.516740
O O7 0.589130 0.205172 0.689679
O O8 0.399651 0.846285 0.093027
O O9 0.362060 0.997052 0.954952
O O10 0.603962 0.167332 0.347275
O O11 0.000000 0.250000 0.163066
#
# Coordination Sequence:
#
# PCOD9532551 Si02
#       5
#    16  16  16  16  16
#     4  11  23  42  67 101 148 179 221 288 349 435
#     4  10  23  43  67 102 139 182 235 280 355 413
#     4  10  24  45  71 103 141 187 229 285 359 418
#     4  11  24  44  68 105 140 183 233 283 358 419
#     4  10  25  47  71 100 139 184 246 297 334 408
#
# _framework density 22.048280999999999
#
# number of rings (size 3 to 8) (size 9 to 14) (size 15 to 20)
#    0.000    1.600    2.000    0.600    2.800   12.800 
#    3.600    2.000    0.000    0.000    0.000    0.000 
#    0.000    0.000    0.000    0.000    0.000    0.000 
#
# Total GULP energy -222888.761532 kJ/mol
# GULP energy per Si atom -5572.219038 kJ/mol
# Density = 2.199810 g / cm^3
# Si number density = 22.048281 Si / 1000 Ang^3
#
#
#
# Elastic Constant Matrix: (Units=GPa)
#
#
# Indices 1 2 3 4 5 6 
#
# 1 112.4133 33.9092 43.4926 0.0000 0.0000 0.0000
# 2 33.9092 144.2191 41.6875 0.0000 0.0000 0.0000
# 3 43.4926 41.6875 136.3392 0.0000 0.0000 0.0000
# 4 0.0000 0.0000 0.0000 36.1073 0.0000 0.0000
# 5 0.0000 0.0000 0.0000 0.0000 19.1762 0.0000
# 6 0.0000 0.0000 0.0000 0.0000 0.0000 13.3546
#
#
#
# Elastic Compliance Matrix: (Units=1/GPa)
#
#
# Indices 1 2 3 4 5 6 
#
# 1 0.010492 -0.001645 -0.002844 0.000000 0.000000 0.000000
# 2 -0.001645 0.007864 -0.001880 0.000000 0.000000 0.000000
# 3 -0.002844 -0.001880 0.008817 0.000000 0.000000 0.000000
# 4 0.000000 0.000000 0.000000 0.027695 0.000000 0.000000
# 5 0.000000 0.000000 0.000000 0.000000 0.052148 0.000000
# 6 0.000000 0.000000 0.000000 0.000000 0.000000 0.074881
#
#
# Mechanical properties :
#
#
# Convention : Reuss Voigt Hill
#
# Bulk Modulus (GPa) = 69.27409 70.12780 69.70095
# Shear Modulus (GPa) = 25.06937 31.98642 28.52789
#
# Velocity S-wave (km/s) = 3.37563 3.81300 3.60096
# Velocity P-wave (km/s) = 6.83233 7.15966 6.99791
#
# Compressibility (1/GPa) = 0.01443541
#
# Stress axis : x y z
#
# Youngs Moduli (GPa) = 95.30795 127.16162 113.42098
#
# Poissons Ratio (x) = 0.20916 0.32258
# Poissons Ratio (y) = 0.15677 0.21321
# Poissons Ratio (z) = 0.27107 0.23904
#
# Static dielectric constant tensor:
#      x y z
#    x 1.849880 0.000000 0.000000 
#    y 0.000000 1.825110 0.000000 
#    z 0.000000 0.000000 1.907420 
# 
# From -- ./inp_files/13417.got.cif
#   From: 2010.05.17/outbox.cif.g08.bks.cpg/sg73_7_cif.got.tgz:13417.got - 2010.06.03 17:35:07.
