data_PCOD9532569
_publ_section_title
;
Structure prediction by ZEFSAII (Michael W. Deem and Ramdas Pophale) SiO2 
 PCOD9532569
Probable space group: I B C A 
;
_chemical_formula_sum "Si O2"
_cell_formula_units_Z 120
_cell_length_a 24.162732
_cell_length_b 19.891445
_cell_length_c 11.789572
_cell_angle_alpha 90.000000
_cell_angle_beta 90.000000
_cell_angle_gamma 90.000000
_cell_volume 5666.441498
_symmetry_space_group_name_H-M "I B C A "
_symmetry_group_IT_number 73
_symmetry_cell_setting 'orthorhombic'
loop_
_space_group_symop_operation_xyz
x,y,z
-x,1/2-y,z
x,-y,1/2-z
1/2-x,y,-z
-x,-y,-z
x,1/2+y,-z
-x,y,1/2+z
1/2+x,-y,z
1/2+x,1/2+y,1/2+z
1/2-x,-y,1/2+z
1/2+x,1/2-y,-z
-x,1/2+y,1/2-z
1/2-x,1/2-y,1/2-z
1/2+x,y,1/2-z
1/2-x,1/2+y,z
x,1/2-y,1/2+z
loop_
_atom_site_type_symbol
_atom_site_label
_atom_site_fract_x
_atom_site_fract_y
_atom_site_fract_z
Si Si1 0.887772 0.354742 0.710490
Si Si2 0.835051 0.871524 0.642088
Si Si3 0.359391 0.500000 0.750000
Si Si4 0.310144 0.503348 0.499736
Si Si5 0.434471 0.321420 0.558247
Si Si6 0.055534 0.330563 0.980900
Si Si7 0.773401 0.717245 0.865180
Si Si8 0.330280 0.643361 0.087765
O O1 0.888604 0.429023 0.762712
O O2 0.910088 0.311348 0.815336
O O3 0.927247 0.358341 0.602673
O O4 0.827055 0.329016 0.667834
O O5 0.893410 0.842180 0.602772
O O6 0.781427 0.827167 0.598395
O O7 0.832404 0.868400 0.777609
O O8 0.838717 0.946861 0.589756
O O9 0.329144 0.507769 0.629497
O O10 0.250000 0.533614 0.500000
O O11 0.306313 0.426058 0.461499
O O12 0.444320 0.249100 0.504471
O O13 0.495363 0.354554 0.560617
O O14 0.388930 0.353719 0.476678
O O15 0.750000 0.750000 0.750000
O O16 0.798902 0.784249 0.929001
#
# Coordination Sequence:
#
# PCOD9532569 Si02
#       8
#    16  16   8  16  16  16  16  16
#     4  12  24  48  68 101 143 182 237 288 363 425
#     4  11  25  46  69 106 145 190 232 286 361 431
#     4  12  26  46  66  98 140 188 232 286 356 442
#     4  12  27  43  70 100 145 188 236 290 359 430
#     4  11  25  44  72 105 136 184 244 299 347 420
#     4  11  26  43  73 102 139 189 234 299 356 417
#     4  10  23  43  73 103 144 181 227 290 355 424
#     4  11  24  45  70 107 141 181 239 291 351 422
#
# _framework density 21.177313000000002
#
# number of rings (size 3 to 8) (size 9 to 14) (size 15 to 20)
#    0.000    0.800    4.000    2.800    7.467    2.133 
#    2.400    2.667    0.000    0.000    0.000    0.000 
#    0.000    0.000    0.000    0.000    0.000    0.000 
#
# Total GULP energy -334378.840073 kJ/mol
# GULP energy per Si atom -5572.980668 kJ/mol
# Density = 2.112911 g / cm^3
# Si number density = 21.177313 Si / 1000 Ang^3
#
#
#
# Elastic Constant Matrix: (Units=GPa)
#
#
# Indices 1 2 3 4 5 6 
#
# 1 147.5389 34.5209 47.8412 0.0000 0.0000 0.0000
# 2 34.5209 109.3519 9.9137 0.0000 0.0000 0.0000
# 3 47.8412 9.9137 106.0621 0.0000 0.0000 0.0000
# 4 0.0000 0.0000 0.0000 48.3336 0.0000 0.0000
# 5 0.0000 0.0000 0.0000 0.0000 22.7872 0.0000
# 6 0.0000 0.0000 0.0000 0.0000 0.0000 19.4965
#
#
#
# Elastic Compliance Matrix: (Units=1/GPa)
#
#
# Indices 1 2 3 4 5 6 
#
# 1 0.008501 -0.002356 -0.003614 0.000000 0.000000 0.000000
# 2 -0.002356 0.009876 0.000140 0.000000 0.000000 0.000000
# 3 -0.003614 0.000140 0.011046 0.000000 0.000000 0.000000
# 4 0.000000 0.000000 0.000000 0.020690 0.000000 0.000000
# 5 0.000000 0.000000 0.000000 0.000000 0.043884 0.000000
# 6 0.000000 0.000000 0.000000 0.000000 0.000000 0.051291
#
#
# Mechanical properties :
#
#
# Convention : Reuss Voigt Hill
#
# Bulk Modulus (GPa) = 56.30249 60.83383 58.56816
# Shear Modulus (GPa) = 30.69937 36.16860 33.43398
#
# Velocity S-wave (km/s) = 3.81154 4.13715 3.97768
# Velocity P-wave (km/s) = 6.78339 7.18399 6.98656
#
# Compressibility (1/GPa) = 0.01776121
#
# Stress axis : x y z
#
# Youngs Moduli (GPa) = 117.63146 101.25663 90.53287
#
# Poissons Ratio (x) = 0.23856 0.32722
# Poissons Ratio (y) = 0.27714 -0.01264
# Poissons Ratio (z) = 0.42516 -0.01414
#
# Static dielectric constant tensor:
#      x y z
#    x 1.854420 0.000000 0.000000 
#    y 0.000000 1.704440 0.000000 
#    z 0.000000 0.000000 1.719010 
# 
# From -- ./inp_files/13861.got.cif
#   From: 2010.05.17/outbox.cif.g08.bks.cpg/sg73_7_cif.got.tgz:13861.got - 2010.06.03 17:35:07.
