data_PCOD9532743
_publ_section_title
;
Structure prediction by ZEFSAII (Michael W. Deem and Ramdas Pophale) SiO2 
 PCOD9532743
Probable space group: I B C A 
;
_chemical_formula_sum "Si O2"
_cell_formula_units_Z 120
_cell_length_a 8.534973
_cell_length_b 23.783100
_cell_length_c 29.971639
_cell_angle_alpha 90.000000
_cell_angle_beta 90.000000
_cell_angle_gamma 90.000000
_cell_volume 6083.886545
_symmetry_space_group_name_H-M "I B C A "
_symmetry_group_IT_number 73
_symmetry_cell_setting 'orthorhombic'
loop_
_space_group_symop_operation_xyz
x,y,z
-x,1/2-y,z
x,-y,1/2-z
1/2-x,y,-z
-x,-y,-z
x,1/2+y,-z
-x,y,1/2+z
1/2+x,-y,z
1/2+x,1/2+y,1/2+z
1/2-x,-y,1/2+z
1/2+x,1/2-y,-z
-x,1/2+y,1/2-z
1/2-x,1/2-y,1/2-z
1/2+x,y,1/2-z
1/2-x,1/2+y,z
x,1/2-y,1/2+z
loop_
_atom_site_type_symbol
_atom_site_label
_atom_site_fract_x
_atom_site_fract_y
_atom_site_fract_z
Si Si1 0.939375 0.810733 0.544171
Si Si2 0.568886 0.812442 0.801087
Si Si3 0.305199 0.500000 0.250000
Si Si4 0.909705 0.395527 0.636087
Si Si5 0.443898 0.314427 0.291975
Si Si6 0.054254 0.518242 0.180030
Si Si7 0.936315 0.311388 0.558893
Si Si8 0.039974 0.610400 0.620074
O O1 0.988411 0.817419 0.492599
O O2 0.752506 0.808779 0.553316
O O3 0.997994 0.863601 0.572414
O O4 0.000000 0.750000 0.559690
O O5 0.500000 0.750000 0.803063
O O6 0.492813 0.837400 0.756368
O O7 0.756897 0.815075 0.798233
O O8 0.508114 0.843152 0.844321
O O9 0.195984 0.530888 0.214071
O O10 0.412847 0.468154 0.214275
O O11 0.955611 0.454811 0.660090
O O12 0.975621 0.364796 0.590651
O O13 0.724856 0.401007 0.625929
O O14 0.959472 0.349574 0.672310
O O15 0.500000 0.250000 0.294443
O O16 0.053138 0.556300 0.136509
O O17 0.000000 0.250000 0.575271
#
# Coordination Sequence:
#
# PCOD9532743 Si02
#       8
#    16  16   8  16  16  16  16  16
#     4   9  19  38  63  90 119 153 192 238 295 355
#     4  11  23  37  55  80 114 151 189 236 292 352
#     4  10  24  42  60  78 116 158 208 242 292 344
#     4  11  23  38  59  85 116 152 197 245 293 351
#     4  11  23  37  55  80 114 151 189 236 292 352
#     4  11  24  40  59  86 114 158 201 248 293 350
#     4   9  19  38  63  90 119 153 192 238 295 355
#     4  11  23  38  59  85 116 152 197 245 293 351
#
# _framework density 19.724233999999999
#
# number of rings (size 3 to 8) (size 9 to 14) (size 15 to 20)
#    0.000    1.600    1.333    4.000    5.600    3.200 
#    0.000    0.667    0.000    0.000    0.000    0.000 
#    0.000    0.000    0.000    0.000    0.000    0.000 
#
# Total GULP energy -334335.992029 kJ/mol
# GULP energy per Si atom -5572.266534 kJ/mol
# Density = 1.967934 g / cm^3
# Si number density = 19.724234 Si / 1000 Ang^3
#
#
#
# Elastic Constant Matrix: (Units=GPa)
#
#
# Indices 1 2 3 4 5 6 
#
# 1 16.1631 2.5112 3.1592 0.0000 0.0000 0.0000
# 2 2.5112 105.5159 56.1036 0.0000 0.0000 0.0000
# 3 3.1592 56.1036 92.2064 0.0000 0.0000 0.0000
# 4 0.0000 0.0000 0.0000 68.3934 0.0000 0.0000
# 5 0.0000 0.0000 0.0000 0.0000 21.1572 0.0000
# 6 0.0000 0.0000 0.0000 0.0000 0.0000 -9.6064
#
#
#
# Elastic Compliance Matrix: (Units=1/GPa)
#
#
# Indices 1 2 3 4 5 6 
#
# 1 0.062305 -0.000514 -0.001822 0.000000 0.000000 0.000000
# 2 -0.000514 0.014014 -0.008509 0.000000 0.000000 0.000000
# 3 -0.001822 -0.008509 0.016085 0.000000 0.000000 0.000000
# 4 0.000000 0.000000 0.000000 0.014621 0.000000 0.000000
# 5 0.000000 0.000000 0.000000 0.000000 0.047265 0.000000
# 6 0.000000 0.000000 0.000000 0.000000 0.000000 -0.104097
#
#
# Mechanical properties :
#
#
# Convention : Reuss Voigt Hill
#
# Bulk Modulus (GPa) = 14.14151 37.49260 25.81706
# Shear Modulus (GPa) = 52.38031 26.12959 39.25495
#
# Velocity S-wave (km/s) = 5.15887 3.64365 4.46599
# Velocity P-wave (km/s) = 6.53226 6.06228 6.30166
#
# Compressibility (1/GPa) = 0.07071379
#
# Stress axis : x y z
#
# Youngs Moduli (GPa) = 16.05001 71.35775 62.16917
#
# Poissons Ratio (x) = 0.03668 0.11327
# Poissons Ratio (y) = 0.00825 0.52901
# Poissons Ratio (z) = 0.02924 0.60720
#
# Static dielectric constant tensor:
#      x y z
#    x 1.739400 0.000000 0.000000 
#    y 0.000000 1.699000 0.000000 
#    z 0.000000 0.000000 1.678540 
# 
# From -- ./inp_files/31402.got.cif
#   From: 2010.05.17/outbox.cif.g08.bks.cpg/sg73_16_cif.got.tgz:31402.got - 2010.06.03 17:35:07.
