data_PCOD9532053
_publ_section_title
;
Structure prediction by ZEFSAII (Michael W. Deem and Ramdas Pophale) SiO2 
 PCOD9532053
Probable space group: I B C A 
;
_chemical_formula_sum "Si O2"
_cell_formula_units_Z 88
_cell_length_a 11.173017
_cell_length_b 15.024966
_cell_length_c 20.506889
_cell_angle_alpha 90.000000
_cell_angle_beta 90.000000
_cell_angle_gamma 90.000000
_cell_volume 3442.577596
_symmetry_space_group_name_H-M "I B C A "
_symmetry_group_IT_number 73
_symmetry_cell_setting 'orthorhombic'
loop_
_space_group_symop_operation_xyz
x,y,z
-x,1/2-y,z
x,-y,1/2-z
1/2-x,y,-z
-x,-y,-z
x,1/2+y,-z
-x,y,1/2+z
1/2+x,-y,z
1/2+x,1/2+y,1/2+z
1/2-x,-y,1/2+z
1/2+x,1/2-y,-z
-x,1/2+y,1/2-z
1/2-x,1/2-y,1/2-z
1/2+x,y,1/2-z
1/2-x,1/2+y,z
x,1/2-y,1/2+z
loop_
_atom_site_type_symbol
_atom_site_label
_atom_site_fract_x
_atom_site_fract_y
_atom_site_fract_z
Si Si1 0.319466 0.347159 0.912480
Si Si2 0.042615 0.935592 0.700437
Si Si3 0.906903 0.028860 0.443869
Si Si4 0.455620 0.842635 0.683507
Si Si5 0.288114 0.224045 0.177613
Si Si6 0.750000 0.690420 0.500000
O O1 0.311122 0.447745 0.937177
O O2 0.438519 0.352265 0.868368
O O3 0.210385 0.311389 0.867221
O O4 0.331145 0.266123 0.963472
O O5 0.025169 0.969379 0.626982
O O6 0.105886 0.843342 0.683018
O O7 0.947220 0.910217 0.756534
O O8 0.120702 0.000000 0.750000
O O9 0.839570 0.121646 0.462268
O O10 0.000000 0.000000 0.500000
O O11 0.500000 0.750000 0.713785
O O12 0.326626 0.832613 0.652259
O O13 0.250000 0.250000 0.250000
#
# Coordination Sequence:
#
# PCOD9532053 Si02
#       6
#    16  16  16  16  16   8
#     4  11  24  48  72 102 152 194 249 314 377 462
#     4  12  23  47  73 112 148 192 256 318 378 457
#     4  12  29  49  73 112 152 195 258 310 381 468
#     4  10  22  40  74 103 143 187 245 308 382 435
#     4  11  21  42  74 105 145 191 244 314 383 446
#     4  12  28  48  76 102 148 210 246 306 400 454
#
# _framework density 25.562242000000001
#
# number of rings (size 3 to 8) (size 9 to 14) (size 15 to 20)
#    0.000    0.727    7.273    0.545    7.636    0.727 
#   13.091    0.000    0.000    0.000    0.000    0.000 
#    0.000    0.000    0.000    0.000    0.000    0.000 
#
# Total GULP energy -245015.493936 kJ/mol
# GULP energy per Si atom -5568.533953 kJ/mol
# Density = 2.550406 g / cm^3
# Si number density = 25.562242 Si / 1000 Ang^3
#
#
#
# Elastic Constant Matrix: (Units=GPa)
#
#
# Indices 1 2 3 4 5 6 
#
# 1 31.2406 -4.4127 8.9089 0.0000 0.0000 0.0000
# 2 -4.4127 168.3415 38.7101 0.0000 0.0000 0.0000
# 3 8.9089 38.7101 161.5745 0.0000 0.0000 0.0000
# 4 0.0000 0.0000 0.0000 49.9800 0.0000 0.0000
# 5 0.0000 0.0000 0.0000 0.0000 25.0955 0.0000
# 6 0.0000 0.0000 0.0000 0.0000 0.0000 18.3664
#
#
#
# Elastic Compliance Matrix: (Units=1/GPa)
#
#
# Indices 1 2 3 4 5 6 
#
# 1 0.032809 0.001350 -0.002133 0.000000 0.000000 0.000000
# 2 0.001350 0.006342 -0.001594 0.000000 0.000000 0.000000
# 3 -0.002133 -0.001594 0.006689 0.000000 0.000000 0.000000
# 4 0.000000 0.000000 0.000000 0.020008 0.000000 0.000000
# 5 0.000000 0.000000 0.000000 0.000000 0.039848 0.000000
# 6 0.000000 0.000000 0.000000 0.000000 0.000000 0.054447
#
#
# Mechanical properties :
#
#
# Convention : Reuss Voigt Hill
#
# Bulk Modulus (GPa) = 24.33848 49.72988 37.03418
# Shear Modulus (GPa) = 27.99704 39.88505 33.94105
#
# Velocity S-wave (km/s) = 3.31305 3.95436 3.64783
# Velocity P-wave (km/s) = 4.91701 6.35185 5.67992
#
# Compressibility (1/GPa) = 0.04108720
#
# Stress axis : x y z
#
# Youngs Moduli (GPa) = 30.47986 157.67330 149.50914
#
# Poissons Ratio (x) = -0.21292 0.31883
# Poissons Ratio (y) = -0.04116 0.23831
# Poissons Ratio (z) = 0.06500 0.25132
#
# Static dielectric constant tensor:
#      x y z
#    x 2.134850 0.000000 0.000000 
#    y 0.000000 2.273790 0.000000 
#    z 0.000000 0.000000 2.150580 
# 
# From -- ./inp_files/25929.got.cif
#   From: 2010.05.17/outbox.cif.g08.bks.cpg/sg73_13_cif.got.tgz:25929.got - 2010.06.03 17:35:07.
