data_PCOD9532708
_publ_section_title
;
Structure prediction by ZEFSAII (Michael W. Deem and Ramdas Pophale) SiO2 
 PCOD9532708
Probable space group: I B C A 
;
_chemical_formula_sum "Si O2"
_cell_formula_units_Z 88
_cell_length_a 19.503585
_cell_length_b 25.267099
_cell_length_c 8.992403
_cell_angle_alpha 90.000000
_cell_angle_beta 90.000000
_cell_angle_gamma 90.000000
_cell_volume 4431.447323
_symmetry_space_group_name_H-M "I B C A "
_symmetry_group_IT_number 73
_symmetry_cell_setting 'orthorhombic'
loop_
_space_group_symop_operation_xyz
x,y,z
-x,1/2-y,z
x,-y,1/2-z
1/2-x,y,-z
-x,-y,-z
x,1/2+y,-z
-x,y,1/2+z
1/2+x,-y,z
1/2+x,1/2+y,1/2+z
1/2-x,-y,1/2+z
1/2+x,1/2-y,-z
-x,1/2+y,1/2-z
1/2-x,1/2-y,1/2-z
1/2+x,y,1/2-z
1/2-x,1/2+y,z
x,1/2-y,1/2+z
loop_
_atom_site_type_symbol
_atom_site_label
_atom_site_fract_x
_atom_site_fract_y
_atom_site_fract_z
Si Si1 0.408558 0.845246 0.718362
Si Si2 0.843316 0.445106 0.833660
Si Si3 0.153507 0.771249 0.752919
Si Si4 0.811615 0.057787 0.684589
Si Si5 0.948341 0.647402 0.628647
Si Si6 0.250000 0.244748 0.500000
O O1 0.368002 0.790249 0.738991
O O2 0.358797 0.894879 0.740054
O O3 0.435917 0.846250 0.547746
O O4 0.472540 0.851780 0.828178
O O5 0.858781 0.500000 0.750000
O O6 0.767524 0.427580 0.779796
O O7 0.905380 0.403980 0.818329
O O8 0.828568 0.449391 0.009854
O O9 0.087091 0.804400 0.715738
O O10 0.193760 0.785965 0.903035
O O11 0.207258 0.778765 0.618393
O O12 0.824928 0.000000 0.750000
#
# Coordination Sequence:
#
# PCOD9532708 Si02
#       6
#    16  16  16  16  16   8
#     4  11  25  41  61  87 127 166 200 249 303 361
#     4   9  20  40  63  88 116 153 200 254 305 354
#     4  11  23  42  62  94 126 156 204 248 308 354
#     4   9  20  40  63  88 116 153 200 254 305 354
#     4  11  25  41  61  87 127 166 200 249 303 361
#     4  10  24  38  66  94 118 162 200 256 296 364
#
# _framework density 19.858072
#
# number of rings (size 3 to 8) (size 9 to 14) (size 15 to 20)
#    0.000    1.818    1.818    0.545    7.636    3.636 
#    0.000    3.636    0.000    0.000    0.000    0.000 
#    0.000    0.000    0.000    0.000    0.000    0.000 
#
# Total GULP energy -245651.445897 kJ/mol
# GULP energy per Si atom -5582.987407 kJ/mol
# Density = 1.981287 g / cm^3
# Si number density = 19.858072 Si / 1000 Ang^3
#
#
#
# Elastic Constant Matrix: (Units=GPa)
#
#
# Indices 1 2 3 4 5 6 
#
# 1 104.7517 56.0214 27.4238 0.0000 0.0000 0.0000
# 2 56.0214 87.3201 15.0979 0.0000 0.0000 0.0000
# 3 27.4238 15.0979 46.7555 0.0000 0.0000 0.0000
# 4 0.0000 0.0000 0.0000 13.4700 0.0000 0.0000
# 5 0.0000 0.0000 0.0000 0.0000 32.4207 0.0000
# 6 0.0000 0.0000 0.0000 0.0000 0.0000 27.0268
#
#
#
# Elastic Compliance Matrix: (Units=1/GPa)
#
#
# Indices 1 2 3 4 5 6 
#
# 1 0.016212 -0.009275 -0.006514 0.000000 0.000000 0.000000
# 2 -0.009275 0.017435 -0.000190 0.000000 0.000000 0.000000
# 3 -0.006514 -0.000190 0.025270 0.000000 0.000000 0.000000
# 4 0.000000 0.000000 0.000000 0.074239 0.000000 0.000000
# 5 0.000000 0.000000 0.000000 0.000000 0.030845 0.000000
# 6 0.000000 0.000000 0.000000 0.000000 0.000000 0.037000
#
#
# Mechanical properties :
#
#
# Convention : Reuss Voigt Hill
#
# Bulk Modulus (GPa) = 37.09253 48.43481 42.76367
# Shear Modulus (GPa) = 20.66586 23.93577 22.30081
#
# Velocity S-wave (km/s) = 3.22945 3.47557 3.35477
# Velocity P-wave (km/s) = 5.71185 6.36785 6.04875
#
# Compressibility (1/GPa) = 0.02695960
#
# Stress axis : x y z
#
# Youngs Moduli (GPa) = 61.68345 57.35511 39.57272
#
# Poissons Ratio (x) = 0.53195 0.25777
# Poissons Ratio (y) = 0.57209 0.00752
# Poissons Ratio (z) = 0.40180 0.01091
#
# Static dielectric constant tensor:
#      x y z
#    x 1.688150 0.000000 0.000000 
#    y 0.000000 1.670590 0.000000 
#    z 0.000000 0.000000 1.717120 
# 
# From -- ./inp_files/6260.got.cif
#   From: 2010.05.17/outbox.cif.g08.bks.cpg/sg73_4_cif.got.tgz:6260.got - 2010.06.03 17:35:07.
