data_PCOD9532890
_publ_section_title
;
Structure prediction by ZEFSAII (Michael W. Deem and Ramdas Pophale) SiO2 
 PCOD9532890
Probable space group: I B C A 
;
_chemical_formula_sum "Si O2"
_cell_formula_units_Z 72
_cell_length_a 13.161042
_cell_length_b 14.849449
_cell_length_c 16.560035
_cell_angle_alpha 90.000000
_cell_angle_beta 90.000000
_cell_angle_gamma 90.000000
_cell_volume 3236.397556
_symmetry_space_group_name_H-M "I B C A "
_symmetry_group_IT_number 73
_symmetry_cell_setting 'orthorhombic'
loop_
_space_group_symop_operation_xyz
x,y,z
-x,1/2-y,z
x,-y,1/2-z
1/2-x,y,-z
-x,-y,-z
x,1/2+y,-z
-x,y,1/2+z
1/2+x,-y,z
1/2+x,1/2+y,1/2+z
1/2-x,-y,1/2+z
1/2+x,1/2-y,-z
-x,1/2+y,1/2-z
1/2-x,1/2-y,1/2-z
1/2+x,y,1/2-z
1/2-x,1/2+y,z
x,1/2-y,1/2+z
loop_
_atom_site_type_symbol
_atom_site_label
_atom_site_fract_x
_atom_site_fract_y
_atom_site_fract_z
Si Si1 0.457236 0.852883 0.646693
Si Si2 0.165624 0.964454 0.842152
Si Si3 0.821317 0.678389 0.205353
Si Si4 0.500000 0.750000 0.898190
Si Si5 0.418104 0.922964 0.482632
O O1 0.500000 0.750000 0.641520
O O2 0.558517 0.912354 0.652285
O O3 0.389875 0.867564 0.725974
O O4 0.388812 0.883596 0.570398
O O5 0.256993 0.892389 0.847114
O O6 0.172880 0.000000 0.750000
O O7 0.158791 0.037268 0.915065
O O8 0.750000 0.750000 0.250000
O O9 0.899969 0.734676 0.153381
O O10 0.519465 0.839825 0.946896
O O11 0.500000 0.000000 0.500000
#
# Coordination Sequence:
#
# PCOD9532890 Si02
#       5
#    16  16  16   8  16
#     4  11  21  45  73 100 142 191 242 302 373 442
#     4  11  24  44  69 109 143 182 250 302 369 452
#     4  12  23  41  71 102 137 187 245 303 366 458
#     4  12  24  46  74  98 142 200 246 310 392 460
#     4  10  24  45  72 102 142 191 240 308 377 445
#
# _framework density 22.246959
#
# number of rings (size 3 to 8) (size 9 to 14) (size 15 to 20)
#    0.000    0.889    4.444    2.667    0.000    4.444 
#    0.000   20.000    0.000    0.000    0.000    0.000 
#    0.000    0.000    0.000    0.000    0.000    0.000 
#
# Total GULP energy -201207.273667 kJ/mol
# GULP energy per Si atom -5589.090935 kJ/mol
# Density = 2.219632 g / cm^3
# Si number density = 22.246959 Si / 1000 Ang^3
#
#
#
# Elastic Constant Matrix: (Units=GPa)
#
#
# Indices 1 2 3 4 5 6 
#
# 1 107.4012 44.2259 22.1771 0.0000 0.0000 0.0000
# 2 44.2259 112.2546 32.2129 0.0000 0.0000 0.0000
# 3 22.1771 32.2129 71.9581 0.0000 0.0000 0.0000
# 4 0.0000 0.0000 0.0000 92.9192 0.0000 0.0000
# 5 0.0000 0.0000 0.0000 0.0000 -15.2163 0.0000
# 6 0.0000 0.0000 0.0000 0.0000 0.0000 44.1090
#
#
#
# Elastic Compliance Matrix: (Units=1/GPa)
#
#
# Indices 1 2 3 4 5 6 
#
# 1 0.011294 -0.003959 -0.001708 0.000000 0.000000 0.000000
# 2 -0.003959 0.011609 -0.003977 0.000000 0.000000 0.000000
# 3 -0.001708 -0.003977 0.016204 0.000000 0.000000 0.000000
# 4 0.000000 0.000000 0.000000 0.010762 0.000000 0.000000
# 5 0.000000 0.000000 0.000000 0.000000 -0.065719 0.000000
# 6 0.000000 0.000000 0.000000 0.000000 0.000000 0.022671
#
#
# Mechanical properties :
#
#
# Convention : Reuss Voigt Hill
#
# Bulk Modulus (GPa) = 50.45875 54.31619 52.38747
# Shear Modulus (GPa) = 152.82838 37.22892 95.02865
#
# Velocity S-wave (km/s) = 8.29731 4.09521 6.54279
# Velocity P-wave (km/s) = 10.70160 6.84318 8.98202
#
# Compressibility (1/GPa) = 0.01981817
#
# Stress axis : x y z
#
# Youngs Moduli (GPa) = 88.54237 86.13676 61.71418
#
# Poissons Ratio (x) = 0.34105 0.10543
# Poissons Ratio (y) = 0.35057 0.24543
# Poissons Ratio (z) = 0.15126 0.34255
#
# Static dielectric constant tensor:
#      x y z
#    x 1.739480 0.000000 0.000000 
#    y 0.000000 1.152210 0.000000 
#    z 0.000000 0.000000 1.901190 
# 
# From -- ./inp_files/21162.got.cif
#   From: 2010.05.17/outbox.cif.g08.bks.cpg/sg73_11_cif.got.tgz:21162.got - 2010.06.03 17:35:07.
