data_PCOD9532147
_publ_section_title
;
Structure prediction by ZEFSAII (Michael W. Deem and Ramdas Pophale) SiO2 
 PCOD9532147
Probable space group: I B C A 
;
_chemical_formula_sum "Si O2"
_cell_formula_units_Z 88
_cell_length_a 24.713601
_cell_length_b 19.993595
_cell_length_c 7.953360
_cell_angle_alpha 90.000000
_cell_angle_beta 90.000000
_cell_angle_gamma 90.000000
_cell_volume 3929.864371
_symmetry_space_group_name_H-M "I B C A "
_symmetry_group_IT_number 73
_symmetry_cell_setting 'orthorhombic'
loop_
_space_group_symop_operation_xyz
x,y,z
-x,1/2-y,z
x,-y,1/2-z
1/2-x,y,-z
-x,-y,-z
x,1/2+y,-z
-x,y,1/2+z
1/2+x,-y,z
1/2+x,1/2+y,1/2+z
1/2-x,-y,1/2+z
1/2+x,1/2-y,-z
-x,1/2+y,1/2-z
1/2-x,1/2-y,1/2-z
1/2+x,y,1/2-z
1/2-x,1/2+y,z
x,1/2-y,1/2+z
loop_
_atom_site_type_symbol
_atom_site_label
_atom_site_fract_x
_atom_site_fract_y
_atom_site_fract_z
Si Si1 0.926206 0.000000 0.250000
Si Si2 0.737632 0.325592 0.198508
Si Si3 0.127390 0.627336 0.086387
Si Si4 0.439548 0.599458 0.476241
Si Si5 0.669628 0.920736 0.273305
Si Si6 0.025425 0.322212 0.284933
O O1 0.890383 0.058898 0.326063
O O2 0.954282 0.965184 0.410327
O O3 0.750000 0.250000 0.250000
O O4 0.674048 0.340759 0.201112
O O5 0.775476 0.377947 0.299158
O O6 0.750000 0.333171 0.000000
O O7 0.073859 0.672455 0.080870
O O8 0.146936 0.608987 0.901416
O O9 0.379063 0.589491 0.405923
O O10 0.481418 0.620523 0.330992
O O11 0.446865 0.659871 0.608164
O O12 0.680514 0.000000 0.250000
O O13 0.000000 0.250000 0.282583
#
# Coordination Sequence:
#
# PCOD9532147 Si02
#       6
#     8  16  16  16  16  16
#     4  10  22  42  66 104 136 180 240 296 350 422
#     4  10  25  46  71 105 142 187 231 295 354 430
#     4  10  23  45  69 103 141 181 241 289 351 434
#     4  11  24  43  70 102 138 191 235 297 359 427
#     4  11  23  46  74 105 146 189 235 298 364 428
#     4  11  25  45  68 101 142 191 238 298 361 434
#
# _framework density 22.39263
#
# number of rings (size 3 to 8) (size 9 to 14) (size 15 to 20)
#    0.000    1.455    1.818    1.636    3.818    5.818 
#   11.455    0.909    0.000    0.000    0.000    0.000 
#    0.000    0.000    0.000    0.000    0.000    0.000 
#
# Total GULP energy -245816.628440 kJ/mol
# GULP energy per Si atom -5586.741555 kJ/mol
# Density = 2.234166 g / cm^3
# Si number density = 22.392630 Si / 1000 Ang^3
#
#
#
# Elastic Constant Matrix: (Units=GPa)
#
#
# Indices 1 2 3 4 5 6 
#
# 1 109.7952 85.0870 18.7049 0.0000 0.0000 0.0000
# 2 85.0870 174.3177 33.0485 0.0000 0.0000 0.0000
# 3 18.7049 33.0485 72.2121 0.0000 0.0000 0.0000
# 4 0.0000 0.0000 0.0000 33.2485 0.0000 0.0000
# 5 0.0000 0.0000 0.0000 0.0000 7.7415 0.0000
# 6 0.0000 0.0000 0.0000 0.0000 0.0000 30.1101
#
#
#
# Elastic Compliance Matrix: (Units=1/GPa)
#
#
# Indices 1 2 3 4 5 6 
#
# 1 0.014671 -0.007053 -0.000573 0.000000 0.000000 0.000000
# 2 -0.007053 0.009672 -0.002600 0.000000 0.000000 0.000000
# 3 -0.000573 -0.002600 0.015186 0.000000 0.000000 0.000000
# 4 0.000000 0.000000 0.000000 0.030077 0.000000 0.000000
# 5 0.000000 0.000000 0.000000 0.000000 0.129173 0.000000
# 6 0.000000 0.000000 0.000000 0.000000 0.000000 0.033211
#
#
# Mechanical properties :
#
#
# Convention : Reuss Voigt Hill
#
# Bulk Modulus (GPa) = 52.41207 70.00065 61.20636
# Shear Modulus (GPa) = 19.31998 28.85234 24.08616
#
# Velocity S-wave (km/s) = 2.94050 3.59343 3.28324
# Velocity P-wave (km/s) = 5.91485 6.96745 6.46262
#
# Compressibility (1/GPa) = 0.01907958
#
# Stress axis : x y z
#
# Youngs Moduli (GPa) = 68.16252 103.39183 65.84951
#
# Poissons Ratio (x) = 0.72917 0.03770
# Poissons Ratio (y) = 0.48072 0.17119
# Poissons Ratio (z) = 0.03902 0.26878
#
# Static dielectric constant tensor:
#      x y z
#    x 1.892860 0.000000 0.000000 
#    y 0.000000 1.791730 0.000000 
#    z 0.000000 0.000000 1.920080 
# 
# From -- ./inp_files/7071.got.cif
#   From: 2010.05.17/outbox.cif.g08.bks.cpg/sg73_4_cif.got.tgz:7071.got - 2010.06.03 17:35:07.
