data_PCOD9532247
_publ_section_title
;
Structure prediction by ZEFSAII (Michael W. Deem and Ramdas Pophale) SiO2 
 PCOD9532247
Probable space group: I B C A 
;
_chemical_formula_sum "Si O2"
_cell_formula_units_Z 96
_cell_length_a 8.066079
_cell_length_b 22.619534
_cell_length_c 25.719429
_cell_angle_alpha 90.000000
_cell_angle_beta 90.000000
_cell_angle_gamma 90.000000
_cell_volume 4692.534208
_symmetry_space_group_name_H-M "I B C A "
_symmetry_group_IT_number 73
_symmetry_cell_setting 'orthorhombic'
loop_
_space_group_symop_operation_xyz
x,y,z
-x,1/2-y,z
x,-y,1/2-z
1/2-x,y,-z
-x,-y,-z
x,1/2+y,-z
-x,y,1/2+z
1/2+x,-y,z
1/2+x,1/2+y,1/2+z
1/2-x,-y,1/2+z
1/2+x,1/2-y,-z
-x,1/2+y,1/2-z
1/2-x,1/2-y,1/2-z
1/2+x,y,1/2-z
1/2-x,1/2+y,z
x,1/2-y,1/2+z
loop_
_atom_site_type_symbol
_atom_site_label
_atom_site_fract_x
_atom_site_fract_y
_atom_site_fract_z
Si Si1 0.037650 0.006790 0.123563
Si Si2 0.500000 0.250000 0.875854
Si Si3 0.000000 0.750000 0.709485
Si Si4 0.724481 0.545371 0.202516
Si Si5 0.690785 0.820795 0.703198
Si Si6 0.175941 0.714975 0.058085
Si Si7 0.206176 0.923416 0.560586
O O1 0.158663 0.961310 0.152260
O O2 0.927526 0.969972 0.082907
O O3 0.132391 0.059040 0.094097
O O4 0.947699 0.031871 0.174409
O O5 0.551757 0.194285 0.839697
O O6 0.667098 0.264632 0.907209
O O7 0.863029 0.791470 0.683258
O O8 0.884659 0.709440 0.745661
O O9 0.751587 0.500000 0.250000
O O10 0.726649 0.612655 0.219046
O O11 0.151210 0.644550 0.067703
O O12 0.000000 0.750000 0.063718
O O13 0.250000 0.722024 0.000000
O O14 0.250000 0.932303 0.500000
#
# Coordination Sequence:
#
# PCOD9532247 Si02
#       7
#    16   8   8  16  16  16  16
#     4  10  23  41  62  99 126 173 231 268 341 407
#     4  11  24  42  67 100 136 180 225 290 328 411
#     4   9  22  42  61  90 122 170 219 274 332 401
#     4  11  24  39  62  92 131 175 215 281 334 397
#     4  10  23  41  64  92 128 170 226 274 339 399
#     4  11  24  44  68 102 140 182 225 277 349 409
#     4  10  22  43  68  97 135 175 221 286 341 413
#
# _framework density 20.458030000000001
#
# number of rings (size 3 to 8) (size 9 to 14) (size 15 to 20)
#    0.000    1.667    0.833    2.000    8.167    0.000 
#    6.000    0.833    0.000    0.000    0.000    0.000 
#    0.000    0.000    0.000    0.000    0.000    0.000 
#
# Total GULP energy -267491.112441 kJ/mol
# GULP energy per Si atom -5572.731509 kJ/mol
# Density = 2.041147 g / cm^3
# Si number density = 20.458030 Si / 1000 Ang^3
#
#
#
# Elastic Constant Matrix: (Units=GPa)
#
#
# Indices 1 2 3 4 5 6 
#
# 1 116.0520 53.4088 39.5725 0.0000 0.0000 0.0000
# 2 53.4088 145.8721 49.5969 0.0000 0.0000 0.0000
# 3 39.5725 49.5969 95.1404 0.0000 0.0000 0.0000
# 4 0.0000 0.0000 0.0000 -1.5184 0.0000 0.0000
# 5 0.0000 0.0000 0.0000 0.0000 15.6396 0.0000
# 6 0.0000 0.0000 0.0000 0.0000 0.0000 -68.4638
#
#
#
# Elastic Compliance Matrix: (Units=1/GPa)
#
#
# Indices 1 2 3 4 5 6 
#
# 1 0.011033 -0.003013 -0.003018 0.000000 0.000000 0.000000
# 2 -0.003013 0.009155 -0.003519 0.000000 0.000000 0.000000
# 3 -0.003018 -0.003519 0.013601 0.000000 0.000000 0.000000
# 4 0.000000 0.000000 0.000000 -0.658595 0.000000 0.000000
# 5 0.000000 0.000000 0.000000 0.000000 0.063940 0.000000
# 6 0.000000 0.000000 0.000000 0.000000 0.000000 -0.014606
#
#
# Mechanical properties :
#
#
# Convention : Reuss Voigt Hill
#
# Bulk Modulus (GPa) = 68.08604 71.35789 69.72196
# Shear Modulus (GPa) = -9.06658 3.43059 -2.81799
#
# Velocity S-wave (km/s) = -2.10747 1.29635 -1.17492
# Velocity P-wave (km/s) = 5.23748 6.09890 5.68453
#
# Compressibility (1/GPa) = 0.01468730
#
# Stress axis : x y z
#
# Youngs Moduli (GPa) = 90.63944 109.22817 73.52558
#
# Poissons Ratio (x) = 0.32914 0.22191
# Poissons Ratio (y) = 0.27312 0.25876
# Poissons Ratio (z) = 0.27356 0.38440
#
# Static dielectric constant tensor:
#      x y z
#    x 1.789710 0.000000 0.000000 
#    y 0.000000 1.677630 0.000000 
#    z 0.000000 0.000000 1.751040 
# 
# From -- ./inp_files/31217.got.cif
#   From: 2010.05.17/outbox.cif.g08.bks.cpg/sg73_16_cif.got.tgz:31217.got - 2010.06.03 17:35:07.
