data_PCOD9532578
_publ_section_title
;
Structure prediction by ZEFSAII (Michael W. Deem and Ramdas Pophale) SiO2 
 PCOD9532578
Probable space group: I B C A 
;
_chemical_formula_sum "Si O2"
_cell_formula_units_Z 72
_cell_length_a 22.489891
_cell_length_b 8.968632
_cell_length_c 17.208711
_cell_angle_alpha 90.000000
_cell_angle_beta 90.000000
_cell_angle_gamma 90.000000
_cell_volume 3471.058205
_symmetry_space_group_name_H-M "I B C A "
_symmetry_group_IT_number 73
_symmetry_cell_setting 'orthorhombic'
loop_
_space_group_symop_operation_xyz
x,y,z
-x,1/2-y,z
x,-y,1/2-z
1/2-x,y,-z
-x,-y,-z
x,1/2+y,-z
-x,y,1/2+z
1/2+x,-y,z
1/2+x,1/2+y,1/2+z
1/2-x,-y,1/2+z
1/2+x,1/2-y,-z
-x,1/2+y,1/2-z
1/2-x,1/2-y,1/2-z
1/2+x,y,1/2-z
1/2-x,1/2+y,z
x,1/2-y,1/2+z
loop_
_atom_site_type_symbol
_atom_site_label
_atom_site_fract_x
_atom_site_fract_y
_atom_site_fract_z
Si Si1 0.424341 0.641295 0.444696
Si Si2 0.956189 0.980658 0.099714
Si Si3 0.886108 0.500000 0.750000
Si Si4 0.711050 0.929509 0.423791
Si Si5 0.775448 0.659740 0.678187
O O1 0.445494 0.600402 0.531779
O O2 0.474309 0.560341 0.392291
O O3 0.427662 0.818991 0.426627
O O4 0.359590 0.567627 0.435980
O O5 0.927783 0.043723 0.178311
O O6 0.840185 0.611953 0.708216
O O7 0.750000 0.963745 0.500000
O O8 0.722459 0.761015 0.397776
O O9 0.734469 0.024954 0.350817
O O10 0.750000 0.750000 0.750000
#
# Coordination Sequence:
#
# PCOD9532578 Si02
#       5
#    16  16   8  16  16
#     4  10  23  44  67  98 130 174 228 276 328 409
#     4  10  23  44  69  94 134 175 225 279 337 392
#     4  12  22  44  66  94 136 176 216 278 338 398
#     4  12  25  42  69 100 131 178 223 276 337 405
#     4  12  25  43  64  98 137 172 215 280 341 397
#
# _framework density 20.742953
#
# number of rings (size 3 to 8) (size 9 to 14) (size 15 to 20)
#    0.000    0.889    4.444    2.000    3.111    0.000 
#    4.000    8.889    0.000    0.000    0.000    0.000 
#    0.000    0.000    0.000    0.000    0.000    0.000 
#
# Total GULP energy -200781.438932 kJ/mol
# GULP energy per Si atom -5577.262193 kJ/mol
# Density = 2.069574 g / cm^3
# Si number density = 20.742953 Si / 1000 Ang^3
#
#
#
# Elastic Constant Matrix: (Units=GPa)
#
#
# Indices 1 2 3 4 5 6 
#
# 1 148.0450 29.1890 44.9825 0.0000 0.0000 0.0000
# 2 29.1890 63.5613 31.5390 0.0000 0.0000 0.0000
# 3 44.9825 31.5390 99.0452 0.0000 0.0000 0.0000
# 4 0.0000 0.0000 0.0000 38.0790 0.0000 0.0000
# 5 0.0000 0.0000 0.0000 0.0000 76.0172 0.0000
# 6 0.0000 0.0000 0.0000 0.0000 0.0000 -14.1173
#
#
#
# Elastic Compliance Matrix: (Units=1/GPa)
#
#
# Indices 1 2 3 4 5 6 
#
# 1 0.008098 -0.002249 -0.002962 0.000000 0.000000 0.000000
# 2 -0.002249 0.019310 -0.005127 0.000000 0.000000 0.000000
# 3 -0.002962 -0.005127 0.013074 0.000000 0.000000 0.000000
# 4 0.000000 0.000000 0.000000 0.026261 0.000000 0.000000
# 5 0.000000 0.000000 0.000000 0.000000 0.013155 0.000000
# 6 0.000000 0.000000 0.000000 0.000000 0.000000 -0.070835
#
#
# Mechanical properties :
#
#
# Convention : Reuss Voigt Hill
#
# Bulk Modulus (GPa) = 50.49048 58.00805 54.24927
# Shear Modulus (GPa) = 137.58422 33.65851 85.62137
#
# Velocity S-wave (km/s) = 8.15305 4.03258 6.43171
# Velocity P-wave (km/s) = 10.63125 7.05040 9.02030
#
# Compressibility (1/GPa) = 0.01980571
#
# Stress axis : x y z
#
# Youngs Moduli (GPa) = 123.48669 51.78682 76.48703
#
# Poissons Ratio (x) = 0.11648 0.22652
# Poissons Ratio (y) = 0.27776 0.39217
# Poissons Ratio (z) = 0.36571 0.26553
#
# Static dielectric constant tensor:
#      x y z
#    x 1.799300 0.000000 0.000000 
#    y 0.000000 0.914030 0.000000 
#    z 0.000000 0.000000 1.725880 
# 
# From -- ./inp_files/5306.got.cif
#   From: 2010.05.17/outbox.cif.g08.bks.cpg/sg73_3_cif.got.tgz:5306.got - 2010.06.03 17:35:07.
