data_PCOD9532832
_publ_section_title
;
Structure prediction by ZEFSAII (Michael W. Deem and Ramdas Pophale) SiO2 
 PCOD9532832
Probable space group: I B C A 
;
_chemical_formula_sum "Si O2"
_cell_formula_units_Z 72
_cell_length_a 12.248571
_cell_length_b 26.794438
_cell_length_c 9.015697
_cell_angle_alpha 90.000000
_cell_angle_beta 90.000000
_cell_angle_gamma 90.000000
_cell_volume 2958.893841
_symmetry_space_group_name_H-M "I B C A "
_symmetry_group_IT_number 73
_symmetry_cell_setting 'orthorhombic'
loop_
_space_group_symop_operation_xyz
x,y,z
-x,1/2-y,z
x,-y,1/2-z
1/2-x,y,-z
-x,-y,-z
x,1/2+y,-z
-x,y,1/2+z
1/2+x,-y,z
1/2+x,1/2+y,1/2+z
1/2-x,-y,1/2+z
1/2+x,1/2-y,-z
-x,1/2+y,1/2-z
1/2-x,1/2-y,1/2-z
1/2+x,y,1/2-z
1/2-x,1/2+y,z
x,1/2-y,1/2+z
loop_
_atom_site_type_symbol
_atom_site_label
_atom_site_fract_x
_atom_site_fract_y
_atom_site_fract_z
Si Si1 0.595480 0.290844 0.747013
Si Si2 0.502089 0.099922 0.207798
Si Si3 0.372058 0.059277 0.952655
Si Si4 0.175468 0.961470 0.878919
Si Si5 0.750000 0.755333 0.000000
O O1 0.500000 0.250000 0.759853
O O2 0.537280 0.343695 0.730084
O O3 0.672002 0.277395 0.606499
O O4 0.672907 0.287580 0.891555
O O5 0.599820 0.067714 0.281138
O O6 0.397242 0.078179 0.294577
O O7 0.463692 0.090523 0.040702
O O8 0.250000 0.075782 0.000000
O O9 0.381048 0.002944 0.013603
O O10 0.216646 0.000000 0.750000
O O11 0.250000 0.934780 0.000000
#
# Coordination Sequence:
#
# PCOD9532832 Si02
#       5
#    16  16  16  16   8
#     4  11  26  48  76 106 140 185 243 301 364 437
#     4  11  25  42  72 105 140 185 244 294 357 422
#     4  10  24  44  68 105 146 187 234 294 353 434
#     4   9  20  43  71 103 147 192 235 293 357 432
#     4  10  26  50  78  98 144 190 234 304 376 426
#
# _framework density 24.333417000000001
#
# number of rings (size 3 to 8) (size 9 to 14) (size 15 to 20)
#    0.000    1.778    0.000    1.333    7.778    7.111 
#    2.000    5.556    0.000    0.000    0.000    0.000 
#    0.000    0.000    0.000    0.000    0.000    0.000 
#
# Total GULP energy -201295.887375 kJ/mol
# GULP energy per Si atom -5591.552427 kJ/mol
# Density = 2.427803 g / cm^3
# Si number density = 24.333417 Si / 1000 Ang^3
#
#
#
# Elastic Constant Matrix: (Units=GPa)
#
#
# Indices 1 2 3 4 5 6 
#
# 1 117.1276 35.7357 62.2728 0.0001 -0.0003 -0.0004
# 2 35.7357 140.4048 38.0398 0.0003 -0.0002 0.0001
# 3 62.2728 38.0398 154.3009 0.0009 -0.0011 -0.0001
# 4 0.0001 0.0003 0.0009 16.9040 0.0001 0.0008
# 5 -0.0003 -0.0002 -0.0011 0.0001 55.2227 0.0007
# 6 -0.0004 0.0001 -0.0001 0.0008 0.0007 -118.5342
#
#
#
# Elastic Compliance Matrix: (Units=1/GPa)
#
#
# Indices 1 2 3 4 5 6 
#
# 1 0.011258 -0.001751 -0.004112 0.000000 0.000000 0.000000
# 2 -0.001751 0.007904 -0.001242 0.000000 0.000000 0.000000
# 3 -0.004112 -0.001242 0.008446 0.000000 0.000000 0.000000
# 4 0.000000 0.000000 0.000000 0.059158 0.000000 0.000000
# 5 0.000000 0.000000 0.000000 0.000000 0.018108 0.000000
# 6 0.000000 0.000000 0.000000 0.000000 0.000000 -0.008436
#
#
# Mechanical properties :
#
#
# Convention : Reuss Voigt Hill
#
# Bulk Modulus (GPa) = 74.63268 75.99221 75.31244
# Shear Modulus (GPa) = 43.43474 9.10416 26.26945
#
# Velocity S-wave (km/s) = 4.22949 1.93637 3.28923
# Velocity P-wave (km/s) = 7.38843 6.02468 6.74113
#
# Compressibility (1/GPa) = 0.01339896
#
# Stress axis : x y z
#
# Youngs Moduli (GPa) = 88.82446 126.51041 118.39305
#
# Poissons Ratio (x) = 0.22157 0.48681
# Poissons Ratio (y) = 0.15557 0.14703
# Poissons Ratio (z) = 0.36523 0.15711
#
# Static dielectric constant tensor:
#      x y z
#    x 2.077890 0.000000 0.000000 
#    y 0.000000 1.866590 0.000000 
#    z 0.000000 0.000000 2.013730 
# 
# From -- ./inp_files/4813.got.cif
#   From: 2010.05.17/outbox.cif.g08.bks.cpg/sg73_3_cif.got.tgz:4813.got - 2010.06.03 17:35:07.
