data_PCOD9532469
_publ_section_title
;
Structure prediction by ZEFSAII (Michael W. Deem and Ramdas Pophale) SiO2 
 PCOD9532469
Probable space group: I B C A 
;
_chemical_formula_sum "Si O2"
_cell_formula_units_Z 96
_cell_length_a 22.743915
_cell_length_b 8.963163
_cell_length_c 22.448632
_cell_angle_alpha 90.000000
_cell_angle_beta 90.000000
_cell_angle_gamma 90.000000
_cell_volume 4576.320144
_symmetry_space_group_name_H-M "I B C A "
_symmetry_group_IT_number 73
_symmetry_cell_setting 'orthorhombic'
loop_
_space_group_symop_operation_xyz
x,y,z
-x,1/2-y,z
x,-y,1/2-z
1/2-x,y,-z
-x,-y,-z
x,1/2+y,-z
-x,y,1/2+z
1/2+x,-y,z
1/2+x,1/2+y,1/2+z
1/2-x,-y,1/2+z
1/2+x,1/2-y,-z
-x,1/2+y,1/2-z
1/2-x,1/2-y,1/2-z
1/2+x,y,1/2-z
1/2-x,1/2+y,z
x,1/2-y,1/2+z
loop_
_atom_site_type_symbol
_atom_site_label
_atom_site_fract_x
_atom_site_fract_y
_atom_site_fract_z
Si Si1 0.175049 0.598876 0.549049
Si Si2 0.750000 0.357175 0.000000
Si Si3 0.391679 0.302005 0.622142
Si Si4 0.082629 0.580729 0.313560
Si Si5 0.937111 0.583472 0.496555
Si Si6 0.937742 0.825375 0.741211
Si Si7 0.000000 0.750000 0.397940
O O1 0.225501 0.472833 0.549256
O O2 0.197603 0.742766 0.512585
O O3 0.158630 0.681074 0.609804
O O4 0.117536 0.523399 0.519725
O O5 0.377257 0.464479 0.650013
O O6 0.423840 0.335120 0.559285
O O7 0.428753 0.221944 0.673270
O O8 0.069572 0.500000 0.250000
O O9 0.104302 0.740696 0.289057
O O10 0.028501 0.617200 0.358489
O O11 0.000000 0.500000 0.500000
O O12 0.948006 0.693198 0.440813
O O13 0.000000 0.750000 0.756219
O O14 0.935538 0.000000 0.750000
#
# Coordination Sequence:
#
# PCOD9532469 Si02
#       7
#    16   8  16  16  16  16   8
#     4  11  24  43  70  93 137 176 231 281 341 413
#     4  10  24  48  66  94 132 182 240 284 334 422
#     4  11  24  41  62  97 134 180 225 279 345 414
#     4  10  23  41  57  85 134 191 232 268 317 413
#     4  12  25  39  61 104 149 181 206 277 358 430
#     4  11  24  40  60  89 136 194 240 274 324 418
#     4  12  24  38  58  94 144 186 222 266 336 428
#
# _framework density 20.977554000000001
#
# number of rings (size 3 to 8) (size 9 to 14) (size 15 to 20)
#    0.000    1.000    4.167    2.500    5.833    0.000 
#    0.000    0.000    0.000    0.000    0.000   15.167 
#    0.000    0.000    0.000    0.000    0.000    0.000 
#
# Total GULP energy -267252.201097 kJ/mol
# GULP energy per Si atom -5567.754190 kJ/mol
# Density = 2.092981 g / cm^3
# Si number density = 20.977554 Si / 1000 Ang^3
#
#
#
# Elastic Constant Matrix: (Units=GPa)
#
#
# Indices 1 2 3 4 5 6 
#
# 1 61.0818 42.6344 22.6349 0.0000 0.0000 0.0000
# 2 42.6344 166.4292 54.2192 0.0000 0.0000 0.0000
# 3 22.6349 54.2192 120.9038 0.0000 0.0000 0.0000
# 4 0.0000 0.0000 0.0000 31.5417 0.0000 0.0000
# 5 0.0000 0.0000 0.0000 0.0000 12.1099 0.0000
# 6 0.0000 0.0000 0.0000 0.0000 0.0000 38.4968
#
#
#
# Elastic Compliance Matrix: (Units=1/GPa)
#
#
# Indices 1 2 3 4 5 6 
#
# 1 0.020235 -0.004625 -0.001714 0.000000 0.000000 0.000000
# 2 -0.004625 0.008094 -0.002764 0.000000 0.000000 0.000000
# 3 -0.001714 -0.002764 0.009831 0.000000 0.000000 0.000000
# 4 0.000000 0.000000 0.000000 0.031704 0.000000 0.000000
# 5 0.000000 0.000000 0.000000 0.000000 0.082577 0.000000
# 6 0.000000 0.000000 0.000000 0.000000 0.000000 0.025976
#
#
# Mechanical properties :
#
#
# Convention : Reuss Voigt Hill
#
# Bulk Modulus (GPa) = 50.11523 65.26573 57.69048
# Shear Modulus (GPa) = 24.59721 31.69144 28.14433
#
# Velocity S-wave (km/s) = 3.42797 3.89103 3.66681
# Velocity P-wave (km/s) = 6.29363 7.16704 6.74449
#
# Compressibility (1/GPa) = 0.01995402
#
# Stress axis : x y z
#
# Youngs Moduli (GPa) = 49.41932 123.55172 101.71553
#
# Poissons Ratio (x) = 0.57145 0.17435
# Poissons Ratio (y) = 0.22857 0.28112
# Poissons Ratio (z) = 0.08471 0.34147
#
# Static dielectric constant tensor:
#      x y z
#    x 1.870930 0.000000 0.000000 
#    y 0.000000 1.874850 0.000000 
#    z 0.000000 0.000000 1.853370 
# 
# From -- ./inp_files/27538.got.cif
#   From: 2010.05.17/outbox.cif.g08.bks.cpg/sg73_14_cif.got.tgz:27538.got - 2010.06.03 17:35:07.
