data_PCOD9532875
_publ_section_title
;
Structure prediction by ZEFSAII (Michael W. Deem and Ramdas Pophale) SiO2 
 PCOD9532875
Probable space group: I B C A 
;
_chemical_formula_sum "Si O2"
_cell_formula_units_Z 72
_cell_length_a 26.374039
_cell_length_b 8.721595
_cell_length_c 14.750320
_cell_angle_alpha 90.000000
_cell_angle_beta 90.000000
_cell_angle_gamma 90.000000
_cell_volume 3392.922986
_symmetry_space_group_name_H-M "I B C A "
_symmetry_group_IT_number 73
_symmetry_cell_setting 'orthorhombic'
loop_
_space_group_symop_operation_xyz
x,y,z
-x,1/2-y,z
x,-y,1/2-z
1/2-x,y,-z
-x,-y,-z
x,1/2+y,-z
-x,y,1/2+z
1/2+x,-y,z
1/2+x,1/2+y,1/2+z
1/2-x,-y,1/2+z
1/2+x,1/2-y,-z
-x,1/2+y,1/2-z
1/2-x,1/2-y,1/2-z
1/2+x,y,1/2-z
1/2-x,1/2+y,z
x,1/2-y,1/2+z
loop_
_atom_site_type_symbol
_atom_site_label
_atom_site_fract_x
_atom_site_fract_y
_atom_site_fract_z
Si Si1 0.074377 0.000000 0.250000
Si Si2 0.425084 0.500000 0.750000
Si Si3 0.258462 0.381461 0.177317
Si Si4 0.853700 0.978962 0.586664
Si Si5 0.500000 0.250000 0.739841
Si Si6 0.148375 0.349008 0.104648
O O1 0.108177 0.938287 0.167922
O O2 0.038792 0.135069 0.211130
O O3 0.461583 0.376957 0.697734
O O4 0.389388 0.402882 0.816429
O O5 0.279735 0.500000 0.250000
O O6 0.250000 0.250000 0.250000
O O7 0.301898 0.382250 0.102652
O O8 0.204333 0.412091 0.131615
O O9 0.846831 0.164144 0.593306
O O10 0.870656 0.927044 0.487671
#
# Coordination Sequence:
#
# PCOD9532875 Si02
#       6
#     8   8  16  16   8  16
#     4  11  22  49  70 100 140 177 236 287 358 410
#     4  11  24  49  72 100 138 181 236 289 364 408
#     4  12  24  43  71 101 141 185 225 277 338 408
#     4  12  27  44  70 105 145 182 233 280 348 421
#     4  10  24  44  78  96 130 184 232 304 348 414
#     4  12  27  43  70 106 141 187 227 284 346 425
#
# _framework density 21.220642000000002
#
# number of rings (size 3 to 8) (size 9 to 14) (size 15 to 20)
#    0.000    0.444    6.667    0.667    6.222    1.778 
#    0.000    6.667    0.000    0.000    0.000    0.000 
#    0.000    0.000    0.000    0.000    0.000    0.000 
#
# Total GULP energy -200423.053583 kJ/mol
# GULP energy per Si atom -5567.307044 kJ/mol
# Density = 2.117234 g / cm^3
# Si number density = 21.220642 Si / 1000 Ang^3
#
#
#
# Elastic Constant Matrix: (Units=GPa)
#
#
# Indices 1 2 3 4 5 6 
#
# 1 124.0698 31.3045 33.1888 0.0000 0.0000 0.0000
# 2 31.3045 84.1977 17.6200 0.0000 0.0000 0.0000
# 3 33.1888 17.6200 108.4098 0.0000 0.0000 0.0000
# 4 0.0000 0.0000 0.0000 33.1480 0.0000 0.0000
# 5 0.0000 0.0000 0.0000 0.0000 -1.7907 0.0000
# 6 0.0000 0.0000 0.0000 0.0000 0.0000 31.3828
#
#
#
# Elastic Compliance Matrix: (Units=1/GPa)
#
#
# Indices 1 2 3 4 5 6 
#
# 1 0.009465 -0.003015 -0.002408 0.000000 0.000000 0.000000
# 2 -0.003015 0.013256 -0.001231 0.000000 0.000000 0.000000
# 3 -0.002408 -0.001231 0.010161 0.000000 0.000000 0.000000
# 4 0.000000 0.000000 0.000000 0.030168 0.000000 0.000000
# 5 0.000000 0.000000 0.000000 0.000000 -0.558447 0.000000
# 6 0.000000 0.000000 0.000000 0.000000 0.000000 0.031865
#
#
# Mechanical properties :
#
#
# Convention : Reuss Voigt Hill
#
# Bulk Modulus (GPa) = 51.08907 53.43375 52.26141
# Shear Modulus (GPa) = -11.26886 28.18562 8.45838
#
# Velocity S-wave (km/s) = -2.30692 3.64843 1.99864
# Velocity P-wave (km/s) = 4.12694 6.55612 5.47788
#
# Compressibility (1/GPa) = 0.01957366
#
# Stress axis : x y z
#
# Youngs Moduli (GPa) = 105.65517 75.44022 98.41127
#
# Poissons Ratio (x) = 0.22746 0.23693
# Poissons Ratio (y) = 0.31857 0.12118
# Poissons Ratio (z) = 0.25437 0.09289
#
# Static dielectric constant tensor:
#      x y z
#    x 1.784340 0.000000 0.000000 
#    y 0.000000 1.819740 0.000000 
#    z 0.000000 0.000000 1.655730 
# 
# From -- ./inp_files/4845.got.cif
#   From: 2010.05.17/outbox.cif.g08.bks.cpg/sg73_3_cif.got.tgz:4845.got - 2010.06.03 17:35:07.
