data_PCOD9532755
_publ_section_title
;
Structure prediction by ZEFSAII (Michael W. Deem and Ramdas Pophale) SiO2 
 PCOD9532755
Probable space group: I B C A 
;
_chemical_formula_sum "Si O2"
_cell_formula_units_Z 56
_cell_length_a 9.067398
_cell_length_b 13.292619
_cell_length_c 19.014490
_cell_angle_alpha 90.000000
_cell_angle_beta 90.000000
_cell_angle_gamma 90.000000
_cell_volume 2291.806344
_symmetry_space_group_name_H-M "I B C A "
_symmetry_group_IT_number 73
_symmetry_cell_setting 'orthorhombic'
loop_
_space_group_symop_operation_xyz
x,y,z
-x,1/2-y,z
x,-y,1/2-z
1/2-x,y,-z
-x,-y,-z
x,1/2+y,-z
-x,y,1/2+z
1/2+x,-y,z
1/2+x,1/2+y,1/2+z
1/2-x,-y,1/2+z
1/2+x,1/2-y,-z
-x,1/2+y,1/2-z
1/2-x,1/2-y,1/2-z
1/2+x,y,1/2-z
1/2-x,1/2+y,z
x,1/2-y,1/2+z
loop_
_atom_site_type_symbol
_atom_site_label
_atom_site_fract_x
_atom_site_fract_y
_atom_site_fract_z
Si Si1 0.038020 0.500000 0.250000
Si Si2 0.326944 0.721350 0.423547
Si Si3 0.800387 0.619897 0.320102
Si Si4 0.368323 0.494001 0.447867
O O1 0.922006 0.594117 0.260617
O O2 0.155920 0.449436 0.304887
O O3 0.500000 0.750000 0.427647
O O4 0.250000 0.740994 0.500000
O O5 0.743981 0.724458 0.354486
O O6 0.318525 0.600936 0.418125
O O7 0.896505 0.577111 0.384082
O O8 0.250000 0.449126 0.500000
O O9 0.500000 0.500000 0.500000
#
# Coordination Sequence:
#
# PCOD9532755 Si02
#       4
#     8  16  16  16
#     4  10  24  42  66  88 130 192 230 274 324 384
#     4  11  23  39  65  99 128 163 210 272 345 408
#     4  11  22  44  64  92 133 175 226 273 328 397
#     4  11  22  39  67  98 127 160 205 275 347 403
#
# _framework density 24.434875000000002
#
# number of rings (size 3 to 8) (size 9 to 14) (size 15 to 20)
#    0.000    1.143    0.000    7.714    0.000    2.286 
#    0.000   15.714    0.000    0.000    0.000    0.000 
#    0.000    0.000    0.000    0.000    0.000    0.000 
#
# Total GULP energy -155945.495271 kJ/mol
# GULP energy per Si atom -5569.481974 kJ/mol
# Density = 2.437926 g / cm^3
# Si number density = 24.434875 Si / 1000 Ang^3
#
#
#
# Elastic Constant Matrix: (Units=GPa)
#
#
# Indices 1 2 3 4 5 6 
#
# 1 114.8353 -33.9666 20.4014 0.0000 0.0000 0.0000
# 2 -33.9666 87.7713 1.3121 0.0000 0.0000 0.0000
# 3 20.4014 1.3121 48.7767 0.0000 0.0000 0.0000
# 4 0.0000 0.0000 0.0000 31.7177 0.0000 0.0000
# 5 0.0000 0.0000 0.0000 0.0000 41.8417 0.0000
# 6 0.0000 0.0000 0.0000 0.0000 0.0000 24.9497
#
#
#
# Elastic Compliance Matrix: (Units=1/GPa)
#
#
# Indices 1 2 3 4 5 6 
#
# 1 0.010785 0.004243 -0.004625 0.000000 0.000000 0.000000
# 2 0.004243 0.013067 -0.002126 0.000000 0.000000 0.000000
# 3 -0.004625 -0.002126 0.022493 0.000000 0.000000 0.000000
# 4 0.000000 0.000000 0.000000 0.031528 0.000000 0.000000
# 5 0.000000 0.000000 0.000000 0.000000 0.023900 0.000000
# 6 0.000000 0.000000 0.000000 0.000000 0.000000 0.040081
#
#
# Mechanical properties :
#
#
# Convention : Reuss Voigt Hill
#
# Bulk Modulus (GPa) = 24.19652 25.20856 24.70254
# Shear Modulus (GPa) = 31.12436 37.27760 34.20098
#
# Velocity S-wave (km/s) = 3.57286 3.91012 3.74529
# Velocity P-wave (km/s) = 5.19080 5.54296 5.36977
#
# Compressibility (1/GPa) = 0.04132826
#
# Stress axis : x y z
#
# Youngs Moduli (GPa) = 92.72382 76.52911 44.45781
#
# Poissons Ratio (x) = -0.32469 0.20562
# Poissons Ratio (y) = -0.39340 0.09452
# Poissons Ratio (z) = 0.42884 0.16271
#
# Static dielectric constant tensor:
#      x y z
#    x 1.866100 0.000000 0.000000 
#    y 0.000000 2.013840 0.000000 
#    z 0.000000 0.000000 1.739630 
# 
# From -- ./inp_files/24583.got.cif
#   From: 2010.05.17/outbox.cif.g08.bks.cpg/sg73_13_cif.got.tgz:24583.got - 2010.06.03 17:35:07.
