data_PCOD9532090
_publ_section_title
;
Structure prediction by ZEFSAII (Michael W. Deem and Ramdas Pophale) SiO2 
 PCOD9532090
Probable space group: I B C A 
;
_chemical_formula_sum "Si O2"
_cell_formula_units_Z 120
_cell_length_a 10.813891
_cell_length_b 27.160369
_cell_length_c 19.089364
_cell_angle_alpha 90.000000
_cell_angle_beta 90.000000
_cell_angle_gamma 90.000000
_cell_volume 5606.723163
_symmetry_space_group_name_H-M "I B C A "
_symmetry_group_IT_number 73
_symmetry_cell_setting 'orthorhombic'
loop_
_space_group_symop_operation_xyz
x,y,z
-x,1/2-y,z
x,-y,1/2-z
1/2-x,y,-z
-x,-y,-z
x,1/2+y,-z
-x,y,1/2+z
1/2+x,-y,z
1/2+x,1/2+y,1/2+z
1/2-x,-y,1/2+z
1/2+x,1/2-y,-z
-x,1/2+y,1/2-z
1/2-x,1/2-y,1/2-z
1/2+x,y,1/2-z
1/2-x,1/2+y,z
x,1/2-y,1/2+z
loop_
_atom_site_type_symbol
_atom_site_label
_atom_site_fract_x
_atom_site_fract_y
_atom_site_fract_z
Si Si1 0.256056 0.687986 0.684484
Si Si2 0.535555 0.921337 0.948366
Si Si3 0.491948 0.920717 0.787963
Si Si4 0.275723 0.930539 0.200534
Si Si5 0.986009 0.813907 0.762114
Si Si6 0.137214 0.031146 0.551774
Si Si7 0.750000 0.650996 0.500000
Si Si8 0.622786 0.231331 0.404694
O O1 0.263226 0.628444 0.683225
O O2 0.115996 0.701144 0.705089
O O3 0.367958 0.699083 0.740619
O O4 0.296874 0.721137 0.618448
O O5 0.495629 0.906459 0.870098
O O6 0.568590 0.979139 0.940232
O O7 0.438725 0.925512 0.012471
O O8 0.644985 0.885184 0.970292
O O9 0.361946 0.948067 0.779446
O O10 0.623236 0.941124 0.761083
O O11 0.480037 0.872563 0.739725
O O12 0.319745 0.953643 0.128200
O O13 0.932986 0.793755 0.834713
O O14 0.250000 0.020848 0.500000
O O15 0.696170 0.688514 0.557248
O O16 0.500000 0.250000 0.445225
#
# Coordination Sequence:
#
# PCOD9532090 Si02
#       8
#    16  16  16  16  16  16   8  16
#     4   9  19  38  62  97 126 173 216 275 335 403
#     4  11  26  44  72 101 136 185 237 287 359 428
#     4  10  22  41  66 106 132 177 231 282 356 410
#     4  10  22  41  74 100 140 181 226 298 349 426
#     4   9  19  36  65  91 129 168 220 273 333 404
#     4  11  23  48  70 101 138 186 236 284 358 439
#     4  12  28  44  68 100 142 182 226 300 340 418
#     4  10  23  44  62  93 136 182 223 270 348 408
#
# _framework density 21.402875000000002
#
# number of rings (size 3 to 8) (size 9 to 14) (size 15 to 20)
#    0.000    1.867    2.000    0.400   11.200    0.533 
#    6.000    1.333    0.000    0.000    0.000    0.000 
#    0.000    0.000    0.000    0.000    0.000    0.000 
#
# Total GULP energy -334332.538441 kJ/mol
# GULP energy per Si atom -5572.208974 kJ/mol
# Density = 2.135416 g / cm^3
# Si number density = 21.402875 Si / 1000 Ang^3
#
#
#
# Elastic Constant Matrix: (Units=GPa)
#
#
# Indices 1 2 3 4 5 6 
#
# 1 99.9385 -14.1417 23.7593 0.0001 0.0000 0.0000
# 2 -14.1417 73.8030 15.0769 0.0001 0.0000 0.0000
# 3 23.7593 15.0769 56.5518 0.0010 0.0000 0.0001
# 4 0.0001 0.0001 0.0010 977.2622 0.0001 -0.0005
# 5 0.0000 0.0000 0.0000 0.0001 31.5361 0.0000
# 6 0.0000 0.0000 0.0001 -0.0005 0.0000 25.4066
#
#
#
# Elastic Compliance Matrix: (Units=1/GPa)
#
#
# Indices 1 2 3 4 5 6 
#
# 1 0.011912 0.003495 -0.005937 0.000000 0.000000 0.000000
# 2 0.003495 0.015356 -0.005562 0.000000 0.000000 0.000000
# 3 -0.005937 -0.005562 0.021660 0.000000 0.000000 0.000000
# 4 0.000000 0.000000 0.000000 0.001023 0.000000 0.000000
# 5 0.000000 0.000000 0.000000 0.000000 0.031710 0.000000
# 6 0.000000 0.000000 0.000000 0.000000 0.000000 0.039360
#
#
# Mechanical properties :
#
#
# Convention : Reuss Voigt Hill
#
# Bulk Modulus (GPa) = 30.37621 31.07583 30.72602
# Shear Modulus (GPa) = 33.78350 220.54757 127.16554
#
# Velocity S-wave (km/s) = 3.97729 10.16216 7.71649
# Velocity P-wave (km/s) = 5.94266 12.33870 9.68398
#
# Compressibility (1/GPa) = 0.03292050
#
# Stress axis : x y z
#
# Youngs Moduli (GPa) = 83.94831 65.12262 46.16808
#
# Poissons Ratio (x) = -0.22762 0.27408
# Poissons Ratio (y) = -0.29342 0.25680
# Poissons Ratio (z) = 0.49836 0.36224
#
# Static dielectric constant tensor:
#      x y z
#    x 1.871530 0.000000 0.000000 
#    y 0.000000 1.669010 0.000000 
#    z 0.000000 0.000000 1.753600 
# 
# From -- ./inp_files/21524.got.cif
#   From: 2010.05.17/outbox.cif.g08.bks.cpg/sg73_11_cif.got.tgz:21524.got - 2010.06.03 17:35:07.
