data_PCOD9532704
_publ_section_title
;
Structure prediction by ZEFSAII (Michael W. Deem and Ramdas Pophale) SiO2 
 PCOD9532704
Probable space group: I B C A 
;
_chemical_formula_sum "Si O2"
_cell_formula_units_Z 88
_cell_length_a 28.201671
_cell_length_b 8.265501
_cell_length_c 15.540943
_cell_angle_alpha 90.000000
_cell_angle_beta 90.000000
_cell_angle_gamma 90.000000
_cell_volume 3622.608419
_symmetry_space_group_name_H-M "I B C A "
_symmetry_group_IT_number 73
_symmetry_cell_setting 'orthorhombic'
loop_
_space_group_symop_operation_xyz
x,y,z
-x,1/2-y,z
x,-y,1/2-z
1/2-x,y,-z
-x,-y,-z
x,1/2+y,-z
-x,y,1/2+z
1/2+x,-y,z
1/2+x,1/2+y,1/2+z
1/2-x,-y,1/2+z
1/2+x,1/2-y,-z
-x,1/2+y,1/2-z
1/2-x,1/2-y,1/2-z
1/2+x,y,1/2-z
1/2-x,1/2+y,z
x,1/2-y,1/2+z
loop_
_atom_site_type_symbol
_atom_site_label
_atom_site_fract_x
_atom_site_fract_y
_atom_site_fract_z
Si Si1 0.088407 0.630613 0.952120
Si Si2 0.250000 0.803848 0.500000
Si Si3 0.812359 0.057907 0.938511
Si Si4 0.101772 0.321685 0.215653
Si Si5 0.802687 0.191840 0.764591
Si Si6 0.947090 0.689455 0.120246
O O1 0.139356 0.538082 0.951160
O O2 0.086170 0.771609 0.879959
O O3 0.053463 0.491060 0.917950
O O4 0.076694 0.699808 0.045746
O O5 0.293580 0.678020 0.511064
O O6 0.231172 0.931018 0.427600
O O7 0.815001 0.193546 0.865084
O O8 0.089688 0.500000 0.250000
O O9 0.158278 0.294745 0.215989
O O10 0.080669 0.202707 0.289236
O O11 0.750000 0.250000 0.750000
O O12 0.808720 0.000000 0.750000
O O13 0.000000 0.750000 0.134946
#
# Coordination Sequence:
#
# PCOD9532704 Si02
#       6
#    16   8  16  16  16  16
#     4  12  25  50  76 106 154 192 249 318 390 457
#     4  10  24  38  64 102 140 194 248 292 370 448
#     4  11  22  42  65  99 144 193 241 305 365 445
#     4  12  27  48  72 109 151 202 249 315 386 453
#     4  12  23  43  65  99 142 193 247 302 362 449
#     4  12  27  49  79 112 142 193 253 319 395 474
#
# _framework density 24.291888
#
# number of rings (size 3 to 8) (size 9 to 14) (size 15 to 20)
#    0.000    0.364    3.636    4.909    0.000    2.182 
#    0.000    0.000    0.000    0.000    0.000    0.000 
#    0.000    0.000    0.000    0.000    0.000    0.000 
#
# Total GULP energy -245659.667887 kJ/mol
# GULP energy per Si atom -5583.174270 kJ/mol
# Density = 2.423660 g / cm^3
# Si number density = 24.291888 Si / 1000 Ang^3
#
#
#
# Elastic Constant Matrix: (Units=GPa)
#
#
# Indices 1 2 3 4 5 6 
#
# 1 106.5970 -5.1020 21.1916 0.0000 0.0000 0.0000
# 2 -5.1020 61.1256 -13.4192 0.0000 0.0000 0.0000
# 3 21.1916 -13.4192 72.0771 0.0000 0.0000 0.0000
# 4 0.0000 0.0000 0.0000 38.9912 0.0000 0.0000
# 5 0.0000 0.0000 0.0000 0.0000 20.8220 0.0000
# 6 0.0000 0.0000 0.0000 0.0000 0.0000 33.8445
#
#
#
# Elastic Compliance Matrix: (Units=1/GPa)
#
#
# Indices 1 2 3 4 5 6 
#
# 1 0.009966 0.000197 -0.002893 0.000000 0.000000 0.000000
# 2 0.000197 0.017061 0.003119 0.000000 0.000000 0.000000
# 3 -0.002893 0.003119 0.015305 0.000000 0.000000 0.000000
# 4 0.000000 0.000000 0.000000 0.025647 0.000000 0.000000
# 5 0.000000 0.000000 0.000000 0.000000 0.048026 0.000000
# 6 0.000000 0.000000 0.000000 0.000000 0.000000 0.029547
#
#
# Mechanical properties :
#
#
# Convention : Reuss Voigt Hill
#
# Bulk Modulus (GPa) = 23.16141 27.23784 25.19963
# Shear Modulus (GPa) = 31.42675 34.54016 32.98346
#
# Velocity S-wave (km/s) = 3.60073 3.77487 3.68883
# Velocity P-wave (km/s) = 5.18095 5.49879 5.34223
#
# Compressibility (1/GPa) = 0.04317526
#
# Stress axis : x y z
#
# Youngs Moduli (GPa) = 100.34357 58.61396 65.33662
#
# Poissons Ratio (x) = -0.01152 0.18905
# Poissons Ratio (y) = -0.01973 -0.20375
# Poissons Ratio (z) = 0.29034 -0.18279
#
# Static dielectric constant tensor:
#      x y z
#    x 2.519450 0.000000 0.000000 
#    y 0.000000 1.922630 0.000000 
#    z 0.000000 0.000000 -0.110720 
# 
# From -- ./inp_files/24129.got.cif
#   From: 2010.05.17/outbox.cif.g08.bks.cpg/sg73_13_cif.got.tgz:24129.got - 2010.06.03 17:35:07.
