data_PCOD9532213
_publ_section_title
;
Structure prediction by ZEFSAII (Michael W. Deem and Ramdas Pophale) SiO2 
 PCOD9532213
Probable space group: I B C A 
;
_chemical_formula_sum "Si O2"
_cell_formula_units_Z 104
_cell_length_a 9.737984
_cell_length_b 20.128932
_cell_length_c 23.911659
_cell_angle_alpha 90.000000
_cell_angle_beta 90.000000
_cell_angle_gamma 90.000000
_cell_volume 4687.049046
_symmetry_space_group_name_H-M "I B C A "
_symmetry_group_IT_number 73
_symmetry_cell_setting 'orthorhombic'
loop_
_space_group_symop_operation_xyz
x,y,z
-x,1/2-y,z
x,-y,1/2-z
1/2-x,y,-z
-x,-y,-z
x,1/2+y,-z
-x,y,1/2+z
1/2+x,-y,z
1/2+x,1/2+y,1/2+z
1/2-x,-y,1/2+z
1/2+x,1/2-y,-z
-x,1/2+y,1/2-z
1/2-x,1/2-y,1/2-z
1/2+x,y,1/2-z
1/2-x,1/2+y,z
x,1/2-y,1/2+z
loop_
_atom_site_type_symbol
_atom_site_label
_atom_site_fract_x
_atom_site_fract_y
_atom_site_fract_z
Si Si1 0.731376 0.602190 0.245721
Si Si2 0.640210 0.281372 0.889473
Si Si3 0.476074 0.327657 0.197151
Si Si4 0.838024 0.432314 0.141223
Si Si5 0.340964 0.834789 0.911707
Si Si6 0.500000 0.250000 0.998736
Si Si7 0.655505 0.049872 0.877767
O O1 0.595562 0.631329 0.273585
O O2 0.811168 0.559204 0.292342
O O3 0.691919 0.570212 0.186407
O O4 0.836925 0.660126 0.230826
O O5 0.500000 0.250000 0.863457
O O6 0.677003 0.353551 0.868270
O O7 0.758588 0.227374 0.884875
O O8 0.603425 0.285416 0.955505
O O9 0.500000 0.250000 0.194836
O O10 0.452056 0.355421 0.134613
O O11 0.727457 0.479485 0.111622
O O12 0.991100 0.450471 0.120859
O O13 0.418337 0.803824 0.964639
O O14 0.228776 0.893486 0.916010
#
# Coordination Sequence:
#
# PCOD9532213 Si02
#       7
#    16  16  16  16  16   8  16
#     4  11  24  40  61  92 140 186 234 272 345 413
#     4  10  23  43  73  99 132 181 228 293 362 420
#     4  11  22  38  62 100 138 181 228 285 339 414
#     4  12  25  44  67  97 140 184 239 283 352 418
#     4  11  22  44  68 103 139 177 232 294 358 425
#     4  10  22  42  78 100 136 172 244 292 378 430
#     4  11  26  42  65  97 141 187 229 290 347 425
#
# _framework density 22.188801000000002
#
# number of rings (size 3 to 8) (size 9 to 14) (size 15 to 20)
#    0.462    0.615    3.846    2.308    4.308    3.077 
#    0.000    0.769    0.000    1.846    0.000    0.000 
#    0.000    0.000    0.000    0.000    0.000    0.000 
#
# Total GULP energy -290643.403234 kJ/mol
# GULP energy per Si atom -5589.296216 kJ/mol
# Density = 2.213830 g / cm^3
# Si number density = 22.188801 Si / 1000 Ang^3
#
#
#
# Elastic Constant Matrix: (Units=GPa)
#
#
# Indices 1 2 3 4 5 6 
#
# 1 88.3127 25.6995 11.5616 0.0000 0.0000 0.0000
# 2 25.6995 93.1018 -5.0764 0.0000 0.0000 0.0000
# 3 11.5616 -5.0764 59.8291 0.0000 0.0000 0.0000
# 4 0.0000 0.0000 0.0000 9.4193 0.0000 0.0000
# 5 0.0000 0.0000 0.0000 0.0000 48.7154 0.0000
# 6 0.0000 0.0000 0.0000 0.0000 0.0000 28.9867
#
#
#
# Elastic Compliance Matrix: (Units=1/GPa)
#
#
# Indices 1 2 3 4 5 6 
#
# 1 0.012756 -0.003672 -0.002777 0.000000 0.000000 0.000000
# 2 -0.003672 0.011848 0.001715 0.000000 0.000000 0.000000
# 3 -0.002777 0.001715 0.017396 0.000000 0.000000 0.000000
# 4 0.000000 0.000000 0.000000 0.106165 0.000000 0.000000
# 5 0.000000 0.000000 0.000000 0.000000 0.020527 0.000000
# 6 0.000000 0.000000 0.000000 0.000000 0.000000 0.034499
#
#
# Mechanical properties :
#
#
# Convention : Reuss Voigt Hill
#
# Bulk Modulus (GPa) = 30.73885 33.95702 32.34793
# Shear Modulus (GPa) = 22.37109 31.36153 26.86631
#
# Velocity S-wave (km/s) = 3.17869 3.76359 3.48344
# Velocity P-wave (km/s) = 5.23024 5.85005 5.54881
#
# Compressibility (1/GPa) = 0.03253212
#
# Stress axis : x y z
#
# Youngs Moduli (GPa) = 78.39699 84.40127 57.48332
#
# Poissons Ratio (x) = 0.30996 0.15961
# Poissons Ratio (y) = 0.28791 -0.09858
# Poissons Ratio (z) = 0.21767 -0.14474
#
# Static dielectric constant tensor:
#      x y z
#    x 1.838090 0.000000 0.000000 
#    y 0.000000 1.821740 0.000000 
#    z 0.000000 0.000000 1.841740 
# 
# From -- ./inp_files/31258.got.cif
#   From: 2010.05.17/outbox.cif.g08.bks.cpg/sg73_16_cif.got.tgz:31258.got - 2010.06.03 17:35:07.
