data_PCOD9532501
_publ_section_title
;
Structure prediction by ZEFSAII (Michael W. Deem and Ramdas Pophale) SiO2 
 PCOD9532501
Probable space group: I B C A 
;
_chemical_formula_sum "Si O2"
_cell_formula_units_Z 40
_cell_length_a 13.280974
_cell_length_b 4.850316
_cell_length_c 24.327544
_cell_angle_alpha 90.000000
_cell_angle_beta 90.000000
_cell_angle_gamma 90.000000
_cell_volume 1567.105472
_symmetry_space_group_name_H-M "I B C A "
_symmetry_group_IT_number 73
_symmetry_cell_setting 'orthorhombic'
loop_
_space_group_symop_operation_xyz
x,y,z
-x,1/2-y,z
x,-y,1/2-z
1/2-x,y,-z
-x,-y,-z
x,1/2+y,-z
-x,y,1/2+z
1/2+x,-y,z
1/2+x,1/2+y,1/2+z
1/2-x,-y,1/2+z
1/2+x,1/2-y,-z
-x,1/2+y,1/2-z
1/2-x,1/2-y,1/2-z
1/2+x,y,1/2-z
1/2-x,1/2+y,z
x,1/2-y,1/2+z
loop_
_atom_site_type_symbol
_atom_site_label
_atom_site_fract_x
_atom_site_fract_y
_atom_site_fract_z
Si Si1 0.000000 0.250000 0.212610
Si Si2 0.314638 0.448488 0.154300
Si Si3 0.379603 0.765970 0.964502
O O1 0.041667 0.500000 0.250000
O O2 0.914198 0.408004 0.178002
O O3 0.222036 0.645608 0.170680
O O4 0.332872 0.400737 0.089400
O O5 0.500000 0.750000 0.955126
O O6 0.355695 0.456590 0.982932
#
# Coordination Sequence:
#
# PCOD9532501 Si02
#       3
#     8  16  16
#     4  12  30  52  78 104 146 196 252 330 390 440
#     4  12  28  46  77 112 148 195 251 306 375 456
#     4  10  23  41  71 107 150 197 238 288 357 439
#
# _framework density 25.524764000000001
#
# number of rings (size 3 to 8) (size 9 to 14) (size 15 to 20)
#    0.000    0.800    0.000    4.800   16.800    9.600 
#    0.000    0.000    0.000    0.000    0.000    0.000 
#    0.000    0.000    0.000    0.000    0.000    0.000 
#
# Total GULP energy -111905.240498 kJ/mol
# GULP energy per Si atom -5595.262025 kJ/mol
# Density = 2.546667 g / cm^3
# Si number density = 25.524764 Si / 1000 Ang^3
#
#
#
# Elastic Constant Matrix: (Units=GPa)
#
#
# Indices 1 2 3 4 5 6 
#
# 1 141.0412 21.9073 54.7247 0.0000 0.0000 0.0000
# 2 21.9073 172.1105 47.2899 0.0000 0.0000 0.0000
# 3 54.7247 47.2899 96.6140 0.0000 0.0000 0.0000
# 4 0.0000 0.0000 0.0000 45.8609 0.0000 0.0000
# 5 0.0000 0.0000 0.0000 0.0000 41.1466 0.0000
# 6 0.0000 0.0000 0.0000 0.0000 0.0000 36.8939
#
#
#
# Elastic Compliance Matrix: (Units=1/GPa)
#
#
# Indices 1 2 3 4 5 6 
#
# 1 0.009101 0.000298 -0.005301 0.000000 0.000000 0.000000
# 2 0.000298 0.006723 -0.003459 0.000000 0.000000 0.000000
# 3 -0.005301 -0.003459 0.015046 0.000000 0.000000 0.000000
# 4 0.000000 0.000000 0.000000 0.021805 0.000000 0.000000
# 5 0.000000 0.000000 0.000000 0.000000 0.024303 0.000000
# 6 0.000000 0.000000 0.000000 0.000000 0.000000 0.027105
#
#
# Mechanical properties :
#
#
# Convention : Reuss Voigt Hill
#
# Bulk Modulus (GPa) = 71.70814 73.06772 72.38793
# Shear Modulus (GPa) = 39.79140 43.83654 41.81397
#
# Velocity S-wave (km/s) = 3.95262 4.14866 4.05183
# Velocity P-wave (km/s) = 6.99896 7.18588 7.09304
#
# Compressibility (1/GPa) = 0.01394542
#
# Stress axis : x y z
#
# Youngs Moduli (GPa) = 109.88391 148.74705 66.46189
#
# Poissons Ratio (x) = -0.04434 0.35229
# Poissons Ratio (y) = -0.03275 0.22992
# Poissons Ratio (z) = 0.58246 0.51459
#
# Static dielectric constant tensor:
#      x y z
#    x 2.075500 0.000000 0.000000 
#    y 0.000000 1.907190 0.000000 
#    z 0.000000 0.000000 1.990580 
# 
# From -- ./inp_files/15081.got.cif
#   From: 2010.05.17/outbox.cif.g08.bks.cpg/sg73_8_cif.got.tgz:15081.got - 2010.06.03 17:35:07.
