data_PCOD9532951
_publ_section_title
;
Structure prediction by ZEFSAII (Michael W. Deem and Ramdas Pophale) SiO2 
 PCOD9532951
Probable space group: I B C A 
;
_chemical_formula_sum "Si O2"
_cell_formula_units_Z 112
_cell_length_a 13.455878
_cell_length_b 28.239811
_cell_length_c 12.922348
_cell_angle_alpha 90.000000
_cell_angle_beta 90.000000
_cell_angle_gamma 90.000000
_cell_volume 4910.381774
_symmetry_space_group_name_H-M "I B C A "
_symmetry_group_IT_number 73
_symmetry_cell_setting 'orthorhombic'
loop_
_space_group_symop_operation_xyz
x,y,z
-x,1/2-y,z
x,-y,1/2-z
1/2-x,y,-z
-x,-y,-z
x,1/2+y,-z
-x,y,1/2+z
1/2+x,-y,z
1/2+x,1/2+y,1/2+z
1/2-x,-y,1/2+z
1/2+x,1/2-y,-z
-x,1/2+y,1/2-z
1/2-x,1/2-y,1/2-z
1/2+x,y,1/2-z
1/2-x,1/2+y,z
x,1/2-y,1/2+z
loop_
_atom_site_type_symbol
_atom_site_label
_atom_site_fract_x
_atom_site_fract_y
_atom_site_fract_z
Si Si1 0.629055 0.153108 0.793297
Si Si2 0.882222 0.547809 0.721017
Si Si3 0.961344 0.302522 0.896042
Si Si4 0.205554 0.959358 0.113207
Si Si5 0.943005 0.857840 0.912488
Si Si6 0.641564 0.135730 0.186773
Si Si7 0.587232 0.037505 0.484755
O O1 0.590620 0.102133 0.746654
O O2 0.609120 0.191349 0.704092
O O3 0.551918 0.161886 0.884678
O O4 0.742459 0.148726 0.828922
O O5 0.945103 0.500000 0.750000
O O6 0.790550 0.541776 0.800726
O O7 0.865515 0.545603 0.598139
O O8 0.060315 0.333101 0.871018
O O9 0.000000 0.250000 0.913660
O O10 0.906163 0.326120 0.993158
O O11 0.129957 0.918569 0.148793
O O12 0.158049 0.010631 0.095742
O O13 0.250000 0.946446 0.000000
O O14 0.877936 0.857634 0.808878
O O15 0.949700 0.912338 0.945912
O O16 0.500000 0.000000 0.500000
#
# Coordination Sequence:
#
# PCOD9532951 Si02
#       7
#    16  16  16  16  16  16  16
#     4  10  24  47  71 100 145 180 245 288 360 435
#     4  11  22  41  64 101 140 188 236 288 333 427
#     4  11  25  48  75 107 138 179 239 302 373 434
#     4  11  25  41  68 100 139 194 240 286 346 430
#     4  11  25  44  69 102 142 187 230 307 350 425
#     4  10  26  45  73 101 141 188 230 291 368 424
#     4  12  25  40  66  96 145 188 237 283 359 408
#
# _framework density 22.808817999999999
#
# number of rings (size 3 to 8) (size 9 to 14) (size 15 to 20)
#    0.000    1.143    2.857    1.714   12.000    3.429 
#    0.000    1.429    0.000    0.000    0.000    0.000 
#    0.000    0.000    0.000    0.000    0.000    0.000 
#
# Total GULP energy -313135.338187 kJ/mol
# GULP energy per Si atom -5591.702468 kJ/mol
# Density = 2.275690 g / cm^3
# Si number density = 22.808818 Si / 1000 Ang^3
#
#
#
# Elastic Constant Matrix: (Units=GPa)
#
#
# Indices 1 2 3 4 5 6 
#
# 1 47.7303 -28.1647 11.9671 0.0000 0.0000 0.0000
# 2 -28.1647 83.2288 19.4592 0.0000 0.0000 0.0000
# 3 11.9671 19.4592 123.8248 0.0001 0.0001 0.0001
# 4 0.0000 0.0000 0.0001 19.9803 0.0000 0.0000
# 5 0.0000 0.0000 0.0001 0.0000 21.7510 0.0000
# 6 0.0000 0.0000 0.0001 0.0000 0.0000 23.3380
#
#
#
# Elastic Compliance Matrix: (Units=1/GPa)
#
#
# Indices 1 2 3 4 5 6 
#
# 1 0.028318 0.010612 -0.004405 0.000000 0.000000 0.000000
# 2 0.010612 0.016451 -0.003611 0.000000 0.000000 0.000000
# 3 -0.004405 -0.003611 0.009069 0.000000 0.000000 0.000000
# 4 0.000000 0.000000 0.000000 0.050049 0.000000 0.000000
# 5 0.000000 0.000000 0.000000 0.000000 0.045975 0.000000
# 6 0.000000 0.000000 0.000000 0.000000 0.000000 0.042849
#
#
# Mechanical properties :
#
#
# Convention : Reuss Voigt Hill
#
# Bulk Modulus (GPa) = 16.94015 29.03411 22.98713
# Shear Modulus (GPa) = 24.13210 29.78202 26.95706
#
# Velocity S-wave (km/s) = 3.25624 3.61740 3.44156
# Velocity P-wave (km/s) = 4.64550 5.49585 5.08847
#
# Compressibility (1/GPa) = 0.05903136
#
# Stress axis : x y z
#
# Youngs Moduli (GPa) = 35.31380 60.78818 110.26510
#
# Poissons Ratio (x) = -0.64511 0.48566
# Poissons Ratio (y) = -0.37477 0.39815
# Poissons Ratio (z) = 0.15554 0.21950
#
# Static dielectric constant tensor:
#      x y z
#    x 2.013300 0.000000 0.000000 
#    y 0.000000 1.881010 0.000000 
#    z 0.000000 0.000000 1.850470 
# 
# From -- ./inp_files/11250.got.cif
#   From: 2010.05.17/outbox.cif.g08.bks.cpg/sg73_6_cif.got.tgz:11250.got - 2010.06.03 17:35:07.
