data_PCOD9532552
_publ_section_title
;
Structure prediction by ZEFSAII (Michael W. Deem and Ramdas Pophale) SiO2 
 PCOD9532552
Probable space group: I B C A 
;
_chemical_formula_sum "Si O2"
_cell_formula_units_Z 112
_cell_length_a 10.970505
_cell_length_b 17.275302
_cell_length_c 29.139153
_cell_angle_alpha 90.000000
_cell_angle_beta 90.000000
_cell_angle_gamma 90.000000
_cell_volume 5522.416930
_symmetry_space_group_name_H-M "I B C A "
_symmetry_group_IT_number 73
_symmetry_cell_setting 'orthorhombic'
loop_
_space_group_symop_operation_xyz
x,y,z
-x,1/2-y,z
x,-y,1/2-z
1/2-x,y,-z
-x,-y,-z
x,1/2+y,-z
-x,y,1/2+z
1/2+x,-y,z
1/2+x,1/2+y,1/2+z
1/2-x,-y,1/2+z
1/2+x,1/2-y,-z
-x,1/2+y,1/2-z
1/2-x,1/2-y,1/2-z
1/2+x,y,1/2-z
1/2-x,1/2+y,z
x,1/2-y,1/2+z
loop_
_atom_site_type_symbol
_atom_site_label
_atom_site_fract_x
_atom_site_fract_y
_atom_site_fract_z
Si Si1 0.879948 0.197881 0.300984
Si Si2 0.162995 0.592124 0.387717
Si Si3 0.846589 0.555701 0.038705
Si Si4 0.371815 0.204817 0.305007
Si Si5 0.088043 0.386153 0.569652
Si Si6 0.556604 0.332938 0.024324
Si Si7 0.673075 0.594001 0.384152
O O1 0.749531 0.241459 0.306543
O O2 0.886169 0.175368 0.247386
O O3 0.881470 0.130150 0.338379
O O4 0.000000 0.250000 0.309676
O O5 0.282256 0.601188 0.419535
O O6 0.159440 0.634876 0.339328
O O7 0.154108 0.498522 0.384446
O O8 0.047352 0.628782 0.413526
O O9 0.903444 0.476354 0.055912
O O10 0.944963 0.609251 0.015632
O O11 0.750000 0.533611 0.000000
O O12 0.500000 0.250000 0.316032
O O13 0.123669 0.335737 0.524981
O O14 0.185101 0.381851 0.610785
O O15 0.500000 0.250000 0.034265
O O16 0.619153 0.369195 0.069098
#
# Coordination Sequence:
#
# PCOD9532552 Si02
#       7
#    16  16  16  16  16  16  16
#     4  10  23  43  67  93 130 168 206 266 327 380
#     4  11  23  39  66  91 121 166 212 254 317 378
#     4  11  22  40  62  85 124 170 205 255 311 370
#     4  10  23  44  67  94 127 169 211 260 327 385
#     4  11  22  42  61  85 125 168 204 256 308 368
#     4  12  25  39  60  90 126 164 212 255 309 376
#     4  11  24  39  64  93 125 160 211 262 314 374
#
# _framework density 20.280974000000001
#
# number of rings (size 3 to 8) (size 9 to 14) (size 15 to 20)
#    0.000    1.143    2.857    3.857    4.000    3.429 
#    0.000    0.000    0.000    6.857    0.000    0.000 
#    0.000    0.000    0.000    0.000    0.000    0.000 
#
# Total GULP energy -312629.766668 kJ/mol
# GULP energy per Si atom -5582.674405 kJ/mol
# Density = 2.023481 g / cm^3
# Si number density = 20.280974 Si / 1000 Ang^3
#
#
#
# Elastic Constant Matrix: (Units=GPa)
#
#
# Indices 1 2 3 4 5 6 
#
# 1 72.3477 6.2623 21.5570 0.0000 0.0000 0.0000
# 2 6.2623 26.0532 39.0527 0.0000 0.0000 0.0000
# 3 21.5570 39.0527 118.8568 0.0000 0.0000 0.0000
# 4 0.0000 0.0000 0.0000 44.0849 0.0000 0.0000
# 5 0.0000 0.0000 0.0000 0.0000 24.0443 0.0000
# 6 0.0000 0.0000 0.0000 0.0000 0.0000 19.7511
#
#
#
# Elastic Compliance Matrix: (Units=1/GPa)
#
#
# Indices 1 2 3 4 5 6 
#
# 1 0.014623 0.000908 -0.002950 0.000000 0.000000 0.000000
# 2 0.000908 0.075690 -0.025034 0.000000 0.000000 0.000000
# 3 -0.002950 -0.025034 0.017174 0.000000 0.000000 0.000000
# 4 0.000000 0.000000 0.000000 0.022684 0.000000 0.000000
# 5 0.000000 0.000000 0.000000 0.000000 0.041590 0.000000
# 6 0.000000 0.000000 0.000000 0.000000 0.000000 0.050630
#
#
# Mechanical properties :
#
#
# Convention : Reuss Voigt Hill
#
# Bulk Modulus (GPa) = 18.75008 39.00019 28.87514
# Shear Modulus (GPa) = 16.98826 27.60176 22.29501
#
# Velocity S-wave (km/s) = 2.89735 3.69313 3.31918
# Velocity P-wave (km/s) = 4.52306 6.12024 5.38124
#
# Compressibility (1/GPa) = 0.05333311
#
# Stress axis : x y z
#
# Youngs Moduli (GPa) = 68.38697 13.21182 58.22765
#
# Poissons Ratio (x) = -0.01199 0.17179
# Poissons Ratio (y) = -0.06207 1.45767
# Poissons Ratio (z) = 0.20176 0.33074
#
# Static dielectric constant tensor:
#      x y z
#    x 1.769950 0.000000 0.000000 
#    y 0.000000 1.684090 0.000000 
#    z 0.000000 0.000000 1.720380 
# 
# From -- ./inp_files/34005.got.cif
#   From: 2010.05.17/outbox.cif.g08.bks.cpg/sg73_18_cif.got.tgz:34005.got - 2010.06.03 17:35:07.
