data_PCOD9532456
_publ_section_title
;
Structure prediction by ZEFSAII (Michael W. Deem and Ramdas Pophale) SiO2 
 PCOD9532456
Probable space group: I B C A 
;
_chemical_formula_sum "Si O2"
_cell_formula_units_Z 80
_cell_length_a 15.375112
_cell_length_b 10.147701
_cell_length_c 25.551954
_cell_angle_alpha 90.000000
_cell_angle_beta 90.000000
_cell_angle_gamma 90.000000
_cell_volume 3986.667974
_symmetry_space_group_name_H-M "I B C A "
_symmetry_group_IT_number 73
_symmetry_cell_setting 'orthorhombic'
loop_
_space_group_symop_operation_xyz
x,y,z
-x,1/2-y,z
x,-y,1/2-z
1/2-x,y,-z
-x,-y,-z
x,1/2+y,-z
-x,y,1/2+z
1/2+x,-y,z
1/2+x,1/2+y,1/2+z
1/2-x,-y,1/2+z
1/2+x,1/2-y,-z
-x,1/2+y,1/2-z
1/2-x,1/2-y,1/2-z
1/2+x,y,1/2-z
1/2-x,1/2+y,z
x,1/2-y,1/2+z
loop_
_atom_site_type_symbol
_atom_site_label
_atom_site_fract_x
_atom_site_fract_y
_atom_site_fract_z
Si Si1 0.500000 0.250000 0.700827
Si Si2 0.319575 0.994257 0.140820
Si Si3 0.580468 0.041413 0.962723
Si Si4 0.663284 0.209454 0.126284
Si Si5 0.088804 0.000000 0.750000
Si Si6 0.152415 0.222551 0.988714
O O1 0.418343 0.201868 0.665437
O O2 0.467606 0.373016 0.734680
O O3 0.400131 0.979421 0.099286
O O4 0.237336 0.901514 0.128840
O O5 0.293169 0.147749 0.136692
O O6 0.353434 0.968488 0.199101
O O7 0.648161 0.934571 0.986638
O O8 0.595906 0.195785 0.970826
O O9 0.500000 0.000000 0.000000
O O10 0.626023 0.220523 0.067728
O O11 0.250000 0.263110 0.000000
#
# Coordination Sequence:
#
# PCOD9532456 Si02
#       6
#     8  16  16  16   8  16
#     4  10  24  44  66  92 126 166 214 272 318 386
#     4  10  23  43  63  93 128 167 217 264 319 393
#     4  11  24  39  62  95 128 167 210 264 315 377
#     4  10  23  40  65  92 126 168 209 263 322 379
#     4  10  24  44  64  94 128 166 218 268 326 378
#     4  11  22  39  60  91 127 166 208 252 317 384
#
# _framework density 20.066882
#
# number of rings (size 3 to 8) (size 9 to 14) (size 15 to 20)
#    0.000    1.600    2.000    1.200   11.200    5.600 
#    3.600    0.000    0.000    0.000    0.000    0.000 
#    0.000    0.000    0.000    0.000    0.000    0.000 
#
# Total GULP energy -222775.644284 kJ/mol
# GULP energy per Si atom -5569.391107 kJ/mol
# Density = 2.002121 g / cm^3
# Si number density = 20.066882 Si / 1000 Ang^3
#
#
#
# Elastic Constant Matrix: (Units=GPa)
#
#
# Indices 1 2 3 4 5 6 
#
# 1 70.5781 13.0890 17.7111 0.0000 0.0000 0.0000
# 2 13.0890 62.9071 11.4364 0.0000 0.0000 0.0000
# 3 17.7111 11.4364 79.2307 0.0000 0.0000 0.0000
# 4 0.0000 0.0000 0.0000 27.8204 0.0000 0.0000
# 5 0.0000 0.0000 0.0000 0.0000 15.2849 0.0000
# 6 0.0000 0.0000 0.0000 0.0000 0.0000 36.9209
#
#
#
# Elastic Compliance Matrix: (Units=1/GPa)
#
#
# Indices 1 2 3 4 5 6 
#
# 1 0.015430 -0.002653 -0.003066 0.000000 0.000000 0.000000
# 2 -0.002653 0.016781 -0.001829 0.000000 0.000000 0.000000
# 3 -0.003066 -0.001829 0.013571 0.000000 0.000000 0.000000
# 4 0.000000 0.000000 0.000000 0.035945 0.000000 0.000000
# 5 0.000000 0.000000 0.000000 0.000000 0.065424 0.000000
# 6 0.000000 0.000000 0.000000 0.000000 0.000000 0.027085
#
#
# Mechanical properties :
#
#
# Convention : Reuss Voigt Hill
#
# Bulk Modulus (GPa) = 32.58925 33.02099 32.80512
# Shear Modulus (GPa) = 25.05498 27.37055 26.21277
#
# Velocity S-wave (km/s) = 3.53735 3.69720 3.61816
# Velocity P-wave (km/s) = 5.74102 5.89210 5.81705
#
# Compressibility (1/GPa) = 0.03068497
#
# Stress axis : x y z
#
# Youngs Moduli (GPa) = 64.80798 59.59118 73.68747
#
# Poissons Ratio (x) = 0.15810 0.22595
# Poissons Ratio (y) = 0.17194 0.13479
# Poissons Ratio (z) = 0.19872 0.10900
#
# Static dielectric constant tensor:
#      x y z
#    x 1.717950 0.000000 0.000000 
#    y 0.000000 1.724430 0.000000 
#    z 0.000000 0.000000 1.744500 
# 
# From -- ./inp_files/16068.got.cif
#   From: 2010.05.17/outbox.cif.g08.bks.cpg/sg73_9_cif.got.tgz:16068.got - 2010.06.03 17:35:07.
