data_PCOD9532117
_publ_section_title
;
Structure prediction by ZEFSAII (Michael W. Deem and Ramdas Pophale) SiO2 
 PCOD9532117
Probable space group: I B C A 
;
_chemical_formula_sum "Si O2"
_cell_formula_units_Z 104
_cell_length_a 19.049773
_cell_length_b 14.436896
_cell_length_c 17.423772
_cell_angle_alpha 90.000000
_cell_angle_beta 90.000000
_cell_angle_gamma 90.000000
_cell_volume 4791.878660
_symmetry_space_group_name_H-M "I B C A "
_symmetry_group_IT_number 73
_symmetry_cell_setting 'orthorhombic'
loop_
_space_group_symop_operation_xyz
x,y,z
-x,1/2-y,z
x,-y,1/2-z
1/2-x,y,-z
-x,-y,-z
x,1/2+y,-z
-x,y,1/2+z
1/2+x,-y,z
1/2+x,1/2+y,1/2+z
1/2-x,-y,1/2+z
1/2+x,1/2-y,-z
-x,1/2+y,1/2-z
1/2-x,1/2-y,1/2-z
1/2+x,y,1/2-z
1/2-x,1/2+y,z
x,1/2-y,1/2+z
loop_
_atom_site_type_symbol
_atom_site_label
_atom_site_fract_x
_atom_site_fract_y
_atom_site_fract_z
Si Si1 0.166402 0.715999 0.066603
Si Si2 0.963937 0.931321 0.593844
Si Si3 0.500000 0.750000 0.181349
Si Si4 0.250000 0.942417 0.500000
Si Si5 0.049377 0.860852 0.460974
Si Si6 0.413464 0.632111 0.801744
Si Si7 0.808888 0.914842 0.614991
Si Si8 0.288284 0.000000 0.250000
O O1 0.113460 0.705549 0.136752
O O2 0.206024 0.812664 0.079497
O O3 0.217683 0.627808 0.062091
O O4 0.117086 0.692570 0.993740
O O5 0.891135 0.909578 0.635923
O O6 0.987367 0.859696 0.526004
O O7 0.028908 0.930743 0.653418
O O8 0.948313 0.029507 0.554077
O O9 0.463174 0.681452 0.121881
O O10 0.550360 0.687555 0.233397
O O11 0.199927 0.011443 0.453829
O O12 0.344016 0.576234 0.779330
O O13 0.760126 0.951399 0.684469
#
# Coordination Sequence:
#
# PCOD9532117 Si02
#       8
#    16  16   8   8  16  16  16   8
#     4  11  24  47  72 103 142 195 252 308 366 453
#     4  10  22  46  73 102 143 194 249 316 375 447
#     4  12  24  38  70 112 140 192 244 308 384 448
#     4  12  24  48  68 104 144 196 252 304 362 458
#     4  10  22  41  73 105 140 184 255 316 363 445
#     4  11  25  46  71 106 155 193 247 317 388 461
#     4  12  26  44  77 105 146 200 245 309 385 451
#     4  12  28  48  68 106 158 202 240 314 404 458
#
# _framework density 21.703386999999999
#
# number of rings (size 3 to 8) (size 9 to 14) (size 15 to 20)
#    0.000    0.923    3.077    3.231    0.000    9.846 
#    0.000    0.000    0.000    0.000    0.000    0.000 
#    0.000    0.000    0.000    0.000    0.000    0.000 
#
# Total GULP energy -289918.814980 kJ/mol
# GULP energy per Si atom -5575.361827 kJ/mol
# Density = 2.165399 g / cm^3
# Si number density = 21.703387 Si / 1000 Ang^3
#
#
#
# Elastic Constant Matrix: (Units=GPa)
#
#
# Indices 1 2 3 4 5 6 
#
# 1 135.4801 57.2471 63.9520 0.0000 0.0000 0.0000
# 2 57.2471 154.7014 56.0153 0.0000 0.0000 0.0000
# 3 63.9520 56.0153 129.8410 0.0000 0.0000 0.0000
# 4 0.0000 0.0000 0.0000 34.9366 0.0000 0.0000
# 5 0.0000 0.0000 0.0000 0.0000 36.4562 0.0000
# 6 0.0000 0.0000 0.0000 0.0000 0.0000 27.9600
#
#
#
# Elastic Compliance Matrix: (Units=1/GPa)
#
#
# Indices 1 2 3 4 5 6 
#
# 1 0.010284 -0.002336 -0.004057 0.000000 0.000000 0.000000
# 2 -0.002336 0.008192 -0.002383 0.000000 0.000000 0.000000
# 3 -0.004057 -0.002383 0.010728 0.000000 0.000000 0.000000
# 4 0.000000 0.000000 0.000000 0.028623 0.000000 0.000000
# 5 0.000000 0.000000 0.000000 0.000000 0.027430 0.000000
# 6 0.000000 0.000000 0.000000 0.000000 0.000000 0.035765
#
#
# Mechanical properties :
#
#
# Convention : Reuss Voigt Hill
#
# Bulk Modulus (GPa) = 85.83780 86.05014 85.94397
# Shear Modulus (GPa) = 35.09790 36.05778 35.57784
#
# Velocity S-wave (km/s) = 4.02576 4.08044 4.05319
# Velocity P-wave (km/s) = 7.82593 7.86983 7.84791
#
# Compressibility (1/GPa) = 0.01164988
#
# Stress axis : x y z
#
# Youngs Moduli (GPa) = 97.24316 122.07682 93.21266
#
# Poissons Ratio (x) = 0.28522 0.37817
# Poissons Ratio (y) = 0.22720 0.22214
# Poissons Ratio (z) = 0.39452 0.29093
#
# Static dielectric constant tensor:
#      x y z
#    x 1.838950 0.000000 0.000000 
#    y 0.000000 1.885580 0.000000 
#    z 0.000000 0.000000 1.767940 
# 
# From -- ./inp_files/23232.got.cif
#   From: 2010.05.17/outbox.cif.g08.bks.cpg/sg73_12_cif.got.tgz:23232.got - 2010.06.03 17:35:07.
