data_PCOD9532044
_publ_section_title
;
Structure prediction by ZEFSAII (Michael W. Deem and Ramdas Pophale) SiO2 
 PCOD9532044
Probable space group: I B C A 
;
_chemical_formula_sum "Si O2"
_cell_formula_units_Z 72
_cell_length_a 5.484076
_cell_length_b 23.135878
_cell_length_c 22.996543
_cell_angle_alpha 90.000000
_cell_angle_beta 90.000000
_cell_angle_gamma 90.000000
_cell_volume 2917.776385
_symmetry_space_group_name_H-M "I B C A "
_symmetry_group_IT_number 73
_symmetry_cell_setting 'orthorhombic'
loop_
_space_group_symop_operation_xyz
x,y,z
-x,1/2-y,z
x,-y,1/2-z
1/2-x,y,-z
-x,-y,-z
x,1/2+y,-z
-x,y,1/2+z
1/2+x,-y,z
1/2+x,1/2+y,1/2+z
1/2-x,-y,1/2+z
1/2+x,1/2-y,-z
-x,1/2+y,1/2-z
1/2-x,1/2-y,1/2-z
1/2+x,y,1/2-z
1/2-x,1/2+y,z
x,1/2-y,1/2+z
loop_
_atom_site_type_symbol
_atom_site_label
_atom_site_fract_x
_atom_site_fract_y
_atom_site_fract_z
Si Si1 0.432819 0.314829 0.916533
Si Si2 0.354536 0.035236 0.319540
Si Si3 0.342078 0.082798 0.563550
Si Si4 0.750000 0.896403 0.000000
Si Si5 0.082893 0.663476 0.280802
O O1 0.500000 0.250000 0.933297
O O2 0.170645 0.347169 0.924725
O O3 0.476249 0.319414 0.847308
O O4 0.583385 0.354999 0.960490
O O5 0.314669 0.056215 0.385772
O O6 0.388844 0.093685 0.282699
O O7 0.598330 0.998017 0.310881
O O8 0.250000 0.067431 0.500000
O O9 0.622067 0.067644 0.551936
O O10 0.350524 0.682542 0.257944
#
# Coordination Sequence:
#
# PCOD9532044 Si02
#       5
#    16  16  16   8  16
#     4  10  24  41  68 102 136 183 236 287 354 427
#     4  11  25  41  69 100 132 173 231 286 344 411
#     4   9  22  40  61  96 137 183 221 278 346 416
#     4  10  22  40  70  94 148 182 226 290 352 422
#     4  11  26  47  71  97 138 181 229 294 354 417
#
# _framework density 24.676326
#
# number of rings (size 3 to 8) (size 9 to 14) (size 15 to 20)
#    0.000    1.778    0.000    1.333   20.222    4.444 
#    0.000    0.000    0.000    0.000    0.000    0.000 
#    0.000    0.000    0.000    0.000    0.000    0.000 
#
# Total GULP energy -200612.359866 kJ/mol
# GULP energy per Si atom -5572.565552 kJ/mol
# Density = 2.462016 g / cm^3
# Si number density = 24.676326 Si / 1000 Ang^3
#
#
#
# Elastic Constant Matrix: (Units=GPa)
#
#
# Indices 1 2 3 4 5 6 
#
# 1 135.9027 35.8174 40.7032 0.0000 0.0000 0.0000
# 2 35.8174 91.2201 9.3657 0.0000 0.0000 0.0000
# 3 40.7032 9.3657 139.3505 0.0000 0.0000 0.0000
# 4 0.0000 0.0000 0.0000 17.3601 0.0000 0.0000
# 5 0.0000 0.0000 0.0000 0.0000 316.2879 0.0000
# 6 0.0000 0.0000 0.0000 0.0000 0.0000 9.4611
#
#
#
# Elastic Compliance Matrix: (Units=1/GPa)
#
#
# Indices 1 2 3 4 5 6 
#
# 1 0.008934 -0.003262 -0.002390 0.000000 0.000000 0.000000
# 2 -0.003262 0.012230 0.000131 0.000000 0.000000 0.000000
# 3 -0.002390 0.000131 0.007866 0.000000 0.000000 0.000000
# 4 0.000000 0.000000 0.000000 0.057603 0.000000 0.000000
# 5 0.000000 0.000000 0.000000 0.000000 0.003162 0.000000
# 6 0.000000 0.000000 0.000000 0.000000 0.000000 0.105696
#
#
# Mechanical properties :
#
#
# Convention : Reuss Voigt Hill
#
# Bulk Modulus (GPa) = 55.59893 59.80510 57.70202
# Shear Modulus (GPa) = 23.52611 87.32762 55.42686
#
# Velocity S-wave (km/s) = 3.09105 5.95534 4.74450
# Velocity P-wave (km/s) = 5.94303 8.46029 7.31082
#
# Compressibility (1/GPa) = 0.01798596
#
# Stress axis : x y z
#
# Youngs Moduli (GPa) = 111.93288 81.76579 127.13713
#
# Poissons Ratio (x) = 0.26676 0.30389
# Poissons Ratio (y) = 0.36518 -0.01665
# Poissons Ratio (z) = 0.26755 -0.01071
#
# Static dielectric constant tensor:
#      x y z
#    x 2.507090 0.000000 0.000000 
#    y 0.000000 2.038530 0.000000 
#    z 0.000000 0.000000 1.926740 
# 
# From -- ./inp_files/2525.got.cif
#   From: 2010.05.17/outbox.cif.g08.bks.cpg/sg73_2_cif.got.tgz:2525.got - 2010.06.03 17:35:07.
