data_PCOD9532673
_publ_section_title
;
Structure prediction by ZEFSAII (Michael W. Deem and Ramdas Pophale) SiO2 
 PCOD9532673
Probable space group: I B C A 
;
_chemical_formula_sum "Si O2"
_cell_formula_units_Z 104
_cell_length_a 21.450785
_cell_length_b 15.217606
_cell_length_c 15.071341
_cell_angle_alpha 90.000000
_cell_angle_beta 90.000000
_cell_angle_gamma 90.000000
_cell_volume 4919.731732
_symmetry_space_group_name_H-M "I B C A "
_symmetry_group_IT_number 73
_symmetry_cell_setting 'orthorhombic'
loop_
_space_group_symop_operation_xyz
x,y,z
-x,1/2-y,z
x,-y,1/2-z
1/2-x,y,-z
-x,-y,-z
x,1/2+y,-z
-x,y,1/2+z
1/2+x,-y,z
1/2+x,1/2+y,1/2+z
1/2-x,-y,1/2+z
1/2+x,1/2-y,-z
-x,1/2+y,1/2-z
1/2-x,1/2-y,1/2-z
1/2+x,y,1/2-z
1/2-x,1/2+y,z
x,1/2-y,1/2+z
loop_
_atom_site_type_symbol
_atom_site_label
_atom_site_fract_x
_atom_site_fract_y
_atom_site_fract_z
Si Si1 0.400880 0.854528 0.389442
Si Si2 0.750000 0.109661 0.000000
Si Si3 0.121819 0.806199 0.975934
Si Si4 0.185451 0.937704 0.482069
Si Si5 0.074371 0.256129 0.218645
Si Si6 0.613579 0.932784 0.187916
Si Si7 0.030630 0.059926 0.425248
O O1 0.385342 0.775779 0.457291
O O2 0.357473 0.932463 0.430039
O O3 0.392910 0.820263 0.289622
O O4 0.473506 0.880047 0.394097
O O5 0.805612 0.168043 0.039121
O O6 0.708770 0.034584 0.050164
O O7 0.090274 0.786025 0.881312
O O8 0.083906 0.883052 0.027028
O O9 0.250000 0.888423 0.500000
O O10 0.148653 0.901363 0.399506
O O11 0.095680 0.156132 0.236639
O O12 0.000000 0.250000 0.228108
O O13 0.557947 0.005530 0.350571
O O14 0.650534 0.000000 0.250000
O O15 0.000000 0.000000 0.500000
#
# Coordination Sequence:
#
# PCOD9532673 Si02
#       7
#    16   8  16  16  16  16  16
#     4  12  24  43  71 101 142 181 232 301 363 418
#     4  10  24  44  72  92 134 194 234 286 346 426
#     4  12  23  43  68 100 138 185 233 292 363 417
#     4  10  23  48  66  93 135 186 239 284 345 421
#     4  12  26  42  67 112 146 178 233 303 362 435
#     4  12  23  43  70 100 137 183 234 284 355 429
#     4  12  21  41  70  97 137 188 225 284 360 430
#
# _framework density 21.139364
#
# number of rings (size 3 to 8) (size 9 to 14) (size 15 to 20)
#    0.462    0.000    4.615    5.077    1.077    0.000 
#    2.769    5.385    0.000    0.000    0.000    0.000 
#    0.000    0.000    0.000    0.000    0.000    0.000 
#
# Total GULP energy -289858.790871 kJ/mol
# GULP energy per Si atom -5574.207517 kJ/mol
# Density = 2.109125 g / cm^3
# Si number density = 21.139364 Si / 1000 Ang^3
#
#
#
# Elastic Constant Matrix: (Units=GPa)
#
#
# Indices 1 2 3 4 5 6 
#
# 1 115.6644 26.2575 19.4832 0.0000 0.0000 0.0000
# 2 26.2575 70.7517 10.2596 0.0000 0.0000 0.0000
# 3 19.4832 10.2596 90.6950 0.0000 0.0000 0.0000
# 4 0.0000 0.0000 0.0000 37.6413 0.0000 0.0000
# 5 0.0000 0.0000 0.0000 0.0000 0.5607 0.0000
# 6 0.0000 0.0000 0.0000 0.0000 0.0000 -11.8259
#
#
#
# Elastic Compliance Matrix: (Units=1/GPa)
#
#
# Indices 1 2 3 4 5 6 
#
# 1 0.009693 -0.003350 -0.001703 0.000000 0.000000 0.000000
# 2 -0.003350 0.015528 -0.001037 0.000000 0.000000 0.000000
# 3 -0.001703 -0.001037 0.011509 0.000000 0.000000 0.000000
# 4 0.000000 0.000000 0.000000 0.026567 0.000000 0.000000
# 5 0.000000 0.000000 0.000000 0.000000 1.783489 0.000000
# 6 0.000000 0.000000 0.000000 0.000000 0.000000 -0.084560
#
#
# Mechanical properties :
#
#
# Convention : Reuss Voigt Hill
#
# Bulk Modulus (GPa) = 40.73468 43.23464 41.98466
# Shear Modulus (GPa) = 2.80491 20.01595 11.41043
#
# Velocity S-wave (km/s) = 1.15315 3.08044 2.32582
# Velocity P-wave (km/s) = 4.59178 5.75750 5.20736
#
# Compressibility (1/GPa) = 0.02454910
#
# Stress axis : x y z
#
# Youngs Moduli (GPa) = 103.16509 64.40116 86.88736
#
# Poissons Ratio (x) = 0.21577 0.14800
# Poissons Ratio (y) = 0.34564 0.09008
# Poissons Ratio (z) = 0.17572 0.06677
#
# Static dielectric constant tensor:
#      x y z
#    x 1.811220 0.000000 0.000000 
#    y 0.000000 1.851780 0.000000 
#    z 0.000000 0.000000 1.782390 
# 
# From -- ./inp_files/18810.got.cif
#   From: 2010.05.17/outbox.cif.g08.bks.cpg/sg73_10_cif.got.tgz:18810.got - 2010.06.03 17:35:07.
