data_PCOD9532918
_publ_section_title
;
Structure prediction by ZEFSAII (Michael W. Deem and Ramdas Pophale) SiO2 
 PCOD9532918
Probable space group: I B C A 
;
_chemical_formula_sum "Si O2"
_cell_formula_units_Z 56
_cell_length_a 16.957056
_cell_length_b 8.161685
_cell_length_c 15.920014
_cell_angle_alpha 90.000000
_cell_angle_beta 90.000000
_cell_angle_gamma 90.000000
_cell_volume 2203.300479
_symmetry_space_group_name_H-M "I B C A "
_symmetry_group_IT_number 73
_symmetry_cell_setting 'orthorhombic'
loop_
_space_group_symop_operation_xyz
x,y,z
-x,1/2-y,z
x,-y,1/2-z
1/2-x,y,-z
-x,-y,-z
x,1/2+y,-z
-x,y,1/2+z
1/2+x,-y,z
1/2+x,1/2+y,1/2+z
1/2-x,-y,1/2+z
1/2+x,1/2-y,-z
-x,1/2+y,1/2-z
1/2-x,1/2-y,1/2-z
1/2+x,y,1/2-z
1/2-x,1/2+y,z
x,1/2-y,1/2+z
loop_
_atom_site_type_symbol
_atom_site_label
_atom_site_fract_x
_atom_site_fract_y
_atom_site_fract_z
Si Si1 0.837734 0.218795 0.032555
Si Si2 0.057412 0.933276 0.570363
Si Si3 0.441545 0.500000 0.750000
Si Si4 0.333569 0.181481 0.785175
O O1 0.902638 0.266988 0.962338
O O2 0.662702 0.335673 0.886310
O O3 0.750000 0.210646 0.000000
O O4 0.864736 0.046475 0.070171
O O5 0.018161 0.962307 0.660804
O O6 0.000000 0.000000 0.500000
O O7 0.393469 0.328881 0.761212
O O8 0.250000 0.250000 0.750000
O O9 0.347494 0.000000 0.750000
#
# Coordination Sequence:
#
# PCOD9532918 Si02
#       4
#    16  16   8  16
#     4  11  25  42  71 105 141 187 240 300 365 430
#     4  11  25  48  71 105 143 190 241 299 369 440
#     4  10  24  46  70 100 146 188 246 298 362 446
#     4  11  23  40  68 106 145 187 239 302 368 428
#
# _framework density 25.416415000000001
#
# number of rings (size 3 to 8) (size 9 to 14) (size 15 to 20)
#    0.000    1.143    1.429    3.429   12.000    0.000 
#    2.571    2.857    0.000    0.000    0.000    0.000 
#    0.000    0.000    0.000    0.000    0.000    0.000 
#
# Total GULP energy -156567.780198 kJ/mol
# GULP energy per Si atom -5591.706436 kJ/mol
# Density = 2.535857 g / cm^3
# Si number density = 25.416415 Si / 1000 Ang^3
#
#
#
# Elastic Constant Matrix: (Units=GPa)
#
#
# Indices 1 2 3 4 5 6 
#
# 1 87.7979 24.7803 42.1452 0.0000 0.0000 0.0000
# 2 24.7803 157.4309 34.9997 0.0000 0.0000 0.0000
# 3 42.1452 34.9997 196.3902 0.0000 0.0000 0.0000
# 4 0.0000 0.0000 0.0000 34.8623 0.0000 0.0000
# 5 0.0000 0.0000 0.0000 0.0000 42.6825 0.0000
# 6 0.0000 0.0000 0.0000 0.0000 0.0000 27.5657
#
#
#
# Elastic Compliance Matrix: (Units=1/GPa)
#
#
# Indices 1 2 3 4 5 6 
#
# 1 0.013024 -0.001488 -0.002530 0.000000 0.000000 0.000000
# 2 -0.001488 0.006784 -0.000890 0.000000 0.000000 0.000000
# 3 -0.002530 -0.000890 0.005793 0.000000 0.000000 0.000000
# 4 0.000000 0.000000 0.000000 0.028684 0.000000 0.000000
# 5 0.000000 0.000000 0.000000 0.000000 0.023429 0.000000
# 6 0.000000 0.000000 0.000000 0.000000 0.000000 0.036277
#
#
# Mechanical properties :
#
#
# Convention : Reuss Voigt Hill
#
# Bulk Modulus (GPa) = 63.34343 71.71881 67.53112
# Shear Modulus (GPa) = 38.73920 43.66835 41.20377
#
# Velocity S-wave (km/s) = 3.90831 4.14951 4.03072
# Velocity P-wave (km/s) = 6.73371 7.15798 6.94909
#
# Compressibility (1/GPa) = 0.01578696
#
# Stress axis : x y z
#
# Youngs Moduli (GPa) = 76.78103 147.40657 172.61098
#
# Poissons Ratio (x) = 0.21928 0.43668
# Poissons Ratio (y) = 0.11422 0.15358
# Poissons Ratio (z) = 0.19424 0.13116
#
# Static dielectric constant tensor:
#      x y z
#    x 1.996470 0.000000 0.000000 
#    y 0.000000 1.674420 0.000000 
#    z 0.000000 0.000000 2.080710 
# 
# From -- ./inp_files/22269.got.cif
#   From: 2010.05.17/outbox.cif.g08.bks.cpg/sg73_12_cif.got.tgz:22269.got - 2010.06.03 17:35:07.
