data_PCOD9532945
_publ_section_title
;
Structure prediction by ZEFSAII (Michael W. Deem and Ramdas Pophale) SiO2 
 PCOD9532945
Probable space group: I B C A 
;
_chemical_formula_sum "Si O2"
_cell_formula_units_Z 56
_cell_length_a 9.636965
_cell_length_b 16.298541
_cell_length_c 14.036861
_cell_angle_alpha 90.000000
_cell_angle_beta 90.000000
_cell_angle_gamma 90.000000
_cell_volume 2204.748269
_symmetry_space_group_name_H-M "I B C A "
_symmetry_group_IT_number 73
_symmetry_cell_setting 'orthorhombic'
loop_
_space_group_symop_operation_xyz
x,y,z
-x,1/2-y,z
x,-y,1/2-z
1/2-x,y,-z
-x,-y,-z
x,1/2+y,-z
-x,y,1/2+z
1/2+x,-y,z
1/2+x,1/2+y,1/2+z
1/2-x,-y,1/2+z
1/2+x,1/2-y,-z
-x,1/2+y,1/2-z
1/2-x,1/2-y,1/2-z
1/2+x,y,1/2-z
1/2-x,1/2+y,z
x,1/2-y,1/2+z
loop_
_atom_site_type_symbol
_atom_site_label
_atom_site_fract_x
_atom_site_fract_y
_atom_site_fract_z
Si Si1 0.811517 0.928433 0.682586
Si Si2 0.533116 0.159432 0.803046
Si Si3 0.250000 0.024637 0.000000
Si Si4 0.598796 0.679607 0.488817
O O1 0.695029 0.858439 0.686887
O O2 0.952353 0.899835 0.731800
O O3 0.820904 0.966774 0.577741
O O4 0.754914 0.000000 0.750000
O O5 0.500000 0.250000 0.768712
O O6 0.465587 0.155986 0.908540
O O7 0.355458 0.089946 0.050610
O O8 0.500000 0.750000 0.446659
O O9 0.750000 0.720904 0.500000
#
# Coordination Sequence:
#
# PCOD9532945 Si02
#       4
#    16  16   8  16
#     4  12  24  49  75 107 152 192 255 318 381 455
#     4  11  25  49  74 105 148 202 252 308 386 460
#     4  10  24  46  76 114 146 202 250 318 390 446
#     4   9  20  45  71 109 149 187 252 307 384 460
#
# _framework density 25.399726000000001
#
# number of rings (size 3 to 8) (size 9 to 14) (size 15 to 20)
#    0.857    0.571    2.857    1.714    0.000    1.143 
#   15.429    7.143    0.000    0.000    0.000    0.000 
#    0.000    0.000    0.000    0.000    0.000    0.000 
#
# Total GULP energy -156530.667699 kJ/mol
# GULP energy per Si atom -5590.380989 kJ/mol
# Density = 2.534192 g / cm^3
# Si number density = 25.399726 Si / 1000 Ang^3
#
#
#
# Elastic Constant Matrix: (Units=GPa)
#
#
# Indices 1 2 3 4 5 6 
#
# 1 111.8189 16.8495 -9.8891 0.0000 0.0000 0.0000
# 2 16.8495 115.3174 5.4082 0.0000 0.0000 0.0000
# 3 -9.8891 5.4082 74.9454 0.0000 0.0000 0.0000
# 4 0.0000 0.0000 0.0000 -8.7295 0.0000 0.0000
# 5 0.0000 0.0000 0.0000 0.0000 25.5291 0.0000
# 6 0.0000 0.0000 0.0000 0.0000 0.0000 48.4016
#
#
#
# Elastic Compliance Matrix: (Units=1/GPa)
#
#
# Indices 1 2 3 4 5 6 
#
# 1 0.009274 -0.001417 0.001326 0.000000 0.000000 0.000000
# 2 -0.001417 0.008918 -0.000831 0.000000 0.000000 0.000000
# 3 0.001326 -0.000831 0.013578 0.000000 0.000000 0.000000
# 4 0.000000 0.000000 0.000000 -0.114554 0.000000 0.000000
# 5 0.000000 0.000000 0.000000 0.000000 0.039171 0.000000
# 6 0.000000 0.000000 0.000000 0.000000 0.000000 0.020660
#
#
# Mechanical properties :
#
#
# Convention : Reuss Voigt Hill
#
# Bulk Modulus (GPa) = 33.41581 36.31322 34.86452
# Shear Modulus (GPa) = -449.07236 32.35444 -208.35896
#
# Velocity S-wave (km/s) = -13.31112 3.57292 -9.06698
# Velocity P-wave (km/s) = 14.93530 5.59900 9.79067
#
# Compressibility (1/GPa) = 0.02992595
#
# Stress axis : x y z
#
# Youngs Moduli (GPa) = 107.83005 112.13597 73.64890
#
# Poissons Ratio (x) = 0.15892 -0.09766
# Poissons Ratio (y) = 0.15282 0.06117
# Poissons Ratio (z) = -0.14298 0.09313
#
# Static dielectric constant tensor:
#      x y z
#    x 2.016840 0.000000 0.000000 
#    y 0.000000 2.053480 0.000000 
#    z 0.000000 0.000000 2.022140 
# 
# From -- ./inp_files/20519.got.cif
#   From: 2010.05.17/outbox.cif.g08.bks.cpg/sg73_11_cif.got.tgz:20519.got - 2010.06.03 17:35:07.
