data_PCOD9532299
_publ_section_title
;
Structure prediction by ZEFSAII (Michael W. Deem and Ramdas Pophale) SiO2 
 PCOD9532299
Probable space group: I B C A 
;
_chemical_formula_sum "Si O2"
_cell_formula_units_Z 96
_cell_length_a 13.369017
_cell_length_b 28.547649
_cell_length_c 11.914500
_cell_angle_alpha 90.000000
_cell_angle_beta 90.000000
_cell_angle_gamma 90.000000
_cell_volume 4547.216640
_symmetry_space_group_name_H-M "I B C A "
_symmetry_group_IT_number 73
_symmetry_cell_setting 'orthorhombic'
loop_
_space_group_symop_operation_xyz
x,y,z
-x,1/2-y,z
x,-y,1/2-z
1/2-x,y,-z
-x,-y,-z
x,1/2+y,-z
-x,y,1/2+z
1/2+x,-y,z
1/2+x,1/2+y,1/2+z
1/2-x,-y,1/2+z
1/2+x,1/2-y,-z
-x,1/2+y,1/2-z
1/2-x,1/2-y,1/2-z
1/2+x,y,1/2-z
1/2-x,1/2+y,z
x,1/2-y,1/2+z
loop_
_atom_site_type_symbol
_atom_site_label
_atom_site_fract_x
_atom_site_fract_y
_atom_site_fract_z
Si Si1 0.731606 0.500000 0.250000
Si Si2 0.750000 0.254363 0.500000
Si Si3 0.154913 0.083138 0.348717
Si Si4 0.510745 0.618860 0.192892
Si Si5 0.168611 0.832961 0.425508
Si Si6 0.216468 0.329504 0.192109
Si Si7 0.413111 0.971410 0.062326
O O1 0.800515 0.454003 0.259523
O O2 0.660985 0.498597 0.140266
O O3 0.840620 0.216332 0.507819
O O4 0.763324 0.287006 0.607758
O O5 0.052693 0.106139 0.303632
O O6 0.232797 0.124733 0.361414
O O7 0.141100 0.054827 0.461404
O O8 0.432511 0.641272 0.104621
O O9 0.601579 0.655094 0.210731
O O10 0.547315 0.569516 0.143766
O O11 0.250000 0.861155 0.500000
O O12 0.224816 0.822006 0.308396
O O13 0.500000 0.000000 0.000000
#
# Coordination Sequence:
#
# PCOD9532299 Si02
#       7
#     8   8  16  16  16  16  16
#     4  12  24  44  62  96 140 176 232 294 350 420
#     4  10  22  44  70 100 142 180 224 294 352 432
#     4  11  25  42  67  97 136 186 231 296 357 413
#     4  11  24  42  68 101 135 183 235 287 351 433
#     4   9  24  43  67 104 138 178 227 290 359 410
#     4  11  22  44  71  98 141 178 238 286 354 432
#     4  12  25  41  68  98 133 185 235 287 352 428
#
# _framework density 21.111815
#
# number of rings (size 3 to 8) (size 9 to 14) (size 15 to 20)
#    0.500    0.667    1.667    4.000    2.333    2.000 
#    0.000    0.000    0.000    0.000    0.000    0.000 
#    0.000    0.000    0.000    0.000    0.000    0.000 
#
# Total GULP energy -267999.654171 kJ/mol
# GULP energy per Si atom -5583.326129 kJ/mol
# Density = 2.106376 g / cm^3
# Si number density = 21.111815 Si / 1000 Ang^3
#
#
#
# Elastic Constant Matrix: (Units=GPa)
#
#
# Indices 1 2 3 4 5 6 
#
# 1 96.4495 15.8805 23.2180 0.0000 0.0000 0.0000
# 2 15.8805 59.8081 -2.9539 0.0001 0.0000 0.0000
# 3 23.2180 -2.9539 75.2513 0.0004 0.0000 0.0000
# 4 0.0000 0.0001 0.0004 33.9392 0.0000 0.0000
# 5 0.0000 0.0000 0.0000 0.0000 34.3821 0.0000
# 6 0.0000 0.0000 0.0000 0.0000 0.0000 24.5773
#
#
#
# Elastic Compliance Matrix: (Units=1/GPa)
#
#
# Indices 1 2 3 4 5 6 
#
# 1 0.011826 -0.003327 -0.003779 0.000000 0.000000 0.000000
# 2 -0.003327 0.017688 0.001721 0.000000 0.000000 0.000000
# 3 -0.003779 0.001721 0.014522 0.000000 0.000000 0.000000
# 4 0.000000 0.000000 0.000000 0.029464 0.000000 0.000000
# 5 0.000000 0.000000 0.000000 0.000000 0.029085 0.000000
# 6 0.000000 0.000000 0.000000 0.000000 0.000000 0.040688
#
#
# Mechanical properties :
#
#
# Convention : Reuss Voigt Hill
#
# Bulk Modulus (GPa) = 30.06058 33.75533 31.90796
# Shear Modulus (GPa) = 30.27865 31.60400 30.94133
#
# Velocity S-wave (km/s) = 3.79120 3.87328 3.83246
# Velocity P-wave (km/s) = 5.78220 6.00222 5.89324
#
# Compressibility (1/GPa) = 0.03326616
#
# Stress axis : x y z
#
# Youngs Moduli (GPa) = 84.56221 56.53413 68.85914
#
# Poissons Ratio (x) = 0.18807 0.26024
# Poissons Ratio (y) = 0.28131 -0.11849
# Poissons Ratio (z) = 0.31958 -0.09728
#
# Static dielectric constant tensor:
#      x y z
#    x 1.830130 0.000000 0.000000 
#    y 0.000000 1.770840 0.000000 
#    z 0.000000 0.000000 1.807010 
# 
# From -- ./inp_files/11221.got.cif
#   From: 2010.05.17/outbox.cif.g08.bks.cpg/sg73_6_cif.got.tgz:11221.got - 2010.06.03 17:35:07.
