data_PCOD9532108
_publ_section_title
;
Structure prediction by ZEFSAII (Michael W. Deem and Ramdas Pophale) SiO2 
 PCOD9532108
Probable space group: I B C A 
;
_chemical_formula_sum "Si O2"
_cell_formula_units_Z 56
_cell_length_a 21.706962
_cell_length_b 5.346339
_cell_length_c 18.383884
_cell_angle_alpha 90.000000
_cell_angle_beta 90.000000
_cell_angle_gamma 90.000000
_cell_volume 2133.500800
_symmetry_space_group_name_H-M "I B C A "
_symmetry_group_IT_number 73
_symmetry_cell_setting 'orthorhombic'
loop_
_space_group_symop_operation_xyz
x,y,z
-x,1/2-y,z
x,-y,1/2-z
1/2-x,y,-z
-x,-y,-z
x,1/2+y,-z
-x,y,1/2+z
1/2+x,-y,z
1/2+x,1/2+y,1/2+z
1/2-x,-y,1/2+z
1/2+x,1/2-y,-z
-x,1/2+y,1/2-z
1/2-x,1/2-y,1/2-z
1/2+x,y,1/2-z
1/2-x,1/2+y,z
x,1/2-y,1/2+z
loop_
_atom_site_type_symbol
_atom_site_label
_atom_site_fract_x
_atom_site_fract_y
_atom_site_fract_z
Si Si1 0.765261 0.948458 0.891869
Si Si2 0.180316 0.500000 0.250000
Si Si3 0.500000 0.750000 0.047925
Si Si4 0.500000 0.750000 0.793864
Si Si5 0.605025 0.897574 0.150715
O O1 0.768405 0.678553 0.927156
O O2 0.836129 0.020248 0.885380
O O3 0.726442 0.913907 0.815528
O O4 0.138434 0.278304 0.212874
O O5 0.560683 0.736965 0.098945
O O6 0.500000 0.500000 0.000000
O O7 0.480323 0.500000 0.750000
O O8 0.441135 0.127339 0.668355
#
# Coordination Sequence:
#
# PCOD9532108 Si02
#       5
#    16   8   8   8  16
#     4  10  22  41  69 105 149 196 230 290 395 489
#     4  10  24  46  78 118 158 196 230 312 428 494
#     4  12  30  54  76 102 146 222 284 316 358 430
#     4  12  30  40  64 116 162 200 238 302 408 502
#     4  11  26  49  74 108 161 197 257 320 393 465
#
# _framework density 26.24794
#
# number of rings (size 3 to 8) (size 9 to 14) (size 15 to 20)
#    0.000    1.143    0.000    5.143   12.000    9.143 
#    0.000    0.000    0.000   20.571    0.000    0.000 
#    0.000    0.000    0.000    0.000    0.000    0.000 
#
# Total GULP energy -156258.961911 kJ/mol
# GULP energy per Si atom -5580.677211 kJ/mol
# Density = 2.618820 g / cm^3
# Si number density = 26.247940 Si / 1000 Ang^3
#
#
#
# Elastic Constant Matrix: (Units=GPa)
#
#
# Indices 1 2 3 4 5 6 
#
# 1 195.7883 46.9130 39.0666 0.0000 0.0000 0.0000
# 2 46.9130 198.1444 25.5174 0.0000 0.0000 0.0000
# 3 39.0666 25.5174 106.6546 0.0000 0.0000 0.0000
# 4 0.0000 0.0000 0.0000 -12.4828 0.0000 0.0000
# 5 0.0000 0.0000 0.0000 0.0000 -37.8517 0.0000
# 6 0.0000 0.0000 0.0000 0.0000 0.0000 64.7865
#
#
#
# Elastic Compliance Matrix: (Units=1/GPa)
#
#
# Indices 1 2 3 4 5 6 
#
# 1 0.005743 -0.001123 -0.001835 0.000000 0.000000 0.000000
# 2 -0.001123 0.005427 -0.000887 0.000000 0.000000 0.000000
# 3 -0.001835 -0.000887 0.010260 0.000000 0.000000 0.000000
# 4 0.000000 0.000000 0.000000 -0.080110 0.000000 0.000000
# 5 0.000000 0.000000 0.000000 0.000000 -0.026419 0.000000
# 6 0.000000 0.000000 0.000000 0.000000 0.000000 0.015435
#
#
# Mechanical properties :
#
#
# Convention : Reuss Voigt Hill
#
# Bulk Modulus (GPa) = 72.78039 80.39791 76.58915
# Shear Modulus (GPa) = -87.11786 28.82975 -29.14405
#
# Velocity S-wave (km/s) = -5.76736 3.31775 -3.33579
# Velocity P-wave (km/s) = 4.06960 6.73597 3.79550
#
# Compressibility (1/GPa) = 0.01373997
#
# Stress axis : x y z
#
# Youngs Moduli (GPa) = 174.13005 184.26304 97.46280
#
# Poissons Ratio (x) = 0.20700 0.17882
# Poissons Ratio (y) = 0.19562 0.08644
# Poissons Ratio (z) = 0.31949 0.16343
#
# Static dielectric constant tensor:
#      x y z
#    x 2.010890 0.000000 0.000000 
#    y 0.000000 2.038700 0.000000 
#    z 0.000000 0.000000 2.269840 
# 
# From -- ./inp_files/1465.got.cif
#   From: 2010.05.17/outbox.cif.g08.bks.cpg/sg73_1_cif.got.tgz:1465.got - 2010.06.03 17:35:07.
