data_PCOD9532319
_publ_section_title
;
Structure prediction by ZEFSAII (Michael W. Deem and Ramdas Pophale) SiO2 
 PCOD9532319
Probable space group: I B C A 
;
_chemical_formula_sum "Si O2"
_cell_formula_units_Z 80
_cell_length_a 13.741305
_cell_length_b 13.749109
_cell_length_c 17.295174
_cell_angle_alpha 90.000000
_cell_angle_beta 90.000000
_cell_angle_gamma 90.000000
_cell_volume 3267.589335
_symmetry_space_group_name_H-M "I B C A "
_symmetry_group_IT_number 73
_symmetry_cell_setting 'orthorhombic'
loop_
_space_group_symop_operation_xyz
x,y,z
-x,1/2-y,z
x,-y,1/2-z
1/2-x,y,-z
-x,-y,-z
x,1/2+y,-z
-x,y,1/2+z
1/2+x,-y,z
1/2+x,1/2+y,1/2+z
1/2-x,-y,1/2+z
1/2+x,1/2-y,-z
-x,1/2+y,1/2-z
1/2-x,1/2-y,1/2-z
1/2+x,y,1/2-z
1/2-x,1/2+y,z
x,1/2-y,1/2+z
loop_
_atom_site_type_symbol
_atom_site_label
_atom_site_fract_x
_atom_site_fract_y
_atom_site_fract_z
Si Si1 0.000264 0.598344 0.845277
Si Si2 0.858823 0.000000 0.750000
Si Si3 0.750000 0.039886 0.500000
Si Si4 0.658468 0.780809 0.912062
Si Si5 0.500000 0.750000 0.026047
Si Si6 0.500000 0.250000 0.713712
Si Si7 0.270668 0.604312 0.638720
O O1 0.027104 0.665141 0.772142
O O2 0.885045 0.583292 0.850151
O O3 0.069372 0.510192 0.823993
O O4 0.027336 0.659127 0.920650
O O5 0.784202 0.082429 0.780742
O O6 0.682491 0.117846 0.546535
O O7 0.770576 0.965646 0.570806
O O8 0.588354 0.787992 0.838300
O O9 0.750010 0.715127 0.887781
O O10 0.590919 0.722899 0.972895
#
# Coordination Sequence:
#
# PCOD9532319 Si02
#       7
#    16   8   8  16   8   8  16
#     4  11  24  45  70 104 146 196 243 309 373 448
#     4  12  26  44  66 110 148 190 244 310 374 440
#     4  12  26  42  74 108 140 194 244 308 370 448
#     4  11  24  47  69 106 148 193 245 305 375 448
#     4  10  22  44  72  96 142 188 244 292 366 438
#     4  10  24  46  70 102 144 202 246 304 380 452
#     4  12  27  46  75 110 148 195 252 309 375 456
#
# _framework density 24.482880999999999
#
# number of rings (size 3 to 8) (size 9 to 14) (size 15 to 20)
#    0.000    0.800    2.000    4.800    5.600    2.400 
#    0.000    5.000    0.000    0.000    0.000    0.000 
#    0.000    0.000    0.000    0.000    0.000    0.000 
#
# Total GULP energy -223388.307888 kJ/mol
# GULP energy per Si atom -5584.707697 kJ/mol
# Density = 2.442716 g / cm^3
# Si number density = 24.482881 Si / 1000 Ang^3
#
#
#
# Elastic Constant Matrix: (Units=GPa)
#
#
# Indices 1 2 3 4 5 6 
#
# 1 116.9352 9.2977 24.5770 0.0000 0.0000 0.0000
# 2 9.2977 43.9671 -6.4616 0.0000 0.0000 0.0000
# 3 24.5770 -6.4616 78.4198 0.0000 0.0000 0.0000
# 4 0.0000 0.0000 0.0000 -129.1074 0.0000 0.0000
# 5 0.0000 0.0000 0.0000 0.0000 47.3998 0.0000
# 6 0.0000 0.0000 0.0000 0.0000 0.0000 26.5234
#
#
#
# Elastic Compliance Matrix: (Units=1/GPa)
#
#
# Indices 1 2 3 4 5 6 
#
# 1 0.009409 -0.002453 -0.003151 0.000000 0.000000 0.000000
# 2 -0.002453 0.023662 0.002718 0.000000 0.000000 0.000000
# 3 -0.003151 0.002718 0.013963 0.000000 0.000000 0.000000
# 4 0.000000 0.000000 0.000000 -0.007745 0.000000 0.000000
# 5 0.000000 0.000000 0.000000 0.000000 0.021097 0.000000
# 6 0.000000 0.000000 0.000000 0.000000 0.000000 0.037703
#
#
# Mechanical properties :
#
#
# Convention : Reuss Voigt Hill
#
# Bulk Modulus (GPa) = 24.23400 32.68314 28.45857
# Shear Modulus (GPa) = 42.51179 3.09044 22.80111
#
# Velocity S-wave (km/s) = 4.17152 1.12473 3.05505
# Velocity P-wave (km/s) = 5.75517 3.88137 4.90851
#
# Compressibility (1/GPa) = 0.04126434
#
# Stress axis : x y z
#
# Youngs Moduli (GPa) = 106.28109 42.26101 71.61589
#
# Poissons Ratio (x) = 0.10366 0.22566
# Poissons Ratio (y) = 0.26068 -0.19468
# Poissons Ratio (z) = 0.33488 -0.11488
#
# Static dielectric constant tensor:
#      x y z
#    x 1.932130 0.000000 0.000000 
#    y 0.000000 2.158840 0.000000 
#    z 0.000000 0.000000 1.945000 
# 
# From -- ./inp_files/25916.got.cif
#   From: 2010.05.17/outbox.cif.g08.bks.cpg/sg73_13_cif.got.tgz:25916.got - 2010.06.03 17:35:07.
