data_PCOD9532777
_publ_section_title
;
Structure prediction by ZEFSAII (Michael W. Deem and Ramdas Pophale) SiO2 
 PCOD9532777
Probable space group: I B C A 
;
_chemical_formula_sum "Si O2"
_cell_formula_units_Z 56
_cell_length_a 8.639028
_cell_length_b 9.715237
_cell_length_c 27.291647
_cell_angle_alpha 90.000000
_cell_angle_beta 90.000000
_cell_angle_gamma 90.000000
_cell_volume 2290.593513
_symmetry_space_group_name_H-M "I B C A "
_symmetry_group_IT_number 73
_symmetry_cell_setting 'orthorhombic'
loop_
_space_group_symop_operation_xyz
x,y,z
-x,1/2-y,z
x,-y,1/2-z
1/2-x,y,-z
-x,-y,-z
x,1/2+y,-z
-x,y,1/2+z
1/2+x,-y,z
1/2+x,1/2+y,1/2+z
1/2-x,-y,1/2+z
1/2+x,1/2-y,-z
-x,1/2+y,1/2-z
1/2-x,1/2-y,1/2-z
1/2+x,y,1/2-z
1/2-x,1/2+y,z
x,1/2-y,1/2+z
loop_
_atom_site_type_symbol
_atom_site_label
_atom_site_fract_x
_atom_site_fract_y
_atom_site_fract_z
Si Si1 0.500000 0.750000 0.260185
Si Si2 0.426786 0.600170 0.957916
Si Si3 0.890596 0.889313 0.902539
Si Si4 0.227757 0.406358 0.703864
O O1 0.645953 0.714492 0.293192
O O2 0.559512 0.863355 0.222804
O O3 0.500000 0.750000 0.964902
O O4 0.498643 0.518311 0.912187
O O5 0.500000 0.500000 0.000000
O O6 0.255829 0.620151 0.055271
O O7 0.801092 0.930236 0.852764
O O8 0.000000 0.750000 0.900262
O O9 0.278010 0.500000 0.750000
#
# Coordination Sequence:
#
# PCOD9532777 Si02
#       4
#     8  16  16  16
#     4  10  24  42  70 104 166 212 276 326 404 476
#     4  12  29  53  84 120 161 210 275 351 426 508
#     4  12  28  51  84 121 164 221 282 341 422 499
#     4  11  25  44  72 112 162 218 274 337 405 480
#
# _framework density 24.447814000000001
#
# number of rings (size 3 to 8) (size 9 to 14) (size 15 to 20)
#    0.000    0.571    1.429    4.286   10.000    4.571 
#    0.000    0.000    0.000    0.000    0.000    0.000 
#    0.000    0.000    0.000    0.000    0.000    0.000 
#
# Total GULP energy -155929.103435 kJ/mol
# GULP energy per Si atom -5568.896551 kJ/mol
# Density = 2.439217 g / cm^3
# Si number density = 24.447814 Si / 1000 Ang^3
#
#
#
# Elastic Constant Matrix: (Units=GPa)
#
#
# Indices 1 2 3 4 5 6 
#
# 1 170.5902 53.8660 58.1629 0.0000 0.0000 0.0000
# 2 53.8660 143.3669 42.0074 0.0000 0.0000 0.0000
# 3 58.1629 42.0074 147.7219 0.0000 0.0000 0.0000
# 4 0.0000 0.0000 0.0000 24.4572 0.0000 0.0000
# 5 0.0000 0.0000 0.0000 0.0000 7.9812 0.0000
# 6 0.0000 0.0000 0.0000 0.0000 0.0000 42.4078
#
#
#
# Elastic Compliance Matrix: (Units=1/GPa)
#
#
# Indices 1 2 3 4 5 6 
#
# 1 0.007295 -0.002072 -0.002283 0.000000 0.000000 0.000000
# 2 -0.002072 0.008198 -0.001515 0.000000 0.000000 0.000000
# 3 -0.002283 -0.001515 0.008099 0.000000 0.000000 0.000000
# 4 0.000000 0.000000 0.000000 0.040888 0.000000 0.000000
# 5 0.000000 0.000000 0.000000 0.000000 0.125295 0.000000
# 6 0.000000 0.000000 0.000000 0.000000 0.000000 0.023581
#
#
# Mechanical properties :
#
#
# Convention : Reuss Voigt Hill
#
# Bulk Modulus (GPa) = 84.38031 85.52798 84.95414
# Shear Modulus (GPa) = 21.82972 35.47876 28.65424
#
# Velocity S-wave (km/s) = 2.99140 3.81360 3.42725
# Velocity P-wave (km/s) = 6.82061 7.37911 7.10535
#
# Compressibility (1/GPa) = 0.01185111
#
# Stress axis : x y z
#
# Youngs Moduli (GPa) = 137.08812 121.98768 123.46782
#
# Poissons Ratio (x) = 0.25274 0.28187
# Poissons Ratio (y) = 0.28402 0.18710
# Poissons Ratio (z) = 0.31297 0.18486
#
# Static dielectric constant tensor:
#      x y z
#    x 1.912810 0.000000 0.000000 
#    y 0.000000 2.142330 0.000000 
#    z 0.000000 0.000000 2.134300 
# 
# From -- ./inp_files/30985.got.cif
#   From: 2010.05.17/outbox.cif.g08.bks.cpg/sg73_16_cif.got.tgz:30985.got - 2010.06.03 17:35:07.
