data_PCOD9532562
_publ_section_title
;
Structure prediction by ZEFSAII (Michael W. Deem and Ramdas Pophale) SiO2 
 PCOD9532562
Probable space group: I B C A 
;
_chemical_formula_sum "Si O2"
_cell_formula_units_Z 112
_cell_length_a 11.526043
_cell_length_b 30.091004
_cell_length_c 14.110325
_cell_angle_alpha 90.000000
_cell_angle_beta 90.000000
_cell_angle_gamma 90.000000
_cell_volume 4893.886927
_symmetry_space_group_name_H-M "I B C A "
_symmetry_group_IT_number 73
_symmetry_cell_setting 'orthorhombic'
loop_
_space_group_symop_operation_xyz
x,y,z
-x,1/2-y,z
x,-y,1/2-z
1/2-x,y,-z
-x,-y,-z
x,1/2+y,-z
-x,y,1/2+z
1/2+x,-y,z
1/2+x,1/2+y,1/2+z
1/2-x,-y,1/2+z
1/2+x,1/2-y,-z
-x,1/2+y,1/2-z
1/2-x,1/2-y,1/2-z
1/2+x,y,1/2-z
1/2-x,1/2+y,z
x,1/2-y,1/2+z
loop_
_atom_site_type_symbol
_atom_site_label
_atom_site_fract_x
_atom_site_fract_y
_atom_site_fract_z
Si Si1 0.210670 0.938222 0.327133
Si Si2 0.636049 0.743808 0.566952
Si Si3 0.088542 0.645325 0.926349
Si Si4 0.155148 0.834511 0.838540
Si Si5 0.844354 0.900514 0.632583
Si Si6 0.400694 0.378883 0.644584
Si Si7 0.124893 0.489506 0.954595
O O1 0.150224 0.896157 0.378152
O O2 0.212208 0.930166 0.215324
O O3 0.343652 0.928236 0.357237
O O4 0.139895 0.981054 0.359473
O O5 0.500000 0.750000 0.528574
O O6 0.750000 0.749288 0.500000
O O7 0.637858 0.693295 0.603011
O O8 0.649870 0.782002 0.645492
O O9 0.955772 0.645813 0.893628
O O10 0.104829 0.641243 0.039549
O O11 0.265453 0.858265 0.885408
O O12 0.152741 0.849471 0.728913
O O13 0.870603 0.936124 0.552116
O O14 0.965867 0.883421 0.670650
O O15 0.250000 0.502233 0.000000
O O16 0.000000 0.500000 0.000000
#
# Coordination Sequence:
#
# PCOD9532562 Si02
#       7
#    16  16  16  16  16  16  16
#     4  11  23  45  67  98 138 185 235 287 357 434
#     4  10  23  43  70 103 144 187 238 297 360 427
#     4  11  22  44  73  96 140 187 233 290 364 426
#     4  10  25  44  67 105 141 183 242 301 351 429
#     4  11  25  42  70  99 142 186 239 296 359 420
#     4  11  23  43  71 101 137 193 233 292 368 425
#     4  12  27  43  68 108 141 187 241 296 356 433
#
# _framework density 22.885694000000001
#
# number of rings (size 3 to 8) (size 9 to 14) (size 15 to 20)
#    0.000    1.143    1.429    4.286    8.000    0.000 
#    0.000   15.714    0.000    0.000    0.000    0.000 
#    0.000    0.000    0.000    0.000    0.000    0.000 
#
# Total GULP energy -312597.884891 kJ/mol
# GULP energy per Si atom -5582.105087 kJ/mol
# Density = 2.283361 g / cm^3
# Si number density = 22.885694 Si / 1000 Ang^3
#
#
#
# Elastic Constant Matrix: (Units=GPa)
#
#
# Indices 1 2 3 4 5 6 
#
# 1 139.3078 22.4271 19.5318 0.0000 0.0000 0.0000
# 2 22.4271 104.4658 23.3357 -0.0001 0.0000 0.0000
# 3 19.5318 23.3357 63.6757 -0.0003 0.0002 0.0002
# 4 0.0000 -0.0001 -0.0003 26.2145 0.0001 0.0001
# 5 0.0000 0.0000 0.0002 0.0001 25.6899 0.0000
# 6 0.0000 0.0000 0.0002 0.0001 0.0000 35.0925
#
#
#
# Elastic Compliance Matrix: (Units=1/GPa)
#
#
# Indices 1 2 3 4 5 6 
#
# 1 0.007640 -0.001216 -0.001898 0.000000 0.000000 0.000000
# 2 -0.001216 0.010620 -0.003519 0.000000 0.000000 0.000000
# 3 -0.001898 -0.003519 0.017576 0.000000 0.000000 0.000000
# 4 0.000000 0.000000 0.000000 0.038147 0.000000 0.000000
# 5 0.000000 0.000000 0.000000 0.000000 0.038926 0.000000
# 6 0.000000 0.000000 0.000000 0.000000 0.000000 0.028496
#
#
# Mechanical properties :
#
#
# Convention : Reuss Voigt Hill
#
# Bulk Modulus (GPa) = 44.30585 48.67095 46.48840
# Shear Modulus (GPa) = 30.82726 33.54303 32.18514
#
# Velocity S-wave (km/s) = 3.67414 3.83257 3.75419
# Velocity P-wave (km/s) = 6.11562 6.39515 6.25694
#
# Compressibility (1/GPa) = 0.02257038
#
# Stress axis : x y z
#
# Youngs Moduli (GPa) = 130.88579 94.16504 56.89494
#
# Poissons Ratio (x) = 0.11453 0.10798
# Poissons Ratio (y) = 0.15920 0.20020
# Poissons Ratio (z) = 0.24840 0.33134
#
# Static dielectric constant tensor:
#      x y z
#    x 1.894760 0.000000 0.000000 
#    y 0.000000 1.837360 0.000000 
#    z 0.000000 0.000000 1.912630 
# 
# From -- ./inp_files/16340.got.cif
#   From: 2010.05.17/outbox.cif.g08.bks.cpg/sg73_9_cif.got.tgz:16340.got - 2010.06.03 17:35:07.
