data_PCOD9532513
_publ_section_title
;
Structure prediction by ZEFSAII (Michael W. Deem and Ramdas Pophale) SiO2 
 PCOD9532513
Probable space group: I B C A 
;
_chemical_formula_sum "Si O2"
_cell_formula_units_Z 80
_cell_length_a 14.113313
_cell_length_b 11.307255
_cell_length_c 23.966630
_cell_angle_alpha 90.000000
_cell_angle_beta 90.000000
_cell_angle_gamma 90.000000
_cell_volume 3824.662617
_symmetry_space_group_name_H-M "I B C A "
_symmetry_group_IT_number 73
_symmetry_cell_setting 'orthorhombic'
loop_
_space_group_symop_operation_xyz
x,y,z
-x,1/2-y,z
x,-y,1/2-z
1/2-x,y,-z
-x,-y,-z
x,1/2+y,-z
-x,y,1/2+z
1/2+x,-y,z
1/2+x,1/2+y,1/2+z
1/2-x,-y,1/2+z
1/2+x,1/2-y,-z
-x,1/2+y,1/2-z
1/2-x,1/2-y,1/2-z
1/2+x,y,1/2-z
1/2-x,1/2+y,z
x,1/2-y,1/2+z
loop_
_atom_site_type_symbol
_atom_site_label
_atom_site_fract_x
_atom_site_fract_y
_atom_site_fract_z
Si Si1 0.108657 0.787606 0.388510
Si Si2 0.185736 0.477353 0.686345
Si Si3 0.044376 0.379288 0.881408
Si Si4 0.149511 0.977770 0.897978
Si Si5 0.890681 0.490672 0.020456
O O1 0.132628 0.856761 0.331655
O O2 0.159989 0.663214 0.394075
O O3 0.124934 0.876868 0.440351
O O4 0.000000 0.750000 0.390043
O O5 0.210961 0.500000 0.750000
O O6 0.113525 0.581466 0.667971
O O7 0.276967 0.472663 0.646407
O O8 0.109655 0.398951 0.936695
O O9 0.000000 0.250000 0.878808
O O10 0.955392 0.471021 0.883822
O O11 0.166383 0.009695 0.962875
O O12 0.000000 0.500000 0.000000
#
# Coordination Sequence:
#
# PCOD9532513 Si02
#       5
#    16  16  16  16  16
#     4  11  21  44  69 100 135 180 226 278 345 411
#     4  11  27  47  66  97 135 183 239 281 327 393
#     4  10  23  42  66 105 135 170 223 279 347 408
#     4  11  24  42  70 101 137 180 224 276 350 405
#     4   9  19  36  69  98 133 168 209 275 340 409
#
# _framework density 20.916878000000001
#
# number of rings (size 3 to 8) (size 9 to 14) (size 15 to 20)
#    0.000    1.600    6.000    0.000    8.400    5.600 
#    0.000    4.000    0.000    0.000    0.000    0.000 
#    0.000    0.000    0.000    0.000    0.000    0.000 
#
# Total GULP energy -223151.789676 kJ/mol
# GULP energy per Si atom -5578.794742 kJ/mol
# Density = 2.086927 g / cm^3
# Si number density = 20.916878 Si / 1000 Ang^3
#
#
#
# Elastic Constant Matrix: (Units=GPa)
#
#
# Indices 1 2 3 4 5 6 
#
# 1 73.9295 9.5578 60.4374 0.0000 0.0000 0.0000
# 2 9.5578 97.9200 30.0791 0.0000 0.0000 0.0000
# 3 60.4374 30.0791 150.8244 0.0000 0.0000 0.0000
# 4 0.0000 0.0000 0.0000 14.8778 0.0000 0.0000
# 5 0.0000 0.0000 0.0000 0.0000 28.7014 0.0000
# 6 0.0000 0.0000 0.0000 0.0000 0.0000 16.1448
#
#
#
# Elastic Compliance Matrix: (Units=1/GPa)
#
#
# Indices 1 2 3 4 5 6 
#
# 1 0.020144 0.000547 -0.008181 0.000000 0.000000 0.000000
# 2 0.000547 0.010894 -0.002392 0.000000 0.000000 0.000000
# 3 -0.008181 -0.002392 0.010385 0.000000 0.000000 0.000000
# 4 0.000000 0.000000 0.000000 0.067214 0.000000 0.000000
# 5 0.000000 0.000000 0.000000 0.000000 0.034841 0.000000
# 6 0.000000 0.000000 0.000000 0.000000 0.000000 0.061939
#
#
# Mechanical properties :
#
#
# Convention : Reuss Voigt Hill
#
# Bulk Modulus (GPa) = 46.79182 58.09140 52.44161
# Shear Modulus (GPa) = 21.49681 26.78478 24.14080
#
# Velocity S-wave (km/s) = 3.20929 3.58234 3.40093
# Velocity P-wave (km/s) = 6.01263 6.70400 6.36771
#
# Compressibility (1/GPa) = 0.02137126
#
# Stress axis : x y z
#
# Youngs Moduli (GPa) = 49.64360 91.79599 96.28909
#
# Poissons Ratio (x) = -0.05020 0.78773
# Poissons Ratio (y) = -0.02715 0.23029
# Poissons Ratio (z) = 0.40613 0.21955
#
# Static dielectric constant tensor:
#      x y z
#    x 1.830380 0.000000 0.000000 
#    y 0.000000 1.787490 0.000000 
#    z 0.000000 0.000000 1.752110 
# 
# From -- ./inp_files/10765.got.cif
#   From: 2010.05.17/outbox.cif.g08.bks.cpg/sg73_6_cif.got.tgz:10765.got - 2010.06.03 17:35:07.
