data_PCOD9532500
_publ_section_title
;
Structure prediction by ZEFSAII (Michael W. Deem and Ramdas Pophale) SiO2 
 PCOD9532500
Probable space group: I B C A 
;
_chemical_formula_sum "Si O2"
_cell_formula_units_Z 112
_cell_length_a 10.456661
_cell_length_b 15.668418
_cell_length_c 30.151023
_cell_angle_alpha 90.000000
_cell_angle_beta 90.000000
_cell_angle_gamma 90.000000
_cell_volume 4939.923571
_symmetry_space_group_name_H-M "I B C A "
_symmetry_group_IT_number 73
_symmetry_cell_setting 'orthorhombic'
loop_
_space_group_symop_operation_xyz
x,y,z
-x,1/2-y,z
x,-y,1/2-z
1/2-x,y,-z
-x,-y,-z
x,1/2+y,-z
-x,y,1/2+z
1/2+x,-y,z
1/2+x,1/2+y,1/2+z
1/2-x,-y,1/2+z
1/2+x,1/2-y,-z
-x,1/2+y,1/2-z
1/2-x,1/2-y,1/2-z
1/2+x,y,1/2-z
1/2-x,1/2+y,z
x,1/2-y,1/2+z
loop_
_atom_site_type_symbol
_atom_site_label
_atom_site_fract_x
_atom_site_fract_y
_atom_site_fract_z
Si Si1 0.902854 0.325539 0.392409
Si Si2 0.629672 0.515655 0.026783
Si Si3 0.879034 0.200418 0.996909
Si Si4 0.246892 0.026171 0.704274
Si Si5 0.303396 0.300322 0.823837
Si Si6 0.582955 0.378053 0.825213
Si Si7 0.451348 0.504225 0.876231
O O1 0.902558 0.326247 0.445819
O O2 0.762202 0.311684 0.372100
O O3 0.000000 0.250000 0.378758
O O4 0.959879 0.413008 0.373702
O O5 0.619099 0.487212 0.077003
O O6 0.750000 0.479676 0.000000
O O7 0.500000 0.500000 0.000000
O O8 0.643633 0.617626 0.026372
O O9 0.000000 0.250000 0.013419
O O10 0.750000 0.254589 0.000000
O O11 0.275619 0.128128 0.703971
O O12 0.180319 0.000000 0.750000
O O13 0.366691 0.961415 0.700495
O O14 0.154163 0.004907 0.662530
O O15 0.446457 0.335062 0.814562
O O16 0.314824 0.198085 0.819252
O O17 0.545099 0.421580 0.872672
#
# Coordination Sequence:
#
# PCOD9532500 Si02
#       7
#    16  16  16  16  16  16  16
#     4  11  22  44  67  99 140 186 241 302 362 438
#     4  11  25  42  68 101 140 183 241 294 359 436
#     4  10  24  41  61  94 138 182 239 300 358 425
#     4  11  25  45  74 103 139 183 239 298 368 444
#     4  10  23  44  68 104 140 179 243 295 358 441
#     4  10  23  41  71 102 136 187 231 298 365 430
#     4  11  24  44  72  99 144 189 243 296 375 441
#
# _framework density 22.672415999999998
#
# number of rings (size 3 to 8) (size 9 to 14) (size 15 to 20)
#    0.000    1.429    2.857    0.857   10.000    4.571 
#    0.000    0.000    0.000    0.000    0.000    0.000 
#    0.000    0.000    0.000    0.000    0.000    0.000 
#
# Total GULP energy -312096.736874 kJ/mol
# GULP energy per Si atom -5573.156016 kJ/mol
# Density = 2.262081 g / cm^3
# Si number density = 22.672416 Si / 1000 Ang^3
#
#
#
# Elastic Constant Matrix: (Units=GPa)
#
#
# Indices 1 2 3 4 5 6 
#
# 1 109.5015 29.2611 20.4116 0.0000 0.0000 0.0000
# 2 29.2611 134.6620 8.5784 0.0000 0.0000 0.0000
# 3 20.4116 8.5784 97.2958 0.0000 0.0000 0.0000
# 4 0.0000 0.0000 0.0000 18.9831 0.0000 0.0000
# 5 0.0000 0.0000 0.0000 0.0000 23.7712 0.0000
# 6 0.0000 0.0000 0.0000 0.0000 0.0000 38.3554
#
#
#
# Elastic Compliance Matrix: (Units=1/GPa)
#
#
# Indices 1 2 3 4 5 6 
#
# 1 0.010041 -0.002059 -0.001925 0.000000 0.000000 0.000000
# 2 -0.002059 0.007890 -0.000264 0.000000 0.000000 0.000000
# 3 -0.001925 -0.000264 0.010705 0.000000 0.000000 0.000000
# 4 0.000000 0.000000 0.000000 0.052678 0.000000 0.000000
# 5 0.000000 0.000000 0.000000 0.000000 0.042068 0.000000
# 6 0.000000 0.000000 0.000000 0.000000 0.000000 0.026072
#
#
# Mechanical properties :
#
#
# Convention : Reuss Voigt Hill
#
# Bulk Modulus (GPa) = 49.65052 50.88461 50.26757
# Shear Modulus (GPa) = 30.36482 35.10250 32.73366
#
# Velocity S-wave (km/s) = 3.66359 3.93905 3.80381
# Velocity P-wave (km/s) = 6.31209 6.57117 6.44293
#
# Compressibility (1/GPa) = 0.02014078
#
# Stress axis : x y z
#
# Youngs Moduli (GPa) = 99.58753 126.73847 93.41407
#
# Poissons Ratio (x) = 0.26099 0.17982
# Poissons Ratio (y) = 0.20508 0.02463
# Poissons Ratio (z) = 0.19171 0.03341
#
# Static dielectric constant tensor:
#      x y z
#    x 2.017110 0.000000 0.000000 
#    y 0.000000 1.902490 0.000000 
#    z 0.000000 0.000000 1.840210 
# 
# From -- ./inp_files/34041.got.cif
#   From: 2010.05.17/outbox.cif.g08.bks.cpg/sg73_18_cif.got.tgz:34041.got - 2010.06.03 17:35:07.
