data_PCOD9532917
_publ_section_title
;
Structure prediction by ZEFSAII (Michael W. Deem and Ramdas Pophale) SiO2 
 PCOD9532917
Probable space group: I B C A 
;
_chemical_formula_sum "Si O2"
_cell_formula_units_Z 80
_cell_length_a 11.042915
_cell_length_b 14.911759
_cell_length_c 20.968271
_cell_angle_alpha 90.000000
_cell_angle_beta 90.000000
_cell_angle_gamma 90.000000
_cell_volume 3452.830238
_symmetry_space_group_name_H-M "I B C A "
_symmetry_group_IT_number 73
_symmetry_cell_setting 'orthorhombic'
loop_
_space_group_symop_operation_xyz
x,y,z
-x,1/2-y,z
x,-y,1/2-z
1/2-x,y,-z
-x,-y,-z
x,1/2+y,-z
-x,y,1/2+z
1/2+x,-y,z
1/2+x,1/2+y,1/2+z
1/2-x,-y,1/2+z
1/2+x,1/2-y,-z
-x,1/2+y,1/2-z
1/2-x,1/2-y,1/2-z
1/2+x,y,1/2-z
1/2-x,1/2+y,z
x,1/2-y,1/2+z
loop_
_atom_site_type_symbol
_atom_site_label
_atom_site_fract_x
_atom_site_fract_y
_atom_site_fract_z
Si Si1 0.473530 0.430220 0.637425
Si Si2 0.854017 0.000000 0.750000
Si Si3 0.000000 0.750000 0.967874
Si Si4 0.105194 0.376804 0.129469
Si Si5 0.672023 0.336754 0.235274
Si Si6 0.330656 0.154204 0.553302
O O1 0.564127 0.469238 0.691166
O O2 0.390469 0.516062 0.622270
O O3 0.404388 0.347336 0.670681
O O4 0.554331 0.398595 0.578912
O O5 0.765967 0.081402 0.732966
O O6 0.991140 0.666050 0.919333
O O7 0.885224 0.738431 0.014451
O O8 0.085415 0.352867 0.203312
O O9 0.234736 0.333521 0.109931
O O10 0.750000 0.250000 0.250000
O O11 0.250000 0.104117 0.500000
#
# Coordination Sequence:
#
# PCOD9532917 Si02
#       6
#    16   8   8  16  16  16
#     4  12  23  45  78 106 152 196 243 318 399 451
#     4  12  22  46  66 114 158 180 248 304 384 478
#     4  10  26  44  68  96 140 200 250 304 362 442
#     4  11  23  47  68 106 149 188 252 317 381 461
#     4  12  26  41  73 115 150 197 242 311 393 470
#     4  10  24  46  69  97 145 194 254 306 358 458
#
# _framework density 23.169398999999999
#
# number of rings (size 3 to 8) (size 9 to 14) (size 15 to 20)
#    0.000    0.800    6.000    0.000    5.600    4.000 
#    0.000    3.000    0.000    0.000    0.000    0.000 
#    0.000    0.000    0.000    0.000    0.000    0.000 
#
# Total GULP energy -223488.904162 kJ/mol
# GULP energy per Si atom -5587.222604 kJ/mol
# Density = 2.311666 g / cm^3
# Si number density = 23.169399 Si / 1000 Ang^3
#
#
#
# Elastic Constant Matrix: (Units=GPa)
#
#
# Indices 1 2 3 4 5 6 
#
# 1 93.4750 48.3050 46.2945 0.0000 0.0000 0.0000
# 2 48.3050 111.7274 36.9296 0.0000 0.0000 0.0000
# 3 46.2945 36.9296 109.3753 0.0000 0.0000 0.0000
# 4 0.0000 0.0000 0.0000 36.8573 0.0000 0.0000
# 5 0.0000 0.0000 0.0000 0.0000 66.3006 0.0000
# 6 0.0000 0.0000 0.0000 0.0000 0.0000 35.1834
#
#
#
# Elastic Compliance Matrix: (Units=1/GPa)
#
#
# Indices 1 2 3 4 5 6 
#
# 1 0.015842 -0.005215 -0.004944 0.000000 0.000000 0.000000
# 2 -0.005215 0.011791 -0.001774 0.000000 0.000000 0.000000
# 3 -0.004944 -0.001774 0.011835 0.000000 0.000000 0.000000
# 4 0.000000 0.000000 0.000000 0.027132 0.000000 0.000000
# 5 0.000000 0.000000 0.000000 0.000000 0.015083 0.000000
# 6 0.000000 0.000000 0.000000 0.000000 0.000000 0.028423
#
#
# Mechanical properties :
#
#
# Convention : Reuss Voigt Hill
#
# Bulk Modulus (GPa) = 64.09808 64.18177 64.13993
# Shear Modulus (GPa) = 35.92690 39.87150 37.89920
#
# Velocity S-wave (km/s) = 3.94206 4.15284 4.04882
# Velocity P-wave (km/s) = 6.96023 7.12432 7.04275
#
# Compressibility (1/GPa) = 0.01560109
#
# Stress axis : x y z
#
# Youngs Moduli (GPa) = 63.12463 84.80816 84.49789
#
# Poissons Ratio (x) = 0.44226 0.41780
# Poissons Ratio (y) = 0.32918 0.14990
# Poissons Ratio (z) = 0.31212 0.15045
#
# Static dielectric constant tensor:
#      x y z
#    x 1.905010 0.000000 0.000000 
#    y 0.000000 1.849390 0.000000 
#    z 0.000000 0.000000 1.918600 
# 
# From -- ./inp_files/28810.got.cif
#   From: 2010.05.17/outbox.cif.g08.bks.cpg/sg73_15_cif.got.tgz:28810.got - 2010.06.03 17:35:07.
