data_PCOD9532876
_publ_section_title
;
Structure prediction by ZEFSAII (Michael W. Deem and Ramdas Pophale) SiO2 
 PCOD9532876
Probable space group: I B C A 
;
_chemical_formula_sum "Si O2"
_cell_formula_units_Z 112
_cell_length_a 13.876183
_cell_length_b 26.299833
_cell_length_c 14.546364
_cell_angle_alpha 90.000000
_cell_angle_beta 90.000000
_cell_angle_gamma 90.000000
_cell_volume 5308.568924
_symmetry_space_group_name_H-M "I B C A "
_symmetry_group_IT_number 73
_symmetry_cell_setting 'orthorhombic'
loop_
_space_group_symop_operation_xyz
x,y,z
-x,1/2-y,z
x,-y,1/2-z
1/2-x,y,-z
-x,-y,-z
x,1/2+y,-z
-x,y,1/2+z
1/2+x,-y,z
1/2+x,1/2+y,1/2+z
1/2-x,-y,1/2+z
1/2+x,1/2-y,-z
-x,1/2+y,1/2-z
1/2-x,1/2-y,1/2-z
1/2+x,y,1/2-z
1/2-x,1/2+y,z
x,1/2-y,1/2+z
loop_
_atom_site_type_symbol
_atom_site_label
_atom_site_fract_x
_atom_site_fract_y
_atom_site_fract_z
Si Si1 0.859041 0.763677 0.226155
Si Si2 0.000000 0.250000 0.610233
Si Si3 0.614176 0.846123 0.343432
Si Si4 0.373353 0.000000 0.750000
Si Si5 0.004988 0.145523 0.015625
Si Si6 0.687338 0.145800 0.587557
Si Si7 0.266446 0.589441 0.739070
Si Si8 0.010022 0.914827 0.798414
O O1 0.750000 0.750000 0.250000
O O2 0.917518 0.770864 0.320721
O O3 0.901907 0.712696 0.180754
O O4 0.852228 0.810038 0.155046
O O5 0.031877 0.297143 0.547442
O O6 0.585701 0.853877 0.448300
O O7 0.722545 0.863949 0.319636
O O8 0.545417 0.879895 0.276977
O O9 0.299652 0.041877 0.710677
O O10 0.447388 0.033940 0.808917
O O11 0.988992 0.114498 0.106682
O O12 0.092836 0.122081 0.957855
O O13 0.750000 0.163558 0.500000
O O14 0.745447 0.107690 0.654501
O O15 0.378820 0.577841 0.728705
#
# Coordination Sequence:
#
# PCOD9532876 Si02
#       8
#    16   8  16   8  16  16  16  16
#     4  12  23  40  64  98 142 192 235 281 336 409
#     4  12  24  42  64 102 142 196 238 278 350 408
#     4  11  23  42  66 100 142 186 236 280 347 416
#     4  10  24  44  82 100 124 182 230 290 364 422
#     4  12  24  41  70 100 143 192 231 287 343 423
#     4  12  23  41  67 103 141 191 236 283 347 411
#     4  11  23  46  73  97 135 181 226 294 361 418
#     4  11  23  48  71 101 140 178 230 294 358 421
#
# _framework density 21.097964999999999
#
# number of rings (size 3 to 8) (size 9 to 14) (size 15 to 20)
#    0.000    0.571    4.286    5.571    0.000    0.571 
#    0.000    2.857   12.571    0.000    0.000    0.000 
#    0.000    0.000    0.000    0.000    0.000    0.000 
#
# Total GULP energy -312845.908274 kJ/mol
# GULP energy per Si atom -5586.534076 kJ/mol
# Density = 2.104995 g / cm^3
# Si number density = 21.097965 Si / 1000 Ang^3
#
#
#
# Elastic Constant Matrix: (Units=GPa)
#
#
# Indices 1 2 3 4 5 6 
#
# 1 115.9605 17.4247 28.2616 0.0000 0.0000 0.0000
# 2 17.4247 91.3287 33.0922 0.0000 0.0000 0.0000
# 3 28.2616 33.0922 112.7358 0.0000 0.0000 0.0000
# 4 0.0000 0.0000 0.0000 1.6929 0.0000 0.0000
# 5 0.0000 0.0000 0.0000 0.0000 38.2344 0.0000
# 6 0.0000 0.0000 0.0000 0.0000 0.0000 36.3054
#
#
#
# Elastic Compliance Matrix: (Units=1/GPa)
#
#
# Indices 1 2 3 4 5 6 
#
# 1 0.009272 -0.001037 -0.002020 0.000000 0.000000 0.000000
# 2 -0.001037 0.012369 -0.003371 0.000000 0.000000 0.000000
# 3 -0.002020 -0.003371 0.010366 0.000000 0.000000 0.000000
# 4 0.000000 0.000000 0.000000 0.590703 0.000000 0.000000
# 5 0.000000 0.000000 0.000000 0.000000 0.026154 0.000000
# 6 0.000000 0.000000 0.000000 0.000000 0.000000 0.027544
#
#
# Mechanical properties :
#
#
# Convention : Reuss Voigt Hill
#
# Bulk Modulus (GPa) = 52.21610 53.06466 52.64038
# Shear Modulus (GPa) = 7.18755 31.32963 19.25859
#
# Velocity S-wave (km/s) = 1.84774 3.85770 3.02456
# Velocity P-wave (km/s) = 5.41805 6.71183 6.09934
#
# Compressibility (1/GPa) = 0.01915118
#
# Stress axis : x y z
#
# Youngs Moduli (GPa) = 107.85451 80.84943 96.46840
#
# Poissons Ratio (x) = 0.08385 0.19486
# Poissons Ratio (y) = 0.11185 0.32517
# Poissons Ratio (z) = 0.21786 0.27252
#
# Static dielectric constant tensor:
#      x y z
#    x 1.810040 0.000000 0.000000 
#    y 0.000000 1.800970 0.000000 
#    z 0.000000 0.000000 1.737500 
# 
# From -- ./inp_files/17302.got.cif
#   From: 2010.05.17/outbox.cif.g08.bks.cpg/sg73_9_cif.got.tgz:17302.got - 2010.06.03 17:35:07.
