data_PCOD9532857
_publ_section_title
;
Structure prediction by ZEFSAII (Michael W. Deem and Ramdas Pophale) SiO2 
 PCOD9532857
Probable space group: I B C A 
;
_chemical_formula_sum "Si O2"
_cell_formula_units_Z 72
_cell_length_a 15.192456
_cell_length_b 9.092160
_cell_length_c 21.182024
_cell_angle_alpha 90.000000
_cell_angle_beta 90.000000
_cell_angle_gamma 90.000000
_cell_volume 2925.920439
_symmetry_space_group_name_H-M "I B C A "
_symmetry_group_IT_number 73
_symmetry_cell_setting 'orthorhombic'
loop_
_space_group_symop_operation_xyz
x,y,z
-x,1/2-y,z
x,-y,1/2-z
1/2-x,y,-z
-x,-y,-z
x,1/2+y,-z
-x,y,1/2+z
1/2+x,-y,z
1/2+x,1/2+y,1/2+z
1/2-x,-y,1/2+z
1/2+x,1/2-y,-z
-x,1/2+y,1/2-z
1/2-x,1/2-y,1/2-z
1/2+x,y,1/2-z
1/2-x,1/2+y,z
x,1/2-y,1/2+z
loop_
_atom_site_type_symbol
_atom_site_label
_atom_site_fract_x
_atom_site_fract_y
_atom_site_fract_z
Si Si1 0.592551 0.664916 0.913708
Si Si2 0.750000 0.935793 0.500000
Si Si3 0.168550 0.053465 0.875536
Si Si4 0.581430 0.859905 0.702636
Si Si5 0.847267 0.059888 0.684154
O O1 0.500000 0.750000 0.930957
O O2 0.664653 0.647300 0.969996
O O3 0.635132 0.782832 0.865782
O O4 0.597608 0.511943 0.873993
O O5 0.790032 0.032165 0.443907
O O6 0.247153 0.015180 0.828578
O O7 0.088786 0.942819 0.864343
O O8 0.500000 0.750000 0.713802
O O9 0.654981 0.734805 0.693284
O O10 0.585720 0.000000 0.750000
O O11 0.881765 0.000000 0.750000
#
# Coordination Sequence:
#
# PCOD9532857 Si02
#       5
#    16   8  16  16  16
#     4  11  24  44  71 103 141 188 247 303 360 432
#     4  10  24  44  72 104 144 190 244 304 362 426
#     4  11  24  43  68  99 137 188 241 297 363 432
#     4  12  26  43  67 101 143 184 233 297 365 436
#     4  11  23  42  67  98 139 186 238 300 368 435
#
# _framework density 24.607641999999998
#
# number of rings (size 3 to 8) (size 9 to 14) (size 15 to 20)
#    0.000    0.889    0.000    7.333    0.000    8.000 
#    0.000    1.111    0.000    0.000    0.000    0.000 
#    0.000    0.000    0.000    0.000    0.000    0.000 
#
# Total GULP energy -200547.666238 kJ/mol
# GULP energy per Si atom -5570.768507 kJ/mol
# Density = 2.455163 g / cm^3
# Si number density = 24.607642 Si / 1000 Ang^3
#
#
#
# Elastic Constant Matrix: (Units=GPa)
#
#
# Indices 1 2 3 4 5 6 
#
# 1 164.5156 56.4399 37.7261 0.0000 0.0000 0.0000
# 2 56.4399 177.9035 40.2246 0.0000 0.0000 0.0000
# 3 37.7261 40.2246 97.4176 0.0000 0.0000 0.0000
# 4 0.0000 0.0000 0.0000 33.0626 0.0000 0.0000
# 5 0.0000 0.0000 0.0000 0.0000 9.0188 0.0000
# 6 0.0000 0.0000 0.0000 0.0000 0.0000 44.3691
#
#
#
# Elastic Compliance Matrix: (Units=1/GPa)
#
#
# Indices 1 2 3 4 5 6 
#
# 1 0.007166 -0.001815 -0.002025 0.000000 0.000000 0.000000
# 2 -0.001815 0.006660 -0.002047 0.000000 0.000000 0.000000
# 3 -0.002025 -0.002047 0.011895 0.000000 0.000000 0.000000
# 4 0.000000 0.000000 0.000000 0.030246 0.000000 0.000000
# 5 0.000000 0.000000 0.000000 0.000000 0.110879 0.000000
# 6 0.000000 0.000000 0.000000 0.000000 0.000000 0.022538
#
#
# Mechanical properties :
#
#
# Convention : Reuss Voigt Hill
#
# Bulk Modulus (GPa) = 71.71134 78.73534 75.22334
# Shear Modulus (GPa) = 24.29463 37.65317 30.97390
#
# Velocity S-wave (km/s) = 3.14551 3.91595 3.55168
# Velocity P-wave (km/s) = 6.51133 7.24651 6.88874
#
# Compressibility (1/GPa) = 0.01394480
#
# Stress axis : x y z
#
# Youngs Moduli (GPa) = 139.55362 150.15579 84.07167
#
# Poissons Ratio (x) = 0.27259 0.17028
# Poissons Ratio (y) = 0.25334 0.17208
# Poissons Ratio (z) = 0.28265 0.30735
#
# Static dielectric constant tensor:
#      x y z
#    x 2.011760 0.000000 0.000000 
#    y 0.000000 2.080740 0.000000 
#    z 0.000000 0.000000 1.881490 
# 
# From -- ./inp_files/26336.got.cif
#   From: 2010.05.17/outbox.cif.g08.bks.cpg/sg73_14_cif.got.tgz:26336.got - 2010.06.03 17:35:07.
