data_PCOD9532329
_publ_section_title
;
Structure prediction by ZEFSAII (Michael W. Deem and Ramdas Pophale) SiO2 
 PCOD9532329
Probable space group: I B C A 
;
_chemical_formula_sum "Si O2"
_cell_formula_units_Z 48
_cell_length_a 14.588412
_cell_length_b 8.536256
_cell_length_c 14.221869
_cell_angle_alpha 90.000000
_cell_angle_beta 90.000000
_cell_angle_gamma 90.000000
_cell_volume 1771.055312
_symmetry_space_group_name_H-M "I B C A "
_symmetry_group_IT_number 73
_symmetry_cell_setting 'orthorhombic'
loop_
_space_group_symop_operation_xyz
x,y,z
-x,1/2-y,z
x,-y,1/2-z
1/2-x,y,-z
-x,-y,-z
x,1/2+y,-z
-x,y,1/2+z
1/2+x,-y,z
1/2+x,1/2+y,1/2+z
1/2-x,-y,1/2+z
1/2+x,1/2-y,-z
-x,1/2+y,1/2-z
1/2-x,1/2-y,1/2-z
1/2+x,y,1/2-z
1/2-x,1/2+y,z
x,1/2-y,1/2+z
loop_
_atom_site_type_symbol
_atom_site_label
_atom_site_fract_x
_atom_site_fract_y
_atom_site_fract_z
Si Si1 0.178857 0.000000 0.750000
Si Si2 0.985588 0.058886 0.391715
Si Si3 0.250000 0.180863 0.500000
Si Si4 0.166949 0.580586 0.871793
O O1 0.107818 0.994518 0.661305
O O2 0.257239 0.885470 0.706093
O O3 0.000000 0.250000 0.384472
O O4 0.000000 0.000000 0.500000
O O5 0.065158 0.955892 0.342561
O O6 0.174609 0.288270 0.548907
O O7 0.297542 0.075669 0.577274
#
# Coordination Sequence:
#
# PCOD9532329 Si02
#       4
#     8  16   8  16
#     4  12  28  42  70 108 142 186 232 292 358 412
#     4  12  27  48  75 105 142 190 239 291 353 422
#     4  10  22  44  74  96 134 190 226 286 358 410
#     4  11  23  45  69 100 139 179 236 289 344 419
#
# _framework density 27.102485000000001
#
# number of rings (size 3 to 8) (size 9 to 14) (size 15 to 20)
#    0.000    0.667    0.000    9.000    0.000    9.333 
#    0.000    0.000    0.000    0.000    0.000    0.000 
#    0.000    0.000    0.000    0.000    0.000    0.000 
#
# Total GULP energy -134014.474758 kJ/mol
# GULP energy per Si atom -5583.936448 kJ/mol
# Density = 2.704080 g / cm^3
# Si number density = 27.102485 Si / 1000 Ang^3
#
#
#
# Elastic Constant Matrix: (Units=GPa)
#
#
# Indices 1 2 3 4 5 6 
#
# 1 202.0726 35.0574 37.0353 0.0000 0.0000 0.0000
# 2 35.0574 151.8789 54.2039 0.0000 0.0000 0.0000
# 3 37.0353 54.2039 182.5394 0.0000 0.0000 0.0000
# 4 0.0000 0.0000 0.0000 36.5235 0.0000 0.0000
# 5 0.0000 0.0000 0.0000 0.0000 -27.3444 0.0000
# 6 0.0000 0.0000 0.0000 0.0000 0.0000 8.7858
#
#
#
# Elastic Compliance Matrix: (Units=1/GPa)
#
#
# Indices 1 2 3 4 5 6 
#
# 1 0.005255 -0.000931 -0.000790 0.000000 0.000000 0.000000
# 2 -0.000931 0.007530 -0.002047 0.000000 0.000000 0.000000
# 3 -0.000790 -0.002047 0.006246 0.000000 0.000000 0.000000
# 4 0.000000 0.000000 0.000000 0.027380 0.000000 0.000000
# 5 0.000000 0.000000 0.000000 0.000000 -0.036571 0.000000
# 6 0.000000 0.000000 0.000000 0.000000 0.000000 0.113820
#
#
# Mechanical properties :
#
#
# Convention : Reuss Voigt Hill
#
# Bulk Modulus (GPa) = 86.99149 87.67602 87.33375
# Shear Modulus (GPa) = 37.02949 30.93927 33.98438
#
# Velocity S-wave (km/s) = 3.70033 3.38237 3.54492
# Velocity P-wave (km/s) = 7.10095 6.90463 7.00348
#
# Compressibility (1/GPa) = 0.01149538
#
# Stress axis : x y z
#
# Youngs Moduli (GPa) = 190.29521 132.80806 160.09430
#
# Poissons Ratio (x) = 0.12366 0.12642
# Poissons Ratio (y) = 0.17719 0.32771
# Poissons Ratio (z) = 0.15027 0.27185
#
# Static dielectric constant tensor:
#      x y z
#    x 2.157870 0.000000 0.000000 
#    y 0.000000 2.119330 0.000000 
#    z 0.000000 0.000000 2.257060 
# 
# From -- ./inp_files/4316.got.cif
#   From: 2010.05.17/outbox.cif.g08.bks.cpg/sg73_3_cif.got.tgz:4316.got - 2010.06.03 17:35:07.
