data_PCOD9532520
_publ_section_title
;
Structure prediction by ZEFSAII (Michael W. Deem and Ramdas Pophale) SiO2 
 PCOD9532520
Probable space group: I B C A 
;
_chemical_formula_sum "Si O2"
_cell_formula_units_Z 64
_cell_length_a 9.717832
_cell_length_b 9.014397
_cell_length_c 30.022668
_cell_angle_alpha 90.000000
_cell_angle_beta 90.000000
_cell_angle_gamma 90.000000
_cell_volume 2629.997595
_symmetry_space_group_name_H-M "I B C A "
_symmetry_group_IT_number 73
_symmetry_cell_setting 'orthorhombic'
loop_
_space_group_symop_operation_xyz
x,y,z
-x,1/2-y,z
x,-y,1/2-z
1/2-x,y,-z
-x,-y,-z
x,1/2+y,-z
-x,y,1/2+z
1/2+x,-y,z
1/2+x,1/2+y,1/2+z
1/2-x,-y,1/2+z
1/2+x,1/2-y,-z
-x,1/2+y,1/2-z
1/2-x,1/2-y,1/2-z
1/2+x,y,1/2-z
1/2-x,1/2+y,z
x,1/2-y,1/2+z
loop_
_atom_site_type_symbol
_atom_site_label
_atom_site_fract_x
_atom_site_fract_y
_atom_site_fract_z
Si Si1 0.833135 0.489871 0.202874
Si Si2 0.395077 0.388184 0.974820
Si Si3 0.000000 0.750000 0.669989
Si Si4 0.500000 0.750000 0.167883
Si Si5 0.856129 0.506011 0.620887
O O1 0.756884 0.500000 0.250000
O O2 0.759592 0.529432 0.156924
O O3 0.951936 0.615063 0.201636
O O4 0.881977 0.320015 0.198190
O O5 0.500000 0.250000 0.965424
O O6 0.339680 0.473238 0.930627
O O7 0.250000 0.347487 0.000000
O O8 0.500000 0.500000 0.000000
O O9 0.895864 0.671335 0.635373
O O10 0.469877 0.887845 0.136188
#
# Coordination Sequence:
#
# PCOD9532520 Si02
#       5
#    16  16   8   8  16
#     4  11  24  42  69 104 143 196 251 306 375 452
#     4  12  30  52  84 119 156 202 258 323 397 473
#     4  10  25  42  71  98 148 194 246 309 377 448
#     4  10  23  42  67  96 148 182 246 305 375 446
#     4  11  25  46  72 104 144 195 247 315 378 457
#
# _framework density 24.334622
#
# number of rings (size 3 to 8) (size 9 to 14) (size 15 to 20)
#    0.000    1.000    1.250    3.000    8.750   12.000 
#    0.000    0.000    0.000    0.000    0.000    0.000 
#    0.000    0.000    0.000    0.000    0.000    0.000 
#
# Total GULP energy -178310.076674 kJ/mol
# GULP energy per Si atom -5572.189896 kJ/mol
# Density = 2.427924 g / cm^3
# Si number density = 24.334622 Si / 1000 Ang^3
#
#
#
# Elastic Constant Matrix: (Units=GPa)
#
#
# Indices 1 2 3 4 5 6 
#
# 1 73.6371 13.9882 51.5786 0.0000 0.0000 0.0000
# 2 13.9882 123.8218 32.8205 0.0000 0.0000 0.0000
# 3 51.5786 32.8205 171.3824 0.0000 0.0000 0.0000
# 4 0.0000 0.0000 0.0000 21.9366 0.0000 0.0000
# 5 0.0000 0.0000 0.0000 0.0000 26.9497 0.0000
# 6 0.0000 0.0000 0.0000 0.0000 0.0000 26.8160
#
#
#
# Elastic Compliance Matrix: (Units=1/GPa)
#
#
# Indices 1 2 3 4 5 6 
#
# 1 0.017250 -0.000603 -0.005076 0.000000 0.000000 0.000000
# 2 -0.000603 0.008529 -0.001452 0.000000 0.000000 0.000000
# 3 -0.005076 -0.001452 0.007641 0.000000 0.000000 0.000000
# 4 0.000000 0.000000 0.000000 0.045586 0.000000 0.000000
# 5 0.000000 0.000000 0.000000 0.000000 0.037106 0.000000
# 6 0.000000 0.000000 0.000000 0.000000 0.000000 0.037291
#
#
# Mechanical properties :
#
#
# Convention : Reuss Voigt Hill
#
# Bulk Modulus (GPa) = 52.19847 62.84619 57.52233
# Shear Modulus (GPa) = 28.72717 33.17073 30.94895
#
# Velocity S-wave (km/s) = 3.43958 3.69604 3.57011
# Velocity P-wave (km/s) = 6.10501 6.64049 6.37837
#
# Compressibility (1/GPa) = 0.01915765
#
# Stress axis : x y z
#
# Youngs Moduli (GPa) = 57.97041 117.24578 130.88002
#
# Poissons Ratio (x) = 0.07073 0.66435
# Poissons Ratio (y) = 0.03497 0.19001
# Poissons Ratio (z) = 0.29426 0.17022
#
# Static dielectric constant tensor:
#      x y z
#    x 2.238530 0.000000 0.000000 
#    y 0.000000 1.988710 0.000000 
#    z 0.000000 0.000000 2.013090 
# 
# From -- ./inp_files/4044.got.cif
#   From: 2010.05.17/outbox.cif.g08.bks.cpg/sg73_3_cif.got.tgz:4044.got - 2010.06.03 17:35:07.
