data_PCOD9532067
_publ_section_title
;
Structure prediction by ZEFSAII (Michael W. Deem and Ramdas Pophale) SiO2 
 PCOD9532067
Probable space group: I B C A 
;
_chemical_formula_sum "Si O2"
_cell_formula_units_Z 88
_cell_length_a 13.604759
_cell_length_b 26.212932
_cell_length_c 10.777964
_cell_angle_alpha 90.000000
_cell_angle_beta 90.000000
_cell_angle_gamma 90.000000
_cell_volume 3843.644231
_symmetry_space_group_name_H-M "I B C A "
_symmetry_group_IT_number 73
_symmetry_cell_setting 'orthorhombic'
loop_
_space_group_symop_operation_xyz
x,y,z
-x,1/2-y,z
x,-y,1/2-z
1/2-x,y,-z
-x,-y,-z
x,1/2+y,-z
-x,y,1/2+z
1/2+x,-y,z
1/2+x,1/2+y,1/2+z
1/2-x,-y,1/2+z
1/2+x,1/2-y,-z
-x,1/2+y,1/2-z
1/2-x,1/2-y,1/2-z
1/2+x,y,1/2-z
1/2-x,1/2+y,z
x,1/2-y,1/2+z
loop_
_atom_site_type_symbol
_atom_site_label
_atom_site_fract_x
_atom_site_fract_y
_atom_site_fract_z
Si Si1 0.622302 0.300518 0.650845
Si Si2 0.116830 0.869159 0.375822
Si Si3 0.250000 0.381110 0.000000
Si Si4 0.265880 0.040666 0.145644
Si Si5 0.099555 0.098457 0.696143
Si Si6 0.608354 0.313141 0.126086
O O1 0.622109 0.318277 0.793042
O O2 0.682447 0.343205 0.579458
O O3 0.508687 0.304936 0.610382
O O4 0.655669 0.242601 0.630209
O O5 0.198000 0.909682 0.337241
O O6 0.135760 0.849790 0.513801
O O7 0.011541 0.896448 0.352165
O O8 0.175692 0.412753 0.085919
O O9 0.374815 0.059228 0.192145
O O10 0.234752 0.000000 0.250000
O O11 0.250000 0.026683 0.000000
O O12 0.123185 0.155210 0.748187
#
# Coordination Sequence:
#
# PCOD9532067 Si02
#       6
#    16  16   8  16  16  16
#     4  10  23  35  65 102 143 188 228 282 332 421
#     4  11  23  46  72 101 145 188 236 291 355 428
#     4  12  22  38  62 100 138 180 234 284 340 412
#     4  12  28  51  76 106 140 184 246 314 375 439
#     4  11  25  44  71 102 141 189 232 295 365 424
#     4  10  22  41  63 100 144 190 232 275 345 423
#
# _framework density 22.894939000000001
#
# number of rings (size 3 to 8) (size 9 to 14) (size 15 to 20)
#    0.000    1.091    5.455    0.000    3.818    4.364 
#    0.000    1.818    0.000    0.000    0.000    0.000 
#    0.000    0.000    0.000    0.000    0.000    0.000 
#
# Total GULP energy -245924.317104 kJ/mol
# GULP energy per Si atom -5589.189025 kJ/mol
# Density = 2.284283 g / cm^3
# Si number density = 22.894939 Si / 1000 Ang^3
#
#
#
# Elastic Constant Matrix: (Units=GPa)
#
#
# Indices 1 2 3 4 5 6 
#
# 1 96.9031 23.7446 39.7128 0.0000 0.0000 0.0000
# 2 23.7446 83.6279 23.8757 0.0000 0.0000 0.0000
# 3 39.7128 23.8757 96.0533 0.0002 -0.0001 0.0000
# 4 0.0000 0.0000 0.0002 23.9243 -0.0001 0.0000
# 5 0.0000 0.0000 -0.0001 -0.0001 30.3200 0.0000
# 6 0.0000 0.0000 0.0000 0.0000 0.0000 24.7710
#
#
#
# Elastic Compliance Matrix: (Units=1/GPa)
#
#
# Indices 1 2 3 4 5 6 
#
# 1 0.012819 -0.002289 -0.004731 0.000000 0.000000 0.000000
# 2 -0.002289 0.013280 -0.002355 0.000000 0.000000 0.000000
# 3 -0.004731 -0.002355 0.012952 0.000000 0.000000 0.000000
# 4 0.000000 0.000000 0.000000 0.041799 0.000000 0.000000
# 5 0.000000 0.000000 0.000000 0.000000 0.032981 0.000000
# 6 0.000000 0.000000 0.000000 0.000000 0.000000 0.040370
#
#
# Mechanical properties :
#
#
# Convention : Reuss Voigt Hill
#
# Bulk Modulus (GPa) = 49.25626 50.13896 49.69761
# Shear Modulus (GPa) = 27.82133 28.41981 28.12057
#
# Velocity S-wave (km/s) = 3.48972 3.52705 3.50843
# Velocity P-wave (km/s) = 6.14803 6.20757 6.17787
#
# Compressibility (1/GPa) = 0.02030199
#
# Stress axis : x y z
#
# Youngs Moduli (GPa) = 78.00672 75.30180 77.20694
#
# Poissons Ratio (x) = 0.17237 0.36528
# Poissons Ratio (y) = 0.17857 0.18179
# Poissons Ratio (z) = 0.36906 0.17730
#
# Static dielectric constant tensor:
#      x y z
#    x 1.859490 0.000000 0.000000 
#    y 0.000000 1.837940 0.000000 
#    z 0.000000 0.000000 1.944210 
# 
# From -- ./inp_files/10948.got.cif
#   From: 2010.05.17/outbox.cif.g08.bks.cpg/sg73_6_cif.got.tgz:10948.got - 2010.06.03 17:35:07.
