data_PCOD9532454
_publ_section_title
;
Structure prediction by ZEFSAII (Michael W. Deem and Ramdas Pophale) SiO2 
 PCOD9532454
Probable space group: I B C A 
;
_chemical_formula_sum "Si O2"
_cell_formula_units_Z 48
_cell_length_a 14.541900
_cell_length_b 25.103915
_cell_length_c 5.327295
_cell_angle_alpha 90.000000
_cell_angle_beta 90.000000
_cell_angle_gamma 90.000000
_cell_volume 1944.774969
_symmetry_space_group_name_H-M "I B C A "
_symmetry_group_IT_number 73
_symmetry_cell_setting 'orthorhombic'
loop_
_space_group_symop_operation_xyz
x,y,z
-x,1/2-y,z
x,-y,1/2-z
1/2-x,y,-z
-x,-y,-z
x,1/2+y,-z
-x,y,1/2+z
1/2+x,-y,z
1/2+x,1/2+y,1/2+z
1/2-x,-y,1/2+z
1/2+x,1/2-y,-z
-x,1/2+y,1/2-z
1/2-x,1/2-y,1/2-z
1/2+x,y,1/2-z
1/2-x,1/2+y,z
x,1/2-y,1/2+z
loop_
_atom_site_type_symbol
_atom_site_label
_atom_site_fract_x
_atom_site_fract_y
_atom_site_fract_z
Si Si1 0.190562 0.380834 0.251683
Si Si2 0.467636 0.440077 0.559293
Si Si3 0.604896 0.771387 0.835047
O O1 0.250000 0.372705 0.500000
O O2 0.130229 0.433177 0.308451
O O3 0.118479 0.331707 0.246950
O O4 0.250000 0.383059 0.000000
O O5 0.500000 0.500000 0.500000
O O6 0.466354 0.415904 0.277364
O O7 0.500000 0.750000 0.864319
O O8 0.646989 0.736769 0.610075
#
# Coordination Sequence:
#
# PCOD9532454 Si02
#       3
#    16  16  16
#     4  12  26  43  71 110 148 185 240 316 371 417
#     4  10  23  45  74 103 134 191 242 285 362 458
#     4  10  23  40  65 100 140 198 246 286 354 444
#
# _framework density 24.681521
#
# number of rings (size 3 to 8) (size 9 to 14) (size 15 to 20)
#    0.000    1.333    0.000    4.000    9.333    4.000 
#    0.000   13.333    0.000    0.000    0.000    0.000 
#    0.000    0.000    0.000    0.000    0.000    0.000 
#
# Total GULP energy -133920.630208 kJ/mol
# GULP energy per Si atom -5580.026259 kJ/mol
# Density = 2.462534 g / cm^3
# Si number density = 24.681521 Si / 1000 Ang^3
#
#
#
# Elastic Constant Matrix: (Units=GPa)
#
#
# Indices 1 2 3 4 5 6 
#
# 1 101.1396 50.7499 36.5242 -0.0032 -0.0063 0.0000
# 2 50.7499 106.4919 15.0199 -0.0044 -0.0116 -0.0008
# 3 36.5242 15.0199 244.0812 -0.0202 -0.0294 -0.0035
# 4 -0.0032 -0.0044 -0.0202 25.8191 -0.0032 -0.0008
# 5 -0.0063 -0.0116 -0.0294 -0.0032 38.5753 0.0007
# 6 0.0000 -0.0008 -0.0035 -0.0008 0.0007 45.2949
#
#
#
# Elastic Compliance Matrix: (Units=1/GPa)
#
#
# Indices 1 2 3 4 5 6 
#
# 1 0.013626 -0.006260 -0.001654 -0.000001 -0.000001 0.000000
# 2 -0.006260 0.012349 0.000177 0.000001 0.000003 0.000000
# 3 -0.001654 0.000177 0.004334 0.000003 0.000003 0.000000
# 4 -0.000001 0.000001 0.000003 0.038731 0.000003 0.000001
# 5 -0.000001 0.000003 0.000003 0.000003 0.025923 0.000000
# 6 0.000000 0.000000 0.000000 0.000001 0.000000 0.022078
#
#
# Mechanical properties :
#
#
# Convention : Reuss Voigt Hill
#
# Bulk Modulus (GPa) = 67.41277 72.92228 70.16753
# Shear Modulus (GPa) = 36.37448 45.23245 40.80346
#
# Velocity S-wave (km/s) = 3.84311 4.28558 4.07037
# Velocity P-wave (km/s) = 6.86040 7.35512 7.11206
#
# Compressibility (1/GPa) = 0.01483398
#
# Stress axis : x y z
#
# Youngs Moduli (GPa) = 73.39010 80.97922 230.75626
#
# Poissons Ratio (x) = 0.50695 0.38161
# Poissons Ratio (y) = 0.45944 -0.04082
# Poissons Ratio (z) = 0.12137 -0.01432
#
# Static dielectric constant tensor:
#      x y z
#    x 1.179530 -0.000020 -0.000040 
#    y -0.000020 2.070600 -0.000020 
#    z -0.000040 -0.000020 2.112710 
# 
# From -- ./inp_files/558.got.cif
#   From: 2010.05.17/outbox.cif.g08.bks.cpg/sg73_1_cif.got.tgz:558.got - 2010.06.03 17:35:07.
