data_PCOD9532320
_publ_section_title
;
Structure prediction by ZEFSAII (Michael W. Deem and Ramdas Pophale) SiO2 
 PCOD9532320
Probable space group: I B C A 
;
_chemical_formula_sum "Si O2"
_cell_formula_units_Z 88
_cell_length_a 15.982593
_cell_length_b 27.537594
_cell_length_c 9.959717
_cell_angle_alpha 90.000000
_cell_angle_beta 90.000000
_cell_angle_gamma 90.000000
_cell_volume 4383.492130
_symmetry_space_group_name_H-M "I B C A "
_symmetry_group_IT_number 73
_symmetry_cell_setting 'orthorhombic'
loop_
_space_group_symop_operation_xyz
x,y,z
-x,1/2-y,z
x,-y,1/2-z
1/2-x,y,-z
-x,-y,-z
x,1/2+y,-z
-x,y,1/2+z
1/2+x,-y,z
1/2+x,1/2+y,1/2+z
1/2-x,-y,1/2+z
1/2+x,1/2-y,-z
-x,1/2+y,1/2-z
1/2-x,1/2-y,1/2-z
1/2+x,y,1/2-z
1/2-x,1/2+y,z
x,1/2-y,1/2+z
loop_
_atom_site_type_symbol
_atom_site_label
_atom_site_fract_x
_atom_site_fract_y
_atom_site_fract_z
Si Si1 0.404934 0.832481 0.579916
Si Si2 0.489217 0.629303 0.346009
Si Si3 0.342460 0.630878 0.557032
Si Si4 0.689498 0.763011 0.628290
Si Si5 0.376343 0.555749 0.790799
Si Si6 0.750000 0.398234 0.000000
O O1 0.448023 0.837222 0.434002
O O2 0.464676 0.853886 0.696439
O O3 0.381140 0.777623 0.614502
O O4 0.318624 0.863690 0.572750
O O5 0.405383 0.629143 0.432959
O O6 0.535723 0.577278 0.344833
O O7 0.250000 0.626353 0.500000
O O8 0.346864 0.682855 0.631859
O O9 0.359742 0.588326 0.660381
O O10 0.750000 0.760610 0.500000
O O11 0.750000 0.750000 0.750000
O O12 0.379083 0.500000 0.750000
O O13 0.303617 0.569150 0.897130
#
# Coordination Sequence:
#
# PCOD9532320 Si02
#       6
#    16  16  16  16  16   8
#     4  11  22  44  69  99 143 181 222 280 346 415
#     4  11  24  45  66 102 141 178 224 292 343 404
#     4  11  24  45  68  99 138 175 236 280 336 418
#     4  11  23  40  68 100 134 183 225 275 337 406
#     4  11  25  45  69 101 132 181 230 290 347 400
#     4  10  22  44  72  98 136 178 234 276 340 420
#
# _framework density 20.075317999999999
#
# number of rings (size 3 to 8) (size 9 to 14) (size 15 to 20)
#    0.000    1.091    2.727    4.364    3.818    1.455 
#    3.273    0.909    0.000    0.000    0.000    0.000 
#    0.000    0.000    0.000    0.000    0.000    0.000 
#
# Total GULP energy -246058.066681 kJ/mol
# GULP energy per Si atom -5592.228788 kJ/mol
# Density = 2.002963 g / cm^3
# Si number density = 20.075318 Si / 1000 Ang^3
#
#
#
# Elastic Constant Matrix: (Units=GPa)
#
#
# Indices 1 2 3 4 5 6 
#
# 1 121.5886 47.8478 29.1716 0.0001 -0.0001 0.0000
# 2 47.8478 165.1167 39.7658 0.0007 -0.0002 0.0001
# 3 29.1716 39.7658 104.3688 0.0027 -0.0006 0.0001
# 4 0.0001 0.0007 0.0027 28.0990 -0.0001 0.0001
# 5 -0.0001 -0.0002 -0.0006 -0.0001 52.4204 0.0001
# 6 0.0000 0.0001 0.0001 0.0001 0.0001 14.8622
#
#
#
# Elastic Compliance Matrix: (Units=1/GPa)
#
#
# Indices 1 2 3 4 5 6 
#
# 1 0.009575 -0.002345 -0.001783 0.000000 0.000000 0.000000
# 2 -0.002345 0.007243 -0.002104 0.000000 0.000000 0.000000
# 3 -0.001783 -0.002104 0.010881 -0.000001 0.000000 0.000000
# 4 0.000000 0.000000 -0.000001 0.035588 0.000000 0.000000
# 5 0.000000 0.000000 0.000000 0.000000 0.019077 0.000000
# 6 0.000000 0.000000 0.000000 0.000000 0.000000 0.067285
#
#
# Mechanical properties :
#
#
# Convention : Reuss Voigt Hill
#
# Bulk Modulus (GPa) = 65.63825 69.40493 67.52159
# Shear Modulus (GPa) = 29.90586 37.36226 33.63406
#
# Velocity S-wave (km/s) = 3.86383 4.31873 4.09760
# Velocity P-wave (km/s) = 7.25758 7.71466 7.48961
#
# Compressibility (1/GPa) = 0.01523502
#
# Stress axis : x y z
#
# Youngs Moduli (GPa) = 104.43750 138.07032 91.90055
#
# Poissons Ratio (x) = 0.32382 0.16383
# Poissons Ratio (y) = 0.24494 0.19336
# Poissons Ratio (z) = 0.18618 0.29050
#
# Static dielectric constant tensor:
#      x y z
#    x 1.724290 0.000000 0.000000 
#    y 0.000000 1.682670 0.000000 
#    z 0.000000 0.000000 1.633730 
# 
# From -- ./inp_files/10985.got.cif
#   From: 2010.05.17/outbox.cif.g08.bks.cpg/sg73_6_cif.got.tgz:10985.got - 2010.06.03 17:35:07.
