data_PCOD9532390
_publ_section_title
;
Structure prediction by ZEFSAII (Michael W. Deem and Ramdas Pophale) SiO2 
 PCOD9532390
Probable space group: I B C A 
;
_chemical_formula_sum "Si O2"
_cell_formula_units_Z 88
_cell_length_a 16.623321
_cell_length_b 10.824713
_cell_length_c 19.573377
_cell_angle_alpha 90.000000
_cell_angle_beta 90.000000
_cell_angle_gamma 90.000000
_cell_volume 3522.085893
_symmetry_space_group_name_H-M "I B C A "
_symmetry_group_IT_number 73
_symmetry_cell_setting 'orthorhombic'
loop_
_space_group_symop_operation_xyz
x,y,z
-x,1/2-y,z
x,-y,1/2-z
1/2-x,y,-z
-x,-y,-z
x,1/2+y,-z
-x,y,1/2+z
1/2+x,-y,z
1/2+x,1/2+y,1/2+z
1/2-x,-y,1/2+z
1/2+x,1/2-y,-z
-x,1/2+y,1/2-z
1/2-x,1/2-y,1/2-z
1/2+x,y,1/2-z
1/2-x,1/2+y,z
x,1/2-y,1/2+z
loop_
_atom_site_type_symbol
_atom_site_label
_atom_site_fract_x
_atom_site_fract_y
_atom_site_fract_z
Si Si1 0.609215 0.415108 0.367365
Si Si2 0.229499 0.132373 0.847461
Si Si3 0.370342 0.795795 0.739204
Si Si4 0.905883 0.961035 0.510867
Si Si5 0.031609 0.615147 0.645027
Si Si6 0.250000 0.363578 0.500000
O O1 0.687996 0.498667 0.353907
O O2 0.600354 0.306553 0.314106
O O3 0.608817 0.371299 0.446299
O O4 0.537586 0.513478 0.358698
O O5 0.311599 0.121061 0.805699
O O6 0.176087 0.221645 0.799586
O O7 0.242155 0.190403 0.923023
O O8 0.437402 0.869550 0.778848
O O9 0.902591 0.915089 0.587900
O O10 0.834330 0.059987 0.503849
O O11 0.000000 0.000000 0.500000
O O12 0.000000 0.750000 0.623901
#
# Coordination Sequence:
#
# PCOD9532390 Si02
#       6
#    16  16  16  16  16   8
#     4  10  22  48  69  98 150 181 235 306 359 430
#     4  10  23  43  67  99 142 179 245 285 364 433
#     4  11  24  43  68 106 140 192 222 303 372 432
#     4   9  22  45  71  98 140 193 235 300 363 422
#     4  11  23  44  70 103 142 191 244 292 368 442
#     4  10  22  46  74 106 132 196 246 302 358 430
#
# _framework density 24.985194
#
# number of rings (size 3 to 8) (size 9 to 14) (size 15 to 20)
#    0.000    1.818    1.818    0.545    0.000    8.727 
#    9.818    0.909    0.000    0.000    0.000    0.000 
#    0.000    0.000    0.000    0.000    0.000    0.000 
#
# Total GULP energy -246179.164781 kJ/mol
# GULP energy per Si atom -5594.981018 kJ/mol
# Density = 2.492833 g / cm^3
# Si number density = 24.985194 Si / 1000 Ang^3
#
#
#
# Elastic Constant Matrix: (Units=GPa)
#
#
# Indices 1 2 3 4 5 6 
#
# 1 91.5975 32.5966 32.1451 0.0000 0.0000 0.0000
# 2 32.5966 61.3863 43.2010 0.0000 0.0000 0.0000
# 3 32.1451 43.2010 176.5874 0.0000 0.0000 0.0000
# 4 0.0000 0.0000 0.0000 -25.0986 0.0000 0.0000
# 5 0.0000 0.0000 0.0000 0.0000 55.8104 0.0000
# 6 0.0000 0.0000 0.0000 0.0000 0.0000 24.9743
#
#
#
# Elastic Compliance Matrix: (Units=1/GPa)
#
#
# Indices 1 2 3 4 5 6 
#
# 1 0.013567 -0.006603 -0.000854 0.000000 0.000000 0.000000
# 2 -0.006603 0.022892 -0.004398 0.000000 0.000000 0.000000
# 3 -0.000854 -0.004398 0.006894 0.000000 0.000000 0.000000
# 4 0.000000 0.000000 0.000000 -0.039843 0.000000 0.000000
# 5 0.000000 0.000000 0.000000 0.000000 0.017918 0.000000
# 6 0.000000 0.000000 0.000000 0.000000 0.000000 0.040041
#
#
# Mechanical properties :
#
#
# Convention : Reuss Voigt Hill
#
# Bulk Modulus (GPa) = 50.91118 60.60628 55.75873
# Shear Modulus (GPa) = 54.50901 25.91246 40.21073
#
# Velocity S-wave (km/s) = 4.67588 3.22392 4.01606
# Velocity P-wave (km/s) = 7.04078 6.17800 6.62346
#
# Compressibility (1/GPa) = 0.01964205
#
# Stress axis : x y z
#
# Youngs Moduli (GPa) = 73.70884 43.68359 145.04383
#
# Poissons Ratio (x) = 0.28844 0.12391
# Poissons Ratio (y) = 0.48669 0.63796
# Poissons Ratio (z) = 0.06297 0.19214
#
# Static dielectric constant tensor:
#      x y z
#    x 2.420610 0.000000 0.000000 
#    y 0.000000 1.961450 0.000000 
#    z 0.000000 0.000000 1.916080 
# 
# From -- ./inp_files/26424.got.cif
#   From: 2010.05.17/outbox.cif.g08.bks.cpg/sg73_14_cif.got.tgz:26424.got - 2010.06.03 17:35:07.
