data_PCOD9532447
_publ_section_title
;
Structure prediction by ZEFSAII (Michael W. Deem and Ramdas Pophale) SiO2 
 PCOD9532447
Probable space group: I B C A 
;
_chemical_formula_sum "Si O2"
_cell_formula_units_Z 72
_cell_length_a 21.409760
_cell_length_b 16.917707
_cell_length_c 8.165492
_cell_angle_alpha 90.000000
_cell_angle_beta 90.000000
_cell_angle_gamma 90.000000
_cell_volume 2957.574245
_symmetry_space_group_name_H-M "I B C A "
_symmetry_group_IT_number 73
_symmetry_cell_setting 'orthorhombic'
loop_
_space_group_symop_operation_xyz
x,y,z
-x,1/2-y,z
x,-y,1/2-z
1/2-x,y,-z
-x,-y,-z
x,1/2+y,-z
-x,y,1/2+z
1/2+x,-y,z
1/2+x,1/2+y,1/2+z
1/2-x,-y,1/2+z
1/2+x,1/2-y,-z
-x,1/2+y,1/2-z
1/2-x,1/2-y,1/2-z
1/2+x,y,1/2-z
1/2-x,1/2+y,z
x,1/2-y,1/2+z
loop_
_atom_site_type_symbol
_atom_site_label
_atom_site_fract_x
_atom_site_fract_y
_atom_site_fract_z
Si Si1 0.823746 0.500000 0.750000
Si Si2 0.113926 0.361414 0.450497
Si Si3 0.358717 0.701038 0.311886
Si Si4 0.505849 0.500000 0.250000
Si Si5 0.250000 0.112688 0.500000
Si Si6 0.467209 0.385430 0.004535
O O1 0.861250 0.554916 0.618032
O O2 0.783063 0.442217 0.635859
O O3 0.139834 0.335383 0.629720
O O4 0.136498 0.295496 0.320202
O O5 0.038962 0.358327 0.483025
O O6 0.299720 0.667294 0.407275
O O7 0.418985 0.674718 0.420330
O O8 0.461369 0.536884 0.384206
O O9 0.540878 0.575426 0.172865
#
# Coordination Sequence:
#
# PCOD9532447 Si02
#       6
#     8  16  16   8   8  16
#     4  12  29  51  80 108 149 196 257 312 380 453
#     4  12  28  49  80 112 150 198 250 323 381 452
#     4  12  29  49  75 110 156 199 257 307 381 457
#     4  10  23  39  72 116 157 186 243 304 388 437
#     4  12  30  50  78 110 148 206 252 310 374 456
#     4  11  24  43  75 114 152 194 242 314 380 448
#
# _framework density 24.344273999999999
#
# number of rings (size 3 to 8) (size 9 to 14) (size 15 to 20)
#    0.000    0.444    2.222    4.000   12.444    7.111 
#    0.000    0.000    0.000    0.000    0.000    0.000 
#    0.000    0.000    0.000    0.000    0.000    0.000 
#
# Total GULP energy -201432.719926 kJ/mol
# GULP energy per Si atom -5595.353331 kJ/mol
# Density = 2.428886 g / cm^3
# Si number density = 24.344274 Si / 1000 Ang^3
#
#
#
# Elastic Constant Matrix: (Units=GPa)
#
#
# Indices 1 2 3 4 5 6 
#
# 1 132.0531 62.5038 42.6234 0.0000 0.0000 0.0000
# 2 62.5038 146.9657 38.9275 0.0000 0.0000 0.0000
# 3 42.6234 38.9275 142.4141 0.0000 0.0000 0.0000
# 4 0.0000 0.0000 0.0000 50.8985 0.0000 0.0000
# 5 0.0000 0.0000 0.0000 0.0000 39.2663 0.0000
# 6 0.0000 0.0000 0.0000 0.0000 0.0000 2.8071
#
#
#
# Elastic Compliance Matrix: (Units=1/GPa)
#
#
# Indices 1 2 3 4 5 6 
#
# 1 0.009967 -0.003718 -0.001967 0.000000 0.000000 0.000000
# 2 -0.003718 0.008722 -0.001271 0.000000 0.000000 0.000000
# 3 -0.001967 -0.001271 0.007958 0.000000 0.000000 0.000000
# 4 0.000000 0.000000 0.000000 0.019647 0.000000 0.000000
# 5 0.000000 0.000000 0.000000 0.000000 0.025467 0.000000
# 6 0.000000 0.000000 0.000000 0.000000 0.000000 0.356239
#
#
# Mechanical properties :
#
#
# Convention : Reuss Voigt Hill
#
# Bulk Modulus (GPa) = 78.52346 78.83803 78.68075
# Shear Modulus (GPa) = 11.20677 37.08626 24.14651
#
# Velocity S-wave (km/s) = 2.14789 3.90732 3.15282
# Velocity P-wave (km/s) = 6.20296 7.26713 6.75603
#
# Compressibility (1/GPa) = 0.01273505
#
# Stress axis : x y z
#
# Youngs Moduli (GPa) = 100.32667 114.64780 125.66035
#
# Poissons Ratio (x) = 0.42628 0.24716
# Poissons Ratio (y) = 0.37303 0.15976
# Poissons Ratio (z) = 0.19733 0.14576
#
# Static dielectric constant tensor:
#      x y z
#    x 1.970930 0.000000 0.000000 
#    y 0.000000 1.970940 0.000000 
#    z 0.000000 0.000000 2.057760 
# 
# From -- ./inp_files/6037.got.cif
#   From: 2010.05.17/outbox.cif.g08.bks.cpg/sg73_4_cif.got.tgz:6037.got - 2010.06.03 17:35:07.
