data_PCOD9532863
_publ_section_title
;
Structure prediction by ZEFSAII (Michael W. Deem and Ramdas Pophale) SiO2 
 PCOD9532863
Probable space group: I B C A 
;
_chemical_formula_sum "Si O2"
_cell_formula_units_Z 112
_cell_length_a 13.405547
_cell_length_b 26.300071
_cell_length_c 15.456140
_cell_angle_alpha 90.000000
_cell_angle_beta 90.000000
_cell_angle_gamma 90.000000
_cell_volume 5449.322406
_symmetry_space_group_name_H-M "I B C A "
_symmetry_group_IT_number 73
_symmetry_cell_setting 'orthorhombic'
loop_
_space_group_symop_operation_xyz
x,y,z
-x,1/2-y,z
x,-y,1/2-z
1/2-x,y,-z
-x,-y,-z
x,1/2+y,-z
-x,y,1/2+z
1/2+x,-y,z
1/2+x,1/2+y,1/2+z
1/2-x,-y,1/2+z
1/2+x,1/2-y,-z
-x,1/2+y,1/2-z
1/2-x,1/2-y,1/2-z
1/2+x,y,1/2-z
1/2-x,1/2+y,z
x,1/2-y,1/2+z
loop_
_atom_site_type_symbol
_atom_site_label
_atom_site_fract_x
_atom_site_fract_y
_atom_site_fract_z
Si Si1 0.750000 0.352274 0.000000
Si Si2 0.008300 0.636116 0.822747
Si Si3 0.169700 0.437306 0.621117
Si Si4 0.909819 0.967488 0.535224
Si Si5 0.678989 0.085534 0.871167
Si Si6 0.032097 0.692220 0.999691
Si Si7 0.781610 0.000000 0.250000
Si Si8 0.092436 0.876563 0.135023
O O1 0.730247 0.391474 0.921493
O O2 0.850883 0.320557 0.982866
O O3 0.061241 0.586006 0.863098
O O4 0.059589 0.643482 0.729613
O O5 0.892368 0.623426 0.818858
O O6 0.020193 0.677789 0.898052
O O7 0.165797 0.488996 0.566419
O O8 0.215477 0.455246 0.710308
O O9 0.861998 0.928280 0.466745
O O10 0.947957 0.933481 0.615451
O O11 0.000000 0.000000 0.500000
O O12 0.664953 0.030559 0.824991
O O13 0.788381 0.111766 0.872301
O O14 0.000000 0.750000 0.013344
O O15 0.960537 0.658475 0.062060
#
# Coordination Sequence:
#
# PCOD9532863 Si02
#       8
#     8  16  16  16  16  16   8  16
#     4  10  24  44  72  98 136 182 232 286 362 426
#     4  11  25  43  67  97 140 182 234 294 361 422
#     4  11  20  40  58  97 142 185 231 276 331 432
#     4  12  22  39  64 100 145 197 235 280 336 416
#     4  12  25  39  65 100 145 194 238 288 342 417
#     4  11  27  50  77 103 132 179 241 317 373 437
#     4  12  24  32  62  98 140 196 236 262 336 410
#     4  12  26  45  67 105 142 183 241 295 361 420
#
# _framework density 20.553013
#
# number of rings (size 3 to 8) (size 9 to 14) (size 15 to 20)
#    0.000    0.571    5.714    2.143    4.000    2.286 
#    0.000    0.000    0.000    4.286    0.000    0.000 
#    0.000    0.000    0.000    0.000    0.000    0.000 
#
# Total GULP energy -312275.292370 kJ/mol
# GULP energy per Si atom -5576.344507 kJ/mol
# Density = 2.050623 g / cm^3
# Si number density = 20.553013 Si / 1000 Ang^3
#
#
#
# Elastic Constant Matrix: (Units=GPa)
#
#
# Indices 1 2 3 4 5 6 
#
# 1 103.8669 52.2054 52.2480 0.0000 0.0000 0.0000
# 2 52.2054 119.1166 39.8451 0.0000 0.0000 0.0000
# 3 52.2480 39.8451 111.0459 0.0000 0.0000 0.0000
# 4 0.0000 0.0000 0.0000 5.1476 0.0000 0.0000
# 5 0.0000 0.0000 0.0000 0.0000 17.7044 0.0000
# 6 0.0000 0.0000 0.0000 0.0000 0.0000 23.6802
#
#
#
# Elastic Compliance Matrix: (Units=1/GPa)
#
#
# Indices 1 2 3 4 5 6 
#
# 1 0.014576 -0.004653 -0.005189 0.000000 0.000000 0.000000
# 2 -0.004653 0.011025 -0.001767 0.000000 0.000000 0.000000
# 3 -0.005189 -0.001767 0.012081 0.000000 0.000000 0.000000
# 4 0.000000 0.000000 0.000000 0.194267 0.000000 0.000000
# 5 0.000000 0.000000 0.000000 0.000000 0.056483 0.000000
# 6 0.000000 0.000000 0.000000 0.000000 0.000000 0.042229
#
#
# Mechanical properties :
#
#
# Convention : Reuss Voigt Hill
#
# Bulk Modulus (GPa) = 69.13034 69.18071 69.15552
# Shear Modulus (GPa) = 13.93920 21.95515 17.94718
#
# Velocity S-wave (km/s) = 2.60707 3.27191 2.95823
# Velocity P-wave (km/s) = 6.53992 6.92868 6.73710
#
# Compressibility (1/GPa) = 0.01446543
#
# Stress axis : x y z
#
# Youngs Moduli (GPa) = 68.60416 90.70013 82.77679
#
# Poissons Ratio (x) = 0.42200 0.42951
# Poissons Ratio (y) = 0.31920 0.14626
# Poissons Ratio (z) = 0.35598 0.16026
#
# Static dielectric constant tensor:
#      x y z
#    x 1.846450 0.000000 0.000000 
#    y 0.000000 1.691380 0.000000 
#    z 0.000000 0.000000 1.724200 
# 
# From -- ./inp_files/17306.got.cif
#   From: 2010.05.17/outbox.cif.g08.bks.cpg/sg73_9_cif.got.tgz:17306.got - 2010.06.03 17:35:07.
