data_PCOD9532439
_publ_section_title
;
Structure prediction by ZEFSAII (Michael W. Deem and Ramdas Pophale) SiO2 
 PCOD9532439
Probable space group: I B C A 
;
_chemical_formula_sum "Si O2"
_cell_formula_units_Z 96
_cell_length_a 16.719708
_cell_length_b 13.091464
_cell_length_c 19.315991
_cell_angle_alpha 90.000000
_cell_angle_beta 90.000000
_cell_angle_gamma 90.000000
_cell_volume 4227.989486
_symmetry_space_group_name_H-M "I B C A "
_symmetry_group_IT_number 73
_symmetry_cell_setting 'orthorhombic'
loop_
_space_group_symop_operation_xyz
x,y,z
-x,1/2-y,z
x,-y,1/2-z
1/2-x,y,-z
-x,-y,-z
x,1/2+y,-z
-x,y,1/2+z
1/2+x,-y,z
1/2+x,1/2+y,1/2+z
1/2-x,-y,1/2+z
1/2+x,1/2-y,-z
-x,1/2+y,1/2-z
1/2-x,1/2-y,1/2-z
1/2+x,y,1/2-z
1/2-x,1/2+y,z
x,1/2-y,1/2+z
loop_
_atom_site_type_symbol
_atom_site_label
_atom_site_fract_x
_atom_site_fract_y
_atom_site_fract_z
Si Si1 0.874302 0.513416 0.555084
Si Si2 0.598724 0.282713 0.757205
Si Si3 0.644025 0.719635 0.383361
Si Si4 0.267225 0.580100 0.199941
Si Si5 0.312244 0.445853 0.082041
Si Si6 0.549697 0.915564 0.689511
O O1 0.885751 0.635874 0.561634
O O2 0.781516 0.476249 0.568937
O O3 0.877020 0.480817 0.475190
O O4 0.930090 0.463792 0.614668
O O5 0.583759 0.251102 0.677804
O O6 0.679100 0.346036 0.755285
O O7 0.611382 0.177801 0.798721
O O8 0.532142 0.352560 0.794282
O O9 0.710306 0.651002 0.344557
O O10 0.679230 0.824279 0.412677
O O11 0.224088 0.500000 0.250000
O O12 0.324911 0.511892 0.151257
O O13 0.552463 0.000000 0.750000
#
# Coordination Sequence:
#
# PCOD9532439 Si02
#       6
#    16  16  16  16  16  16
#     4  10  23  41  63  92 135 177 226 274 347 420
#     4  11  23  38  63  97 129 168 226 277 336 405
#     4  11  22  38  65  97 133 172 221 287 356 398
#     4  11  22  36  65 101 138 169 223 288 348 411
#     4  10  23  39  63  98 133 176 215 287 344 417
#     4  11  23  40  65  91 129 177 226 278 329 407
#
# _framework density 22.705826999999999
#
# number of rings (size 3 to 8) (size 9 to 14) (size 15 to 20)
#    0.000    1.333    3.333    2.000    4.667    6.667 
#    0.000    0.833    0.000    2.000    0.000    0.000 
#    0.000    0.000    0.000    0.000    0.000    0.000 
#
# Total GULP energy -267638.543832 kJ/mol
# GULP energy per Si atom -5575.802997 kJ/mol
# Density = 2.265415 g / cm^3
# Si number density = 22.705827 Si / 1000 Ang^3
#
#
#
# Elastic Constant Matrix: (Units=GPa)
#
#
# Indices 1 2 3 4 5 6 
#
# 1 46.9352 40.1724 13.5681 0.0000 0.0000 0.0000
# 2 40.1724 164.5039 49.0894 0.0000 0.0000 0.0000
# 3 13.5681 49.0894 100.4081 0.0000 0.0000 0.0000
# 4 0.0000 0.0000 0.0000 35.2042 0.0000 0.0000
# 5 0.0000 0.0000 0.0000 0.0000 12.2573 0.0000
# 6 0.0000 0.0000 0.0000 0.0000 0.0000 18.1823
#
#
#
# Elastic Compliance Matrix: (Units=1/GPa)
#
#
# Indices 1 2 3 4 5 6 
#
# 1 0.026957 -0.006435 -0.000497 0.000000 0.000000 0.000000
# 2 -0.006435 0.008653 -0.003361 0.000000 0.000000 0.000000
# 3 -0.000497 -0.003361 0.011670 0.000000 0.000000 0.000000
# 4 0.000000 0.000000 0.000000 0.028406 0.000000 0.000000
# 5 0.000000 0.000000 0.000000 0.000000 0.081584 0.000000
# 6 0.000000 0.000000 0.000000 0.000000 0.000000 0.054998
#
#
# Mechanical properties :
#
#
# Convention : Reuss Voigt Hill
#
# Bulk Modulus (GPa) = 37.46023 57.50077 47.48050
# Shear Modulus (GPa) = 20.68238 27.06326 23.87282
#
# Velocity S-wave (km/s) = 3.02136 3.45615 3.24604
# Velocity P-wave (km/s) = 5.35774 6.42696 5.91655
#
# Compressibility (1/GPa) = 0.02669498
#
# Stress axis : x y z
#
# Youngs Moduli (GPa) = 37.09581 115.56363 85.69210
#
# Poissons Ratio (x) = 0.74363 0.04257
# Poissons Ratio (y) = 0.23870 0.28801
# Poissons Ratio (z) = 0.01843 0.38841
#
# Static dielectric constant tensor:
#      x y z
#    x 1.907190 0.000000 0.000000 
#    y 0.000000 1.842650 0.000000 
#    z 0.000000 0.000000 2.099610 
# 
# From -- ./inp_files/23543.got.cif
#   From: 2010.05.17/outbox.cif.g08.bks.cpg/sg73_12_cif.got.tgz:23543.got - 2010.06.03 17:35:07.
