data_PCOD9532643
_publ_section_title
;
Structure prediction by ZEFSAII (Michael W. Deem and Ramdas Pophale) SiO2 
 PCOD9532643
Probable space group: I B C A 
;
_chemical_formula_sum "Si O2"
_cell_formula_units_Z 112
_cell_length_a 32.302732
_cell_length_b 12.186712
_cell_length_c 12.245347
_cell_angle_alpha 90.000000
_cell_angle_beta 90.000000
_cell_angle_gamma 90.000000
_cell_volume 4820.553404
_symmetry_space_group_name_H-M "I B C A "
_symmetry_group_IT_number 73
_symmetry_cell_setting 'orthorhombic'
loop_
_space_group_symop_operation_xyz
x,y,z
-x,1/2-y,z
x,-y,1/2-z
1/2-x,y,-z
-x,-y,-z
x,1/2+y,-z
-x,y,1/2+z
1/2+x,-y,z
1/2+x,1/2+y,1/2+z
1/2-x,-y,1/2+z
1/2+x,1/2-y,-z
-x,1/2+y,1/2-z
1/2-x,1/2-y,1/2-z
1/2+x,y,1/2-z
1/2-x,1/2+y,z
x,1/2-y,1/2+z
loop_
_atom_site_type_symbol
_atom_site_label
_atom_site_fract_x
_atom_site_fract_y
_atom_site_fract_z
Si Si1 0.224748 0.632043 0.775908
Si Si2 0.636639 0.093271 0.913538
Si Si3 0.943870 0.534358 0.574284
Si Si4 0.908634 0.248251 0.421453
Si Si5 0.205684 0.057874 0.991715
Si Si6 0.968543 0.076018 0.849226
Si Si7 0.828371 0.300476 0.797672
O O1 0.234905 0.500000 0.750000
O O2 0.250000 0.750000 0.750000
O O3 0.209862 0.632941 0.901714
O O4 0.184898 0.672985 0.707790
O O5 0.666646 0.138465 0.818442
O O6 0.596006 0.026187 0.875222
O O7 0.665766 0.017058 0.988120
O O8 0.617165 0.185211 0.989804
O O9 0.930170 0.647743 0.519284
O O10 0.958550 0.461945 0.472793
O O11 0.981643 0.568998 0.651977
O O12 0.942816 0.311939 0.350168
O O13 0.874475 0.198681 0.342350
O O14 0.200494 0.129098 0.880705
O O15 0.250000 0.995434 0.000000
O O16 0.953527 0.000000 0.750000
#
# Coordination Sequence:
#
# PCOD9532643 Si02
#       7
#    16  16  16  16  16  16  16
#     4  12  29  52  78 112 151 204 255 325 400 473
#     4  11  26  46  78 106 154 206 260 329 398 476
#     4  10  23  46  68 107 152 194 256 320 383 476
#     4  11  24  44  70 107 148 197 254 317 394 477
#     4  12  26  48  76 108 151 195 264 323 391 478
#     4  10  24  42  71 106 147 200 256 316 392 464
#     4  12  26  47  76 113 147 203 261 319 404 464
#
# _framework density 23.233846
#
# number of rings (size 3 to 8) (size 9 to 14) (size 15 to 20)
#    0.000    0.857    2.857    2.571    6.000    1.714 
#    0.000    1.429    0.000    0.000    0.000    0.000 
#    0.000    0.000    0.000    0.000    0.000    0.000 
#
# Total GULP energy -311834.570137 kJ/mol
# GULP energy per Si atom -5568.474467 kJ/mol
# Density = 2.318096 g / cm^3
# Si number density = 23.233846 Si / 1000 Ang^3
#
#
#
# Elastic Constant Matrix: (Units=GPa)
#
#
# Indices 1 2 3 4 5 6 
#
# 1 108.3977 39.8124 20.5300 0.0000 0.0000 0.0000
# 2 39.8124 110.2447 36.3971 0.0000 0.0000 0.0000
# 3 20.5300 36.3971 90.6363 0.0000 0.0000 0.0000
# 4 0.0000 0.0000 0.0000 32.0811 0.0000 0.0000
# 5 0.0000 0.0000 0.0000 0.0000 103.6320 0.0000
# 6 0.0000 0.0000 0.0000 0.0000 0.0000 30.9219
#
#
#
# Elastic Compliance Matrix: (Units=1/GPa)
#
#
# Indices 1 2 3 4 5 6 
#
# 1 0.010715 -0.003537 -0.001007 0.000000 0.000000 0.000000
# 2 -0.003537 0.011625 -0.003867 0.000000 0.000000 0.000000
# 3 -0.001007 -0.003867 0.012814 0.000000 0.000000 0.000000
# 4 0.000000 0.000000 0.000000 0.031171 0.000000 0.000000
# 5 0.000000 0.000000 0.000000 0.000000 0.009650 0.000000
# 6 0.000000 0.000000 0.000000 0.000000 0.000000 0.032340
#
#
# Mechanical properties :
#
#
# Convention : Reuss Voigt Hill
#
# Bulk Modulus (GPa) = 54.54865 55.86195 55.20530
# Shear Modulus (GPa) = 38.09633 47.49628 42.79630
#
# Velocity S-wave (km/s) = 4.05370 4.52627 4.29649
# Velocity P-wave (km/s) = 6.74085 7.17019 6.95883
#
# Compressibility (1/GPa) = 0.01833226
#
# Stress axis : x y z
#
# Youngs Moduli (GPa) = 93.32642 86.02309 78.03961
#
# Poissons Ratio (x) = 0.30428 0.07856
# Poissons Ratio (y) = 0.33011 0.30178
# Poissons Ratio (z) = 0.09395 0.33265
#
# Static dielectric constant tensor:
#      x y z
#    x 2.048470 0.000000 0.000000 
#    y 0.000000 1.949240 0.000000 
#    z 0.000000 0.000000 1.907620 
# 
# From -- ./inp_files/20041.got.cif
#   From: 2010.05.17/outbox.cif.g08.bks.cpg/sg73_11_cif.got.tgz:20041.got - 2010.06.03 17:35:07.
