data_PCOD9532396
_publ_section_title
;
Structure prediction by ZEFSAII (Michael W. Deem and Ramdas Pophale) SiO2 
 PCOD9532396
Probable space group: I B C A 
;
_chemical_formula_sum "Si O2"
_cell_formula_units_Z 56
_cell_length_a 13.939759
_cell_length_b 10.220057
_cell_length_c 14.150270
_cell_angle_alpha 90.000000
_cell_angle_beta 90.000000
_cell_angle_gamma 90.000000
_cell_volume 2015.920077
_symmetry_space_group_name_H-M "I B C A "
_symmetry_group_IT_number 73
_symmetry_cell_setting 'orthorhombic'
loop_
_space_group_symop_operation_xyz
x,y,z
-x,1/2-y,z
x,-y,1/2-z
1/2-x,y,-z
-x,-y,-z
x,1/2+y,-z
-x,y,1/2+z
1/2+x,-y,z
1/2+x,1/2+y,1/2+z
1/2-x,-y,1/2+z
1/2+x,1/2-y,-z
-x,1/2+y,1/2-z
1/2-x,1/2-y,1/2-z
1/2+x,y,1/2-z
1/2-x,1/2+y,z
x,1/2-y,1/2+z
loop_
_atom_site_type_symbol
_atom_site_label
_atom_site_fract_x
_atom_site_fract_y
_atom_site_fract_z
Si Si1 0.699056 0.130679 0.807516
Si Si2 0.165576 0.194498 0.041724
Si Si3 0.493583 0.530651 0.115808
Si Si4 0.000000 0.750000 0.606357
O O1 0.750000 0.250000 0.750000
O O2 0.722858 0.187055 0.910350
O O3 0.725791 0.000000 0.750000
O O4 0.899170 0.881441 0.881713
O O5 0.086289 0.400730 0.161499
O O6 0.250000 0.105258 0.000000
O O7 0.485348 0.385951 0.159545
O O8 0.500000 0.500000 0.000000
O O9 0.591142 0.766927 0.961245
#
# Coordination Sequence:
#
# PCOD9532396 Si02
#       4
#    16  16  16   8
#     4  12  29  53  80 129 184 231 293 372 475 543
#     4  11  24  48  86 122 163 233 302 367 439 551
#     4  10  22  52  83 119 172 229 296 367 444 548
#     4  10  22  46  86 118 166 218 308 362 436 532
#
# _framework density 27.778877000000001
#
# number of rings (size 3 to 8) (size 9 to 14) (size 15 to 20)
#    0.000    1.143    5.714    0.000    8.000    3.429 
#    5.143    1.429    0.000    0.000    0.000    0.000 
#    0.000    0.000    0.000    0.000    0.000    0.000 
#
# Total GULP energy -155924.978130 kJ/mol
# GULP energy per Si atom -5568.749219 kJ/mol
# Density = 2.771565 g / cm^3
# Si number density = 27.778877 Si / 1000 Ang^3
#
#
#
# Elastic Constant Matrix: (Units=GPa)
#
#
# Indices 1 2 3 4 5 6 
#
# 1 209.0857 93.2347 67.1070 0.0000 0.0000 0.0000
# 2 93.2347 250.0728 48.5015 0.0000 0.0000 0.0000
# 3 67.1070 48.5015 122.1094 0.0000 0.0000 0.0000
# 4 0.0000 0.0000 0.0000 18.1188 0.0000 0.0000
# 5 0.0000 0.0000 0.0000 0.0000 61.7916 0.0000
# 6 0.0000 0.0000 0.0000 0.0000 0.0000 0.9124
#
#
#
# Elastic Compliance Matrix: (Units=1/GPa)
#
#
# Indices 1 2 3 4 5 6 
#
# 1 0.006536 -0.001885 -0.002843 0.000000 0.000000 0.000000
# 2 -0.001885 0.004876 -0.000901 0.000000 0.000000 0.000000
# 3 -0.002843 -0.000901 0.010110 0.000000 0.000000 0.000000
# 4 0.000000 0.000000 0.000000 0.055191 0.000000 0.000000
# 5 0.000000 0.000000 0.000000 0.000000 0.016183 0.000000
# 6 0.000000 0.000000 0.000000 0.000000 0.000000 1.095955
#
#
# Mechanical properties :
#
#
# Convention : Reuss Voigt Hill
#
# Bulk Modulus (GPa) = 97.43186 110.99490 104.21338
# Shear Modulus (GPa) = 4.15444 40.99290 22.57367
#
# Velocity S-wave (km/s) = 1.22425 3.84563 2.85374
# Velocity P-wave (km/s) = 6.09497 7.73058 6.96098
#
# Compressibility (1/GPa) = 0.01026358
#
# Stress axis : x y z
#
# Youngs Moduli (GPa) = 153.00008 205.06635 98.91587
#
# Poissons Ratio (x) = 0.38663 0.28122
# Poissons Ratio (y) = 0.28846 0.08910
# Poissons Ratio (z) = 0.43499 0.18472
#
# Static dielectric constant tensor:
#      x y z
#    x 2.479310 0.000000 0.000000 
#    y 0.000000 2.384050 0.000000 
#    z 0.000000 0.000000 2.218430 
# 
# From -- ./inp_files/22901.got.cif
#   From: 2010.05.17/outbox.cif.g08.bks.cpg/sg73_12_cif.got.tgz:22901.got - 2010.06.03 17:35:07.
