data_PCOD9532106
_publ_section_title
;
Structure prediction by ZEFSAII (Michael W. Deem and Ramdas Pophale) SiO2 
 PCOD9532106
Probable space group: I B C A 
;
_chemical_formula_sum "Si O2"
_cell_formula_units_Z 112
_cell_length_a 28.144605
_cell_length_b 14.770423
_cell_length_c 13.270743
_cell_angle_alpha 90.000000
_cell_angle_beta 90.000000
_cell_angle_gamma 90.000000
_cell_volume 5516.750329
_symmetry_space_group_name_H-M "I B C A "
_symmetry_group_IT_number 73
_symmetry_cell_setting 'orthorhombic'
loop_
_space_group_symop_operation_xyz
x,y,z
-x,1/2-y,z
x,-y,1/2-z
1/2-x,y,-z
-x,-y,-z
x,1/2+y,-z
-x,y,1/2+z
1/2+x,-y,z
1/2+x,1/2+y,1/2+z
1/2-x,-y,1/2+z
1/2+x,1/2-y,-z
-x,1/2+y,1/2-z
1/2-x,1/2-y,1/2-z
1/2+x,y,1/2-z
1/2-x,1/2+y,z
x,1/2-y,1/2+z
loop_
_atom_site_type_symbol
_atom_site_label
_atom_site_fract_x
_atom_site_fract_y
_atom_site_fract_z
Si Si1 0.447544 0.962012 0.986175
Si Si2 0.862513 0.269125 0.208441
Si Si3 0.687049 0.925799 0.936019
Si Si4 0.124264 0.568778 0.338688
Si Si5 0.403141 0.153884 0.994279
Si Si6 0.049285 0.216639 0.356739
Si Si7 0.716539 0.916255 0.170333
O O1 0.451894 0.882314 0.905854
O O2 0.417965 0.052951 0.960826
O O3 0.420313 0.923491 0.085048
O O4 0.500000 0.000000 0.000000
O O5 0.855847 0.161966 0.203432
O O6 0.886563 0.292134 0.101719
O O7 0.903959 0.286219 0.288564
O O8 0.816073 0.334045 0.213061
O O9 0.729209 0.894608 0.862281
O O10 0.667279 0.020628 0.896834
O O11 0.642867 0.857603 0.935001
O O12 0.698286 0.937090 0.055545
O O13 0.109732 0.500000 0.250000
O O14 0.442399 0.207897 0.056373
O O15 0.000000 0.250000 0.305613
O O16 0.714588 0.000000 0.250000
#
# Coordination Sequence:
#
# PCOD9532106 Si02
#       7
#    16  16  16  16  16  16  16
#     4  11  23  41  66  91 130 180 221 280 333 392
#     4  11  25  40  67  97 133 174 218 277 336 406
#     4   9  21  43  67  92 137 171 220 281 330 399
#     4  11  23  43  67  95 133 177 225 274 338 399
#     4  10  22  44  64  91 133 176 222 273 332 403
#     4  12  25  41  63  97 133 173 226 275 337 401
#     4  10  22  41  69 102 133 172 223 278 340 408
#
# _framework density 20.301805999999999
#
# number of rings (size 3 to 8) (size 9 to 14) (size 15 to 20)
#    0.000    1.429    2.857    2.143    6.000    1.714 
#    0.000   12.143    0.000    0.000    0.000    0.000 
#    0.000    0.000    0.000    0.000    0.000    0.000 
#
# Total GULP energy -312216.088419 kJ/mol
# GULP energy per Si atom -5575.287293 kJ/mol
# Density = 2.025560 g / cm^3
# Si number density = 20.301806 Si / 1000 Ang^3
#
#
#
# Elastic Constant Matrix: (Units=GPa)
#
#
# Indices 1 2 3 4 5 6 
#
# 1 123.6084 49.5285 26.2915 0.0000 0.0000 0.0000
# 2 49.5285 117.5954 46.8790 0.0000 0.0000 0.0000
# 3 26.2915 46.8790 61.6749 0.0000 0.0000 0.0000
# 4 0.0000 0.0000 0.0000 34.2449 0.0000 0.0000
# 5 0.0000 0.0000 0.0000 0.0000 31.5594 0.0000
# 6 0.0000 0.0000 0.0000 0.0000 0.0000 20.9433
#
#
#
# Elastic Compliance Matrix: (Units=1/GPa)
#
#
# Indices 1 2 3 4 5 6 
#
# 1 0.009828 -0.003543 -0.001497 0.000000 0.000000 0.000000
# 2 -0.003543 0.013478 -0.008734 0.000000 0.000000 0.000000
# 3 -0.001497 -0.008734 0.023491 0.000000 0.000000 0.000000
# 4 0.000000 0.000000 0.000000 0.029201 0.000000 0.000000
# 5 0.000000 0.000000 0.000000 0.000000 0.031686 0.000000
# 6 0.000000 0.000000 0.000000 0.000000 0.000000 0.047748
#
#
# Mechanical properties :
#
#
# Convention : Reuss Voigt Hill
#
# Bulk Modulus (GPa) = 51.94982 60.91962 56.43472
# Shear Modulus (GPa) = 26.39976 29.36151 27.88064
#
# Velocity S-wave (km/s) = 3.60997 3.80709 3.70984
# Velocity P-wave (km/s) = 6.55898 7.02833 6.79770
#
# Compressibility (1/GPa) = 0.01924934
#
# Stress axis : x y z
#
# Youngs Moduli (GPa) = 101.75091 74.19704 42.56961
#
# Poissons Ratio (x) = 0.26285 0.06372
# Poissons Ratio (y) = 0.36046 0.37181
# Poissons Ratio (z) = 0.15230 0.64805
#
# Static dielectric constant tensor:
#      x y z
#    x 1.772390 0.000000 0.000000 
#    y 0.000000 1.779480 0.000000 
#    z 0.000000 0.000000 1.751800 
# 
# From -- ./inp_files/19836.got.cif
#   From: 2010.05.17/outbox.cif.g08.bks.cpg/sg73_10_cif.got.tgz:19836.got - 2010.06.03 17:35:07.
