data_PCOD9532934
_publ_section_title
;
Structure prediction by ZEFSAII (Michael W. Deem and Ramdas Pophale) SiO2 
 PCOD9532934
Probable space group: I B C A 
;
_chemical_formula_sum "Si O2"
_cell_formula_units_Z 120
_cell_length_a 24.965244
_cell_length_b 20.441276
_cell_length_c 11.064808
_cell_angle_alpha 90.000000
_cell_angle_beta 90.000000
_cell_angle_gamma 90.000000
_cell_volume 5646.608785
_symmetry_space_group_name_H-M "I B C A "
_symmetry_group_IT_number 73
_symmetry_cell_setting 'orthorhombic'
loop_
_space_group_symop_operation_xyz
x,y,z
-x,1/2-y,z
x,-y,1/2-z
1/2-x,y,-z
-x,-y,-z
x,1/2+y,-z
-x,y,1/2+z
1/2+x,-y,z
1/2+x,1/2+y,1/2+z
1/2-x,-y,1/2+z
1/2+x,1/2-y,-z
-x,1/2+y,1/2-z
1/2-x,1/2-y,1/2-z
1/2+x,y,1/2-z
1/2-x,1/2+y,z
x,1/2-y,1/2+z
loop_
_atom_site_type_symbol
_atom_site_label
_atom_site_fract_x
_atom_site_fract_y
_atom_site_fract_z
Si Si1 0.439057 0.076421 0.625191
Si Si2 0.973611 0.500000 0.750000
Si Si3 0.384571 0.082128 0.376457
Si Si4 0.193611 0.849227 0.547244
Si Si5 0.395651 0.144391 0.848222
Si Si6 0.978464 0.182113 0.456080
Si Si7 0.114417 0.788321 0.734796
Si Si8 0.720947 0.504599 0.375755
O O1 0.401301 0.065062 0.512388
O O2 0.406158 0.090309 0.746865
O O3 0.471868 0.141869 0.593168
O O4 0.485965 0.024140 0.646868
O O5 0.933453 0.556154 0.793762
O O6 0.379797 0.158421 0.342303
O O7 0.330212 0.042215 0.356032
O O8 0.250000 0.822127 0.500000
O O9 0.155478 0.863846 0.433456
O O10 0.163074 0.802658 0.641608
O O11 0.204245 0.919882 0.606585
O O12 0.389136 0.215399 0.785676
O O13 0.446319 0.145445 0.938836
O O14 0.938104 0.196897 0.345950
O O15 0.000000 0.250000 0.508125
O O16 0.753519 0.500000 0.250000
O O17 0.750000 0.485191 0.500000
#
# Coordination Sequence:
#
# PCOD9532934 Si02
#       8
#    16   8  16  16  16  16  16  16
#     4  12  26  38  62  99 135 175 224 269 326 400
#     4  12  24  42  62  94 142 178 216 264 340 390
#     4  12  24  42  67  96 133 176 218 274 330 405
#     4  10  24  46  72  92 130 174 216 280 354 398
#     4  11  26  41  66  98 133 174 227 281 328 410
#     4  11  22  39  62  91 132 180 218 266 321 397
#     4  11  22  43  66  97 130 172 227 271 334 397
#     4  11  24  47  76 101 131 176 224 283 346 404
#
# _framework density 21.251693
#
# number of rings (size 3 to 8) (size 9 to 14) (size 15 to 20)
#    0.000    0.800    4.667    2.000    7.467    2.667 
#    0.000    0.667    0.000    0.000    0.000    0.000 
#    0.000    0.000    0.000    0.000    0.000    0.000 
#
# Total GULP energy -335553.832027 kJ/mol
# GULP energy per Si atom -5592.563867 kJ/mol
# Density = 2.120332 g / cm^3
# Si number density = 21.251693 Si / 1000 Ang^3
#
#
#
# Elastic Constant Matrix: (Units=GPa)
#
#
# Indices 1 2 3 4 5 6 
#
# 1 58.8379 -0.2606 41.5847 0.0000 0.0000 0.0000
# 2 -0.2606 43.2864 -7.3259 0.0000 0.0000 0.0000
# 3 41.5847 -7.3259 112.6092 0.0000 0.0000 0.0000
# 4 0.0000 0.0000 0.0000 26.4799 0.0000 0.0000
# 5 0.0000 0.0000 0.0000 0.0000 18.2839 0.0000
# 6 0.0000 0.0000 0.0000 0.0000 0.0000 16.8042
#
#
#
# Elastic Compliance Matrix: (Units=1/GPa)
#
#
# Indices 1 2 3 4 5 6 
#
# 1 0.023072 -0.001318 -0.008606 0.000000 0.000000 0.000000
# 2 -0.001318 0.023434 0.002011 0.000000 0.000000 0.000000
# 3 -0.008606 0.002011 0.012189 0.000000 0.000000 0.000000
# 4 0.000000 0.000000 0.000000 0.037764 0.000000 0.000000
# 5 0.000000 0.000000 0.000000 0.000000 0.054693 0.000000
# 6 0.000000 0.000000 0.000000 0.000000 0.000000 0.059509
#
#
# Mechanical properties :
#
#
# Convention : Reuss Voigt Hill
#
# Bulk Modulus (GPa) = 23.32578 31.41444 27.37011
# Shear Modulus (GPa) = 20.76607 24.36263 22.56435
#
# Velocity S-wave (km/s) = 3.12933 3.38950 3.26201
# Velocity P-wave (km/s) = 4.90477 5.48931 5.20525
#
# Compressibility (1/GPa) = 0.04287102
#
# Stress axis : x y z
#
# Youngs Moduli (GPa) = 43.34172 42.67240 82.04010
#
# Poissons Ratio (x) = 0.05622 0.70604
# Poissons Ratio (y) = 0.05711 -0.16499
# Poissons Ratio (z) = 0.37300 -0.08582
#
# Static dielectric constant tensor:
#      x y z
#    x 1.743400 0.000000 0.000000 
#    y 0.000000 1.745650 0.000000 
#    z 0.000000 0.000000 1.802090 
# 
# From -- ./inp_files/8056.got.cif
#   From: 2010.05.17/outbox.cif.g08.bks.cpg/sg73_5_cif.got.tgz:8056.got - 2010.06.03 17:35:07.
