data_PCOD9532062
_publ_section_title
;
Structure prediction by ZEFSAII (Michael W. Deem and Ramdas Pophale) SiO2 
 PCOD9532062
Probable space group: I B C A 
;
_chemical_formula_sum "Si O2"
_cell_formula_units_Z 96
_cell_length_a 25.147273
_cell_length_b 14.354133
_cell_length_c 12.914195
_cell_angle_alpha 90.000000
_cell_angle_beta 90.000000
_cell_angle_gamma 90.000000
_cell_volume 4661.602117
_symmetry_space_group_name_H-M "I B C A "
_symmetry_group_IT_number 73
_symmetry_cell_setting 'orthorhombic'
loop_
_space_group_symop_operation_xyz
x,y,z
-x,1/2-y,z
x,-y,1/2-z
1/2-x,y,-z
-x,-y,-z
x,1/2+y,-z
-x,y,1/2+z
1/2+x,-y,z
1/2+x,1/2+y,1/2+z
1/2-x,-y,1/2+z
1/2+x,1/2-y,-z
-x,1/2+y,1/2-z
1/2-x,1/2-y,1/2-z
1/2+x,y,1/2-z
1/2-x,1/2+y,z
x,1/2-y,1/2+z
loop_
_atom_site_type_symbol
_atom_site_label
_atom_site_fract_x
_atom_site_fract_y
_atom_site_fract_z
Si Si1 0.844944 0.326611 0.726488
Si Si2 0.057832 0.963340 0.029597
Si Si3 0.194142 0.633026 0.840849
Si Si4 0.129358 0.877871 0.538572
Si Si5 0.059769 0.771543 0.920021
Si Si6 0.282515 0.000000 0.250000
Si Si7 0.605604 0.500000 0.750000
O O1 0.806532 0.239815 0.697546
O O2 0.900236 0.301828 0.670677
O O3 0.818974 0.424653 0.690918
O O4 0.856198 0.341127 0.848329
O O5 0.070853 0.977921 0.149930
O O6 0.102501 0.020682 0.966127
O O7 0.059122 0.856185 0.000022
O O8 0.000000 0.000000 0.000000
O O9 0.179600 0.627764 0.961747
O O10 0.244416 0.568387 0.815681
O O11 0.144632 0.584744 0.780316
O O12 0.085347 0.814607 0.480791
O O13 0.000000 0.750000 0.884157
#
# Coordination Sequence:
#
# PCOD9532062 Si02
#       7
#    16  16  16  16  16   8   8
#     4  11  23  40  65  94 131 163 217 273 312 383
#     4  11  21  37  59  90 126 166 219 255 313 371
#     4   9  21  42  65  90 126 166 206 262 329 388
#     4  10  22  41  61  94 129 166 217 263 312 393
#     4  11  23  41  60  91 130 176 212 257 317 379
#     4  11  22  42  67  94 122 163 214 264 341 380
#     4   9  20  38  63  86 124 169 208 264 311 384
#
# _framework density 20.593776999999999
#
# number of rings (size 3 to 8) (size 9 to 14) (size 15 to 20)
#    0.000    1.667    1.667    2.500    0.000    2.667 
#    0.000    5.000    0.000    0.000    0.000    0.000 
#    0.000    0.000    0.000    0.000    0.000    0.000 
#
# Total GULP energy -268144.975939 kJ/mol
# GULP energy per Si atom -5586.353665 kJ/mol
# Density = 2.054691 g / cm^3
# Si number density = 20.593777 Si / 1000 Ang^3
#
#
#
# Elastic Constant Matrix: (Units=GPa)
#
#
# Indices 1 2 3 4 5 6 
#
# 1 135.2397 54.7112 65.0929 0.0000 0.0000 0.0000
# 2 54.7112 133.9809 25.6675 0.0000 0.0000 0.0000
# 3 65.0929 25.6675 111.5946 0.0000 0.0000 0.0000
# 4 0.0000 0.0000 0.0000 25.0461 0.0000 0.0000
# 5 0.0000 0.0000 0.0000 0.0000 23.6777 0.0000
# 6 0.0000 0.0000 0.0000 0.0000 0.0000 37.8322
#
#
#
# Elastic Compliance Matrix: (Units=1/GPa)
#
#
# Indices 1 2 3 4 5 6 
#
# 1 0.011773 -0.003653 -0.006027 0.000000 0.000000 0.000000
# 2 -0.003653 0.008941 0.000074 0.000000 0.000000 0.000000
# 3 -0.006027 0.000074 0.012459 0.000000 0.000000 0.000000
# 4 0.000000 0.000000 0.000000 0.039926 0.000000 0.000000
# 5 0.000000 0.000000 0.000000 0.000000 0.042234 0.000000
# 6 0.000000 0.000000 0.000000 0.000000 0.000000 0.026433
#
#
# Mechanical properties :
#
#
# Convention : Reuss Voigt Hill
#
# Bulk Modulus (GPa) = 71.62142 74.63982 73.13062
# Shear Modulus (GPa) = 30.18750 33.00078 31.59414
#
# Velocity S-wave (km/s) = 3.83280 4.00742 3.92108
# Velocity P-wave (km/s) = 7.37840 7.59836 7.48919
#
# Compressibility (1/GPa) = 0.01396230
#
# Stress axis : x y z
#
# Youngs Moduli (GPa) = 84.94094 111.84199 80.26043
#
# Poissons Ratio (x) = 0.40854 0.48372
# Poissons Ratio (y) = 0.31028 -0.00595
# Poissons Ratio (z) = 0.51193 -0.00830
#
# Static dielectric constant tensor:
#      x y z
#    x 1.780140 0.000000 0.000000 
#    y 0.000000 1.774130 0.000000 
#    z 0.000000 0.000000 1.700990 
# 
# From -- ./inp_files/17225.got.cif
#   From: 2010.05.17/outbox.cif.g08.bks.cpg/sg73_9_cif.got.tgz:17225.got - 2010.06.03 17:35:07.
