data_PCOD9532935
_publ_section_title
;
Structure prediction by ZEFSAII (Michael W. Deem and Ramdas Pophale) SiO2 
 PCOD9532935
Probable space group: I B C A 
;
_chemical_formula_sum "Si O2"
_cell_formula_units_Z 72
_cell_length_a 8.373854
_cell_length_b 30.072819
_cell_length_c 13.481442
_cell_angle_alpha 90.000000
_cell_angle_beta 90.000000
_cell_angle_gamma 90.000000
_cell_volume 3394.969466
_symmetry_space_group_name_H-M "I B C A "
_symmetry_group_IT_number 73
_symmetry_cell_setting 'orthorhombic'
loop_
_space_group_symop_operation_xyz
x,y,z
-x,1/2-y,z
x,-y,1/2-z
1/2-x,y,-z
-x,-y,-z
x,1/2+y,-z
-x,y,1/2+z
1/2+x,-y,z
1/2+x,1/2+y,1/2+z
1/2-x,-y,1/2+z
1/2+x,1/2-y,-z
-x,1/2+y,1/2-z
1/2-x,1/2-y,1/2-z
1/2+x,y,1/2-z
1/2-x,1/2+y,z
x,1/2-y,1/2+z
loop_
_atom_site_type_symbol
_atom_site_label
_atom_site_fract_x
_atom_site_fract_y
_atom_site_fract_z
Si Si1 0.577343 0.702514 0.819191
Si Si2 0.505420 0.465321 0.094169
Si Si3 0.067671 0.365557 0.462605
Si Si4 0.942167 0.796706 0.390118
Si Si5 0.742976 0.000000 0.250000
O O1 0.500000 0.750000 0.843046
O O2 0.472544 0.662668 0.864450
O O3 0.562482 0.698228 0.701537
O O4 0.759807 0.704303 0.854310
O O5 0.517220 0.416332 0.049936
O O6 0.361476 0.471135 0.172940
O O7 0.652576 0.472857 0.170229
O O8 0.500000 0.500000 0.000000
O O9 0.250000 0.363128 0.500000
O O10 0.962242 0.338856 0.541145
O O11 0.000000 0.750000 0.437811
#
# Coordination Sequence:
#
# PCOD9532935 Si02
#       5
#    16  16  16  16   8
#     4  11  23  41  64  93 129 172 219 273 330 401
#     4  11  25  46  71 100 136 175 223 280 339 405
#     4  12  25  41  64  95 130 171 219 272 331 396
#     4  11  23  42  65  93 130 174 220 274 335 399
#     4  10  24  46  72  98 132 178 222 274 342 406
#
# _framework density 21.207851000000002
#
# number of rings (size 3 to 8) (size 9 to 14) (size 15 to 20)
#    0.000    0.889    0.000    8.667    0.000   10.667 
#    0.000    0.000    0.000    0.000    0.000    0.000 
#    0.000    0.000    0.000    0.000    0.000    0.000 
#
# Total GULP energy -201116.305099 kJ/mol
# GULP energy per Si atom -5586.564031 kJ/mol
# Density = 2.115958 g / cm^3
# Si number density = 21.207851 Si / 1000 Ang^3
#
#
#
# Elastic Constant Matrix: (Units=GPa)
#
#
# Indices 1 2 3 4 5 6 
#
# 1 111.9782 43.3692 26.6220 -0.0001 0.0000 0.0001
# 2 43.3692 179.5529 60.4204 -0.0001 0.0000 0.0000
# 3 26.6220 60.4204 132.1563 -0.0005 0.0000 0.0004
# 4 -0.0001 -0.0001 -0.0005 49.6862 0.0000 0.0000
# 5 0.0000 0.0000 0.0000 0.0000 37.4379 0.0000
# 6 0.0001 0.0000 0.0004 0.0000 0.0000 -44.8527
#
#
#
# Elastic Compliance Matrix: (Units=1/GPa)
#
#
# Indices 1 2 3 4 5 6 
#
# 1 0.009979 -0.002049 -0.001073 0.000000 0.000000 0.000000
# 2 -0.002049 0.007003 -0.002789 0.000000 0.000000 0.000000
# 3 -0.001073 -0.002789 0.009058 0.000000 0.000000 0.000000
# 4 0.000000 0.000000 0.000000 0.020126 0.000000 0.000000
# 5 0.000000 0.000000 0.000000 0.000000 0.026711 0.000000
# 6 0.000000 0.000000 0.000000 0.000000 0.000000 -0.022295
#
#
# Mechanical properties :
#
#
# Convention : Reuss Voigt Hill
#
# Bulk Modulus (GPa) = 70.33701 76.05674 73.19688
# Shear Modulus (GPa) = 74.46708 28.00600 51.23654
#
# Velocity S-wave (km/s) = 5.93205 3.63788 4.92054
# Velocity P-wave (km/s) = 8.95302 7.32024 8.17748
#
# Compressibility (1/GPa) = 0.01421727
#
# Stress axis : x y z
#
# Youngs Moduli (GPa) = 100.20910 142.80021 110.39923
#
# Poissons Ratio (x) = 0.29262 0.11850
# Poissons Ratio (y) = 0.20534 0.30788
# Poissons Ratio (z) = 0.10756 0.39824
#
# Static dielectric constant tensor:
#      x y z
#    x 1.807880 0.000000 0.000000 
#    y 0.000000 1.716000 0.000000 
#    z 0.000000 0.000000 1.810070 
# 
# From -- ./inp_files/15537.got.cif
#   From: 2010.05.17/outbox.cif.g08.bks.cpg/sg73_8_cif.got.tgz:15537.got - 2010.06.03 17:35:07.
