data_PCOD9532076
_publ_section_title
;
Structure prediction by ZEFSAII (Michael W. Deem and Ramdas Pophale) SiO2 
 PCOD9532076
Probable space group: I B C A 
;
_chemical_formula_sum "Si O2"
_cell_formula_units_Z 64
_cell_length_a 8.343417
_cell_length_b 26.228779
_cell_length_c 13.369047
_cell_angle_alpha 90.000000
_cell_angle_beta 90.000000
_cell_angle_gamma 90.000000
_cell_volume 2925.650703
_symmetry_space_group_name_H-M "I B C A "
_symmetry_group_IT_number 73
_symmetry_cell_setting 'orthorhombic'
loop_
_space_group_symop_operation_xyz
x,y,z
-x,1/2-y,z
x,-y,1/2-z
1/2-x,y,-z
-x,-y,-z
x,1/2+y,-z
-x,y,1/2+z
1/2+x,-y,z
1/2+x,1/2+y,1/2+z
1/2-x,-y,1/2+z
1/2+x,1/2-y,-z
-x,1/2+y,1/2-z
1/2-x,1/2-y,1/2-z
1/2+x,y,1/2-z
1/2-x,1/2+y,z
x,1/2-y,1/2+z
loop_
_atom_site_type_symbol
_atom_site_label
_atom_site_fract_x
_atom_site_fract_y
_atom_site_fract_z
Si Si1 0.534890 0.309551 0.723002
Si Si2 0.090548 0.058456 0.781718
Si Si3 0.721150 0.109536 0.117324
Si Si4 0.731250 0.638777 0.617465
O O1 0.500000 0.250000 0.727510
O O2 0.676935 0.332904 0.652652
O O3 0.380952 0.333452 0.669986
O O4 0.916724 0.167969 0.668547
O O5 0.128749 0.087173 0.677610
O O6 0.238931 0.079787 0.849759
O O7 0.930968 0.075968 0.841571
O O8 0.088463 0.000000 0.750000
O O9 0.750000 0.106317 0.000000
O O10 0.750000 0.643564 0.500000
#
# Coordination Sequence:
#
# PCOD9532076 Si02
#       4
#    16  16  16  16
#     4  10  22  41  64  92 131 171 217 268 320 385
#     4  10  22  41  64  92 131 172 218 271 325 390
#     4  10  23  40  63  97 133 172 219 270 323 387
#     4  10  23  40  63  96 131 169 216 270 325 387
#
# _framework density 21.875475000000002
#
# number of rings (size 3 to 8) (size 9 to 14) (size 15 to 20)
#    0.000    2.000    0.000    1.500    0.000   20.000 
#    0.000    0.000    0.000    4.500    0.000    0.000 
#    0.000    0.000    0.000    0.000    0.000    0.000 
#
# Total GULP energy -178346.362867 kJ/mol
# GULP energy per Si atom -5573.323840 kJ/mol
# Density = 2.182569 g / cm^3
# Si number density = 21.875475 Si / 1000 Ang^3
#
#
#
# Elastic Constant Matrix: (Units=GPa)
#
#
# Indices 1 2 3 4 5 6 
#
# 1 97.8801 70.9492 64.8983 0.0000 0.0000 0.0000
# 2 70.9492 205.6116 91.0410 0.0000 0.0000 0.0000
# 3 64.8983 91.0410 253.0206 0.0000 0.0000 0.0000
# 4 0.0000 0.0000 0.0000 12.8521 0.0000 0.0000
# 5 0.0000 0.0000 0.0000 0.0000 25.0658 0.0000
# 6 0.0000 0.0000 0.0000 0.0000 0.0000 19.9685
#
#
#
# Elastic Compliance Matrix: (Units=1/GPa)
#
#
# Indices 1 2 3 4 5 6 
#
# 1 0.014678 -0.004042 -0.002311 0.000000 0.000000 0.000000
# 2 -0.004042 0.006898 -0.001445 0.000000 0.000000 0.000000
# 3 -0.002311 -0.001445 0.005065 0.000000 0.000000 0.000000
# 4 0.000000 0.000000 0.000000 0.077809 0.000000 0.000000
# 5 0.000000 0.000000 0.000000 0.000000 0.039895 0.000000
# 6 0.000000 0.000000 0.000000 0.000000 0.000000 0.050079
#
#
# Mechanical properties :
#
#
# Convention : Reuss Voigt Hill
#
# Bulk Modulus (GPa) = 90.53146 112.25437 101.39292
# Shear Modulus (GPa) = 23.39710 33.55219 28.47464
#
# Velocity S-wave (km/s) = 3.27396 3.92060 3.61178
# Velocity P-wave (km/s) = 7.46770 8.48065 7.99024
#
# Compressibility (1/GPa) = 0.01104588
#
# Stress axis : x y z
#
# Youngs Moduli (GPa) = 68.12729 144.96449 197.43461
#
# Poissons Ratio (x) = 0.58593 0.45619
# Poissons Ratio (y) = 0.27536 0.28537
# Poissons Ratio (z) = 0.15741 0.20953
#
# Static dielectric constant tensor:
#      x y z
#    x 1.989930 0.000000 0.000000 
#    y 0.000000 1.876470 0.000000 
#    z 0.000000 0.000000 1.781590 
# 
# From -- ./inp_files/15449.got.cif
#   From: 2010.05.17/outbox.cif.g08.bks.cpg/sg73_8_cif.got.tgz:15449.got - 2010.06.03 17:35:07.
