data_PCOD9532472
_publ_section_title
;
Structure prediction by ZEFSAII (Michael W. Deem and Ramdas Pophale) SiO2 
 PCOD9532472
Probable space group: I B C A 
;
_chemical_formula_sum "Si O2"
_cell_formula_units_Z 72
_cell_length_a 14.717732
_cell_length_b 5.714151
_cell_length_c 38.042933
_cell_angle_alpha 90.000000
_cell_angle_beta 90.000000
_cell_angle_gamma 90.000000
_cell_volume 3199.385672
_symmetry_space_group_name_H-M "I B C A "
_symmetry_group_IT_number 73
_symmetry_cell_setting 'orthorhombic'
loop_
_space_group_symop_operation_xyz
x,y,z
-x,1/2-y,z
x,-y,1/2-z
1/2-x,y,-z
-x,-y,-z
x,1/2+y,-z
-x,y,1/2+z
1/2+x,-y,z
1/2+x,1/2+y,1/2+z
1/2-x,-y,1/2+z
1/2+x,1/2-y,-z
-x,1/2+y,1/2-z
1/2-x,1/2-y,1/2-z
1/2+x,y,1/2-z
1/2-x,1/2+y,z
x,1/2-y,1/2+z
loop_
_atom_site_type_symbol
_atom_site_label
_atom_site_fract_x
_atom_site_fract_y
_atom_site_fract_z
Si Si1 0.646618 0.407132 0.486592
Si Si2 0.602472 0.645530 0.660396
Si Si3 0.404467 0.631691 0.591128
Si Si4 0.353128 0.249361 0.263051
Si Si5 0.500000 0.250000 0.637429
O O1 0.750000 0.405603 0.500000
O O2 0.606209 0.655924 0.500345
O O3 0.648627 0.409338 0.444340
O O4 0.500000 0.750000 0.660356
O O5 0.641253 0.712942 0.622125
O O6 0.649438 0.740406 0.694671
O O7 0.576073 0.374764 0.661148
O O8 0.500000 0.750000 0.580201
O O9 0.438869 0.404174 0.611459
O O10 0.393697 0.500000 0.250000
O O11 0.250000 0.250000 0.250000
O O12 0.393497 0.000000 0.250000
#
# Coordination Sequence:
#
# PCOD9532472 Si02
#       5
#    16  16  16  16   8
#     4  10  23  41  59  85 127 163 201 247 303 371
#     4   9  20  37  63  90 120 159 206 251 309 361
#     4   9  20  37  62  90 119 157 205 253 307 360
#     4  10  23  41  60  87 129 163 203 250 305 370
#     4   8  18  36  62  90 120 152 206 260 304 364
#
# _framework density 22.504321000000001
#
# number of rings (size 3 to 8) (size 9 to 14) (size 15 to 20)
#    0.000    3.111    0.000    0.000   12.444    1.778 
#    0.000    8.889    0.000    0.000    0.000    0.000 
#    0.000    0.000    0.000    0.000    0.000    0.000 
#
# Total GULP energy -200450.972792 kJ/mol
# GULP energy per Si atom -5568.082578 kJ/mol
# Density = 2.245310 g / cm^3
# Si number density = 22.504321 Si / 1000 Ang^3
#
#
#
# Elastic Constant Matrix: (Units=GPa)
#
#
# Indices 1 2 3 4 5 6 
#
# 1 43.3794 5.3105 42.6410 0.0000 0.0000 0.0000
# 2 5.3105 162.7148 43.4923 0.0000 0.0000 0.0000
# 3 42.6410 43.4923 194.6640 0.0000 0.0000 0.0000
# 4 0.0000 0.0000 0.0000 -119.2108 0.0000 0.0000
# 5 0.0000 0.0000 0.0000 0.0000 44.6500 0.0000
# 6 0.0000 0.0000 0.0000 0.0000 0.0000 -13.6669
#
#
#
# Elastic Compliance Matrix: (Units=1/GPa)
#
#
# Indices 1 2 3 4 5 6 
#
# 1 0.029479 0.000812 -0.006639 0.000000 0.000000 0.000000
# 2 0.000812 0.006558 -0.001643 0.000000 0.000000 0.000000
# 3 -0.006639 -0.001643 0.006958 0.000000 0.000000 0.000000
# 4 0.000000 0.000000 0.000000 -0.008388 0.000000 0.000000
# 5 0.000000 0.000000 0.000000 0.000000 0.022396 0.000000
# 6 0.000000 0.000000 0.000000 0.000000 0.000000 -0.073169
#
#
# Mechanical properties :
#
#
# Convention : Reuss Voigt Hill
#
# Bulk Modulus (GPa) = 35.64260 64.84953 50.24607
# Shear Modulus (GPa) = 615.32744 2.97541 309.15142
#
# Velocity S-wave (km/s) = 16.55355 1.15110 11.73339
# Velocity P-wave (km/s) = 19.52517 5.53586 14.35058
#
# Compressibility (1/GPa) = 0.02805631
#
# Stress axis : x y z
#
# Youngs Moduli (GPa) = 33.92268 152.47536 143.71062
#
# Poissons Ratio (x) = -0.12387 0.95407
# Poissons Ratio (y) = -0.02756 0.23615
# Poissons Ratio (z) = 0.22521 0.25056
#
# Static dielectric constant tensor:
#      x y z
#    x 1.786950 0.000000 0.000000 
#    y 0.000000 2.402870 0.000000 
#    z 0.000000 0.000000 1.764750 
# 
# From -- ./inp_files/34629.got.cif
#   From: 2010.05.17/outbox.cif.g08.bks.cpg/sg73_18_cif.got.tgz:34629.got - 2010.06.03 17:35:07.
