data_PCOD9532989
_publ_section_title
;
Structure prediction by ZEFSAII (Michael W. Deem and Ramdas Pophale) SiO2 
 PCOD9532989
Probable space group: I B C A 
;
_chemical_formula_sum "Si O2"
_cell_formula_units_Z 88
_cell_length_a 13.139758
_cell_length_b 17.412548
_cell_length_c 18.665284
_cell_angle_alpha 90.000000
_cell_angle_beta 90.000000
_cell_angle_gamma 90.000000
_cell_volume 4270.554766
_symmetry_space_group_name_H-M "I B C A "
_symmetry_group_IT_number 73
_symmetry_cell_setting 'orthorhombic'
loop_
_space_group_symop_operation_xyz
x,y,z
-x,1/2-y,z
x,-y,1/2-z
1/2-x,y,-z
-x,-y,-z
x,1/2+y,-z
-x,y,1/2+z
1/2+x,-y,z
1/2+x,1/2+y,1/2+z
1/2-x,-y,1/2+z
1/2+x,1/2-y,-z
-x,1/2+y,1/2-z
1/2-x,1/2-y,1/2-z
1/2+x,y,1/2-z
1/2-x,1/2+y,z
x,1/2-y,1/2+z
loop_
_atom_site_type_symbol
_atom_site_label
_atom_site_fract_x
_atom_site_fract_y
_atom_site_fract_z
Si Si1 0.800476 0.825985 0.218490
Si Si2 0.236120 0.584065 0.584560
Si Si3 0.120496 0.747969 0.578441
Si Si4 0.250000 0.356003 0.500000
Si Si5 0.656177 0.935896 0.140254
Si Si6 0.927419 0.569593 0.810236
O O1 0.750000 0.750000 0.250000
O O2 0.844816 0.800561 0.143585
O O3 0.721103 0.895380 0.203516
O O4 0.891132 0.856102 0.267002
O O5 0.250000 0.567214 0.500000
O O6 0.181741 0.667801 0.586036
O O7 0.163891 0.526852 0.628858
O O8 0.343380 0.568252 0.625669
O O9 0.158118 0.796193 0.510895
O O10 0.000000 0.750000 0.577947
O O11 0.210371 0.405298 0.567248
O O12 0.538347 0.920219 0.155718
O O13 0.925549 0.500000 0.750000
#
# Coordination Sequence:
#
# PCOD9532989 Si02
#       6
#    16  16  16   8  16  16
#     4  11  25  47  67 103 145 183 244 305 358 438
#     4  12  26  49  72 108 146 191 250 304 365 460
#     4  11  26  43  74 102 145 189 239 300 372 431
#     4  10  24  50  64 108 146 182 242 304 348 454
#     4  11  27  45  74 101 148 190 240 300 371 436
#     4  12  28  45  76 105 144 195 245 304 375 441
#
# _framework density 20.606221000000001
#
# number of rings (size 3 to 8) (size 9 to 14) (size 15 to 20)
#    0.000    0.727    5.455    0.000   10.182    0.727 
#    0.000    0.000    0.000    0.000    0.000    0.000 
#    0.000    0.000    0.000    0.000    0.000    0.000 
#
# Total GULP energy -245227.375092 kJ/mol
# GULP energy per Si atom -5573.349434 kJ/mol
# Density = 2.055932 g / cm^3
# Si number density = 20.606221 Si / 1000 Ang^3
#
#
#
# Elastic Constant Matrix: (Units=GPa)
#
#
# Indices 1 2 3 4 5 6 
#
# 1 138.5870 30.0284 27.6436 0.0000 0.0000 0.0000
# 2 30.0284 74.7625 39.0667 0.0000 0.0000 0.0000
# 3 27.6436 39.0667 66.3893 0.0000 0.0000 0.0000
# 4 0.0000 0.0000 0.0000 27.9991 0.0000 0.0000
# 5 0.0000 0.0000 0.0000 0.0000 27.0445 0.0000
# 6 0.0000 0.0000 0.0000 0.0000 0.0000 21.3895
#
#
#
# Elastic Compliance Matrix: (Units=1/GPa)
#
#
# Indices 1 2 3 4 5 6 
#
# 1 0.008102 -0.002154 -0.002106 0.000000 0.000000 0.000000
# 2 -0.002154 0.019887 -0.010806 0.000000 0.000000 0.000000
# 3 -0.002106 -0.010806 0.022298 0.000000 0.000000 0.000000
# 4 0.000000 0.000000 0.000000 0.035715 0.000000 0.000000
# 5 0.000000 0.000000 0.000000 0.000000 0.036976 0.000000
# 6 0.000000 0.000000 0.000000 0.000000 0.000000 0.046752
#
#
# Mechanical properties :
#
#
# Convention : Reuss Voigt Hill
#
# Bulk Modulus (GPa) = 49.61240 52.57958 51.09599
# Shear Modulus (GPa) = 24.20340 27.48660 25.84500
#
# Velocity S-wave (km/s) = 3.43091 3.65622 3.54536
# Velocity P-wave (km/s) = 6.31059 6.58754 6.45055
#
# Compressibility (1/GPa) = 0.02015625
#
# Stress axis : x y z
#
# Youngs Moduli (GPa) = 123.41870 50.28351 44.84612
#
# Poissons Ratio (x) = 0.10829 0.09447
# Poissons Ratio (y) = 0.26580 0.48460
# Poissons Ratio (z) = 0.25998 0.54336
#
# Static dielectric constant tensor:
#      x y z
#    x 1.334180 0.000000 0.000000 
#    y 0.000000 1.773020 0.000000 
#    z 0.000000 0.000000 1.827260 
# 
# From -- ./inp_files/25355.got.cif
#   From: 2010.05.17/outbox.cif.g08.bks.cpg/sg73_13_cif.got.tgz:25355.got - 2010.06.03 17:35:07.
