data_PCOD9532792
_publ_section_title
;
Structure prediction by ZEFSAII (Michael W. Deem and Ramdas Pophale) SiO2 
 PCOD9532792
Probable space group: I B C A 
;
_chemical_formula_sum "Si O2"
_cell_formula_units_Z 88
_cell_length_a 15.386002
_cell_length_b 31.435843
_cell_length_c 9.207936
_cell_angle_alpha 90.000000
_cell_angle_beta 90.000000
_cell_angle_gamma 90.000000
_cell_volume 4453.620299
_symmetry_space_group_name_H-M "I B C A "
_symmetry_group_IT_number 73
_symmetry_cell_setting 'orthorhombic'
loop_
_space_group_symop_operation_xyz
x,y,z
-x,1/2-y,z
x,-y,1/2-z
1/2-x,y,-z
-x,-y,-z
x,1/2+y,-z
-x,y,1/2+z
1/2+x,-y,z
1/2+x,1/2+y,1/2+z
1/2-x,-y,1/2+z
1/2+x,1/2-y,-z
-x,1/2+y,1/2-z
1/2-x,1/2-y,1/2-z
1/2+x,y,1/2-z
1/2-x,1/2+y,z
x,1/2-y,1/2+z
loop_
_atom_site_type_symbol
_atom_site_label
_atom_site_fract_x
_atom_site_fract_y
_atom_site_fract_z
Si Si1 0.414079 0.550708 0.577193
Si Si2 0.341771 0.856522 0.075768
Si Si3 0.500000 0.250000 0.221484
Si Si4 0.401513 0.542353 0.921875
Si Si5 0.975881 0.689337 0.472368
Si Si6 0.666505 0.868688 0.922024
O O1 0.366825 0.594518 0.535080
O O2 0.423080 0.547559 0.751043
O O3 0.370386 0.505227 0.539180
O O4 0.509283 0.549897 0.507756
O O5 0.422892 0.825494 0.034162
O O6 0.334533 0.857550 0.251337
O O7 0.250000 0.845327 0.000000
O O8 0.454167 0.282993 0.330286
O O9 0.452061 0.219234 0.108918
O O10 0.336477 0.580821 0.945662
O O11 0.918315 0.648315 0.495783
O O12 0.750000 0.849646 0.000000
#
# Coordination Sequence:
#
# PCOD9532792 Si02
#       6
#    16  16   8  16  16  16
#     4   9  18  34  57  88 124 165 208 250 296 350
#     4  11  24  39  63  94 128 167 205 253 304 363
#     4  10  24  42  74  86 122 160 196 250 330 374
#     4   9  18  34  57  88 124 165 208 250 296 350
#     4  11  22  46  65  94 120 160 201 256 310 383
#     4  11  24  39  63  94 128 167 205 253 304 363
#
# _framework density 19.759207
#
# number of rings (size 3 to 8) (size 9 to 14) (size 15 to 20)
#    0.000    1.818    3.636    0.000    2.545    2.182 
#    0.000    5.455    0.000    0.000    0.000    0.000 
#    0.000    0.000    0.000    0.000    0.000    0.000 
#
# Total GULP energy -245025.099659 kJ/mol
# GULP energy per Si atom -5568.752265 kJ/mol
# Density = 1.971423 g / cm^3
# Si number density = 19.759207 Si / 1000 Ang^3
#
#
#
# Elastic Constant Matrix: (Units=GPa)
#
#
# Indices 1 2 3 4 5 6 
#
# 1 102.2476 25.2265 30.1781 -0.0002 0.0002 0.0002
# 2 25.2265 89.8500 35.9855 -0.0006 -0.0001 -0.0002
# 3 30.1781 35.9855 57.4619 -0.0022 0.0022 0.0002
# 4 -0.0002 -0.0006 -0.0022 24.8651 0.0005 -0.0002
# 5 0.0002 -0.0001 0.0022 0.0005 16.8398 -0.0005
# 6 0.0002 -0.0002 0.0002 -0.0002 -0.0005 -6.1987
#
#
#
# Elastic Compliance Matrix: (Units=1/GPa)
#
#
# Indices 1 2 3 4 5 6 
#
# 1 0.011655 -0.001096 -0.005435 0.000000 0.000001 0.000000
# 2 -0.001096 0.014959 -0.008793 0.000000 0.000001 -0.000001
# 3 -0.005435 -0.008793 0.025763 0.000002 -0.000003 0.000001
# 4 0.000000 0.000000 0.000002 0.040217 -0.000001 -0.000002
# 5 0.000001 0.000001 -0.000003 -0.000001 0.059383 -0.000005
# 6 0.000000 -0.000001 0.000001 -0.000002 -0.000005 -0.161325
#
#
# Mechanical properties :
#
#
# Convention : Reuss Voigt Hill
#
# Bulk Modulus (GPa) = 46.01703 48.03774 47.02739
# Shear Modulus (GPa) = 175.18844 17.64588 96.41716
#
# Velocity S-wave (km/s) = 9.42625 2.99163 6.99300
# Velocity P-wave (km/s) = 11.90847 6.02474 9.43687
#
# Compressibility (1/GPa) = 0.02173108
#
# Stress axis : x y z
#
# Youngs Moduli (GPa) = 85.80370 66.85076 38.81480
#
# Poissons Ratio (x) = 0.07324 0.21095
# Poissons Ratio (y) = 0.09400 0.34128
# Poissons Ratio (z) = 0.46632 0.58779
#
# Static dielectric constant tensor:
#      x y z
#    x 1.682150 0.000000 0.000000 
#    y 0.000000 1.772800 0.000000 
#    z 0.000000 0.000000 1.694680 
# 
# From -- ./inp_files/5747.got.cif
#   From: 2010.05.17/outbox.cif.g08.bks.cpg/sg73_3_cif.got.tgz:5747.got - 2010.06.03 17:35:07.
