data_PCOD9532224
_publ_section_title
;
Structure prediction by ZEFSAII (Michael W. Deem and Ramdas Pophale) SiO2 
 PCOD9532224
Probable space group: I B C A 
;
_chemical_formula_sum "Si O2"
_cell_formula_units_Z 120
_cell_length_a 18.801118
_cell_length_b 18.311271
_cell_length_c 14.708068
_cell_angle_alpha 90.000000
_cell_angle_beta 90.000000
_cell_angle_gamma 90.000000
_cell_volume 5063.581381
_symmetry_space_group_name_H-M "I B C A "
_symmetry_group_IT_number 73
_symmetry_cell_setting 'orthorhombic'
loop_
_space_group_symop_operation_xyz
x,y,z
-x,1/2-y,z
x,-y,1/2-z
1/2-x,y,-z
-x,-y,-z
x,1/2+y,-z
-x,y,1/2+z
1/2+x,-y,z
1/2+x,1/2+y,1/2+z
1/2-x,-y,1/2+z
1/2+x,1/2-y,-z
-x,1/2+y,1/2-z
1/2-x,1/2-y,1/2-z
1/2+x,y,1/2-z
1/2-x,1/2+y,z
x,1/2-y,1/2+z
loop_
_atom_site_type_symbol
_atom_site_label
_atom_site_fract_x
_atom_site_fract_y
_atom_site_fract_z
Si Si1 0.048910 0.452914 0.112462
Si Si2 0.642460 0.697452 0.434567
Si Si3 0.932224 0.209741 0.787395
Si Si4 0.108387 0.428372 0.686396
Si Si5 0.244372 0.925961 0.632733
Si Si6 0.799588 0.585286 0.842026
Si Si7 0.250000 0.688949 0.500000
Si Si8 0.510869 0.389821 0.064112
O O1 0.114456 0.413712 0.161184
O O2 0.050831 0.541261 0.110558
O O3 0.972375 0.435641 0.154545
O O4 0.042566 0.423901 0.009298
O O5 0.616178 0.731107 0.338208
O O6 0.701042 0.636385 0.416243
O O7 0.680160 0.761507 0.488904
O O8 0.571618 0.662248 0.477096
O O9 0.888084 0.152055 0.729860
O O10 0.000000 0.250000 0.741444
O O11 0.967779 0.158488 0.864903
O O12 0.121022 0.500000 0.750000
O O13 0.171689 0.429480 0.614082
O O14 0.232924 0.912849 0.741383
O O15 0.214413 0.005862 0.614915
O O16 0.763445 0.642215 0.909506
#
# Coordination Sequence:
#
# PCOD9532224 Si02
#       8
#    16  16  16  16  16  16   8  16
#     4  11  24  39  73  99 138 171 241 293 339 408
#     4  11  25  46  69  98 143 187 228 281 365 422
#     4  10  23  42  66  94 136 179 218 277 351 417
#     4  12  24  41  69 104 135 179 233 289 342 420
#     4  11  26  46  72 102 140 186 238 294 350 430
#     4  11  25  46  72 105 137 189 242 293 353 423
#     4  12  28  44  72 102 142 190 228 296 358 432
#     4  10  22  43  65 103 132 182 223 287 347 414
#
# _framework density 23.698642
#
# number of rings (size 3 to 8) (size 9 to 14) (size 15 to 20)
#    0.000    1.067    4.000    1.600    7.467    4.800 
#    0.000    2.000    0.000    0.000    0.000    0.000 
#    0.000    0.000    0.000    0.000    0.000    0.000 
#
# Total GULP energy -335892.363518 kJ/mol
# GULP energy per Si atom -5598.206059 kJ/mol
# Density = 2.364470 g / cm^3
# Si number density = 23.698642 Si / 1000 Ang^3
#
#
#
# Elastic Constant Matrix: (Units=GPa)
#
#
# Indices 1 2 3 4 5 6 
#
# 1 106.5584 15.4684 -1.5657 0.0000 0.0000 0.0000
# 2 15.4684 107.4677 12.7686 0.0000 0.0000 0.0000
# 3 -1.5657 12.7686 32.9903 0.0000 0.0000 0.0000
# 4 0.0000 0.0000 0.0000 24.9529 0.0000 0.0000
# 5 0.0000 0.0000 0.0000 0.0000 27.6132 0.0000
# 6 0.0000 0.0000 0.0000 0.0000 0.0000 26.3918
#
#
#
# Elastic Compliance Matrix: (Units=1/GPa)
#
#
# Indices 1 2 3 4 5 6 
#
# 1 0.009619 -0.001508 0.001040 0.000000 0.000000 0.000000
# 2 -0.001508 0.009990 -0.003938 0.000000 0.000000 0.000000
# 3 0.001040 -0.003938 0.031886 0.000000 0.000000 0.000000
# 4 0.000000 0.000000 0.000000 0.040076 0.000000 0.000000
# 5 0.000000 0.000000 0.000000 0.000000 0.036215 0.000000
# 6 0.000000 0.000000 0.000000 0.000000 0.000000 0.037890
#
#
# Mechanical properties :
#
#
# Convention : Reuss Voigt Hill
#
# Bulk Modulus (GPa) = 23.42891 33.37322 28.40107
# Shear Modulus (GPa) = 26.49505 30.48125 28.48815
#
# Velocity S-wave (km/s) = 3.34728 3.59026 3.47089
# Velocity P-wave (km/s) = 4.98464 5.59460 5.29840
#
# Compressibility (1/GPa) = 0.04268230
#
# Stress axis : x y z
#
# Youngs Moduli (GPa) = 103.96389 100.09916 31.36215
#
# Poissons Ratio (x) = 0.15096 -0.03262
# Poissons Ratio (y) = 0.15678 0.12351
# Poissons Ratio (z) = -0.10814 0.39421
#
# Static dielectric constant tensor:
#      x y z
#    x 1.896990 0.000000 0.000000 
#    y 0.000000 1.891850 0.000000 
#    z 0.000000 0.000000 1.955550 
# 
# From -- ./inp_files/22671.got.cif
#   From: 2010.05.17/outbox.cif.g08.bks.cpg/sg73_12_cif.got.tgz:22671.got - 2010.06.03 17:35:07.
