data_PCOD9532775
_publ_section_title
;
Structure prediction by ZEFSAII (Michael W. Deem and Ramdas Pophale) SiO2 
 PCOD9532775
Probable space group: I B C A 
;
_chemical_formula_sum "Si O2"
_cell_formula_units_Z 72
_cell_length_a 8.540147
_cell_length_b 19.162260
_cell_length_c 17.202305
_cell_angle_alpha 90.000000
_cell_angle_beta 90.000000
_cell_angle_gamma 90.000000
_cell_volume 2815.131707
_symmetry_space_group_name_H-M "I B C A "
_symmetry_group_IT_number 73
_symmetry_cell_setting 'orthorhombic'
loop_
_space_group_symop_operation_xyz
x,y,z
-x,1/2-y,z
x,-y,1/2-z
1/2-x,y,-z
-x,-y,-z
x,1/2+y,-z
-x,y,1/2+z
1/2+x,-y,z
1/2+x,1/2+y,1/2+z
1/2-x,-y,1/2+z
1/2+x,1/2-y,-z
-x,1/2+y,1/2-z
1/2-x,1/2-y,1/2-z
1/2+x,y,1/2-z
1/2-x,1/2+y,z
x,1/2-y,1/2+z
loop_
_atom_site_type_symbol
_atom_site_label
_atom_site_fract_x
_atom_site_fract_y
_atom_site_fract_z
Si Si1 0.250000 0.460845 0.000000
Si Si2 0.987679 0.332055 0.340964
Si Si3 0.305297 0.920440 0.228895
Si Si4 0.047500 0.065825 0.096799
Si Si5 0.593495 0.305563 0.983915
O O1 0.156865 0.503735 0.932639
O O2 0.392927 0.425939 0.956998
O O3 0.827016 0.372782 0.314781
O O4 0.000000 0.250000 0.315378
O O5 0.127220 0.377282 0.302074
O O6 0.013231 0.327486 0.434736
O O7 0.464887 0.932656 0.178823
O O8 0.253127 0.000000 0.250000
O O9 0.143412 0.132267 0.070560
O O10 0.500000 0.250000 0.934596
O O11 0.750000 0.263688 0.000000
#
# Coordination Sequence:
#
# PCOD9532775 Si02
#       5
#     8  16  16  16  16
#     4  10  24  42  70 104 144 186 246 302 378 444
#     4  11  28  51  75 109 156 206 260 317 397 472
#     4  12  29  46  78 114 158 204 259 325 391 472
#     4  11  25  44  73 104 146 193 245 310 378 453
#     4  11  27  48  77 110 149 199 260 321 386 464
#
# _framework density 25.576067999999999
#
# number of rings (size 3 to 8) (size 9 to 14) (size 15 to 20)
#    0.000    0.889    1.111    2.667   23.333    0.889 
#    0.000    0.000    0.000    0.000    0.000    0.000 
#    0.000    0.000    0.000    0.000    0.000    0.000 
#
# Total GULP energy -200862.248012 kJ/mol
# GULP energy per Si atom -5579.506889 kJ/mol
# Density = 2.551786 g / cm^3
# Si number density = 25.576068 Si / 1000 Ang^3
#
#
#
# Elastic Constant Matrix: (Units=GPa)
#
#
# Indices 1 2 3 4 5 6 
#
# 1 125.0878 33.6163 47.2238 0.0000 0.0000 0.0000
# 2 33.6163 138.4357 53.1898 0.0000 0.0000 0.0000
# 3 47.2238 53.1898 134.3231 0.0000 0.0000 0.0000
# 4 0.0000 0.0000 0.0000 27.1166 0.0000 0.0000
# 5 0.0000 0.0000 0.0000 0.0000 43.2027 0.0000
# 6 0.0000 0.0000 0.0000 0.0000 0.0000 51.5166
#
#
#
# Elastic Compliance Matrix: (Units=1/GPa)
#
#
# Indices 1 2 3 4 5 6 
#
# 1 0.009382 -0.001192 -0.002826 0.000000 0.000000 0.000000
# 2 -0.001192 0.008671 -0.003015 0.000000 0.000000 0.000000
# 3 -0.002826 -0.003015 0.009632 0.000000 0.000000 0.000000
# 4 0.000000 0.000000 0.000000 0.036878 0.000000 0.000000
# 5 0.000000 0.000000 0.000000 0.000000 0.023147 0.000000
# 6 0.000000 0.000000 0.000000 0.000000 0.000000 0.019411
#
#
# Mechanical properties :
#
#
# Convention : Reuss Voigt Hill
#
# Bulk Modulus (GPa) = 73.42634 73.98958 73.70796
# Shear Modulus (GPa) = 39.76883 41.95497 40.86190
#
# Velocity S-wave (km/s) = 3.94753 4.05458 4.00141
# Velocity P-wave (km/s) = 7.03908 7.13523 7.08732
#
# Compressibility (1/GPa) = 0.01361909
#
# Stress axis : x y z
#
# Youngs Moduli (GPa) = 106.58971 115.32239 103.82005
#
# Poissons Ratio (x) = 0.13750 0.29342
# Poissons Ratio (y) = 0.12709 0.31297
# Poissons Ratio (z) = 0.30124 0.34764
#
# Static dielectric constant tensor:
#      x y z
#    x 1.972360 0.000000 0.000000 
#    y 0.000000 2.001380 0.000000 
#    z 0.000000 0.000000 2.087410 
# 
# From -- ./inp_files/20612.got.cif
#   From: 2010.05.17/outbox.cif.g08.bks.cpg/sg73_11_cif.got.tgz:20612.got - 2010.06.03 17:35:07.
