data_PCOD9532592
_publ_section_title
;
Structure prediction by ZEFSAII (Michael W. Deem and Ramdas Pophale) SiO2 
 PCOD9532592
Probable space group: I B C A 
;
_chemical_formula_sum "Si O2"
_cell_formula_units_Z 88
_cell_length_a 18.079987
_cell_length_b 8.370772
_cell_length_c 27.161658
_cell_angle_alpha 90.000000
_cell_angle_beta 90.000000
_cell_angle_gamma 90.000000
_cell_volume 4110.739001
_symmetry_space_group_name_H-M "I B C A "
_symmetry_group_IT_number 73
_symmetry_cell_setting 'orthorhombic'
loop_
_space_group_symop_operation_xyz
x,y,z
-x,1/2-y,z
x,-y,1/2-z
1/2-x,y,-z
-x,-y,-z
x,1/2+y,-z
-x,y,1/2+z
1/2+x,-y,z
1/2+x,1/2+y,1/2+z
1/2-x,-y,1/2+z
1/2+x,1/2-y,-z
-x,1/2+y,1/2-z
1/2-x,1/2-y,1/2-z
1/2+x,y,1/2-z
1/2-x,1/2+y,z
x,1/2-y,1/2+z
loop_
_atom_site_type_symbol
_atom_site_label
_atom_site_fract_x
_atom_site_fract_y
_atom_site_fract_z
Si Si1 0.154389 0.167512 0.219087
Si Si2 0.579639 0.500000 0.250000
Si Si3 0.712702 0.721297 0.350991
Si Si4 0.344681 0.564223 0.117393
Si Si5 0.017144 0.065767 0.053630
Si Si6 0.949920 0.408176 0.852229
O O1 0.122877 0.329104 0.243948
O O2 0.261943 0.300118 0.301627
O O3 0.115600 0.143551 0.165135
O O4 0.150480 0.000000 0.250000
O O5 0.533172 0.488158 0.200095
O O6 0.772030 0.669522 0.392303
O O7 0.638437 0.619163 0.350675
O O8 0.686705 0.899489 0.360882
O O9 0.399249 0.538986 0.072627
O O10 0.000000 0.250000 0.051924
O O11 0.967833 0.994291 0.097232
O O12 0.000000 0.000000 0.000000
O O13 0.000000 0.250000 0.853340
#
# Coordination Sequence:
#
# PCOD9532592 Si02
#       6
#    16   8  16  16  16  16
#     4  10  24  41  72 111 151 210 255 305 377 444
#     4  12  26  44  70 112 158 204 256 314 366 464
#     4  10  23  44  71 105 149 194 256 303 363 461
#     4  10  23  45  75 102 146 193 250 308 364 455
#     4  12  28  51  79 105 144 195 251 317 399 459
#     4  12  26  47  70 106 154 199 250 312 380 458
#
# _framework density 21.407343999999998
#
# number of rings (size 3 to 8) (size 9 to 14) (size 15 to 20)
#    1.091    0.000    1.818    3.818    3.818    3.636 
#    0.000    0.909    0.000    0.000    0.000    0.000 
#    0.000    0.000    0.000    0.000    0.000    0.000 
#
# Total GULP energy -245549.751850 kJ/mol
# GULP energy per Si atom -5580.676178 kJ/mol
# Density = 2.135862 g / cm^3
# Si number density = 21.407344 Si / 1000 Ang^3
#
#
#
# Elastic Constant Matrix: (Units=GPa)
#
#
# Indices 1 2 3 4 5 6 
#
# 1 109.4966 29.2368 67.7964 0.0000 0.0000 0.0000
# 2 29.2368 125.2891 75.3863 0.0000 0.0000 0.0000
# 3 67.7964 75.3863 194.4462 0.0000 0.0000 0.0000
# 4 0.0000 0.0000 0.0000 44.7486 0.0000 0.0000
# 5 0.0000 0.0000 0.0000 0.0000 32.6679 0.0000
# 6 0.0000 0.0000 0.0000 0.0000 0.0000 119.2854
#
#
#
# Elastic Compliance Matrix: (Units=1/GPa)
#
#
# Indices 1 2 3 4 5 6 
#
# 1 0.011659 -0.000358 -0.003926 0.000000 0.000000 0.000000
# 2 -0.000358 0.010421 -0.003915 0.000000 0.000000 0.000000
# 3 -0.003926 -0.003915 0.008030 0.000000 0.000000 0.000000
# 4 0.000000 0.000000 0.000000 0.022347 0.000000 0.000000
# 5 0.000000 0.000000 0.000000 0.000000 0.030611 0.000000
# 6 0.000000 0.000000 0.000000 0.000000 0.000000 0.008383
#
#
# Mechanical properties :
#
#
# Convention : Reuss Voigt Hill
#
# Bulk Modulus (GPa) = 72.93773 86.00787 79.47280
# Shear Modulus (GPa) = 44.47557 56.46121 50.46839
#
# Velocity S-wave (km/s) = 4.56300 5.14120 4.86070
# Velocity P-wave (km/s) = 7.86807 8.68945 8.28894
#
# Compressibility (1/GPa) = 0.01371033
#
# Stress axis : x y z
#
# Youngs Moduli (GPa) = 85.76772 95.96051 124.53776
#
# Poissons Ratio (x) = 0.03439 0.48897
# Poissons Ratio (y) = 0.03073 0.48759
# Poissons Ratio (z) = 0.33675 0.37571
#
# Static dielectric constant tensor:
#      x y z
#    x 1.844590 0.000000 0.000000 
#    y 0.000000 1.861480 0.000000 
#    z 0.000000 0.000000 1.720320 
# 
# From -- ./inp_files/30051.got.cif
#   From: 2010.05.17/outbox.cif.g08.bks.cpg/sg73_16_cif.got.tgz:30051.got - 2010.06.03 17:35:07.
