data_PCOD9532885
_publ_section_title
;
Structure prediction by ZEFSAII (Michael W. Deem and Ramdas Pophale) SiO2 
 PCOD9532885
Probable space group: I B C A 
;
_chemical_formula_sum "Si O2"
_cell_formula_units_Z 64
_cell_length_a 5.669485
_cell_length_b 18.994902
_cell_length_c 27.008909
_cell_angle_alpha 90.000000
_cell_angle_beta 90.000000
_cell_angle_gamma 90.000000
_cell_volume 2908.624845
_symmetry_space_group_name_H-M "I B C A "
_symmetry_group_IT_number 73
_symmetry_cell_setting 'orthorhombic'
loop_
_space_group_symop_operation_xyz
x,y,z
-x,1/2-y,z
x,-y,1/2-z
1/2-x,y,-z
-x,-y,-z
x,1/2+y,-z
-x,y,1/2+z
1/2+x,-y,z
1/2+x,1/2+y,1/2+z
1/2-x,-y,1/2+z
1/2+x,1/2-y,-z
-x,1/2+y,1/2-z
1/2-x,1/2-y,1/2-z
1/2+x,y,1/2-z
1/2-x,1/2+y,z
x,1/2-y,1/2+z
loop_
_atom_site_type_symbol
_atom_site_label
_atom_site_fract_x
_atom_site_fract_y
_atom_site_fract_z
Si Si1 0.250000 0.067756 0.500000
Si Si2 0.000000 0.750000 0.220809
Si Si3 0.193006 0.029890 0.393651
Si Si4 0.979390 0.170050 0.375882
Si Si5 0.107439 0.821568 0.452094
O O1 0.171589 0.022301 0.453172
O O2 0.442890 0.120802 0.477584
O O3 0.750000 0.750000 0.250000
O O4 0.969349 0.815611 0.182583
O O5 0.183592 0.114177 0.384745
O O6 0.441831 0.000105 0.374130
O O7 0.760917 0.143013 0.408583
O O8 0.000000 0.250000 0.396241
O O9 0.250000 0.794626 0.500000
O O10 0.000000 0.750000 0.430007
#
# Coordination Sequence:
#
# PCOD9532885 Si02
#       5
#     8   8  16  16  16
#     4  12  24  36  56  88 146 208 240 272 318 410
#     4  10  26  48  78 108 132 168 236 312 372 426
#     4  12  26  43  63  98 145 192 237 279 335 409
#     4  10  24  45  71 101 132 184 232 296 352 425
#     4  12  21  36  59 101 145 186 238 288 341 404
#
# _framework density 22.003526999999998
#
# number of rings (size 3 to 8) (size 9 to 14) (size 15 to 20)
#    0.750    0.000    3.750    4.500    1.750    2.000 
#    0.000    0.000    0.000    4.500    0.000    0.000 
#    0.000    0.000    0.000    0.000    0.000    0.000 
#
# Total GULP energy -178423.674484 kJ/mol
# GULP energy per Si atom -5575.739828 kJ/mol
# Density = 2.195345 g / cm^3
# Si number density = 22.003527 Si / 1000 Ang^3
#
#
#
# Elastic Constant Matrix: (Units=GPa)
#
#
# Indices 1 2 3 4 5 6 
#
# 1 130.0289 24.8875 33.2670 0.0000 0.0000 0.0000
# 2 24.8875 82.7259 -16.9632 0.0000 0.0000 0.0000
# 3 33.2670 -16.9632 95.5190 0.0000 0.0000 0.0000
# 4 0.0000 0.0000 0.0000 21.7704 0.0000 0.0000
# 5 0.0000 0.0000 0.0000 0.0000 29.0922 0.0000
# 6 0.0000 0.0000 0.0000 0.0000 0.0000 42.2233
#
#
#
# Elastic Compliance Matrix: (Units=1/GPa)
#
#
# Indices 1 2 3 4 5 6 
#
# 1 0.009386 -0.003626 -0.003913 0.000000 0.000000 0.000000
# 2 -0.003626 0.013946 0.003739 0.000000 0.000000 0.000000
# 3 -0.003913 0.003739 0.012496 0.000000 0.000000 0.000000
# 4 0.000000 0.000000 0.000000 0.045934 0.000000 0.000000
# 5 0.000000 0.000000 0.000000 0.000000 0.034373 0.000000
# 6 0.000000 0.000000 0.000000 0.000000 0.000000 0.023684
#
#
# Mechanical properties :
#
#
# Convention : Reuss Voigt Hill
#
# Bulk Modulus (GPa) = 35.42473 43.40628 39.41551
# Shear Modulus (GPa) = 31.88242 36.42269 34.15255
#
# Velocity S-wave (km/s) = 3.81066 4.07297 3.94399
# Velocity P-wave (km/s) = 5.95786 6.47213 6.22031
#
# Compressibility (1/GPa) = 0.02822887
#
# Stress axis : x y z
#
# Youngs Moduli (GPa) = 106.54577 71.70659 80.02617
#
# Poissons Ratio (x) = 0.26000 0.31312
# Poissons Ratio (y) = 0.38633 -0.29925
# Poissons Ratio (z) = 0.41688 -0.26814
#
# Static dielectric constant tensor:
#      x y z
#    x 2.089380 0.000000 0.000000 
#    y 0.000000 1.877920 0.000000 
#    z 0.000000 0.000000 1.780660 
# 
# From -- ./inp_files/2027.got.cif
#   From: 2010.05.17/outbox.cif.g08.bks.cpg/sg73_2_cif.got.tgz:2027.got - 2010.06.03 17:35:07.
