data_PCOD9532498
_publ_section_title
;
Structure prediction by ZEFSAII (Michael W. Deem and Ramdas Pophale) SiO2 
 PCOD9532498
Probable space group: I B C A 
;
_chemical_formula_sum "Si O2"
_cell_formula_units_Z 88
_cell_length_a 12.545875
_cell_length_b 19.085278
_cell_length_c 16.818734
_cell_angle_alpha 90.000000
_cell_angle_beta 90.000000
_cell_angle_gamma 90.000000
_cell_volume 4027.103101
_symmetry_space_group_name_H-M "I B C A "
_symmetry_group_IT_number 73
_symmetry_cell_setting 'orthorhombic'
loop_
_space_group_symop_operation_xyz
x,y,z
-x,1/2-y,z
x,-y,1/2-z
1/2-x,y,-z
-x,-y,-z
x,1/2+y,-z
-x,y,1/2+z
1/2+x,-y,z
1/2+x,1/2+y,1/2+z
1/2-x,-y,1/2+z
1/2+x,1/2-y,-z
-x,1/2+y,1/2-z
1/2-x,1/2-y,1/2-z
1/2+x,y,1/2-z
1/2-x,1/2+y,z
x,1/2-y,1/2+z
loop_
_atom_site_type_symbol
_atom_site_label
_atom_site_fract_x
_atom_site_fract_y
_atom_site_fract_z
Si Si1 0.655480 0.021163 0.939485
Si Si2 0.500000 0.750000 0.977316
Si Si3 0.790693 0.277277 0.412935
Si Si4 0.033943 0.880777 0.410747
Si Si5 0.773930 0.385649 0.876939
Si Si6 0.658727 0.121634 0.804126
O O1 0.544660 0.062335 0.952683
O O2 0.687821 0.051195 0.852601
O O3 0.655060 0.937595 0.930249
O O4 0.750000 0.039400 0.000000
O O5 0.457250 0.689170 0.035906
O O6 0.416055 0.787532 0.920161
O O7 0.750000 0.299417 0.500000
O O8 0.776744 0.194438 0.404022
O O9 0.729789 0.317864 0.344505
O O10 0.963205 0.863567 0.331599
O O11 0.150050 0.907883 0.386286
O O12 0.817633 0.386091 0.787623
#
# Coordination Sequence:
#
# PCOD9532498 Si02
#       6
#    16   8  16  16  16  16
#     4  10  23  45  66  97 134 176 227 277 342 406
#     4  12  22  42  72 104 126 178 228 286 342 406
#     4  12  22  41  69  99 133 170 229 281 335 410
#     4  10  23  41  70  93 136 177 222 281 344 398
#     4  12  24  43  67 101 138 173 229 285 337 416
#     4  10  23  45  63  97 136 178 218 277 344 403
#
# _framework density 21.851935999999998
#
# number of rings (size 3 to 8) (size 9 to 14) (size 15 to 20)
#    1.091    0.000    3.636    3.273    0.000    2.182 
#    9.818    0.000    0.000    0.000    0.000    0.000 
#    0.000    0.000    0.000    0.000    0.000    0.000 
#
# Total GULP energy -245609.252973 kJ/mol
# GULP energy per Si atom -5582.028477 kJ/mol
# Density = 2.180220 g / cm^3
# Si number density = 21.851936 Si / 1000 Ang^3
#
#
#
# Elastic Constant Matrix: (Units=GPa)
#
#
# Indices 1 2 3 4 5 6 
#
# 1 87.6456 1.7045 31.5458 0.0000 0.0000 0.0000
# 2 1.7045 109.6937 11.7260 0.0000 0.0000 0.0000
# 3 31.5458 11.7260 97.8969 0.0000 0.0000 0.0000
# 4 0.0000 0.0000 0.0000 42.6893 0.0000 0.0000
# 5 0.0000 0.0000 0.0000 0.0000 25.1800 0.0000
# 6 0.0000 0.0000 0.0000 0.0000 0.0000 25.2740
#
#
#
# Elastic Compliance Matrix: (Units=1/GPa)
#
#
# Indices 1 2 3 4 5 6 
#
# 1 0.012913 0.000247 -0.004191 0.000000 0.000000 0.000000
# 2 0.000247 0.009239 -0.001186 0.000000 0.000000 0.000000
# 3 -0.004191 -0.001186 0.011707 0.000000 0.000000 0.000000
# 4 0.000000 0.000000 0.000000 0.023425 0.000000 0.000000
# 5 0.000000 0.000000 0.000000 0.000000 0.039714 0.000000
# 6 0.000000 0.000000 0.000000 0.000000 0.000000 0.039566
#
#
# Mechanical properties :
#
#
# Convention : Reuss Voigt Hill
#
# Bulk Modulus (GPa) = 42.37247 42.79878 42.58562
# Shear Modulus (GPa) = 32.32240 35.31264 33.81752
#
# Velocity S-wave (km/s) = 3.85015 4.02431 3.93819
# Velocity P-wave (km/s) = 6.26081 6.42041 6.34111
#
# Compressibility (1/GPa) = 0.02360023
#
# Stress axis : x y z
#
# Youngs Moduli (GPa) = 77.44072 108.23368 85.41666
#
# Poissons Ratio (x) = -0.02677 0.35795
# Poissons Ratio (y) = -0.01915 0.10134
# Poissons Ratio (z) = 0.32453 0.12840
#
# Static dielectric constant tensor:
#      x y z
#    x 1.830020 0.000000 0.000000 
#    y 0.000000 1.825480 0.000000 
#    z 0.000000 0.000000 1.760260 
# 
# From -- ./inp_files/21928.got.cif
#   From: 2010.05.17/outbox.cif.g08.bks.cpg/sg73_11_cif.got.tgz:21928.got - 2010.06.03 17:35:07.
