data_PCOD9532739
_publ_section_title
;
Structure prediction by ZEFSAII (Michael W. Deem and Ramdas Pophale) SiO2 
 PCOD9532739
Probable space group: I B C A 
;
_chemical_formula_sum "Si O2"
_cell_formula_units_Z 96
_cell_length_a 20.874664
_cell_length_b 9.053799
_cell_length_c 23.707652
_cell_angle_alpha 90.000000
_cell_angle_beta 90.000000
_cell_angle_gamma 90.000000
_cell_volume 4480.627975
_symmetry_space_group_name_H-M "I B C A "
_symmetry_group_IT_number 73
_symmetry_cell_setting 'orthorhombic'
loop_
_space_group_symop_operation_xyz
x,y,z
-x,1/2-y,z
x,-y,1/2-z
1/2-x,y,-z
-x,-y,-z
x,1/2+y,-z
-x,y,1/2+z
1/2+x,-y,z
1/2+x,1/2+y,1/2+z
1/2-x,-y,1/2+z
1/2+x,1/2-y,-z
-x,1/2+y,1/2-z
1/2-x,1/2-y,1/2-z
1/2+x,y,1/2-z
1/2-x,1/2+y,z
x,1/2-y,1/2+z
loop_
_atom_site_type_symbol
_atom_site_label
_atom_site_fract_x
_atom_site_fract_y
_atom_site_fract_z
Si Si1 0.393054 0.958089 0.506332
Si Si2 0.802580 0.100519 0.159594
Si Si3 0.077630 0.412722 0.375141
Si Si4 0.565443 0.564868 0.879628
Si Si5 0.191086 0.800958 0.967569
Si Si6 0.325248 0.923646 0.692470
O O1 0.436541 0.034245 0.553218
O O2 0.328592 0.054962 0.502484
O O3 0.416125 0.946981 0.442139
O O4 0.371917 0.799176 0.528842
O O5 0.791770 0.161332 0.096129
O O6 0.813751 0.248064 0.196183
O O7 0.865901 0.999335 0.156179
O O8 0.741578 0.003825 0.176845
O O9 0.083687 0.235904 0.369421
O O10 0.006223 0.458567 0.356709
O O11 0.620096 0.461990 0.853180
O O12 0.250000 0.729496 0.000000
O O13 0.347363 0.000000 0.750000
#
# Coordination Sequence:
#
# PCOD9532739 Si02
#       6
#    16  16  16  16  16  16
#     4  11  20  37  58  93 135 175 212 254 318 402
#     4  11  25  43  66  98 130 172 219 276 329 394
#     4  10  24  41  66  97 136 177 211 261 334 401
#     4  11  22  44  64  95 136 175 217 272 324 395
#     4  11  22  33  58  95 134 175 210 256 324 397
#     4  12  26  46  70  94 125 170 226 286 338 385
#
# _framework density 21.425567000000001
#
# number of rings (size 3 to 8) (size 9 to 14) (size 15 to 20)
#    0.000    1.000    3.333    3.500    4.667    0.667 
#    0.000    4.167    0.000    0.000    0.000    0.000 
#    0.000    0.000    0.000    0.000    0.000    0.000 
#
# Total GULP energy -268303.568312 kJ/mol
# GULP energy per Si atom -5589.657673 kJ/mol
# Density = 2.137680 g / cm^3
# Si number density = 21.425567 Si / 1000 Ang^3
#
#
#
# Elastic Constant Matrix: (Units=GPa)
#
#
# Indices 1 2 3 4 5 6 
#
# 1 111.1028 43.9121 4.8864 0.0000 0.0000 0.0000
# 2 43.9121 90.9401 -1.0524 0.0000 0.0000 0.0000
# 3 4.8864 -1.0524 33.7283 0.0000 0.0000 0.0000
# 4 0.0000 0.0000 0.0000 16.4938 0.0000 0.0000
# 5 0.0000 0.0000 0.0000 0.0000 10.6397 0.0000
# 6 0.0000 0.0000 0.0000 0.0000 0.0000 25.8084
#
#
#
# Elastic Compliance Matrix: (Units=1/GPa)
#
#
# Indices 1 2 3 4 5 6 
#
# 1 0.011231 -0.005444 -0.001797 0.000000 0.000000 0.000000
# 2 -0.005444 0.013639 0.001214 0.000000 0.000000 0.000000
# 3 -0.001797 0.001214 0.029947 0.000000 0.000000 0.000000
# 4 0.000000 0.000000 0.000000 0.060629 0.000000 0.000000
# 5 0.000000 0.000000 0.000000 0.000000 0.093987 0.000000
# 6 0.000000 0.000000 0.000000 0.000000 0.000000 0.038747
#
#
# Mechanical properties :
#
#
# Convention : Reuss Voigt Hill
#
# Bulk Modulus (GPa) = 23.38427 36.80704 30.09565
# Shear Modulus (GPa) = 18.21569 23.12341 20.66955
#
# Velocity S-wave (km/s) = 2.91896 3.28875 3.10935
# Velocity P-wave (km/s) = 4.72211 5.62472 5.19306
#
# Compressibility (1/GPa) = 0.04276380
#
# Stress axis : x y z
#
# Youngs Moduli (GPa) = 89.03593 73.31869 33.39239
#
# Poissons Ratio (x) = 0.39915 0.06001
# Poissons Ratio (y) = 0.48472 -0.04055
# Poissons Ratio (z) = 0.16000 -0.08903
#
# Static dielectric constant tensor:
#      x y z
#    x 1.759090 0.000000 0.000000 
#    y 0.000000 1.774960 0.000000 
#    z 0.000000 0.000000 1.759030 
# 
# From -- ./inp_files/32606.got.cif
#   From: 2010.05.17/outbox.cif.g08.bks.cpg/sg73_17_cif.got.tgz:32606.got - 2010.06.03 17:35:07.
