data_PCOD9532303
_publ_section_title
;
Structure prediction by ZEFSAII (Michael W. Deem and Ramdas Pophale) SiO2 
 PCOD9532303
Probable space group: I B C A 
;
_chemical_formula_sum "Si O2"
_cell_formula_units_Z 96
_cell_length_a 21.707574
_cell_length_b 14.122940
_cell_length_c 13.460492
_cell_angle_alpha 90.000000
_cell_angle_beta 90.000000
_cell_angle_gamma 90.000000
_cell_volume 4126.647174
_symmetry_space_group_name_H-M "I B C A "
_symmetry_group_IT_number 73
_symmetry_cell_setting 'orthorhombic'
loop_
_space_group_symop_operation_xyz
x,y,z
-x,1/2-y,z
x,-y,1/2-z
1/2-x,y,-z
-x,-y,-z
x,1/2+y,-z
-x,y,1/2+z
1/2+x,-y,z
1/2+x,1/2+y,1/2+z
1/2-x,-y,1/2+z
1/2+x,1/2-y,-z
-x,1/2+y,1/2-z
1/2-x,1/2-y,1/2-z
1/2+x,y,1/2-z
1/2-x,1/2+y,z
x,1/2-y,1/2+z
loop_
_atom_site_type_symbol
_atom_site_label
_atom_site_fract_x
_atom_site_fract_y
_atom_site_fract_z
Si Si1 0.372952 0.820940 0.393917
Si Si2 0.271670 0.651542 0.391219
Si Si3 0.168684 0.000000 0.250000
Si Si4 0.000000 0.750000 0.089806
Si Si5 0.532689 0.587195 0.057425
Si Si6 0.861570 0.148893 0.184750
Si Si7 0.592449 0.851685 0.123388
O O1 0.324070 0.733476 0.396292
O O2 0.442660 0.797016 0.358498
O O3 0.353676 0.883609 0.299100
O O4 0.383992 0.854654 0.507569
O O5 0.250000 0.621000 0.500000
O O6 0.294296 0.563971 0.326885
O O7 0.206962 0.681704 0.344884
O O8 0.128694 0.927874 0.313860
O O9 0.965287 0.671495 0.022876
O O10 0.598278 0.579418 0.112926
O O11 0.479156 0.621633 0.130827
O O12 0.500000 0.500000 0.000000
O O13 0.896979 0.247919 0.166134
#
# Coordination Sequence:
#
# PCOD9532303 Si02
#       7
#    16  16   8   8  16  16  16
#     4  11  24  44  78 104 143 204 250 312 381 484
#     4  12  26  48  73 107 152 198 262 318 395 478
#     4  12  30  46  72 114 146 202 254 340 390 478
#     4  10  22  44  70 106 148 188 246 312 380 444
#     4  11  24  46  74 111 151 197 255 319 390 465
#     4  12  24  47  75 106 147 203 257 309 397 479
#     4  11  25  48  75 105 150 191 264 317 393 474
#
# _framework density 23.263439000000002
#
# number of rings (size 3 to 8) (size 9 to 14) (size 15 to 20)
#    0.000    0.667    6.667    0.500    7.000    1.333 
#    6.000    0.000    0.000    0.000    0.000    0.000 
#    0.000    0.000    0.000    0.000    0.000    0.000 
#
# Total GULP energy -267877.213908 kJ/mol
# GULP energy per Si atom -5580.775290 kJ/mol
# Density = 2.321049 g / cm^3
# Si number density = 23.263439 Si / 1000 Ang^3
#
#
#
# Elastic Constant Matrix: (Units=GPa)
#
#
# Indices 1 2 3 4 5 6 
#
# 1 132.6739 14.4564 34.5121 0.0000 0.0000 0.0000
# 2 14.4564 71.8930 19.4237 0.0000 0.0000 0.0000
# 3 34.5121 19.4237 138.0012 0.0000 0.0000 0.0000
# 4 0.0000 0.0000 0.0000 41.4441 0.0000 0.0000
# 5 0.0000 0.0000 0.0000 0.0000 2.4654 0.0000
# 6 0.0000 0.0000 0.0000 0.0000 0.0000 54.7123
#
#
#
# Elastic Compliance Matrix: (Units=1/GPa)
#
#
# Indices 1 2 3 4 5 6 
#
# 1 0.008149 -0.001131 -0.001879 0.000000 0.000000 0.000000
# 2 -0.001131 0.014616 -0.001774 0.000000 0.000000 0.000000
# 3 -0.001879 -0.001774 0.007966 0.000000 0.000000 0.000000
# 4 0.000000 0.000000 0.000000 0.024129 0.000000 0.000000
# 5 0.000000 0.000000 0.000000 0.000000 0.405614 0.000000
# 6 0.000000 0.000000 0.000000 0.000000 0.000000 0.018277
#
#
# Mechanical properties :
#
#
# Convention : Reuss Voigt Hill
#
# Bulk Modulus (GPa) = 47.25222 53.26140 50.25681
# Shear Modulus (GPa) = 10.09337 38.00276 24.04806
#
# Velocity S-wave (km/s) = 2.08522 4.04615 3.21865
# Velocity P-wave (km/s) = 5.11404 6.69126 5.95510
#
# Compressibility (1/GPa) = 0.02116303
#
# Stress axis : x y z
#
# Youngs Moduli (GPa) = 122.71072 68.41629 125.53467
#
# Poissons Ratio (x) = 0.07738 0.23586
# Poissons Ratio (y) = 0.13879 0.22275
# Poissons Ratio (z) = 0.23055 0.12140
#
# Static dielectric constant tensor:
#      x y z
#    x 1.958560 0.000000 0.000000 
#    y 0.000000 1.487630 0.000000 
#    z 0.000000 0.000000 1.901570 
# 
# From -- ./inp_files/18680.got.cif
#   From: 2010.05.17/outbox.cif.g08.bks.cpg/sg73_10_cif.got.tgz:18680.got - 2010.06.03 17:35:07.
