data_PCOD9532419
_publ_section_title
;
Structure prediction by ZEFSAII (Michael W. Deem and Ramdas Pophale) SiO2 
 PCOD9532419
Probable space group: I B C A 
;
_chemical_formula_sum "Si O2"
_cell_formula_units_Z 120
_cell_length_a 26.976730
_cell_length_b 23.915108
_cell_length_c 8.863327
_cell_angle_alpha 90.000000
_cell_angle_beta 90.000000
_cell_angle_gamma 90.000000
_cell_volume 5718.187924
_symmetry_space_group_name_H-M "I B C A "
_symmetry_group_IT_number 73
_symmetry_cell_setting 'orthorhombic'
loop_
_space_group_symop_operation_xyz
x,y,z
-x,1/2-y,z
x,-y,1/2-z
1/2-x,y,-z
-x,-y,-z
x,1/2+y,-z
-x,y,1/2+z
1/2+x,-y,z
1/2+x,1/2+y,1/2+z
1/2-x,-y,1/2+z
1/2+x,1/2-y,-z
-x,1/2+y,1/2-z
1/2-x,1/2-y,1/2-z
1/2+x,y,1/2-z
1/2-x,1/2+y,z
x,1/2-y,1/2+z
loop_
_atom_site_type_symbol
_atom_site_label
_atom_site_fract_x
_atom_site_fract_y
_atom_site_fract_z
Si Si1 0.852186 0.307545 0.396505
Si Si2 0.119655 0.927536 0.172877
Si Si3 0.249226 0.817697 0.229560
Si Si4 0.637319 0.690034 0.232468
Si Si5 0.478953 0.562057 0.506551
Si Si6 0.348259 0.526226 0.002045
Si Si7 0.069535 0.591009 0.169900
Si Si8 0.250000 0.098561 0.000000
O O1 0.874244 0.361590 0.319608
O O2 0.793170 0.321667 0.396874
O O3 0.876484 0.302428 0.559104
O O4 0.859882 0.249778 0.311366
O O5 0.133500 0.950312 0.336195
O O6 0.152509 0.959820 0.043130
O O7 0.064031 0.937129 0.118302
O O8 0.250000 0.750000 0.250000
O O9 0.306745 0.833633 0.222386
O O10 0.232696 0.858229 0.368013
O O11 0.601586 0.646897 0.312785
O O12 0.500000 0.500000 0.500000
O O13 0.455705 0.576567 0.669019
O O14 0.525822 0.598193 0.452135
O O15 0.391033 0.543962 0.885061
O O16 0.296457 0.557177 0.963956
#
# Coordination Sequence:
#
# PCOD9532419 Si02
#       8
#    16  16  16  16  16  16  16   8
#     4  11  24  44  71 103 147 185 241 290 358 433
#     4  11  24  46  69 102 139 184 239 289 360 432
#     4  10  23  36  69 101 141 187 241 278 344 432
#     4  11  25  43  72 106 141 190 236 300 359 428
#     4  12  25  44  74 105 134 181 240 302 359 430
#     4  11  25  43  70 105 147 189 229 292 366 434
#     4  12  25  45  72 106 140 181 242 301 364 426
#     4  12  22  44  64 110 150 194 228 296 368 426
#
# _framework density 20.985669000000001
#
# number of rings (size 3 to 8) (size 9 to 14) (size 15 to 20)
#    0.000    0.800    5.333    1.600   11.200    0.000 
#    2.400    3.333    0.000    0.000    0.000    0.000 
#    0.000    0.000    0.000    0.000    0.000    0.000 
#
# Total GULP energy -334819.261800 kJ/mol
# GULP energy per Si atom -5580.321030 kJ/mol
# Density = 2.093791 g / cm^3
# Si number density = 20.985669 Si / 1000 Ang^3
#
#
#
# Elastic Constant Matrix: (Units=GPa)
#
#
# Indices 1 2 3 4 5 6 
#
# 1 126.0239 43.4224 28.5831 0.0000 0.0000 0.0000
# 2 43.4224 97.6024 28.6093 0.0000 0.0000 0.0000
# 3 28.5831 28.6093 69.8704 0.0000 0.0000 0.0000
# 4 0.0000 0.0000 0.0000 29.0271 0.0000 0.0000
# 5 0.0000 0.0000 0.0000 0.0000 40.0328 0.0000
# 6 0.0000 0.0000 0.0000 0.0000 0.0000 13.6846
#
#
#
# Elastic Compliance Matrix: (Units=1/GPa)
#
#
# Indices 1 2 3 4 5 6 
#
# 1 0.009745 -0.003599 -0.002513 0.000000 0.000000 0.000000
# 2 -0.003599 0.012972 -0.003839 0.000000 0.000000 0.000000
# 3 -0.002513 -0.003839 0.016912 0.000000 0.000000 0.000000
# 4 0.000000 0.000000 0.000000 0.034451 0.000000 0.000000
# 5 0.000000 0.000000 0.000000 0.000000 0.024980 0.000000
# 6 0.000000 0.000000 0.000000 0.000000 0.000000 0.073075
#
#
# Mechanical properties :
#
#
# Convention : Reuss Voigt Hill
#
# Bulk Modulus (GPa) = 50.69172 54.96960 52.83066
# Shear Modulus (GPa) = 25.17463 29.40768 27.29116
#
# Velocity S-wave (km/s) = 3.46730 3.74748 3.61011
# Velocity P-wave (km/s) = 6.34329 6.70638 6.52736
#
# Compressibility (1/GPa) = 0.01972709
#
# Stress axis : x y z
#
# Youngs Moduli (GPa) = 102.61719 77.08832 59.12854
#
# Poissons Ratio (x) = 0.27743 0.14859
# Poissons Ratio (y) = 0.36930 0.22702
# Poissons Ratio (z) = 0.25787 0.29597
#
# Static dielectric constant tensor:
#      x y z
#    x 1.766510 0.000000 0.000000 
#    y 0.000000 1.518680 0.000000 
#    z 0.000000 0.000000 1.792480 
# 
# From -- ./inp_files/8043.got.cif
#   From: 2010.05.17/outbox.cif.g08.bks.cpg/sg73_5_cif.got.tgz:8043.got - 2010.06.03 17:35:07.
