data_PCOD9532958
_publ_section_title
;
Structure prediction by ZEFSAII (Michael W. Deem and Ramdas Pophale) SiO2 
 PCOD9532958
Probable space group: I B C A 
;
_chemical_formula_sum "Si O2"
_cell_formula_units_Z 112
_cell_length_a 14.298602
_cell_length_b 14.637266
_cell_length_c 25.415119
_cell_angle_alpha 90.000000
_cell_angle_beta 90.000000
_cell_angle_gamma 90.000000
_cell_volume 5319.192291
_symmetry_space_group_name_H-M "I B C A "
_symmetry_group_IT_number 73
_symmetry_cell_setting 'orthorhombic'
loop_
_space_group_symop_operation_xyz
x,y,z
-x,1/2-y,z
x,-y,1/2-z
1/2-x,y,-z
-x,-y,-z
x,1/2+y,-z
-x,y,1/2+z
1/2+x,-y,z
1/2+x,1/2+y,1/2+z
1/2-x,-y,1/2+z
1/2+x,1/2-y,-z
-x,1/2+y,1/2-z
1/2-x,1/2-y,1/2-z
1/2+x,y,1/2-z
1/2-x,1/2+y,z
x,1/2-y,1/2+z
loop_
_atom_site_type_symbol
_atom_site_label
_atom_site_fract_x
_atom_site_fract_y
_atom_site_fract_z
Si Si1 0.607771 0.378251 0.986674
Si Si2 0.694819 0.680015 0.285140
Si Si3 0.642585 0.478976 0.426566
Si Si4 0.419936 0.691237 0.531090
Si Si5 0.500000 0.250000 0.666430
Si Si6 0.483744 0.541488 0.352304
Si Si7 0.108276 0.000000 0.750000
Si Si8 0.307602 0.575199 0.127381
O O1 0.494243 0.379062 0.994557
O O2 0.626229 0.271795 0.002501
O O3 0.647459 0.388252 0.927514
O O4 0.649809 0.455676 0.022931
O O5 0.750000 0.750000 0.250000
O O6 0.595608 0.724304 0.302735
O O7 0.671604 0.590060 0.250807
O O8 0.760414 0.649794 0.334381
O O9 0.650710 0.372523 0.439439
O O10 0.543003 0.498757 0.399921
O O11 0.721587 0.510758 0.387359
O O12 0.500000 0.750000 0.563093
O O13 0.521429 0.348546 0.639182
O O14 0.543039 0.516664 0.300470
O O15 0.386682 0.488531 0.347506
#
# Coordination Sequence:
#
# PCOD9532958 Si02
#       8
#    16  16  16  16   8  16   8  16
#     4   9  22  42  66  99 143 177 230 285 337 428
#     4  11  27  46  73 105 138 183 237 292 358 425
#     4  12  21  46  67 101 144 181 232 283 360 418
#     4   8  20  39  69  91 130 189 228 267 349 405
#     4  10  24  48  64 108 134 182 234 284 364 410
#     4  11  25  44  72  97 141 184 235 292 352 425
#     4  10  24  50  66  96 140 188 226 290 354 412
#     4  12  25  42  70 106 138 184 232 293 350 425
#
# _framework density 21.055827000000001
#
# number of rings (size 3 to 8) (size 9 to 14) (size 15 to 20)
#    0.857    0.571    4.286    0.857    6.000    3.429 
#    0.000    1.429    0.000    0.000    0.000    0.000 
#    0.000    0.000    0.000    0.000    0.000    0.000 
#
# Total GULP energy -311783.826654 kJ/mol
# GULP energy per Si atom -5567.568333 kJ/mol
# Density = 2.100790 g / cm^3
# Si number density = 21.055827 Si / 1000 Ang^3
#
#
#
# Elastic Constant Matrix: (Units=GPa)
#
#
# Indices 1 2 3 4 5 6 
#
# 1 107.6363 44.9717 23.4291 0.0000 0.0000 0.0000
# 2 44.9717 118.3566 42.7657 0.0000 0.0000 0.0000
# 3 23.4291 42.7657 75.6276 0.0000 0.0000 0.0000
# 4 0.0000 0.0000 0.0000 12.6096 0.0000 0.0000
# 5 0.0000 0.0000 0.0000 0.0000 9.4841 0.0000
# 6 0.0000 0.0000 0.0000 0.0000 0.0000 29.2960
#
#
#
# Elastic Compliance Matrix: (Units=1/GPa)
#
#
# Indices 1 2 3 4 5 6 
#
# 1 0.011149 -0.003756 -0.001330 0.000000 0.000000 0.000000
# 2 -0.003756 0.011884 -0.005557 0.000000 0.000000 0.000000
# 3 -0.001330 -0.005557 0.016777 0.000000 0.000000 0.000000
# 4 0.000000 0.000000 0.000000 0.079304 0.000000 0.000000
# 5 0.000000 0.000000 0.000000 0.000000 0.105440 0.000000
# 6 0.000000 0.000000 0.000000 0.000000 0.000000 0.034134
#
#
# Mechanical properties :
#
#
# Convention : Reuss Voigt Hill
#
# Bulk Modulus (GPa) = 53.98101 58.21707 56.09904
# Shear Modulus (GPa) = 17.47345 22.97489 20.22417
#
# Velocity S-wave (km/s) = 2.88386 3.30683 3.10256
# Velocity P-wave (km/s) = 6.06478 6.50300 6.28771
#
# Compressibility (1/GPa) = 0.01852503
#
# Stress axis : x y z
#
# Youngs Moduli (GPa) = 89.69187 84.14799 59.60588
#
# Poissons Ratio (x) = 0.31604 0.07929
# Poissons Ratio (y) = 0.33686 0.33120
# Poissons Ratio (z) = 0.11931 0.46757
#
# Static dielectric constant tensor:
#      x y z
#    x 1.678280 0.000000 0.000000 
#    y 0.000000 1.854210 0.000000 
#    z 0.000000 0.000000 1.794640 
# 
# From -- ./inp_files/29569.got.cif
#   From: 2010.05.17/outbox.cif.g08.bks.cpg/sg73_15_cif.got.tgz:29569.got - 2010.06.03 17:35:07.
