data_PCOD9532137
_publ_section_title
;
Structure prediction by ZEFSAII (Michael W. Deem and Ramdas Pophale) SiO2 
 PCOD9532137
Probable space group: I B C A 
;
_chemical_formula_sum "Si O2"
_cell_formula_units_Z 112
_cell_length_a 9.812375
_cell_length_b 20.152451
_cell_length_c 26.351366
_cell_angle_alpha 90.000000
_cell_angle_beta 90.000000
_cell_angle_gamma 90.000000
_cell_volume 5210.808876
_symmetry_space_group_name_H-M "I B C A "
_symmetry_group_IT_number 73
_symmetry_cell_setting 'orthorhombic'
loop_
_space_group_symop_operation_xyz
x,y,z
-x,1/2-y,z
x,-y,1/2-z
1/2-x,y,-z
-x,-y,-z
x,1/2+y,-z
-x,y,1/2+z
1/2+x,-y,z
1/2+x,1/2+y,1/2+z
1/2-x,-y,1/2+z
1/2+x,1/2-y,-z
-x,1/2+y,1/2-z
1/2-x,1/2-y,1/2-z
1/2+x,y,1/2-z
1/2-x,1/2+y,z
x,1/2-y,1/2+z
loop_
_atom_site_type_symbol
_atom_site_label
_atom_site_fract_x
_atom_site_fract_y
_atom_site_fract_z
Si Si1 0.127916 0.437269 0.214735
Si Si2 0.376500 0.451482 0.136505
Si Si3 0.545587 0.594945 0.616552
Si Si4 0.774051 0.138816 0.058305
Si Si5 0.151215 0.735557 0.896594
Si Si6 0.552894 0.859094 0.809097
Si Si7 0.794413 0.230828 0.805334
O O1 0.090116 0.500000 0.250000
O O2 0.265065 0.453142 0.182583
O O3 0.016975 0.414153 0.173337
O O4 0.129198 0.380264 0.257635
O O5 0.387802 0.522871 0.110129
O O6 0.329698 0.398094 0.095410
O O7 0.521127 0.423911 0.157583
O O8 0.420211 0.611205 0.578713
O O9 0.649170 0.656557 0.611149
O O10 0.757479 0.218410 0.067368
O O11 0.750000 0.123177 0.000000
O O12 0.168108 0.775506 0.843089
O O13 0.000000 0.750000 0.916054
O O14 0.401736 0.828307 0.800945
O O15 0.631074 0.795109 0.830107
O O16 0.750000 0.250000 0.750000
#
# Coordination Sequence:
#
# PCOD9532137 Si02
#       7
#    16  16  16  16  16  16  16
#     4  11  23  36  57  90 138 183 220 261 327 402
#     4  11  23  41  62  94 133 177 224 279 329 413
#     4  10  23  40  65  96 130 172 229 275 331 411
#     4  10  23  46  70  91 127 170 221 292 358 400
#     4  10  22  42  64  92 126 165 220 275 336 410
#     4  11  23  37  55  90 132 175 224 263 331 394
#     4  11  23  35  58  88 128 177 217 274 331 398
#
# _framework density 21.493784999999999
#
# number of rings (size 3 to 8) (size 9 to 14) (size 15 to 20)
#    0.000    1.429    2.857    1.714   10.000    0.571 
#    0.000    5.000    0.000    0.000    0.000    0.000 
#    0.000    0.000    0.000    0.000    0.000    0.000 
#
# Total GULP energy -312125.225675 kJ/mol
# GULP energy per Si atom -5573.664744 kJ/mol
# Density = 2.144486 g / cm^3
# Si number density = 21.493785 Si / 1000 Ang^3
#
#
#
# Elastic Constant Matrix: (Units=GPa)
#
#
# Indices 1 2 3 4 5 6 
#
# 1 37.1702 34.5986 21.8128 0.0000 0.0000 0.0000
# 2 34.5986 165.7796 30.3544 0.0000 0.0000 0.0000
# 3 21.8128 30.3544 114.5691 0.0000 0.0000 0.0000
# 4 0.0000 0.0000 0.0000 21.8557 0.0000 0.0000
# 5 0.0000 0.0000 0.0000 0.0000 14.0209 0.0000
# 6 0.0000 0.0000 0.0000 0.0000 0.0000 32.2847
#
#
#
# Elastic Compliance Matrix: (Units=1/GPa)
#
#
# Indices 1 2 3 4 5 6 
#
# 1 0.036034 -0.006584 -0.005116 0.000000 0.000000 0.000000
# 2 -0.006584 0.007542 -0.000745 0.000000 0.000000 0.000000
# 3 -0.005116 -0.000745 0.009900 0.000000 0.000000 0.000000
# 4 0.000000 0.000000 0.000000 0.045755 0.000000 0.000000
# 5 0.000000 0.000000 0.000000 0.000000 0.071322 0.000000
# 6 0.000000 0.000000 0.000000 0.000000 0.000000 0.030974
#
#
# Mechanical properties :
#
#
# Convention : Reuss Voigt Hill
#
# Bulk Modulus (GPa) = 34.98129 54.56118 44.77123
# Shear Modulus (GPa) = 21.19136 29.01579 25.10358
#
# Velocity S-wave (km/s) = 3.14336 3.67817 3.42123
# Velocity P-wave (km/s) = 5.42998 6.59381 6.03999
#
# Compressibility (1/GPa) = 0.02858671
#
# Stress axis : x y z
#
# Youngs Moduli (GPa) = 27.75185 132.58204 101.01233
#
# Poissons Ratio (x) = 0.87286 0.51680
# Poissons Ratio (y) = 0.18271 0.07524
# Poissons Ratio (z) = 0.14198 0.09876
#
# Static dielectric constant tensor:
#      x y z
#    x 1.867070 0.000000 0.000000 
#    y 0.000000 1.912250 0.000000 
#    z 0.000000 0.000000 1.735300 
# 
# From -- ./inp_files/29036.got.cif
#   From: 2010.05.17/outbox.cif.g08.bks.cpg/sg73_15_cif.got.tgz:29036.got - 2010.06.03 17:35:07.
