data_PCOD9532831
_publ_section_title
;
Structure prediction by ZEFSAII (Michael W. Deem and Ramdas Pophale) SiO2 
 PCOD9532831
Probable space group: I B C A 
;
_chemical_formula_sum "Si O2"
_cell_formula_units_Z 88
_cell_length_a 11.736947
_cell_length_b 19.083131
_cell_length_c 18.094573
_cell_angle_alpha 90.000000
_cell_angle_beta 90.000000
_cell_angle_gamma 90.000000
_cell_volume 4052.780791
_symmetry_space_group_name_H-M "I B C A "
_symmetry_group_IT_number 73
_symmetry_cell_setting 'orthorhombic'
loop_
_space_group_symop_operation_xyz
x,y,z
-x,1/2-y,z
x,-y,1/2-z
1/2-x,y,-z
-x,-y,-z
x,1/2+y,-z
-x,y,1/2+z
1/2+x,-y,z
1/2+x,1/2+y,1/2+z
1/2-x,-y,1/2+z
1/2+x,1/2-y,-z
-x,1/2+y,1/2-z
1/2-x,1/2-y,1/2-z
1/2+x,y,1/2-z
1/2-x,1/2+y,z
x,1/2-y,1/2+z
loop_
_atom_site_type_symbol
_atom_site_label
_atom_site_fract_x
_atom_site_fract_y
_atom_site_fract_z
Si Si1 0.750000 0.372362 0.500000
Si Si2 0.132094 0.446677 0.310759
Si Si3 0.538607 0.453098 0.431884
Si Si4 0.808082 0.873198 0.920909
Si Si5 0.090161 0.695775 0.251754
Si Si6 0.271594 0.773805 0.871017
O O1 0.656000 0.416874 0.456575
O O2 0.808554 0.324442 0.436885
O O3 0.179405 0.500000 0.250000
O O4 0.056969 0.494790 0.363953
O O5 0.232832 0.411708 0.358458
O O6 0.061405 0.382632 0.273932
O O7 0.500000 0.500000 0.500000
O O8 0.437878 0.398089 0.417541
O O9 0.796834 0.790522 0.907342
O O10 0.750000 0.890074 0.000000
O O11 0.132267 0.737402 0.178710
O O12 0.191626 0.688260 0.310897
O O13 0.000000 0.750000 0.285211
#
# Coordination Sequence:
#
# PCOD9532831 Si02
#       6
#     8  16  16  16  16  16
#     4  12  26  42  72 108 138 178 242 282 356 422
#     4  11  25  46  68 105 143 191 238 295 368 433
#     4  12  26  43  70 102 144 188 234 294 352 435
#     4  11  23  46  69 102 144 182 241 293 357 423
#     4  10  24  45  70  97 142 181 238 290 354 420
#     4  10  24  44  68 103 134 181 231 295 347 420
#
# _framework density 21.713487000000001
#
# number of rings (size 3 to 8) (size 9 to 14) (size 15 to 20)
#    0.000    1.091    2.727    2.182    7.636    0.727 
#    3.273    0.000    0.000    0.000    0.000    0.000 
#    0.000    0.000    0.000    0.000    0.000    0.000 
#
# Total GULP energy -246021.521454 kJ/mol
# GULP energy per Si atom -5591.398215 kJ/mol
# Density = 2.166407 g / cm^3
# Si number density = 21.713487 Si / 1000 Ang^3
#
#
#
# Elastic Constant Matrix: (Units=GPa)
#
#
# Indices 1 2 3 4 5 6 
#
# 1 58.1062 21.4429 -5.0573 0.0000 0.0000 0.0000
# 2 21.4429 112.1237 38.7162 0.0000 0.0000 0.0000
# 3 -5.0573 38.7162 94.7110 0.0000 0.0000 0.0000
# 4 0.0000 0.0000 0.0000 45.9083 0.0000 0.0000
# 5 0.0000 0.0000 0.0000 0.0000 20.7984 0.0000
# 6 0.0000 0.0000 0.0000 0.0000 0.0000 17.8415
#
#
#
# Elastic Compliance Matrix: (Units=1/GPa)
#
#
# Indices 1 2 3 4 5 6 
#
# 1 0.019195 -0.004686 0.002941 0.000000 0.000000 0.000000
# 2 -0.004686 0.011529 -0.004963 0.000000 0.000000 0.000000
# 3 0.002941 -0.004963 0.012744 0.000000 0.000000 0.000000
# 4 0.000000 0.000000 0.000000 0.021783 0.000000 0.000000
# 5 0.000000 0.000000 0.000000 0.000000 0.048081 0.000000
# 6 0.000000 0.000000 0.000000 0.000000 0.000000 0.056049
#
#
# Mechanical properties :
#
#
# Convention : Reuss Voigt Hill
#
# Bulk Modulus (GPa) = 33.27699 41.68274 37.47986
# Shear Modulus (GPa) = 25.93165 30.89891 28.41528
#
# Velocity S-wave (km/s) = 3.45956 3.77640 3.62145
# Velocity P-wave (km/s) = 5.59615 6.18492 5.89789
#
# Compressibility (1/GPa) = 0.03005079
#
# Stress axis : x y z
#
# Youngs Moduli (GPa) = 52.09632 86.74038 78.46691
#
# Poissons Ratio (x) = 0.40650 -0.23074
# Poissons Ratio (y) = 0.24414 0.38943
# Poissons Ratio (z) = -0.15320 0.43049
#
# Static dielectric constant tensor:
#      x y z
#    x 1.678190 0.000000 0.000000 
#    y 0.000000 1.783690 0.000000 
#    z 0.000000 0.000000 1.799880 
# 
# From -- ./inp_files/11862.got.cif
#   From: 2010.05.17/outbox.cif.g08.bks.cpg/sg73_6_cif.got.tgz:11862.got - 2010.06.03 17:35:07.
