data_PCOD9532165
_publ_section_title
;
Structure prediction by ZEFSAII (Michael W. Deem and Ramdas Pophale) SiO2 
 PCOD9532165
Probable space group: I B C A 
;
_chemical_formula_sum "Si O2"
_cell_formula_units_Z 112
_cell_length_a 15.631206
_cell_length_b 23.219124
_cell_length_c 15.926869
_cell_angle_alpha 90.000000
_cell_angle_beta 90.000000
_cell_angle_gamma 90.000000
_cell_volume 5780.544188
_symmetry_space_group_name_H-M "I B C A "
_symmetry_group_IT_number 73
_symmetry_cell_setting 'orthorhombic'
loop_
_space_group_symop_operation_xyz
x,y,z
-x,1/2-y,z
x,-y,1/2-z
1/2-x,y,-z
-x,-y,-z
x,1/2+y,-z
-x,y,1/2+z
1/2+x,-y,z
1/2+x,1/2+y,1/2+z
1/2-x,-y,1/2+z
1/2+x,1/2-y,-z
-x,1/2+y,1/2-z
1/2-x,1/2-y,1/2-z
1/2+x,y,1/2-z
1/2-x,1/2+y,z
x,1/2-y,1/2+z
loop_
_atom_site_type_symbol
_atom_site_label
_atom_site_fract_x
_atom_site_fract_y
_atom_site_fract_z
Si Si1 0.943369 0.424747 0.568497
Si Si2 0.836792 0.677488 0.629556
Si Si3 0.250000 0.907629 0.500000
Si Si4 0.887424 0.504579 0.424938
Si Si5 0.792472 0.000000 0.750000
Si Si6 0.008994 0.814014 0.022872
Si Si7 0.300618 0.806259 0.911487
Si Si8 0.692469 0.611249 0.206561
O O1 0.894193 0.449991 0.486920
O O2 0.988123 0.364796 0.544227
O O3 0.878535 0.413790 0.643737
O O4 0.017522 0.470444 0.587766
O O5 0.779329 0.633670 0.575395
O O6 0.796436 0.741200 0.624162
O O7 0.844136 0.654022 0.723379
O O8 0.929305 0.678790 0.585039
O O9 0.172080 0.948463 0.471496
O O10 0.847028 0.493327 0.334563
O O11 0.735588 0.942649 0.753275
O O12 0.099491 0.816984 0.070529
O O13 0.000000 0.750000 0.984806
O O14 0.259650 0.852526 0.849114
O O15 0.250000 0.808583 0.000000
#
# Coordination Sequence:
#
# PCOD9532165 Si02
#       8
#    16  16   8  16   8  16  16  16
#     4  11  24  43  67  97 133 178 224 273 342 404
#     4  11  24  43  69  97 137 170 227 278 342 400
#     4  12  20  44  68  92 122 180 222 270 336 412
#     4  11  25  42  66  95 131 177 223 277 336 402
#     4  12  26  42  64  98 134 174 226 282 328 398
#     4  10  22  42  67  99 131 176 219 274 338 407
#     4  11  22  42  72  99 132 181 221 278 340 410
#     4  12  26  42  67 103 133 174 228 285 332 404
#
# _framework density 19.375337999999999
#
# number of rings (size 3 to 8) (size 9 to 14) (size 15 to 20)
#    0.000    0.857    5.000    2.143    0.000    2.857 
#    0.000    2.143    0.000    0.000    0.000    0.000 
#    0.000    0.000    0.000    0.000    0.000    0.000 
#
# Total GULP energy -313059.279185 kJ/mol
# GULP energy per Si atom -5590.344271 kJ/mol
# Density = 1.933124 g / cm^3
# Si number density = 19.375338 Si / 1000 Ang^3
#
#
#
# Elastic Constant Matrix: (Units=GPa)
#
#
# Indices 1 2 3 4 5 6 
#
# 1 71.7222 22.2518 18.3668 0.0000 0.0000 -0.0001
# 2 22.2518 99.2038 29.8314 -0.0002 0.0000 -0.0007
# 3 18.3668 29.8314 83.5995 -0.0004 0.0001 -0.0020
# 4 0.0000 -0.0002 -0.0004 19.7785 0.0001 -0.0007
# 5 0.0000 0.0000 0.0001 0.0001 13.8355 0.0002
# 6 -0.0001 -0.0007 -0.0020 -0.0007 0.0002 -57.9966
#
#
#
# Elastic Compliance Matrix: (Units=1/GPa)
#
#
# Indices 1 2 3 4 5 6 
#
# 1 0.015407 -0.002731 -0.002410 0.000000 0.000000 0.000000
# 2 -0.002731 0.011776 -0.003602 0.000000 0.000000 0.000000
# 3 -0.002410 -0.003602 0.013777 0.000000 0.000000 0.000000
# 4 0.000000 0.000000 0.000000 0.050560 0.000000 -0.000001
# 5 0.000000 0.000000 0.000000 0.000000 0.072278 0.000000
# 6 0.000000 0.000000 0.000000 -0.000001 0.000000 -0.017242
#
#
# Mechanical properties :
#
#
# Convention : Reuss Voigt Hill
#
# Bulk Modulus (GPa) = 42.60250 43.93619 43.26935
# Shear Modulus (GPa) = 29.09224 7.39518 18.24371
#
# Velocity S-wave (km/s) = 3.87913 1.95578 3.07187
# Velocity P-wave (km/s) = 6.48840 5.27501 5.91291
#
# Compressibility (1/GPa) = 0.02347280
#
# Stress axis : x y z
#
# Youngs Moduli (GPa) = 64.90444 84.91823 72.58616
#
# Poissons Ratio (x) = 0.23192 0.17496
# Poissons Ratio (y) = 0.17726 0.26146
# Poissons Ratio (z) = 0.15645 0.30589
#
# Static dielectric constant tensor:
#      x y z
#    x 1.663940 0.000000 0.000000 
#    y 0.000000 1.684240 0.000000 
#    z 0.000000 0.000000 1.640190 
# 
# From -- ./inp_files/17299.got.cif
#   From: 2010.05.17/outbox.cif.g08.bks.cpg/sg73_9_cif.got.tgz:17299.got - 2010.06.03 17:35:07.
