data_PCOD9532652
_publ_section_title
;
Structure prediction by ZEFSAII (Michael W. Deem and Ramdas Pophale) SiO2 
 PCOD9532652
Probable space group: I B C A 
;
_chemical_formula_sum "Si O2"
_cell_formula_units_Z 96
_cell_length_a 21.942628
_cell_length_b 8.672083
_cell_length_c 20.992524
_cell_angle_alpha 90.000000
_cell_angle_beta 90.000000
_cell_angle_gamma 90.000000
_cell_volume 3994.631521
_symmetry_space_group_name_H-M "I B C A "
_symmetry_group_IT_number 73
_symmetry_cell_setting 'orthorhombic'
loop_
_space_group_symop_operation_xyz
x,y,z
-x,1/2-y,z
x,-y,1/2-z
1/2-x,y,-z
-x,-y,-z
x,1/2+y,-z
-x,y,1/2+z
1/2+x,-y,z
1/2+x,1/2+y,1/2+z
1/2-x,-y,1/2+z
1/2+x,1/2-y,-z
-x,1/2+y,1/2-z
1/2-x,1/2-y,1/2-z
1/2+x,y,1/2-z
1/2-x,1/2+y,z
x,1/2-y,1/2+z
loop_
_atom_site_type_symbol
_atom_site_label
_atom_site_fract_x
_atom_site_fract_y
_atom_site_fract_z
Si Si1 0.056930 0.339051 0.715309
Si Si2 0.229362 0.883923 0.797314
Si Si3 0.182604 0.811648 0.490358
Si Si4 0.347760 0.508210 0.370279
Si Si5 0.429803 0.703981 0.848843
Si Si6 0.641177 0.054268 0.910001
O O1 0.038145 0.500000 0.750000
O O2 0.106990 0.389573 0.664972
O O3 0.080151 0.231539 0.773104
O O4 0.000000 0.250000 0.686165
O O5 0.250000 0.750000 0.750000
O O6 0.195976 0.000000 0.750000
O O7 0.291978 0.954949 0.823863
O O8 0.187188 0.869424 0.859024
O O9 0.250000 0.741581 0.500000
O O10 0.179409 0.937923 0.434120
O O11 0.134791 0.683282 0.465065
O O12 0.170568 0.908698 0.553662
O O13 0.386911 0.663662 0.379374
O O14 0.500000 0.750000 0.861146
O O15 0.413580 0.532842 0.873329
#
# Coordination Sequence:
#
# PCOD9532652 Si02
#       6
#    16  16  16  16  16  16
#     4   9  20  40  70 104 149 195 243 301 374 450
#     4  12  25  42  68 107 147 184 233 311 386 450
#     4  12  26  47  70 104 141 197 248 302 380 458
#     4  11  23  45  71 103 148 191 247 300 369 456
#     4  10  23  46  72 106 151 200 250 311 382 455
#     4  12  27  45  74 102 146 196 251 308 378 452
#
# _framework density 24.032253999999998
#
# number of rings (size 3 to 8) (size 9 to 14) (size 15 to 20)
#    0.000    1.000    1.667    5.000    2.333    5.333 
#    0.000   15.000    0.000    0.000    0.000    0.000 
#    0.000    0.000    0.000    0.000    0.000    0.000 
#
# Total GULP energy -268419.581774 kJ/mol
# GULP energy per Si atom -5592.074620 kJ/mol
# Density = 2.397756 g / cm^3
# Si number density = 24.032254 Si / 1000 Ang^3
#
#
#
# Elastic Constant Matrix: (Units=GPa)
#
#
# Indices 1 2 3 4 5 6 
#
# 1 105.8272 53.6703 43.9423 0.0000 0.0000 0.0000
# 2 53.6703 112.9290 54.2015 0.0000 0.0000 0.0000
# 3 43.9423 54.2015 114.8240 0.0000 0.0000 0.0000
# 4 0.0000 0.0000 0.0000 55.2394 0.0000 0.0000
# 5 0.0000 0.0000 0.0000 0.0000 23.8975 0.0000
# 6 0.0000 0.0000 0.0000 0.0000 0.0000 48.3391
#
#
#
# Elastic Compliance Matrix: (Units=1/GPa)
#
#
# Indices 1 2 3 4 5 6 
#
# 1 0.013055 -0.004922 -0.002673 0.000000 0.000000 0.000000
# 2 -0.004922 0.013304 -0.004397 0.000000 0.000000 0.000000
# 3 -0.002673 -0.004397 0.011807 0.000000 0.000000 0.000000
# 4 0.000000 0.000000 0.000000 0.018103 0.000000 0.000000
# 5 0.000000 0.000000 0.000000 0.000000 0.041845 0.000000
# 6 0.000000 0.000000 0.000000 0.000000 0.000000 0.020687
#
#
# Mechanical properties :
#
#
# Convention : Reuss Voigt Hill
#
# Bulk Modulus (GPa) = 70.50030 70.80092 70.65061
# Shear Modulus (GPa) = 33.89520 37.61294 35.75407
#
# Velocity S-wave (km/s) = 3.75961 3.96043 3.86133
# Velocity P-wave (km/s) = 6.94591 7.10198 7.02437
#
# Compressibility (1/GPa) = 0.01418434
#
# Stress axis : x y z
#
# Youngs Moduli (GPa) = 76.59736 75.16273 84.69322
#
# Poissons Ratio (x) = 0.36993 0.22638
# Poissons Ratio (y) = 0.37699 0.37237
# Poissons Ratio (z) = 0.20474 0.33047
#
# Static dielectric constant tensor:
#      x y z
#    x 1.924220 0.000000 0.000000 
#    y 0.000000 2.013030 0.000000 
#    z 0.000000 0.000000 1.917140 
# 
# From -- ./inp_files/30279.got.cif
#   From: 2010.05.17/outbox.cif.g08.bks.cpg/sg73_16_cif.got.tgz:30279.got - 2010.06.03 17:35:07.
