data_PCOD9532630
_publ_section_title
;
Structure prediction by ZEFSAII (Michael W. Deem and Ramdas Pophale) SiO2 
 PCOD9532630
Probable space group: I B C A 
;
_chemical_formula_sum "Si O2"
_cell_formula_units_Z 72
_cell_length_a 5.197470
_cell_length_b 19.992776
_cell_length_c 25.661224
_cell_angle_alpha 90.000000
_cell_angle_beta 90.000000
_cell_angle_gamma 90.000000
_cell_volume 2666.505348
_symmetry_space_group_name_H-M "I B C A "
_symmetry_group_IT_number 73
_symmetry_cell_setting 'orthorhombic'
loop_
_space_group_symop_operation_xyz
x,y,z
-x,1/2-y,z
x,-y,1/2-z
1/2-x,y,-z
-x,-y,-z
x,1/2+y,-z
-x,y,1/2+z
1/2+x,-y,z
1/2+x,1/2+y,1/2+z
1/2-x,-y,1/2+z
1/2+x,1/2-y,-z
-x,1/2+y,1/2-z
1/2-x,1/2-y,1/2-z
1/2+x,y,1/2-z
1/2-x,1/2+y,z
x,1/2-y,1/2+z
loop_
_atom_site_type_symbol
_atom_site_label
_atom_site_fract_x
_atom_site_fract_y
_atom_site_fract_z
Si Si1 0.646722 0.456524 0.946741
Si Si2 0.611084 0.854134 0.873889
Si Si3 0.613366 0.322666 0.772333
Si Si4 0.500000 0.250000 0.038007
Si Si5 0.676813 0.966480 0.309200
O O1 0.355244 0.482538 0.945404
O O2 0.700395 0.402731 0.903659
O O3 0.750000 0.422763 0.000000
O O4 0.783020 0.815184 0.830466
O O5 0.483354 0.810441 0.919380
O O6 0.422129 0.898829 0.838381
O O7 0.344789 0.359877 0.758825
O O8 0.000000 0.250000 0.745755
O O9 0.250000 0.247784 0.000000
O O10 0.693956 0.000000 0.250000
O O11 0.956313 0.983496 0.330110
#
# Coordination Sequence:
#
# PCOD9532630 Si02
#       5
#    16  16  16   8  16
#     4  10  23  45  73 108 144 195 267 334 405 474
#     4  12  27  49  84 110 164 216 262 340 416 468
#     4  10  26  46  70 108 154 200 256 310 380 487
#     4  12  34  56  78 120 162 218 292 340 396 490
#     4  10  24  44  73 117 160 204 262 332 407 492
#
# _framework density 27.001631
#
# number of rings (size 3 to 8) (size 9 to 14) (size 15 to 20)
#    0.000    1.333    0.000    2.000   12.444    8.000 
#    0.000    0.000    0.000    0.000    0.000    0.000 
#    0.000    0.000    0.000    0.000    0.000    0.000 
#
# Total GULP energy -200709.365911 kJ/mol
# GULP energy per Si atom -5575.260164 kJ/mol
# Density = 2.694017 g / cm^3
# Si number density = 27.001631 Si / 1000 Ang^3
#
#
#
# Elastic Constant Matrix: (Units=GPa)
#
#
# Indices 1 2 3 4 5 6 
#
# 1 88.7920 0.4673 32.7528 0.0000 0.0000 0.0000
# 2 0.4673 96.7653 63.3038 0.0000 0.0000 0.0000
# 3 32.7528 63.3038 210.3013 0.0000 0.0000 0.0000
# 4 0.0000 0.0000 0.0000 51.6698 0.0000 0.0000
# 5 0.0000 0.0000 0.0000 0.0000 48.7299 0.0000
# 6 0.0000 0.0000 0.0000 0.0000 0.0000 24.5472
#
#
#
# Elastic Compliance Matrix: (Units=1/GPa)
#
#
# Indices 1 2 3 4 5 6 
#
# 1 0.012113 0.001464 -0.002327 0.000000 0.000000 0.000000
# 2 0.001464 0.013045 -0.004155 0.000000 0.000000 0.000000
# 3 -0.002327 -0.004155 0.006368 0.000000 0.000000 0.000000
# 4 0.000000 0.000000 0.000000 0.019354 0.000000 0.000000
# 5 0.000000 0.000000 0.000000 0.000000 0.020521 0.000000
# 6 0.000000 0.000000 0.000000 0.000000 0.000000 0.040738
#
#
# Mechanical properties :
#
#
# Convention : Reuss Voigt Hill
#
# Bulk Modulus (GPa) = 46.53250 65.43404 55.98327
# Shear Modulus (GPa) = 38.65816 44.94503 41.80160
#
# Velocity S-wave (km/s) = 3.78788 4.08429 3.93888
# Velocity P-wave (km/s) = 6.03335 6.82114 6.43930
#
# Compressibility (1/GPa) = 0.02149036
#
# Stress axis : x y z
#
# Youngs Moduli (GPa) = 82.55600 76.65594 157.03062
#
# Poissons Ratio (x) = -0.11222 0.36544
# Poissons Ratio (y) = -0.12086 0.65243
# Poissons Ratio (z) = 0.19212 0.31849
#
# Static dielectric constant tensor:
#      x y z
#    x 3.159940 0.000000 0.000000 
#    y 0.000000 1.685500 0.000000 
#    z 0.000000 0.000000 2.543110 
# 
# From -- ./inp_files/30862.got.cif
#   From: 2010.05.17/outbox.cif.g08.bks.cpg/sg73_16_cif.got.tgz:30862.got - 2010.06.03 17:35:07.
