data_PCOD9532968
_publ_section_title
;
Structure prediction by ZEFSAII (Michael W. Deem and Ramdas Pophale) SiO2 
 PCOD9532968
Probable space group: I B C A 
;
_chemical_formula_sum "Si O2"
_cell_formula_units_Z 88
_cell_length_a 21.204790
_cell_length_b 13.255251
_cell_length_c 12.859631
_cell_angle_alpha 90.000000
_cell_angle_beta 90.000000
_cell_angle_gamma 90.000000
_cell_volume 3614.518390
_symmetry_space_group_name_H-M "I B C A "
_symmetry_group_IT_number 73
_symmetry_cell_setting 'orthorhombic'
loop_
_space_group_symop_operation_xyz
x,y,z
-x,1/2-y,z
x,-y,1/2-z
1/2-x,y,-z
-x,-y,-z
x,1/2+y,-z
-x,y,1/2+z
1/2+x,-y,z
1/2+x,1/2+y,1/2+z
1/2-x,-y,1/2+z
1/2+x,1/2-y,-z
-x,1/2+y,1/2-z
1/2-x,1/2-y,1/2-z
1/2+x,y,1/2-z
1/2-x,1/2+y,z
x,1/2-y,1/2+z
loop_
_atom_site_type_symbol
_atom_site_label
_atom_site_fract_x
_atom_site_fract_y
_atom_site_fract_z
Si Si1 0.946022 0.374560 0.609790
Si Si2 0.250000 0.374848 0.500000
Si Si3 0.500000 0.750000 0.435128
Si Si4 0.041104 0.500000 0.750000
Si Si5 0.671084 0.522719 0.139218
Si Si6 0.756687 0.692816 0.117256
Si Si7 0.894529 0.215669 0.781517
O O1 0.882974 0.427774 0.571281
O O2 0.917734 0.279581 0.679089
O O3 0.984222 0.339661 0.510963
O O4 0.992902 0.449439 0.668554
O O5 0.297582 0.438752 0.568406
O O6 0.221756 0.297838 0.587275
O O7 0.439130 0.769112 0.366147
O O8 0.084009 0.401959 0.777370
O O9 0.638709 0.500000 0.250000
O O10 0.721327 0.606276 0.178575
O O11 0.823034 0.716891 0.172564
O O12 0.750000 0.645936 0.000000
#
# Coordination Sequence:
#
# PCOD9532968 Si02
#       7
#    16   8   8   8  16  16  16
#     4  12  26  50  74 111 156 201 257 317 387 453
#     4  10  24  48  72 108 146 188 256 306 380 464
#     4  12  24  48  74 106 154 202 246 318 382 430
#     4  12  24  50  72 112 152 204 260 308 382 464
#     4  12  25  47  78 109 149 203 253 313 390 456
#     4  10  25  49  71 110 149 193 251 321 380 447
#     4  12  26  51  74 114 159 195 260 325 376 465
#
# _framework density 24.346257999999999
#
# number of rings (size 3 to 8) (size 9 to 14) (size 15 to 20)
#    0.545    0.000    5.455    2.182    1.273    3.636 
#    3.273    0.000    0.000    0.000    0.000    0.000 
#    0.000    0.000    0.000    0.000    0.000    0.000 
#
# Total GULP energy -245306.417195 kJ/mol
# GULP energy per Si atom -5575.145845 kJ/mol
# Density = 2.429085 g / cm^3
# Si number density = 24.346258 Si / 1000 Ang^3
#
#
#
# Elastic Constant Matrix: (Units=GPa)
#
#
# Indices 1 2 3 4 5 6 
#
# 1 87.3200 41.6948 15.8805 0.0000 0.0000 0.0000
# 2 41.6948 128.7700 20.1466 0.0000 0.0000 0.0000
# 3 15.8805 20.1466 70.6923 0.0000 0.0000 0.0000
# 4 0.0000 0.0000 0.0000 31.9204 0.0000 0.0000
# 5 0.0000 0.0000 0.0000 0.0000 -0.0457 0.0000
# 6 0.0000 0.0000 0.0000 0.0000 0.0000 4.1139
#
#
#
# Elastic Compliance Matrix: (Units=1/GPa)
#
#
# Indices 1 2 3 4 5 6 
#
# 1 0.013789 -0.004166 -0.001910 0.000000 0.000000 0.000000
# 2 -0.004166 0.009387 -0.001739 0.000000 0.000000 0.000000
# 3 -0.001910 -0.001739 0.015071 0.000000 0.000000 0.000000
# 4 0.000000 0.000000 0.000000 0.031328 0.000000 0.000000
# 5 0.000000 0.000000 0.000000 0.000000-21.902996 0.000000
# 6 0.000000 0.000000 0.000000 0.000000 0.000000 0.243080
#
#
# Mechanical properties :
#
#
# Convention : Reuss Voigt Hill
#
# Bulk Modulus (GPa) = 44.21799 49.13621 46.67710
# Shear Modulus (GPa) = -0.23183 21.13509 10.45163
#
# Velocity S-wave (km/s) = -0.30892 2.94956 2.07418
# Velocity P-wave (km/s) = 4.25139 5.64145 4.99501
#
# Compressibility (1/GPa) = 0.02261523
#
# Stress axis : x y z
#
# Youngs Moduli (GPa) = 72.52314 106.53295 66.35424
#
# Poissons Ratio (x) = 0.44380 0.12676
# Poissons Ratio (y) = 0.30212 0.11541
# Poissons Ratio (z) = 0.13854 0.18529
#
# Static dielectric constant tensor:
#      x y z
#    x 1.931800 0.000000 0.000000 
#    y 0.000000 2.063150 0.000000 
#    z 0.000000 0.000000 2.052200 
# 
# From -- ./inp_files/19289.got.cif
#   From: 2010.05.17/outbox.cif.g08.bks.cpg/sg73_10_cif.got.tgz:19289.got - 2010.06.03 17:35:07.
