data_PCOD9532296
_publ_section_title
;
Structure prediction by ZEFSAII (Michael W. Deem and Ramdas Pophale) SiO2 
 PCOD9532296
Probable space group: I B C A 
;
_chemical_formula_sum "Si O2"
_cell_formula_units_Z 80
_cell_length_a 18.197640
_cell_length_b 8.902308
_cell_length_c 24.225137
_cell_angle_alpha 90.000000
_cell_angle_beta 90.000000
_cell_angle_gamma 90.000000
_cell_volume 3924.496326
_symmetry_space_group_name_H-M "I B C A "
_symmetry_group_IT_number 73
_symmetry_cell_setting 'orthorhombic'
loop_
_space_group_symop_operation_xyz
x,y,z
-x,1/2-y,z
x,-y,1/2-z
1/2-x,y,-z
-x,-y,-z
x,1/2+y,-z
-x,y,1/2+z
1/2+x,-y,z
1/2+x,1/2+y,1/2+z
1/2-x,-y,1/2+z
1/2+x,1/2-y,-z
-x,1/2+y,1/2-z
1/2-x,1/2-y,1/2-z
1/2+x,y,1/2-z
1/2-x,1/2+y,z
x,1/2-y,1/2+z
loop_
_atom_site_type_symbol
_atom_site_label
_atom_site_fract_x
_atom_site_fract_y
_atom_site_fract_z
Si Si1 0.000000 0.750000 0.723989
Si Si2 0.764834 0.881192 0.706517
Si Si3 0.500000 0.250000 0.517331
Si Si4 0.527989 0.518232 0.075134
Si Si5 0.394991 0.674204 0.678698
Si Si6 0.098519 0.528244 0.649834
O O1 0.940541 0.672935 0.764461
O O2 0.958336 0.875524 0.687727
O O3 0.750000 0.750000 0.750000
O O4 0.683552 0.906491 0.683354
O O5 0.825207 0.881928 0.658432
O O6 0.795452 0.000000 0.750000
O O7 0.537075 0.366896 0.475058
O O8 0.447778 0.353382 0.555363
O O9 0.562353 0.592917 0.129173
O O10 0.442541 0.488023 0.091387
O O11 0.388758 0.853224 0.666271
#
# Coordination Sequence:
#
# PCOD9532296 Si02
#       6
#     8  16   8  16  16  16
#     4  12  22  34  64  90 140 176 230 260 318 404
#     4  12  25  39  58  89 142 191 211 251 321 404
#     4  10  22  44  70 100 118 156 220 296 354 380
#     4  11  23  42  72  96 124 163 222 287 337 392
#     4  12  24  40  61  97 134 181 215 273 327 397
#     4  12  23  42  59  98 135 179 219 269 328 401
#
# _framework density 20.384781
#
# number of rings (size 3 to 8) (size 9 to 14) (size 15 to 20)
#    0.000    0.400    8.000    1.200    2.800    1.600 
#    0.000    0.000    0.000    7.200    0.000    0.000 
#    0.000    0.000    0.000    0.000    0.000    0.000 
#
# Total GULP energy -222941.663456 kJ/mol
# GULP energy per Si atom -5573.541586 kJ/mol
# Density = 2.033838 g / cm^3
# Si number density = 20.384781 Si / 1000 Ang^3
#
#
#
# Elastic Constant Matrix: (Units=GPa)
#
#
# Indices 1 2 3 4 5 6 
#
# 1 112.9498 9.1620 34.3072 0.0000 0.0000 0.0000
# 2 9.1620 104.6906 41.7992 0.0000 0.0000 0.0000
# 3 34.3072 41.7992 93.5500 0.0000 0.0000 0.0000
# 4 0.0000 0.0000 0.0000 45.2015 0.0000 0.0000
# 5 0.0000 0.0000 0.0000 0.0000 9.1969 0.0000
# 6 0.0000 0.0000 0.0000 0.0000 0.0000 24.7190
#
#
#
# Elastic Compliance Matrix: (Units=1/GPa)
#
#
# Indices 1 2 3 4 5 6 
#
# 1 0.010007 0.000717 -0.003991 0.000000 0.000000 0.000000
# 2 0.000717 0.011677 -0.005481 0.000000 0.000000 0.000000
# 3 -0.003991 -0.005481 0.014602 0.000000 0.000000 0.000000
# 4 0.000000 0.000000 0.000000 0.022123 0.000000 0.000000
# 5 0.000000 0.000000 0.000000 0.000000 0.108733 0.000000
# 6 0.000000 0.000000 0.000000 0.000000 0.000000 0.040455
#
#
# Mechanical properties :
#
#
# Convention : Reuss Voigt Hill
#
# Bulk Modulus (GPa) = 53.25102 53.52525 53.38814
# Shear Modulus (GPa) = 21.61094 30.88493 26.24793
#
# Velocity S-wave (km/s) = 3.25953 3.89665 3.59224
# Velocity P-wave (km/s) = 6.35182 6.82346 6.59186
#
# Compressibility (1/GPa) = 0.01877898
#
# Stress axis : x y z
#
# Youngs Moduli (GPa) = 99.92633 85.63531 68.48489
#
# Poissons Ratio (x) = -0.06144 0.27329
# Poissons Ratio (y) = -0.07170 0.37535
# Poissons Ratio (z) = 0.39876 0.46934
#
# Static dielectric constant tensor:
#      x y z
#    x 1.788800 0.000000 0.000000 
#    y 0.000000 1.841430 0.000000 
#    z 0.000000 0.000000 1.761240 
# 
# From -- ./inp_files/30043.got.cif
#   From: 2010.05.17/outbox.cif.g08.bks.cpg/sg73_16_cif.got.tgz:30043.got - 2010.06.03 17:35:07.
