data_PCOD9532621
_publ_section_title
;
Structure prediction by ZEFSAII (Michael W. Deem and Ramdas Pophale) SiO2 
 PCOD9532621
Probable space group: I B C A 
;
_chemical_formula_sum "Si O2"
_cell_formula_units_Z 112
_cell_length_a 14.691180
_cell_length_b 15.994419
_cell_length_c 23.907361
_cell_angle_alpha 90.000000
_cell_angle_beta 90.000000
_cell_angle_gamma 90.000000
_cell_volume 5617.677301
_symmetry_space_group_name_H-M "I B C A "
_symmetry_group_IT_number 73
_symmetry_cell_setting 'orthorhombic'
loop_
_space_group_symop_operation_xyz
x,y,z
-x,1/2-y,z
x,-y,1/2-z
1/2-x,y,-z
-x,-y,-z
x,1/2+y,-z
-x,y,1/2+z
1/2+x,-y,z
1/2+x,1/2+y,1/2+z
1/2-x,-y,1/2+z
1/2+x,1/2-y,-z
-x,1/2+y,1/2-z
1/2-x,1/2-y,1/2-z
1/2+x,y,1/2-z
1/2-x,1/2+y,z
x,1/2-y,1/2+z
loop_
_atom_site_type_symbol
_atom_site_label
_atom_site_fract_x
_atom_site_fract_y
_atom_site_fract_z
Si Si1 0.362678 0.402140 0.750590
Si Si2 0.675391 0.868198 0.198734
Si Si3 0.543028 0.338341 0.700555
Si Si4 0.400996 0.780425 0.591632
Si Si5 0.639467 0.608207 0.119656
Si Si6 0.533303 0.552528 0.552724
Si Si7 0.663617 0.036394 0.135445
O O1 0.339846 0.500000 0.750000
O O2 0.276855 0.356827 0.722275
O O3 0.454979 0.392853 0.716049
O O4 0.375923 0.371988 0.814447
O O5 0.604079 0.833434 0.243558
O O6 0.656490 0.824195 0.139972
O O7 0.659750 0.966365 0.184465
O O8 0.500000 0.250000 0.683818
O O9 0.608717 0.382816 0.656416
O O10 0.500000 0.750000 0.613520
O O11 0.352334 0.691910 0.581681
O O12 0.427459 0.852083 0.546492
O O13 0.551992 0.560646 0.095367
O O14 0.732780 0.557109 0.120575
O O15 0.500000 0.500000 0.500000
O O16 0.612447 0.501696 0.582819
#
# Coordination Sequence:
#
# PCOD9532621 Si02
#       7
#    16  16  16  16  16  16  16
#     4  12  21  34  59  90 130 183 213 251 310 390
#     4  11  20  37  59  90 130 177 216 243 307 401
#     4  12  24  35  53  87 132 174 214 259 315 378
#     4   9  20  38  64  96 127 167 210 269 329 390
#     4  11  21  39  66  97 132 166 217 277 332 386
#     4  10  23  45  71  91 118 169 227 278 338 405
#     4  11  23  40  62  94 130 164 218 276 322 398
#
# _framework density 19.937065
#
# number of rings (size 3 to 8) (size 9 to 14) (size 15 to 20)
#    0.000    1.143    2.857    6.000    2.000    1.714 
#    0.000    2.143    0.000    8.571    0.000    0.000 
#    0.000    0.000    0.000    0.000    0.000    0.000 
#
# Total GULP energy -312554.399781 kJ/mol
# GULP energy per Si atom -5581.328568 kJ/mol
# Density = 1.989169 g / cm^3
# Si number density = 19.937065 Si / 1000 Ang^3
#
#
#
# Elastic Constant Matrix: (Units=GPa)
#
#
# Indices 1 2 3 4 5 6 
#
# 1 73.4221 1.3761 -3.4569 0.0000 0.0000 0.0000
# 2 1.3761 68.6642 7.1685 0.0000 0.0000 0.0000
# 3 -3.4569 7.1685 40.5659 0.0000 0.0000 0.0000
# 4 0.0000 0.0000 0.0000 22.5050 0.0000 0.0000
# 5 0.0000 0.0000 0.0000 0.0000 22.0071 0.0000
# 6 0.0000 0.0000 0.0000 0.0000 0.0000 25.3372
#
#
#
# Elastic Compliance Matrix: (Units=1/GPa)
#
#
# Indices 1 2 3 4 5 6 
#
# 1 0.013686 -0.000403 0.001238 0.000000 0.000000 0.000000
# 2 -0.000403 0.014849 -0.002658 0.000000 0.000000 0.000000
# 3 0.001238 -0.002658 0.025226 0.000000 0.000000 0.000000
# 4 0.000000 0.000000 0.000000 0.044435 0.000000 0.000000
# 5 0.000000 0.000000 0.000000 0.000000 0.045440 0.000000
# 6 0.000000 0.000000 0.000000 0.000000 0.000000 0.039468
#
#
# Mechanical properties :
#
#
# Convention : Reuss Voigt Hill
#
# Bulk Modulus (GPa) = 19.95500 21.42528 20.69014
# Shear Modulus (GPa) = 24.57528 25.80749 25.19139
#
# Velocity S-wave (km/s) = 3.51471 3.60175 3.55849
# Velocity P-wave (km/s) = 5.14797 5.29779 5.22342
#
# Compressibility (1/GPa) = 0.05011274
#
# Stress axis : x y z
#
# Youngs Moduli (GPa) = 73.06889 67.34349 39.64092
#
# Poissons Ratio (x) = 0.02717 -0.04906
# Poissons Ratio (y) = 0.02948 0.10538
# Poissons Ratio (z) = -0.09043 0.17903
#
# Static dielectric constant tensor:
#      x y z
#    x 1.684310 0.000000 0.000000 
#    y 0.000000 1.799040 0.000000 
#    z 0.000000 0.000000 1.693510 
# 
# From -- ./inp_files/29552.got.cif
#   From: 2010.05.17/outbox.cif.g08.bks.cpg/sg73_15_cif.got.tgz:29552.got - 2010.06.03 17:35:07.
