data_PCOD9532714
_publ_section_title
;
Structure prediction by ZEFSAII (Michael W. Deem and Ramdas Pophale) SiO2 
 PCOD9532714
Probable space group: I B C A 
;
_chemical_formula_sum "Si O2"
_cell_formula_units_Z 104
_cell_length_a 29.848165
_cell_length_b 14.542339
_cell_length_c 12.061784
_cell_angle_alpha 90.000000
_cell_angle_beta 90.000000
_cell_angle_gamma 90.000000
_cell_volume 5235.563702
_symmetry_space_group_name_H-M "I B C A "
_symmetry_group_IT_number 73
_symmetry_cell_setting 'orthorhombic'
loop_
_space_group_symop_operation_xyz
x,y,z
-x,1/2-y,z
x,-y,1/2-z
1/2-x,y,-z
-x,-y,-z
x,1/2+y,-z
-x,y,1/2+z
1/2+x,-y,z
1/2+x,1/2+y,1/2+z
1/2-x,-y,1/2+z
1/2+x,1/2-y,-z
-x,1/2+y,1/2-z
1/2-x,1/2-y,1/2-z
1/2+x,y,1/2-z
1/2-x,1/2+y,z
x,1/2-y,1/2+z
loop_
_atom_site_type_symbol
_atom_site_label
_atom_site_fract_x
_atom_site_fract_y
_atom_site_fract_z
Si Si1 0.589389 0.633531 0.493962
Si Si2 0.687079 0.105720 0.124923
Si Si3 0.961561 0.464102 0.583284
Si Si4 0.524965 0.153209 0.292675
Si Si5 0.750000 0.751070 0.500000
Si Si6 0.586835 0.336715 0.582684
Si Si7 0.314664 0.602483 0.109697
O O1 0.573278 0.548277 0.418473
O O2 0.554697 0.649905 0.595530
O O3 0.589959 0.726988 0.424159
O O4 0.637198 0.614223 0.550786
O O5 0.720364 0.182418 0.077571
O O6 0.636600 0.123204 0.084111
O O7 0.683155 0.111215 0.257698
O O8 0.701181 0.002573 0.089950
O O9 0.937949 0.377926 0.523536
O O10 0.000000 0.500000 0.500000
O O11 0.986185 0.421420 0.688700
O O12 0.500000 0.250000 0.276958
O O13 0.557634 0.134591 0.189502
O O14 0.717341 0.682542 0.565911
#
# Coordination Sequence:
#
# PCOD9532714 Si02
#       7
#    16  16  16  16   8  16  16
#     4  11  22  42  64  94 127 171 222 275 330 402
#     4  11  24  42  69  99 132 178 225 281 343 419
#     4  10  24  39  60  92 125 165 224 268 318 387
#     4  11  24  39  61  89 129 169 218 272 323 393
#     4  12  24  44  68  98 140 176 222 284 352 416
#     4  12  23  42  64  92 130 176 216 272 341 392
#     4  11  23  42  69 101 130 171 231 277 349 421
#
# _framework density 19.864145000000001
#
# number of rings (size 3 to 8) (size 9 to 14) (size 15 to 20)
#    0.000    0.923    6.154    0.923    4.308    2.462 
#    0.000    0.000    0.000    0.000    0.000    0.000 
#    0.000    0.000    0.000    0.000    0.000    0.000 
#
# Total GULP energy -290622.658706 kJ/mol
# GULP energy per Si atom -5588.897283 kJ/mol
# Density = 1.981893 g / cm^3
# Si number density = 19.864145 Si / 1000 Ang^3
#
#
#
# Elastic Constant Matrix: (Units=GPa)
#
#
# Indices 1 2 3 4 5 6 
#
# 1 125.2550 63.1196 38.1566 0.0000 0.0000 0.0000
# 2 63.1196 159.1449 42.7622 0.0000 0.0000 0.0000
# 3 38.1566 42.7622 55.6660 0.0000 0.0000 0.0000
# 4 0.0000 0.0000 0.0000 33.5545 0.0000 0.0000
# 5 0.0000 0.0000 0.0000 0.0000 35.1662 0.0000
# 6 0.0000 0.0000 0.0000 0.0000 0.0000 30.2027
#
#
#
# Elastic Compliance Matrix: (Units=1/GPa)
#
#
# Indices 1 2 3 4 5 6 
#
# 1 0.011105 -0.002973 -0.005328 0.000000 0.000000 0.000000
# 2 -0.002973 0.008714 -0.004656 0.000000 0.000000 0.000000
# 3 -0.005328 -0.004656 0.025193 0.000000 0.000000 0.000000
# 4 0.000000 0.000000 0.000000 0.029802 0.000000 0.000000
# 5 0.000000 0.000000 0.000000 0.000000 0.028436 0.000000
# 6 0.000000 0.000000 0.000000 0.000000 0.000000 0.033110
#
#
# Mechanical properties :
#
#
# Convention : Reuss Voigt Hill
#
# Bulk Modulus (GPa) = 52.36231 69.79363 61.07797
# Shear Modulus (GPa) = 29.64886 32.85319 31.25102
#
# Velocity S-wave (km/s) = 3.86759 4.07122 3.97071
# Velocity P-wave (km/s) = 6.80894 7.57044 7.19977
#
# Compressibility (1/GPa) = 0.01909771
#
# Stress axis : x y z
#
# Youngs Moduli (GPa) = 90.05033 114.76171 39.69287
#
# Poissons Ratio (x) = 0.34115 0.21150
# Poissons Ratio (y) = 0.26769 0.18482
# Poissons Ratio (z) = 0.47982 0.53435
#
# Static dielectric constant tensor:
#      x y z
#    x 1.683860 0.000000 0.000000 
#    y 0.000000 1.682110 0.000000 
#    z 0.000000 0.000000 1.691180 
# 
# From -- ./inp_files/14791.got.cif
#   From: 2010.05.17/outbox.cif.g08.bks.cpg/sg73_8_cif.got.tgz:14791.got - 2010.06.03 17:35:07.
