data_PCOD9532507
_publ_section_title
;
Structure prediction by ZEFSAII (Michael W. Deem and Ramdas Pophale) SiO2 
 PCOD9532507
Probable space group: I B C A 
;
_chemical_formula_sum "Si O2"
_cell_formula_units_Z 72
_cell_length_a 17.348677
_cell_length_b 18.097499
_cell_length_c 10.615690
_cell_angle_alpha 90.000000
_cell_angle_beta 90.000000
_cell_angle_gamma 90.000000
_cell_volume 3332.983398
_symmetry_space_group_name_H-M "I B C A "
_symmetry_group_IT_number 73
_symmetry_cell_setting 'orthorhombic'
loop_
_space_group_symop_operation_xyz
x,y,z
-x,1/2-y,z
x,-y,1/2-z
1/2-x,y,-z
-x,-y,-z
x,1/2+y,-z
-x,y,1/2+z
1/2+x,-y,z
1/2+x,1/2+y,1/2+z
1/2-x,-y,1/2+z
1/2+x,1/2-y,-z
-x,1/2+y,1/2-z
1/2-x,1/2-y,1/2-z
1/2+x,y,1/2-z
1/2-x,1/2+y,z
x,1/2-y,1/2+z
loop_
_atom_site_type_symbol
_atom_site_label
_atom_site_fract_x
_atom_site_fract_y
_atom_site_fract_z
Si Si1 0.832913 0.728404 0.301277
Si Si2 0.705067 0.506853 0.119103
Si Si3 0.535572 0.667626 0.862642
Si Si4 0.571581 0.623290 0.139409
Si Si5 0.750000 0.365446 0.000000
O O1 0.750000 0.750000 0.250000
O O2 0.880221 0.682582 0.197322
O O3 0.880455 0.800850 0.339451
O O4 0.811034 0.681302 0.422883
O O5 0.751079 0.500000 0.250000
O O6 0.629406 0.554309 0.141975
O O7 0.697503 0.421275 0.081569
O O8 0.750000 0.540786 0.000000
O O9 0.500000 0.750000 0.878036
O O10 0.488887 0.624205 0.754057
O O11 0.536341 0.629676 0.999014
#
# Coordination Sequence:
#
# PCOD9532507 Si02
#       5
#    16  16  16  16   8
#     4  11  22  38  71 104 136 175 233 287 355 406
#     4  10  25  44  67  95 141 175 230 292 342 411
#     4  10  23  42  65 101 140 177 229 288 340 420
#     4  11  24  43  71  97 139 184 229 279 357 413
#     4  10  24  38  64 102 140 166 228 296 338 404
#
# _framework density 21.602267000000001
#
# number of rings (size 3 to 8) (size 9 to 14) (size 15 to 20)
#    0.667    0.889    0.000    4.667    7.778    5.333 
#    0.000    4.444    0.000    0.000    0.000    0.000 
#    0.000    0.000    0.000    0.000    0.000    0.000 
#
# Total GULP energy -201028.007760 kJ/mol
# GULP energy per Si atom -5584.111327 kJ/mol
# Density = 2.155310 g / cm^3
# Si number density = 21.602267 Si / 1000 Ang^3
#
#
#
# Elastic Constant Matrix: (Units=GPa)
#
#
# Indices 1 2 3 4 5 6 
#
# 1 89.4018 19.7020 57.6122 0.0000 0.0000 0.0000
# 2 19.7020 61.2954 34.5889 0.0000 0.0000 0.0000
# 3 57.6122 34.5889 184.1732 0.0000 0.0000 0.0000
# 4 0.0000 0.0000 0.0000 19.0505 0.0000 0.0000
# 5 0.0000 0.0000 0.0000 0.0000 35.9461 0.0000
# 6 0.0000 0.0000 0.0000 0.0000 0.0000 -34.9787
#
#
#
# Elastic Compliance Matrix: (Units=1/GPa)
#
#
# Indices 1 2 3 4 5 6 
#
# 1 0.014298 -0.002317 -0.004037 0.000000 0.000000 0.000000
# 2 -0.002317 0.018624 -0.002773 0.000000 0.000000 0.000000
# 3 -0.004037 -0.002773 0.007213 0.000000 0.000000 0.000000
# 4 0.000000 0.000000 0.000000 0.052492 0.000000 0.000000
# 5 0.000000 0.000000 0.000000 0.000000 0.027819 0.000000
# 6 0.000000 0.000000 0.000000 0.000000 0.000000 -0.028589
#
#
# Mechanical properties :
#
#
# Convention : Reuss Voigt Hill
#
# Bulk Modulus (GPa) = 45.70365 62.07519 53.88942
# Shear Modulus (GPa) = 42.58708 18.86806 30.72757
#
# Velocity S-wave (km/s) = 4.44488 2.95859 3.77559
# Velocity P-wave (km/s) = 6.89532 6.36152 6.63379
#
# Compressibility (1/GPa) = 0.02188009
#
# Stress axis : x y z
#
# Youngs Moduli (GPa) = 69.94013 53.69414 138.63135
#
# Poissons Ratio (x) = 0.12443 0.55971
# Poissons Ratio (y) = 0.16208 0.38439
# Poissons Ratio (z) = 0.28238 0.14888
#
# Static dielectric constant tensor:
#      x y z
#    x 1.905720 0.000000 0.000000 
#    y 0.000000 1.599500 0.000000 
#    z 0.000000 0.000000 2.146220 
# 
# From -- ./inp_files/5359.got.cif
#   From: 2010.05.17/outbox.cif.g08.bks.cpg/sg73_3_cif.got.tgz:5359.got - 2010.06.03 17:35:07.
