data_PCOD9532426
_publ_section_title
;
Structure prediction by ZEFSAII (Michael W. Deem and Ramdas Pophale) SiO2 
 PCOD9532426
Probable space group: I B C A 
;
_chemical_formula_sum "Si O2"
_cell_formula_units_Z 64
_cell_length_a 13.630979
_cell_length_b 16.917494
_cell_length_c 13.690489
_cell_angle_alpha 90.000000
_cell_angle_beta 90.000000
_cell_angle_gamma 90.000000
_cell_volume 3157.054219
_symmetry_space_group_name_H-M "I B C A "
_symmetry_group_IT_number 73
_symmetry_cell_setting 'orthorhombic'
loop_
_space_group_symop_operation_xyz
x,y,z
-x,1/2-y,z
x,-y,1/2-z
1/2-x,y,-z
-x,-y,-z
x,1/2+y,-z
-x,y,1/2+z
1/2+x,-y,z
1/2+x,1/2+y,1/2+z
1/2-x,-y,1/2+z
1/2+x,1/2-y,-z
-x,1/2+y,1/2-z
1/2-x,1/2-y,1/2-z
1/2+x,y,1/2-z
1/2-x,1/2+y,z
x,1/2-y,1/2+z
loop_
_atom_site_type_symbol
_atom_site_label
_atom_site_fract_x
_atom_site_fract_y
_atom_site_fract_z
Si Si1 0.597285 0.051454 0.392079
Si Si2 0.969265 0.379270 0.461688
Si Si3 0.907983 0.631773 0.830045
Si Si4 0.762933 0.500000 0.750000
Si Si5 0.500000 0.250000 0.198005
O O1 0.577441 0.105110 0.489103
O O2 0.513464 0.086922 0.321221
O O3 0.696746 0.041586 0.333328
O O4 0.567609 0.963798 0.425483
O O5 0.904386 0.351902 0.554207
O O6 0.966264 0.318542 0.374687
O O7 0.828029 0.569242 0.796671
O O8 0.917611 0.710920 0.767168
#
# Coordination Sequence:
#
# PCOD9532426 Si02
#       5
#    16  16  16   8   8
#     4   9  21  42  63  91 126 159 225 265 308 381
#     4   9  21  41  63  89 128 172 203 268 320 378
#     4  10  23  38  64  95 122 169 213 261 329 376
#     4  12  20  38  72  94 118 166 218 278 312 376
#     4  12  20  40  66  86 132 176 204 252 336 392
#
# _framework density 20.272061000000001
#
# number of rings (size 3 to 8) (size 9 to 14) (size 15 to 20)
#    1.500    0.500    0.000    4.500    0.000    1.000 
#    0.000    5.000   11.000    0.000    0.000    0.000 
#    0.000    0.000    0.000    0.000    0.000    0.000 
#
# Total GULP energy -178208.555673 kJ/mol
# GULP energy per Si atom -5569.017365 kJ/mol
# Density = 2.022592 g / cm^3
# Si number density = 20.272061 Si / 1000 Ang^3
#
#
#
# Elastic Constant Matrix: (Units=GPa)
#
#
# Indices 1 2 3 4 5 6 
#
# 1 55.6290 17.7167 16.2185 0.0000 0.0001 0.0000
# 2 17.7167 67.2527 52.7109 0.0000 0.0000 0.0000
# 3 16.2185 52.7109 116.2533 0.0000 0.0000 0.0000
# 4 0.0000 0.0000 0.0000 52.8780 -0.0001 0.0000
# 5 0.0001 0.0000 0.0000 -0.0001-1400.8340 0.0001
# 6 0.0000 0.0000 0.0000 0.0000 0.0001 1.4775
#
#
#
# Elastic Compliance Matrix: (Units=1/GPa)
#
#
# Indices 1 2 3 4 5 6 
#
# 1 0.019651 -0.004697 -0.000612 0.000000 0.000000 0.000000
# 2 -0.004697 0.024189 -0.010313 0.000000 0.000000 0.000000
# 3 -0.000612 -0.010313 0.013363 0.000000 0.000000 0.000000
# 4 0.000000 0.000000 0.000000 0.018911 0.000000 0.000000
# 5 0.000000 0.000000 0.000000 0.000000 -0.000714 0.000000
# 6 0.000000 0.000000 0.000000 0.000000 0.000000 0.676815
#
#
# Mechanical properties :
#
#
# Convention : Reuss Voigt Hill
#
# Bulk Modulus (GPa) = 38.52049 45.82524 42.17287
# Shear Modulus (GPa) = 6.31224 -259.12975 -126.40876
#
# Velocity S-wave (km/s) = 1.76650 -11.31828 -7.90516
# Velocity P-wave (km/s) = 4.81702 12.17171 7.90401
#
# Compressibility (1/GPa) = 0.02596021
#
# Stress axis : x y z
#
# Youngs Moduli (GPa) = 50.88922 41.34044 74.83308
#
# Poissons Ratio (x) = 0.19419 0.04577
# Poissons Ratio (y) = 0.23904 0.77172
# Poissons Ratio (z) = 0.03113 0.42632
#
# Static dielectric constant tensor:
#      x y z
#    x 1.741210 0.000000 0.000000 
#    y 0.000000 1.717990 0.000000 
#    z 0.000000 0.000000 1.771560 
# 
# From -- ./inp_files/16718.got.cif
#   From: 2010.05.17/outbox.cif.g08.bks.cpg/sg73_9_cif.got.tgz:16718.got - 2010.06.03 17:35:07.
