data_PCOD9532406
_publ_section_title
;
Structure prediction by ZEFSAII (Michael W. Deem and Ramdas Pophale) SiO2 
 PCOD9532406
Probable space group: I B C A 
;
_chemical_formula_sum "Si O2"
_cell_formula_units_Z 104
_cell_length_a 19.967390
_cell_length_b 28.076249
_cell_length_c 8.735390
_cell_angle_alpha 90.000000
_cell_angle_beta 90.000000
_cell_angle_gamma 90.000000
_cell_volume 4897.141865
_symmetry_space_group_name_H-M "I B C A "
_symmetry_group_IT_number 73
_symmetry_cell_setting 'orthorhombic'
loop_
_space_group_symop_operation_xyz
x,y,z
-x,1/2-y,z
x,-y,1/2-z
1/2-x,y,-z
-x,-y,-z
x,1/2+y,-z
-x,y,1/2+z
1/2+x,-y,z
1/2+x,1/2+y,1/2+z
1/2-x,-y,1/2+z
1/2+x,1/2-y,-z
-x,1/2+y,1/2-z
1/2-x,1/2-y,1/2-z
1/2+x,y,1/2-z
1/2-x,1/2+y,z
x,1/2-y,1/2+z
loop_
_atom_site_type_symbol
_atom_site_label
_atom_site_fract_x
_atom_site_fract_y
_atom_site_fract_z
Si Si1 0.687882 0.965856 0.392613
Si Si2 0.250000 0.294284 0.000000
Si Si3 0.840954 0.137123 0.794160
Si Si4 0.597688 0.188734 0.467313
Si Si5 0.624145 0.279366 0.302642
Si Si6 0.457356 0.637555 0.529090
Si Si7 0.554894 0.029323 0.905851
O O1 0.750000 0.977037 0.500000
O O2 0.693786 0.913056 0.323256
O O3 0.622705 0.969616 0.497431
O O4 0.681925 0.000000 0.250000
O O5 0.202749 0.325231 0.888374
O O6 0.303791 0.271214 0.883776
O O7 0.851882 0.153562 0.620885
O O8 0.914470 0.133031 0.872658
O O9 0.584114 0.231838 0.348278
O O10 0.626479 0.211656 0.622156
O O11 0.529151 0.160944 0.500256
O O12 0.587171 0.325763 0.371170
O O13 0.464213 0.585430 0.606773
O O14 0.564183 0.000000 0.750000
O O15 0.500000 0.000000 0.000000
#
# Coordination Sequence:
#
# PCOD9532406 Si02
#       7
#    16   8  16  16  16  16  16
#     4  11  24  46  71 103 142 186 233 293 352 420
#     4  10  22  48  68  92 136 176 228 276 344 398
#     4  10  23  43  69  96 139 182 222 287 339 409
#     4  12  25  42  67 104 134 178 233 279 351 412
#     4  11  25  42  70  98 136 182 224 288 340 412
#     4  10  24  43  68  98 142 177 228 283 345 409
#     4  11  26  43  71 106 144 187 234 293 352 416
#
# _framework density 21.236875999999999
#
# number of rings (size 3 to 8) (size 9 to 14) (size 15 to 20)
#    0.000    1.231    0.769    4.154    8.615    4.308 
#    2.769    0.000    0.000    0.000    0.000    0.000 
#    0.000    0.000    0.000    0.000    0.000    0.000 
#
# Total GULP energy -290790.461477 kJ/mol
# GULP energy per Si atom -5592.124259 kJ/mol
# Density = 2.118854 g / cm^3
# Si number density = 21.236876 Si / 1000 Ang^3
#
#
#
# Elastic Constant Matrix: (Units=GPa)
#
#
# Indices 1 2 3 4 5 6 
#
# 1 91.3506 9.7400 17.1391 0.0000 0.0000 0.0000
# 2 9.7400 86.5931 18.3378 0.0000 0.0000 0.0000
# 3 17.1391 18.3378 115.6655 0.0000 0.0000 0.0000
# 4 0.0000 0.0000 0.0000 24.3043 0.0000 0.0000
# 5 0.0000 0.0000 0.0000 0.0000 20.5436 0.0000
# 6 0.0000 0.0000 0.0000 0.0000 0.0000 24.6281
#
#
#
# Elastic Compliance Matrix: (Units=1/GPa)
#
#
# Indices 1 2 3 4 5 6 
#
# 1 0.011335 -0.000951 -0.001529 0.000000 0.000000 0.000000
# 2 -0.000951 0.012029 -0.001766 0.000000 0.000000 0.000000
# 3 -0.001529 -0.001766 0.009152 0.000000 0.000000 0.000000
# 4 0.000000 0.000000 0.000000 0.041145 0.000000 0.000000
# 5 0.000000 0.000000 0.000000 0.000000 0.048677 0.000000
# 6 0.000000 0.000000 0.000000 0.000000 0.000000 0.040604
#
#
# Mechanical properties :
#
#
# Convention : Reuss Voigt Hill
#
# Bulk Modulus (GPa) = 41.62484 42.67144 42.14814
# Shear Modulus (GPa) = 27.86402 30.45470 29.15936
#
# Velocity S-wave (km/s) = 3.62616 3.79099 3.70949
# Velocity P-wave (km/s) = 6.09712 6.26888 6.18360
#
# Compressibility (1/GPa) = 0.02402411
#
# Stress axis : x y z
#
# Youngs Moduli (GPa) = 88.22164 83.13048 109.26368
#
# Poissons Ratio (x) = 0.07908 0.16704
# Poissons Ratio (y) = 0.08392 0.19298
# Poissons Ratio (z) = 0.13487 0.14682
#
# Static dielectric constant tensor:
#      x y z
#    x 1.761600 0.000000 0.000000 
#    y 0.000000 1.804570 0.000000 
#    z 0.000000 0.000000 1.754330 
# 
# From -- ./inp_files/6552.got.cif
#   From: 2010.05.17/outbox.cif.g08.bks.cpg/sg73_4_cif.got.tgz:6552.got - 2010.06.03 17:35:07.
