data_PCOD9532617
_publ_section_title
;
Structure prediction by ZEFSAII (Michael W. Deem and Ramdas Pophale) SiO2 
 PCOD9532617
Probable space group: I B C A 
;
_chemical_formula_sum "Si O2"
_cell_formula_units_Z 72
_cell_length_a 16.729177
_cell_length_b 19.862475
_cell_length_c 9.868252
_cell_angle_alpha 90.000000
_cell_angle_beta 90.000000
_cell_angle_gamma 90.000000
_cell_volume 3279.050997
_symmetry_space_group_name_H-M "I B C A "
_symmetry_group_IT_number 73
_symmetry_cell_setting 'orthorhombic'
loop_
_space_group_symop_operation_xyz
x,y,z
-x,1/2-y,z
x,-y,1/2-z
1/2-x,y,-z
-x,-y,-z
x,1/2+y,-z
-x,y,1/2+z
1/2+x,-y,z
1/2+x,1/2+y,1/2+z
1/2-x,-y,1/2+z
1/2+x,1/2-y,-z
-x,1/2+y,1/2-z
1/2-x,1/2-y,1/2-z
1/2+x,y,1/2-z
1/2-x,1/2+y,z
x,1/2-y,1/2+z
loop_
_atom_site_type_symbol
_atom_site_label
_atom_site_fract_x
_atom_site_fract_y
_atom_site_fract_z
Si Si1 0.250000 0.124214 0.500000
Si Si2 0.827836 0.257533 0.345052
Si Si3 0.619362 0.972943 0.599655
Si Si4 0.438969 0.443382 0.369963
Si Si5 0.079830 0.711968 0.902232
O O1 0.190808 0.170205 0.411863
O O2 0.308493 0.078064 0.413972
O O3 0.750000 0.250000 0.250000
O O4 0.895654 0.248016 0.232820
O O5 0.854271 0.215021 0.477143
O O6 0.530843 0.942503 0.577801
O O7 0.619759 0.000000 0.750000
O O8 0.621049 0.030643 0.485913
O O9 0.433796 0.500000 0.250000
O O10 0.424219 0.364590 0.347697
O O11 0.000000 0.750000 0.954019
#
# Coordination Sequence:
#
# PCOD9532617 Si02
#       5
#     8  16  16  16  16
#     4  12  24  44  68  98 150 190 236 294 376 430
#     4  12  26  45  66 104 145 188 234 304 364 440
#     4  10  24  42  69  98 135 182 236 295 352 430
#     4  10  23  45  70 103 136 181 240 302 351 419
#     4  12  26  45  76 105 143 193 248 297 365 441
#
# _framework density 21.957573
#
# number of rings (size 3 to 8) (size 9 to 14) (size 15 to 20)
#    0.000    0.889    2.222    3.333    3.111    9.778 
#    0.000    0.000    0.000    0.000    0.000    0.000 
#    0.000    0.000    0.000    0.000    0.000    0.000 
#
# Total GULP energy -200660.108387 kJ/mol
# GULP energy per Si atom -5573.891900 kJ/mol
# Density = 2.190760 g / cm^3
# Si number density = 21.957573 Si / 1000 Ang^3
#
#
#
# Elastic Constant Matrix: (Units=GPa)
#
#
# Indices 1 2 3 4 5 6 
#
# 1 64.0616 20.9400 22.0416 0.0000 0.0000 0.0000
# 2 20.9400 75.2390 16.9803 0.0000 0.0000 0.0000
# 3 22.0416 16.9803 99.5908 0.0000 0.0000 0.0000
# 4 0.0000 0.0000 0.0000 -10.1498 0.0000 0.0000
# 5 0.0000 0.0000 0.0000 0.0000 -177.0929 0.0000
# 6 0.0000 0.0000 0.0000 0.0000 0.0000 33.7466
#
#
#
# Elastic Compliance Matrix: (Units=1/GPa)
#
#
# Indices 1 2 3 4 5 6 
#
# 1 0.018148 -0.004310 -0.003282 0.000000 0.000000 0.000000
# 2 -0.004310 0.014847 -0.001577 0.000000 0.000000 0.000000
# 3 -0.003282 -0.001577 0.011036 0.000000 0.000000 0.000000
# 4 0.000000 0.000000 0.000000 -0.098524 0.000000 0.000000
# 5 0.000000 0.000000 0.000000 0.000000 -0.005647 0.000000
# 6 0.000000 0.000000 0.000000 0.000000 0.000000 0.029633
#
#
# Mechanical properties :
#
#
# Convention : Reuss Voigt Hill
#
# Bulk Modulus (GPa) = 38.92208 39.86836 39.39522
# Shear Modulus (GPa) = -1387.22888 -18.77060 -702.99974
#
# Velocity S-wave (km/s) = -25.16244 -2.92697 -17.91250
# Velocity P-wave (km/s) = 28.74776 2.60261 20.24426
#
# Compressibility (1/GPa) = 0.02569236
#
# Stress axis : x y z
#
# Youngs Moduli (GPa) = 55.10250 67.35561 90.60970
#
# Poissons Ratio (x) = 0.29032 0.29735
# Poissons Ratio (y) = 0.23750 0.14293
# Poissons Ratio (z) = 0.18083 0.10625
#
# Static dielectric constant tensor:
#      x y z
#    x 1.834340 0.000000 0.000000 
#    y 0.000000 1.850550 0.000000 
#    z 0.000000 0.000000 1.780700 
# 
# From -- ./inp_files/5304.got.cif
#   From: 2010.05.17/outbox.cif.g08.bks.cpg/sg73_3_cif.got.tgz:5304.got - 2010.06.03 17:35:07.
