data_PCOD9532164
_publ_section_title
;
Structure prediction by ZEFSAII (Michael W. Deem and Ramdas Pophale) SiO2 
 PCOD9532164
Probable space group: I B C A 
;
_chemical_formula_sum "Si O2"
_cell_formula_units_Z 64
_cell_length_a 19.057650
_cell_length_b 10.657506
_cell_length_c 14.078886
_cell_angle_alpha 90.000000
_cell_angle_beta 90.000000
_cell_angle_gamma 90.000000
_cell_volume 2859.520569
_symmetry_space_group_name_H-M "I B C A "
_symmetry_group_IT_number 73
_symmetry_cell_setting 'orthorhombic'
loop_
_space_group_symop_operation_xyz
x,y,z
-x,1/2-y,z
x,-y,1/2-z
1/2-x,y,-z
-x,-y,-z
x,1/2+y,-z
-x,y,1/2+z
1/2+x,-y,z
1/2+x,1/2+y,1/2+z
1/2-x,-y,1/2+z
1/2+x,1/2-y,-z
-x,1/2+y,1/2-z
1/2-x,1/2-y,1/2-z
1/2+x,y,1/2-z
1/2-x,1/2+y,z
x,1/2-y,1/2+z
loop_
_atom_site_type_symbol
_atom_site_label
_atom_site_fract_x
_atom_site_fract_y
_atom_site_fract_z
Si Si1 0.823205 0.493708 0.479131
Si Si2 0.792077 0.368352 0.294598
Si Si3 0.919208 0.131559 0.666526
Si Si4 0.074549 0.070474 0.653901
O O1 0.750000 0.559941 0.500000
O O2 0.796570 0.380818 0.408615
O O3 0.867250 0.585011 0.413640
O O4 0.872698 0.463334 0.568510
O O5 0.763213 0.500000 0.250000
O O6 0.750000 0.250000 0.250000
O O7 0.873996 0.371611 0.263471
O O8 0.927370 0.279897 0.657452
O O9 0.989872 0.050411 0.649861
O O10 0.097491 0.000000 0.750000
#
# Coordination Sequence:
#
# PCOD9532164 Si02
#       4
#    16  16  16  16
#     4  11  24  41  66 100 134 173 225 285 345 413
#     4  10  22  42  67  98 135 176 225 286 344 408
#     4  10  24  43  66  95 133 178 228 283 343 417
#     4  11  24  44  67  95 132 180 227 277 347 422
#
# _framework density 22.381374999999998
#
# number of rings (size 3 to 8) (size 9 to 14) (size 15 to 20)
#    0.000    1.500    0.000    4.500    0.000   15.000 
#    0.000    5.000    0.000    0.000    0.000    0.000 
#    0.000    0.000    0.000    0.000    0.000    0.000 
#
# Total GULP energy -178214.695732 kJ/mol
# GULP energy per Si atom -5569.209242 kJ/mol
# Density = 2.233043 g / cm^3
# Si number density = 22.381375 Si / 1000 Ang^3
#
#
#
# Elastic Constant Matrix: (Units=GPa)
#
#
# Indices 1 2 3 4 5 6 
#
# 1 181.8359 34.7709 76.3839 0.0000 0.0000 0.0000
# 2 34.7709 100.7323 47.0551 0.0000 0.0000 0.0000
# 3 76.3839 47.0551 168.4010 0.0000 0.0000 0.0000
# 4 0.0000 0.0000 0.0000 16.0757 0.0000 0.0000
# 5 0.0000 0.0000 0.0000 0.0000 58.4807 0.0000
# 6 0.0000 0.0000 0.0000 0.0000 0.0000 -10.8932
#
#
#
# Elastic Compliance Matrix: (Units=1/GPa)
#
#
# Indices 1 2 3 4 5 6 
#
# 1 0.006890 -0.001056 -0.002830 0.000000 0.000000 0.000000
# 2 -0.001056 0.011580 -0.002756 0.000000 0.000000 0.000000
# 3 -0.002830 -0.002756 0.007992 0.000000 0.000000 0.000000
# 4 0.000000 0.000000 0.000000 0.062206 0.000000 0.000000
# 5 0.000000 0.000000 0.000000 0.000000 0.017100 0.000000
# 6 0.000000 0.000000 0.000000 0.000000 0.000000 -0.091801
#
#
# Mechanical properties :
#
#
# Convention : Reuss Voigt Hill
#
# Bulk Modulus (GPa) = 75.89507 85.26541 80.58024
# Shear Modulus (GPa) = 158.00486 32.24994 95.12740
#
# Velocity S-wave (km/s) = 8.41129 3.80007 6.52650
# Velocity P-wave (km/s) = 11.32769 7.57848 9.63717
#
# Compressibility (1/GPa) = 0.01317609
#
# Stress axis : x y z
#
# Youngs Moduli (GPa) = 145.13085 86.35909 125.12294
#
# Poissons Ratio (x) = 0.09123 0.35412
# Poissons Ratio (y) = 0.15331 0.34489
# Poissons Ratio (z) = 0.41075 0.23804
#
# Static dielectric constant tensor:
#      x y z
#    x 1.989130 0.000000 0.000000 
#    y 0.000000 2.262250 0.000000 
#    z 0.000000 0.000000 1.925620 
# 
# From -- ./inp_files/18430.got.cif
#   From: 2010.05.17/outbox.cif.g08.bks.cpg/sg73_10_cif.got.tgz:18430.got - 2010.06.03 17:35:07.
