data_PCOD9532847
_publ_section_title
;
Structure prediction by ZEFSAII (Michael W. Deem and Ramdas Pophale) SiO2 
 PCOD9532847
Probable space group: I B C A 
;
_chemical_formula_sum "Si O2"
_cell_formula_units_Z 48
_cell_length_a 17.603049
_cell_length_b 7.921230
_cell_length_c 12.996386
_cell_angle_alpha 90.000000
_cell_angle_beta 90.000000
_cell_angle_gamma 90.000000
_cell_volume 1812.187470
_symmetry_space_group_name_H-M "I B C A "
_symmetry_group_IT_number 73
_symmetry_cell_setting 'orthorhombic'
loop_
_space_group_symop_operation_xyz
x,y,z
-x,1/2-y,z
x,-y,1/2-z
1/2-x,y,-z
-x,-y,-z
x,1/2+y,-z
-x,y,1/2+z
1/2+x,-y,z
1/2+x,1/2+y,1/2+z
1/2-x,-y,1/2+z
1/2+x,1/2-y,-z
-x,1/2+y,1/2-z
1/2-x,1/2-y,1/2-z
1/2+x,y,1/2-z
1/2-x,1/2+y,z
x,1/2-y,1/2+z
loop_
_atom_site_type_symbol
_atom_site_label
_atom_site_fract_x
_atom_site_fract_y
_atom_site_fract_z
Si Si1 0.301728 0.000000 0.250000
Si Si2 0.945652 0.505234 0.403984
Si Si3 0.500000 0.250000 0.762960
Si Si4 0.198214 0.219564 0.402126
O O1 0.250914 0.116235 0.323817
O O2 0.337814 0.871769 0.333678
O O3 0.991138 0.397032 0.320229
O O4 0.868268 0.410372 0.430532
O O5 0.000000 0.500000 0.500000
O O6 0.936176 0.687723 0.347310
O O7 0.250000 0.271805 0.500000
#
# Coordination Sequence:
#
# PCOD9532847 Si02
#       4
#     8  16   8  16
#     4  10  24  44  72 104 146 196 244 304 370 444
#     4  11  25  45  73 110 147 193 251 312 377 445
#     4  10  24  44  70 102 146 192 244 306 366 438
#     4  11  25  46  74 111 151 194 249 310 375 448
#
# _framework density 26.487324000000001
#
# number of rings (size 3 to 8) (size 9 to 14) (size 15 to 20)
#    0.000    1.333    0.000    4.000    0.000   18.667 
#    0.000    0.000    0.000    0.000    0.000    0.000 
#    0.000    0.000    0.000    0.000    0.000    0.000 
#
# Total GULP energy -133855.457347 kJ/mol
# GULP energy per Si atom -5577.310723 kJ/mol
# Density = 2.642704 g / cm^3
# Si number density = 26.487324 Si / 1000 Ang^3
#
#
#
# Elastic Constant Matrix: (Units=GPa)
#
#
# Indices 1 2 3 4 5 6 
#
# 1 130.1744 23.4346 56.7957 0.0000 0.0000 0.0000
# 2 23.4346 56.8451 41.6424 0.0000 0.0000 0.0000
# 3 56.7957 41.6424 202.9922 0.0000 0.0000 0.0000
# 4 0.0000 0.0000 0.0000 49.0838 0.0000 0.0000
# 5 0.0000 0.0000 0.0000 0.0000 145.8689 0.0000
# 6 0.0000 0.0000 0.0000 0.0000 0.0000 29.9003
#
#
#
# Elastic Compliance Matrix: (Units=1/GPa)
#
#
# Indices 1 2 3 4 5 6 
#
# 1 0.008976 -0.002190 -0.002062 0.000000 0.000000 0.000000
# 2 -0.002190 0.021237 -0.003744 0.000000 0.000000 0.000000
# 3 -0.002062 -0.003744 0.006271 0.000000 0.000000 0.000000
# 4 0.000000 0.000000 0.000000 0.020373 0.000000 0.000000
# 5 0.000000 0.000000 0.000000 0.000000 0.006855 0.000000
# 6 0.000000 0.000000 0.000000 0.000000 0.000000 0.033444
#
#
# Mechanical properties :
#
#
# Convention : Reuss Voigt Hill
#
# Bulk Modulus (GPa) = 48.79805 70.41746 59.60775
# Shear Modulus (GPa) = 41.67353 62.84652 52.26003
#
# Velocity S-wave (km/s) = 3.97084 4.87632 4.44669
# Velocity P-wave (km/s) = 6.28383 7.63857 6.99408
#
# Compressibility (1/GPa) = 0.02049262
#
# Stress axis : x y z
#
# Youngs Moduli (GPa) = 111.40881 47.08752 159.45563
#
# Poissons Ratio (x) = 0.10311 0.32883
# Poissons Ratio (y) = 0.24395 0.59700
# Poissons Ratio (z) = 0.22975 0.17629
#
# Static dielectric constant tensor:
#      x y z
#    x 2.041540 0.000000 0.000000 
#    y 0.000000 1.675350 0.000000 
#    z 0.000000 0.000000 1.891080 
# 
# From -- ./inp_files/13282.got.cif
#   From: 2010.05.17/outbox.cif.g08.bks.cpg/sg73_7_cif.got.tgz:13282.got - 2010.06.03 17:35:07.
