data_PCOD9532239
_publ_section_title
;
Structure prediction by ZEFSAII (Michael W. Deem and Ramdas Pophale) SiO2 
 PCOD9532239
Probable space group: I B C A 
;
_chemical_formula_sum "Si O2"
_cell_formula_units_Z 104
_cell_length_a 16.912523
_cell_length_b 9.399071
_cell_length_c 25.861224
_cell_angle_alpha 90.000000
_cell_angle_beta 90.000000
_cell_angle_gamma 90.000000
_cell_volume 4110.952005
_symmetry_space_group_name_H-M "I B C A "
_symmetry_group_IT_number 73
_symmetry_cell_setting 'orthorhombic'
loop_
_space_group_symop_operation_xyz
x,y,z
-x,1/2-y,z
x,-y,1/2-z
1/2-x,y,-z
-x,-y,-z
x,1/2+y,-z
-x,y,1/2+z
1/2+x,-y,z
1/2+x,1/2+y,1/2+z
1/2-x,-y,1/2+z
1/2+x,1/2-y,-z
-x,1/2+y,1/2-z
1/2-x,1/2-y,1/2-z
1/2+x,y,1/2-z
1/2-x,1/2+y,z
x,1/2-y,1/2+z
loop_
_atom_site_type_symbol
_atom_site_label
_atom_site_fract_x
_atom_site_fract_y
_atom_site_fract_z
Si Si1 0.130099 0.830391 0.561400
Si Si2 0.334911 0.000000 0.250000
Si Si3 0.277353 0.054443 0.898166
Si Si4 0.406910 0.244491 0.179772
Si Si5 0.174959 0.681724 0.342659
Si Si6 0.500000 0.750000 0.681581
Si Si7 0.079845 0.000000 0.250000
Si Si8 0.346362 0.566924 0.491451
O O1 0.224991 0.843452 0.565715
O O2 0.108469 0.782219 0.618983
O O3 0.112610 0.715772 0.518141
O O4 0.110121 0.981265 0.536440
O O5 0.378924 0.104004 0.209684
O O6 0.299699 0.118774 0.287588
O O7 0.298241 0.156391 0.850835
O O8 0.221044 0.924791 0.881036
O O9 0.348569 0.005702 0.934311
O O10 0.500000 0.250000 0.184184
O O11 0.379034 0.391155 0.208236
O O12 0.079297 0.691002 0.346372
O O13 0.531453 0.615503 0.715517
O O14 0.250000 0.078965 0.500000
#
# Coordination Sequence:
#
# PCOD9532239 Si02
#       8
#    16   8  16  16  16   8   8  16
#     4  11  24  41  70 101 140 193 255 318 381 463
#     4  12  25  46  69 104 157 198 259 312 385 476
#     4  11  24  43  72 106 151 187 257 320 399 454
#     4  12  24  44  71 105 146 204 256 316 386 476
#     4  12  25  46  71 113 152 206 256 322 390 476
#     4  12  26  46  78 108 154 216 266 316 388 492
#     4  12  25  44  73 106 151 210 269 302 393 486
#     4  10  22  43  67  97 132 188 245 316 380 469
#
# _framework density 25.298276000000001
#
# number of rings (size 3 to 8) (size 9 to 14) (size 15 to 20)
#    0.000    0.615    5.385    3.231    4.308    0.615 
#    0.000    1.538    1.692    0.000    0.000    3.231 
#    0.000    0.000    0.000    0.000    0.000    0.000 
#
# Total GULP energy -290111.496694 kJ/mol
# GULP energy per Si atom -5579.067244 kJ/mol
# Density = 2.524070 g / cm^3
# Si number density = 25.298276 Si / 1000 Ang^3
#
#
#
# Elastic Constant Matrix: (Units=GPa)
#
#
# Indices 1 2 3 4 5 6 
#
# 1 77.7930 36.1240 20.0326 0.0000 0.0000 0.0000
# 2 36.1240 182.4117 83.8611 0.0000 0.0000 0.0000
# 3 20.0326 83.8611 136.2687 0.0000 0.0000 0.0000
# 4 0.0000 0.0000 0.0000 65.6247 0.0000 0.0000
# 5 0.0000 0.0000 0.0000 0.0000 53.0030 0.0000
# 6 0.0000 0.0000 0.0000 0.0000 0.0000 22.3758
#
#
#
# Elastic Compliance Matrix: (Units=1/GPa)
#
#
# Indices 1 2 3 4 5 6 
#
# 1 0.014181 -0.002580 -0.000497 0.000000 0.000000 0.000000
# 2 -0.002580 0.008114 -0.004614 0.000000 0.000000 0.000000
# 3 -0.000497 -0.004614 0.010251 0.000000 0.000000 0.000000
# 4 0.000000 0.000000 0.000000 0.015238 0.000000 0.000000
# 5 0.000000 0.000000 0.000000 0.000000 0.018867 0.000000
# 6 0.000000 0.000000 0.000000 0.000000 0.000000 0.044691
#
#
# Mechanical properties :
#
#
# Convention : Reuss Voigt Hill
#
# Bulk Modulus (GPa) = 58.26229 75.16765 66.71497
# Shear Modulus (GPa) = 37.75116 45.29772 41.52444
#
# Velocity S-wave (km/s) = 3.86715 4.23607 4.05581
# Velocity P-wave (km/s) = 6.55896 7.32822 6.95423
#
# Compressibility (1/GPa) = 0.01716376
#
# Stress axis : x y z
#
# Youngs Moduli (GPa) = 70.51911 123.23753 97.54865
#
# Poissons Ratio (x) = 0.31792 0.04849
# Poissons Ratio (y) = 0.18192 0.45013
# Poissons Ratio (z) = 0.03505 0.56867
#
# Static dielectric constant tensor:
#      x y z
#    x 2.051270 0.000000 0.000000 
#    y 0.000000 2.118580 0.000000 
#    z 0.000000 0.000000 2.095790 
# 
# From -- ./inp_files/32705.got.cif
#   From: 2010.05.17/outbox.cif.g08.bks.cpg/sg73_17_cif.got.tgz:32705.got - 2010.06.03 17:35:07.
