data_PCOD9532896
_publ_section_title
;
Structure prediction by ZEFSAII (Michael W. Deem and Ramdas Pophale) SiO2 
 PCOD9532896
Probable space group: I B C A 
;
_chemical_formula_sum "Si O2"
_cell_formula_units_Z 104
_cell_length_a 20.150235
_cell_length_b 9.668310
_cell_length_c 25.966495
_cell_angle_alpha 90.000000
_cell_angle_beta 90.000000
_cell_angle_gamma 90.000000
_cell_volume 5058.759281
_symmetry_space_group_name_H-M "I B C A "
_symmetry_group_IT_number 73
_symmetry_cell_setting 'orthorhombic'
loop_
_space_group_symop_operation_xyz
x,y,z
-x,1/2-y,z
x,-y,1/2-z
1/2-x,y,-z
-x,-y,-z
x,1/2+y,-z
-x,y,1/2+z
1/2+x,-y,z
1/2+x,1/2+y,1/2+z
1/2-x,-y,1/2+z
1/2+x,1/2-y,-z
-x,1/2+y,1/2-z
1/2-x,1/2-y,1/2-z
1/2+x,y,1/2-z
1/2-x,1/2+y,z
x,1/2-y,1/2+z
loop_
_atom_site_type_symbol
_atom_site_label
_atom_site_fract_x
_atom_site_fract_y
_atom_site_fract_z
Si Si1 0.921023 0.272715 0.199520
Si Si2 0.370296 0.048523 0.376984
Si Si3 0.750000 0.288313 0.500000
Si Si4 0.506453 0.914101 0.552045
Si Si5 0.895918 0.511180 0.134837
Si Si6 0.228642 0.029986 0.072088
Si Si7 0.921759 0.713939 0.683369
O O1 0.878924 0.186921 0.157348
O O2 0.912144 0.433906 0.187844
O O3 0.902337 0.229633 0.257037
O O4 0.000000 0.250000 0.191456
O O5 0.421679 0.061036 0.423672
O O6 0.299698 0.007043 0.402057
O O7 0.399760 0.931909 0.338925
O O8 0.709336 0.401876 0.533671
O O9 0.775326 0.175969 0.541722
O O10 0.500000 0.750000 0.543453
O O11 0.500000 0.000000 0.500000
O O12 0.451573 0.966827 0.593287
O O13 0.825406 0.462809 0.115627
O O14 0.891523 0.672384 0.145596
O O15 0.000000 0.750000 0.681540
#
# Coordination Sequence:
#
# PCOD9532896 Si02
#       7
#    16  16   8  16  16  16  16
#     4  11  21  43  70  94 128 173 217 266 323 384
#     4  12  23  45  63  99 131 168 214 271 319 386
#     4  10  24  46  60  92 118 190 216 252 300 414
#     4  12  28  42  67  95 132 170 213 271 325 374
#     4  12  23  45  63  99 131 168 214 271 319 386
#     4  11  26  40  69  88 134 168 221 260 327 374
#     4  11  23  39  70 100 126 171 217 264 323 392
#
# _framework density 20.558399999999999
#
# number of rings (size 3 to 8) (size 9 to 14) (size 15 to 20)
#    0.000    0.615    4.615    2.769    6.462    2.462 
#    0.000    4.615    0.000    0.000    0.000    0.000 
#    0.000    0.000    0.000    0.000    0.000    0.000 
#
# Total GULP energy -290355.603600 kJ/mol
# GULP energy per Si atom -5583.761608 kJ/mol
# Density = 2.051161 g / cm^3
# Si number density = 20.558400 Si / 1000 Ang^3
#
#
#
# Elastic Constant Matrix: (Units=GPa)
#
#
# Indices 1 2 3 4 5 6 
#
# 1 99.6270 9.6466 30.6262 0.0000 0.0000 0.0000
# 2 9.6466 100.2249 30.4020 0.0000 0.0000 0.0000
# 3 30.6262 30.4020 112.9436 0.0000 0.0000 0.0000
# 4 0.0000 0.0000 0.0000 -1.3728 0.0000 0.0000
# 5 0.0000 0.0000 0.0000 0.0000 -3.4541 0.0000
# 6 0.0000 0.0000 0.0000 0.0000 0.0000 8.8236
#
#
#
# Elastic Compliance Matrix: (Units=1/GPa)
#
#
# Indices 1 2 3 4 5 6 
#
# 1 0.010953 -0.000167 -0.002925 0.000000 0.000000 0.000000
# 2 -0.000167 0.010867 -0.002880 0.000000 0.000000 0.000000
# 3 -0.002925 -0.002880 0.010422 0.000000 0.000000 0.000000
# 4 0.000000 0.000000 0.000000 -0.728432 0.000000 0.000000
# 5 0.000000 0.000000 0.000000 0.000000 -0.289509 0.000000
# 6 0.000000 0.000000 0.000000 0.000000 0.000000 0.113332
#
#
# Mechanical properties :
#
#
# Convention : Reuss Voigt Hill
#
# Bulk Modulus (GPa) = 49.26472 50.46055 49.86263
# Shear Modulus (GPa) = -5.85715 16.94072 5.54178
#
# Velocity S-wave (km/s) = -1.68974 2.87371 1.64362
# Velocity P-wave (km/s) = 4.49537 5.96734 5.28288
#
# Compressibility (1/GPa) = 0.02029850
#
# Stress axis : x y z
#
# Youngs Moduli (GPa) = 91.30091 92.01978 95.94747
#
# Poissons Ratio (x) = 0.01536 0.28065
# Poissons Ratio (y) = 0.01524 0.27632
# Poissons Ratio (z) = 0.26706 0.26501
#
# Static dielectric constant tensor:
#      x y z
#    x 1.606020 0.000000 0.000000 
#    y 0.000000 1.691340 0.000000 
#    z 0.000000 0.000000 1.761140 
# 
# From -- ./inp_files/32662.got.cif
#   From: 2010.05.17/outbox.cif.g08.bks.cpg/sg73_17_cif.got.tgz:32662.got - 2010.06.03 17:35:07.
