data_PCOD9532924
_publ_section_title
;
Structure prediction by ZEFSAII (Michael W. Deem and Ramdas Pophale) SiO2 
 PCOD9532924
Probable space group: I B C A 
;
_chemical_formula_sum "Si O2"
_cell_formula_units_Z 56
_cell_length_a 9.748452
_cell_length_b 9.100394
_cell_length_c 24.174840
_cell_angle_alpha 90.000000
_cell_angle_beta 90.000000
_cell_angle_gamma 90.000000
_cell_volume 2144.664986
_symmetry_space_group_name_H-M "I B C A "
_symmetry_group_IT_number 73
_symmetry_cell_setting 'orthorhombic'
loop_
_space_group_symop_operation_xyz
x,y,z
-x,1/2-y,z
x,-y,1/2-z
1/2-x,y,-z
-x,-y,-z
x,1/2+y,-z
-x,y,1/2+z
1/2+x,-y,z
1/2+x,1/2+y,1/2+z
1/2-x,-y,1/2+z
1/2+x,1/2-y,-z
-x,1/2+y,1/2-z
1/2-x,1/2-y,1/2-z
1/2+x,y,1/2-z
1/2-x,1/2+y,z
x,1/2-y,1/2+z
loop_
_atom_site_type_symbol
_atom_site_label
_atom_site_fract_x
_atom_site_fract_y
_atom_site_fract_z
Si Si1 0.149369 0.731780 0.925849
Si Si2 0.250000 0.005160 0.500000
Si Si3 0.634496 0.597049 0.341428
Si Si4 0.353446 0.893870 0.800885
O O1 0.139938 0.606969 0.973612
O O2 0.274538 0.672554 0.888656
O O3 0.000000 0.750000 0.899019
O O4 0.191050 0.885482 0.953728
O O5 0.645958 0.719351 0.292376
O O6 0.709562 0.450274 0.323752
O O7 0.472316 0.580008 0.347240
O O8 0.389386 0.000000 0.750000
#
# Coordination Sequence:
#
# PCOD9532924 Si02
#       4
#    16   8  16  16
#     4  11  24  45  72 106 147 187 242 291 365 428
#     4  10  24  46  70 108 140 194 234 298 358 434
#     4  11  26  44  74 107 143 190 237 302 355 433
#     4  11  25  47  71 106 143 188 241 295 361 429
#
# _framework density 26.111302999999999
#
# number of rings (size 3 to 8) (size 9 to 14) (size 15 to 20)
#    0.000    1.143    0.000    4.286    8.000    2.286 
#   20.571    0.000    0.000    0.000    0.000    0.000 
#    0.000    0.000    0.000    0.000    0.000    0.000 
#
# Total GULP energy -156721.491547 kJ/mol
# GULP energy per Si atom -5597.196127 kJ/mol
# Density = 2.605187 g / cm^3
# Si number density = 26.111303 Si / 1000 Ang^3
#
#
#
# Elastic Constant Matrix: (Units=GPa)
#
#
# Indices 1 2 3 4 5 6 
#
# 1 127.0122 -2.5023 10.6981 0.0000 0.0000 0.0000
# 2 -2.5023 150.6358 6.7223 0.0000 0.0000 0.0000
# 3 10.6981 6.7223 61.9470 0.0000 0.0000 0.0000
# 4 0.0000 0.0000 0.0000 57.0863 0.0000 0.0000
# 5 0.0000 0.0000 0.0000 0.0000 31.7793 0.0000
# 6 0.0000 0.0000 0.0000 0.0000 0.0000 29.9073
#
#
#
# Elastic Compliance Matrix: (Units=1/GPa)
#
#
# Indices 1 2 3 4 5 6 
#
# 1 0.007995 0.000195 -0.001402 0.000000 0.000000 0.000000
# 2 0.000195 0.006676 -0.000758 0.000000 0.000000 0.000000
# 3 -0.001402 -0.000758 0.016467 0.000000 0.000000 0.000000
# 4 0.000000 0.000000 0.000000 0.017517 0.000000 0.000000
# 5 0.000000 0.000000 0.000000 0.000000 0.031467 0.000000
# 6 0.000000 0.000000 0.000000 0.000000 0.000000 0.033437
#
#
# Mechanical properties :
#
#
# Convention : Reuss Voigt Hill
#
# Bulk Modulus (GPa) = 36.75317 41.04793 38.90055
# Shear Modulus (GPa) = 39.50756 45.39969 42.45362
#
# Velocity S-wave (km/s) = 3.89401 4.17429 4.03658
# Velocity P-wave (km/s) = 5.85866 6.24399 6.05439
#
# Compressibility (1/GPa) = 0.02720854
#
# Stress axis : x y z
#
# Youngs Moduli (GPa) = 125.07516 149.79905 60.72669
#
# Poissons Ratio (x) = -0.02927 0.08514
# Poissons Ratio (y) = -0.02444 0.04604
# Poissons Ratio (z) = 0.17535 0.11357
#
# Static dielectric constant tensor:
#      x y z
#    x 2.005400 0.000000 0.000000 
#    y 0.000000 2.018520 0.000000 
#    z 0.000000 0.000000 2.192130 
# 
# From -- ./inp_files/33749.got.cif
#   From: 2010.05.17/outbox.cif.g08.bks.cpg/sg73_17_cif.got.tgz:33749.got - 2010.06.03 17:35:07.
