data_PCOD9532776
_publ_section_title
;
Structure prediction by ZEFSAII (Michael W. Deem and Ramdas Pophale) SiO2 
 PCOD9532776
Probable space group: I B C A 
;
_chemical_formula_sum "Si O2"
_cell_formula_units_Z 64
_cell_length_a 10.198192
_cell_length_b 22.211624
_cell_length_c 12.435058
_cell_angle_alpha 90.000000
_cell_angle_beta 90.000000
_cell_angle_gamma 90.000000
_cell_volume 2816.769519
_symmetry_space_group_name_H-M "I B C A "
_symmetry_group_IT_number 73
_symmetry_cell_setting 'orthorhombic'
loop_
_space_group_symop_operation_xyz
x,y,z
-x,1/2-y,z
x,-y,1/2-z
1/2-x,y,-z
-x,-y,-z
x,1/2+y,-z
-x,y,1/2+z
1/2+x,-y,z
1/2+x,1/2+y,1/2+z
1/2-x,-y,1/2+z
1/2+x,1/2-y,-z
-x,1/2+y,1/2-z
1/2-x,1/2-y,1/2-z
1/2+x,y,1/2-z
1/2-x,1/2+y,z
x,1/2-y,1/2+z
loop_
_atom_site_type_symbol
_atom_site_label
_atom_site_fract_x
_atom_site_fract_y
_atom_site_fract_z
Si Si1 0.872923 0.289170 0.205704
Si Si2 0.750000 0.144268 0.500000
Si Si3 0.469349 0.000000 0.250000
Si Si4 0.879636 0.539689 0.959242
Si Si5 0.520720 0.614640 0.878480
O O1 0.750000 0.250000 0.250000
O O2 0.826941 0.321252 0.095597
O O3 0.000000 0.250000 0.178602
O O4 0.926746 0.333213 0.301172
O O5 0.871102 0.116880 0.425584
O O6 0.383085 0.962065 0.167273
O O7 0.544834 0.947203 0.311060
O O8 0.750000 0.508651 0.000000
O O9 0.000000 0.500000 0.000000
O O10 0.894844 0.604282 0.013789
#
# Coordination Sequence:
#
# PCOD9532776 Si02
#       5
#    16   8   8  16  16
#     4  12  28  53  80 114 155 210 274 346 405 479
#     4  12  28  48  82 116 160 204 274 332 412 478
#     4  10  24  46  72 112 162 204 254 312 394 480
#     4  10  24  42  70 104 152 203 259 311 388 469
#     4  11  26  48  76 116 156 212 261 331 401 487
#
# _framework density 22.721062
#
# number of rings (size 3 to 8) (size 9 to 14) (size 15 to 20)
#    0.000    1.000    2.500    1.500   14.000    6.000 
#    0.000    0.000    0.000    0.000    0.000    0.000 
#    0.000    0.000    0.000    0.000    0.000    0.000 
#
# Total GULP energy -178215.180651 kJ/mol
# GULP energy per Si atom -5569.224395 kJ/mol
# Density = 2.266935 g / cm^3
# Si number density = 22.721062 Si / 1000 Ang^3
#
#
#
# Elastic Constant Matrix: (Units=GPa)
#
#
# Indices 1 2 3 4 5 6 
#
# 1 169.5045 45.6715 29.9437 0.0000 0.0000 0.0000
# 2 45.6715 84.1496 40.5956 0.0001 0.0000 0.0001
# 3 29.9437 40.5956 134.0411 0.0001 0.0000 0.0003
# 4 0.0000 0.0001 0.0001 45.6304 0.0000 0.0001
# 5 0.0000 0.0000 0.0000 0.0000 28.5986 0.0000
# 6 0.0000 0.0001 0.0003 0.0001 0.0000 27.5822
#
#
#
# Elastic Compliance Matrix: (Units=1/GPa)
#
#
# Indices 1 2 3 4 5 6 
#
# 1 0.006936 -0.003533 -0.000479 0.000000 0.000000 0.000000
# 2 -0.003533 0.015717 -0.003971 0.000000 0.000000 0.000000
# 3 -0.000479 -0.003971 0.008770 0.000000 0.000000 0.000000
# 4 0.000000 0.000000 0.000000 0.021915 0.000000 0.000000
# 5 0.000000 0.000000 0.000000 0.000000 0.034967 0.000000
# 6 0.000000 0.000000 0.000000 0.000000 0.000000 0.036255
#
#
# Mechanical properties :
#
#
# Convention : Reuss Voigt Hill
#
# Bulk Modulus (GPa) = 64.69840 68.90186 66.80013
# Shear Modulus (GPa) = 34.32196 38.46119 36.39157
#
# Velocity S-wave (km/s) = 3.89083 4.11877 4.00642
# Velocity P-wave (km/s) = 6.98009 7.28080 7.13203
#
# Compressibility (1/GPa) = 0.01545633
#
# Stress axis : x y z
#
# Youngs Moduli (GPa) = 144.16998 63.62609 114.02445
#
# Poissons Ratio (x) = 0.22481 0.05466
# Poissons Ratio (y) = 0.50940 0.45275
# Poissons Ratio (z) = 0.06912 0.25264
#
# Static dielectric constant tensor:
#      x y z
#    x 1.917490 0.000000 0.000000 
#    y 0.000000 1.957390 0.000000 
#    z 0.000000 0.000000 2.126910 
# 
# From -- ./inp_files/9501.got.cif
#   From: 2010.05.17/outbox.cif.g08.bks.cpg/sg73_5_cif.got.tgz:9501.got - 2010.06.03 17:35:07.
