data_PCOD9532833
_publ_section_title
;
Structure prediction by ZEFSAII (Michael W. Deem and Ramdas Pophale) SiO2 
 PCOD9532833
Probable space group: I B C A 
;
_chemical_formula_sum "Si O2"
_cell_formula_units_Z 56
_cell_length_a 9.183167
_cell_length_b 21.017058
_cell_length_c 11.405638
_cell_angle_alpha 90.000000
_cell_angle_beta 90.000000
_cell_angle_gamma 90.000000
_cell_volume 2201.324101
_symmetry_space_group_name_H-M "I B C A "
_symmetry_group_IT_number 73
_symmetry_cell_setting 'orthorhombic'
loop_
_space_group_symop_operation_xyz
x,y,z
-x,1/2-y,z
x,-y,1/2-z
1/2-x,y,-z
-x,-y,-z
x,1/2+y,-z
-x,y,1/2+z
1/2+x,-y,z
1/2+x,1/2+y,1/2+z
1/2-x,-y,1/2+z
1/2+x,1/2-y,-z
-x,1/2+y,1/2-z
1/2-x,1/2-y,1/2-z
1/2+x,y,1/2-z
1/2-x,1/2+y,z
x,1/2-y,1/2+z
loop_
_atom_site_type_symbol
_atom_site_label
_atom_site_fract_x
_atom_site_fract_y
_atom_site_fract_z
Si Si1 0.421082 0.182499 0.997005
Si Si2 0.457139 0.824738 0.242904
Si Si3 0.494024 0.000000 0.750000
Si Si4 0.742889 0.585002 0.137713
O O1 0.500000 0.250000 0.992630
O O2 0.467517 0.153179 0.121794
O O3 0.250000 0.192049 0.000000
O O4 0.457940 0.150596 0.872941
O O5 0.500000 0.750000 0.248729
O O6 0.294669 0.848127 0.203734
O O7 0.606327 0.038571 0.832082
O O8 0.383177 0.046918 0.683478
O O9 0.750000 0.597035 0.000000
#
# Coordination Sequence:
#
# PCOD9532833 Si02
#       4
#    16  16   8  16
#     4  10  24  44  68 105 151 198 254 310 380 469
#     4  10  25  44  74 110 153 200 254 312 392 463
#     4  10  26  50  74 116 144 204 266 326 376 462
#     4  11  25  48  81 108 156 199 261 322 392 457
#
# _framework density 25.439233000000002
#
# number of rings (size 3 to 8) (size 9 to 14) (size 15 to 20)
#    0.000    1.714    0.000    0.857    8.000   14.857 
#    0.000    0.000    0.000    0.000    0.000    0.000 
#    0.000    0.000    0.000    0.000    0.000    0.000 
#
# Total GULP energy -156387.905816 kJ/mol
# GULP energy per Si atom -5585.282351 kJ/mol
# Density = 2.538133 g / cm^3
# Si number density = 25.439233 Si / 1000 Ang^3
#
#
#
# Elastic Constant Matrix: (Units=GPa)
#
#
# Indices 1 2 3 4 5 6 
#
# 1 164.5745 67.2904 81.1959 -0.0002 0.0000 0.0000
# 2 67.2904 136.0040 39.3992 -0.0005 0.0000 0.0000
# 3 81.1959 39.3992 274.2801 -0.0008 0.0001 0.0001
# 4 -0.0002 -0.0005 -0.0008 2.8693 0.0001 0.0001
# 5 0.0000 0.0000 0.0001 0.0001 60.5022 0.0000
# 6 0.0000 0.0000 0.0001 0.0001 0.0000 56.5176
#
#
#
# Elastic Compliance Matrix: (Units=1/GPa)
#
#
# Indices 1 2 3 4 5 6 
#
# 1 0.008562 -0.003654 -0.002010 -0.000001 0.000000 0.000000
# 2 -0.003654 0.009231 -0.000244 0.000001 0.000000 0.000000
# 3 -0.002010 -0.000244 0.004276 0.000001 0.000000 0.000000
# 4 -0.000001 0.000001 0.000001 0.348514 -0.000001 0.000000
# 5 0.000000 0.000000 0.000000 -0.000001 0.016528 0.000000
# 6 0.000000 0.000000 0.000000 0.000000 0.000000 0.017694
#
#
# Mechanical properties :
#
#
# Convention : Reuss Voigt Hill
#
# Bulk Modulus (GPa) = 97.53112 105.62551 101.57832
# Shear Modulus (GPa) = 11.90367 49.77604 30.83985
#
# Velocity S-wave (km/s) = 2.16551 4.42822 3.48558
# Velocity P-wave (km/s) = 6.68391 8.23142 7.49770
#
# Compressibility (1/GPa) = 0.01025314
#
# Stress axis : x y z
#
# Youngs Moduli (GPa) = 116.79802 108.32656 233.86626
#
# Poissons Ratio (x) = 0.39581 0.47000
# Poissons Ratio (y) = 0.42677 0.05715
# Poissons Ratio (z) = 0.23473 0.02647
#
# Static dielectric constant tensor:
#      x y z
#    x 2.174040 0.000000 0.000000 
#    y 0.000000 2.133980 0.000000 
#    z 0.000000 0.000000 1.977110 
# 
# From -- ./inp_files/8994.got.cif
#   From: 2010.05.17/outbox.cif.g08.bks.cpg/sg73_5_cif.got.tgz:8994.got - 2010.06.03 17:35:07.
