data_PCOD9532105
_publ_section_title
;
Structure prediction by ZEFSAII (Michael W. Deem and Ramdas Pophale) SiO2 
 PCOD9532105
Probable space group: I B C A 
;
_chemical_formula_sum "Si O2"
_cell_formula_units_Z 120
_cell_length_a 18.807830
_cell_length_b 25.520762
_cell_length_c 11.222195
_cell_angle_alpha 90.000000
_cell_angle_beta 90.000000
_cell_angle_gamma 90.000000
_cell_volume 5386.543097
_symmetry_space_group_name_H-M "I B C A "
_symmetry_group_IT_number 73
_symmetry_cell_setting 'orthorhombic'
loop_
_space_group_symop_operation_xyz
x,y,z
-x,1/2-y,z
x,-y,1/2-z
1/2-x,y,-z
-x,-y,-z
x,1/2+y,-z
-x,y,1/2+z
1/2+x,-y,z
1/2+x,1/2+y,1/2+z
1/2-x,-y,1/2+z
1/2+x,1/2-y,-z
-x,1/2+y,1/2-z
1/2-x,1/2-y,1/2-z
1/2+x,y,1/2-z
1/2-x,1/2+y,z
x,1/2-y,1/2+z
loop_
_atom_site_type_symbol
_atom_site_label
_atom_site_fract_x
_atom_site_fract_y
_atom_site_fract_z
Si Si1 0.834712 0.201530 0.781906
Si Si2 0.678873 0.814183 0.669766
Si Si3 0.508700 0.190130 0.185475
Si Si4 0.540571 0.339326 0.447953
Si Si5 0.807563 0.412156 0.838382
Si Si6 0.595860 0.000000 0.750000
Si Si7 0.504360 0.446591 0.923971
Si Si8 0.843571 0.391081 0.101215
O O1 0.762785 0.191702 0.855140
O O2 0.837583 0.263343 0.752189
O O3 0.907936 0.180805 0.834335
O O4 0.834124 0.165908 0.662013
O O5 0.618428 0.814505 0.569984
O O6 0.673620 0.870111 0.736773
O O7 0.500000 0.250000 0.220211
O O8 0.485478 0.161595 0.307584
O O9 0.485482 0.184724 0.046109
O O10 0.537586 0.399669 0.488250
O O11 0.852441 0.465193 0.830823
O O12 0.723101 0.422512 0.841809
O O13 0.828194 0.385303 0.962018
O O14 0.542909 0.040565 0.810280
O O15 0.582458 0.423461 0.892524
O O16 0.500000 0.500000 0.000000
#
# Coordination Sequence:
#
# PCOD9532105 Si02
#       8
#    16  16  16  16  16   8  16  16
#     4  10  22  41  69 100 141 184 233 285 359 431
#     4  10  22  42  66 103 138 183 233 291 350 428
#     4  12  26  44  70 103 142 189 232 290 357 433
#     4  12  27  44  70 103 145 185 237 297 358 427
#     4  10  22  42  68  99 137 188 236 290 355 433
#     4  12  24  42  72  96 132 178 240 302 356 414
#     4  12  26  42  69 101 134 185 240 303 357 420
#     4  10  22  42  68  99 139 183 236 286 358 439
#
# _framework density 22.277740000000001
#
# number of rings (size 3 to 8) (size 9 to 14) (size 15 to 20)
#    0.000    1.067    5.333    0.400    3.733    2.133 
#    0.000    4.000    2.933    0.000    0.000    0.000 
#    0.000    0.000    0.000    0.000    0.000    0.000 
#
# Total GULP energy -334099.598311 kJ/mol
# GULP energy per Si atom -5568.326639 kJ/mol
# Density = 2.222703 g / cm^3
# Si number density = 22.277740 Si / 1000 Ang^3
#
#
#
# Elastic Constant Matrix: (Units=GPa)
#
#
# Indices 1 2 3 4 5 6 
#
# 1 119.9421 12.0434 7.7893 0.0000 0.0000 0.0000
# 2 12.0434 90.8705 -1.3091 0.0000 0.0000 0.0000
# 3 7.7893 -1.3091 70.4534 0.0000 0.0000 0.0000
# 4 0.0000 0.0000 0.0000 28.6002 0.0000 0.0000
# 5 0.0000 0.0000 0.0000 0.0000 22.1089 0.0000
# 6 0.0000 0.0000 0.0000 0.0000 0.0000 32.3498
#
#
#
# Elastic Compliance Matrix: (Units=1/GPa)
#
#
# Indices 1 2 3 4 5 6 
#
# 1 0.008515 -0.001142 -0.000963 0.000000 0.000000 0.000000
# 2 -0.001142 0.011161 0.000334 0.000000 0.000000 0.000000
# 3 -0.000963 0.000334 0.014306 0.000000 0.000000 0.000000
# 4 0.000000 0.000000 0.000000 0.034965 0.000000 0.000000
# 5 0.000000 0.000000 0.000000 0.000000 0.045231 0.000000
# 6 0.000000 0.000000 0.000000 0.000000 0.000000 0.030912
#
#
# Mechanical properties :
#
#
# Convention : Reuss Voigt Hill
#
# Bulk Modulus (GPa) = 32.85222 35.36814 34.11018
# Shear Modulus (GPa) = 31.49046 34.12795 32.80921
#
# Velocity S-wave (km/s) = 3.76379 3.91823 3.84179
# Velocity P-wave (km/s) = 5.80231 6.03163 5.91808
#
# Compressibility (1/GPa) = 0.03043934
#
# Stress axis : x y z
#
# Youngs Moduli (GPa) = 117.44571 89.59871 69.89878
#
# Poissons Ratio (x) = 0.10235 0.06728
# Poissons Ratio (y) = 0.13416 -0.02332
# Poissons Ratio (z) = 0.11305 -0.02990
#
# Static dielectric constant tensor:
#      x y z
#    x 1.941720 0.000000 0.000000 
#    y 0.000000 1.940260 0.000000 
#    z 0.000000 0.000000 2.030250 
# 
# From -- ./inp_files/12246.got.cif
#   From: 2010.05.17/outbox.cif.g08.bks.cpg/sg73_7_cif.got.tgz:12246.got - 2010.06.03 17:35:07.
