data_PCOD9532416
_publ_section_title
;
Structure prediction by ZEFSAII (Michael W. Deem and Ramdas Pophale) SiO2 
 PCOD9532416
Probable space group: I B C A 
;
_chemical_formula_sum "Si O2"
_cell_formula_units_Z 88
_cell_length_a 20.429287
_cell_length_b 23.518945
_cell_length_c 8.255556
_cell_angle_alpha 90.000000
_cell_angle_beta 90.000000
_cell_angle_gamma 90.000000
_cell_volume 3966.590559
_symmetry_space_group_name_H-M "I B C A "
_symmetry_group_IT_number 73
_symmetry_cell_setting 'orthorhombic'
loop_
_space_group_symop_operation_xyz
x,y,z
-x,1/2-y,z
x,-y,1/2-z
1/2-x,y,-z
-x,-y,-z
x,1/2+y,-z
-x,y,1/2+z
1/2+x,-y,z
1/2+x,1/2+y,1/2+z
1/2-x,-y,1/2+z
1/2+x,1/2-y,-z
-x,1/2+y,1/2-z
1/2-x,1/2-y,1/2-z
1/2+x,y,1/2-z
1/2-x,1/2+y,z
x,1/2-y,1/2+z
loop_
_atom_site_type_symbol
_atom_site_label
_atom_site_fract_x
_atom_site_fract_y
_atom_site_fract_z
Si Si1 0.294332 0.500000 0.750000
Si Si2 0.000000 0.250000 0.836245
Si Si3 0.939752 0.576795 0.514448
Si Si4 0.326112 0.906143 0.990205
Si Si5 0.505361 0.000000 0.250000
Si Si6 0.698215 0.096670 0.385976
Si Si7 0.947415 0.666786 0.924650
O O1 0.328376 0.535131 0.600262
O O2 0.246278 0.544879 0.836060
O O3 0.052489 0.283397 0.942489
O O4 0.035720 0.201323 0.735288
O O5 0.961317 0.551136 0.685186
O O6 0.865028 0.593311 0.500370
O O7 0.950085 0.524103 0.391690
O O8 0.991734 0.625072 0.466105
O O9 0.336616 0.898711 0.794612
O O10 0.380116 0.866719 0.071712
O O11 0.250000 0.888711 0.000000
O O12 0.750000 0.132538 0.500000
#
# Coordination Sequence:
#
# PCOD9532416 Si02
#       7
#     8   8  16  16   8  16  16
#     4  10  23  39  60  90 141 191 222 256 309 395
#     4  10  24  44  72  96 118 160 224 302 358 390
#     4  11  23  39  60  92 132 175 214 262 319 398
#     4  10  23  42  65  96 134 179 221 265 326 405
#     4  10  23  35  56  92 131 169 214 252 309 397
#     4  11  22  36  57  89 133 180 219 257 309 384
#     4  11  23  45  70  95 127 167 225 288 348 400
#
# _framework density 22.185300000000002
#
# number of rings (size 3 to 8) (size 9 to 14) (size 15 to 20)
#    0.000    1.455    0.000    5.455    0.000   16.000 
#    0.000    0.909    0.000    4.364    0.000    0.000 
#    0.000    0.000    0.000    0.000    0.000    0.000 
#
# Total GULP energy -245159.488202 kJ/mol
# GULP energy per Si atom -5571.806550 kJ/mol
# Density = 2.213481 g / cm^3
# Si number density = 22.185300 Si / 1000 Ang^3
#
#
#
# Elastic Constant Matrix: (Units=GPa)
#
#
# Indices 1 2 3 4 5 6 
#
# 1 145.1133 29.9735 15.2861 0.0000 0.0000 0.0000
# 2 29.9735 69.6523 13.7746 0.0000 0.0000 0.0000
# 3 15.2861 13.7746 98.4344 0.0000 0.0000 0.0000
# 4 0.0000 0.0000 0.0000 360.5514 0.0000 0.0000
# 5 0.0000 0.0000 0.0000 0.0000 -8.5016 0.0000
# 6 0.0000 0.0000 0.0000 0.0000 0.0000 28.7723
#
#
#
# Elastic Compliance Matrix: (Units=1/GPa)
#
#
# Indices 1 2 3 4 5 6 
#
# 1 0.007616 -0.003130 -0.000745 0.000000 0.000000 0.000000
# 2 -0.003130 0.016052 -0.001760 0.000000 0.000000 0.000000
# 3 -0.000745 -0.001760 0.010521 0.000000 0.000000 0.000000
# 4 0.000000 0.000000 0.000000 0.002774 0.000000 0.000000
# 5 0.000000 0.000000 0.000000 0.000000 -0.117625 0.000000
# 6 0.000000 0.000000 0.000000 0.000000 0.000000 0.034756
#
#
# Mechanical properties :
#
#
# Convention : Reuss Voigt Hill
#
# Bulk Modulus (GPa) = 43.63163 47.91870 45.77516
# Shear Modulus (GPa) = -185.21122 93.10881 -46.05121
#
# Velocity S-wave (km/s) = -9.14686 6.48535 -4.56099
# Velocity P-wave (km/s) = 9.58351 8.81623 2.65686
#
# Compressibility (1/GPa) = 0.02291915
#
# Stress axis : x y z
#
# Youngs Moduli (GPa) = 131.29971 62.29695 95.04790
#
# Poissons Ratio (x) = 0.19500 0.07078
# Poissons Ratio (y) = 0.41099 0.16730
# Poissons Ratio (z) = 0.09778 0.10965
#
# Static dielectric constant tensor:
#      x y z
#    x 1.791030 0.000000 0.000000 
#    y 0.000000 1.825260 0.000000 
#    z 0.000000 0.000000 2.061060 
# 
# From -- ./inp_files/6346.got.cif
#   From: 2010.05.17/outbox.cif.g08.bks.cpg/sg73_4_cif.got.tgz:6346.got - 2010.06.03 17:35:07.
