data_PCOD9532709
_publ_section_title
;
Structure prediction by ZEFSAII (Michael W. Deem and Ramdas Pophale) SiO2 
 PCOD9532709
Probable space group: I B C A 
;
_chemical_formula_sum "Si O2"
_cell_formula_units_Z 88
_cell_length_a 24.553570
_cell_length_b 19.625557
_cell_length_c 8.534025
_cell_angle_alpha 90.000000
_cell_angle_beta 90.000000
_cell_angle_gamma 90.000000
_cell_volume 4112.354526
_symmetry_space_group_name_H-M "I B C A "
_symmetry_group_IT_number 73
_symmetry_cell_setting 'orthorhombic'
loop_
_space_group_symop_operation_xyz
x,y,z
-x,1/2-y,z
x,-y,1/2-z
1/2-x,y,-z
-x,-y,-z
x,1/2+y,-z
-x,y,1/2+z
1/2+x,-y,z
1/2+x,1/2+y,1/2+z
1/2-x,-y,1/2+z
1/2+x,1/2-y,-z
-x,1/2+y,1/2-z
1/2-x,1/2-y,1/2-z
1/2+x,y,1/2-z
1/2-x,1/2+y,z
x,1/2-y,1/2+z
loop_
_atom_site_type_symbol
_atom_site_label
_atom_site_fract_x
_atom_site_fract_y
_atom_site_fract_z
Si Si1 0.021179 0.849871 0.084180
Si Si2 0.312541 0.699252 0.059451
Si Si3 0.190863 0.159002 0.424868
Si Si4 0.106649 0.947176 0.974691
Si Si5 0.000000 0.750000 0.333583
Si Si6 0.897438 0.399052 0.888025
O O1 0.034906 0.802218 0.230907
O O2 0.956859 0.865230 0.088836
O O3 0.053365 0.918726 0.062240
O O4 0.034300 0.799995 0.940914
O O5 0.310515 0.681723 0.243516
O O6 0.250000 0.694593 0.000000
O O7 0.331187 0.776708 0.025105
O O8 0.351263 0.649711 0.958834
O O9 0.250000 0.146546 0.500000
O O10 0.156325 0.090768 0.442917
O O11 0.107425 0.919417 0.795277
O O12 0.106610 0.028202 0.974892
#
# Coordination Sequence:
#
# PCOD9532709 Si02
#       6
#    16  16  16  16   8  16
#     4  11  23  42  62  98 128 170 208 266 316 376
#     4  11  24  43  69  97 127 165 213 268 319 375
#     4  11  24  43  69  97 127 165 213 268 319 375
#     4  11  25  43  65  93 132 173 212 262 318 381
#     4  10  24  38  66  94 126 166 218 262 316 372
#     4  11  25  43  65  93 132 173 212 262 318 381
#
# _framework density 21.398935000000002
#
# number of rings (size 3 to 8) (size 9 to 14) (size 15 to 20)
#    0.000    1.091    1.818    4.909    7.636    1.455 
#    0.000    0.000    0.000    0.000    0.000    0.000 
#    0.000    0.000    0.000    0.000    0.000    0.000 
#
# Total GULP energy -245979.946447 kJ/mol
# GULP energy per Si atom -5590.453328 kJ/mol
# Density = 2.135023 g / cm^3
# Si number density = 21.398935 Si / 1000 Ang^3
#
#
#
# Elastic Constant Matrix: (Units=GPa)
#
#
# Indices 1 2 3 4 5 6 
#
# 1 89.8495 26.8017 1.3400 0.0000 0.0000 0.0000
# 2 26.8017 100.3578 -3.9744 0.0000 0.0000 0.0000
# 3 1.3400 -3.9744 76.3332 0.0000 0.0000 0.0000
# 4 0.0000 0.0000 0.0000 39.6701 0.0000 0.0000
# 5 0.0000 0.0000 0.0000 0.0000 14.9063 0.0000
# 6 0.0000 0.0000 0.0000 0.0000 0.0000 30.0634
#
#
#
# Elastic Compliance Matrix: (Units=1/GPa)
#
#
# Indices 1 2 3 4 5 6 
#
# 1 0.012104 -0.003248 -0.000382 0.000000 0.000000 0.000000
# 2 -0.003248 0.010856 0.000622 0.000000 0.000000 0.000000
# 3 -0.000382 0.000622 0.013140 0.000000 0.000000 0.000000
# 4 0.000000 0.000000 0.000000 0.025208 0.000000 0.000000
# 5 0.000000 0.000000 0.000000 0.000000 0.067086 0.000000
# 6 0.000000 0.000000 0.000000 0.000000 0.000000 0.033263
#
#
# Mechanical properties :
#
#
# Convention : Reuss Voigt Hill
#
# Bulk Modulus (GPa) = 33.23797 34.98613 34.11205
# Shear Modulus (GPa) = 28.13738 33.08616 30.61177
#
# Velocity S-wave (km/s) = 3.63008 3.93639 3.78634
# Velocity P-wave (km/s) = 5.75641 6.08647 5.92374
#
# Compressibility (1/GPa) = 0.03008607
#
# Stress axis : x y z
#
# Youngs Moduli (GPa) = 82.61610 92.11228 76.10607
#
# Poissons Ratio (x) = 0.29915 0.02904
# Poissons Ratio (y) = 0.26831 -0.04736
# Poissons Ratio (z) = 0.03152 -0.05732
#
# Static dielectric constant tensor:
#      x y z
#    x 1.773370 0.000000 0.000000 
#    y 0.000000 1.759580 0.000000 
#    z 0.000000 0.000000 1.826320 
# 
# From -- ./inp_files/7061.got.cif
#   From: 2010.05.17/outbox.cif.g08.bks.cpg/sg73_4_cif.got.tgz:7061.got - 2010.06.03 17:35:07.
