data_PCOD9532889
_publ_section_title
;
Structure prediction by ZEFSAII (Michael W. Deem and Ramdas Pophale) SiO2 
 PCOD9532889
Probable space group: I B C A 
;
_chemical_formula_sum "Si O2"
_cell_formula_units_Z 112
_cell_length_a 26.042203
_cell_length_b 13.830142
_cell_length_c 14.200925
_cell_angle_alpha 90.000000
_cell_angle_beta 90.000000
_cell_angle_gamma 90.000000
_cell_volume 5114.709745
_symmetry_space_group_name_H-M "I B C A "
_symmetry_group_IT_number 73
_symmetry_cell_setting 'orthorhombic'
loop_
_space_group_symop_operation_xyz
x,y,z
-x,1/2-y,z
x,-y,1/2-z
1/2-x,y,-z
-x,-y,-z
x,1/2+y,-z
-x,y,1/2+z
1/2+x,-y,z
1/2+x,1/2+y,1/2+z
1/2-x,-y,1/2+z
1/2+x,1/2-y,-z
-x,1/2+y,1/2-z
1/2-x,1/2-y,1/2-z
1/2+x,y,1/2-z
1/2-x,1/2+y,z
x,1/2-y,1/2+z
loop_
_atom_site_type_symbol
_atom_site_label
_atom_site_fract_x
_atom_site_fract_y
_atom_site_fract_z
Si Si1 0.960380 0.167010 0.107354
Si Si2 0.647174 0.355879 0.390555
Si Si3 0.491722 0.500000 0.750000
Si Si4 0.343797 0.635676 0.402258
Si Si5 0.038739 0.340051 0.884280
Si Si6 0.766608 0.473054 0.104321
Si Si7 0.177274 0.000000 0.750000
Si Si8 0.747354 0.741361 0.637488
O O1 0.902705 0.211031 0.112054
O O2 0.000000 0.250000 0.134283
O O3 0.964676 0.074776 0.176321
O O4 0.969033 0.141024 0.996847
O O5 0.643316 0.404443 0.492949
O O6 0.644250 0.417404 0.296008
O O7 0.704335 0.316899 0.391144
O O8 0.522982 0.570436 0.819390
O O9 0.399455 0.671707 0.366692
O O10 0.310215 0.546958 0.358532
O O11 0.302972 0.724878 0.400476
O O12 0.000000 0.250000 0.863664
O O13 0.715733 0.470725 0.167733
O O14 0.777748 0.359264 0.104789
O O15 0.750000 0.503041 0.000000
O O16 0.750000 0.750000 0.750000
#
# Coordination Sequence:
#
# PCOD9532889 Si02
#       8
#    16  16   8  16  16  16   8  16
#     4  10  24  45  71  99 136 185 240 300 363 431
#     4  11  22  43  65  94 136 178 227 287 343 412
#     4  12  23  45  70 102 134 178 237 303 368 422
#     4  11  23  45  67  93 141 181 226 284 347 410
#     4  10  25  47  71 102 137 185 238 299 362 433
#     4  12  22  39  64  95 136 180 224 270 342 408
#     4  12  21  39  64  98 134 180 227 277 334 420
#     4  12  24  38  61  99 134 180 228 277 337 418
#
# _framework density 21.897625999999999
#
# number of rings (size 3 to 8) (size 9 to 14) (size 15 to 20)
#    0.000    0.857    4.286    2.571    0.000    5.143 
#    2.571    4.286    0.000    0.000    0.000    0.000 
#    0.000    0.000    0.000    0.000    0.000    0.000 
#
# Total GULP energy -311914.772455 kJ/mol
# GULP energy per Si atom -5569.906651 kJ/mol
# Density = 2.184779 g / cm^3
# Si number density = 21.897626 Si / 1000 Ang^3
#
#
#
# Elastic Constant Matrix: (Units=GPa)
#
#
# Indices 1 2 3 4 5 6 
#
# 1 170.9898 49.0579 26.6478 0.0000 0.0000 0.0000
# 2 49.0579 92.2601 13.2800 0.0000 0.0000 0.0000
# 3 26.6478 13.2800 110.1225 0.0000 0.0000 0.0000
# 4 0.0000 0.0000 0.0000 39.1670 0.0000 0.0000
# 5 0.0000 0.0000 0.0000 0.0000 271.3782 0.0000
# 6 0.0000 0.0000 0.0000 0.0000 0.0000 6.9066
#
#
#
# Elastic Compliance Matrix: (Units=1/GPa)
#
#
# Indices 1 2 3 4 5 6 
#
# 1 0.007074 -0.003577 -0.001280 0.000000 0.000000 0.000000
# 2 -0.003577 0.012839 -0.000683 0.000000 0.000000 0.000000
# 3 -0.001280 -0.000683 0.009473 0.000000 0.000000 0.000000
# 4 0.000000 0.000000 0.000000 0.025532 0.000000 0.000000
# 5 0.000000 0.000000 0.000000 0.000000 0.003685 0.000000
# 6 0.000000 0.000000 0.000000 0.000000 0.000000 0.144789
#
#
# Mechanical properties :
#
#
# Convention : Reuss Voigt Hill
#
# Bulk Modulus (GPa) = 54.62786 61.26042 57.94414
# Shear Modulus (GPa) = 22.66806 82.44947 52.55876
#
# Velocity S-wave (km/s) = 3.22092 6.14280 4.90450
# Velocity P-wave (km/s) = 6.23165 8.85147 7.65448
#
# Compressibility (1/GPa) = 0.01830568
#
# Stress axis : x y z
#
# Youngs Moduli (GPa) = 141.35883 77.88556 105.56350
#
# Poissons Ratio (x) = 0.27862 0.13517
# Poissons Ratio (y) = 0.50568 0.07207
# Poissons Ratio (z) = 0.18100 0.05317
#
# Static dielectric constant tensor:
#      x y z
#    x 1.809920 0.000000 0.000000 
#    y 0.000000 1.959170 0.000000 
#    z 0.000000 0.000000 1.851050 
# 
# From -- ./inp_files/19850.got.cif
#   From: 2010.05.17/outbox.cif.g08.bks.cpg/sg73_10_cif.got.tgz:19850.got - 2010.06.03 17:35:07.
