data_PCOD9532618
_publ_section_title
;
Structure prediction by ZEFSAII (Michael W. Deem and Ramdas Pophale) SiO2 
 PCOD9532618
Probable space group: I B C A 
;
_chemical_formula_sum "Si O2"
_cell_formula_units_Z 120
_cell_length_a 11.806443
_cell_length_b 16.162977
_cell_length_c 27.618134
_cell_angle_alpha 90.000000
_cell_angle_beta 90.000000
_cell_angle_gamma 90.000000
_cell_volume 5270.293021
_symmetry_space_group_name_H-M "I B C A "
_symmetry_group_IT_number 73
_symmetry_cell_setting 'orthorhombic'
loop_
_space_group_symop_operation_xyz
x,y,z
-x,1/2-y,z
x,-y,1/2-z
1/2-x,y,-z
-x,-y,-z
x,1/2+y,-z
-x,y,1/2+z
1/2+x,-y,z
1/2+x,1/2+y,1/2+z
1/2-x,-y,1/2+z
1/2+x,1/2-y,-z
-x,1/2+y,1/2-z
1/2-x,1/2-y,1/2-z
1/2+x,y,1/2-z
1/2-x,1/2+y,z
x,1/2-y,1/2+z
loop_
_atom_site_type_symbol
_atom_site_label
_atom_site_fract_x
_atom_site_fract_y
_atom_site_fract_z
Si Si1 0.266695 0.163666 0.683811
Si Si2 0.865639 0.495784 0.807318
Si Si3 0.508839 0.592907 0.980277
Si Si4 0.658780 0.417595 0.859116
Si Si5 0.250000 0.167852 0.500000
Si Si6 0.393972 0.693067 0.217590
Si Si7 0.386779 0.293761 0.440280
Si Si8 0.049764 0.915485 0.124959
O O1 0.181184 0.086483 0.677207
O O2 0.333551 0.156934 0.734979
O O3 0.195055 0.247306 0.689427
O O4 0.365036 0.155177 0.643563
O O5 0.880657 0.500000 0.750000
O O6 0.764100 0.436429 0.824918
O O7 0.971253 0.451104 0.832448
O O8 0.480288 0.602472 0.923587
O O9 0.500000 0.500000 0.000000
O O10 0.641139 0.616848 0.983779
O O11 0.435006 0.653631 0.014037
O O12 0.571367 0.377867 0.820353
O O13 0.670265 0.353002 0.901868
O O14 0.624155 0.502524 0.884734
O O15 0.298784 0.225883 0.457909
O O16 0.500000 0.750000 0.231855
O O17 0.500000 0.250000 0.419244
#
# Coordination Sequence:
#
# PCOD9532618 Si02
#       8
#    16  16  16  16   8  16  16  16
#     4  10  25  43  63 100 136 178 236 281 355 417
#     4  11  24  43  68  95 138 181 232 288 346 413
#     4  11  24  48  70 106 139 182 245 290 364 436
#     4  11  23  42  67 101 130 184 231 283 348 430
#     4  10  26  44  76  96 148 188 218 318 364 432
#     4  11  23  41  68  98 138 182 227 291 350 426
#     4  10  23  45  70 105 142 183 231 290 372 439
#     4  11  26  41  70 101 135 183 234 295 348 422
#
# _framework density 22.769131999999999
#
# number of rings (size 3 to 8) (size 9 to 14) (size 15 to 20)
#    0.000    1.333    2.667    1.200    7.467    2.667 
#    0.000    2.000    0.000    0.000    0.000    0.000 
#    0.000    0.000    0.000    0.000    0.000    0.000 
#
# Total GULP energy -335366.042123 kJ/mol
# GULP energy per Si atom -5589.434035 kJ/mol
# Density = 2.271731 g / cm^3
# Si number density = 22.769132 Si / 1000 Ang^3
#
#
#
# Elastic Constant Matrix: (Units=GPa)
#
#
# Indices 1 2 3 4 5 6 
#
# 1 92.4203 37.2701 40.2159 0.0000 0.0000 0.0000
# 2 37.2701 72.8432 28.4773 0.0000 0.0000 0.0000
# 3 40.2159 28.4773 122.0298 0.0000 0.0000 0.0000
# 4 0.0000 0.0000 0.0000 42.3461 0.0000 0.0000
# 5 0.0000 0.0000 0.0000 0.0000 15.2855 0.0000
# 6 0.0000 0.0000 0.0000 0.0000 0.0000 30.0627
#
#
#
# Elastic Compliance Matrix: (Units=1/GPa)
#
#
# Indices 1 2 3 4 5 6 
#
# 1 0.014832 -0.006248 -0.003430 0.000000 0.000000 0.000000
# 2 -0.006248 0.017738 -0.002080 0.000000 0.000000 0.000000
# 3 -0.003430 -0.002080 0.009811 0.000000 0.000000 0.000000
# 4 0.000000 0.000000 0.000000 0.023615 0.000000 0.000000
# 5 0.000000 0.000000 0.000000 0.000000 0.065422 0.000000
# 6 0.000000 0.000000 0.000000 0.000000 0.000000 0.033264
#
#
# Mechanical properties :
#
#
# Convention : Reuss Voigt Hill
#
# Bulk Modulus (GPa) = 53.01023 55.46887 54.23955
# Shear Modulus (GPa) = 25.70875 29.62751 27.66813
#
# Velocity S-wave (km/s) = 3.36386 3.61115 3.48970
# Velocity P-wave (km/s) = 6.19835 6.46541 6.33329
#
# Compressibility (1/GPa) = 0.01886428
#
# Stress axis : x y z
#
# Youngs Moduli (GPa) = 67.42046 56.37551 101.93054
#
# Poissons Ratio (x) = 0.35223 0.34963
# Poissons Ratio (y) = 0.42124 0.21205
# Poissons Ratio (z) = 0.23126 0.11728
#
# Static dielectric constant tensor:
#      x y z
#    x 1.888340 0.000000 0.000000 
#    y 0.000000 1.857710 0.000000 
#    z 0.000000 0.000000 1.851660 
# 
# From -- ./inp_files/31822.got.cif
#   From: 2010.05.17/outbox.cif.g08.bks.cpg/sg73_16_cif.got.tgz:31822.got - 2010.06.03 17:35:07.
