data_PCOD9532622
_publ_section_title
;
Structure prediction by ZEFSAII (Michael W. Deem and Ramdas Pophale) SiO2 
 PCOD9532622
Probable space group: I B C A 
;
_chemical_formula_sum "Si O2"
_cell_formula_units_Z 96
_cell_length_a 14.202248
_cell_length_b 13.840956
_cell_length_c 24.379955
_cell_angle_alpha 90.000000
_cell_angle_beta 90.000000
_cell_angle_gamma 90.000000
_cell_volume 4792.433328
_symmetry_space_group_name_H-M "I B C A "
_symmetry_group_IT_number 73
_symmetry_cell_setting 'orthorhombic'
loop_
_space_group_symop_operation_xyz
x,y,z
-x,1/2-y,z
x,-y,1/2-z
1/2-x,y,-z
-x,-y,-z
x,1/2+y,-z
-x,y,1/2+z
1/2+x,-y,z
1/2+x,1/2+y,1/2+z
1/2-x,-y,1/2+z
1/2+x,1/2-y,-z
-x,1/2+y,1/2-z
1/2-x,1/2-y,1/2-z
1/2+x,y,1/2-z
1/2-x,1/2+y,z
x,1/2-y,1/2+z
loop_
_atom_site_type_symbol
_atom_site_label
_atom_site_fract_x
_atom_site_fract_y
_atom_site_fract_z
Si Si1 0.928203 0.056051 0.038929
Si Si2 0.328348 0.622003 0.113831
Si Si3 0.000000 0.750000 0.154473
Si Si4 0.475405 0.034913 0.637332
Si Si5 0.311837 0.681069 0.787756
Si Si6 0.579478 0.500000 0.250000
Si Si7 0.750000 0.445500 0.000000
Si Si8 0.500000 0.250000 0.922279
O O1 0.950705 0.168672 0.040565
O O2 0.948928 0.018635 0.099683
O O3 0.829203 0.017802 0.020917
O O4 0.000000 0.000000 0.000000
O O5 0.376503 0.517779 0.126096
O O6 0.251451 0.647293 0.160049
O O7 0.416718 0.697198 0.112050
O O8 0.285453 0.616180 0.052379
O O9 0.019237 0.851295 0.123970
O O10 0.094207 0.733099 0.189859
O O11 0.510791 0.015159 0.698505
O O12 0.250000 0.750000 0.750000
O O13 0.351660 0.592013 0.752134
#
# Coordination Sequence:
#
# PCOD9532622 Si02
#       8
#    16  16   8  16  16   8   8   8
#     4  11  23  46  66 102 137 182 227 290 349 409
#     4  11  26  44  72 105 142 184 232 287 347 425
#     4  10  24  46  64 104 134 182 226 294 340 414
#     4  10  23  45  71  95 145 181 227 290 354 405
#     4  11  27  42  73 105 135 183 237 283 349 417
#     4  10  24  44  66 100 142 182 222 298 342 404
#     4  12  22  46  72 102 140 184 234 280 352 410
#     4  10  24  46  70 102 140 184 226 292 346 414
#
# _framework density 20.031576999999999
#
# number of rings (size 3 to 8) (size 9 to 14) (size 15 to 20)
#    0.000    1.333    3.333    2.000   11.667    2.667 
#    3.000    0.000    0.000    0.000    0.000    0.000 
#    0.000    0.000    0.000    0.000    0.000    0.000 
#
# Total GULP energy -267902.149012 kJ/mol
# GULP energy per Si atom -5581.294771 kJ/mol
# Density = 1.998598 g / cm^3
# Si number density = 20.031577 Si / 1000 Ang^3
#
#
#
# Elastic Constant Matrix: (Units=GPa)
#
#
# Indices 1 2 3 4 5 6 
#
# 1 123.8423 34.9646 22.8650 0.0000 0.0000 0.0000
# 2 34.9646 122.4444 25.3250 0.0000 0.0000 0.0000
# 3 22.8650 25.3250 86.0032 0.0000 0.0000 0.0000
# 4 0.0000 0.0000 0.0000 27.2946 0.0000 0.0000
# 5 0.0000 0.0000 0.0000 0.0000 60.6732 0.0000
# 6 0.0000 0.0000 0.0000 0.0000 0.0000 31.8642
#
#
#
# Elastic Compliance Matrix: (Units=1/GPa)
#
#
# Indices 1 2 3 4 5 6 
#
# 1 0.009023 -0.002215 -0.001746 0.000000 0.000000 0.000000
# 2 -0.002215 0.009241 -0.002132 0.000000 0.000000 0.000000
# 3 -0.001746 -0.002132 0.012720 0.000000 0.000000 0.000000
# 4 0.000000 0.000000 0.000000 0.036637 0.000000 0.000000
# 5 0.000000 0.000000 0.000000 0.000000 0.016482 0.000000
# 6 0.000000 0.000000 0.000000 0.000000 0.000000 0.031383
#
#
# Mechanical properties :
#
#
# Convention : Reuss Voigt Hill
#
# Bulk Modulus (GPa) = 53.20498 55.39989 54.30243
# Shear Modulus (GPa) = 37.33082 40.57544 38.95313
#
# Velocity S-wave (km/s) = 4.32163 4.50552 4.41453
# Velocity P-wave (km/s) = 7.17775 7.40153 7.29050
#
# Compressibility (1/GPa) = 0.01879523
#
# Stress axis : x y z
#
# Youngs Moduli (GPa) = 110.83192 108.21901 78.61876
#
# Poissons Ratio (x) = 0.23973 0.13731
# Poissons Ratio (y) = 0.24552 0.16762
# Poissons Ratio (z) = 0.19356 0.23073
#
# Static dielectric constant tensor:
#      x y z
#    x 1.635880 0.000000 0.000000 
#    y 0.000000 1.738620 0.000000 
#    z 0.000000 0.000000 1.715260 
# 
# From -- ./inp_files/17131.got.cif
#   From: 2010.05.17/outbox.cif.g08.bks.cpg/sg73_9_cif.got.tgz:17131.got - 2010.06.03 17:35:07.
