data_PCOD9532134
_publ_section_title
;
Structure prediction by ZEFSAII (Michael W. Deem and Ramdas Pophale) SiO2 
 PCOD9532134
Probable space group: I B C A 
;
_chemical_formula_sum "Si O2"
_cell_formula_units_Z 80
_cell_length_a 13.885372
_cell_length_b 12.292990
_cell_length_c 24.179779
_cell_angle_alpha 90.000000
_cell_angle_beta 90.000000
_cell_angle_gamma 90.000000
_cell_volume 4127.312709
_symmetry_space_group_name_H-M "I B C A "
_symmetry_group_IT_number 73
_symmetry_cell_setting 'orthorhombic'
loop_
_space_group_symop_operation_xyz
x,y,z
-x,1/2-y,z
x,-y,1/2-z
1/2-x,y,-z
-x,-y,-z
x,1/2+y,-z
-x,y,1/2+z
1/2+x,-y,z
1/2+x,1/2+y,1/2+z
1/2-x,-y,1/2+z
1/2+x,1/2-y,-z
-x,1/2+y,1/2-z
1/2-x,1/2-y,1/2-z
1/2+x,y,1/2-z
1/2-x,1/2+y,z
x,1/2-y,1/2+z
loop_
_atom_site_type_symbol
_atom_site_label
_atom_site_fract_x
_atom_site_fract_y
_atom_site_fract_z
Si Si1 0.000000 0.750000 0.361740
Si Si2 0.500000 0.750000 0.457124
Si Si3 0.499416 0.476223 0.812849
Si Si4 0.857650 0.413988 0.597049
Si Si5 0.867231 0.416155 0.392846
Si Si6 0.639328 0.572853 0.506230
O O1 0.969288 0.648916 0.323418
O O2 0.915052 0.800938 0.398451
O O3 0.425004 0.682608 0.419916
O O4 0.562547 0.663813 0.491366
O O5 0.474585 0.500000 0.750000
O O6 0.409353 0.486639 0.855417
O O7 0.583901 0.552705 0.835279
O O8 0.746097 0.395833 0.609313
O O9 0.868544 0.475199 0.538888
O O10 0.879252 0.519711 0.434190
O O11 0.750000 0.612748 0.500000
#
# Coordination Sequence:
#
# PCOD9532134 Si02
#       6
#     8   8  16  16  16  16
#     4   8  20  42  66  88 116 173 205 258 304 382
#     4  12  22  38  62  98 128 163 205 270 300 388
#     4  10  22  42  63  92 128 163 216 264 309 371
#     4   9  21  43  62  89 125 169 207 254 322 376
#     4  11  24  39  64  94 128 164 211 261 320 370
#     4  10  23  41  61  94 129 168 203 259 320 384
#
# _framework density 19.383071999999999
#
# number of rings (size 3 to 8) (size 9 to 14) (size 15 to 20)
#    1.200    0.800    2.000    0.600    0.000   10.400 
#    0.000    1.000    0.000    0.000    0.000    0.000 
#    0.000    0.000    0.000    0.000    0.000    0.000 
#
# Total GULP energy -223331.440355 kJ/mol
# GULP energy per Si atom -5583.286009 kJ/mol
# Density = 1.933896 g / cm^3
# Si number density = 19.383072 Si / 1000 Ang^3
#
#
#
# Elastic Constant Matrix: (Units=GPa)
#
#
# Indices 1 2 3 4 5 6 
#
# 1 127.5131 46.0375 21.0193 0.0000 0.0000 0.0000
# 2 46.0375 62.6394 -3.2338 0.0000 0.0000 0.0000
# 3 21.0193 -3.2338 78.0841 0.0000 0.0000 0.0000
# 4 0.0000 0.0000 0.0000 13.9571 0.0000 0.0000
# 5 0.0000 0.0000 0.0000 0.0000 11.6472 0.0000
# 6 0.0000 0.0000 0.0000 0.0000 0.0000 25.8443
#
#
#
# Elastic Compliance Matrix: (Units=1/GPa)
#
#
# Indices 1 2 3 4 5 6 
#
# 1 0.011540 -0.008661 -0.003465 0.000000 0.000000 0.000000
# 2 -0.008661 0.022498 0.003263 0.000000 0.000000 0.000000
# 3 -0.003465 0.003263 0.013875 0.000000 0.000000 0.000000
# 4 0.000000 0.000000 0.000000 0.071648 0.000000 0.000000
# 5 0.000000 0.000000 0.000000 0.000000 0.085858 0.000000
# 6 0.000000 0.000000 0.000000 0.000000 0.000000 0.038693
#
#
# Mechanical properties :
#
#
# Convention : Reuss Voigt Hill
#
# Bulk Modulus (GPa) = 33.12619 43.98695 38.55657
# Shear Modulus (GPa) = 18.38910 23.91729 21.15319
#
# Velocity S-wave (km/s) = 3.08347 3.51654 3.30710
# Velocity P-wave (km/s) = 5.45934 6.26345 5.87517
#
# Compressibility (1/GPa) = 0.03018760
#
# Stress axis : x y z
#
# Youngs Moduli (GPa) = 86.65228 44.44824 72.07397
#
# Poissons Ratio (x) = 0.38495 0.24975
# Poissons Ratio (y) = 0.75046 -0.23518
# Poissons Ratio (z) = 0.30027 -0.14504
#
# Static dielectric constant tensor:
#      x y z
#    x 1.686220 0.000000 0.000000 
#    y 0.000000 1.697040 0.000000 
#    z 0.000000 0.000000 1.656030 
# 
# From -- ./inp_files/29361.got.cif
#   From: 2010.05.17/outbox.cif.g08.bks.cpg/sg73_15_cif.got.tgz:29361.got - 2010.06.03 17:35:07.
