data_PCOD9532627
_publ_section_title
;
Structure prediction by ZEFSAII (Michael W. Deem and Ramdas Pophale) SiO2 
 PCOD9532627
Probable space group: I B C A 
;
_chemical_formula_sum "Si O2"
_cell_formula_units_Z 88
_cell_length_a 28.048829
_cell_length_b 5.035270
_cell_length_c 28.914915
_cell_angle_alpha 90.000000
_cell_angle_beta 90.000000
_cell_angle_gamma 90.000000
_cell_volume 4083.752543
_symmetry_space_group_name_H-M "I B C A "
_symmetry_group_IT_number 73
_symmetry_cell_setting 'orthorhombic'
loop_
_space_group_symop_operation_xyz
x,y,z
-x,1/2-y,z
x,-y,1/2-z
1/2-x,y,-z
-x,-y,-z
x,1/2+y,-z
-x,y,1/2+z
1/2+x,-y,z
1/2+x,1/2+y,1/2+z
1/2-x,-y,1/2+z
1/2+x,1/2-y,-z
-x,1/2+y,1/2-z
1/2-x,1/2-y,1/2-z
1/2+x,y,1/2-z
1/2-x,1/2+y,z
x,1/2-y,1/2+z
loop_
_atom_site_type_symbol
_atom_site_label
_atom_site_fract_x
_atom_site_fract_y
_atom_site_fract_z
Si Si1 0.782401 0.516682 0.802532
Si Si2 0.863303 0.782613 0.133565
Si Si3 0.413984 0.288924 0.335372
Si Si4 0.108913 0.667683 0.527497
Si Si5 0.031244 0.500000 0.750000
Si Si6 0.500000 0.250000 0.898555
Si Si7 0.000000 0.250000 0.455291
O O1 0.804154 0.500000 0.750000
O O2 0.737824 0.313818 0.805037
O O3 0.816534 0.417313 0.843873
O O4 0.870980 0.487229 0.153423
O O5 0.871918 0.753308 0.078235
O O6 0.902794 0.983976 0.154294
O O7 0.434939 0.352294 0.285954
O O8 0.457086 0.365752 0.369147
O O9 0.125130 0.378661 0.511022
O O10 0.050706 0.651012 0.524914
O O11 0.000000 0.250000 0.769337
O O12 0.481994 0.493937 0.927930
#
# Coordination Sequence:
#
# PCOD9532627 Si02
#       7
#    16  16  16  16   8   8   8
#     4  10  23  45  73 102 130 159 202 264 338 417
#     4  12  25  43  68  94 129 169 214 272 332 387
#     4  12  24  39  59  89 128 176 220 265 312 381
#     4  12  24  40  61  93 130 174 226 277 321 373
#     4  12  26  38  56  84 126 180 226 264 306 368
#     4  12  20  39  57  82 130 172 224 267 312 363
#     4  12  22  39  61  86 124 180 224 283 316 365
#
# _framework density 21.548805999999999
#
# number of rings (size 3 to 8) (size 9 to 14) (size 15 to 20)
#    0.000    0.364    4.545    4.909    3.818    0.000 
#    0.000    0.000    0.000    3.273    0.000    0.000 
#    0.000    0.000    0.000    0.000    0.000    0.000 
#
# Total GULP energy -245544.727282 kJ/mol
# GULP energy per Si atom -5580.561984 kJ/mol
# Density = 2.149976 g / cm^3
# Si number density = 21.548806 Si / 1000 Ang^3
#
#
#
# Elastic Constant Matrix: (Units=GPa)
#
#
# Indices 1 2 3 4 5 6 
#
# 1 49.2951 -4.7752 31.4380 0.0000 0.0000 0.0000
# 2 -4.7752 91.5862 11.3727 0.0000 0.0000 0.0000
# 3 31.4380 11.3727 113.5161 0.0000 0.0000 0.0000
# 4 0.0000 0.0000 0.0000 49.1340 0.0000 0.0000
# 5 0.0000 0.0000 0.0000 0.0000 29.0121 0.0000
# 6 0.0000 0.0000 0.0000 0.0000 0.0000 34.3113
#
#
#
# Elastic Compliance Matrix: (Units=1/GPa)
#
#
# Indices 1 2 3 4 5 6 
#
# 1 0.025066 0.002196 -0.007162 0.000000 0.000000 0.000000
# 2 0.002196 0.011249 -0.001735 0.000000 0.000000 0.000000
# 3 -0.007162 -0.001735 0.010967 0.000000 0.000000 0.000000
# 4 0.000000 0.000000 0.000000 0.020352 0.000000 0.000000
# 5 0.000000 0.000000 0.000000 0.000000 0.034468 0.000000
# 6 0.000000 0.000000 0.000000 0.000000 0.000000 0.029145
#
#
# Mechanical properties :
#
#
# Convention : Reuss Voigt Hill
#
# Bulk Modulus (GPa) = 29.51622 36.71871 33.11746
# Shear Modulus (GPa) = 32.06303 36.91561 34.48932
#
# Velocity S-wave (km/s) = 3.86155 4.14347 4.00499
# Velocity P-wave (km/s) = 5.79734 6.32202 6.06536
#
# Compressibility (1/GPa) = 0.03387968
#
# Stress axis : x y z
#
# Youngs Moduli (GPa) = 39.89407 88.89945 91.18513
#
# Poissons Ratio (x) = -0.19525 0.65308
# Poissons Ratio (y) = -0.08762 0.15823
# Poissons Ratio (z) = 0.28573 0.15426
#
# Static dielectric constant tensor:
#      x y z
#    x 1.779810 0.000000 0.000000 
#    y 0.000000 1.738440 0.000000 
#    z 0.000000 0.000000 1.769920 
# 
# From -- ./inp_files/34847.got.cif
#   From: 2010.05.17/outbox.cif.g08.bks.cpg/sg73_18_cif.got.tgz:34847.got - 2010.06.03 17:35:07.
