data_PCOD9532642
_publ_section_title
;
Structure prediction by ZEFSAII (Michael W. Deem and Ramdas Pophale) SiO2 
 PCOD9532642
Probable space group: I B C A 
;
_chemical_formula_sum "Si O2"
_cell_formula_units_Z 88
_cell_length_a 16.795915
_cell_length_b 13.693395
_cell_length_c 18.342428
_cell_angle_alpha 90.000000
_cell_angle_beta 90.000000
_cell_angle_gamma 90.000000
_cell_volume 4218.631849
_symmetry_space_group_name_H-M "I B C A "
_symmetry_group_IT_number 73
_symmetry_cell_setting 'orthorhombic'
loop_
_space_group_symop_operation_xyz
x,y,z
-x,1/2-y,z
x,-y,1/2-z
1/2-x,y,-z
-x,-y,-z
x,1/2+y,-z
-x,y,1/2+z
1/2+x,-y,z
1/2+x,1/2+y,1/2+z
1/2-x,-y,1/2+z
1/2+x,1/2-y,-z
-x,1/2+y,1/2-z
1/2-x,1/2-y,1/2-z
1/2+x,y,1/2-z
1/2-x,1/2+y,z
x,1/2-y,1/2+z
loop_
_atom_site_type_symbol
_atom_site_label
_atom_site_fract_x
_atom_site_fract_y
_atom_site_fract_z
Si Si1 0.916209 0.563391 0.319592
Si Si2 0.412878 0.796627 0.022717
Si Si3 0.549404 0.499846 0.426224
Si Si4 0.619191 0.702735 0.379409
Si Si5 0.785324 0.858459 0.923517
Si Si6 0.500000 0.250000 0.748367
O O1 0.892568 0.500000 0.250000
O O2 0.841598 0.574540 0.373981
O O3 0.988304 0.510235 0.360369
O O4 0.955429 0.666616 0.294991
O O5 0.500000 0.750000 0.038834
O O6 0.402231 0.899872 0.062524
O O7 0.344142 0.726462 0.050443
O O8 0.404031 0.791216 0.934464
O O9 0.500000 0.500000 0.500000
O O10 0.593158 0.601548 0.417748
O O11 0.713961 0.689146 0.376561
O O12 0.569720 0.710936 0.305376
O O13 0.750000 0.900976 0.000000
#
# Coordination Sequence:
#
# PCOD9532642 Si02
#       6
#    16  16  16  16  16   8
#     4  12  25  43  69 105 139 187 233 288 357 426
#     4  11  19  39  72  99 130 187 242 284 348 413
#     4  12  21  41  74 101 132 184 244 284 343 426
#     4  11  23  43  66 103 144 182 230 302 351 419
#     4  10  23  46  67 102 144 177 239 300 343 412
#     4  12  24  46  72  94 148 190 228 276 366 434
#
# _framework density 20.859843999999999
#
# number of rings (size 3 to 8) (size 9 to 14) (size 15 to 20)
#    0.000    0.727    6.364    2.182    0.000    0.727 
#    6.545    6.364    0.000    0.000    0.000    0.000 
#    0.000    0.000    0.000    0.000    0.000    0.000 
#
# Total GULP energy -245789.623056 kJ/mol
# GULP energy per Si atom -5586.127797 kJ/mol
# Density = 2.081237 g / cm^3
# Si number density = 20.859844 Si / 1000 Ang^3
#
#
#
# Elastic Constant Matrix: (Units=GPa)
#
#
# Indices 1 2 3 4 5 6 
#
# 1 113.0031 22.5667 32.4765 0.0000 0.0000 0.0000
# 2 22.5667 62.7077 26.0551 0.0000 0.0000 0.0000
# 3 32.4765 26.0551 90.6302 0.0000 0.0000 0.0000
# 4 0.0000 0.0000 0.0000 27.4411 0.0000 0.0000
# 5 0.0000 0.0000 0.0000 0.0000 39.7453 0.0000
# 6 0.0000 0.0000 0.0000 0.0000 0.0000 21.9384
#
#
#
# Elastic Compliance Matrix: (Units=1/GPa)
#
#
# Indices 1 2 3 4 5 6 
#
# 1 0.010184 -0.002440 -0.002948 0.000000 0.000000 0.000000
# 2 -0.002440 0.018695 -0.004500 0.000000 0.000000 0.000000
# 3 -0.002948 -0.004500 0.013384 0.000000 0.000000 0.000000
# 4 0.000000 0.000000 0.000000 0.036442 0.000000 0.000000
# 5 0.000000 0.000000 0.000000 0.000000 0.025160 0.000000
# 6 0.000000 0.000000 0.000000 0.000000 0.000000 0.045582
#
#
# Mechanical properties :
#
#
# Convention : Reuss Voigt Hill
#
# Bulk Modulus (GPa) = 44.47097 47.61528 46.04312
# Shear Modulus (GPa) = 28.29362 30.17447 29.23404
#
# Velocity S-wave (km/s) = 3.68688 3.80746 3.74766
# Velocity P-wave (km/s) = 6.28406 6.49652 6.39117
#
# Compressibility (1/GPa) = 0.02248658
#
# Stress axis : x y z
#
# Youngs Moduli (GPa) = 98.19547 53.49042 74.71660
#
# Poissons Ratio (x) = 0.13052 0.22025
# Poissons Ratio (y) = 0.23960 0.33624
# Poissons Ratio (z) = 0.28946 0.24072
#
# Static dielectric constant tensor:
#      x y z
#    x 1.721940 0.000000 0.000000 
#    y 0.000000 1.513040 0.000000 
#    z 0.000000 0.000000 1.795040 
# 
# From -- ./inp_files/22453.got.cif
#   From: 2010.05.17/outbox.cif.g08.bks.cpg/sg73_12_cif.got.tgz:22453.got - 2010.06.03 17:35:07.
