data_PCOD9532797
_publ_section_title
;
Structure prediction by ZEFSAII (Michael W. Deem and Ramdas Pophale) SiO2 
 PCOD9532797
Probable space group: I B C A 
;
_chemical_formula_sum "Si O2"
_cell_formula_units_Z 120
_cell_length_a 24.588815
_cell_length_b 8.951345
_cell_length_c 25.485653
_cell_angle_alpha 90.000000
_cell_angle_beta 90.000000
_cell_angle_gamma 90.000000
_cell_volume 5609.467821
_symmetry_space_group_name_H-M "I B C A "
_symmetry_group_IT_number 73
_symmetry_cell_setting 'orthorhombic'
loop_
_space_group_symop_operation_xyz
x,y,z
-x,1/2-y,z
x,-y,1/2-z
1/2-x,y,-z
-x,-y,-z
x,1/2+y,-z
-x,y,1/2+z
1/2+x,-y,z
1/2+x,1/2+y,1/2+z
1/2-x,-y,1/2+z
1/2+x,1/2-y,-z
-x,1/2+y,1/2-z
1/2-x,1/2-y,1/2-z
1/2+x,y,1/2-z
1/2-x,1/2+y,z
x,1/2-y,1/2+z
loop_
_atom_site_type_symbol
_atom_site_label
_atom_site_fract_x
_atom_site_fract_y
_atom_site_fract_z
Si Si1 0.594894 0.595310 0.115974
Si Si2 0.170491 0.339930 0.617345
Si Si3 0.287030 0.500000 0.750000
Si Si4 0.524119 0.609047 0.212149
Si Si5 0.763443 0.105246 0.857054
Si Si6 0.923233 0.459601 0.344213
Si Si7 0.498379 0.571772 0.442821
Si Si8 0.144494 0.820210 0.677000
O O1 0.626027 0.732266 0.087607
O O2 0.559551 0.663748 0.163630
O O3 0.551896 0.500515 0.083188
O O4 0.631255 0.470648 0.145327
O O5 0.213563 0.474293 0.604441
O O6 0.210456 0.205597 0.633147
O O7 0.129961 0.432958 0.656036
O O8 0.249389 0.467216 0.800193
O O9 0.326656 0.634882 0.768268
O O10 0.500000 0.750000 0.240992
O O11 0.556757 0.500000 0.250000
O O12 0.473219 0.517017 0.190073
O O13 0.810543 0.226973 0.854104
O O14 0.947288 0.459155 0.403771
O O15 0.905454 0.295360 0.324285
O O16 0.500000 0.750000 0.446737
O O17 0.500000 0.500000 0.500000
#
# Coordination Sequence:
#
# PCOD9532797 Si02
#       8
#    16  16   8  16  16  16  16  16
#     4  11  23  41  62  89 130 170 212 264 335 399
#     4  11  21  40  61  86 123 172 219 269 331 377
#     4  12  22  36  58  88 134 174 244 276 316 362
#     4  11  25  38  53  82 122 172 222 261 311 387
#     4  11  23  37  56  88 125 172 228 287 317 363
#     4  10  24  43  62  89 132 171 218 271 334 400
#     4  11  25  44  73 105 135 161 210 279 345 413
#     4  11  23  38  58  84 126 177 217 274 322 381
#
# _framework density 21.392403000000002
#
# number of rings (size 3 to 8) (size 9 to 14) (size 15 to 20)
#    0.000    1.067    5.333    0.400    4.667    1.067 
#    2.400    0.000    0.000    0.000    0.000   15.867 
#    0.000    0.000    0.000    0.000    0.000    0.000 
#
# Total GULP energy -334063.218950 kJ/mol
# GULP energy per Si atom -5567.720316 kJ/mol
# Density = 2.134371 g / cm^3
# Si number density = 21.392403 Si / 1000 Ang^3
#
#
#
# Elastic Constant Matrix: (Units=GPa)
#
#
# Indices 1 2 3 4 5 6 
#
# 1 95.3308 50.1515 19.8328 0.0000 0.0000 0.0000
# 2 50.1515 147.1310 16.8361 0.0000 0.0000 0.0000
# 3 19.8328 16.8361 46.6935 0.0000 0.0000 0.0000
# 4 0.0000 0.0000 0.0000 20.3205 0.0000 0.0000
# 5 0.0000 0.0000 0.0000 0.0000 9.2055 0.0000
# 6 0.0000 0.0000 0.0000 0.0000 0.0000 56.5256
#
#
#
# Elastic Compliance Matrix: (Units=1/GPa)
#
#
# Indices 1 2 3 4 5 6 
#
# 1 0.013550 -0.004131 -0.004266 0.000000 0.000000 0.000000
# 2 -0.004131 0.008348 -0.001256 0.000000 0.000000 0.000000
# 3 -0.004266 -0.001256 0.023681 0.000000 0.000000 0.000000
# 4 0.000000 0.000000 0.000000 0.049211 0.000000 0.000000
# 5 0.000000 0.000000 0.000000 0.000000 0.108631 0.000000
# 6 0.000000 0.000000 0.000000 0.000000 0.000000 0.017691
#
#
# Mechanical properties :
#
#
# Convention : Reuss Voigt Hill
#
# Bulk Modulus (GPa) = 38.05911 51.42180 44.74045
# Shear Modulus (GPa) = 20.06610 30.69930 25.38270
#
# Velocity S-wave (km/s) = 3.06600 3.79232 3.44834
# Velocity P-wave (km/s) = 5.51030 6.57763 6.06748
#
# Compressibility (1/GPa) = 0.02627492
#
# Stress axis : x y z
#
# Youngs Moduli (GPa) = 73.79879 119.78436 42.22799
#
# Poissons Ratio (x) = 0.49479 0.18015
# Poissons Ratio (y) = 0.30484 0.05302
# Poissons Ratio (z) = 0.31483 0.15041
#
# Static dielectric constant tensor:
#      x y z
#    x 1.873450 0.000000 0.000000 
#    y 0.000000 1.834910 0.000000 
#    z 0.000000 0.000000 1.802760 
# 
# From -- ./inp_files/32998.got.cif
#   From: 2010.05.17/outbox.cif.g08.bks.cpg/sg73_17_cif.got.tgz:32998.got - 2010.06.03 17:35:07.
