data_PCOD9532852
_publ_section_title
;
Structure prediction by ZEFSAII (Michael W. Deem and Ramdas Pophale) SiO2 
 PCOD9532852
Probable space group: I B C A 
;
_chemical_formula_sum "Si O2"
_cell_formula_units_Z 88
_cell_length_a 21.267441
_cell_length_b 11.003077
_cell_length_c 15.719381
_cell_angle_alpha 90.000000
_cell_angle_beta 90.000000
_cell_angle_gamma 90.000000
_cell_volume 3678.449763
_symmetry_space_group_name_H-M "I B C A "
_symmetry_group_IT_number 73
_symmetry_cell_setting 'orthorhombic'
loop_
_space_group_symop_operation_xyz
x,y,z
-x,1/2-y,z
x,-y,1/2-z
1/2-x,y,-z
-x,-y,-z
x,1/2+y,-z
-x,y,1/2+z
1/2+x,-y,z
1/2+x,1/2+y,1/2+z
1/2-x,-y,1/2+z
1/2+x,1/2-y,-z
-x,1/2+y,1/2-z
1/2-x,1/2-y,1/2-z
1/2+x,y,1/2-z
1/2-x,1/2+y,z
x,1/2-y,1/2+z
loop_
_atom_site_type_symbol
_atom_site_label
_atom_site_fract_x
_atom_site_fract_y
_atom_site_fract_z
Si Si1 0.071219 0.500000 0.750000
Si Si2 0.352736 0.740615 0.310055
Si Si3 0.770212 0.898279 0.311119
Si Si4 0.644013 0.431345 0.449568
Si Si5 0.114259 0.680011 0.007464
Si Si6 0.998700 0.086473 0.082365
O O1 0.109601 0.622989 0.724697
O O2 0.029640 0.535332 0.831961
O O3 0.284071 0.692383 0.338784
O O4 0.328903 0.831376 0.235805
O O5 0.389759 0.802480 0.389390
O O6 0.799816 0.967113 0.389401
O O7 0.742247 0.000000 0.250000
O O8 0.655359 0.295964 0.482791
O O9 0.638464 0.544792 0.513186
O O10 0.576520 0.415767 0.403456
O O11 0.049633 0.685585 0.953588
O O12 0.000000 0.000000 0.000000
#
# Coordination Sequence:
#
# PCOD9532852 Si02
#       6
#     8  16  16  16  16  16
#     4  12  24  44  72 108 146 194 252 306 384 466
#     4  11  24  42  71 103 143 195 242 311 381 446
#     4  11  23  45  69 101 142 188 251 306 367 455
#     4  11  24  44  70 101 141 191 241 304 376 446
#     4  11  23  44  68 102 146 187 240 309 375 455
#     4  10  24  44  71 107 149 190 247 310 379 459
#
# _framework density 23.923120000000001
#
# number of rings (size 3 to 8) (size 9 to 14) (size 15 to 20)
#    0.000    1.091    2.727    3.818    1.273    2.182 
#    0.000    7.273    0.000    0.000    0.000    0.000 
#    0.000    0.000    0.000    0.000    0.000    0.000 
#
# Total GULP energy -245127.676888 kJ/mol
# GULP energy per Si atom -5571.083566 kJ/mol
# Density = 2.386867 g / cm^3
# Si number density = 23.923120 Si / 1000 Ang^3
#
#
#
# Elastic Constant Matrix: (Units=GPa)
#
#
# Indices 1 2 3 4 5 6 
#
# 1 49.5206 9.5968 43.6717 0.0000 0.0000 0.0000
# 2 9.5968 96.6643 0.5577 0.0000 0.0000 0.0000
# 3 43.6717 0.5577 95.9082 0.0000 0.0000 0.0000
# 4 0.0000 0.0000 0.0000 33.4446 0.0000 0.0000
# 5 0.0000 0.0000 0.0000 0.0000 18.3673 0.0000
# 6 0.0000 0.0000 0.0000 0.0000 0.0000 21.1525
#
#
#
# Elastic Compliance Matrix: (Units=1/GPa)
#
#
# Indices 1 2 3 4 5 6 
#
# 1 0.034805 -0.003364 -0.015829 0.000000 0.000000 0.000000
# 2 -0.003364 0.010671 0.001470 0.000000 0.000000 0.000000
# 3 -0.015829 0.001470 0.017626 0.000000 0.000000 0.000000
# 4 0.000000 0.000000 0.000000 0.029900 0.000000 0.000000
# 5 0.000000 0.000000 0.000000 0.000000 0.054444 0.000000
# 6 0.000000 0.000000 0.000000 0.000000 0.000000 0.047276
#
#
# Mechanical properties :
#
#
# Convention : Reuss Voigt Hill
#
# Bulk Modulus (GPa) = 36.15989 38.86060 37.51024
# Shear Modulus (GPa) = 20.88677 27.14401 24.01539
#
# Velocity S-wave (km/s) = 2.95800 3.37209 3.17181
# Velocity P-wave (km/s) = 5.17824 5.60719 5.39698
#
# Compressibility (1/GPa) = 0.02765495
#
# Stress axis : x y z
#
# Youngs Moduli (GPa) = 28.73167 93.71563 56.73526
#
# Poissons Ratio (x) = 0.31527 0.89805
# Poissons Ratio (y) = 0.09666 -0.08339
# Poissons Ratio (z) = 0.45479 -0.13774
#
# Static dielectric constant tensor:
#      x y z
#    x 1.826580 0.000000 0.000000 
#    y 0.000000 2.116890 0.000000 
#    z 0.000000 0.000000 1.905820 
# 
# From -- ./inp_files/19750.got.cif
#   From: 2010.05.17/outbox.cif.g08.bks.cpg/sg73_10_cif.got.tgz:19750.got - 2010.06.03 17:35:07.
