data_PCOD9532893
_publ_section_title
;
Structure prediction by ZEFSAII (Michael W. Deem and Ramdas Pophale) SiO2 
 PCOD9532893
Probable space group: I B C A 
;
_chemical_formula_sum "Si O2"
_cell_formula_units_Z 112
_cell_length_a 10.425666
_cell_length_b 34.397163
_cell_length_c 14.483833
_cell_angle_alpha 90.000000
_cell_angle_beta 90.000000
_cell_angle_gamma 90.000000
_cell_volume 5194.095624
_symmetry_space_group_name_H-M "I B C A "
_symmetry_group_IT_number 73
_symmetry_cell_setting 'orthorhombic'
loop_
_space_group_symop_operation_xyz
x,y,z
-x,1/2-y,z
x,-y,1/2-z
1/2-x,y,-z
-x,-y,-z
x,1/2+y,-z
-x,y,1/2+z
1/2+x,-y,z
1/2+x,1/2+y,1/2+z
1/2-x,-y,1/2+z
1/2+x,1/2-y,-z
-x,1/2+y,1/2-z
1/2-x,1/2-y,1/2-z
1/2+x,y,1/2-z
1/2-x,1/2+y,z
x,1/2-y,1/2+z
loop_
_atom_site_type_symbol
_atom_site_label
_atom_site_fract_x
_atom_site_fract_y
_atom_site_fract_z
Si Si1 0.250000 0.571798 0.500000
Si Si2 0.623219 0.307431 0.875267
Si Si3 0.769990 0.539128 0.197013
Si Si4 0.115688 0.356222 0.370483
Si Si5 0.000321 0.879927 0.452430
Si Si6 0.514906 0.081531 0.764729
Si Si7 0.416437 0.711408 0.340234
Si Si8 0.250000 0.243598 0.500000
O O1 0.242936 0.543155 0.587331
O O2 0.131737 0.601689 0.488373
O O3 0.749999 0.334425 0.873638
O O4 0.509994 0.335805 0.911445
O O5 0.613185 0.293466 0.769070
O O6 0.649461 0.272691 0.947901
O O7 0.808366 0.500000 0.250000
O O8 0.628597 0.550233 0.233759
O O9 0.885483 0.569317 0.214817
O O10 0.086611 0.381929 0.281514
O O11 0.097210 0.381249 0.462373
O O12 0.002618 0.324589 0.370763
O O13 0.031366 0.907049 0.366245
O O14 0.500000 0.750000 0.346974
O O15 0.305269 0.718252 0.415412
#
# Coordination Sequence:
#
# PCOD9532893 Si02
#       8
#     8  16  16  16  16  16  16   8
#     4  10  24  45  76 111 140 186 244 284 348 433
#     4  12  24  45  70  99 139 188 240 305 364 430
#     4  11  24  48  73 108 151 188 232 291 357 432
#     4  12  24  43  69 101 139 182 244 294 361 424
#     4  11  22  43  70 101 137 180 236 299 345 417
#     4  11  24  44  73 107 143 189 238 296 354 425
#     4  12  27  46  68 101 139 192 238 304 369 430
#     4  12  26  45  64  97 142 182 246 298 366 439
#
# _framework density 21.562944000000002
#
# number of rings (size 3 to 8) (size 9 to 14) (size 15 to 20)
#    0.000    0.571    5.714    1.714    0.000    3.429 
#    2.571    2.143    0.000    0.000    0.000    0.000 
#    0.000    0.000    0.000    0.000    0.000    0.000 
#
# Total GULP energy -312773.242030 kJ/mol
# GULP energy per Si atom -5585.236465 kJ/mol
# Density = 2.151387 g / cm^3
# Si number density = 21.562944 Si / 1000 Ang^3
#
#
#
# Elastic Constant Matrix: (Units=GPa)
#
#
# Indices 1 2 3 4 5 6 
#
# 1 52.3271 16.0004 39.0838 0.0002 -0.0001 -0.0001
# 2 16.0004 58.7865 15.3865 0.0003 -0.0001 -0.0001
# 3 39.0838 15.3865 110.2230 0.0005 -0.0002 -0.0004
# 4 0.0002 0.0003 0.0005 21.7562 -0.0001 -0.0002
# 5 -0.0001 -0.0001 -0.0002 -0.0001 33.0202 0.0002
# 6 -0.0001 -0.0001 -0.0004 -0.0002 0.0002 16.5279
#
#
#
# Elastic Compliance Matrix: (Units=1/GPa)
#
#
# Indices 1 2 3 4 5 6 
#
# 1 0.027393 -0.005100 -0.009001 0.000000 0.000000 0.000000
# 2 -0.005100 0.018605 -0.000789 0.000000 0.000000 0.000000
# 3 -0.009001 -0.000789 0.012374 0.000000 0.000000 0.000000
# 4 0.000000 0.000000 0.000000 0.045964 0.000000 0.000001
# 5 0.000000 0.000000 0.000000 0.000000 0.030284 0.000000
# 6 0.000000 0.000000 0.000000 0.000001 0.000000 0.060504
#
#
# Mechanical properties :
#
#
# Convention : Reuss Voigt Hill
#
# Bulk Modulus (GPa) = 34.97395 40.25310 37.61353
# Shear Modulus (GPa) = 21.32779 24.31861 22.82320
#
# Velocity S-wave (km/s) = 3.14840 3.36191 3.25691
# Velocity P-wave (km/s) = 5.42874 5.81190 5.62358
#
# Compressibility (1/GPa) = 0.02859271
#
# Stress axis : x y z
#
# Youngs Moduli (GPa) = 36.50542 53.74829 80.81185
#
# Poissons Ratio (x) = 0.27411 0.72742
# Poissons Ratio (y) = 0.18617 0.06375
# Poissons Ratio (z) = 0.32860 0.04240
#
# Static dielectric constant tensor:
#      x y z
#    x 2.034630 0.000000 0.000000 
#    y 0.000000 1.723970 0.000000 
#    z 0.000000 0.000000 1.793130 
# 
# From -- ./inp_files/16387.got.cif
#   From: 2010.05.17/outbox.cif.g08.bks.cpg/sg73_9_cif.got.tgz:16387.got - 2010.06.03 17:35:07.
