data_PCOD9532096
_publ_section_title
;
Structure prediction by ZEFSAII (Michael W. Deem and Ramdas Pophale) SiO2 
 PCOD9532096
Probable space group: I B C A 
;
_chemical_formula_sum "Si O2"
_cell_formula_units_Z 104
_cell_length_a 9.802250
_cell_length_b 24.362236
_cell_length_c 21.055906
_cell_angle_alpha 90.000000
_cell_angle_beta 90.000000
_cell_angle_gamma 90.000000
_cell_volume 5028.249902
_symmetry_space_group_name_H-M "I B C A "
_symmetry_group_IT_number 73
_symmetry_cell_setting 'orthorhombic'
loop_
_space_group_symop_operation_xyz
x,y,z
-x,1/2-y,z
x,-y,1/2-z
1/2-x,y,-z
-x,-y,-z
x,1/2+y,-z
-x,y,1/2+z
1/2+x,-y,z
1/2+x,1/2+y,1/2+z
1/2-x,-y,1/2+z
1/2+x,1/2-y,-z
-x,1/2+y,1/2-z
1/2-x,1/2-y,1/2-z
1/2+x,y,1/2-z
1/2-x,1/2+y,z
x,1/2-y,1/2+z
loop_
_atom_site_type_symbol
_atom_site_label
_atom_site_fract_x
_atom_site_fract_y
_atom_site_fract_z
Si Si1 0.802232 0.161239 0.804095
Si Si2 0.680127 0.044050 0.127318
Si Si3 0.750000 0.905830 0.500000
Si Si4 0.802229 0.196259 0.566405
Si Si5 0.599702 0.527357 0.318669
Si Si6 0.392577 0.184439 0.417303
Si Si7 0.378395 0.659723 0.818665
O O1 0.797026 0.097686 0.828075
O O2 0.701691 0.188375 0.855167
O O3 0.729061 0.171866 0.737395
O O4 0.963012 0.176885 0.806553
O O5 0.551719 0.015040 0.158331
O O6 0.803153 0.002601 0.132457
O O7 0.667340 0.061934 0.054214
O O8 0.652165 0.866189 0.539814
O O9 0.750000 0.171194 0.500000
O O10 0.851006 0.258342 0.550117
O O11 0.683313 0.186381 0.617631
O O12 0.946945 0.175711 0.594973
O O13 0.624041 0.500000 0.250000
O O14 0.618139 0.592982 0.320993
#
# Coordination Sequence:
#
# PCOD9532096 Si02
#       7
#    16  16   8  16  16  16  16
#     4  10  22  41  66  95 126 173 209 279 322 391
#     4  10  23  38  64  89 128 166 214 261 322 386
#     4  10  22  44  64  92 122 172 212 262 330 380
#     4  11  25  41  66  99 127 175 215 266 323 398
#     4  11  22  39  62  94 128 171 214 269 322 387
#     4  10  23  43  68  89 133 168 218 264 330 389
#     4  11  24  40  66  97 131 165 224 265 331 386
#
# _framework density 20.683142
#
# number of rings (size 3 to 8) (size 9 to 14) (size 15 to 20)
#    0.000    1.538    2.308    1.385    8.615    4.308 
#    1.385    0.000    0.000    0.000    0.000    0.000 
#    0.000    0.000    0.000    0.000    0.000    0.000 
#
# Total GULP energy -289924.803494 kJ/mol
# GULP energy per Si atom -5575.476990 kJ/mol
# Density = 2.063607 g / cm^3
# Si number density = 20.683142 Si / 1000 Ang^3
#
#
#
# Elastic Constant Matrix: (Units=GPa)
#
#
# Indices 1 2 3 4 5 6 
#
# 1 121.6340 -1.3810 35.7382 0.0000 0.0000 0.0000
# 2 -1.3810 17.5706 -2.5827 0.0000 0.0000 0.0000
# 3 35.7382 -2.5827 124.6118 0.0000 0.0000 0.0000
# 4 0.0000 0.0000 0.0000 42.0216 0.0000 0.0000
# 5 0.0000 0.0000 0.0000 0.0000 -115.0689 0.0000
# 6 0.0000 0.0000 0.0000 0.0000 0.0000 23.7903
#
#
#
# Elastic Compliance Matrix: (Units=1/GPa)
#
#
# Indices 1 2 3 4 5 6 
#
# 1 0.008980 0.000328 -0.002569 0.000000 0.000000 0.000000
# 2 0.000328 0.057099 0.001089 0.000000 0.000000 0.000000
# 3 -0.002569 0.001089 0.008784 0.000000 0.000000 0.000000
# 4 0.000000 0.000000 0.000000 0.023797 0.000000 0.000000
# 5 0.000000 0.000000 0.000000 0.000000 -0.008690 0.000000
# 6 0.000000 0.000000 0.000000 0.000000 0.000000 0.042034
#
#
# Mechanical properties :
#
#
# Convention : Reuss Voigt Hill
#
# Bulk Modulus (GPa) = 13.78150 36.37393 25.07771
# Shear Modulus (GPa) = 31.54712 5.61806 18.58259
#
# Velocity S-wave (km/s) = 3.90969 1.64989 3.00065
# Velocity P-wave (km/s) = 5.20178 4.61020 4.91490
#
# Compressibility (1/GPa) = 0.07256107
#
# Stress axis : x y z
#
# Youngs Moduli (GPa) = 111.36102 17.51338 113.84134
#
# Poissons Ratio (x) = -0.00575 0.29241
# Poissons Ratio (y) = -0.03655 -0.12401
# Poissons Ratio (z) = 0.28604 -0.01908
#
# Static dielectric constant tensor:
#      x y z
#    x 1.742910 0.000000 0.000000 
#    y 0.000000 1.815110 0.000000 
#    z 0.000000 0.000000 1.748380 
# 
# From -- ./inp_files/24958.got.cif
#   From: 2010.05.17/outbox.cif.g08.bks.cpg/sg73_13_cif.got.tgz:24958.got - 2010.06.03 17:35:07.
