data_PCOD9532864
_publ_section_title
;
Structure prediction by ZEFSAII (Michael W. Deem and Ramdas Pophale) SiO2 
 PCOD9532864
Probable space group: I B C A 
;
_chemical_formula_sum "Si O2"
_cell_formula_units_Z 88
_cell_length_a 15.101252
_cell_length_b 20.867923
_cell_length_c 13.696115
_cell_angle_alpha 90.000000
_cell_angle_beta 90.000000
_cell_angle_gamma 90.000000
_cell_volume 4316.080879
_symmetry_space_group_name_H-M "I B C A "
_symmetry_group_IT_number 73
_symmetry_cell_setting 'orthorhombic'
loop_
_space_group_symop_operation_xyz
x,y,z
-x,1/2-y,z
x,-y,1/2-z
1/2-x,y,-z
-x,-y,-z
x,1/2+y,-z
-x,y,1/2+z
1/2+x,-y,z
1/2+x,1/2+y,1/2+z
1/2-x,-y,1/2+z
1/2+x,1/2-y,-z
-x,1/2+y,1/2-z
1/2-x,1/2-y,1/2-z
1/2+x,y,1/2-z
1/2-x,1/2+y,z
x,1/2-y,1/2+z
loop_
_atom_site_type_symbol
_atom_site_label
_atom_site_fract_x
_atom_site_fract_y
_atom_site_fract_z
Si Si1 0.697173 0.500000 0.750000
Si Si2 0.487183 0.576619 0.509787
Si Si3 0.614225 0.374886 0.830922
Si Si4 0.285612 0.819829 0.274762
Si Si5 0.009881 0.323369 0.336906
Si Si6 0.297835 0.918637 0.102760
O O1 0.634454 0.441294 0.776103
O O2 0.760319 0.480633 0.659744
O O3 0.500000 0.500000 0.500000
O O4 0.566340 0.608434 0.569678
O O5 0.481304 0.620019 0.411864
O O6 0.400586 0.581836 0.577278
O O7 0.711226 0.346007 0.848062
O O8 0.552169 0.332409 0.759334
O O9 0.250000 0.750000 0.250000
O O10 0.385990 0.828153 0.310286
O O11 0.277081 0.861142 0.176074
O O12 0.000000 0.250000 0.374943
O O13 0.250000 0.912327 0.000000
#
# Coordination Sequence:
#
# PCOD9532864 Si02
#       6
#     8  16  16  16  16  16
#     4  10  24  44  72  98 144 182 240 296 360 428
#     4  12  27  43  71 105 145 185 241 297 361 439
#     4  11  23  46  68 100 137 185 236 295 357 430
#     4  11  24  45  72  99 141 190 242 303 362 432
#     4  12  26  46  71 103 144 190 243 300 371 434
#     4  11  24  44  70 105 137 189 240 297 360 433
#
# _framework density 20.388867999999999
#
# number of rings (size 3 to 8) (size 9 to 14) (size 15 to 20)
#    0.000    0.727    3.636    4.364    5.091    3.636 
#    0.000    0.000    0.000    0.000    0.000    0.000 
#    0.000    0.000    0.000    0.000    0.000    0.000 
#
# Total GULP energy -245683.520811 kJ/mol
# GULP energy per Si atom -5583.716382 kJ/mol
# Density = 2.034246 g / cm^3
# Si number density = 20.388868 Si / 1000 Ang^3
#
#
#
# Elastic Constant Matrix: (Units=GPa)
#
#
# Indices 1 2 3 4 5 6 
#
# 1 109.9987 9.5417 25.9104 0.0000 0.0000 0.0000
# 2 9.5417 107.5675 21.5525 0.0000 0.0000 0.0000
# 3 25.9104 21.5525 88.7760 0.0000 0.0000 0.0000
# 4 0.0000 0.0000 0.0000 22.7802 0.0000 0.0000
# 5 0.0000 0.0000 0.0000 0.0000 46.2297 0.0000
# 6 0.0000 0.0000 0.0000 0.0000 0.0000 40.4294
#
#
#
# Elastic Compliance Matrix: (Units=1/GPa)
#
#
# Indices 1 2 3 4 5 6 
#
# 1 0.009772 -0.000310 -0.002777 0.000000 0.000000 0.000000
# 2 -0.000310 0.009782 -0.002284 0.000000 0.000000 0.000000
# 3 -0.002777 -0.002284 0.012629 0.000000 0.000000 0.000000
# 4 0.000000 0.000000 0.000000 0.043898 0.000000 0.000000
# 5 0.000000 0.000000 0.000000 0.000000 0.021631 0.000000
# 6 0.000000 0.000000 0.000000 0.000000 0.000000 0.024734
#
#
# Mechanical properties :
#
#
# Convention : Reuss Voigt Hill
#
# Bulk Modulus (GPa) = 46.64108 46.70572 46.67340
# Shear Modulus (GPa) = 35.62887 38.51037 37.06962
#
# Velocity S-wave (km/s) = 4.18481 4.35074 4.26858
# Velocity P-wave (km/s) = 6.80261 6.94232 6.87282
#
# Compressibility (1/GPa) = 0.02144033
#
# Stress axis : x y z
#
# Youngs Moduli (GPa) = 102.33319 102.23188 79.18133
#
# Poissons Ratio (x) = 0.03174 0.21986
# Poissons Ratio (y) = 0.03177 0.18086
# Poissons Ratio (z) = 0.28415 0.23351
#
# Static dielectric constant tensor:
#      x y z
#    x 1.854230 0.000000 0.000000 
#    y 0.000000 1.783560 0.000000 
#    z 0.000000 0.000000 2.245110 
# 
# From -- ./inp_files/10983.got.cif
#   From: 2010.05.17/outbox.cif.g08.bks.cpg/sg73_6_cif.got.tgz:10983.got - 2010.06.03 17:35:07.
