data_PCOD9532798
_publ_section_title
;
Structure prediction by ZEFSAII (Michael W. Deem and Ramdas Pophale) SiO2 
 PCOD9532798
Probable space group: I B C A 
;
_chemical_formula_sum "Si O2"
_cell_formula_units_Z 88
_cell_length_a 14.256757
_cell_length_b 14.609816
_cell_length_c 17.446816
_cell_angle_alpha 90.000000
_cell_angle_beta 90.000000
_cell_angle_gamma 90.000000
_cell_volume 3633.972818
_symmetry_space_group_name_H-M "I B C A "
_symmetry_group_IT_number 73
_symmetry_cell_setting 'orthorhombic'
loop_
_space_group_symop_operation_xyz
x,y,z
-x,1/2-y,z
x,-y,1/2-z
1/2-x,y,-z
-x,-y,-z
x,1/2+y,-z
-x,y,1/2+z
1/2+x,-y,z
1/2+x,1/2+y,1/2+z
1/2-x,-y,1/2+z
1/2+x,1/2-y,-z
-x,1/2+y,1/2-z
1/2-x,1/2-y,1/2-z
1/2+x,y,1/2-z
1/2-x,1/2+y,z
x,1/2-y,1/2+z
loop_
_atom_site_type_symbol
_atom_site_label
_atom_site_fract_x
_atom_site_fract_y
_atom_site_fract_z
Si Si1 0.428299 0.822352 0.313938
Si Si2 0.750758 0.141304 0.750328
Si Si3 0.081803 0.957190 0.167663
Si Si4 0.315532 0.914312 0.582679
Si Si5 0.250000 0.421358 0.000000
Si Si6 0.388080 0.751351 0.977259
O O1 0.500000 0.750000 0.274564
O O2 0.360455 0.875155 0.255601
O O3 0.500007 0.889883 0.353715
O O4 0.376534 0.775571 0.386930
O O5 0.750000 0.250000 0.750000
O O6 0.819752 0.095448 0.811487
O O7 0.790972 0.115916 0.667857
O O8 0.057130 0.000000 0.250000
O O9 0.091445 0.027373 0.098603
O O10 0.339252 0.829027 0.528172
O O11 0.241747 0.997045 0.563721
O O12 0.163566 0.349227 0.992651
O O13 0.500000 0.750000 0.993279
#
# Coordination Sequence:
#
# PCOD9532798 Si02
#       6
#    16  16  16  16   8  16
#     4  11  21  41  70  95 133 181 229 285 355 408
#     4  11  23  42  71  98 135 188 233 279 355 420
#     4  10  24  43  64 101 140 181 232 295 346 427
#     4  11  25  45  67 104 145 179 240 288 351 427
#     4  12  24  44  74  98 146 186 236 298 352 418
#     4  11  26  45  75 108 139 189 237 296 357 421
#
# _framework density 24.215920000000001
#
# number of rings (size 3 to 8) (size 9 to 14) (size 15 to 20)
#    0.000    1.091    1.818    4.909    2.545    6.545 
#    6.545    0.000    0.000    0.000    0.000    0.000 
#    0.000    0.000    0.000    0.000    0.000    0.000 
#
# Total GULP energy -245041.503046 kJ/mol
# GULP energy per Si atom -5569.125069 kJ/mol
# Density = 2.416080 g / cm^3
# Si number density = 24.215920 Si / 1000 Ang^3
#
#
#
# Elastic Constant Matrix: (Units=GPa)
#
#
# Indices 1 2 3 4 5 6 
#
# 1 92.0198 21.5819 5.1625 0.0000 0.0000 0.0000
# 2 21.5819 153.6075 37.2794 0.0000 0.0000 0.0000
# 3 5.1625 37.2794 61.7774 0.0000 0.0000 0.0000
# 4 0.0000 0.0000 0.0000 30.9410 0.0000 0.0000
# 5 0.0000 0.0000 0.0000 0.0000 8.4013 0.0000
# 6 0.0000 0.0000 0.0000 0.0000 0.0000 37.2979
#
#
#
# Elastic Compliance Matrix: (Units=1/GPa)
#
#
# Indices 1 2 3 4 5 6 
#
# 1 0.011238 -0.001583 0.000016 0.000000 0.000000 0.000000
# 2 -0.001583 0.007850 -0.004605 0.000000 0.000000 0.000000
# 3 0.000016 -0.004605 0.018965 0.000000 0.000000 0.000000
# 4 0.000000 0.000000 0.000000 0.032320 0.000000 0.000000
# 5 0.000000 0.000000 0.000000 0.000000 0.119029 0.000000
# 6 0.000000 0.000000 0.000000 0.000000 0.000000 0.026811
#
#
# Mechanical properties :
#
#
# Convention : Reuss Voigt Hill
#
# Bulk Modulus (GPa) = 38.89678 48.38358 43.64018
# Shear Modulus (GPa) = 21.08598 31.55343 26.31971
#
# Velocity S-wave (km/s) = 2.95405 3.61363 3.30036
# Velocity P-wave (km/s) = 5.26617 6.11838 5.70820
#
# Compressibility (1/GPa) = 0.02570907
#
# Stress axis : x y z
#
# Youngs Moduli (GPa) = 88.98748 127.38796 52.72985
#
# Poissons Ratio (x) = 0.20163 -0.00085
# Poissons Ratio (y) = 0.14085 0.24281
# Poissons Ratio (z) = -0.00143 0.58660
#
# Static dielectric constant tensor:
#      x y z
#    x 1.943420 0.000000 0.000000 
#    y 0.000000 2.151040 0.000000 
#    z 0.000000 0.000000 2.289780 
# 
# From -- ./inp_files/25948.got.cif
#   From: 2010.05.17/outbox.cif.g08.bks.cpg/sg73_13_cif.got.tgz:25948.got - 2010.06.03 17:35:07.
