data_PCOD9532964
_publ_section_title
;
Structure prediction by ZEFSAII (Michael W. Deem and Ramdas Pophale) SiO2 
 PCOD9532964
Probable space group: I B C A 
;
_chemical_formula_sum "Si O2"
_cell_formula_units_Z 112
_cell_length_a 14.495322
_cell_length_b 14.461163
_cell_length_c 26.743016
_cell_angle_alpha 90.000000
_cell_angle_beta 90.000000
_cell_angle_gamma 90.000000
_cell_volume 5605.849999
_symmetry_space_group_name_H-M "I B C A "
_symmetry_group_IT_number 73
_symmetry_cell_setting 'orthorhombic'
loop_
_space_group_symop_operation_xyz
x,y,z
-x,1/2-y,z
x,-y,1/2-z
1/2-x,y,-z
-x,-y,-z
x,1/2+y,-z
-x,y,1/2+z
1/2+x,-y,z
1/2+x,1/2+y,1/2+z
1/2-x,-y,1/2+z
1/2+x,1/2-y,-z
-x,1/2+y,1/2-z
1/2-x,1/2-y,1/2-z
1/2+x,y,1/2-z
1/2-x,1/2+y,z
x,1/2-y,1/2+z
loop_
_atom_site_type_symbol
_atom_site_label
_atom_site_fract_x
_atom_site_fract_y
_atom_site_fract_z
Si Si1 0.150362 0.485636 0.473878
Si Si2 0.992292 0.990495 0.195563
Si Si3 0.507970 0.640094 0.536932
Si Si4 0.744994 0.245711 0.189412
Si Si5 0.175563 0.584829 0.136524
Si Si6 0.809328 0.957353 0.694754
Si Si7 0.931171 0.829340 0.849596
O O1 0.250000 0.504739 0.500000
O O2 0.088030 0.579762 0.465504
O O3 0.172385 0.429949 0.422666
O O4 0.083469 0.417452 0.505444
O O5 0.082862 0.926703 0.194006
O O6 0.914343 0.967991 0.156727
O O7 0.948850 0.000000 0.250000
O O8 0.044764 0.084999 0.184540
O O9 0.500000 0.750000 0.522042
O O10 0.546552 0.643437 0.593556
O O11 0.750000 0.250000 0.250000
O O12 0.670611 0.314231 0.163335
O O13 0.740476 0.137136 0.180591
O O14 0.833862 0.285521 0.161813
O O15 0.266884 0.532362 0.156939
O O16 0.791838 0.000000 0.750000
O O17 0.000000 0.750000 0.834525
#
# Coordination Sequence:
#
# PCOD9532964 Si02
#       7
#    16  16  16  16  16  16  16
#     4  11  25  46  74 102 135 180 233 302 361 426
#     4  11  23  41  64  94 138 178 217 278 337 408
#     4  10  24  48  71 101 138 176 233 294 360 430
#     4  12  24  41  65  98 139 183 225 283 336 415
#     4  12  24  43  69 100 134 179 230 278 353 414
#     4  11  23  43  62  97 142 180 231 280 333 406
#     4  11  22  42  70  94 128 181 230 271 340 414
#
# _framework density 19.979130000000001
#
# number of rings (size 3 to 8) (size 9 to 14) (size 15 to 20)
#    0.000    0.857    4.286    3.000    4.000    1.143 
#    5.143    0.000    0.000    0.000    0.000    0.000 
#    0.000    0.000    0.000    0.000    0.000    0.000 
#
# Total GULP energy -312062.641498 kJ/mol
# GULP energy per Si atom -5572.547170 kJ/mol
# Density = 1.993366 g / cm^3
# Si number density = 19.979130 Si / 1000 Ang^3
#
#
#
# Elastic Constant Matrix: (Units=GPa)
#
#
# Indices 1 2 3 4 5 6 
#
# 1 123.4667 56.7465 -35.2073 0.0000 0.0000 0.0000
# 2 56.7465 166.6992 -124.4282 0.0000 0.0000 0.0000
# 3 -35.2073 -124.4282 284.8247 0.0000 0.0000 0.0000
# 4 0.0000 0.0000 0.0000 43.4350 0.0000 0.0000
# 5 0.0000 0.0000 0.0000 0.0000 33.8948 0.0000
# 6 0.0000 0.0000 0.0000 0.0000 0.0000 22.6523
#
#
#
# Elastic Compliance Matrix: (Units=1/GPa)
#
#
# Indices 1 2 3 4 5 6 
#
# 1 0.009626 -0.003545 -0.000359 0.000000 0.000000 0.000000
# 2 -0.003545 0.010207 0.004021 0.000000 0.000000 0.000000
# 3 -0.000359 0.004021 0.005223 0.000000 0.000000 0.000000
# 4 0.000000 0.000000 0.000000 0.023023 0.000000 0.000000
# 5 0.000000 0.000000 0.000000 0.000000 0.029503 0.000000
# 6 0.000000 0.000000 0.000000 0.000000 0.000000 0.044146
#
#
# Mechanical properties :
#
#
# Convention : Reuss Voigt Hill
#
# Bulk Modulus (GPa) = 39.53961 41.02363 40.28162
# Shear Modulus (GPa) = 38.48446 65.18839 51.83642
#
# Velocity S-wave (km/s) = 4.39365 5.71831 5.09918
# Velocity P-wave (km/s) = 6.75072 8.01103 7.40773
#
# Compressibility (1/GPa) = 0.02529109
#
# Stress axis : x y z
#
# Youngs Moduli (GPa) = 103.88317 97.97618 191.45775
#
# Poissons Ratio (x) = 0.34728 0.06865
# Poissons Ratio (y) = 0.36822 -0.76979
# Poissons Ratio (z) = 0.03725 -0.39393
#
# Static dielectric constant tensor:
#      x y z
#    x 1.674360 0.000000 0.000000 
#    y 0.000000 1.664050 0.000000 
#    z 0.000000 0.000000 1.674860 
# 
# From -- ./inp_files/29538.got.cif
#   From: 2010.05.17/outbox.cif.g08.bks.cpg/sg73_15_cif.got.tgz:29538.got - 2010.06.03 17:35:07.
