data_PCOD9532039
_publ_section_title
;
Structure prediction by ZEFSAII (Michael W. Deem and Ramdas Pophale) SiO2 
 PCOD9532039
Probable space group: I B C A 
;
_chemical_formula_sum "Si O2"
_cell_formula_units_Z 96
_cell_length_a 25.437394
_cell_length_b 8.570598
_cell_length_c 21.190135
_cell_angle_alpha 90.000000
_cell_angle_beta 90.000000
_cell_angle_gamma 90.000000
_cell_volume 4619.739272
_symmetry_space_group_name_H-M "I B C A "
_symmetry_group_IT_number 73
_symmetry_cell_setting 'orthorhombic'
loop_
_space_group_symop_operation_xyz
x,y,z
-x,1/2-y,z
x,-y,1/2-z
1/2-x,y,-z
-x,-y,-z
x,1/2+y,-z
-x,y,1/2+z
1/2+x,-y,z
1/2+x,1/2+y,1/2+z
1/2-x,-y,1/2+z
1/2+x,1/2-y,-z
-x,1/2+y,1/2-z
1/2-x,1/2-y,1/2-z
1/2+x,y,1/2-z
1/2-x,1/2+y,z
x,1/2-y,1/2+z
loop_
_atom_site_type_symbol
_atom_site_label
_atom_site_fract_x
_atom_site_fract_y
_atom_site_fract_z
Si Si1 0.922218 0.000000 0.250000
Si Si2 0.346837 0.650429 0.407667
Si Si3 0.000000 0.750000 0.290413
Si Si4 0.344939 0.620558 0.647142
Si Si5 0.265778 0.382858 0.202866
Si Si6 0.905751 0.058155 0.677578
Si Si7 0.687416 0.961057 0.979008
O O1 0.887580 0.018610 0.186359
O O2 0.959769 0.149403 0.250765
O O3 0.300980 0.659454 0.355615
O O4 0.395879 0.592539 0.366240
O O5 0.337079 0.805038 0.448686
O O6 0.338752 0.509893 0.456120
O O7 0.037024 0.863704 0.330982
O O8 0.290145 0.563257 0.677336
O O9 0.364002 0.799325 0.661837
O O10 0.330832 0.589223 0.573808
O O11 0.293922 0.500000 0.250000
O O12 0.250000 0.250000 0.250000
O O13 0.904549 0.000000 0.750000
O O14 0.750000 0.951103 0.000000
#
# Coordination Sequence:
#
# PCOD9532039 Si02
#       7
#     8  16   8  16  16  16  16
#     4  10  22  40  70 102 132 178 222 302 366 426
#     4  12  26  41  66  93 143 190 240 290 344 428
#     4  10  22  42  74 100 146 166 230 304 386 430
#     4  11  23  40  65  97 139 180 236 282 354 426
#     4  12  23  37  59  94 135 177 221 288 341 415
#     4  11  24  44  70 107 138 180 232 306 371 432
#     4  12  26  44  63  94 142 202 243 281 335 421
#
# _framework density 20.780394999999999
#
# number of rings (size 3 to 8) (size 9 to 14) (size 15 to 20)
#    0.000    0.667    3.333    5.000    7.000    0.000 
#    0.000    0.000    0.000   10.000    0.000    0.000 
#    0.000    0.000    0.000    0.000    0.000    0.000 
#
# Total GULP energy -267452.738440 kJ/mol
# GULP energy per Si atom -5571.932051 kJ/mol
# Density = 2.073310 g / cm^3
# Si number density = 20.780395 Si / 1000 Ang^3
#
#
#
# Elastic Constant Matrix: (Units=GPa)
#
#
# Indices 1 2 3 4 5 6 
#
# 1 99.7297 28.6248 29.0061 0.0000 0.0000 0.0000
# 2 28.6248 95.2423 50.6642 0.0000 0.0000 0.0000
# 3 29.0061 50.6642 145.9546 0.0000 0.0000 0.0000
# 4 0.0000 0.0000 0.0000 51.4951 0.0000 0.0000
# 5 0.0000 0.0000 0.0000 0.0000 -1.7543 0.0000
# 6 0.0000 0.0000 0.0000 0.0000 0.0000 54.8742
#
#
#
# Elastic Compliance Matrix: (Units=1/GPa)
#
#
# Indices 1 2 3 4 5 6 
#
# 1 0.011169 -0.002669 -0.001293 0.000000 0.000000 0.000000
# 2 -0.002669 0.013515 -0.004161 0.000000 0.000000 0.000000
# 3 -0.001293 -0.004161 0.008553 0.000000 0.000000 0.000000
# 4 0.000000 0.000000 0.000000 0.019419 0.000000 0.000000
# 5 0.000000 0.000000 0.000000 0.000000 -0.570015 0.000000
# 6 0.000000 0.000000 0.000000 0.000000 0.000000 0.018223
#
#
# Mechanical properties :
#
#
# Convention : Reuss Voigt Hill
#
# Bulk Modulus (GPa) = 58.85526 61.94632 60.40079
# Shear Modulus (GPa) = -10.47725 36.43178 12.97727
#
# Velocity S-wave (km/s) = -2.24785 4.19164 2.50170
# Velocity P-wave (km/s) = 4.65262 7.30077 6.12160
#
# Compressibility (1/GPa) = 0.01699084
#
# Stress axis : x y z
#
# Youngs Moduli (GPa) = 89.53114 73.99117 116.92024
#
# Poissons Ratio (x) = 0.19748 0.15121
# Poissons Ratio (y) = 0.23895 0.48651
# Poissons Ratio (z) = 0.11579 0.30788
#
# Static dielectric constant tensor:
#      x y z
#    x 1.862480 0.000000 0.000000 
#    y 0.000000 1.836170 0.000000 
#    z 0.000000 0.000000 0.725180 
# 
# From -- ./inp_files/27552.got.cif
#   From: 2010.05.17/outbox.cif.g08.bks.cpg/sg73_14_cif.got.tgz:27552.got - 2010.06.03 17:35:07.
