data_PCOD9532112
_publ_section_title
;
Structure prediction by ZEFSAII (Michael W. Deem and Ramdas Pophale) SiO2 
 PCOD9532112
Probable space group: I B C A 
;
_chemical_formula_sum "Si O2"
_cell_formula_units_Z 112
_cell_length_a 11.196733
_cell_length_b 32.098532
_cell_length_c 15.069874
_cell_angle_alpha 90.000000
_cell_angle_beta 90.000000
_cell_angle_gamma 90.000000
_cell_volume 5416.093012
_symmetry_space_group_name_H-M "I B C A "
_symmetry_group_IT_number 73
_symmetry_cell_setting 'orthorhombic'
loop_
_space_group_symop_operation_xyz
x,y,z
-x,1/2-y,z
x,-y,1/2-z
1/2-x,y,-z
-x,-y,-z
x,1/2+y,-z
-x,y,1/2+z
1/2+x,-y,z
1/2+x,1/2+y,1/2+z
1/2-x,-y,1/2+z
1/2+x,1/2-y,-z
-x,1/2+y,1/2-z
1/2-x,1/2-y,1/2-z
1/2+x,y,1/2-z
1/2-x,1/2+y,z
x,1/2-y,1/2+z
loop_
_atom_site_type_symbol
_atom_site_label
_atom_site_fract_x
_atom_site_fract_y
_atom_site_fract_z
Si Si1 0.829137 0.615615 0.818639
Si Si2 0.542603 0.071980 0.566958
Si Si3 0.750000 0.658088 0.000000
Si Si4 0.049991 0.133439 0.091653
Si Si5 0.250000 0.014885 0.000000
Si Si6 0.179566 0.533406 0.670893
Si Si7 0.494556 0.200744 0.529235
Si Si8 0.820109 0.145041 0.358706
O O1 0.788238 0.630235 0.916178
O O2 0.758612 0.572984 0.799238
O O3 0.799109 0.650606 0.745595
O O4 0.973933 0.615161 0.827399
O O5 0.507042 0.105574 0.491963
O O6 0.631408 0.042240 0.512587
O O7 0.440799 0.049055 0.622026
O O8 0.612624 0.100903 0.635529
O O9 0.641552 0.685456 0.960084
O O10 0.192159 0.134908 0.098492
O O11 0.020694 0.181285 0.068163
O O12 0.247165 0.988483 0.089463
O O13 0.160575 0.500000 0.750000
O O14 0.500000 0.250000 0.534863
O O15 0.594984 0.178835 0.592956
#
# Coordination Sequence:
#
# PCOD9532112 Si02
#       8
#    16  16   8  16   8  16  16  16
#     4  11  24  44  66  94 134 174 239 275 335 427
#     4  11  22  42  67  89 132 173 232 277 345 431
#     4  10  23  44  69  98 130 194 222 270 347 410
#     4  10  22  42  71  96 128 189 224 272 346 412
#     4  12  23  44  59  94 134 178 224 296 363 412
#     4  12  27  41  65 100 134 179 232 303 361 399
#     4  10  22  41  70 103 139 170 221 278 342 413
#     4  11  23  40  71  99 129 181 228 284 336 411
#
# _framework density 20.679113000000001
#
# number of rings (size 3 to 8) (size 9 to 14) (size 15 to 20)
#    0.000    1.143    1.429    6.429    6.000    1.714 
#    0.000    3.571    0.000    0.000    0.000    0.000 
#    0.000    0.000    0.000    0.000    0.000    0.000 
#
# Total GULP energy -312160.822231 kJ/mol
# GULP energy per Si atom -5574.300397 kJ/mol
# Density = 2.063205 g / cm^3
# Si number density = 20.679113 Si / 1000 Ang^3
#
#
#
# Elastic Constant Matrix: (Units=GPa)
#
#
# Indices 1 2 3 4 5 6 
#
# 1 131.0305 61.3338 30.5334 -0.0001 0.0000 0.0000
# 2 61.3338 114.1936 27.2682 -0.0001 0.0000 0.0001
# 3 30.5334 27.2682 89.0908 -0.0004 0.0001 0.0005
# 4 -0.0001 -0.0001 -0.0004 9.0977 0.0001 -0.0001
# 5 0.0000 0.0000 0.0001 0.0001 30.1098 -0.0001
# 6 0.0000 0.0001 0.0005 -0.0001 -0.0001 4.2343
#
#
#
# Elastic Compliance Matrix: (Units=1/GPa)
#
#
# Indices 1 2 3 4 5 6 
#
# 1 0.010523 -0.005168 -0.002025 0.000000 0.000000 0.000000
# 2 -0.005168 0.011986 -0.001897 0.000000 0.000000 0.000000
# 3 -0.002025 -0.001897 0.012499 0.000001 0.000000 -0.000001
# 4 0.000000 0.000000 0.000001 0.109918 0.000000 0.000002
# 5 0.000000 0.000000 0.000000 0.000000 0.033212 0.000001
# 6 0.000000 0.000000 -0.000001 0.000002 0.000001 0.236169
#
#
# Mechanical properties :
#
#
# Convention : Reuss Voigt Hill
#
# Bulk Modulus (GPa) = 59.42627 63.62064 61.52345
# Shear Modulus (GPa) = 11.41301 23.03364 17.22332
#
# Velocity S-wave (km/s) = 2.35182 3.34108 2.88911
# Velocity P-wave (km/s) = 6.01452 6.76137 6.39885
#
# Compressibility (1/GPa) = 0.01682758
#
# Stress axis : x y z
#
# Youngs Moduli (GPa) = 95.03122 83.43005 80.00607
#
# Poissons Ratio (x) = 0.43120 0.16197
# Poissons Ratio (y) = 0.49116 0.15179
# Poissons Ratio (z) = 0.19239 0.15829
#
# Static dielectric constant tensor:
#      x y z
#    x 1.879760 0.000000 0.000000 
#    y 0.000000 1.724290 0.000000 
#    z 0.000000 0.000000 1.882150 
# 
# From -- ./inp_files/16413.got.cif
#   From: 2010.05.17/outbox.cif.g08.bks.cpg/sg73_9_cif.got.tgz:16413.got - 2010.06.03 17:35:07.
