data_PCOD9532480
_publ_section_title
;
Structure prediction by ZEFSAII (Michael W. Deem and Ramdas Pophale) SiO2 
 PCOD9532480
Probable space group: I B C A 
;
_chemical_formula_sum "Si O2"
_cell_formula_units_Z 88
_cell_length_a 17.036477
_cell_length_b 10.964646
_cell_length_c 22.408048
_cell_angle_alpha 90.000000
_cell_angle_beta 90.000000
_cell_angle_gamma 90.000000
_cell_volume 4185.799600
_symmetry_space_group_name_H-M "I B C A "
_symmetry_group_IT_number 73
_symmetry_cell_setting 'orthorhombic'
loop_
_space_group_symop_operation_xyz
x,y,z
-x,1/2-y,z
x,-y,1/2-z
1/2-x,y,-z
-x,-y,-z
x,1/2+y,-z
-x,y,1/2+z
1/2+x,-y,z
1/2+x,1/2+y,1/2+z
1/2-x,-y,1/2+z
1/2+x,1/2-y,-z
-x,1/2+y,1/2-z
1/2-x,1/2-y,1/2-z
1/2+x,y,1/2-z
1/2-x,1/2+y,z
x,1/2-y,1/2+z
loop_
_atom_site_type_symbol
_atom_site_label
_atom_site_fract_x
_atom_site_fract_y
_atom_site_fract_z
Si Si1 0.905740 0.528791 0.339198
Si Si2 0.469921 0.000000 0.250000
Si Si3 0.910631 0.507953 0.480498
Si Si4 0.403040 0.252973 0.550371
Si Si5 0.696635 0.812872 0.333444
Si Si6 0.862411 0.284233 0.708381
O O1 0.912045 0.533734 0.409935
O O2 0.826490 0.454857 0.325654
O O3 0.906746 0.663691 0.313117
O O4 0.973233 0.455120 0.303701
O O5 0.417060 0.899569 0.218007
O O6 0.878217 0.622405 0.517467
O O7 0.879625 0.369455 0.486635
O O8 0.000000 0.500000 0.500000
O O9 0.500000 0.250000 0.557798
O O10 0.355946 0.237787 0.612262
O O11 0.790147 0.802917 0.337049
O O12 0.671663 0.743106 0.273857
#
# Coordination Sequence:
#
# PCOD9532480 Si02
#       6
#    16   8  16  16  16  16
#     4  11  23  44  65  97 138 167 228 288 331 406
#     4  12  26  36  66  98 126 174 226 278 340 398
#     4   9  20  37  64  96 129 172 215 284 339 395
#     4   9  19  37  65  97 128 174 223 278 337 405
#     4  10  23  41  65  88 136 174 218 268 343 400
#     4  11  25  40  62  94 131 178 219 272 343 399
#
# _framework density 21.023461000000001
#
# number of rings (size 3 to 8) (size 9 to 14) (size 15 to 20)
#    0.000    1.818    1.818    0.545   12.727    4.364 
#    0.000    0.909    0.000    6.545    0.000    0.000 
#    0.000    0.000    0.000    0.000    0.000    0.000 
#
# Total GULP energy -245413.864353 kJ/mol
# GULP energy per Si atom -5577.587826 kJ/mol
# Density = 2.097561 g / cm^3
# Si number density = 21.023461 Si / 1000 Ang^3
#
#
#
# Elastic Constant Matrix: (Units=GPa)
#
#
# Indices 1 2 3 4 5 6 
#
# 1 74.6781 33.4337 27.9067 0.0000 0.0000 0.0000
# 2 33.4337 126.8734 38.3541 0.0000 0.0000 0.0000
# 3 27.9067 38.3541 66.1179 0.0000 0.0000 0.0000
# 4 0.0000 0.0000 0.0000 38.8634 0.0000 0.0000
# 5 0.0000 0.0000 0.0000 0.0000 25.0528 0.0000
# 6 0.0000 0.0000 0.0000 0.0000 0.0000 18.7023
#
#
#
# Elastic Compliance Matrix: (Units=1/GPa)
#
#
# Indices 1 2 3 4 5 6 
#
# 1 0.016651 -0.002745 -0.005436 0.000000 0.000000 0.000000
# 2 -0.002745 0.010010 -0.004648 0.000000 0.000000 0.000000
# 3 -0.005436 -0.004648 0.020115 0.000000 0.000000 0.000000
# 4 0.000000 0.000000 0.000000 0.025731 0.000000 0.000000
# 5 0.000000 0.000000 0.000000 0.000000 0.039916 0.000000
# 6 0.000000 0.000000 0.000000 0.000000 0.000000 0.053469
#
#
# Mechanical properties :
#
#
# Convention : Reuss Voigt Hill
#
# Bulk Modulus (GPa) = 47.35107 51.89539 49.62323
# Shear Modulus (GPa) = 25.17747 27.72202 26.44975
#
# Velocity S-wave (km/s) = 3.46437 3.63522 3.55083
# Velocity P-wave (km/s) = 6.21083 6.50830 6.36130
#
# Compressibility (1/GPa) = 0.02111885
#
# Stress axis : x y z
#
# Youngs Moduli (GPa) = 60.05677 99.89653 49.71337
#
# Poissons Ratio (x) = 0.27418 0.27023
# Poissons Ratio (y) = 0.16483 0.23109
# Poissons Ratio (z) = 0.32646 0.46436
#
# Static dielectric constant tensor:
#      x y z
#    x 1.761130 0.000000 0.000000 
#    y 0.000000 1.816750 0.000000 
#    z 0.000000 0.000000 1.781260 
# 
# From -- ./inp_files/29400.got.cif
#   From: 2010.05.17/outbox.cif.g08.bks.cpg/sg73_15_cif.got.tgz:29400.got - 2010.06.03 17:35:07.
