data_PCOD9532950
_publ_section_title
;
Structure prediction by ZEFSAII (Michael W. Deem and Ramdas Pophale) SiO2 
 PCOD9532950
Probable space group: I B C A 
;
_chemical_formula_sum "Si O2"
_cell_formula_units_Z 80
_cell_length_a 15.732744
_cell_length_b 9.018346
_cell_length_c 24.024452
_cell_angle_alpha 90.000000
_cell_angle_beta 90.000000
_cell_angle_gamma 90.000000
_cell_volume 3408.669225
_symmetry_space_group_name_H-M "I B C A "
_symmetry_group_IT_number 73
_symmetry_cell_setting 'orthorhombic'
loop_
_space_group_symop_operation_xyz
x,y,z
-x,1/2-y,z
x,-y,1/2-z
1/2-x,y,-z
-x,-y,-z
x,1/2+y,-z
-x,y,1/2+z
1/2+x,-y,z
1/2+x,1/2+y,1/2+z
1/2-x,-y,1/2+z
1/2+x,1/2-y,-z
-x,1/2+y,1/2-z
1/2-x,1/2-y,1/2-z
1/2+x,y,1/2-z
1/2-x,1/2+y,z
x,1/2-y,1/2+z
loop_
_atom_site_type_symbol
_atom_site_label
_atom_site_fract_x
_atom_site_fract_y
_atom_site_fract_z
Si Si1 0.405834 0.721456 0.787789
Si Si2 0.043831 0.407078 0.049075
Si Si3 0.393587 0.894538 0.167907
Si Si4 0.292918 0.142929 0.629309
Si Si5 0.713165 0.084215 0.557077
O O1 0.500000 0.750000 0.809732
O O2 0.375816 0.560277 0.809064
O O3 0.412158 0.706202 0.721356
O O4 0.345601 0.846458 0.813895
O O5 0.039433 0.416822 0.117450
O O6 0.142573 0.459362 0.043235
O O7 0.000000 0.250000 0.038630
O O8 0.000000 0.500000 0.000000
O O9 0.305541 0.831466 0.144252
O O10 0.324921 0.277452 0.590611
O O11 0.287116 0.992935 0.593805
O O12 0.750000 0.142555 0.500000
#
# Coordination Sequence:
#
# PCOD9532950 Si02
#       5
#    16  16  16  16  16
#     4  11  23  46  73 106 148 188 244 308 372 437
#     4  11  26  45  69 102 141 186 235 300 366 431
#     4  10  24  47  70 108 143 188 252 296 366 449
#     4  11  22  48  72 102 144 191 247 300 372 439
#     4  11  26  44  71 105 144 191 245 299 364 452
#
# _framework density 23.469570999999998
#
# number of rings (size 3 to 8) (size 9 to 14) (size 15 to 20)
#    0.000    1.200    4.000    1.800    8.400    2.400 
#    7.200    0.000    0.000    0.000    0.000    0.000 
#    0.000    0.000    0.000    0.000    0.000    0.000 
#
# Total GULP energy -222895.606150 kJ/mol
# GULP energy per Si atom -5572.390154 kJ/mol
# Density = 2.341615 g / cm^3
# Si number density = 23.469571 Si / 1000 Ang^3
#
#
#
# Elastic Constant Matrix: (Units=GPa)
#
#
# Indices 1 2 3 4 5 6 
#
# 1 69.2756 10.4899 27.1483 0.0000 0.0000 0.0000
# 2 10.4899 41.0394 32.1877 0.0000 0.0000 0.0000
# 3 27.1483 32.1877 166.9773 0.0000 0.0000 0.0000
# 4 0.0000 0.0000 0.0000 16.2363 0.0000 0.0000
# 5 0.0000 0.0000 0.0000 0.0000 28.7351 0.0000
# 6 0.0000 0.0000 0.0000 0.0000 0.0000 25.0909
#
#
#
# Elastic Compliance Matrix: (Units=1/GPa)
#
#
# Indices 1 2 3 4 5 6 
#
# 1 0.015608 -0.002355 -0.002084 0.000000 0.000000 0.000000
# 2 -0.002355 0.029062 -0.005219 0.000000 0.000000 0.000000
# 3 -0.002084 -0.005219 0.007334 0.000000 0.000000 0.000000
# 4 0.000000 0.000000 0.000000 0.061590 0.000000 0.000000
# 5 0.000000 0.000000 0.000000 0.000000 0.034801 0.000000
# 6 0.000000 0.000000 0.000000 0.000000 0.000000 0.039855
#
#
# Mechanical properties :
#
#
# Convention : Reuss Voigt Hill
#
# Bulk Modulus (GPa) = 30.59242 46.32711 38.45977
# Shear Modulus (GPa) = 22.88716 27.84356 25.36536
#
# Velocity S-wave (km/s) = 3.12618 3.44811 3.29108
# Velocity P-wave (km/s) = 5.10822 5.96948 5.55556
#
# Compressibility (1/GPa) = 0.03268783
#
# Stress axis : x y z
#
# Youngs Moduli (GPa) = 64.06839 34.40869 136.35621
#
# Poissons Ratio (x) = 0.08104 0.28412
# Poissons Ratio (y) = 0.15090 0.71169
# Poissons Ratio (z) = 0.13350 0.17959
#
# Static dielectric constant tensor:
#      x y z
#    x 1.900050 0.000000 0.000000 
#    y 0.000000 1.944100 0.000000 
#    z 0.000000 0.000000 1.932970 
# 
# From -- ./inp_files/32310.got.cif
#   From: 2010.05.17/outbox.cif.g08.bks.cpg/sg73_17_cif.got.tgz:32310.got - 2010.06.03 17:35:07.
