data_PCOD9532068
_publ_section_title
;
Structure prediction by ZEFSAII (Michael W. Deem and Ramdas Pophale) SiO2 
 PCOD9532068
Probable space group: I B C A 
;
_chemical_formula_sum "Si O2"
_cell_formula_units_Z 96
_cell_length_a 14.309892
_cell_length_b 30.212831
_cell_length_c 9.074823
_cell_angle_alpha 90.000000
_cell_angle_beta 90.000000
_cell_angle_gamma 90.000000
_cell_volume 3923.430289
_symmetry_space_group_name_H-M "I B C A "
_symmetry_group_IT_number 73
_symmetry_cell_setting 'orthorhombic'
loop_
_space_group_symop_operation_xyz
x,y,z
-x,1/2-y,z
x,-y,1/2-z
1/2-x,y,-z
-x,-y,-z
x,1/2+y,-z
-x,y,1/2+z
1/2+x,-y,z
1/2+x,1/2+y,1/2+z
1/2-x,-y,1/2+z
1/2+x,1/2-y,-z
-x,1/2+y,1/2-z
1/2-x,1/2-y,1/2-z
1/2+x,y,1/2-z
1/2-x,1/2+y,z
x,1/2-y,1/2+z
loop_
_atom_site_type_symbol
_atom_site_label
_atom_site_fract_x
_atom_site_fract_y
_atom_site_fract_z
Si Si1 0.875019 0.381897 0.628401
Si Si2 0.158805 0.704093 0.208678
Si Si3 0.874961 0.287069 0.122288
Si Si4 0.936062 0.625460 0.208648
Si Si5 0.583363 0.961638 0.131445
Si Si6 0.128291 0.475089 0.097849
O O1 0.823830 0.339445 0.692729
O O2 0.912373 0.372419 0.463465
O O3 0.820947 0.428339 0.616969
O O4 0.956300 0.386083 0.753285
O O5 0.263548 0.714510 0.154573
O O6 0.103290 0.738478 0.313114
O O7 0.106115 0.703521 0.050222
O O8 0.915493 0.327842 0.214842
O O9 0.886694 0.584314 0.294818
O O10 0.478654 0.957880 0.061856
O O11 0.571595 0.000000 0.250000
O O12 0.649503 0.986603 0.017664
O O13 0.130271 0.500000 0.250000
#
# Coordination Sequence:
#
# PCOD9532068 Si02
#       6
#    16  16  16  16  16  16
#     4  11  22  35  55  89 119 151 191 239 288 340
#     4  10  22  41  63  84 112 145 195 233 291 350
#     4  10  22  41  63  85 109 150 188 240 285 353
#     4  11  22  34  57  87 120 151 190 239 289 338
#     4   9  16  30  47  77 113 150 187 225 273 330
#     4   9  18  28  49  77 113 151 186 228 273 332
#
# _framework density 24.468385999999999
#
# number of rings (size 3 to 8) (size 9 to 14) (size 15 to 20)
#    0.000    2.000    1.667    2.000    9.333    2.667 
#    0.000    3.333    0.000    1.000    0.000    0.000 
#    0.000    0.000    0.000    0.000    0.000    0.000 
#
# Total GULP energy -267746.281402 kJ/mol
# GULP energy per Si atom -5578.047529 kJ/mol
# Density = 2.441269 g / cm^3
# Si number density = 24.468386 Si / 1000 Ang^3
#
#
#
# Elastic Constant Matrix: (Units=GPa)
#
#
# Indices 1 2 3 4 5 6 
#
# 1 45.3380 1.2612 7.0120 -0.0001 0.0001 0.0001
# 2 1.2612 163.6672 52.5814 0.0012 0.0002 0.0007
# 3 7.0120 52.5814 156.7848 0.0013 0.0001 0.0071
# 4 -0.0001 0.0012 0.0013 32.0797 0.0002 0.0009
# 5 0.0001 0.0002 0.0001 0.0002 24.4971 0.0013
# 6 0.0001 0.0007 0.0071 0.0009 0.0013 -34.4970
#
#
#
# Elastic Compliance Matrix: (Units=1/GPa)
#
#
# Indices 1 2 3 4 5 6 
#
# 1 0.022214 0.000166 -0.001049 0.000000 0.000000 0.000000
# 2 0.000166 0.006849 -0.002304 0.000000 0.000000 0.000000
# 3 -0.001049 -0.002304 0.007198 0.000000 0.000000 0.000001
# 4 0.000000 0.000000 0.000000 0.031172 0.000000 0.000001
# 5 0.000000 0.000000 0.000000 0.000000 0.040821 0.000002
# 6 0.000000 0.000000 0.000001 0.000001 0.000002 -0.028988
#
#
# Mechanical properties :
#
#
# Convention : Reuss Voigt Hill
#
# Bulk Modulus (GPa) = 33.46067 54.16658 43.81362
# Shear Modulus (GPa) = 52.29916 24.74500 38.52208
#
# Velocity S-wave (km/s) = 4.62824 3.18355 3.97213
# Velocity P-wave (km/s) = 6.50119 5.97484 6.24357
#
# Compressibility (1/GPa) = 0.02988584
#
# Stress axis : x y z
#
# Youngs Moduli (GPa) = 45.01625 146.00646 138.92900
#
# Poissons Ratio (x) = -0.02422 0.14575
# Poissons Ratio (y) = -0.00747 0.32015
# Poissons Ratio (z) = 0.04723 0.33646
#
# Static dielectric constant tensor:
#      x y z
#    x 2.089360 0.000000 -0.000010 
#    y 0.000000 2.037620 0.000020 
#    z -0.000010 0.000020 1.567480 
# 
# From -- ./inp_files/6456.got.cif
#   From: 2010.05.17/outbox.cif.g08.bks.cpg/sg73_4_cif.got.tgz:6456.got - 2010.06.03 17:35:07.
