data_PCOD9532235
_publ_section_title
;
Structure prediction by ZEFSAII (Michael W. Deem and Ramdas Pophale) SiO2 
 PCOD9532235
Probable space group: I B C A 
;
_chemical_formula_sum "Si O2"
_cell_formula_units_Z 112
_cell_length_a 14.510490
_cell_length_b 14.710203
_cell_length_c 22.346365
_cell_angle_alpha 90.000000
_cell_angle_beta 90.000000
_cell_angle_gamma 90.000000
_cell_volume 4769.881967
_symmetry_space_group_name_H-M "I B C A "
_symmetry_group_IT_number 73
_symmetry_cell_setting 'orthorhombic'
loop_
_space_group_symop_operation_xyz
x,y,z
-x,1/2-y,z
x,-y,1/2-z
1/2-x,y,-z
-x,-y,-z
x,1/2+y,-z
-x,y,1/2+z
1/2+x,-y,z
1/2+x,1/2+y,1/2+z
1/2-x,-y,1/2+z
1/2+x,1/2-y,-z
-x,1/2+y,1/2-z
1/2-x,1/2-y,1/2-z
1/2+x,y,1/2-z
1/2-x,1/2+y,z
x,1/2-y,1/2+z
loop_
_atom_site_type_symbol
_atom_site_label
_atom_site_fract_x
_atom_site_fract_y
_atom_site_fract_z
Si Si1 0.255305 0.620780 0.370349
Si Si2 0.433038 0.083111 0.930877
Si Si3 0.897184 0.211515 0.363179
Si Si4 0.705140 0.849646 0.754530
Si Si5 0.628200 0.532780 0.691342
Si Si6 0.628789 0.429725 0.482650
Si Si7 0.858230 0.225499 0.487952
O O1 0.312669 0.715316 0.370591
O O2 0.184071 0.624067 0.314087
O O3 0.331307 0.550681 0.346511
O O4 0.207383 0.590730 0.432339
O O5 0.421457 0.087570 0.859980
O O6 0.535924 0.054166 0.945874
O O7 0.409413 0.181485 0.956502
O O8 0.368699 0.012412 0.969557
O O9 0.873642 0.153785 0.304580
O O10 0.890330 0.169607 0.429382
O O11 0.000000 0.250000 0.356646
O O12 0.750000 0.750000 0.750000
O O13 0.785643 0.912498 0.781403
O O14 0.573788 0.500000 0.750000
O O15 0.617721 0.332383 0.516156
O O16 0.750000 0.216393 0.500000
#
# Coordination Sequence:
#
# PCOD9532235 Si02
#       7
#    16  16  16  16  16  16  16
#     4  10  22  44  66  92 138 184 220 287 359 410
#     4  11  26  42  70 108 135 179 237 287 343 418
#     4  11  22  40  66  99 134 177 233 288 346 418
#     4   9  21  42  65  93 132 176 231 278 340 414
#     4  10  22  43  67  93 133 178 228 280 339 417
#     4  11  25  46  66 102 146 176 226 294 348 412
#     4  12  24  41  69  98 137 186 226 284 350 413
#
# _framework density 23.480664000000001
#
# number of rings (size 3 to 8) (size 9 to 14) (size 15 to 20)
#    0.000    1.429    1.429    3.000    6.000    1.143 
#    7.714    0.714    0.000    0.000    0.000    0.000 
#    0.000    0.000    0.000    0.000    0.000    0.000 
#
# Total GULP energy -312620.801836 kJ/mol
# GULP energy per Si atom -5582.514318 kJ/mol
# Density = 2.342722 g / cm^3
# Si number density = 23.480664 Si / 1000 Ang^3
#
#
#
# Elastic Constant Matrix: (Units=GPa)
#
#
# Indices 1 2 3 4 5 6 
#
# 1 78.8664 -11.6641 32.1608 0.0000 0.0000 0.0000
# 2 -11.6641 53.6538 -0.6572 0.0000 0.0000 0.0000
# 3 32.1608 -0.6572 174.9570 0.0000 0.0000 0.0000
# 4 0.0000 0.0000 0.0000 31.8278 0.0000 0.0000
# 5 0.0000 0.0000 0.0000 0.0000 -19.4406 0.0000
# 6 0.0000 0.0000 0.0000 0.0000 0.0000 13.1102
#
#
#
# Elastic Compliance Matrix: (Units=1/GPa)
#
#
# Indices 1 2 3 4 5 6 
#
# 1 0.014190 0.003053 -0.002597 0.000000 0.000000 0.000000
# 2 0.003053 0.019296 -0.000489 0.000000 0.000000 0.000000
# 3 -0.002597 -0.000489 0.006191 0.000000 0.000000 0.000000
# 4 0.000000 0.000000 0.000000 0.031419 0.000000 0.000000
# 5 0.000000 0.000000 0.000000 0.000000 -0.051439 0.000000
# 6 0.000000 0.000000 0.000000 0.000000 0.000000 0.076276
#
#
# Mechanical properties :
#
#
# Convention : Reuss Voigt Hill
#
# Bulk Modulus (GPa) = 25.24490 38.57288 31.90889
# Shear Modulus (GPa) = 45.78625 24.27534 35.03079
#
# Velocity S-wave (km/s) = 4.42062 3.21883 3.86670
# Velocity P-wave (km/s) = 6.06882 5.50252 5.79259
#
# Compressibility (1/GPa) = 0.03961197
#
# Stress axis : x y z
#
# Youngs Moduli (GPa) = 70.47101 51.82483 161.51858
#
# Poissons Ratio (x) = -0.15823 0.41946
# Poissons Ratio (y) = -0.21515 0.07894
# Poissons Ratio (z) = 0.18301 0.02533
#
# Static dielectric constant tensor:
#      x y z
#    x 1.903460 0.000000 0.000000 
#    y 0.000000 1.858730 0.000000 
#    z 0.000000 0.000000 1.883350 
# 
# From -- ./inp_files/29522.got.cif
#   From: 2010.05.17/outbox.cif.g08.bks.cpg/sg73_15_cif.got.tgz:29522.got - 2010.06.03 17:35:07.
