data_PCOD9532368
_publ_section_title
;
Structure prediction by ZEFSAII (Michael W. Deem and Ramdas Pophale) SiO2 
 PCOD9532368
Probable space group: I B C A 
;
_chemical_formula_sum "Si O2"
_cell_formula_units_Z 96
_cell_length_a 24.072055
_cell_length_b 20.899004
_cell_length_c 9.253341
_cell_angle_alpha 90.000000
_cell_angle_beta 90.000000
_cell_angle_gamma 90.000000
_cell_volume 4655.189054
_symmetry_space_group_name_H-M "I B C A "
_symmetry_group_IT_number 73
_symmetry_cell_setting 'orthorhombic'
loop_
_space_group_symop_operation_xyz
x,y,z
-x,1/2-y,z
x,-y,1/2-z
1/2-x,y,-z
-x,-y,-z
x,1/2+y,-z
-x,y,1/2+z
1/2+x,-y,z
1/2+x,1/2+y,1/2+z
1/2-x,-y,1/2+z
1/2+x,1/2-y,-z
-x,1/2+y,1/2-z
1/2-x,1/2-y,1/2-z
1/2+x,y,1/2-z
1/2-x,1/2+y,z
x,1/2-y,1/2+z
loop_
_atom_site_type_symbol
_atom_site_label
_atom_site_fract_x
_atom_site_fract_y
_atom_site_fract_z
Si Si1 0.053481 0.164235 0.102850
Si Si2 0.988677 0.000000 0.250000
Si Si3 0.919701 0.084386 0.870422
Si Si4 0.093225 0.899072 0.675593
Si Si5 0.073559 0.691562 0.394050
Si Si6 0.672608 0.493903 0.001939
Si Si7 0.750583 0.500000 0.250000
O O1 0.080444 0.112189 0.208381
O O2 0.082833 0.233139 0.092288
O O3 0.990917 0.180408 0.152668
O O4 0.054640 0.132223 0.946476
O O5 0.029731 0.032509 0.366217
O O6 0.944575 0.056376 0.219268
O O7 0.867716 0.044418 0.926339
O O8 0.923196 0.149382 0.962203
O O9 0.112877 0.841419 0.775899
O O10 0.138320 0.940798 0.590858
O O11 0.709032 0.465741 0.867779
O O12 0.709132 0.528812 0.127907
#
# Coordination Sequence:
#
# PCOD9532368 Si02
#       7
#    16   8  16  16  16  16   8
#     4  11  22  38  55  81 127 179 212 236 274 341
#     4  12  22  34  54  88 140 158 186 246 292 352
#     4  12  23  37  58  92 122 168 198 247 295 378
#     4  12  23  37  58  92 122 168 198 247 295 378
#     4  11  22  38  55  81 127 179 212 236 274 341
#     4  11  24  39  66  90 120 149 212 247 342 362
#     4  10  22  46  60  88 118 154 190 282 312 394
#
# _framework density 20.622149
#
# number of rings (size 3 to 8) (size 9 to 14) (size 15 to 20)
#    0.000    0.667    3.333    6.000    0.000    4.667 
#    0.000    0.000    0.000    0.000    0.000   81.667 
#    0.000    0.000    0.000    0.000    0.000    0.000 
#
# Total GULP energy -267378.190078 kJ/mol
# GULP energy per Si atom -5570.378960 kJ/mol
# Density = 2.057521 g / cm^3
# Si number density = 20.622149 Si / 1000 Ang^3
#
#
#
# Elastic Constant Matrix: (Units=GPa)
#
#
# Indices 1 2 3 4 5 6 
#
# 1 55.5266 18.1787 17.8643 0.0000 0.0000 0.0000
# 2 18.1787 122.7979 32.5985 0.0000 0.0000 0.0000
# 3 17.8643 32.5985 116.8720 0.0000 0.0000 0.0000
# 4 0.0000 0.0000 0.0000 20.4935 0.0000 0.0000
# 5 0.0000 0.0000 0.0000 0.0000 47.9319 0.0000
# 6 0.0000 0.0000 0.0000 0.0000 0.0000 2.4890
#
#
#
# Elastic Compliance Matrix: (Units=1/GPa)
#
#
# Indices 1 2 3 4 5 6 
#
# 1 0.019507 -0.002264 -0.002350 0.000000 0.000000 0.000000
# 2 -0.002264 0.009057 -0.002180 0.000000 0.000000 0.000000
# 3 -0.002350 -0.002180 0.009524 0.000000 0.000000 0.000000
# 4 0.000000 0.000000 0.000000 0.048796 0.000000 0.000000
# 5 0.000000 0.000000 0.000000 0.000000 0.020863 0.000000
# 6 0.000000 0.000000 0.000000 0.000000 0.000000 0.401774
#
#
# Mechanical properties :
#
#
# Convention : Reuss Voigt Hill
#
# Bulk Modulus (GPa) = 40.81782 48.05329 44.43556
# Shear Modulus (GPa) = 9.41132 29.28655 19.34893
#
# Velocity S-wave (km/s) = 2.13860 3.77258 3.06643
# Velocity P-wave (km/s) = 5.09257 6.50606 5.84222
#
# Compressibility (1/GPa) = 0.02449910
#
# Stress axis : x y z
#
# Youngs Moduli (GPa) = 51.26456 110.40708 105.00070
#
# Poissons Ratio (x) = 0.24994 0.24677
# Poissons Ratio (y) = 0.11605 0.22893
# Poissons Ratio (z) = 0.12048 0.24072
#
# Static dielectric constant tensor:
#      x y z
#    x 1.816190 0.000000 0.000000 
#    y 0.000000 1.742040 0.000000 
#    z 0.000000 0.000000 1.780670 
# 
# From -- ./inp_files/7863.got.cif
#   From: 2010.05.17/outbox.cif.g08.bks.cpg/sg73_4_cif.got.tgz:7863.got - 2010.06.03 17:35:07.
