data_PCOD9532526
_publ_section_title
;
Structure prediction by ZEFSAII (Michael W. Deem and Ramdas Pophale) SiO2 
 PCOD9532526
Probable space group: I B C A 
;
_chemical_formula_sum "Si O2"
_cell_formula_units_Z 56
_cell_length_a 34.403439
_cell_length_b 5.171581
_cell_length_c 13.435354
_cell_angle_alpha 90.000000
_cell_angle_beta 90.000000
_cell_angle_gamma 90.000000
_cell_volume 2390.420487
_symmetry_space_group_name_H-M "I B C A "
_symmetry_group_IT_number 73
_symmetry_cell_setting 'orthorhombic'
loop_
_space_group_symop_operation_xyz
x,y,z
-x,1/2-y,z
x,-y,1/2-z
1/2-x,y,-z
-x,-y,-z
x,1/2+y,-z
-x,y,1/2+z
1/2+x,-y,z
1/2+x,1/2+y,1/2+z
1/2-x,-y,1/2+z
1/2+x,1/2-y,-z
-x,1/2+y,1/2-z
1/2-x,1/2-y,1/2-z
1/2+x,y,1/2-z
1/2-x,1/2+y,z
x,1/2-y,1/2+z
loop_
_atom_site_type_symbol
_atom_site_label
_atom_site_fract_x
_atom_site_fract_y
_atom_site_fract_z
Si Si1 0.920777 0.662235 0.933451
Si Si2 0.706661 0.326605 0.959008
Si Si3 0.500000 0.250000 0.818203
Si Si4 0.315741 0.500000 0.250000
Si Si5 0.866760 0.000000 0.250000
O O1 0.892795 0.597955 0.841455
O O2 0.964044 0.664790 0.886839
O O3 0.915170 0.441164 0.016278
O O4 0.708323 0.412368 0.845713
O O5 0.750000 0.281207 0.000000
O O6 0.686809 0.552868 0.022152
O O7 0.510540 0.500000 0.750000
O O8 0.341080 0.750129 0.278059
#
# Coordination Sequence:
#
# PCOD9532526 Si02
#       5
#    16  16   8   8   8
#     4  12  26  46  72 103 141 190 242 296 355 417
#     4  10  23  42  69 101 134 172 226 285 347 419
#     4  12  24  44  76 104 146 184 244 304 358 412
#     4  12  26  44  70 100 140 186 230 284 370 418
#     4  12  28  46  68 102 144 190 234 294 348 446
#
# _framework density 23.426842000000001
#
# number of rings (size 3 to 8) (size 9 to 14) (size 15 to 20)
#    0.000    0.571    1.429    6.000    2.000   11.429 
#    0.000    0.000    0.000    0.000    0.000    0.000 
#    0.000    0.000    0.000    0.000    0.000    0.000 
#
# Total GULP energy -156849.622605 kJ/mol
# GULP energy per Si atom -5601.772236 kJ/mol
# Density = 2.337352 g / cm^3
# Si number density = 23.426842 Si / 1000 Ang^3
#
#
#
# Elastic Constant Matrix: (Units=GPa)
#
#
# Indices 1 2 3 4 5 6 
#
# 1 86.8391 18.9069 45.5147 0.0000 0.0000 0.0000
# 2 18.9069 160.8352 11.3322 0.0000 0.0000 0.0000
# 3 45.5147 11.3322 117.4305 0.0000 0.0000 0.0000
# 4 0.0000 0.0000 0.0000 54.4759 0.0000 0.0000
# 5 0.0000 0.0000 0.0000 0.0000 114.6379 0.0000
# 6 0.0000 0.0000 0.0000 0.0000 0.0000 31.8984
#
#
#
# Elastic Compliance Matrix: (Units=1/GPa)
#
#
# Indices 1 2 3 4 5 6 
#
# 1 0.014732 -0.001339 -0.005581 0.000000 0.000000 0.000000
# 2 -0.001339 0.006382 -0.000097 0.000000 0.000000 0.000000
# 3 -0.005581 -0.000097 0.010688 0.000000 0.000000 0.000000
# 4 0.000000 0.000000 0.000000 0.018357 0.000000 0.000000
# 5 0.000000 0.000000 0.000000 0.000000 0.008723 0.000000
# 6 0.000000 0.000000 0.000000 0.000000 0.000000 0.031350
#
#
# Mechanical properties :
#
#
# Convention : Reuss Voigt Hill
#
# Bulk Modulus (GPa) = 56.27766 57.40137 56.83952
# Shear Modulus (GPa) = 45.37740 59.49253 52.43496
#
# Velocity S-wave (km/s) = 4.40589 5.04481 4.73614
# Velocity P-wave (km/s) = 7.06805 7.64782 7.36364
#
# Compressibility (1/GPa) = 0.01776904
#
# Stress axis : x y z
#
# Youngs Moduli (GPa) = 67.87934 156.69715 93.56220
#
# Poissons Ratio (x) = 0.20975 0.52215
# Poissons Ratio (y) = 0.09086 0.00908
# Poissons Ratio (z) = 0.37882 0.01520
#
# Static dielectric constant tensor:
#      x y z
#    x 2.263870 0.000000 0.000000 
#    y 0.000000 1.959890 0.000000 
#    z 0.000000 0.000000 1.863330 
# 
# From -- ./inp_files/19934.got.cif
#   From: 2010.05.17/outbox.cif.g08.bks.cpg/sg73_10_cif.got.tgz:19934.got - 2010.06.03 17:35:07.
