data_PCOD9532244
_publ_section_title
;
Structure prediction by ZEFSAII (Michael W. Deem and Ramdas Pophale) SiO2 
 PCOD9532244
Probable space group: I B C A 
;
_chemical_formula_sum "Si O2"
_cell_formula_units_Z 104
_cell_length_a 20.217517
_cell_length_b 27.524259
_cell_length_c 8.929582
_cell_angle_alpha 90.000000
_cell_angle_beta 90.000000
_cell_angle_gamma 90.000000
_cell_volume 4969.063911
_symmetry_space_group_name_H-M "I B C A "
_symmetry_group_IT_number 73
_symmetry_cell_setting 'orthorhombic'
loop_
_space_group_symop_operation_xyz
x,y,z
-x,1/2-y,z
x,-y,1/2-z
1/2-x,y,-z
-x,-y,-z
x,1/2+y,-z
-x,y,1/2+z
1/2+x,-y,z
1/2+x,1/2+y,1/2+z
1/2-x,-y,1/2+z
1/2+x,1/2-y,-z
-x,1/2+y,1/2-z
1/2-x,1/2-y,1/2-z
1/2+x,y,1/2-z
1/2-x,1/2+y,z
x,1/2-y,1/2+z
loop_
_atom_site_type_symbol
_atom_site_label
_atom_site_fract_x
_atom_site_fract_y
_atom_site_fract_z
Si Si1 0.096829 0.193096 0.505584
Si Si2 0.699430 0.539789 0.631156
Si Si3 0.750000 0.196177 0.500000
Si Si4 0.943557 0.526145 0.410595
Si Si5 0.161183 0.356352 0.748774
Si Si6 0.542391 0.641030 0.544304
Si Si7 0.117157 0.213600 0.844386
O O1 0.153439 0.162964 0.416820
O O2 0.120774 0.211276 0.667170
O O3 0.078085 0.240344 0.407987
O O4 0.031123 0.161442 0.534434
O O5 0.724437 0.500000 0.750000
O O6 0.750000 0.553115 0.500000
O O7 0.633517 0.519913 0.548966
O O8 0.675005 0.586528 0.726383
O O9 0.785715 0.167342 0.636293
O O10 0.810677 0.221719 0.417181
O O11 0.947012 0.500000 0.250000
O O12 0.958047 0.583192 0.435333
O O13 0.000000 0.500000 0.500000
O O14 0.088334 0.343018 0.683359
O O15 0.583998 0.663823 0.405716
#
# Coordination Sequence:
#
# PCOD9532244 Si02
#       7
#    16  16   8  16  16  16  16
#     4  12  25  41  68 101 136 175 234 277 351 410
#     4  10  22  44  68  99 138 179 228 287 349 416
#     4  10  22  46  68  88 136 176 226 272 348 400
#     4  10  24  42  68 100 137 177 225 282 344 407
#     4  10  22  43  68  95 138 183 222 288 341 417
#     4  10  23  42  68  98 137 175 224 282 346 408
#     4  11  25  42  67  99 133 182 221 289 336 416
#
# _framework density 20.929496
#
# number of rings (size 3 to 8) (size 9 to 14) (size 15 to 20)
#    0.000    1.538    0.769    3.231    8.615    4.923 
#    2.769    0.000    0.000    0.000    0.000    0.000 
#    0.000    0.000    0.000    0.000    0.000    0.000 
#
# Total GULP energy -290012.517136 kJ/mol
# GULP energy per Si atom -5577.163791 kJ/mol
# Density = 2.088186 g / cm^3
# Si number density = 20.929496 Si / 1000 Ang^3
#
#
#
# Elastic Constant Matrix: (Units=GPa)
#
#
# Indices 1 2 3 4 5 6 
#
# 1 97.8273 40.7455 41.4112 0.0000 0.0000 0.0000
# 2 40.7455 118.3422 61.0273 0.0000 0.0000 0.0000
# 3 41.4112 61.0273 134.8799 0.0000 0.0000 0.0000
# 4 0.0000 0.0000 0.0000 35.5004 0.0000 0.0000
# 5 0.0000 0.0000 0.0000 0.0000 8.7449 0.0000
# 6 0.0000 0.0000 0.0000 0.0000 0.0000 22.9052
#
#
#
# Elastic Compliance Matrix: (Units=1/GPa)
#
#
# Indices 1 2 3 4 5 6 
#
# 1 0.012535 -0.003041 -0.002473 0.000000 0.000000 0.000000
# 2 -0.003041 0.011759 -0.004387 0.000000 0.000000 0.000000
# 3 -0.002473 -0.004387 0.010158 0.000000 0.000000 0.000000
# 4 0.000000 0.000000 0.000000 0.028169 0.000000 0.000000
# 5 0.000000 0.000000 0.000000 0.000000 0.114353 0.000000
# 6 0.000000 0.000000 0.000000 0.000000 0.000000 0.043658
#
#
# Mechanical properties :
#
#
# Convention : Reuss Voigt Hill
#
# Bulk Modulus (GPa) = 68.25169 70.82417 69.53793
# Shear Modulus (GPa) = 20.38176 27.28780 23.83478
#
# Velocity S-wave (km/s) = 3.12401 3.61473 3.37829
# Velocity P-wave (km/s) = 6.75971 7.16481 6.96521
#
# Compressibility (1/GPa) = 0.01465165
#
# Stress axis : x y z
#
# Youngs Moduli (GPa) = 79.77442 85.03896 98.44313
#
# Poissons Ratio (x) = 0.25858 0.24343
# Poissons Ratio (y) = 0.24257 0.43187
# Poissons Ratio (z) = 0.19727 0.37307
#
# Static dielectric constant tensor:
#      x y z
#    x 1.806900 0.000000 0.000000 
#    y 0.000000 1.744140 0.000000 
#    z 0.000000 0.000000 1.766740 
# 
# From -- ./inp_files/6544.got.cif
#   From: 2010.05.17/outbox.cif.g08.bks.cpg/sg73_4_cif.got.tgz:6544.got - 2010.06.03 17:35:07.
