data_PCOD9532374
_publ_section_title
;
Structure prediction by ZEFSAII (Michael W. Deem and Ramdas Pophale) SiO2 
 PCOD9532374
Probable space group: I B C A 
;
_chemical_formula_sum "Si O2"
_cell_formula_units_Z 120
_cell_length_a 14.769134
_cell_length_b 23.764923
_cell_length_c 15.293387
_cell_angle_alpha 90.000000
_cell_angle_beta 90.000000
_cell_angle_gamma 90.000000
_cell_volume 5367.785105
_symmetry_space_group_name_H-M "I B C A "
_symmetry_group_IT_number 73
_symmetry_cell_setting 'orthorhombic'
loop_
_space_group_symop_operation_xyz
x,y,z
-x,1/2-y,z
x,-y,1/2-z
1/2-x,y,-z
-x,-y,-z
x,1/2+y,-z
-x,y,1/2+z
1/2+x,-y,z
1/2+x,1/2+y,1/2+z
1/2-x,-y,1/2+z
1/2+x,1/2-y,-z
-x,1/2+y,1/2-z
1/2-x,1/2-y,1/2-z
1/2+x,y,1/2-z
1/2-x,1/2+y,z
x,1/2-y,1/2+z
loop_
_atom_site_type_symbol
_atom_site_label
_atom_site_fract_x
_atom_site_fract_y
_atom_site_fract_z
Si Si1 0.695698 0.873400 0.419109
Si Si2 0.415434 0.634132 0.789931
Si Si3 0.100160 0.411642 0.753454
Si Si4 0.877096 0.330562 0.106244
Si Si5 0.231037 0.454965 0.320846
Si Si6 0.490271 0.816164 0.960703
Si Si7 0.250000 0.417425 0.500000
Si Si8 0.814539 0.718833 0.820566
O O1 0.750000 0.899706 0.500000
O O2 0.650525 0.913540 0.346468
O O3 0.611287 0.837229 0.452976
O O4 0.761721 0.830374 0.370057
O O5 0.492010 0.588849 0.760316
O O6 0.319126 0.603089 0.795173
O O7 0.450303 0.654484 0.884505
O O8 0.397805 0.688618 0.729701
O O9 0.115275 0.351399 0.705843
O O10 0.159816 0.451549 0.691824
O O11 0.842159 0.267106 0.110996
O O12 0.971022 0.331614 0.055184
O O13 0.815090 0.373985 0.051728
O O14 0.198386 0.500000 0.250000
O O15 0.209955 0.457264 0.423765
O O16 0.500000 0.750000 0.947320
O O17 0.750000 0.750000 0.750000
#
# Coordination Sequence:
#
# PCOD9532374 Si02
#       8
#    16  16  16  16  16  16   8  16
#     4  11  23  39  55  86 135 173 227 275 328 396
#     4  11  24  43  64  97 143 178 236 287 337 418
#     4  10  24  42  63  97 132 173 224 287 340 418
#     4  11  23  37  64  91 137 185 224 271 339 407
#     4  11  23  48  78  96 129 181 230 301 371 408
#     4  11  24  36  58  95 136 188 228 277 330 412
#     4  10  22  46  68 104 132 170 232 292 342 428
#     4  12  22  37  60  91 135 189 230 270 335 413
#
# _framework density 22.355589999999999
#
# number of rings (size 3 to 8) (size 9 to 14) (size 15 to 20)
#    0.000    1.067    4.000    2.400    8.400    0.533 
#    1.200    0.000    0.000    2.400    0.000    0.000 
#    0.000    0.000    0.000    0.000    0.000    0.000 
#
# Total GULP energy -334926.605604 kJ/mol
# GULP energy per Si atom -5582.110093 kJ/mol
# Density = 2.230471 g / cm^3
# Si number density = 22.355590 Si / 1000 Ang^3
#
#
#
# Elastic Constant Matrix: (Units=GPa)
#
#
# Indices 1 2 3 4 5 6 
#
# 1 82.4709 4.4923 41.6211 -0.0001 0.0000 0.0000
# 2 4.4923 55.0940 31.2795 -0.0003 0.0000 0.0000
# 3 41.6211 31.2795 125.3977 -0.0003 0.0000 -0.0001
# 4 -0.0001 -0.0003 -0.0003 32.0352 0.0000 0.0000
# 5 0.0000 0.0000 0.0000 0.0000 37.1461 0.0000
# 6 0.0000 0.0000 -0.0001 0.0000 0.0000 13.1142
#
#
#
# Elastic Compliance Matrix: (Units=1/GPa)
#
#
# Indices 1 2 3 4 5 6 
#
# 1 0.014723 0.001834 -0.005344 0.000000 0.000000 0.000000
# 2 0.001834 0.021374 -0.005940 0.000000 0.000000 0.000000
# 3 -0.005344 -0.005940 0.011230 0.000000 0.000000 0.000000
# 4 0.000000 0.000000 0.000000 0.031216 0.000000 0.000000
# 5 0.000000 0.000000 0.000000 0.000000 0.026921 0.000000
# 6 0.000000 0.000000 0.000000 0.000000 0.000000 0.076253
#
#
# Mechanical properties :
#
#
# Convention : Reuss Voigt Hill
#
# Bulk Modulus (GPa) = 35.17981 46.41651 40.79816
# Shear Modulus (GPa) = 23.79905 28.83040 26.31472
#
# Velocity S-wave (km/s) = 3.26631 3.59504 3.43461
# Velocity P-wave (km/s) = 5.47683 6.16768 5.83249
#
# Compressibility (1/GPa) = 0.02842539
#
# Stress axis : x y z
#
# Youngs Moduli (GPa) = 67.92283 46.78630 89.04658
#
# Poissons Ratio (x) = -0.08579 0.47586
# Poissons Ratio (y) = -0.12454 0.52895
# Poissons Ratio (z) = 0.36298 0.27792
#
# Static dielectric constant tensor:
#      x y z
#    x 1.828630 0.000000 0.000000 
#    y 0.000000 1.828910 0.000000 
#    z 0.000000 0.000000 1.885680 
# 
# From -- ./inp_files/17490.got.cif
#   From: 2010.05.17/outbox.cif.g08.bks.cpg/sg73_9_cif.got.tgz:17490.got - 2010.06.03 17:35:07.
