data_PCOD9532892
_publ_section_title
;
Structure prediction by ZEFSAII (Michael W. Deem and Ramdas Pophale) SiO2 
 PCOD9532892
Probable space group: I B C A 
;
_chemical_formula_sum "Si O2"
_cell_formula_units_Z 88
_cell_length_a 26.975485
_cell_length_b 11.484189
_cell_length_c 11.347736
_cell_angle_alpha 90.000000
_cell_angle_beta 90.000000
_cell_angle_gamma 90.000000
_cell_volume 3515.432930
_symmetry_space_group_name_H-M "I B C A "
_symmetry_group_IT_number 73
_symmetry_cell_setting 'orthorhombic'
loop_
_space_group_symop_operation_xyz
x,y,z
-x,1/2-y,z
x,-y,1/2-z
1/2-x,y,-z
-x,-y,-z
x,1/2+y,-z
-x,y,1/2+z
1/2+x,-y,z
1/2+x,1/2+y,1/2+z
1/2-x,-y,1/2+z
1/2+x,1/2-y,-z
-x,1/2+y,1/2-z
1/2-x,1/2-y,1/2-z
1/2+x,y,1/2-z
1/2-x,1/2+y,z
x,1/2-y,1/2+z
loop_
_atom_site_type_symbol
_atom_site_label
_atom_site_fract_x
_atom_site_fract_y
_atom_site_fract_z
Si Si1 0.698547 0.037387 0.562023
Si Si2 0.103480 0.165089 0.924068
Si Si3 0.528818 0.137295 0.368280
Si Si4 0.128863 0.129679 0.267299
Si Si5 0.797671 0.316679 0.701443
Si Si6 0.050416 0.500000 0.250000
O O1 0.750000 0.075127 0.500000
O O2 0.645140 0.080609 0.515212
O O3 0.694107 0.100489 0.687218
O O4 0.704210 0.900129 0.588689
O O5 0.123551 0.294846 0.889646
O O6 0.084803 0.100742 0.804395
O O7 0.056040 0.166163 0.009452
O O8 0.500000 0.250000 0.326296
O O9 0.573731 0.117095 0.279764
O O10 0.486587 0.039930 0.354823
O O11 0.160222 0.220867 0.190851
O O12 0.152197 0.000000 0.250000
O O13 0.750000 0.250000 0.750000
#
# Coordination Sequence:
#
# PCOD9532892 Si02
#       6
#    16  16  16  16  16   8
#     4  10  24  48  75 107 145 192 244 307 376 451
#     4  11  26  48  76 109 150 201 250 310 384 443
#     4  12  27  43  76 110 149 195 254 310 375 453
#     4  11  25  48  72 105 152 196 251 308 374 454
#     4  10  24  45  74 104 144 193 239 309 377 437
#     4  12  24  50  76 110 152 196 252 314 384 446
#
# _framework density 25.032478000000001
#
# number of rings (size 3 to 8) (size 9 to 14) (size 15 to 20)
#    0.000    1.091    2.727    2.727    7.636    2.182 
#    3.273    0.000    0.000    1.091    0.000    0.000 
#    0.000    0.000    0.000    0.000    0.000    0.000 
#
# Total GULP energy -245585.626807 kJ/mol
# GULP energy per Si atom -5581.491518 kJ/mol
# Density = 2.497550 g / cm^3
# Si number density = 25.032478 Si / 1000 Ang^3
#
#
#
# Elastic Constant Matrix: (Units=GPa)
#
#
# Indices 1 2 3 4 5 6 
#
# 1 137.5723 56.6370 19.7717 0.0000 0.0000 0.0000
# 2 56.6370 168.0725 34.8011 0.0000 0.0000 0.0000
# 3 19.7717 34.8011 67.6526 0.0000 0.0000 0.0000
# 4 0.0000 0.0000 0.0000 32.8076 0.0000 0.0000
# 5 0.0000 0.0000 0.0000 0.0000 21.5496 0.0000
# 6 0.0000 0.0000 0.0000 0.0000 0.0000 39.3024
#
#
#
# Elastic Compliance Matrix: (Units=1/GPa)
#
#
# Indices 1 2 3 4 5 6 
#
# 1 0.008517 -0.002635 -0.001133 0.000000 0.000000 0.000000
# 2 -0.002635 0.007475 -0.003075 0.000000 0.000000 0.000000
# 3 -0.001133 -0.003075 0.016694 0.000000 0.000000 0.000000
# 4 0.000000 0.000000 0.000000 0.030481 0.000000 0.000000
# 5 0.000000 0.000000 0.000000 0.000000 0.046404 0.000000
# 6 0.000000 0.000000 0.000000 0.000000 0.000000 0.025444
#
#
# Mechanical properties :
#
#
# Convention : Reuss Voigt Hill
#
# Bulk Modulus (GPa) = 52.63549 66.19080 59.41315
# Shear Modulus (GPa) = 32.25093 36.20445 34.22769
#
# Velocity S-wave (km/s) = 3.59327 3.80715 3.70176
# Velocity P-wave (km/s) = 6.18773 6.76943 6.48511
#
# Compressibility (1/GPa) = 0.01899859
#
# Stress axis : x y z
#
# Youngs Moduli (GPa) = 117.41622 133.78805 59.90052
#
# Poissons Ratio (x) = 0.35257 0.06789
# Poissons Ratio (y) = 0.30942 0.18418
# Poissons Ratio (z) = 0.13308 0.41137
#
# Static dielectric constant tensor:
#      x y z
#    x 1.095150 0.000000 0.000000 
#    y 0.000000 2.001490 0.000000 
#    z 0.000000 0.000000 2.091720 
# 
# From -- ./inp_files/14665.got.cif
#   From: 2010.05.17/outbox.cif.g08.bks.cpg/sg73_8_cif.got.tgz:14665.got - 2010.06.03 17:35:07.
