data_PCOD9532528
_publ_section_title
;
Structure prediction by ZEFSAII (Michael W. Deem and Ramdas Pophale) SiO2 
 PCOD9532528
Probable space group: I B C A 
;
_chemical_formula_sum "Si O2"
_cell_formula_units_Z 80
_cell_length_a 12.095975
_cell_length_b 7.961325
_cell_length_c 30.825940
_cell_angle_alpha 90.000000
_cell_angle_beta 90.000000
_cell_angle_gamma 90.000000
_cell_volume 2968.537657
_symmetry_space_group_name_H-M "I B C A "
_symmetry_group_IT_number 73
_symmetry_cell_setting 'orthorhombic'
loop_
_space_group_symop_operation_xyz
x,y,z
-x,1/2-y,z
x,-y,1/2-z
1/2-x,y,-z
-x,-y,-z
x,1/2+y,-z
-x,y,1/2+z
1/2+x,-y,z
1/2+x,1/2+y,1/2+z
1/2-x,-y,1/2+z
1/2+x,1/2-y,-z
-x,1/2+y,1/2-z
1/2-x,1/2-y,1/2-z
1/2+x,y,1/2-z
1/2-x,1/2+y,z
x,1/2-y,1/2+z
loop_
_atom_site_type_symbol
_atom_site_label
_atom_site_fract_x
_atom_site_fract_y
_atom_site_fract_z
Si Si1 0.695739 0.904598 0.061135
Si Si2 0.382643 0.555210 0.521096
Si Si3 0.583868 0.117403 0.133628
Si Si4 0.424748 0.442387 0.798080
Si Si5 0.744148 0.791052 0.198574
O O1 0.828908 0.915824 0.054173
O O2 0.643590 0.977470 0.104413
O O3 0.634990 0.734201 0.045368
O O4 0.674909 0.050024 0.025880
O O5 0.500000 0.500000 0.500000
O O6 0.500000 0.250000 0.111203
O O7 0.501494 0.031470 0.167672
O O8 0.679697 0.210219 0.160842
O O9 0.463704 0.500000 0.750000
O O10 0.614146 0.248385 0.807504
O O11 0.300903 0.525856 0.801650
O O12 0.750000 0.750000 0.250000
#
# Coordination Sequence:
#
# PCOD9532528 Si02
#       5
#    16  16  16  16  16
#     4  11  25  46  75 109 146 193 255 323 392 481
#     4  11  25  48  76 109 150 198 249 313 396 481
#     4  10  23  42  69 109 152 197 256 326 395 467
#     4   9  19  38  64  97 142 195 250 307 374 446
#     4   9  19  38  64  95 140 196 248 303 369 448
#
# _framework density 26.949293000000001
#
# number of rings (size 3 to 8) (size 9 to 14) (size 15 to 20)
#    0.000    2.000    0.000    3.000    0.000   10.400 
#    0.000    5.000    0.000    0.000    0.000    0.000 
#    0.000    0.000    0.000    0.000    0.000    0.000 
#
# Total GULP energy -222690.475839 kJ/mol
# GULP energy per Si atom -5567.261896 kJ/mol
# Density = 2.688796 g / cm^3
# Si number density = 26.949293 Si / 1000 Ang^3
#
#
#
# Elastic Constant Matrix: (Units=GPa)
#
#
# Indices 1 2 3 4 5 6 
#
# 1 124.1844 40.2529 70.8399 0.0000 0.0000 0.0000
# 2 40.2529 133.2583 57.3405 0.0000 0.0000 0.0000
# 3 70.8399 57.3405 135.2434 0.0000 0.0000 0.0000
# 4 0.0000 0.0000 0.0000 63.1901 0.0000 0.0000
# 5 0.0000 0.0000 0.0000 0.0000 47.4623 0.0000
# 6 0.0000 0.0000 0.0000 0.0000 0.0000 40.9467
#
#
#
# Elastic Compliance Matrix: (Units=1/GPa)
#
#
# Indices 1 2 3 4 5 6 
#
# 1 0.011612 -0.001089 -0.005620 0.000000 0.000000 0.000000
# 2 -0.001089 0.009281 -0.003364 0.000000 0.000000 0.000000
# 3 -0.005620 -0.003364 0.011764 0.000000 0.000000 0.000000
# 4 0.000000 0.000000 0.000000 0.015825 0.000000 0.000000
# 5 0.000000 0.000000 0.000000 0.000000 0.021069 0.000000
# 6 0.000000 0.000000 0.000000 0.000000 0.000000 0.024422
#
#
# Mechanical properties :
#
#
# Convention : Reuss Voigt Hill
#
# Bulk Modulus (GPa) = 79.94128 81.06145 80.50136
# Shear Modulus (GPa) = 42.26854 45.27000 43.76927
#
# Velocity S-wave (km/s) = 3.96466 4.10301 4.03443
# Velocity P-wave (km/s) = 7.11941 7.25195 7.18599
#
# Compressibility (1/GPa) = 0.01250918
#
# Stress axis : x y z
#
# Youngs Moduli (GPa) = 86.12035 107.74803 85.00154
#
# Poissons Ratio (x) = 0.11734 0.47774
# Poissons Ratio (y) = 0.09379 0.28599
# Poissons Ratio (z) = 0.48403 0.36252
#
# Static dielectric constant tensor:
#      x y z
#    x 3.895860 0.000000 0.000000 
#    y 0.000000 2.396080 0.000000 
#    z 0.000000 0.000000 2.043420 
# 
# From -- ./inp_files/33818.got.cif
#   From: 2010.05.17/outbox.cif.g08.bks.cpg/sg73_17_cif.got.tgz:33818.got - 2010.06.03 17:35:07.
