data_PCOD9532009
_publ_section_title
;
Structure prediction by ZEFSAII (Michael W. Deem and Ramdas Pophale) SiO2 
 PCOD9532009
Probable space group: I B C A 
;
_chemical_formula_sum "Si O2"
_cell_formula_units_Z 104
_cell_length_a 21.590610
_cell_length_b 25.844812
_cell_length_c 9.329478
_cell_angle_alpha 90.000000
_cell_angle_beta 90.000000
_cell_angle_gamma 90.000000
_cell_volume 5205.897764
_symmetry_space_group_name_H-M "I B C A "
_symmetry_group_IT_number 73
_symmetry_cell_setting 'orthorhombic'
loop_
_space_group_symop_operation_xyz
x,y,z
-x,1/2-y,z
x,-y,1/2-z
1/2-x,y,-z
-x,-y,-z
x,1/2+y,-z
-x,y,1/2+z
1/2+x,-y,z
1/2+x,1/2+y,1/2+z
1/2-x,-y,1/2+z
1/2+x,1/2-y,-z
-x,1/2+y,1/2-z
1/2-x,1/2-y,1/2-z
1/2+x,y,1/2-z
1/2-x,1/2+y,z
x,1/2-y,1/2+z
loop_
_atom_site_type_symbol
_atom_site_label
_atom_site_fract_x
_atom_site_fract_y
_atom_site_fract_z
Si Si1 0.356342 0.460314 0.381774
Si Si2 0.565629 0.360900 0.816424
Si Si3 0.750000 0.383681 0.000000
Si Si4 0.814547 0.694468 0.993714
Si Si5 0.811697 0.300858 0.171560
Si Si6 0.559476 0.981105 0.588267
Si Si7 0.440340 0.860813 0.025089
O O1 0.341449 0.500000 0.250000
O O2 0.411386 0.420471 0.335721
O O3 0.302863 0.423520 0.446019
O O4 0.381556 0.493962 0.512121
O O5 0.623655 0.327657 0.874429
O O6 0.504002 0.344316 0.899591
O O7 0.554434 0.355475 0.646668
O O8 0.743865 0.340777 0.870020
O O9 0.822452 0.707189 0.160718
O O10 0.750000 0.662482 0.000000
O O11 0.803655 0.746236 0.903877
O O12 0.876189 0.667378 0.936626
O O13 0.565240 0.920062 0.572725
O O14 0.553681 0.000000 0.750000
O O15 0.500000 0.000000 0.500000
#
# Coordination Sequence:
#
# PCOD9532009 Si02
#       7
#    16  16   8  16  16  16  16
#     4  11  22  42  66  90 132 170 216 280 330 403
#     4  10  22  40  65  93 128 170 222 275 336 395
#     4  10  24  42  70  92 126 176 220 266 346 414
#     4  11  24  43  67  96 133 172 223 281 338 411
#     4  10  23  44  67  94 128 174 222 276 347 403
#     4  12  23  38  61  92 126 169 215 263 332 393
#     4  11  23  40  63  98 130 172 221 276 333 399
#
# _framework density 19.977342
#
# number of rings (size 3 to 8) (size 9 to 14) (size 15 to 20)
#    0.000    1.231    3.846    1.846    0.000    3.692 
#    1.385    3.077    0.000    0.000    0.000    0.000 
#    0.000    0.000    0.000    0.000    0.000    0.000 
#
# Total GULP energy -289774.771023 kJ/mol
# GULP energy per Si atom -5572.591750 kJ/mol
# Density = 1.993187 g / cm^3
# Si number density = 19.977342 Si / 1000 Ang^3
#
#
#
# Elastic Constant Matrix: (Units=GPa)
#
#
# Indices 1 2 3 4 5 6 
#
# 1 132.0561 53.6732 39.1470 0.0000 0.0000 0.0000
# 2 53.6732 74.5345 17.9048 0.0000 0.0000 0.0000
# 3 39.1470 17.9048 86.8740 0.0000 0.0000 0.0000
# 4 0.0000 0.0000 0.0000 19.6369 0.0000 0.0000
# 5 0.0000 0.0000 0.0000 0.0000 34.5201 0.0000
# 6 0.0000 0.0000 0.0000 0.0000 0.0000 31.1931
#
#
#
# Elastic Compliance Matrix: (Units=1/GPa)
#
#
# Indices 1 2 3 4 5 6 
#
# 1 0.011757 -0.007568 -0.003738 0.000000 0.000000 0.000000
# 2 -0.007568 0.018987 -0.000503 0.000000 0.000000 0.000000
# 3 -0.003738 -0.000503 0.013299 0.000000 0.000000 0.000000
# 4 0.000000 0.000000 0.000000 0.050925 0.000000 0.000000
# 5 0.000000 0.000000 0.000000 0.000000 0.028969 0.000000
# 6 0.000000 0.000000 0.000000 0.000000 0.000000 0.032058
#
#
# Mechanical properties :
#
#
# Convention : Reuss Voigt Hill
#
# Bulk Modulus (GPa) = 48.96006 57.21275 53.08640
# Shear Modulus (GPa) = 26.82103 29.25267 28.03685
#
# Velocity S-wave (km/s) = 3.66809 3.83076 3.75031
# Velocity P-wave (km/s) = 6.51927 6.94747 6.73677
#
# Compressibility (1/GPa) = 0.02042481
#
# Stress axis : x y z
#
# Youngs Moduli (GPa) = 85.05828 52.66667 75.19372
#
# Poissons Ratio (x) = 0.39859 0.28107
# Poissons Ratio (y) = 0.64373 0.03782
# Poissons Ratio (z) = 0.31794 0.02649
#
# Static dielectric constant tensor:
#      x y z
#    x 1.789250 0.000000 0.000000 
#    y 0.000000 1.715480 0.000000 
#    z 0.000000 0.000000 1.700660 
# 
# From -- ./inp_files/6540.got.cif
#   From: 2010.05.17/outbox.cif.g08.bks.cpg/sg73_4_cif.got.tgz:6540.got - 2010.06.03 17:35:07.
