data_PCOD9532745
_publ_section_title
;
Structure prediction by ZEFSAII (Michael W. Deem and Ramdas Pophale) SiO2 
 PCOD9532745
Probable space group: I B C A 
;
_chemical_formula_sum "Si O2"
_cell_formula_units_Z 48
_cell_length_a 9.419650
_cell_length_b 11.825346
_cell_length_c 18.349268
_cell_angle_alpha 90.000000
_cell_angle_beta 90.000000
_cell_angle_gamma 90.000000
_cell_volume 2043.936347
_symmetry_space_group_name_H-M "I B C A "
_symmetry_group_IT_number 73
_symmetry_cell_setting 'orthorhombic'
loop_
_space_group_symop_operation_xyz
x,y,z
-x,1/2-y,z
x,-y,1/2-z
1/2-x,y,-z
-x,-y,-z
x,1/2+y,-z
-x,y,1/2+z
1/2+x,-y,z
1/2+x,1/2+y,1/2+z
1/2-x,-y,1/2+z
1/2+x,1/2-y,-z
-x,1/2+y,1/2-z
1/2-x,1/2-y,1/2-z
1/2+x,y,1/2-z
1/2-x,1/2+y,z
x,1/2-y,1/2+z
loop_
_atom_site_type_symbol
_atom_site_label
_atom_site_fract_x
_atom_site_fract_y
_atom_site_fract_z
Si Si1 0.481062 0.419995 0.866492
Si Si2 0.158523 0.642640 0.616879
Si Si3 0.500000 0.750000 0.013503
Si Si4 0.500000 0.750000 0.764151
O O1 0.313653 0.410641 0.882436
O O2 0.544968 0.543709 0.868059
O O3 0.553367 0.346835 0.931247
O O4 0.500173 0.356685 0.789850
O O5 0.115669 0.699488 0.541180
O O6 0.133232 0.733733 0.681291
#
# Coordination Sequence:
#
# PCOD9532745 Si02
#       4
#    16  16   8   8
#     4  11  24  42  66  95 128 168 214 264 318 378
#     4  11  24  42  66  95 128 168 214 264 318 378
#     4  10  24  42  62  90 128 166 208 258 316 378
#     4  10  24  42  64  94 130 170 214 260 314 380
#
# _framework density 23.484099000000001
#
# number of rings (size 3 to 8) (size 9 to 14) (size 15 to 20)
#    0.000    1.333    0.000    4.000    0.000   18.667 
#    0.000    0.000    0.000    0.000    0.000    0.000 
#    0.000    0.000    0.000    0.000    0.000    0.000 
#
# Total GULP energy -134357.850821 kJ/mol
# GULP energy per Si atom -5598.243784 kJ/mol
# Density = 2.343065 g / cm^3
# Si number density = 23.484099 Si / 1000 Ang^3
#
#
#
# Elastic Constant Matrix: (Units=GPa)
#
#
# Indices 1 2 3 4 5 6 
#
# 1 79.2497 40.0565 26.7240 0.0000 0.0000 0.0000
# 2 40.0565 97.9698 59.9751 0.0000 0.0000 0.0000
# 3 26.7240 59.9751 186.8798 0.0000 0.0000 0.0000
# 4 0.0000 0.0000 0.0000 18.8872 0.0000 0.0000
# 5 0.0000 0.0000 0.0000 0.0000 24.2584 0.0000
# 6 0.0000 0.0000 0.0000 0.0000 0.0000 20.1686
#
#
#
# Elastic Compliance Matrix: (Units=1/GPa)
#
#
# Indices 1 2 3 4 5 6 
#
# 1 0.015914 -0.006364 -0.000233 0.000000 0.000000 0.000000
# 2 -0.006364 0.015248 -0.003983 0.000000 0.000000 0.000000
# 3 -0.000233 -0.003983 0.006663 0.000000 0.000000 0.000000
# 4 0.000000 0.000000 0.000000 0.052946 0.000000 0.000000
# 5 0.000000 0.000000 0.000000 0.000000 0.041223 0.000000
# 6 0.000000 0.000000 0.000000 0.000000 0.000000 0.049582
#
#
# Mechanical properties :
#
#
# Convention : Reuss Voigt Hill
#
# Bulk Modulus (GPa) = 60.01268 68.62340 64.31804
# Shear Modulus (GPa) = 24.00499 28.48574 26.24536
#
# Velocity S-wave (km/s) = 3.20062 3.48656 3.34665
# Velocity P-wave (km/s) = 6.26648 6.74484 6.51005
#
# Compressibility (1/GPa) = 0.01666315
#
# Stress axis : x y z
#
# Youngs Moduli (GPa) = 62.83966 65.58383 150.08716
#
# Poissons Ratio (x) = 0.41735 0.03503
# Poissons Ratio (y) = 0.39989 0.59786
# Poissons Ratio (z) = 0.01467 0.26125
#
# Static dielectric constant tensor:
#      x y z
#    x 1.910610 0.000000 0.000000 
#    y 0.000000 1.865780 0.000000 
#    z 0.000000 0.000000 1.864630 
# 
# From -- ./inp_files/4325.got.cif
#   From: 2010.05.17/outbox.cif.g08.bks.cpg/sg73_3_cif.got.tgz:4325.got - 2010.06.03 17:35:07.
