data_PCOD9532744
_publ_section_title
;
Structure prediction by ZEFSAII (Michael W. Deem and Ramdas Pophale) SiO2 
 PCOD9532744
Probable space group: I B C A 
;
_chemical_formula_sum "Si O2"
_cell_formula_units_Z 104
_cell_length_a 7.072508
_cell_length_b 29.283152
_cell_length_c 21.201558
_cell_angle_alpha 90.000000
_cell_angle_beta 90.000000
_cell_angle_gamma 90.000000
_cell_volume 4390.955598
_symmetry_space_group_name_H-M "I B C A "
_symmetry_group_IT_number 73
_symmetry_cell_setting 'orthorhombic'
loop_
_space_group_symop_operation_xyz
x,y,z
-x,1/2-y,z
x,-y,1/2-z
1/2-x,y,-z
-x,-y,-z
x,1/2+y,-z
-x,y,1/2+z
1/2+x,-y,z
1/2+x,1/2+y,1/2+z
1/2-x,-y,1/2+z
1/2+x,1/2-y,-z
-x,1/2+y,1/2-z
1/2-x,1/2-y,1/2-z
1/2+x,y,1/2-z
1/2-x,1/2+y,z
x,1/2-y,1/2+z
loop_
_atom_site_type_symbol
_atom_site_label
_atom_site_fract_x
_atom_site_fract_y
_atom_site_fract_z
Si Si1 0.250000 0.182661 0.000000
Si Si2 0.052414 0.302615 0.912909
Si Si3 0.580837 0.388904 0.313611
Si Si4 0.981084 0.059358 0.442157
Si Si5 0.009173 0.799335 0.882796
Si Si6 0.426025 0.452325 0.923096
Si Si7 0.476222 0.623067 0.830828
O O1 0.356056 0.203675 0.938835
O O2 0.054605 0.166887 0.965811
O O3 0.278969 0.305940 0.911282
O O4 0.964119 0.323384 0.848720
O O5 0.000000 0.250000 0.924322
O O6 0.476469 0.343145 0.338418
O O7 0.513841 0.431383 0.356079
O O8 0.582373 0.391739 0.238461
O O9 0.799091 0.383338 0.330227
O O10 0.950992 0.065956 0.517499
O O11 0.208997 0.061484 0.435067
O O12 0.899375 0.091572 0.387413
O O13 0.929896 0.006969 0.426412
O O14 0.000000 0.750000 0.849515
#
# Coordination Sequence:
#
# PCOD9532744 Si02
#       7
#     8  16  16  16  16  16  16
#     4  12  24  40  66  96 130 162 220 254 328 380
#     4  11  24  41  62  96 130 168 208 267 314 376
#     4  10  24  42  62  87 125 167 211 259 313 374
#     4   9  19  39  62  90 121 157 199 257 320 373
#     4  11  24  41  62  96 130 168 208 267 314 376
#     4   9  19  39  62  90 121 157 199 257 320 373
#     4  10  24  42  62  87 125 167 211 259 313 374
#
# _framework density 23.685048999999999
#
# number of rings (size 3 to 8) (size 9 to 14) (size 15 to 20)
#    0.000    1.846    1.538    0.923    4.308    2.462 
#    0.000    6.154    0.000    0.000    0.000    0.000 
#    0.000    0.000    0.000    0.000    0.000    0.000 
#
# Total GULP energy -289827.468293 kJ/mol
# GULP energy per Si atom -5573.605159 kJ/mol
# Density = 2.363114 g / cm^3
# Si number density = 23.685049 Si / 1000 Ang^3
#
#
#
# Elastic Constant Matrix: (Units=GPa)
#
#
# Indices 1 2 3 4 5 6 
#
# 1 90.2111 -22.8333 -13.3806 0.0000 0.0000 0.0000
# 2 -22.8333 83.7238 70.9724 0.0000 0.0000 0.0000
# 3 -13.3806 70.9724 152.9454 0.0000 0.0000 0.0000
# 4 0.0000 0.0000 0.0000 17.4346 0.0000 0.0000
# 5 0.0000 0.0000 0.0000 0.0000 33.9852 0.0000
# 6 0.0000 0.0000 0.0000 0.0000 0.0000 16.7473
#
#
#
# Elastic Compliance Matrix: (Units=1/GPa)
#
#
# Indices 1 2 3 4 5 6 
#
# 1 0.011962 0.003915 -0.000770 0.000000 0.000000 0.000000
# 2 0.003915 0.020970 -0.009389 0.000000 0.000000 0.000000
# 3 -0.000770 -0.009389 0.010828 0.000000 0.000000 0.000000
# 4 0.000000 0.000000 0.000000 0.057357 0.000000 0.000000
# 5 0.000000 0.000000 0.000000 0.000000 0.029425 0.000000
# 6 0.000000 0.000000 0.000000 0.000000 0.000000 0.059711
#
#
# Mechanical properties :
#
#
# Convention : Reuss Voigt Hill
#
# Bulk Modulus (GPa) = 31.97684 44.04413 38.01049
# Shear Modulus (GPa) = 23.45611 33.10821 28.28216
#
# Velocity S-wave (km/s) = 3.15037 3.74284 3.45931
# Velocity P-wave (km/s) = 5.17332 6.10857 5.66030
#
# Compressibility (1/GPa) = 0.03127263
#
# Stress axis : x y z
#
# Youngs Moduli (GPa) = 83.59909 47.68609 92.35723
#
# Poissons Ratio (x) = -0.18670 0.07115
# Poissons Ratio (y) = -0.32731 0.86710
# Poissons Ratio (z) = 0.06440 0.44770
#
# Static dielectric constant tensor:
#      x y z
#    x 1.978530 0.000000 0.000000 
#    y 0.000000 1.949240 0.000000 
#    z 0.000000 0.000000 1.949760 
# 
# From -- ./inp_files/6694.got.cif
#   From: 2010.05.17/outbox.cif.g08.bks.cpg/sg73_4_cif.got.tgz:6694.got - 2010.06.03 17:35:07.
