data_PCOD9532041
_publ_section_title
;
Structure prediction by ZEFSAII (Michael W. Deem and Ramdas Pophale) SiO2 
 PCOD9532041
Probable space group: I B C A 
;
_chemical_formula_sum "Si O2"
_cell_formula_units_Z 64
_cell_length_a 4.930831
_cell_length_b 18.013541
_cell_length_c 30.033114
_cell_angle_alpha 90.000000
_cell_angle_beta 90.000000
_cell_angle_gamma 90.000000
_cell_volume 2667.593034
_symmetry_space_group_name_H-M "I B C A "
_symmetry_group_IT_number 73
_symmetry_cell_setting 'orthorhombic'
loop_
_space_group_symop_operation_xyz
x,y,z
-x,1/2-y,z
x,-y,1/2-z
1/2-x,y,-z
-x,-y,-z
x,1/2+y,-z
-x,y,1/2+z
1/2+x,-y,z
1/2+x,1/2+y,1/2+z
1/2-x,-y,1/2+z
1/2+x,1/2-y,-z
-x,1/2+y,1/2-z
1/2-x,1/2-y,1/2-z
1/2+x,y,1/2-z
1/2-x,1/2+y,z
x,1/2-y,1/2+z
loop_
_atom_site_type_symbol
_atom_site_label
_atom_site_fract_x
_atom_site_fract_y
_atom_site_fract_z
Si Si1 0.500000 0.250000 0.337641
Si Si2 0.745871 0.546112 0.635619
Si Si3 0.750000 0.805652 0.500000
Si Si4 0.871742 0.168506 0.905462
Si Si5 0.319500 0.135842 0.220379
O O1 0.353691 0.188218 0.368331
O O2 0.281312 0.292343 0.307153
O O3 0.438639 0.524473 0.625372
O O4 0.766874 0.567200 0.687639
O O5 0.895487 0.613330 0.610844
O O6 0.500000 0.750000 0.507219
O O7 0.771842 0.852483 0.545330
O O8 0.000000 0.250000 0.912187
O O9 0.627583 0.134767 0.236400
#
# Coordination Sequence:
#
# PCOD9532041 Si02
#       5
#     8  16   8  16  16
#     4  12  22  42  70 108 140 186 236 308 368 422
#     4  12  27  46  68 100 142 190 235 289 360 430
#     4  10  22  40  70 112 140 178 238 304 354 426
#     4  11  23  44  74 105 142 187 242 296 359 435
#     4  12  26  43  67  99 137 182 236 296 350 415
#
# _framework density 23.991667
#
# number of rings (size 3 to 8) (size 9 to 14) (size 15 to 20)
#    0.000    0.500    3.750    5.250    0.000    3.000 
#    0.000    1.250    0.000    0.000    0.000    0.000 
#    0.000    0.000    0.000    0.000    0.000    0.000 
#
# Total GULP energy -179271.852034 kJ/mol
# GULP energy per Si atom -5602.245376 kJ/mol
# Density = 2.393706 g / cm^3
# Si number density = 23.991667 Si / 1000 Ang^3
#
#
#
# Elastic Constant Matrix: (Units=GPa)
#
#
# Indices 1 2 3 4 5 6 
#
# 1 90.0247 0.4228 2.3252 0.0000 0.0000 0.0000
# 2 0.4228 72.6039 -1.2193 0.0000 0.0000 0.0000
# 3 2.3252 -1.2193 105.4645 0.0000 0.0000 0.0000
# 4 0.0000 0.0000 0.0000 19.8742 0.0000 0.0000
# 5 0.0000 0.0000 0.0000 0.0000 35.1848 0.0000
# 6 0.0000 0.0000 0.0000 0.0000 0.0000 40.1027
#
#
#
# Elastic Compliance Matrix: (Units=1/GPa)
#
#
# Indices 1 2 3 4 5 6 
#
# 1 0.011115 -0.000069 -0.000246 0.000000 0.000000 0.000000
# 2 -0.000069 0.013776 0.000161 0.000000 0.000000 0.000000
# 3 -0.000246 0.000161 0.009489 0.000000 0.000000 0.000000
# 4 0.000000 0.000000 0.000000 0.050316 0.000000 0.000000
# 5 0.000000 0.000000 0.000000 0.000000 0.028421 0.000000
# 6 0.000000 0.000000 0.000000 0.000000 0.000000 0.024936
#
#
# Mechanical properties :
#
#
# Convention : Reuss Voigt Hill
#
# Bulk Modulus (GPa) = 29.34916 30.12784 29.73850
# Shear Modulus (GPa) = 33.39578 36.80329 35.09953
#
# Velocity S-wave (km/s) = 3.73496 3.92088 3.82905
# Velocity P-wave (km/s) = 5.55514 5.75175 5.65430
#
# Compressibility (1/GPa) = 0.03407252
#
# Stress axis : x y z
#
# Youngs Moduli (GPa) = 89.97061 72.58753 105.38362
#
# Poissons Ratio (x) = 0.00500 0.02591
# Poissons Ratio (y) = 0.00620 -0.01694
# Poissons Ratio (z) = 0.02212 -0.01167
#
# Static dielectric constant tensor:
#      x y z
#    x 1.916100 0.000000 0.000000 
#    y 0.000000 1.965770 0.000000 
#    z 0.000000 0.000000 1.956370 
# 
# From -- ./inp_files/1158.got.cif
#   From: 2010.05.17/outbox.cif.g08.bks.cpg/sg73_1_cif.got.tgz:1158.got - 2010.06.03 17:35:07.
