data_PCOD9532699
_publ_section_title
;
Structure prediction by ZEFSAII (Michael W. Deem and Ramdas Pophale) SiO2 
 PCOD9532699
Probable space group: I B C A 
;
_chemical_formula_sum "Si O2"
_cell_formula_units_Z 104
_cell_length_a 19.213403
_cell_length_b 8.913714
_cell_length_c 31.107064
_cell_angle_alpha 90.000000
_cell_angle_beta 90.000000
_cell_angle_gamma 90.000000
_cell_volume 5327.482237
_symmetry_space_group_name_H-M "I B C A "
_symmetry_group_IT_number 73
_symmetry_cell_setting 'orthorhombic'
loop_
_space_group_symop_operation_xyz
x,y,z
-x,1/2-y,z
x,-y,1/2-z
1/2-x,y,-z
-x,-y,-z
x,1/2+y,-z
-x,y,1/2+z
1/2+x,-y,z
1/2+x,1/2+y,1/2+z
1/2-x,-y,1/2+z
1/2+x,1/2-y,-z
-x,1/2+y,1/2-z
1/2-x,1/2-y,1/2-z
1/2+x,y,1/2-z
1/2-x,1/2+y,z
x,1/2-y,1/2+z
loop_
_atom_site_type_symbol
_atom_site_label
_atom_site_fract_x
_atom_site_fract_y
_atom_site_fract_z
Si Si1 0.664295 0.301060 0.343337
Si Si2 0.074119 0.669569 0.425992
Si Si3 0.931152 0.186757 0.411366
Si Si4 0.826959 0.319742 0.750651
Si Si5 0.250000 0.448145 0.500000
Si Si6 0.183648 0.659864 0.155885
Si Si7 0.851080 0.197493 0.983326
O O1 0.611459 0.272296 0.382366
O O2 0.637866 0.270947 0.294275
O O3 0.737153 0.214241 0.348187
O O4 0.681241 0.478961 0.344983
O O5 0.063502 0.490113 0.421088
O O6 0.124677 0.694499 0.467044
O O7 0.000000 0.750000 0.432447
O O8 0.864077 0.215200 0.382439
O O9 0.918312 0.282619 0.454417
O O10 0.000000 0.250000 0.389629
O O11 0.822277 0.500000 0.750000
O O12 0.750000 0.250000 0.750000
O O13 0.850588 0.284307 0.799049
O O14 0.198682 0.339587 0.474393
O O15 0.302341 0.555210 0.474272
#
# Coordination Sequence:
#
# PCOD9532699 Si02
#       7
#    16  16  16  16   8  16  16
#     4   9  19  34  57  84 110 141 182 228 277 327
#     4  11  25  40  56  80 114 152 189 226 275 330
#     4  11  25  40  56  80 114 152 189 226 275 330
#     4   8  14  30  53  80 110 138 172 224 279 326
#     4  10  24  38  62  90 108 136 190 234 272 330
#     4   9  19  34  57  84 110 141 182 228 277 327
#     4  11  23  40  60  84 116 142 182 228 284 322
#
# _framework density 19.521418000000001
#
# number of rings (size 3 to 8) (size 9 to 14) (size 15 to 20)
#    0.000    2.154    1.538    0.462    6.462    2.462 
#    0.000    0.769    0.000    0.000    0.000    0.000 
#    0.000    0.000    0.000    0.000    0.000    0.000 
#
# Total GULP energy -289776.187343 kJ/mol
# GULP energy per Si atom -5572.618987 kJ/mol
# Density = 1.947699 g / cm^3
# Si number density = 19.521418 Si / 1000 Ang^3
#
#
#
# Elastic Constant Matrix: (Units=GPa)
#
#
# Indices 1 2 3 4 5 6 
#
# 1 72.5099 21.1809 25.5958 0.0000 0.0000 0.0000
# 2 21.1809 40.0872 14.3958 0.0000 0.0000 0.0000
# 3 25.5958 14.3958 107.0899 0.0000 0.0000 0.0000
# 4 0.0000 0.0000 0.0000 14.3200 0.0000 0.0000
# 5 0.0000 0.0000 0.0000 0.0000 15.7104 0.0000
# 6 0.0000 0.0000 0.0000 0.0000 0.0000 28.0070
#
#
#
# Elastic Compliance Matrix: (Units=1/GPa)
#
#
# Indices 1 2 3 4 5 6 
#
# 1 0.017199 -0.007997 -0.003036 0.000000 0.000000 0.000000
# 2 -0.007997 0.029930 -0.002112 0.000000 0.000000 0.000000
# 3 -0.003036 -0.002112 0.010347 0.000000 0.000000 0.000000
# 4 0.000000 0.000000 0.000000 0.069832 0.000000 0.000000
# 5 0.000000 0.000000 0.000000 0.000000 0.063652 0.000000
# 6 0.000000 0.000000 0.000000 0.000000 0.000000 0.035705
#
#
# Mechanical properties :
#
#
# Convention : Reuss Voigt Hill
#
# Bulk Modulus (GPa) = 32.06552 38.00357 35.03455
# Shear Modulus (GPa) = 18.98607 22.17510 20.58059
#
# Velocity S-wave (km/s) = 3.12200 3.37402 3.25045
# Velocity P-wave (km/s) = 5.42746 5.88970 5.66330
#
# Compressibility (1/GPa) = 0.03118614
#
# Stress axis : x y z
#
# Youngs Moduli (GPa) = 58.14329 33.41184 96.64251
#
# Poissons Ratio (x) = 0.26720 0.29338
# Poissons Ratio (y) = 0.46499 0.20410
# Poissons Ratio (z) = 0.17651 0.07056
#
# Static dielectric constant tensor:
#      x y z
#    x 1.649290 0.000000 0.000000 
#    y 0.000000 1.691530 0.000000 
#    z 0.000000 0.000000 1.752750 
# 
# From -- ./inp_files/34677.got.cif
#   From: 2010.05.17/outbox.cif.g08.bks.cpg/sg73_18_cif.got.tgz:34677.got - 2010.06.03 17:35:07.
