data_PCOD9532156
_publ_section_title
;
Structure prediction by ZEFSAII (Michael W. Deem and Ramdas Pophale) SiO2 
 PCOD9532156
Probable space group: I B C A 
;
_chemical_formula_sum "Si O2"
_cell_formula_units_Z 72
_cell_length_a 12.882060
_cell_length_b 17.674664
_cell_length_c 13.494171
_cell_angle_alpha 90.000000
_cell_angle_beta 90.000000
_cell_angle_gamma 90.000000
_cell_volume 3072.434927
_symmetry_space_group_name_H-M "I B C A "
_symmetry_group_IT_number 73
_symmetry_cell_setting 'orthorhombic'
loop_
_space_group_symop_operation_xyz
x,y,z
-x,1/2-y,z
x,-y,1/2-z
1/2-x,y,-z
-x,-y,-z
x,1/2+y,-z
-x,y,1/2+z
1/2+x,-y,z
1/2+x,1/2+y,1/2+z
1/2-x,-y,1/2+z
1/2+x,1/2-y,-z
-x,1/2+y,1/2-z
1/2-x,1/2-y,1/2-z
1/2+x,y,1/2-z
1/2-x,1/2+y,z
x,1/2-y,1/2+z
loop_
_atom_site_type_symbol
_atom_site_label
_atom_site_fract_x
_atom_site_fract_y
_atom_site_fract_z
Si Si1 0.584370 0.812200 0.137673
Si Si2 0.791506 0.958162 0.606504
Si Si3 0.721998 0.615999 0.309511
Si Si4 0.977685 0.383151 0.321948
Si Si5 0.500000 0.250000 0.554560
O O1 0.500000 0.750000 0.174825
O O2 0.706727 0.812300 0.160993
O O3 0.550243 0.882838 0.205606
O O4 0.565062 0.803426 0.020974
O O5 0.750000 0.933683 0.500000
O O6 0.741838 0.908083 0.695212
O O7 0.914855 0.947670 0.621550
O O8 0.759919 0.044433 0.625821
O O9 0.600436 0.621184 0.327471
O O10 0.936956 0.306656 0.375772
#
# Coordination Sequence:
#
# PCOD9532156 Si02
#       5
#    16  16  16  16   8
#     4   9  22  42  61  97 135 168 224 273 331 400
#     4  10  25  44  68 103 131 176 230 274 342 405
#     4  10  24  44  69  95 137 181 215 288 343 392
#     4  11  23  45  67  98 135 173 229 279 335 409
#     4  10  22  42  66  98 126 184 212 276 330 410
#
# _framework density 23.434182
#
# number of rings (size 3 to 8) (size 9 to 14) (size 15 to 20)
#    0.667    1.333    1.111    0.000    6.222    8.889 
#    4.000    0.000    0.000    0.000    0.000    0.000 
#    0.000    0.000    0.000    0.000    0.000    0.000 
#
# Total GULP energy -200589.235557 kJ/mol
# GULP energy per Si atom -5571.923210 kJ/mol
# Density = 2.338085 g / cm^3
# Si number density = 23.434182 Si / 1000 Ang^3
#
#
#
# Elastic Constant Matrix: (Units=GPa)
#
#
# Indices 1 2 3 4 5 6 
#
# 1 187.3036 26.1176 44.4983 0.0000 0.0000 0.0000
# 2 26.1176 51.6468 30.4346 -0.0001 0.0000 0.0000
# 3 44.4983 30.4346 147.6557 0.0000 0.0000 0.0000
# 4 0.0000 -0.0001 0.0000 21.9076 0.0000 0.0000
# 5 0.0000 0.0000 0.0000 0.0000 21.8376 0.0000
# 6 0.0000 0.0000 0.0000 0.0000 0.0000 29.5166
#
#
#
# Elastic Compliance Matrix: (Units=1/GPa)
#
#
# Indices 1 2 3 4 5 6 
#
# 1 0.005968 -0.002229 -0.001339 0.000000 0.000000 0.000000
# 2 -0.002229 0.022872 -0.004043 0.000000 0.000000 0.000000
# 3 -0.001339 -0.004043 0.008009 0.000000 0.000000 0.000000
# 4 0.000000 0.000000 0.000000 0.045646 0.000000 0.000000
# 5 0.000000 0.000000 0.000000 0.000000 0.045793 0.000000
# 6 0.000000 0.000000 0.000000 0.000000 0.000000 0.033879
#
#
# Mechanical properties :
#
#
# Convention : Reuss Voigt Hill
#
# Bulk Modulus (GPa) = 46.23679 65.41188 55.82434
# Shear Modulus (GPa) = 27.08603 33.68941 30.38772
#
# Velocity S-wave (km/s) = 3.40344 3.79571 3.60492
# Velocity P-wave (km/s) = 5.93447 6.86902 6.41878
#
# Compressibility (1/GPa) = 0.02162780
#
# Stress axis : x y z
#
# Youngs Moduli (GPa) = 167.56470 43.72233 124.85448
#
# Poissons Ratio (x) = 0.09745 0.16719
# Poissons Ratio (y) = 0.37347 0.50474
# Poissons Ratio (z) = 0.22439 0.17675
#
# Static dielectric constant tensor:
#      x y z
#    x 1.929350 0.000000 0.000000 
#    y 0.000000 1.920200 0.000000 
#    z 0.000000 0.000000 1.883120 
# 
# From -- ./inp_files/12561.got.cif
#   From: 2010.05.17/outbox.cif.g08.bks.cpg/sg73_7_cif.got.tgz:12561.got - 2010.06.03 17:35:07.
