data_PCOD9532133
_publ_section_title
;
Structure prediction by ZEFSAII (Michael W. Deem and Ramdas Pophale) SiO2 
 PCOD9532133
Probable space group: I B C A 
;
_chemical_formula_sum "Si O2"
_cell_formula_units_Z 72
_cell_length_a 4.996810
_cell_length_b 31.339352
_cell_length_c 18.459056
_cell_angle_alpha 90.000000
_cell_angle_beta 90.000000
_cell_angle_gamma 90.000000
_cell_volume 2890.628869
_symmetry_space_group_name_H-M "I B C A "
_symmetry_group_IT_number 73
_symmetry_cell_setting 'orthorhombic'
loop_
_space_group_symop_operation_xyz
x,y,z
-x,1/2-y,z
x,-y,1/2-z
1/2-x,y,-z
-x,-y,-z
x,1/2+y,-z
-x,y,1/2+z
1/2+x,-y,z
1/2+x,1/2+y,1/2+z
1/2-x,-y,1/2+z
1/2+x,1/2-y,-z
-x,1/2+y,1/2-z
1/2-x,1/2-y,1/2-z
1/2+x,y,1/2-z
1/2-x,1/2+y,z
x,1/2-y,1/2+z
loop_
_atom_site_type_symbol
_atom_site_label
_atom_site_fract_x
_atom_site_fract_y
_atom_site_fract_z
Si Si1 0.536357 0.017576 0.832962
Si Si2 0.250000 0.278273 0.000000
Si Si3 0.217984 0.410117 0.578356
Si Si4 0.235502 0.145908 0.400415
Si Si5 0.050604 0.201718 0.208456
O O1 0.395357 0.061300 0.855040
O O2 0.580076 0.000000 0.750000
O O3 0.830960 0.016757 0.865536
O O4 0.500000 0.250000 0.977448
O O5 0.351604 0.310474 0.061344
O O6 0.250000 0.433599 0.500000
O O7 0.481478 0.385065 0.605593
O O8 0.975634 0.378025 0.557563
O O9 0.411654 0.163255 0.333445
O O10 0.868364 0.199313 0.281429
O O11 0.000000 0.250000 0.181395
#
# Coordination Sequence:
#
# PCOD9532133 Si02
#       5
#    16   8  16  16  16
#     4  10  23  46  69 101 135 175 224 283 347 432
#     4  12  24  40  68  98 140 194 236 282 334 396
#     4  12  24  44  70  98 144 182 226 296 354 422
#     4  12  24  44  64 104 141 182 237 288 350 412
#     4  10  22  42  63  91 132 182 236 289 343 410
#
# _framework density 24.908076999999999
#
# number of rings (size 3 to 8) (size 9 to 14) (size 15 to 20)
#    0.000    0.889    2.222    4.667    0.000    3.556 
#   24.000    0.000    0.000    0.000    0.000    0.000 
#    0.000    0.000    0.000    0.000    0.000    0.000 
#
# Total GULP energy -200545.084656 kJ/mol
# GULP energy per Si atom -5570.696796 kJ/mol
# Density = 2.485138 g / cm^3
# Si number density = 24.908077 Si / 1000 Ang^3
#
#
#
# Elastic Constant Matrix: (Units=GPa)
#
#
# Indices 1 2 3 4 5 6 
#
# 1 135.6522 13.8596 -9.3588 0.0000 0.0000 0.0000
# 2 13.8596 87.2887 26.0557 0.0000 0.0000 0.0000
# 3 -9.3588 26.0557 73.8922 0.0000 0.0000 0.0000
# 4 0.0000 0.0000 0.0000 38.4260 0.0000 0.0000
# 5 0.0000 0.0000 0.0000 0.0000 11.1960 0.0000
# 6 0.0000 0.0000 0.0000 0.0000 0.0000 46.6204
#
#
#
# Elastic Compliance Matrix: (Units=1/GPa)
#
#
# Indices 1 2 3 4 5 6 
#
# 1 0.007651 -0.001681 0.001562 0.000000 0.000000 0.000000
# 2 -0.001681 0.013173 -0.004858 0.000000 0.000000 0.000000
# 3 0.001562 -0.004858 0.015444 0.000000 0.000000 0.000000
# 4 0.000000 0.000000 0.000000 0.026024 0.000000 0.000000
# 5 0.000000 0.000000 0.000000 0.000000 0.089317 0.000000
# 6 0.000000 0.000000 0.000000 0.000000 0.000000 0.021450
#
#
# Mechanical properties :
#
#
# Convention : Reuss Voigt Hill
#
# Bulk Modulus (GPa) = 38.00243 39.77180 38.88711
# Shear Modulus (GPa) = 26.07075 37.00026 31.53551
#
# Velocity S-wave (km/s) = 3.23875 3.85836 3.56206
# Velocity P-wave (km/s) = 5.41075 5.98760 5.70647
#
# Compressibility (1/GPa) = 0.02631411
#
# Stress axis : x y z
#
# Youngs Moduli (GPa) = 130.69664 75.91127 64.74978
#
# Poissons Ratio (x) = 0.12761 -0.10113
# Poissons Ratio (y) = 0.21971 0.31456
# Poissons Ratio (z) = -0.20413 0.36878
#
# Static dielectric constant tensor:
#      x y z
#    x 2.005430 0.000000 0.000000 
#    y 0.000000 2.011030 0.000000 
#    z 0.000000 0.000000 2.329520 
# 
# From -- ./inp_files/24421.got.cif
#   From: 2010.05.17/outbox.cif.g08.bks.cpg/sg73_13_cif.got.tgz:24421.got - 2010.06.03 17:35:07.
