data_PCOD9532593
_publ_section_title
;
Structure prediction by ZEFSAII (Michael W. Deem and Ramdas Pophale) SiO2 
 PCOD9532593
Probable space group: I B C A 
;
_chemical_formula_sum "Si O2"
_cell_formula_units_Z 88
_cell_length_a 16.250211
_cell_length_b 11.290722
_cell_length_c 22.445215
_cell_angle_alpha 90.000000
_cell_angle_beta 90.000000
_cell_angle_gamma 90.000000
_cell_volume 4118.172068
_symmetry_space_group_name_H-M "I B C A "
_symmetry_group_IT_number 73
_symmetry_cell_setting 'orthorhombic'
loop_
_space_group_symop_operation_xyz
x,y,z
-x,1/2-y,z
x,-y,1/2-z
1/2-x,y,-z
-x,-y,-z
x,1/2+y,-z
-x,y,1/2+z
1/2+x,-y,z
1/2+x,1/2+y,1/2+z
1/2-x,-y,1/2+z
1/2+x,1/2-y,-z
-x,1/2+y,1/2-z
1/2-x,1/2-y,1/2-z
1/2+x,y,1/2-z
1/2-x,1/2+y,z
x,1/2-y,1/2+z
loop_
_atom_site_type_symbol
_atom_site_label
_atom_site_fract_x
_atom_site_fract_y
_atom_site_fract_z
Si Si1 0.196795 0.091810 0.842659
Si Si2 0.299645 0.783784 0.555405
Si Si3 0.416206 0.881393 0.133940
Si Si4 0.909378 0.247832 0.759850
Si Si5 0.322890 0.500000 0.250000
Si Si6 0.533308 0.120529 0.470307
O O1 0.239848 0.150488 0.898996
O O2 0.379609 0.115000 0.750198
O O3 0.262820 0.011917 0.806965
O O4 0.119156 0.011918 0.858960
O O5 0.250000 0.731576 0.500000
O O6 0.351687 0.687815 0.592003
O O7 0.368540 0.872724 0.529293
O O8 0.418464 0.818587 0.197735
O O9 0.501495 0.882393 0.098197
O O10 0.838323 0.309798 0.798025
O O11 0.000000 0.250000 0.788793
O O12 0.500000 0.250000 0.494025
O O13 0.500000 0.000000 0.500000
#
# Coordination Sequence:
#
# PCOD9532593 Si02
#       6
#    16  16  16  16   8  16
#     4  12  24  43  71 104 140 178 237 295 351 427
#     4  11  24  43  67 102 136 184 232 287 355 421
#     4  11  23  44  69  94 141 182 226 292 353 424
#     4  12  26  44  69 105 139 187 235 287 365 429
#     4  12  24  42  72 100 140 182 234 296 350 420
#     4  10  23  44  71  98 136 188 233 288 353 426
#
# _framework density 21.368704000000001
#
# number of rings (size 3 to 8) (size 9 to 14) (size 15 to 20)
#    0.000    0.727    3.636    4.364    2.545    3.636 
#    0.000    9.091    0.000    0.000    0.000    0.000 
#    0.000    0.000    0.000    0.000    0.000    0.000 
#
# Total GULP energy -246133.768536 kJ/mol
# GULP energy per Si atom -5593.949285 kJ/mol
# Density = 2.132007 g / cm^3
# Si number density = 21.368704 Si / 1000 Ang^3
#
#
#
# Elastic Constant Matrix: (Units=GPa)
#
#
# Indices 1 2 3 4 5 6 
#
# 1 82.0461 7.4510 16.9366 0.0000 0.0000 0.0000
# 2 7.4510 84.0733 16.7952 0.0000 0.0000 0.0000
# 3 16.9366 16.7952 73.8215 0.0000 0.0000 0.0000
# 4 0.0000 0.0000 0.0000 16.6422 0.0000 0.0000
# 5 0.0000 0.0000 0.0000 0.0000 7.2873 0.0000
# 6 0.0000 0.0000 0.0000 0.0000 0.0000 23.5658
#
#
#
# Elastic Compliance Matrix: (Units=1/GPa)
#
#
# Indices 1 2 3 4 5 6 
#
# 1 0.012821 -0.000575 -0.002811 0.000000 0.000000 0.000000
# 2 -0.000575 0.012486 -0.002709 0.000000 0.000000 0.000000
# 3 -0.002811 -0.002709 0.014807 0.000000 0.000000 0.000000
# 4 0.000000 0.000000 0.000000 0.060088 0.000000 0.000000
# 5 0.000000 0.000000 0.000000 0.000000 0.137225 0.000000
# 6 0.000000 0.000000 0.000000 0.000000 0.000000 0.042434
#
#
# Mechanical properties :
#
#
# Convention : Reuss Voigt Hill
#
# Bulk Modulus (GPa) = 35.80916 35.81183 35.81050
# Shear Modulus (GPa) = 16.59150 22.74960 19.67055
#
# Velocity S-wave (km/s) = 2.78949 3.26640 3.03732
# Velocity P-wave (km/s) = 5.21240 5.56967 5.39399
#
# Compressibility (1/GPa) = 0.02792581
#
# Stress axis : x y z
#
# Youngs Moduli (GPa) = 77.99913 80.08662 67.53412
#
# Poissons Ratio (x) = 0.04603 0.18981
# Poissons Ratio (y) = 0.04483 0.18295
# Poissons Ratio (z) = 0.21923 0.21695
#
# Static dielectric constant tensor:
#      x y z
#    x 1.791090 0.000000 0.000000 
#    y 0.000000 1.771090 0.000000 
#    z 0.000000 0.000000 1.774790 
# 
# From -- ./inp_files/11126.got.cif
#   From: 2010.05.17/outbox.cif.g08.bks.cpg/sg73_6_cif.got.tgz:11126.got - 2010.06.03 17:35:07.
