data_PCOD9532959
_publ_section_title
;
Structure prediction by ZEFSAII (Michael W. Deem and Ramdas Pophale) SiO2 
 PCOD9532959
Probable space group: I B C A 
;
_chemical_formula_sum "Si O2"
_cell_formula_units_Z 104
_cell_length_a 26.035296
_cell_length_b 20.164406
_cell_length_c 9.631782
_cell_angle_alpha 90.000000
_cell_angle_beta 90.000000
_cell_angle_gamma 90.000000
_cell_volume 5056.553391
_symmetry_space_group_name_H-M "I B C A "
_symmetry_group_IT_number 73
_symmetry_cell_setting 'orthorhombic'
loop_
_space_group_symop_operation_xyz
x,y,z
-x,1/2-y,z
x,-y,1/2-z
1/2-x,y,-z
-x,-y,-z
x,1/2+y,-z
-x,y,1/2+z
1/2+x,-y,z
1/2+x,1/2+y,1/2+z
1/2-x,-y,1/2+z
1/2+x,1/2-y,-z
-x,1/2+y,1/2-z
1/2-x,1/2-y,1/2-z
1/2+x,y,1/2-z
1/2-x,1/2+y,z
x,1/2-y,1/2+z
loop_
_atom_site_type_symbol
_atom_site_label
_atom_site_fract_x
_atom_site_fract_y
_atom_site_fract_z
Si Si1 0.441824 0.685770 0.325258
Si Si2 0.622864 0.170051 0.920508
Si Si3 0.702449 0.791348 0.105048
Si Si4 0.333524 0.500000 0.250000
Si Si5 0.291530 0.372984 0.119615
Si Si6 0.616443 0.889422 0.084470
Si Si7 0.943008 0.344272 0.819281
O O1 0.426682 0.688371 0.487169
O O2 0.403256 0.649117 0.221545
O O3 0.439491 0.764342 0.295175
O O4 0.495962 0.648544 0.304449
O O5 0.662234 0.230036 0.884094
O O6 0.599199 0.131183 0.791488
O O7 0.656000 0.131464 0.033280
O O8 0.716307 0.817290 0.260434
O O9 0.668580 0.851337 0.040813
O O10 0.750000 0.779364 0.000000
O O11 0.296441 0.442800 0.194505
O O12 0.368965 0.536724 0.134246
O O13 0.250000 0.369897 0.000000
O O14 0.575271 0.873973 0.965505
#
# Coordination Sequence:
#
# PCOD9532959 Si02
#       7
#    16  16  16   8  16  16  16
#     4  11  20  39  65  98 133 169 201 261 330 392
#     4  12  21  40  63 101 138 162 201 265 333 388
#     4  11  24  39  64  98 134 166 203 260 336 396
#     4  10  24  48  66  80 128 178 222 266 314 364
#     4  11  26  45  68  93 129 174 219 270 322 388
#     4  11  22  43  63  89 127 174 209 268 315 378
#     4  11  22  35  67 103 130 161 213 259 326 397
#
# _framework density 20.56737
#
# number of rings (size 3 to 8) (size 9 to 14) (size 15 to 20)
#    0.000    0.923    6.154    1.385    2.154    6.154 
#    0.000    0.769    0.000    0.000    0.000    0.000 
#    0.000    0.000    0.000    0.000    0.000    0.000 
#
# Total GULP energy -289710.490571 kJ/mol
# GULP energy per Si atom -5571.355588 kJ/mol
# Density = 2.052056 g / cm^3
# Si number density = 20.567370 Si / 1000 Ang^3
#
#
#
# Elastic Constant Matrix: (Units=GPa)
#
#
# Indices 1 2 3 4 5 6 
#
# 1 109.9597 18.1777 53.4161 0.0000 0.0000 0.0000
# 2 18.1777 67.3109 28.5729 0.0000 0.0000 0.0000
# 3 53.4161 28.5729 124.1351 0.0000 0.0000 0.0000
# 4 0.0000 0.0000 0.0000 19.6710 0.0000 0.0000
# 5 0.0000 0.0000 0.0000 0.0000 36.2436 0.0000
# 6 0.0000 0.0000 0.0000 0.0000 0.0000 14.3064
#
#
#
# Elastic Compliance Matrix: (Units=1/GPa)
#
#
# Indices 1 2 3 4 5 6 
#
# 1 0.011573 -0.001121 -0.004722 0.000000 0.000000 0.000000
# 2 -0.001121 0.016574 -0.003333 0.000000 0.000000 0.000000
# 3 -0.004722 -0.003333 0.010855 0.000000 0.000000 0.000000
# 4 0.000000 0.000000 0.000000 0.050836 0.000000 0.000000
# 5 0.000000 0.000000 0.000000 0.000000 0.027591 0.000000
# 6 0.000000 0.000000 0.000000 0.000000 0.000000 0.069899
#
#
# Mechanical properties :
#
#
# Convention : Reuss Voigt Hill
#
# Bulk Modulus (GPa) = 48.42431 55.74879 52.08655
# Shear Modulus (GPa) = 23.52243 27.46012 25.49128
#
# Velocity S-wave (km/s) = 3.38550 3.65791 3.52434
# Velocity P-wave (km/s) = 6.23518 6.70855 6.47619
#
# Compressibility (1/GPa) = 0.02065078
#
# Stress axis : x y z
#
# Youngs Moduli (GPa) = 86.40458 60.33619 92.12555
#
# Poissons Ratio (x) = 0.06764 0.43503
# Poissons Ratio (y) = 0.09686 0.30701
# Poissons Ratio (z) = 0.40801 0.20107
#
# Static dielectric constant tensor:
#      x y z
#    x 1.861350 0.000000 0.000000 
#    y 0.000000 1.744660 0.000000 
#    z 0.000000 0.000000 1.815960 
# 
# From -- ./inp_files/7906.got.cif
#   From: 2010.05.17/outbox.cif.g08.bks.cpg/sg73_4_cif.got.tgz:7906.got - 2010.06.03 17:35:07.
