data_PCOD9532572
_publ_section_title
;
Structure prediction by ZEFSAII (Michael W. Deem and Ramdas Pophale) SiO2 
 PCOD9532572
Probable space group: I B C A 
;
_chemical_formula_sum "Si O2"
_cell_formula_units_Z 88
_cell_length_a 17.903701
_cell_length_b 13.572626
_cell_length_c 18.126926
_cell_angle_alpha 90.000000
_cell_angle_beta 90.000000
_cell_angle_gamma 90.000000
_cell_volume 4404.847327
_symmetry_space_group_name_H-M "I B C A "
_symmetry_group_IT_number 73
_symmetry_cell_setting 'orthorhombic'
loop_
_space_group_symop_operation_xyz
x,y,z
-x,1/2-y,z
x,-y,1/2-z
1/2-x,y,-z
-x,-y,-z
x,1/2+y,-z
-x,y,1/2+z
1/2+x,-y,z
1/2+x,1/2+y,1/2+z
1/2-x,-y,1/2+z
1/2+x,1/2-y,-z
-x,1/2+y,1/2-z
1/2-x,1/2-y,1/2-z
1/2+x,y,1/2-z
1/2-x,1/2+y,z
x,1/2-y,1/2+z
loop_
_atom_site_type_symbol
_atom_site_label
_atom_site_fract_x
_atom_site_fract_y
_atom_site_fract_z
Si Si1 0.565112 0.929067 0.468187
Si Si2 0.873453 0.786527 0.250281
Si Si3 0.086395 0.772464 0.921156
Si Si4 0.270246 0.605962 0.226294
Si Si5 0.500000 0.250000 0.132472
Si Si6 0.186357 0.911309 0.439582
O O1 0.602845 0.873836 0.537575
O O2 0.532293 0.841939 0.415692
O O3 0.500000 0.000000 0.500000
O O4 0.628138 0.998483 0.432312
O O5 0.904332 0.778020 0.333191
O O6 0.814883 0.875400 0.248698
O O7 0.822411 0.689512 0.238500
O O8 0.935469 0.789965 0.187271
O O9 0.136706 0.685854 0.955176
O O10 0.000000 0.750000 0.935452
O O11 0.297558 0.500000 0.250000
O O12 0.275693 0.611426 0.138438
O O13 0.250000 0.928535 0.500000
#
# Coordination Sequence:
#
# PCOD9532572 Si02
#       6
#    16  16  16  16   8  16
#     4  12  25  42  67 100 135 174 223 277 333 405
#     4  10  24  42  69  94 131 175 220 272 341 395
#     4  11  22  46  67  97 137 174 221 286 335 400
#     4  10  23  44  64  95 133 170 223 278 327 401
#     4  12  24  42  72  96 132 176 222 274 340 398
#     4  11  26  43  68  99 136 178 227 275 341 405
#
# _framework density 19.977989999999998
#
# number of rings (size 3 to 8) (size 9 to 14) (size 15 to 20)
#    0.000    1.091    3.636    1.091    7.636    0.727 
#    0.000    2.727    0.000    0.000    0.000    0.000 
#    0.000    0.000    0.000    0.000    0.000    0.000 
#
# Total GULP energy -245744.358716 kJ/mol
# GULP energy per Si atom -5585.099062 kJ/mol
# Density = 1.993252 g / cm^3
# Si number density = 19.977990 Si / 1000 Ang^3
#
#
#
# Elastic Constant Matrix: (Units=GPa)
#
#
# Indices 1 2 3 4 5 6 
#
# 1 82.3464 15.5129 35.7672 0.0000 0.0000 0.0000
# 2 15.5129 97.7146 18.7865 0.0000 0.0000 0.0000
# 3 35.7672 18.7865 61.9689 0.0000 0.0000 0.0000
# 4 0.0000 0.0000 0.0000 26.6476 0.0000 0.0000
# 5 0.0000 0.0000 0.0000 0.0000 23.4851 0.0000
# 6 0.0000 0.0000 0.0000 0.0000 0.0000 17.1890
#
#
#
# Elastic Compliance Matrix: (Units=1/GPa)
#
#
# Indices 1 2 3 4 5 6 
#
# 1 0.016269 -0.000826 -0.009140 0.000000 0.000000 0.000000
# 2 -0.000826 0.010909 -0.002831 0.000000 0.000000 0.000000
# 3 -0.009140 -0.002831 0.022271 0.000000 0.000000 0.000000
# 4 0.000000 0.000000 0.000000 0.037527 0.000000 0.000000
# 5 0.000000 0.000000 0.000000 0.000000 0.042580 0.000000
# 6 0.000000 0.000000 0.000000 0.000000 0.000000 0.058177
#
#
# Mechanical properties :
#
#
# Convention : Reuss Voigt Hill
#
# Bulk Modulus (GPa) = 41.91726 42.46258 42.18992
# Shear Modulus (GPa) = 22.59602 24.92855 23.76228
#
# Velocity S-wave (km/s) = 3.36675 3.53625 3.45254
# Velocity P-wave (km/s) = 6.01171 6.16233 6.08748
#
# Compressibility (1/GPa) = 0.02385652
#
# Stress axis : x y z
#
# Youngs Moduli (GPa) = 61.46529 91.66583 44.90202
#
# Poissons Ratio (x) = 0.07568 0.41041
# Poissons Ratio (y) = 0.05075 0.12710
# Poissons Ratio (z) = 0.56180 0.25948
#
# Static dielectric constant tensor:
#      x y z
#    x 1.703060 0.000000 0.000000 
#    y 0.000000 1.710490 0.000000 
#    z 0.000000 0.000000 1.727840 
# 
# From -- ./inp_files/11863.got.cif
#   From: 2010.05.17/outbox.cif.g08.bks.cpg/sg73_6_cif.got.tgz:11863.got - 2010.06.03 17:35:07.
