data_PCOD9532967
_publ_section_title
;
Structure prediction by ZEFSAII (Michael W. Deem and Ramdas Pophale) SiO2 
 PCOD9532967
Probable space group: I B C A 
;
_chemical_formula_sum "Si O2"
_cell_formula_units_Z 72
_cell_length_a 16.089528
_cell_length_b 9.880034
_cell_length_c 22.438830
_cell_angle_alpha 90.000000
_cell_angle_beta 90.000000
_cell_angle_gamma 90.000000
_cell_volume 3566.990489
_symmetry_space_group_name_H-M "I B C A "
_symmetry_group_IT_number 73
_symmetry_cell_setting 'orthorhombic'
loop_
_space_group_symop_operation_xyz
x,y,z
-x,1/2-y,z
x,-y,1/2-z
1/2-x,y,-z
-x,-y,-z
x,1/2+y,-z
-x,y,1/2+z
1/2+x,-y,z
1/2+x,1/2+y,1/2+z
1/2-x,-y,1/2+z
1/2+x,1/2-y,-z
-x,1/2+y,1/2-z
1/2-x,1/2-y,1/2-z
1/2+x,y,1/2-z
1/2-x,1/2+y,z
x,1/2-y,1/2+z
loop_
_atom_site_type_symbol
_atom_site_label
_atom_site_fract_x
_atom_site_fract_y
_atom_site_fract_z
Si Si1 0.407968 0.193370 0.414539
Si Si2 0.740020 0.102172 0.407398
Si Si3 0.376390 0.462666 0.681352
Si Si4 0.647986 0.160366 0.046355
Si Si5 0.000000 0.750000 0.129126
O O1 0.500000 0.250000 0.420069
O O2 0.343142 0.311858 0.400852
O O3 0.380921 0.136062 0.478993
O O4 0.401929 0.084982 0.362217
O O5 0.787748 0.083483 0.345153
O O6 0.804495 0.194780 0.445975
O O7 0.710620 0.957437 0.432700
O O8 0.372166 0.500000 0.750000
O O9 0.444277 0.347537 0.669151
O O10 0.565684 0.169924 0.087275
#
# Coordination Sequence:
#
# PCOD9532967 Si02
#       5
#    16  16  16  16   8
#     4  12  26  42  73 107 144 181 233 294 362 416
#     4  11  25  44  72 104 143 189 230 292 351 422
#     4  11  27  48  69 103 142 194 241 281 342 422
#     4  11  24  44  71 108 145 177 233 296 367 421
#     4  10  24  48  72 102 146 184 230 300 356 412
#
# _framework density 20.185084
#
# number of rings (size 3 to 8) (size 9 to 14) (size 15 to 20)
#    0.000    0.889    3.333    2.000   10.889    2.667 
#    0.000    1.111    0.000    0.000    0.000    0.000 
#    0.000    0.000    0.000    0.000    0.000    0.000 
#
# Total GULP energy -201427.386464 kJ/mol
# GULP energy per Si atom -5595.205180 kJ/mol
# Density = 2.013914 g / cm^3
# Si number density = 20.185084 Si / 1000 Ang^3
#
#
#
# Elastic Constant Matrix: (Units=GPa)
#
#
# Indices 1 2 3 4 5 6 
#
# 1 161.2108 39.5950 69.3252 0.0000 0.0000 0.0000
# 2 39.5950 84.4106 59.2019 0.0000 0.0000 0.0000
# 3 69.3252 59.2019 198.9689 0.0000 0.0000 0.0000
# 4 0.0000 0.0000 0.0000 23.6698 0.0000 0.0000
# 5 0.0000 0.0000 0.0000 0.0000 18.8210 0.0000
# 6 0.0000 0.0000 0.0000 0.0000 0.0000 -31.1520
#
#
#
# Elastic Compliance Matrix: (Units=1/GPa)
#
#
# Indices 1 2 3 4 5 6 
#
# 1 0.007595 -0.002157 -0.002004 0.000000 0.000000 0.000000
# 2 -0.002157 0.015584 -0.003885 0.000000 0.000000 0.000000
# 3 -0.002004 -0.003885 0.006880 0.000000 0.000000 0.000000
# 4 0.000000 0.000000 0.000000 0.042248 0.000000 0.000000
# 5 0.000000 0.000000 0.000000 0.000000 0.053132 0.000000
# 6 0.000000 0.000000 0.000000 0.000000 0.000000 -0.032101
#
#
# Mechanical properties :
#
#
# Convention : Reuss Voigt Hill
#
# Bulk Modulus (GPa) = 71.60420 86.75939 79.18179
# Shear Modulus (GPa) = 43.82651 20.69896 32.26273
#
# Velocity S-wave (km/s) = 4.66470 3.20575 4.00227
# Velocity P-wave (km/s) = 8.03514 7.53510 7.78913
#
# Compressibility (1/GPa) = 0.01396566
#
# Stress axis : x y z
#
# Youngs Moduli (GPa) = 131.67010 64.17038 145.34089
#
# Poissons Ratio (x) = 0.13839 0.29133
# Poissons Ratio (y) = 0.28397 0.56470
# Poissons Ratio (z) = 0.26393 0.24932
#
# Static dielectric constant tensor:
#      x y z
#    x 1.704950 0.000000 0.000000 
#    y 0.000000 1.747250 0.000000 
#    z 0.000000 0.000000 1.682420 
# 
# From -- ./inp_files/5995.got.cif
#   From: 2010.05.17/outbox.cif.g08.bks.cpg/sg73_3_cif.got.tgz:5995.got - 2010.06.03 17:35:07.
