data_PCOD9532779
_publ_section_title
;
Structure prediction by ZEFSAII (Michael W. Deem and Ramdas Pophale) SiO2 
 PCOD9532779
Probable space group: I B C A 
;
_chemical_formula_sum "Si O2"
_cell_formula_units_Z 80
_cell_length_a 17.116076
_cell_length_b 8.071030
_cell_length_c 26.171270
_cell_angle_alpha 90.000000
_cell_angle_beta 90.000000
_cell_angle_gamma 90.000000
_cell_volume 3615.413420
_symmetry_space_group_name_H-M "I B C A "
_symmetry_group_IT_number 73
_symmetry_cell_setting 'orthorhombic'
loop_
_space_group_symop_operation_xyz
x,y,z
-x,1/2-y,z
x,-y,1/2-z
1/2-x,y,-z
-x,-y,-z
x,1/2+y,-z
-x,y,1/2+z
1/2+x,-y,z
1/2+x,1/2+y,1/2+z
1/2-x,-y,1/2+z
1/2+x,1/2-y,-z
-x,1/2+y,1/2-z
1/2-x,1/2-y,1/2-z
1/2+x,y,1/2-z
1/2-x,1/2+y,z
x,1/2-y,1/2+z
loop_
_atom_site_type_symbol
_atom_site_label
_atom_site_fract_x
_atom_site_fract_y
_atom_site_fract_z
Si Si1 0.000000 0.250000 0.320858
Si Si2 0.815522 0.136242 0.659768
Si Si3 0.408016 0.000000 0.750000
Si Si4 0.085141 0.794207 0.922305
Si Si5 0.844177 0.236501 0.875858
Si Si6 0.416023 0.343669 0.528641
O O1 0.963790 0.393775 0.286335
O O2 0.927497 0.197140 0.355809
O O3 0.852838 0.120593 0.716044
O O4 0.855161 0.274230 0.623752
O O5 0.724120 0.170803 0.654413
O O6 0.835517 0.957132 0.635977
O O7 0.000000 0.750000 0.901081
O O8 0.079988 0.970110 0.950469
O O9 0.102827 0.667630 0.968731
O O10 0.849048 0.261837 0.936466
O O11 0.500000 0.250000 0.534741
#
# Coordination Sequence:
#
# PCOD9532779 Si02
#       6
#     8  16   8  16  16  16
#     4  10  24  42  70  90 128 176 224 284 340 416
#     4  11  25  43  65 101 134 179 231 288 343 405
#     4  10  26  44  66 100 130 176 238 286 342 412
#     4  11  23  38  67 101 138 182 224 276 338 416
#     4  11  23  43  66  96 136 176 223 279 344 410
#     4  11  21  40  66 100 141 180 222 275 338 415
#
# _framework density 22.127483999999999
#
# number of rings (size 3 to 8) (size 9 to 14) (size 15 to 20)
#    0.000    1.200    1.000    6.000    4.200    6.400 
#    0.000    4.000    0.000    0.000    0.000    0.000 
#    0.000    0.000    0.000    0.000    0.000    0.000 
#
# Total GULP energy -223640.343438 kJ/mol
# GULP energy per Si atom -5591.008586 kJ/mol
# Density = 2.207712 g / cm^3
# Si number density = 22.127484 Si / 1000 Ang^3
#
#
#
# Elastic Constant Matrix: (Units=GPa)
#
#
# Indices 1 2 3 4 5 6 
#
# 1 126.8427 15.2372 49.0557 0.0000 0.0000 0.0000
# 2 15.2372 74.0442 12.4581 0.0000 0.0000 0.0000
# 3 49.0557 12.4581 92.4287 0.0000 0.0000 0.0000
# 4 0.0000 0.0000 0.0000 33.1401 0.0000 0.0000
# 5 0.0000 0.0000 0.0000 0.0000 8.9937 0.0000
# 6 0.0000 0.0000 0.0000 0.0000 0.0000 29.6012
#
#
#
# Elastic Compliance Matrix: (Units=1/GPa)
#
#
# Indices 1 2 3 4 5 6 
#
# 1 0.010022 -0.001195 -0.005158 0.000000 0.000000 0.000000
# 2 -0.001195 0.013961 -0.001248 0.000000 0.000000 0.000000
# 3 -0.005158 -0.001248 0.013725 0.000000 0.000000 0.000000
# 4 0.000000 0.000000 0.000000 0.030175 0.000000 0.000000
# 5 0.000000 0.000000 0.000000 0.000000 0.111189 0.000000
# 6 0.000000 0.000000 0.000000 0.000000 0.000000 0.033782
#
#
# Mechanical properties :
#
#
# Convention : Reuss Voigt Hill
#
# Bulk Modulus (GPa) = 44.42988 49.64638 47.03813
# Shear Modulus (GPa) = 21.22618 28.78464 25.00541
#
# Velocity S-wave (km/s) = 3.10056 3.61065 3.36529
# Velocity P-wave (km/s) = 5.73939 6.31408 6.03358
#
# Compressibility (1/GPa) = 0.02250737
#
# Stress axis : x y z
#
# Youngs Moduli (GPa) = 99.77882 71.62709 72.85980
#
# Poissons Ratio (x) = 0.08556 0.37582
# Poissons Ratio (y) = 0.11919 0.09091
# Poissons Ratio (z) = 0.51468 0.08938
#
# Static dielectric constant tensor:
#      x y z
#    x 1.811410 0.000000 0.000000 
#    y 0.000000 1.846030 0.000000 
#    z 0.000000 0.000000 1.860250 
# 
# From -- ./inp_files/5624.got.cif
#   From: 2010.05.17/outbox.cif.g08.bks.cpg/sg73_3_cif.got.tgz:5624.got - 2010.06.03 17:35:07.
