data_PCOD9532700
_publ_section_title
;
Structure prediction by ZEFSAII (Michael W. Deem and Ramdas Pophale) SiO2 
 PCOD9532700
Probable space group: I B C A 
;
_chemical_formula_sum "Si O2"
_cell_formula_units_Z 88
_cell_length_a 24.782114
_cell_length_b 19.633113
_cell_length_c 9.073609
_cell_angle_alpha 90.000000
_cell_angle_beta 90.000000
_cell_angle_gamma 90.000000
_cell_volume 4414.764863
_symmetry_space_group_name_H-M "I B C A "
_symmetry_group_IT_number 73
_symmetry_cell_setting 'orthorhombic'
loop_
_space_group_symop_operation_xyz
x,y,z
-x,1/2-y,z
x,-y,1/2-z
1/2-x,y,-z
-x,-y,-z
x,1/2+y,-z
-x,y,1/2+z
1/2+x,-y,z
1/2+x,1/2+y,1/2+z
1/2-x,-y,1/2+z
1/2+x,1/2-y,-z
-x,1/2+y,1/2-z
1/2-x,1/2-y,1/2-z
1/2+x,y,1/2-z
1/2-x,1/2+y,z
x,1/2-y,1/2+z
loop_
_atom_site_type_symbol
_atom_site_label
_atom_site_fract_x
_atom_site_fract_y
_atom_site_fract_z
Si Si1 0.689010 0.172031 0.687104
Si Si2 0.607032 0.567017 0.682868
Si Si3 0.187217 0.313327 0.663816
Si Si4 0.000000 0.250000 0.042914
Si Si5 0.907136 0.427686 0.831807
Si Si6 0.018265 0.349377 0.794369
O O1 0.752954 0.164059 0.716235
O O2 0.685825 0.187662 0.513067
O O3 0.672906 0.239367 0.775330
O O4 0.648699 0.109464 0.715518
O O5 0.632776 0.500000 0.750000
O O6 0.644982 0.630756 0.712072
O O7 0.595541 0.561042 0.508702
O O8 0.553117 0.583382 0.774423
O O9 0.970132 0.301537 0.152928
O O10 0.969091 0.198519 0.933896
O O11 0.914535 0.500000 0.750000
O O12 0.956276 0.374730 0.801428
#
# Coordination Sequence:
#
# PCOD9532700 Si02
#       6
#    16  16  16   8  16  16
#     4   9  20  39  62  88 116 149 194 246 293 343
#     4  11  25  40  59  86 122 160 195 240 292 351
#     4   9  20  39  62  88 116 149 194 246 293 343
#     4  10  24  38  62  90 114 158 194 242 292 344
#     4  11  25  40  59  86 122 160 195 240 292 351
#     4  11  23  40  60  90 120 152 194 244 292 350
#
# _framework density 19.933111
#
# number of rings (size 3 to 8) (size 9 to 14) (size 15 to 20)
#    0.000    1.818    1.818    0.545    7.636    3.636 
#    0.000    0.000    0.000    0.000    0.000    0.000 
#    0.000    0.000    0.000    0.000    0.000    0.000 
#
# Total GULP energy -245529.648001 kJ/mol
# GULP energy per Si atom -5580.219273 kJ/mol
# Density = 1.988774 g / cm^3
# Si number density = 19.933111 Si / 1000 Ang^3
#
#
#
# Elastic Constant Matrix: (Units=GPa)
#
#
# Indices 1 2 3 4 5 6 
#
# 1 56.4377 34.8399 21.4779 0.0000 0.0000 0.0000
# 2 34.8399 91.6602 32.6491 0.0000 0.0000 0.0000
# 3 21.4779 32.6491 54.8412 0.0000 0.0000 0.0000
# 4 0.0000 0.0000 0.0000 36.5673 0.0000 0.0000
# 5 0.0000 0.0000 0.0000 0.0000 12.8228 0.0000
# 6 0.0000 0.0000 0.0000 0.0000 0.0000 21.8642
#
#
#
# Elastic Compliance Matrix: (Units=1/GPa)
#
#
# Indices 1 2 3 4 5 6 
#
# 1 0.024218 -0.007395 -0.005082 0.000000 0.000000 0.000000
# 2 -0.007395 0.016104 -0.006691 0.000000 0.000000 0.000000
# 3 -0.005082 -0.006691 0.024208 0.000000 0.000000 0.000000
# 4 0.000000 0.000000 0.000000 0.027347 0.000000 0.000000
# 5 0.000000 0.000000 0.000000 0.000000 0.077986 0.000000
# 6 0.000000 0.000000 0.000000 0.000000 0.000000 0.045737
#
#
# Mechanical properties :
#
#
# Convention : Reuss Voigt Hill
#
# Bulk Modulus (GPa) = 38.17723 42.31922 40.24822
# Shear Modulus (GPa) = 19.03550 21.84903 20.44226
#
# Velocity S-wave (km/s) = 3.09361 3.31436 3.20588
# Velocity P-wave (km/s) = 5.65286 5.99361 5.82572
#
# Compressibility (1/GPa) = 0.02619362
#
# Stress axis : x y z
#
# Youngs Moduli (GPa) = 41.29224 62.09630 41.30804
#
# Poissons Ratio (x) = 0.45919 0.20993
# Poissons Ratio (y) = 0.30535 0.27640
# Poissons Ratio (z) = 0.20985 0.41550
#
# Static dielectric constant tensor:
#      x y z
#    x 1.728940 0.000000 0.000000 
#    y 0.000000 1.672540 0.000000 
#    z 0.000000 0.000000 1.698160 
# 
# From -- ./inp_files/7081.got.cif
#   From: 2010.05.17/outbox.cif.g08.bks.cpg/sg73_4_cif.got.tgz:7081.got - 2010.06.03 17:35:07.
