data_PCOD9532544
_publ_section_title
;
Structure prediction by ZEFSAII (Michael W. Deem and Ramdas Pophale) SiO2 
 PCOD9532544
Probable space group: I B C A 
;
_chemical_formula_sum "Si O2"
_cell_formula_units_Z 96
_cell_length_a 15.355953
_cell_length_b 13.997042
_cell_length_c 19.884857
_cell_angle_alpha 90.000000
_cell_angle_beta 90.000000
_cell_angle_gamma 90.000000
_cell_volume 4274.009785
_symmetry_space_group_name_H-M "I B C A "
_symmetry_group_IT_number 73
_symmetry_cell_setting 'orthorhombic'
loop_
_space_group_symop_operation_xyz
x,y,z
-x,1/2-y,z
x,-y,1/2-z
1/2-x,y,-z
-x,-y,-z
x,1/2+y,-z
-x,y,1/2+z
1/2+x,-y,z
1/2+x,1/2+y,1/2+z
1/2-x,-y,1/2+z
1/2+x,1/2-y,-z
-x,1/2+y,1/2-z
1/2-x,1/2-y,1/2-z
1/2+x,y,1/2-z
1/2-x,1/2+y,z
x,1/2-y,1/2+z
loop_
_atom_site_type_symbol
_atom_site_label
_atom_site_fract_x
_atom_site_fract_y
_atom_site_fract_z
Si Si1 0.731006 0.692865 0.079182
Si Si2 0.617191 0.921051 0.008996
Si Si3 0.058461 0.609380 0.441701
Si Si4 0.502492 0.536646 0.324168
Si Si5 0.169078 0.638829 0.137343
Si Si6 0.192711 0.499804 0.636391
O O1 0.626152 0.688265 0.081800
O O2 0.782648 0.759979 0.131383
O O3 0.759580 0.586371 0.099436
O O4 0.750000 0.711340 0.000000
O O5 0.528669 0.862776 0.019658
O O6 0.663442 0.922707 0.080116
O O7 0.661776 0.887395 0.941812
O O8 0.599599 0.033577 0.994424
O O9 0.031368 0.542671 0.378980
O O10 0.519959 0.500000 0.250000
O O11 0.569268 0.625124 0.337309
O O12 0.396882 0.541026 0.331983
O O13 0.232368 0.561581 0.174122
#
# Coordination Sequence:
#
# PCOD9532544 Si02
#       6
#    16  16  16  16  16  16
#     4  12  21  35  64 102 138 161 201 270 348 408
#     4   9  16  35  59  88 126 165 202 254 326 408
#     4   9  18  34  62  88 122 167 205 259 322 389
#     4  10  23  43  66  84 121 179 230 276 318 370
#     4  11  23  38  64  97 128 168 217 267 337 413
#     4  11  20  39  64  90 127 167 221 265 334 404
#
# _framework density 22.461342999999999
#
# number of rings (size 3 to 8) (size 9 to 14) (size 15 to 20)
#    0.000    1.667    5.000    2.500    0.000    1.333 
#    0.000    7.500    3.667    0.000    0.000    0.000 
#    0.000    0.000    0.000    0.000    0.000    0.000 
#
# Total GULP energy -267439.536286 kJ/mol
# GULP energy per Si atom -5571.657006 kJ/mol
# Density = 2.241022 g / cm^3
# Si number density = 22.461343 Si / 1000 Ang^3
#
#
#
# Elastic Constant Matrix: (Units=GPa)
#
#
# Indices 1 2 3 4 5 6 
#
# 1 146.5170 38.1116 -0.1255 0.0000 0.0000 0.0000
# 2 38.1116 68.3796 -2.3015 0.0000 0.0000 0.0000
# 3 -0.1255 -2.3015 32.4418 0.0000 0.0000 0.0000
# 4 0.0000 0.0000 0.0000 11.2671 0.0000 0.0000
# 5 0.0000 0.0000 0.0000 0.0000 11.5337 0.0000
# 6 0.0000 0.0000 0.0000 0.0000 0.0000 22.8493
#
#
#
# Elastic Compliance Matrix: (Units=1/GPa)
#
#
# Indices 1 2 3 4 5 6 
#
# 1 0.007985 -0.004460 -0.000286 0.000000 0.000000 0.000000
# 2 -0.004460 0.017150 0.001199 0.000000 0.000000 0.000000
# 3 -0.000286 0.001199 0.030908 0.000000 0.000000 0.000000
# 4 0.000000 0.000000 0.000000 0.088754 0.000000 0.000000
# 5 0.000000 0.000000 0.000000 0.000000 0.086703 0.000000
# 6 0.000000 0.000000 0.000000 0.000000 0.000000 0.043765
#
#
# Mechanical properties :
#
#
# Convention : Reuss Voigt Hill
#
# Bulk Modulus (GPa) = 20.42835 35.41197 27.92016
# Shear Modulus (GPa) = 16.74060 23.24027 19.99043
#
# Velocity S-wave (km/s) = 2.73299 3.22013 2.98651
# Velocity P-wave (km/s) = 4.36734 5.44294 4.93453
#
# Compressibility (1/GPa) = 0.04895158
#
# Stress axis : x y z
#
# Youngs Moduli (GPa) = 125.23401 58.30747 32.35362
#
# Poissons Ratio (x) = 0.26006 0.00924
# Poissons Ratio (y) = 0.55856 -0.03881
# Poissons Ratio (z) = 0.03576 -0.06994
#
# Static dielectric constant tensor:
#      x y z
#    x 1.975810 0.000000 0.000000 
#    y 0.000000 1.875070 0.000000 
#    z 0.000000 0.000000 1.808690 
# 
# From -- ./inp_files/26010.got.cif
#   From: 2010.05.17/outbox.cif.g08.bks.cpg/sg73_14_cif.got.tgz:26010.got - 2010.06.03 17:35:07.
