data_PCOD9532301
_publ_section_title
;
Structure prediction by ZEFSAII (Michael W. Deem and Ramdas Pophale) SiO2 
 PCOD9532301
Probable space group: I B C A 
;
_chemical_formula_sum "Si O2"
_cell_formula_units_Z 120
_cell_length_a 23.209478
_cell_length_b 28.760911
_cell_length_c 8.275642
_cell_angle_alpha 90.000000
_cell_angle_beta 90.000000
_cell_angle_gamma 90.000000
_cell_volume 5524.203976
_symmetry_space_group_name_H-M "I B C A "
_symmetry_group_IT_number 73
_symmetry_cell_setting 'orthorhombic'
loop_
_space_group_symop_operation_xyz
x,y,z
-x,1/2-y,z
x,-y,1/2-z
1/2-x,y,-z
-x,-y,-z
x,1/2+y,-z
-x,y,1/2+z
1/2+x,-y,z
1/2+x,1/2+y,1/2+z
1/2-x,-y,1/2+z
1/2+x,1/2-y,-z
-x,1/2+y,1/2-z
1/2-x,1/2-y,1/2-z
1/2+x,y,1/2-z
1/2-x,1/2+y,z
x,1/2-y,1/2+z
loop_
_atom_site_type_symbol
_atom_site_label
_atom_site_fract_x
_atom_site_fract_y
_atom_site_fract_z
Si Si1 0.093746 0.266667 0.902712
Si Si2 0.449938 0.355119 0.912449
Si Si3 0.424742 0.178003 0.927791
Si Si4 0.851269 0.869516 0.169234
Si Si5 0.505805 0.000000 0.250000
Si Si6 0.289581 0.219001 0.140797
Si Si7 0.075970 0.549458 0.477978
Si Si8 0.296137 0.954541 0.145094
O O1 0.088773 0.290057 0.727234
O O2 0.159632 0.251131 0.928627
O O3 0.072032 0.305635 0.024893
O O4 0.062156 0.217179 0.932833
O O5 0.518003 0.350989 0.893915
O O6 0.412816 0.370134 0.757859
O O7 0.432636 0.397182 0.031087
O O8 0.371846 0.145362 0.988132
O O9 0.818038 0.823982 0.231467
O O10 0.812972 0.913199 0.226250
O O11 0.547454 0.982632 0.389202
O O12 0.463208 0.960787 0.179884
O O13 0.250000 0.250000 0.250000
O O14 0.250000 0.198901 0.000000
O O15 0.141896 0.537660 0.441077
O O16 0.279360 0.000000 0.250000
O O17 0.250000 0.944475 0.000000
#
# Coordination Sequence:
#
# PCOD9532301 Si02
#       8
#    16  16  16  16   8  16  16  16
#     4  11  23  39  57  97 130 176 225 276 338 411
#     4  11  23  38  63  97 136 178 220 275 342 413
#     4  11  23  40  65  93 141 180 218 279 346 415
#     4  10  24  44  65  98 133 174 237 280 340 422
#     4  10  22  44  70 102 142 178 232 286 358 412
#     4  11  22  39  63  84 123 174 224 279 329 385
#     4  10  24  42  71 103 139 182 231 288 349 423
#     4  11  26  49  73 102 142 182 231 299 357 427
#
# _framework density 21.722584999999999
#
# number of rings (size 3 to 8) (size 9 to 14) (size 15 to 20)
#    0.000    1.333    0.667    5.200    6.533    5.333 
#    0.000    0.000    0.000    0.000    0.000    0.000 
#    0.000    0.000    0.000    0.000    0.000    0.000 
#
# Total GULP energy -334814.296376 kJ/mol
# GULP energy per Si atom -5580.238273 kJ/mol
# Density = 2.167314 g / cm^3
# Si number density = 21.722585 Si / 1000 Ang^3
#
#
#
# Elastic Constant Matrix: (Units=GPa)
#
#
# Indices 1 2 3 4 5 6 
#
# 1 96.6650 14.0379 13.7942 0.0000 0.0000 0.0000
# 2 14.0379 89.2655 13.7413 0.0000 0.0000 0.0000
# 3 13.7942 13.7413 62.5241 0.0000 0.0000 0.0000
# 4 0.0000 0.0000 0.0000 26.1412 0.0000 0.0000
# 5 0.0000 0.0000 0.0000 0.0000 22.8425 0.0000
# 6 0.0000 0.0000 0.0000 0.0000 0.0000 30.2411
#
#
#
# Elastic Compliance Matrix: (Units=1/GPa)
#
#
# Indices 1 2 3 4 5 6 
#
# 1 0.010844 -0.001384 -0.002088 0.000000 0.000000 0.000000
# 2 -0.001384 0.011771 -0.002282 0.000000 0.000000 0.000000
# 3 -0.002088 -0.002282 0.016956 0.000000 0.000000 0.000000
# 4 0.000000 0.000000 0.000000 0.038254 0.000000 0.000000
# 5 0.000000 0.000000 0.000000 0.000000 0.043778 0.000000
# 6 0.000000 0.000000 0.000000 0.000000 0.000000 0.033068
#
#
# Mechanical properties :
#
#
# Convention : Reuss Voigt Hill
#
# Bulk Modulus (GPa) = 35.63336 36.84461 36.23899
# Shear Modulus (GPa) = 28.48464 29.63704 29.06084
#
# Velocity S-wave (km/s) = 3.62510 3.69771 3.66159
# Velocity P-wave (km/s) = 5.82763 5.93540 5.88176
#
# Compressibility (1/GPa) = 0.02806359
#
# Stress axis : x y z
#
# Youngs Moduli (GPa) = 92.21707 84.95159 58.97604
#
# Poissons Ratio (x) = 0.11756 0.12316
# Poissons Ratio (y) = 0.12762 0.13457
# Poissons Ratio (z) = 0.19258 0.19384
#
# Static dielectric constant tensor:
#      x y z
#    x 1.814440 0.000000 0.000000 
#    y 0.000000 1.872070 0.000000 
#    z 0.000000 0.000000 1.896170 
# 
# From -- ./inp_files/7489.got.cif
#   From: 2010.05.17/outbox.cif.g08.bks.cpg/sg73_4_cif.got.tgz:7489.got - 2010.06.03 17:35:07.
