data_PCOD9532611
_publ_section_title
;
Structure prediction by ZEFSAII (Michael W. Deem and Ramdas Pophale) SiO2 
 PCOD9532611
Probable space group: I B C A 
;
_chemical_formula_sum "Si O2"
_cell_formula_units_Z 80
_cell_length_a 10.535905
_cell_length_b 13.902076
_cell_length_c 22.668691
_cell_angle_alpha 90.000000
_cell_angle_beta 90.000000
_cell_angle_gamma 90.000000
_cell_volume 3320.304752
_symmetry_space_group_name_H-M "I B C A "
_symmetry_group_IT_number 73
_symmetry_cell_setting 'orthorhombic'
loop_
_space_group_symop_operation_xyz
x,y,z
-x,1/2-y,z
x,-y,1/2-z
1/2-x,y,-z
-x,-y,-z
x,1/2+y,-z
-x,y,1/2+z
1/2+x,-y,z
1/2+x,1/2+y,1/2+z
1/2-x,-y,1/2+z
1/2+x,1/2-y,-z
-x,1/2+y,1/2-z
1/2-x,1/2-y,1/2-z
1/2+x,y,1/2-z
1/2-x,1/2+y,z
x,1/2-y,1/2+z
loop_
_atom_site_type_symbol
_atom_site_label
_atom_site_fract_x
_atom_site_fract_y
_atom_site_fract_z
Si Si1 0.352956 0.780182 0.800160
Si Si2 0.487930 0.346913 0.481503
Si Si3 0.372548 0.503282 0.927575
Si Si4 0.692779 0.641947 0.623850
Si Si5 0.448542 0.508348 0.313608
O O1 0.500000 0.750000 0.787561
O O2 0.250000 0.750000 0.750000
O O3 0.298956 0.716769 0.855367
O O4 0.362228 0.895012 0.812859
O O5 0.500000 0.250000 0.517659
O O6 0.421384 0.423534 0.523118
O O7 0.611661 0.398636 0.455159
O O8 0.401021 0.318262 0.425475
O O9 0.239779 0.543747 0.907680
O O10 0.458339 0.511671 0.869108
O O11 0.622799 0.593971 0.679363
O O12 0.516093 0.500000 0.250000
#
# Coordination Sequence:
#
# PCOD9532611 Si02
#       5
#    16  16  16  16  16
#     4  12  26  46  71 107 147 197 248 302 373 447
#     4  10  24  44  68 102 135 188 247 302 366 443
#     4  10  23  45  67  96 145 182 239 304 372 439
#     4  11  24  43  68 100 139 187 245 303 369 442
#     4  11  24  44  68 101 140 190 238 305 366 440
#
# _framework density 24.094173000000001
#
# number of rings (size 3 to 8) (size 9 to 14) (size 15 to 20)
#    0.000    1.200    4.000    0.600    5.600    3.200 
#    0.000    2.000    0.000    0.000    0.000    0.000 
#    0.000    0.000    0.000    0.000    0.000    0.000 
#
# Total GULP energy -223308.242224 kJ/mol
# GULP energy per Si atom -5582.706056 kJ/mol
# Density = 2.403933 g / cm^3
# Si number density = 24.094173 Si / 1000 Ang^3
#
#
#
# Elastic Constant Matrix: (Units=GPa)
#
#
# Indices 1 2 3 4 5 6 
#
# 1 77.2323 11.4126 26.4861 0.0000 0.0000 0.0000
# 2 11.4126 117.8639 28.8133 0.0000 0.0000 0.0000
# 3 26.4861 28.8133 100.9973 0.0000 0.0000 0.0000
# 4 0.0000 0.0000 0.0000 22.7507 0.0000 0.0000
# 5 0.0000 0.0000 0.0000 0.0000 13.9870 0.0000
# 6 0.0000 0.0000 0.0000 0.0000 0.0000 18.4655
#
#
#
# Elastic Compliance Matrix: (Units=1/GPa)
#
#
# Indices 1 2 3 4 5 6 
#
# 1 0.014255 -0.000501 -0.003595 0.000000 0.000000 0.000000
# 2 -0.000501 0.009138 -0.002475 0.000000 0.000000 0.000000
# 3 -0.003595 -0.002475 0.011550 0.000000 0.000000 0.000000
# 4 0.000000 0.000000 0.000000 0.043955 0.000000 0.000000
# 5 0.000000 0.000000 0.000000 0.000000 0.071495 0.000000
# 6 0.000000 0.000000 0.000000 0.000000 0.000000 0.054155
#
#
# Mechanical properties :
#
#
# Convention : Reuss Voigt Hill
#
# Bulk Modulus (GPa) = 45.87347 47.72418 46.79882
# Shear Modulus (GPa) = 22.22633 26.33276 24.27954
#
# Velocity S-wave (km/s) = 3.04053 3.30951 3.17786
# Velocity P-wave (km/s) = 5.60419 5.86976 5.73851
#
# Compressibility (1/GPa) = 0.02179909
#
# Stress axis : x y z
#
# Youngs Moduli (GPa) = 70.15082 109.43225 86.57766
#
# Poissons Ratio (x) = 0.05487 0.31127
# Poissons Ratio (y) = 0.03517 0.21432
# Poissons Ratio (z) = 0.25221 0.27090
#
# Static dielectric constant tensor:
#      x y z
#    x 1.975270 0.000000 0.000000 
#    y 0.000000 2.002290 0.000000 
#    z 0.000000 0.000000 2.001300 
# 
# From -- ./inp_files/10769.got.cif
#   From: 2010.05.17/outbox.cif.g08.bks.cpg/sg73_6_cif.got.tgz:10769.got - 2010.06.03 17:35:07.
