data_PCOD9532466
_publ_section_title
;
Structure prediction by ZEFSAII (Michael W. Deem and Ramdas Pophale) SiO2 
 PCOD9532466
Probable space group: I B C A 
;
_chemical_formula_sum "Si O2"
_cell_formula_units_Z 64
_cell_length_a 9.365992
_cell_length_b 27.448381
_cell_length_c 10.446388
_cell_angle_alpha 90.000000
_cell_angle_beta 90.000000
_cell_angle_gamma 90.000000
_cell_volume 2685.571183
_symmetry_space_group_name_H-M "I B C A "
_symmetry_group_IT_number 73
_symmetry_cell_setting 'orthorhombic'
loop_
_space_group_symop_operation_xyz
x,y,z
-x,1/2-y,z
x,-y,1/2-z
1/2-x,y,-z
-x,-y,-z
x,1/2+y,-z
-x,y,1/2+z
1/2+x,-y,z
1/2+x,1/2+y,1/2+z
1/2-x,-y,1/2+z
1/2+x,1/2-y,-z
-x,1/2+y,1/2-z
1/2-x,1/2-y,1/2-z
1/2+x,y,1/2-z
1/2-x,1/2+y,z
x,1/2-y,1/2+z
loop_
_atom_site_type_symbol
_atom_site_label
_atom_site_fract_x
_atom_site_fract_y
_atom_site_fract_z
Si Si1 0.871715 0.311800 0.640828
Si Si2 0.071621 0.586966 0.419277
Si Si3 0.876420 0.054334 0.805915
Si Si4 0.299688 0.702120 0.135225
O O1 0.889780 0.356660 0.545612
O O2 0.793434 0.328607 0.767366
O O3 0.782478 0.261549 0.624157
O O4 0.035319 0.300200 0.667977
O O5 0.213031 0.565651 0.348743
O O6 0.043385 0.561314 0.556220
O O7 0.947596 0.584972 0.311262
O O8 0.885289 0.000000 0.750000
O O9 0.250000 0.682992 0.000000
#
# Coordination Sequence:
#
# PCOD9532466 Si02
#       4
#    16  16  16  16
#     4  10  23  42  62 104 132 189 240 273 349 401
#     4  11  25  44  74 101 141 181 236 296 339 441
#     4  11  25  45  69 103 135 182 228 295 365 417
#     4  10  23  40  68  94 148 186 226 291 336 418
#
# _framework density 23.831059
#
# number of rings (size 3 to 8) (size 9 to 14) (size 15 to 20)
#    0.000    1.500    0.000    3.000    7.000   11.000 
#    0.000    0.000    0.000    0.000    0.000    0.000 
#    0.000    0.000    0.000    0.000    0.000    0.000 
#
# Total GULP energy -178144.196404 kJ/mol
# GULP energy per Si atom -5567.006138 kJ/mol
# Density = 2.377682 g / cm^3
# Si number density = 23.831059 Si / 1000 Ang^3
#
#
#
# Elastic Constant Matrix: (Units=GPa)
#
#
# Indices 1 2 3 4 5 6 
#
# 1 55.6883 -10.4091 42.9193 0.0000 -0.0002 -0.0001
# 2 -10.4091 106.9583 14.0128 -0.0004 0.0000 0.0000
# 3 42.9193 14.0128 131.8424 0.0013 0.0004 0.0005
# 4 0.0000 -0.0004 0.0013 11.0537 0.0003 0.0004
# 5 -0.0002 0.0000 0.0004 0.0003 43.8298 0.0001
# 6 -0.0001 0.0000 0.0005 0.0004 0.0001 15.1643
#
#
#
# Elastic Compliance Matrix: (Units=1/GPa)
#
#
# Indices 1 2 3 4 5 6 
#
# 1 0.025258 0.003585 -0.008603 0.000001 0.000000 0.000001
# 2 0.003585 0.009990 -0.002229 0.000001 0.000000 0.000000
# 3 -0.008603 -0.002229 0.010622 -0.000001 0.000000 0.000000
# 4 0.000001 0.000001 -0.000001 0.090468 -0.000001 -0.000002
# 5 0.000000 0.000000 0.000000 -0.000001 0.022816 0.000000
# 6 0.000001 0.000000 0.000000 -0.000002 0.000000 0.065944
#
#
# Mechanical properties :
#
#
# Convention : Reuss Voigt Hill
#
# Bulk Modulus (GPa) = 31.87098 43.05943 37.46521
# Shear Modulus (GPa) = 19.99590 30.54063 25.26827
#
# Velocity S-wave (km/s) = 2.89981 3.58375 3.25977
# Velocity P-wave (km/s) = 4.96131 5.93568 5.47023
#
# Compressibility (1/GPa) = 0.03137651
#
# Stress axis : x y z
#
# Youngs Moduli (GPa) = 39.59157 100.09643 94.14058
#
# Poissons Ratio (x) = -0.35887 0.80993
# Poissons Ratio (y) = -0.14194 0.20983
# Poissons Ratio (z) = 0.34062 0.22311
#
# Static dielectric constant tensor:
#      x y z
#    x 1.843440 0.000000 0.000000 
#    y 0.000000 2.012390 0.000000 
#    z 0.000000 0.000000 2.018920 
# 
# From -- ./inp_files/3971.got.cif
#   From: 2010.05.17/outbox.cif.g08.bks.cpg/sg73_2_cif.got.tgz:3971.got - 2010.06.03 17:35:07.
