data_PCOD9532930
_publ_section_title
;
Structure prediction by ZEFSAII (Michael W. Deem and Ramdas Pophale) SiO2 
 PCOD9532930
Probable space group: I B C A 
;
_chemical_formula_sum "Si O2"
_cell_formula_units_Z 56
_cell_length_a 11.096948
_cell_length_b 7.440945
_cell_length_c 28.036263
_cell_angle_alpha 90.000000
_cell_angle_beta 90.000000
_cell_angle_gamma 90.000000
_cell_volume 2315.004133
_symmetry_space_group_name_H-M "I B C A "
_symmetry_group_IT_number 73
_symmetry_cell_setting 'orthorhombic'
loop_
_space_group_symop_operation_xyz
x,y,z
-x,1/2-y,z
x,-y,1/2-z
1/2-x,y,-z
-x,-y,-z
x,1/2+y,-z
-x,y,1/2+z
1/2+x,-y,z
1/2+x,1/2+y,1/2+z
1/2-x,-y,1/2+z
1/2+x,1/2-y,-z
-x,1/2+y,1/2-z
1/2-x,1/2-y,1/2-z
1/2+x,y,1/2-z
1/2-x,1/2+y,z
x,1/2-y,1/2+z
loop_
_atom_site_type_symbol
_atom_site_label
_atom_site_fract_x
_atom_site_fract_y
_atom_site_fract_z
Si Si1 0.106568 0.393813 0.556330
Si Si2 0.409098 0.479777 0.161194
Si Si3 0.250000 0.647270 0.500000
Si Si4 0.342832 0.913451 0.302253
O O1 0.101345 0.508354 0.604266
O O2 0.132471 0.530579 0.512882
O O3 0.222531 0.265808 0.546698
O O4 0.000000 0.250000 0.556762
O O5 0.383205 0.291278 0.188000
O O6 0.548763 0.525044 0.172184
O O7 0.294220 0.590438 0.179281
O O8 0.340787 0.000000 0.250000
#
# Coordination Sequence:
#
# PCOD9532930 Si02
#       4
#    16  16   8  16
#     4  11  24  45  71 105 143 189 241 297 368 424
#     4  11  26  44  74 107 144 188 241 303 358 434
#     4  10  24  46  72 102 142 192 242 300 354 440
#     4  11  25  47  71 105 143 190 241 299 362 433
#
# _framework density 24.190021999999999
#
# number of rings (size 3 to 8) (size 9 to 14) (size 15 to 20)
#    0.000    1.143    0.000    4.286    8.000    2.286 
#   10.286    0.000    0.000    0.000    0.000    0.000 
#    0.000    0.000    0.000    0.000    0.000    0.000 
#
# Total GULP energy -155922.529332 kJ/mol
# GULP energy per Si atom -5568.661762 kJ/mol
# Density = 2.413496 g / cm^3
# Si number density = 24.190022 Si / 1000 Ang^3
#
#
#
# Elastic Constant Matrix: (Units=GPa)
#
#
# Indices 1 2 3 4 5 6 
#
# 1 114.6141 19.1059 18.2264 0.0000 0.0000 0.0000
# 2 19.1059 55.5208 23.0617 0.0000 0.0000 0.0000
# 3 18.2264 23.0617 131.2342 0.0000 0.0000 0.0000
# 4 0.0000 0.0000 0.0000 -5.3341 0.0000 0.0000
# 5 0.0000 0.0000 0.0000 0.0000 1.9709 0.0000
# 6 0.0000 0.0000 0.0000 0.0000 0.0000 39.1110
#
#
#
# Elastic Compliance Matrix: (Units=1/GPa)
#
#
# Indices 1 2 3 4 5 6 
#
# 1 0.009331 -0.002883 -0.000789 0.000000 0.000000 0.000000
# 2 -0.002883 0.020320 -0.003170 0.000000 0.000000 0.000000
# 3 -0.000789 -0.003170 0.008287 0.000000 0.000000 0.000000
# 4 0.000000 0.000000 0.000000 -0.187474 0.000000 0.000000
# 5 0.000000 0.000000 0.000000 0.000000 0.507378 0.000000
# 6 0.000000 0.000000 0.000000 0.000000 0.000000 0.025568
#
#
# Mechanical properties :
#
#
# Convention : Reuss Voigt Hill
#
# Bulk Modulus (GPa) = 41.23318 46.90633 44.06976
# Shear Modulus (GPa) = 12.34019 23.21457 17.77738
#
# Velocity S-wave (km/s) = 2.26107 3.10122 2.71386
# Velocity P-wave (km/s) = 4.88867 5.67947 5.29884
#
# Compressibility (1/GPa) = 0.02425231
#
# Stress axis : x y z
#
# Youngs Moduli (GPa) = 107.16887 49.21176 120.67497
#
# Poissons Ratio (x) = 0.14189 0.09525
# Poissons Ratio (y) = 0.30899 0.38259
# Poissons Ratio (z) = 0.08459 0.15602
#
# Static dielectric constant tensor:
#      x y z
#    x 2.006570 0.000000 0.000000 
#    y 0.000000 2.036950 0.000000 
#    z 0.000000 0.000000 1.888000 
# 
# From -- ./inp_files/8973.got.cif
#   From: 2010.05.17/outbox.cif.g08.bks.cpg/sg73_5_cif.got.tgz:8973.got - 2010.06.03 17:35:07.
