data_PCOD9532696
_publ_section_title
;
Structure prediction by ZEFSAII (Michael W. Deem and Ramdas Pophale) SiO2 
 PCOD9532696
Probable space group: I B C A 
;
_chemical_formula_sum "Si O2"
_cell_formula_units_Z 104
_cell_length_a 18.705219
_cell_length_b 9.175058
_cell_length_c 30.682977
_cell_angle_alpha 90.000000
_cell_angle_beta 90.000000
_cell_angle_gamma 90.000000
_cell_volume 5265.857593
_symmetry_space_group_name_H-M "I B C A "
_symmetry_group_IT_number 73
_symmetry_cell_setting 'orthorhombic'
loop_
_space_group_symop_operation_xyz
x,y,z
-x,1/2-y,z
x,-y,1/2-z
1/2-x,y,-z
-x,-y,-z
x,1/2+y,-z
-x,y,1/2+z
1/2+x,-y,z
1/2+x,1/2+y,1/2+z
1/2-x,-y,1/2+z
1/2+x,1/2-y,-z
-x,1/2+y,1/2-z
1/2-x,1/2-y,1/2-z
1/2+x,y,1/2-z
1/2-x,1/2+y,z
x,1/2-y,1/2+z
loop_
_atom_site_type_symbol
_atom_site_label
_atom_site_fract_x
_atom_site_fract_y
_atom_site_fract_z
Si Si1 0.317111 0.866299 0.055056
Si Si2 0.982122 0.583350 0.956336
Si Si3 0.694635 0.980421 0.799825
Si Si4 0.197508 0.276284 0.647535
Si Si5 0.250000 0.121116 0.000000
Si Si6 0.457231 0.903577 0.632276
Si Si7 0.530334 0.910094 0.793239
O O1 0.399432 0.915534 0.058401
O O2 0.288539 0.799584 0.100465
O O3 0.307936 0.733556 0.020257
O O4 0.276424 0.009469 0.037353
O O5 0.000000 0.750000 0.965090
O O6 0.031061 0.533953 0.916052
O O7 0.000000 0.500000 0.000000
O O8 0.743762 0.881883 0.831108
O O9 0.615882 0.910587 0.797985
O O10 0.721919 0.000000 0.750000
O O11 0.686690 0.141049 0.819933
O O12 0.124593 0.367357 0.642001
O O13 0.500000 0.750000 0.633454
O O14 0.493223 0.009540 0.666621
O O15 0.500000 0.750000 0.789049
O O16 0.513062 0.000000 0.750000
#
# Coordination Sequence:
#
# PCOD9532696 Si02
#       7
#    16  16  16  16   8  16  16
#     4  11  21  41  63  91 129 172 219 276 339 401
#     4  11  22  40  66  94 127 175 226 280 339 401
#     4  11  26  44  67 103 138 178 230 281 345 417
#     4  12  24  44  69  96 139 180 227 283 346 413
#     4  10  24  38  60  94 128 168 220 272 342 412
#     4  11  22  44  68  93 134 182 221 285 346 403
#     4  11  25  44  71 103 136 176 230 284 342 408
#
# _framework density 19.749870000000001
#
# number of rings (size 3 to 8) (size 9 to 14) (size 15 to 20)
#    0.000    0.923    4.615    2.769    4.308    1.231 
#    0.000    1.538    0.000    0.000    0.000    0.000 
#    0.000    0.000    0.000    0.000    0.000    0.000 
#
# Total GULP energy -290578.173104 kJ/mol
# GULP energy per Si atom -5588.041790 kJ/mol
# Density = 1.970492 g / cm^3
# Si number density = 19.749870 Si / 1000 Ang^3
#
#
#
# Elastic Constant Matrix: (Units=GPa)
#
#
# Indices 1 2 3 4 5 6 
#
# 1 69.8772 52.7104 49.1364 0.0000 0.0000 0.0000
# 2 52.7104 89.1499 60.5528 0.0000 0.0000 0.0000
# 3 49.1364 60.5528 171.6041 0.0000 0.0000 0.0000
# 4 0.0000 0.0000 0.0000 24.0128 0.0000 0.0000
# 5 0.0000 0.0000 0.0000 0.0000 5.9163 0.0000
# 6 0.0000 0.0000 0.0000 0.0000 0.0000 15.4856
#
#
#
# Elastic Compliance Matrix: (Units=1/GPa)
#
#
# Indices 1 2 3 4 5 6 
#
# 1 0.026774 -0.013972 -0.002736 0.000000 0.000000 0.000000
# 2 -0.013972 0.022044 -0.003778 0.000000 0.000000 0.000000
# 3 -0.002736 -0.003778 0.007944 0.000000 0.000000 0.000000
# 4 0.000000 0.000000 0.000000 0.041644 0.000000 0.000000
# 5 0.000000 0.000000 0.000000 0.000000 0.169023 0.000000
# 6 0.000000 0.000000 0.000000 0.000000 0.000000 0.064576
#
#
# Mechanical properties :
#
#
# Convention : Reuss Voigt Hill
#
# Bulk Modulus (GPa) = 63.33048 72.82560 68.07804
# Shear Modulus (GPa) = 13.21906 20.29840 16.75873
#
# Velocity S-wave (km/s) = 2.58994 3.20937 2.91615
# Velocity P-wave (km/s) = 6.40934 7.11951 6.77374
#
# Compressibility (1/GPa) = 0.01579019
#
# Stress axis : x y z
#
# Youngs Moduli (GPa) = 37.34917 45.36366 125.88222
#
# Poissons Ratio (x) = 0.63382 0.34445
# Poissons Ratio (y) = 0.52184 0.47557
# Poissons Ratio (z) = 0.10220 0.17138
#
# Static dielectric constant tensor:
#      x y z
#    x 1.730470 0.000000 0.000000 
#    y 0.000000 1.648690 0.000000 
#    z 0.000000 0.000000 1.661090 
# 
# From -- ./inp_files/32661.got.cif
#   From: 2010.05.17/outbox.cif.g08.bks.cpg/sg73_17_cif.got.tgz:32661.got - 2010.06.03 17:35:07.
