data_PCOD9532283
_publ_section_title
;
Structure prediction by ZEFSAII (Michael W. Deem and Ramdas Pophale) SiO2 
 PCOD9532283
Probable space group: I B C A 
;
_chemical_formula_sum "Si O2"
_cell_formula_units_Z 104
_cell_length_a 9.113427
_cell_length_b 27.609081
_cell_length_c 19.370043
_cell_angle_alpha 90.000000
_cell_angle_beta 90.000000
_cell_angle_gamma 90.000000
_cell_volume 4873.761297
_symmetry_space_group_name_H-M "I B C A "
_symmetry_group_IT_number 73
_symmetry_cell_setting 'orthorhombic'
loop_
_space_group_symop_operation_xyz
x,y,z
-x,1/2-y,z
x,-y,1/2-z
1/2-x,y,-z
-x,-y,-z
x,1/2+y,-z
-x,y,1/2+z
1/2+x,-y,z
1/2+x,1/2+y,1/2+z
1/2-x,-y,1/2+z
1/2+x,1/2-y,-z
-x,1/2+y,1/2-z
1/2-x,1/2-y,1/2-z
1/2+x,y,1/2-z
1/2-x,1/2+y,z
x,1/2-y,1/2+z
loop_
_atom_site_type_symbol
_atom_site_label
_atom_site_fract_x
_atom_site_fract_y
_atom_site_fract_z
Si Si1 0.752919 0.046012 0.166343
Si Si2 0.380868 0.477067 0.448748
Si Si3 0.180336 0.136698 0.571040
Si Si4 0.333137 0.813755 0.312029
Si Si5 0.350163 0.367315 0.430974
Si Si6 0.515677 0.500000 0.750000
Si Si7 0.668879 0.197725 0.172742
O O1 0.793721 0.096162 0.130207
O O2 0.628031 0.042619 0.226029
O O3 0.901603 0.020108 0.192842
O O4 0.672874 0.013878 0.108577
O O5 0.250000 0.468701 0.500000
O O6 0.500000 0.500000 0.500000
O O7 0.398141 0.423390 0.418372
O O8 0.250000 0.117486 0.500000
O O9 0.273737 0.181308 0.598964
O O10 0.013417 0.154132 0.560994
O O11 0.240079 0.843979 0.367864
O O12 0.506307 0.823408 0.316102
O O13 0.270082 0.821165 0.235393
O O14 0.324355 0.755906 0.324793
O O15 0.250000 0.362766 0.500000
#
# Coordination Sequence:
#
# PCOD9532283 Si02
#       7
#    16  16  16  16  16   8  16
#     4  11  23  41  61  89 128 165 212 265 323 394
#     4  11  22  39  63  89 123 169 215 265 323 391
#     4  12  25  41  63  93 125 168 216 267 328 392
#     4  10  22  44  67  96 128 170 216 267 333 396
#     4  11  24  40  64  96 130 169 217 270 329 398
#     4  10  24  40  60  88 124 170 212 268 330 384
#     4  10  23  42  69  95 129 169 216 270 328 401
#
# _framework density 21.338756
#
# number of rings (size 3 to 8) (size 9 to 14) (size 15 to 20)
#    0.000    1.231    0.000    6.000    0.000   11.077 
#    0.000    0.000    0.000    0.000    0.000    0.000 
#    0.000    0.000    0.000    0.000    0.000    0.000 
#
# Total GULP energy -290221.038727 kJ/mol
# GULP energy per Si atom -5581.173822 kJ/mol
# Density = 2.129019 g / cm^3
# Si number density = 21.338756 Si / 1000 Ang^3
#
#
#
# Elastic Constant Matrix: (Units=GPa)
#
#
# Indices 1 2 3 4 5 6 
#
# 1 168.0829 35.2272 47.0327 0.0000 0.0000 0.0000
# 2 35.2272 42.7648 35.9448 0.0000 0.0000 0.0000
# 3 47.0327 35.9448 83.3890 0.0000 0.0000 0.0000
# 4 0.0000 0.0000 0.0000 39.7691 0.0000 0.0000
# 5 0.0000 0.0000 0.0000 0.0000 52.1677 0.0000
# 6 0.0000 0.0000 0.0000 0.0000 0.0000 17.8562
#
#
#
# Elastic Compliance Matrix: (Units=1/GPa)
#
#
# Indices 1 2 3 4 5 6 
#
# 1 0.007499 -0.004112 -0.002457 0.000000 0.000000 0.000000
# 2 -0.004112 0.038924 -0.014459 0.000000 0.000000 0.000000
# 3 -0.002457 -0.014459 0.019610 0.000000 0.000000 0.000000
# 4 0.000000 0.000000 0.000000 0.025145 0.000000 0.000000
# 5 0.000000 0.000000 0.000000 0.000000 0.019169 0.000000
# 6 0.000000 0.000000 0.000000 0.000000 0.000000 0.056003
#
#
# Mechanical properties :
#
#
# Convention : Reuss Voigt Hill
#
# Bulk Modulus (GPa) = 41.70615 58.96069 50.33342
# Shear Modulus (GPa) = 23.10557 33.69408 28.39983
#
# Velocity S-wave (km/s) = 3.29416 3.97799 3.65211
# Velocity P-wave (km/s) = 5.83574 6.98498 6.43606
#
# Compressibility (1/GPa) = 0.02397728
#
# Stress axis : x y z
#
# Youngs Moduli (GPa) = 133.35593 25.69116 50.99363
#
# Poissons Ratio (x) = 0.10564 0.12529
# Poissons Ratio (y) = 0.54834 0.73732
# Poissons Ratio (z) = 0.32765 0.37147
#
# Static dielectric constant tensor:
#      x y z
#    x 1.780640 0.000000 0.000000 
#    y 0.000000 3.051830 0.000000 
#    z 0.000000 0.000000 1.776210 
# 
# From -- ./inp_files/25062.got.cif
#   From: 2010.05.17/outbox.cif.g08.bks.cpg/sg73_13_cif.got.tgz:25062.got - 2010.06.03 17:35:07.
