data_PCOD9532492
_publ_section_title
;
Structure prediction by ZEFSAII (Michael W. Deem and Ramdas Pophale) SiO2 
 PCOD9532492
Probable space group: I B C A 
;
_chemical_formula_sum "Si O2"
_cell_formula_units_Z 56
_cell_length_a 5.273274
_cell_length_b 18.210347
_cell_length_c 23.571621
_cell_angle_alpha 90.000000
_cell_angle_beta 90.000000
_cell_angle_gamma 90.000000
_cell_volume 2263.539142
_symmetry_space_group_name_H-M "I B C A "
_symmetry_group_IT_number 73
_symmetry_cell_setting 'orthorhombic'
loop_
_space_group_symop_operation_xyz
x,y,z
-x,1/2-y,z
x,-y,1/2-z
1/2-x,y,-z
-x,-y,-z
x,1/2+y,-z
-x,y,1/2+z
1/2+x,-y,z
1/2+x,1/2+y,1/2+z
1/2-x,-y,1/2+z
1/2+x,1/2-y,-z
-x,1/2+y,1/2-z
1/2-x,1/2-y,1/2-z
1/2+x,y,1/2-z
1/2-x,1/2+y,z
x,1/2-y,1/2+z
loop_
_atom_site_type_symbol
_atom_site_label
_atom_site_fract_x
_atom_site_fract_y
_atom_site_fract_z
Si Si1 0.062004 0.975463 0.396703
Si Si2 0.587441 0.414612 0.711972
Si Si3 0.822216 0.679439 0.873316
Si Si4 0.000000 0.750000 0.033935
O O1 0.001641 0.891396 0.382614
O O2 0.824034 0.011176 0.427422
O O3 0.086856 0.025258 0.338787
O O4 0.825947 0.420232 0.754352
O O5 0.642840 0.338522 0.679810
O O6 0.632912 0.690024 0.925993
O O7 0.000000 0.750000 0.866980
O O8 0.750000 0.777987 0.000000
#
# Coordination Sequence:
#
# PCOD9532492 Si02
#       4
#    16  16  16   8
#     4  10  23  41  69 100 146 201 249 287 357 443
#     4  11  25  44  69 105 155 210 244 278 357 457
#     4  11  27  46  78 113 153 198 259 324 378 447
#     4  12  28  52  80 108 142 196 256 334 422 468
#
# _framework density 24.740020999999999
#
# number of rings (size 3 to 8) (size 9 to 14) (size 15 to 20)
#    0.000    1.143    1.429    3.429   12.000   14.857 
#    0.000    0.000    0.000   20.571    0.000    0.000 
#    0.000    0.000    0.000    0.000    0.000    0.000 
#
# Total GULP energy -156605.351842 kJ/mol
# GULP energy per Si atom -5593.048280 kJ/mol
# Density = 2.468371 g / cm^3
# Si number density = 24.740021 Si / 1000 Ang^3
#
#
#
# Elastic Constant Matrix: (Units=GPa)
#
#
# Indices 1 2 3 4 5 6 
#
# 1 226.2662 59.3210 44.6980 0.0000 0.0000 0.0000
# 2 59.3210 155.7986 26.1838 0.0000 0.0000 0.0000
# 3 44.6980 26.1838 80.4351 0.0000 0.0000 0.0000
# 4 0.0000 0.0000 0.0000 1017.4789 0.0000 0.0000
# 5 0.0000 0.0000 0.0000 0.0000 32.2211 0.0000
# 6 0.0000 0.0000 0.0000 0.0000 0.0000 49.8823
#
#
#
# Elastic Compliance Matrix: (Units=1/GPa)
#
#
# Indices 1 2 3 4 5 6 
#
# 1 0.005324 -0.001619 -0.002432 0.000000 0.000000 0.000000
# 2 -0.001619 0.007282 -0.001471 0.000000 0.000000 0.000000
# 3 -0.002432 -0.001471 0.014263 0.000000 0.000000 0.000000
# 4 0.000000 0.000000 0.000000 0.000983 0.000000 0.000000
# 5 0.000000 0.000000 0.000000 0.000000 0.031036 0.000000
# 6 0.000000 0.000000 0.000000 0.000000 0.000000 0.020047
#
#
# Mechanical properties :
#
#
# Convention : Reuss Voigt Hill
#
# Bulk Modulus (GPa) = 63.18694 80.32284 71.75489
# Shear Modulus (GPa) = 52.49182 242.06960 147.28071
#
# Velocity S-wave (km/s) = 4.61123 9.90241 7.72403
# Velocity P-wave (km/s) = 7.34487 12.77814 10.42180
#
# Compressibility (1/GPa) = 0.01582605
#
# Stress axis : x y z
#
# Youngs Moduli (GPa) = 187.81750 137.32407 70.11320
#
# Poissons Ratio (x) = 0.22227 0.17051
# Poissons Ratio (y) = 0.30399 0.10314
# Poissons Ratio (z) = 0.45675 0.20201
#
# Static dielectric constant tensor:
#      x y z
#    x 2.060210 0.000000 0.000000 
#    y 0.000000 1.979290 0.000000 
#    z 0.000000 0.000000 2.019050 
# 
# From -- ./inp_files/33171.got.cif
#   From: 2010.05.17/outbox.cif.g08.bks.cpg/sg73_17_cif.got.tgz:33171.got - 2010.06.03 17:35:07.
