data_PCOD9532545
_publ_section_title
;
Structure prediction by ZEFSAII (Michael W. Deem and Ramdas Pophale) SiO2 
 PCOD9532545
Probable space group: I B C A 
;
_chemical_formula_sum "Si O2"
_cell_formula_units_Z 48
_cell_length_a 5.102011
_cell_length_b 29.824142
_cell_length_c 13.571313
_cell_angle_alpha 90.000000
_cell_angle_beta 90.000000
_cell_angle_gamma 90.000000
_cell_volume 2065.053065
_symmetry_space_group_name_H-M "I B C A "
_symmetry_group_IT_number 73
_symmetry_cell_setting 'orthorhombic'
loop_
_space_group_symop_operation_xyz
x,y,z
-x,1/2-y,z
x,-y,1/2-z
1/2-x,y,-z
-x,-y,-z
x,1/2+y,-z
-x,y,1/2+z
1/2+x,-y,z
1/2+x,1/2+y,1/2+z
1/2-x,-y,1/2+z
1/2+x,1/2-y,-z
-x,1/2+y,1/2-z
1/2-x,1/2-y,1/2-z
1/2+x,y,1/2-z
1/2-x,1/2+y,z
x,1/2-y,1/2+z
loop_
_atom_site_type_symbol
_atom_site_label
_atom_site_fract_x
_atom_site_fract_y
_atom_site_fract_z
Si Si1 0.250000 0.279988 0.000000
Si Si2 0.562498 0.928038 0.800661
Si Si3 0.750000 0.968058 0.000000
Si Si4 0.020966 0.178968 0.303157
O O1 0.500000 0.250000 0.970070
O O2 0.138798 0.308623 0.908704
O O3 0.269339 0.945822 0.781016
O O4 0.514912 0.874667 0.795281
O O5 0.701705 0.938356 0.903437
O O6 0.500000 0.000000 0.000000
O O7 0.232020 0.196017 0.223134
#
# Coordination Sequence:
#
# PCOD9532545 Si02
#       4
#     8  16   8  16
#     4  12  26  40  64 100 134 170 212 274 344 396
#     4  10  23  43  66  91 124 170 218 261 310 378
#     4  12  26  40  64 100 134 168 206 264 330 382
#     4  10  23  43  66  91 124 171 221 266 316 385
#
# _framework density 23.243956000000001
#
# number of rings (size 3 to 8) (size 9 to 14) (size 15 to 20)
#    0.000    1.333    0.000    4.000    0.000   18.667 
#    0.000    0.000    0.000    0.000    0.000    0.000 
#    0.000    0.000    0.000    0.000    0.000    0.000 
#
# Total GULP energy -134126.019173 kJ/mol
# GULP energy per Si atom -5588.584132 kJ/mol
# Density = 2.319105 g / cm^3
# Si number density = 23.243956 Si / 1000 Ang^3
#
#
#
# Elastic Constant Matrix: (Units=GPa)
#
#
# Indices 1 2 3 4 5 6 
#
# 1 221.8249 57.0632 73.6122 0.0000 0.0000 0.0000
# 2 57.0632 41.3797 12.8780 0.0000 0.0000 0.0000
# 3 73.6122 12.8780 136.9418 0.0001 0.0000 0.0000
# 4 0.0000 0.0000 0.0001 139.4551 0.0000 0.0000
# 5 0.0000 0.0000 0.0000 0.0000 44.2973 0.0000
# 6 0.0000 0.0000 0.0000 0.0000 0.0000 31.2755
#
#
#
# Elastic Compliance Matrix: (Units=1/GPa)
#
#
# Indices 1 2 3 4 5 6 
#
# 1 0.008357 -0.010431 -0.003511 0.000000 0.000000 0.000000
# 2 -0.010431 0.037916 0.002042 0.000000 0.000000 0.000000
# 3 -0.003511 0.002042 0.008998 0.000000 0.000000 0.000000
# 4 0.000000 0.000000 0.000000 0.007171 0.000000 0.000000
# 5 0.000000 0.000000 0.000000 0.000000 0.022575 0.000000
# 6 0.000000 0.000000 0.000000 0.000000 0.000000 0.031974
#
#
# Mechanical properties :
#
#
# Convention : Reuss Voigt Hill
#
# Bulk Modulus (GPa) = 31.77751 76.36147 54.06949
# Shear Modulus (GPa) = 33.05126 60.11177 46.58152
#
# Velocity S-wave (km/s) = 3.77494 5.09091 4.48149
# Velocity P-wave (km/s) = 5.71850 8.21462 7.07747
#
# Compressibility (1/GPa) = 0.03146880
#
# Stress axis : x y z
#
# Youngs Moduli (GPa) = 119.66678 26.37432 111.13910
#
# Poissons Ratio (x) = 0.27511 0.39022
# Poissons Ratio (y) = 1.24825 -0.22690
# Poissons Ratio (z) = 0.42016 -0.05385
#
# Static dielectric constant tensor:
#      x y z
#    x 1.853550 0.000000 0.000000 
#    y 0.000000 1.820820 0.000000 
#    z 0.000000 0.000000 1.909450 
# 
# From -- ./inp_files/15176.got.cif
#   From: 2010.05.17/outbox.cif.g08.bks.cpg/sg73_8_cif.got.tgz:15176.got - 2010.06.03 17:35:07.
