data_PCOD9532785
_publ_section_title
;
Structure prediction by ZEFSAII (Michael W. Deem and Ramdas Pophale) SiO2 
 PCOD9532785
Probable space group: I B C A 
;
_chemical_formula_sum "Si O2"
_cell_formula_units_Z 72
_cell_length_a 9.559791
_cell_length_b 18.429769
_cell_length_c 17.937789
_cell_angle_alpha 90.000000
_cell_angle_beta 90.000000
_cell_angle_gamma 90.000000
_cell_volume 3160.364688
_symmetry_space_group_name_H-M "I B C A "
_symmetry_group_IT_number 73
_symmetry_cell_setting 'orthorhombic'
loop_
_space_group_symop_operation_xyz
x,y,z
-x,1/2-y,z
x,-y,1/2-z
1/2-x,y,-z
-x,-y,-z
x,1/2+y,-z
-x,y,1/2+z
1/2+x,-y,z
1/2+x,1/2+y,1/2+z
1/2-x,-y,1/2+z
1/2+x,1/2-y,-z
-x,1/2+y,1/2-z
1/2-x,1/2-y,1/2-z
1/2+x,y,1/2-z
1/2-x,1/2+y,z
x,1/2-y,1/2+z
loop_
_atom_site_type_symbol
_atom_site_label
_atom_site_fract_x
_atom_site_fract_y
_atom_site_fract_z
Si Si1 0.109162 0.199428 0.539154
Si Si2 0.794670 0.481876 0.163550
Si Si3 0.500000 0.250000 0.728745
Si Si4 0.049881 0.540014 0.424690
Si Si5 0.281650 0.813802 0.661738
O O1 0.250000 0.175069 0.500000
O O2 0.034008 0.126437 0.565467
O O3 0.164397 0.254919 0.602088
O O4 0.000000 0.250000 0.494033
O O5 0.767170 0.500000 0.250000
O O6 0.706054 0.527483 0.104181
O O7 0.765007 0.398000 0.144219
O O8 0.956287 0.491308 0.142424
O O9 0.406124 0.193333 0.776786
O O10 0.626405 0.210462 0.686603
O O11 0.000000 0.500000 0.500000
#
# Coordination Sequence:
#
# PCOD9532785 Si02
#       5
#    16  16   8  16  16
#     4  12  27  48  75 108 146 196 256 307 375 458
#     4  12  28  45  76 109 151 192 254 312 385 448
#     4  10  24  42  72 100 144 180 240 294 378 432
#     4  12  28  51  74 110 151 201 250 312 380 462
#     4  11  25  46  73 104 145 190 241 309 373 459
#
# _framework density 22.782181000000001
#
# number of rings (size 3 to 8) (size 9 to 14) (size 15 to 20)
#    0.000    0.444    3.333    2.667   17.111    0.000 
#    0.000    0.000    0.000    0.000    0.000    0.000 
#    0.000    0.000    0.000    0.000    0.000    0.000 
#
# Total GULP energy -200995.000289 kJ/mol
# GULP energy per Si atom -5583.194452 kJ/mol
# Density = 2.273033 g / cm^3
# Si number density = 22.782181 Si / 1000 Ang^3
#
#
#
# Elastic Constant Matrix: (Units=GPa)
#
#
# Indices 1 2 3 4 5 6 
#
# 1 125.9485 14.3028 16.5287 0.0000 0.0000 0.0000
# 2 14.3028 133.9317 35.7226 0.0000 0.0000 0.0000
# 3 16.5287 35.7226 83.9808 0.0000 0.0000 0.0000
# 4 0.0000 0.0000 0.0000 30.9963 0.0000 0.0000
# 5 0.0000 0.0000 0.0000 0.0000 17.5955 0.0000
# 6 0.0000 0.0000 0.0000 0.0000 0.0000 27.1158
#
#
#
# Elastic Compliance Matrix: (Units=1/GPa)
#
#
# Indices 1 2 3 4 5 6 
#
# 1 0.008180 -0.000501 -0.001397 0.000000 0.000000 0.000000
# 2 -0.000501 0.008453 -0.003497 0.000000 0.000000 0.000000
# 3 -0.001397 -0.003497 0.013670 0.000000 0.000000 0.000000
# 4 0.000000 0.000000 0.000000 0.032262 0.000000 0.000000
# 5 0.000000 0.000000 0.000000 0.000000 0.056833 0.000000
# 6 0.000000 0.000000 0.000000 0.000000 0.000000 0.036879
#
#
# Mechanical properties :
#
#
# Convention : Reuss Voigt Hill
#
# Bulk Modulus (GPa) = 51.24765 52.99657 52.12211
# Shear Modulus (GPa) = 28.80687 33.62866 31.21777
#
# Velocity S-wave (km/s) = 3.55976 3.84617 3.70573
# Velocity P-wave (km/s) = 6.28008 6.56024 6.42169
#
# Compressibility (1/GPa) = 0.01951309
#
# Stress axis : x y z
#
# Youngs Moduli (GPa) = 122.25005 118.30549 73.15365
#
# Poissons Ratio (x) = 0.05927 0.10218
# Poissons Ratio (y) = 0.06124 0.25581
# Poissons Ratio (z) = 0.17076 0.41370
#
# Static dielectric constant tensor:
#      x y z
#    x 1.855030 0.000000 0.000000 
#    y 0.000000 1.850980 0.000000 
#    z 0.000000 0.000000 1.889120 
# 
# From -- ./inp_files/6017.got.cif
#   From: 2010.05.17/outbox.cif.g08.bks.cpg/sg73_4_cif.got.tgz:6017.got - 2010.06.03 17:35:07.
