data_PCOD9532348
_publ_section_title
;
Structure prediction by ZEFSAII (Michael W. Deem and Ramdas Pophale) SiO2 
 PCOD9532348
Probable space group: I B C A 
;
_chemical_formula_sum "Si O2"
_cell_formula_units_Z 120
_cell_length_a 9.424061
_cell_length_b 22.207188
_cell_length_c 26.649414
_cell_angle_alpha 90.000000
_cell_angle_beta 90.000000
_cell_angle_gamma 90.000000
_cell_volume 5577.239845
_symmetry_space_group_name_H-M "I B C A "
_symmetry_group_IT_number 73
_symmetry_cell_setting 'orthorhombic'
loop_
_space_group_symop_operation_xyz
x,y,z
-x,1/2-y,z
x,-y,1/2-z
1/2-x,y,-z
-x,-y,-z
x,1/2+y,-z
-x,y,1/2+z
1/2+x,-y,z
1/2+x,1/2+y,1/2+z
1/2-x,-y,1/2+z
1/2+x,1/2-y,-z
-x,1/2+y,1/2-z
1/2-x,1/2-y,1/2-z
1/2+x,y,1/2-z
1/2-x,1/2+y,z
x,1/2-y,1/2+z
loop_
_atom_site_type_symbol
_atom_site_label
_atom_site_fract_x
_atom_site_fract_y
_atom_site_fract_z
Si Si1 0.289950 0.314181 0.223783
Si Si2 0.002489 0.134206 0.194641
Si Si3 0.554766 0.430471 0.097076
Si Si4 0.589027 0.885677 0.013865
Si Si5 0.675827 0.802500 0.547640
Si Si6 0.500000 0.750000 0.125049
Si Si7 0.629224 0.540902 0.616924
Si Si8 0.575843 0.689313 0.884567
O O1 0.250000 0.250000 0.250000
O O2 0.157832 0.358688 0.214000
O O3 0.397461 0.349668 0.259084
O O4 0.358250 0.299047 0.169955
O O5 0.011866 0.190989 0.157190
O O6 0.054623 0.077506 0.162266
O O7 0.429845 0.473803 0.114599
O O8 0.701158 0.457278 0.117736
O O9 0.538392 0.363421 0.118340
O O10 0.552182 0.423174 0.036514
O O11 0.461569 0.839016 0.027766
O O12 0.594977 0.926288 0.063830
O O13 0.750000 0.863389 0.000000
O O14 0.750000 0.775085 0.500000
O O15 0.631625 0.753679 0.588033
O O16 0.800382 0.836094 0.578437
O O17 0.500000 0.750000 0.903851
#
# Coordination Sequence:
#
# PCOD9532348 Si02
#       8
#    16  16  16  16  16   8  16  16
#     4  12  24  45  76 106 140 189 245 309 369 446
#     4  12  25  45  74 106 143 189 247 313 376 435
#     4  11  27  45  75 106 147 197 241 299 365 444
#     4  10  22  45  70 105 140 194 248 296 353 448
#     4  12  25  41  68 101 153 195 238 299 375 433
#     4  12  24  42  68 104 150 192 240 302 366 428
#     4  11  26  46  74 103 146 188 248 304 365 440
#     4  12  27  45  73 108 146 191 251 308 374 448
#
# _framework density 21.516017999999999
#
# number of rings (size 3 to 8) (size 9 to 14) (size 15 to 20)
#    0.000    0.533    5.333    1.200   10.267    0.533 
#    0.000    0.667    0.000    0.000    0.000    0.000 
#    0.000    0.000    0.000    0.000    0.000    0.000 
#
# Total GULP energy -335188.440642 kJ/mol
# GULP energy per Si atom -5586.474011 kJ/mol
# Density = 2.146705 g / cm^3
# Si number density = 21.516018 Si / 1000 Ang^3
#
#
#
# Elastic Constant Matrix: (Units=GPa)
#
#
# Indices 1 2 3 4 5 6 
#
# 1 121.5890 39.3945 27.0554 0.0000 0.0000 0.0000
# 2 39.3945 84.6523 3.2569 0.0000 0.0000 0.0000
# 3 27.0554 3.2569 93.4573 0.0000 0.0000 0.0000
# 4 0.0000 0.0000 0.0000 20.4936 0.0000 0.0000
# 5 0.0000 0.0000 0.0000 0.0000 48.2957 0.0000
# 6 0.0000 0.0000 0.0000 0.0000 0.0000 25.7348
#
#
#
# Elastic Compliance Matrix: (Units=1/GPa)
#
#
# Indices 1 2 3 4 5 6 
#
# 1 0.010388 -0.004725 -0.002843 0.000000 0.000000 0.000000
# 2 -0.004725 0.013978 0.000881 0.000000 0.000000 0.000000
# 3 -0.002843 0.000881 0.011492 0.000000 0.000000 0.000000
# 4 0.000000 0.000000 0.000000 0.048796 0.000000 0.000000
# 5 0.000000 0.000000 0.000000 0.000000 0.020706 0.000000
# 6 0.000000 0.000000 0.000000 0.000000 0.000000 0.038858
#
#
# Mechanical properties :
#
#
# Convention : Reuss Voigt Hill
#
# Bulk Modulus (GPa) = 44.47475 48.79024 46.63249
# Shear Modulus (GPa) = 30.28732 34.23761 32.26247
#
# Velocity S-wave (km/s) = 3.75596 3.99339 3.87649
# Velocity P-wave (km/s) = 6.28689 6.63237 6.46194
#
# Compressibility (1/GPa) = 0.02248467
#
# Stress axis : x y z
#
# Youngs Moduli (GPa) = 96.26725 71.54151 87.01490
#
# Poissons Ratio (x) = 0.33802 0.24734
# Poissons Ratio (y) = 0.45484 -0.07663
# Poissons Ratio (z) = 0.27364 -0.06300
#
# Static dielectric constant tensor:
#      x y z
#    x 5.353970 0.000000 0.000000 
#    y 0.000000 1.851670 0.000000 
#    z 0.000000 0.000000 1.780120 
# 
# From -- ./inp_files/31404.got.cif
#   From: 2010.05.17/outbox.cif.g08.bks.cpg/sg73_16_cif.got.tgz:31404.got - 2010.06.03 17:35:07.
