data_PCOD9532988
_publ_section_title
;
Structure prediction by ZEFSAII (Michael W. Deem and Ramdas Pophale) SiO2 
 PCOD9532988
Probable space group: I B C A 
;
_chemical_formula_sum "Si O2"
_cell_formula_units_Z 64
_cell_length_a 28.283724
_cell_length_b 5.484447
_cell_length_c 17.343231
_cell_angle_alpha 90.000000
_cell_angle_beta 90.000000
_cell_angle_gamma 90.000000
_cell_volume 2690.292143
_symmetry_space_group_name_H-M "I B C A "
_symmetry_group_IT_number 73
_symmetry_cell_setting 'orthorhombic'
loop_
_space_group_symop_operation_xyz
x,y,z
-x,1/2-y,z
x,-y,1/2-z
1/2-x,y,-z
-x,-y,-z
x,1/2+y,-z
-x,y,1/2+z
1/2+x,-y,z
1/2+x,1/2+y,1/2+z
1/2-x,-y,1/2+z
1/2+x,1/2-y,-z
-x,1/2+y,1/2-z
1/2-x,1/2-y,1/2-z
1/2+x,y,1/2-z
1/2-x,1/2+y,z
x,1/2-y,1/2+z
loop_
_atom_site_type_symbol
_atom_site_label
_atom_site_fract_x
_atom_site_fract_y
_atom_site_fract_z
Si Si1 0.575955 0.000000 0.750000
Si Si2 0.803481 0.690265 0.531009
Si Si3 0.500000 0.750000 0.140920
Si Si4 0.075815 0.513097 0.952148
Si Si5 0.352502 0.869315 0.827669
O O1 0.541223 0.146255 0.805811
O O2 0.610145 0.168765 0.700114
O O3 0.750000 0.669101 0.500000
O O4 0.824102 0.423194 0.514909
O O5 0.810927 0.758404 0.619924
O O6 0.475023 0.546334 0.088784
O O7 0.115996 0.532736 0.885622
O O8 0.079402 0.746072 0.009116
O O9 0.335698 0.000000 0.750000
#
# Coordination Sequence:
#
# PCOD9532988 Si02
#       5
#     8  16   8  16  16
#     4  12  26  46  70 108 160 204 262 324 388 436
#     4  10  24  49  80 111 149 191 242 313 388 462
#     4  12  24  46  68 104 152 208 264 320 370 442
#     4  12  26  45  69 103 144 199 254 314 367 436
#     4  12  26  46  73 110 149 201 254 312 385 466
#
# _framework density 23.789237
#
# number of rings (size 3 to 8) (size 9 to 14) (size 15 to 20)
#    0.000    0.500    2.500    5.250    3.500    2.000 
#    0.000    5.000    0.000    0.000    0.000    0.000 
#    0.000    0.000    0.000    0.000    0.000    0.000 
#
# Total GULP energy -179112.648538 kJ/mol
# GULP energy per Si atom -5597.270267 kJ/mol
# Density = 2.373509 g / cm^3
# Si number density = 23.789237 Si / 1000 Ang^3
#
#
#
# Elastic Constant Matrix: (Units=GPa)
#
#
# Indices 1 2 3 4 5 6 
#
# 1 104.7318 22.8054 52.9648 0.0000 0.0000 0.0000
# 2 22.8054 145.1760 51.0765 0.0000 0.0000 0.0000
# 3 52.9648 51.0765 149.5282 0.0000 0.0000 0.0000
# 4 0.0000 0.0000 0.0000 21.7568 0.0000 0.0000
# 5 0.0000 0.0000 0.0000 0.0000 61.1871 0.0000
# 6 0.0000 0.0000 0.0000 0.0000 0.0000 25.2820
#
#
#
# Elastic Compliance Matrix: (Units=1/GPa)
#
#
# Indices 1 2 3 4 5 6 
#
# 1 0.011655 -0.000430 -0.003982 0.000000 0.000000 0.000000
# 2 -0.000430 0.007845 -0.002527 0.000000 0.000000 0.000000
# 3 -0.003982 -0.002527 0.008961 0.000000 0.000000 0.000000
# 4 0.000000 0.000000 0.000000 0.045963 0.000000 0.000000
# 5 0.000000 0.000000 0.000000 0.000000 0.016343 0.000000
# 6 0.000000 0.000000 0.000000 0.000000 0.000000 0.039554
#
#
# Mechanical properties :
#
#
# Convention : Reuss Voigt Hill
#
# Bulk Modulus (GPa) = 68.57021 72.56995 70.57008
# Shear Modulus (GPa) = 33.54335 39.81780 36.68057
#
# Velocity S-wave (km/s) = 3.75910 4.09562 3.93096
# Velocity P-wave (km/s) = 6.90853 7.27578 7.09453
#
# Compressibility (1/GPa) = 0.01458359
#
# Stress axis : x y z
#
# Youngs Moduli (GPa) = 85.79712 127.47067 111.59061
#
# Poissons Ratio (x) = 0.05483 0.44431
# Poissons Ratio (y) = 0.03690 0.28203
# Poissons Ratio (z) = 0.34161 0.32216
#
# Static dielectric constant tensor:
#      x y z
#    x 6.238840 0.000000 0.000000 
#    y 0.000000 1.987000 0.000000 
#    z 0.000000 0.000000 1.941460 
# 
# From -- ./inp_files/2935.got.cif
#   From: 2010.05.17/outbox.cif.g08.bks.cpg/sg73_2_cif.got.tgz:2935.got - 2010.06.03 17:35:07.
