data_PCOD9532255
_publ_section_title
;
Structure prediction by ZEFSAII (Michael W. Deem and Ramdas Pophale) SiO2 
 PCOD9532255
Probable space group: I B C A 
;
_chemical_formula_sum "Si O2"
_cell_formula_units_Z 120
_cell_length_a 23.064855
_cell_length_b 10.909842
_cell_length_c 21.047928
_cell_angle_alpha 90.000000
_cell_angle_beta 90.000000
_cell_angle_gamma 90.000000
_cell_volume 5296.372711
_symmetry_space_group_name_H-M "I B C A "
_symmetry_group_IT_number 73
_symmetry_cell_setting 'orthorhombic'
loop_
_space_group_symop_operation_xyz
x,y,z
-x,1/2-y,z
x,-y,1/2-z
1/2-x,y,-z
-x,-y,-z
x,1/2+y,-z
-x,y,1/2+z
1/2+x,-y,z
1/2+x,1/2+y,1/2+z
1/2-x,-y,1/2+z
1/2+x,1/2-y,-z
-x,1/2+y,1/2-z
1/2-x,1/2-y,1/2-z
1/2+x,y,1/2-z
1/2-x,1/2+y,z
x,1/2-y,1/2+z
loop_
_atom_site_type_symbol
_atom_site_label
_atom_site_fract_x
_atom_site_fract_y
_atom_site_fract_z
Si Si1 0.573093 0.571574 0.042559
Si Si2 0.750000 0.764910 0.500000
Si Si3 0.128049 0.306501 0.839867
Si Si4 0.040727 0.467193 0.896927
Si Si5 0.564349 0.766972 0.133511
Si Si6 0.655018 0.863814 0.721563
Si Si7 0.173951 0.396711 0.431123
Si Si8 0.243785 0.075604 0.371765
O O1 0.526542 0.500430 0.088283
O O2 0.565806 0.712017 0.062536
O O3 0.635437 0.513960 0.054837
O O4 0.561706 0.559076 0.968324
O O5 0.803983 0.672965 0.506804
O O6 0.749574 0.845423 0.563421
O O7 0.063925 0.361450 0.850193
O O8 0.146053 0.238051 0.775602
O O9 0.137525 0.201471 0.892237
O O10 0.176815 0.410508 0.853030
O O11 0.071722 0.589163 0.870591
O O12 0.500000 0.750000 0.161118
O O13 0.608851 0.681189 0.169828
O O14 0.716587 0.871618 0.685351
O O15 0.643739 0.000000 0.750000
O O16 0.228868 0.443636 0.389492
#
# Coordination Sequence:
#
# PCOD9532255 Si02
#       8
#    16   8  16  16  16  16  16  16
#     4  10  22  43  69  99 138 179 219 288 367 417
#     4  10  26  38  66 110 132 176 226 288 366 428
#     4  11  26  44  67 105 133 183 246 276 350 423
#     4  10  25  42  67 103 137 174 233 291 352 424
#     4  10  23  46  68  97 137 178 228 288 350 416
#     4  12  24  49  69  98 137 195 236 292 356 420
#     4  11  23  41  67  99 138 172 224 284 355 423
#     4  11  24  44  68  98 142 183 224 292 353 426
#
# _framework density 22.657015999999999
#
# number of rings (size 3 to 8) (size 9 to 14) (size 15 to 20)
#    0.000    1.333    2.667    0.800    9.333    2.133 
#    9.600    0.000    0.000    0.000    0.000    0.000 
#    0.000    0.000    0.000    0.000    0.000    0.000 
#
# Total GULP energy -335060.147944 kJ/mol
# GULP energy per Si atom -5584.335799 kJ/mol
# Density = 2.260545 g / cm^3
# Si number density = 22.657016 Si / 1000 Ang^3
#
#
#
# Elastic Constant Matrix: (Units=GPa)
#
#
# Indices 1 2 3 4 5 6 
#
# 1 58.4824 16.8550 15.5605 0.0000 0.0000 0.0000
# 2 16.8550 87.2252 18.2174 0.0000 0.0000 0.0000
# 3 15.5605 18.2174 73.9947 0.0000 0.0000 0.0000
# 4 0.0000 0.0000 0.0000 68.5116 0.0000 0.0000
# 5 0.0000 0.0000 0.0000 0.0000 29.5520 0.0000
# 6 0.0000 0.0000 0.0000 0.0000 0.0000 37.7398
#
#
#
# Elastic Compliance Matrix: (Units=1/GPa)
#
#
# Indices 1 2 3 4 5 6 
#
# 1 0.018811 -0.002961 -0.003227 0.000000 0.000000 0.000000
# 2 -0.002961 0.012552 -0.002468 0.000000 0.000000 0.000000
# 3 -0.003227 -0.002468 0.014801 0.000000 0.000000 0.000000
# 4 0.000000 0.000000 0.000000 0.014596 0.000000 0.000000
# 5 0.000000 0.000000 0.000000 0.000000 0.033839 0.000000
# 6 0.000000 0.000000 0.000000 0.000000 0.000000 0.026497
#
#
# Mechanical properties :
#
#
# Convention : Reuss Voigt Hill
#
# Bulk Modulus (GPa) = 34.65866 35.66314 35.16090
# Shear Modulus (GPa) = 33.77820 38.43195 36.10507
#
# Velocity S-wave (km/s) = 3.86534 4.12302 3.99626
# Velocity P-wave (km/s) = 5.93729 6.20003 6.07008
#
# Compressibility (1/GPa) = 0.02885282
#
# Stress axis : x y z
#
# Youngs Moduli (GPa) = 53.16008 79.66776 67.56484
#
# Poissons Ratio (x) = 0.23590 0.21802
# Poissons Ratio (y) = 0.15741 0.16673
# Poissons Ratio (z) = 0.17154 0.19659
#
# Static dielectric constant tensor:
#      x y z
#    x 1.865430 0.000000 0.000000 
#    y 0.000000 1.837500 0.000000 
#    z 0.000000 0.000000 1.914310 
# 
# From -- ./inp_files/27351.got.cif
#   From: 2010.05.17/outbox.cif.g08.bks.cpg/sg73_14_cif.got.tgz:27351.got - 2010.06.03 17:35:07.
