data_PCOD9532995
_publ_section_title
;
Structure prediction by ZEFSAII (Michael W. Deem and Ramdas Pophale) SiO2 
 PCOD9532995
Probable space group: I B C A 
;
_chemical_formula_sum "Si O2"
_cell_formula_units_Z 88
_cell_length_a 9.137736
_cell_length_b 15.951500
_cell_length_c 22.314147
_cell_angle_alpha 90.000000
_cell_angle_beta 90.000000
_cell_angle_gamma 90.000000
_cell_volume 3252.523362
_symmetry_space_group_name_H-M "I B C A "
_symmetry_group_IT_number 73
_symmetry_cell_setting 'orthorhombic'
loop_
_space_group_symop_operation_xyz
x,y,z
-x,1/2-y,z
x,-y,1/2-z
1/2-x,y,-z
-x,-y,-z
x,1/2+y,-z
-x,y,1/2+z
1/2+x,-y,z
1/2+x,1/2+y,1/2+z
1/2-x,-y,1/2+z
1/2+x,1/2-y,-z
-x,1/2+y,1/2-z
1/2-x,1/2-y,1/2-z
1/2+x,y,1/2-z
1/2-x,1/2+y,z
x,1/2-y,1/2+z
loop_
_atom_site_type_symbol
_atom_site_label
_atom_site_fract_x
_atom_site_fract_y
_atom_site_fract_z
Si Si1 0.664223 0.138927 0.723764
Si Si2 0.500000 0.000000 0.500000
Si Si3 0.296883 0.499939 0.076193
Si Si4 0.909084 0.546843 0.199943
Si Si5 0.864802 0.316475 0.447748
Si Si6 0.851682 0.275893 0.655400
O O1 0.789354 0.085043 0.756209
O O2 0.533115 0.111215 0.679928
O O3 0.755360 0.203067 0.684015
O O4 0.593736 0.175472 0.785046
O O5 0.367146 0.005758 0.443366
O O6 0.389741 0.933949 0.539562
O O7 0.333536 0.499264 0.145363
O O8 0.393121 0.419374 0.044538
O O9 0.007327 0.500000 0.250000
O O10 0.750000 0.293671 0.500000
O O11 0.763389 0.321363 0.387895
O O12 0.000000 0.250000 0.444352
O O13 0.000000 0.250000 0.622541
#
# Coordination Sequence:
#
# PCOD9532995 Si02
#       6
#    16   8  16  16  16  16
#     4  11  24  43  66 105 142 189 239 298 380 447
#     4  10  24  50  74  96 138 206 242 306 366 440
#     4  11  25  49  75 102 147 190 259 304 373 452
#     4  12  26  43  69 107 149 189 247 308 372 455
#     4  12  25  48  73 107 146 188 250 323 379 449
#     4  11  23  43  71  98 143 193 240 300 378 456
#
# _framework density 27.055916
#
# number of rings (size 3 to 8) (size 9 to 14) (size 15 to 20)
#    0.000    0.727    5.455    2.182    5.091    0.000 
#    3.273    0.000    0.000    0.000    0.000    0.000 
#    0.000    0.000    0.000    0.000    0.000    0.000 
#
# Total GULP energy -245028.195356 kJ/mol
# GULP energy per Si atom -5568.822622 kJ/mol
# Density = 2.699434 g / cm^3
# Si number density = 27.055916 Si / 1000 Ang^3
#
#
#
# Elastic Constant Matrix: (Units=GPa)
#
#
# Indices 1 2 3 4 5 6 
#
# 1 208.1281 26.0823 48.8325 0.0000 0.0000 0.0000
# 2 26.0823 58.4523 13.8455 0.0000 0.0000 0.0000
# 3 48.8325 13.8455 169.9464 0.0000 0.0000 0.0000
# 4 0.0000 0.0000 0.0000 32.4750 0.0000 0.0000
# 5 0.0000 0.0000 0.0000 0.0000 35.4983 0.0000
# 6 0.0000 0.0000 0.0000 0.0000 0.0000 43.4755
#
#
#
# Elastic Compliance Matrix: (Units=1/GPa)
#
#
# Indices 1 2 3 4 5 6 
#
# 1 0.005389 -0.002078 -0.001379 0.000000 0.000000 0.000000
# 2 -0.002078 0.018246 -0.000889 0.000000 0.000000 0.000000
# 3 -0.001379 -0.000889 0.006353 0.000000 0.000000 0.000000
# 4 0.000000 0.000000 0.000000 0.030793 0.000000 0.000000
# 5 0.000000 0.000000 0.000000 0.000000 0.028170 0.000000
# 6 0.000000 0.000000 0.000000 0.000000 0.000000 0.023001
#
#
# Mechanical properties :
#
#
# Convention : Reuss Voigt Hill
#
# Bulk Modulus (GPa) = 46.96010 68.22748 57.59379
# Shear Modulus (GPa) = 39.14103 45.47421 42.30762
#
# Velocity S-wave (km/s) = 3.80764 4.10414 3.95867
# Velocity P-wave (km/s) = 6.06013 6.90873 6.49830
#
# Compressibility (1/GPa) = 0.02129467
#
# Stress axis : x y z
#
# Youngs Moduli (GPa) = 185.57343 54.80711 157.40736
#
# Poissons Ratio (x) = 0.11388 0.21708
# Poissons Ratio (y) = 0.38559 0.14000
# Poissons Ratio (z) = 0.25593 0.04875
#
# Static dielectric constant tensor:
#      x y z
#    x 2.166050 0.000000 0.000000 
#    y 0.000000 3.097790 0.000000 
#    z 0.000000 0.000000 2.300590 
# 
# From -- ./inp_files/28346.got.cif
#   From: 2010.05.17/outbox.cif.g08.bks.cpg/sg73_15_cif.got.tgz:28346.got - 2010.06.03 17:35:07.
