data_PCOD9532286
_publ_section_title
;
Structure prediction by ZEFSAII (Michael W. Deem and Ramdas Pophale) SiO2 
 PCOD9532286
Probable space group: I B C A 
;
_chemical_formula_sum "Si O2"
_cell_formula_units_Z 104
_cell_length_a 13.158461
_cell_length_b 18.349316
_cell_length_c 17.601307
_cell_angle_alpha 90.000000
_cell_angle_beta 90.000000
_cell_angle_gamma 90.000000
_cell_volume 4249.813731
_symmetry_space_group_name_H-M "I B C A "
_symmetry_group_IT_number 73
_symmetry_cell_setting 'orthorhombic'
loop_
_space_group_symop_operation_xyz
x,y,z
-x,1/2-y,z
x,-y,1/2-z
1/2-x,y,-z
-x,-y,-z
x,1/2+y,-z
-x,y,1/2+z
1/2+x,-y,z
1/2+x,1/2+y,1/2+z
1/2-x,-y,1/2+z
1/2+x,1/2-y,-z
-x,1/2+y,1/2-z
1/2-x,1/2-y,1/2-z
1/2+x,y,1/2-z
1/2-x,1/2+y,z
x,1/2-y,1/2+z
loop_
_atom_site_type_symbol
_atom_site_label
_atom_site_fract_x
_atom_site_fract_y
_atom_site_fract_z
Si Si1 0.281119 0.599511 0.354118
Si Si2 0.558689 0.071158 0.799370
Si Si3 0.324701 0.733166 0.561606
Si Si4 0.804778 0.318119 0.206768
Si Si5 0.965142 0.490818 0.414986
Si Si6 0.402831 0.363991 0.654574
Si Si7 0.000000 0.250000 0.456837
O O1 0.175006 0.564619 0.327147
O O2 0.242178 0.666407 0.405971
O O3 0.337500 0.632008 0.278665
O O4 0.057772 0.639075 0.242030
O O5 0.532402 0.000000 0.750000
O O6 0.481443 0.066040 0.868804
O O7 0.643407 0.045587 0.102248
O O8 0.250000 0.771940 0.500000
O O9 0.359186 0.780276 0.634841
O O10 0.421974 0.709232 0.512607
O O11 0.750000 0.250000 0.250000
O O12 0.717180 0.364820 0.164980
O O13 0.000000 0.500000 0.500000
O O14 0.048188 0.434347 0.382566
O O15 0.436998 0.299755 0.600427
#
# Coordination Sequence:
#
# PCOD9532286 Si02
#       7
#    16  16  16  16  16  16   8
#     4  10  23  44  72  99 146 198 238 301 366 436
#     4   9  22  45  67  96 138 188 252 291 348 435
#     4  11  22  41  68 105 148 184 238 293 377 443
#     4   9  20  44  69 100 138 191 235 290 368 447
#     4  11  25  44  74 106 144 194 246 302 363 419
#     4  10  22  44  67  97 147 186 232 302 356 432
#     4  12  24  40  74 112 144 186 230 314 380 438
#
# _framework density 24.47166
#
# number of rings (size 3 to 8) (size 9 to 14) (size 15 to 20)
#    0.000    1.846    1.538    0.923    6.462    1.846 
#   11.077    7.692    0.000    0.000    0.000    0.000 
#    0.000    0.000    0.000    0.000    0.000    0.000 
#
# Total GULP energy -290304.425555 kJ/mol
# GULP energy per Si atom -5582.777415 kJ/mol
# Density = 2.441596 g / cm^3
# Si number density = 24.471660 Si / 1000 Ang^3
#
#
#
# Elastic Constant Matrix: (Units=GPa)
#
#
# Indices 1 2 3 4 5 6 
#
# 1 100.1781 16.1120 53.5438 0.0000 0.0000 0.0000
# 2 16.1120 43.1460 44.1427 0.0000 0.0000 0.0000
# 3 53.5438 44.1427 196.2815 0.0000 0.0000 0.0000
# 4 0.0000 0.0000 0.0000 33.6623 0.0000 0.0000
# 5 0.0000 0.0000 0.0000 0.0000 32.5609 0.0000
# 6 0.0000 0.0000 0.0000 0.0000 0.0000 36.5806
#
#
#
# Elastic Compliance Matrix: (Units=1/GPa)
#
#
# Indices 1 2 3 4 5 6 
#
# 1 0.011755 -0.001440 -0.002883 0.000000 0.000000 0.000000
# 2 -0.001440 0.030280 -0.006417 0.000000 0.000000 0.000000
# 3 -0.002883 -0.006417 0.007324 0.000000 0.000000 0.000000
# 4 0.000000 0.000000 0.000000 0.029707 0.000000 0.000000
# 5 0.000000 0.000000 0.000000 0.000000 0.030712 0.000000
# 6 0.000000 0.000000 0.000000 0.000000 0.000000 0.027337
#
#
# Mechanical properties :
#
#
# Convention : Reuss Voigt Hill
#
# Bulk Modulus (GPa) = 35.86901 63.02253 49.44577
# Shear Modulus (GPa) = 29.78189 35.61456 32.69823
#
# Velocity S-wave (km/s) = 3.49233 3.81903 3.65933
# Velocity P-wave (km/s) = 5.56336 6.72725 6.17280
#
# Compressibility (1/GPa) = 0.02787922
#
# Stress axis : x y z
#
# Youngs Moduli (GPa) = 85.07309 33.02489 136.53331
#
# Poissons Ratio (x) = 0.04757 0.39358
# Poissons Ratio (y) = 0.12253 0.87613
# Poissons Ratio (z) = 0.24523 0.21192
#
# Static dielectric constant tensor:
#      x y z
#    x 1.990320 0.000000 0.000000 
#    y 0.000000 2.083380 0.000000 
#    z 0.000000 0.000000 2.069000 
# 
# From -- ./inp_files/18236.got.cif
#   From: 2010.05.17/outbox.cif.g08.bks.cpg/sg73_10_cif.got.tgz:18236.got - 2010.06.03 17:35:07.
