data_PCOD9532666
_publ_section_title
;
Structure prediction by ZEFSAII (Michael W. Deem and Ramdas Pophale) SiO2 
 PCOD9532666
Probable space group: I B C A 
;
_chemical_formula_sum "Si O2"
_cell_formula_units_Z 120
_cell_length_a 22.061824
_cell_length_b 8.855109
_cell_length_c 28.414122
_cell_angle_alpha 90.000000
_cell_angle_beta 90.000000
_cell_angle_gamma 90.000000
_cell_volume 5550.978790
_symmetry_space_group_name_H-M "I B C A "
_symmetry_group_IT_number 73
_symmetry_cell_setting 'orthorhombic'
loop_
_space_group_symop_operation_xyz
x,y,z
-x,1/2-y,z
x,-y,1/2-z
1/2-x,y,-z
-x,-y,-z
x,1/2+y,-z
-x,y,1/2+z
1/2+x,-y,z
1/2+x,1/2+y,1/2+z
1/2-x,-y,1/2+z
1/2+x,1/2-y,-z
-x,1/2+y,1/2-z
1/2-x,1/2-y,1/2-z
1/2+x,y,1/2-z
1/2-x,1/2+y,z
x,1/2-y,1/2+z
loop_
_atom_site_type_symbol
_atom_site_label
_atom_site_fract_x
_atom_site_fract_y
_atom_site_fract_z
Si Si1 0.349011 0.603693 0.353654
Si Si2 0.556037 0.518736 0.034870
Si Si3 0.379250 0.200162 0.544860
Si Si4 0.564642 0.173547 0.230352
Si Si5 0.714204 0.843829 0.615335
Si Si6 0.239259 0.881182 0.550462
Si Si7 0.615549 0.780944 0.172676
Si Si8 0.500000 0.750000 0.109802
O O1 0.379876 0.611664 0.405495
O O2 0.392993 0.680962 0.315579
O O3 0.280623 0.667551 0.360074
O O4 0.345744 0.433983 0.333633
O O5 0.580737 0.353237 0.048180
O O6 0.531397 0.622131 0.077273
O O7 0.500000 0.500000 0.000000
O O8 0.603371 0.606163 0.001258
O O9 0.310640 0.254949 0.540544
O O10 0.500000 0.250000 0.221625
O O11 0.597730 0.252318 0.274209
O O12 0.557153 0.000000 0.250000
O O13 0.707743 0.705384 0.578185
O O14 0.658160 0.844408 0.650163
O O15 0.714450 0.995589 0.585737
O O16 0.250000 0.952010 0.500000
O O17 0.553988 0.806856 0.143297
#
# Coordination Sequence:
#
# PCOD9532666 Si02
#       8
#    16  16  16  16  16  16  16   8
#     4  10  24  45  71  96 139 179 223 295 348 409
#     4  12  24  41  61  93 133 183 229 275 335 409
#     4  11  26  41  62  96 134 177 231 278 341 404
#     4  10  23  47  73 105 134 178 227 283 357 417
#     4  11  23  44  67  98 137 180 233 278 350 408
#     4  11  25  39  64  95 132 183 227 281 335 404
#     4  11  23  44  71  99 138 175 232 286 346 417
#     4  12  24  38  68  94 138 184 222 288 338 406
#
# _framework density 21.617809000000001
#
# number of rings (size 3 to 8) (size 9 to 14) (size 15 to 20)
#    0.000    1.067    3.333    2.000    7.467    3.733 
#    4.800    0.000    0.000    0.000    0.000    0.000 
#    0.000    0.000    0.000    0.000    0.000    0.000 
#
# Total GULP energy -335372.503356 kJ/mol
# GULP energy per Si atom -5589.541723 kJ/mol
# Density = 2.156861 g / cm^3
# Si number density = 21.617809 Si / 1000 Ang^3
#
#
#
# Elastic Constant Matrix: (Units=GPa)
#
#
# Indices 1 2 3 4 5 6 
#
# 1 98.7396 6.9522 47.1615 0.0000 0.0000 0.0000
# 2 6.9522 42.7495 13.1047 0.0000 0.0000 0.0000
# 3 47.1615 13.1047 107.7881 0.0000 0.0000 0.0000
# 4 0.0000 0.0000 0.0000 26.5278 0.0000 0.0000
# 5 0.0000 0.0000 0.0000 0.0000 34.8267 0.0000
# 6 0.0000 0.0000 0.0000 0.0000 0.0000 42.0983
#
#
#
# Elastic Compliance Matrix: (Units=1/GPa)
#
#
# Indices 1 2 3 4 5 6 
#
# 1 0.012809 -0.000379 -0.005558 0.000000 0.000000 0.000000
# 2 -0.000379 0.024309 -0.002790 0.000000 0.000000 0.000000
# 3 -0.005558 -0.002790 0.012049 0.000000 0.000000 0.000000
# 4 0.000000 0.000000 0.000000 0.037696 0.000000 0.000000
# 5 0.000000 0.000000 0.000000 0.000000 0.028714 0.000000
# 6 0.000000 0.000000 0.000000 0.000000 0.000000 0.023754
#
#
# Mechanical properties :
#
#
# Convention : Reuss Voigt Hill
#
# Bulk Modulus (GPa) = 31.53334 42.63488 37.08411
# Shear Modulus (GPa) = 29.87648 32.82782 31.35215
#
# Velocity S-wave (km/s) = 3.72160 3.90109 3.81240
# Velocity P-wave (km/s) = 5.75200 6.32900 6.04739
#
# Compressibility (1/GPa) = 0.03171246
#
# Stress axis : x y z
#
# Youngs Moduli (GPa) = 78.06854 41.13722 82.99693
#
# Poissons Ratio (x) = 0.01560 0.46133
# Poissons Ratio (y) = 0.02960 0.23152
# Poissons Ratio (z) = 0.43394 0.11475
#
# Static dielectric constant tensor:
#      x y z
#    x 1.895010 0.000000 0.000000 
#    y 0.000000 1.910510 0.000000 
#    z 0.000000 0.000000 1.820430 
# 
# From -- ./inp_files/7365.got.cif
#   From: 2010.05.17/outbox.cif.g08.bks.cpg/sg73_4_cif.got.tgz:7365.got - 2010.06.03 17:35:07.
