data_PCOD9532264
_publ_section_title
;
Structure prediction by ZEFSAII (Michael W. Deem and Ramdas Pophale) SiO2 
 PCOD9532264
Probable space group: I B C A 
;
_chemical_formula_sum "Si O2"
_cell_formula_units_Z 80
_cell_length_a 24.923484
_cell_length_b 9.414307
_cell_length_c 15.182280
_cell_angle_alpha 90.000000
_cell_angle_beta 90.000000
_cell_angle_gamma 90.000000
_cell_volume 3562.329641
_symmetry_space_group_name_H-M "I B C A "
_symmetry_group_IT_number 73
_symmetry_cell_setting 'orthorhombic'
loop_
_space_group_symop_operation_xyz
x,y,z
-x,1/2-y,z
x,-y,1/2-z
1/2-x,y,-z
-x,-y,-z
x,1/2+y,-z
-x,y,1/2+z
1/2+x,-y,z
1/2+x,1/2+y,1/2+z
1/2-x,-y,1/2+z
1/2+x,1/2-y,-z
-x,1/2+y,1/2-z
1/2-x,1/2-y,1/2-z
1/2+x,y,1/2-z
1/2-x,1/2+y,z
x,1/2-y,1/2+z
loop_
_atom_site_type_symbol
_atom_site_label
_atom_site_fract_x
_atom_site_fract_y
_atom_site_fract_z
Si Si1 0.201680 0.500000 0.750000
Si Si2 0.250000 0.331634 0.000000
Si Si3 0.210565 0.414930 0.378519
Si Si4 0.612805 0.555403 0.895227
Si Si5 0.395152 0.377522 0.562842
Si Si6 0.004057 0.080786 0.834498
O O1 0.244299 0.402537 0.696615
O O2 0.160631 0.440472 0.823749
O O3 0.222780 0.439349 0.068836
O O4 0.283816 0.220898 0.057645
O O5 0.147315 0.417456 0.360076
O O6 0.602901 0.708003 0.939237
O O7 0.555149 0.520391 0.853110
O O8 0.625028 0.442984 0.971445
O O9 0.453874 0.435122 0.586238
O O10 0.000000 0.250000 0.817226
O O11 0.025973 0.000000 0.750000
#
# Coordination Sequence:
#
# PCOD9532264 Si02
#       6
#     8   8  16  16  16  16
#     4  12  26  40  68  92 140 176 218 278 324 382
#     4  10  22  44  64  88 136 172 224 266 320 398
#     4  11  23  41  64  97 128 175 217 273 327 382
#     4  11  24  47  67  98 133 178 218 271 332 394
#     4  11  24  42  71  97 134 171 224 268 329 400
#     4  10  23  44  69 101 134 167 217 276 332 391
#
# _framework density 22.457214
#
# number of rings (size 3 to 8) (size 9 to 14) (size 15 to 20)
#    0.000    1.200    1.000    5.400    1.400    4.800 
#    3.600    0.000    0.000    0.000    0.000    0.000 
#    0.000    0.000    0.000    0.000    0.000    0.000 
#
# Total GULP energy -223296.377081 kJ/mol
# GULP energy per Si atom -5582.409427 kJ/mol
# Density = 2.240610 g / cm^3
# Si number density = 22.457214 Si / 1000 Ang^3
#
#
#
# Elastic Constant Matrix: (Units=GPa)
#
#
# Indices 1 2 3 4 5 6 
#
# 1 122.9891 24.9689 36.2877 0.0000 0.0000 0.0000
# 2 24.9689 79.9582 43.2810 0.0000 0.0000 0.0000
# 3 36.2877 43.2810 101.7447 0.0000 0.0000 0.0000
# 4 0.0000 0.0000 0.0000 21.6435 0.0000 0.0000
# 5 0.0000 0.0000 0.0000 0.0000 -59.2769 0.0000
# 6 0.0000 0.0000 0.0000 0.0000 0.0000 22.7060
#
#
#
# Elastic Compliance Matrix: (Units=1/GPa)
#
#
# Indices 1 2 3 4 5 6 
#
# 1 0.009211 -0.001427 -0.002678 0.000000 0.000000 0.000000
# 2 -0.001427 0.016469 -0.006497 0.000000 0.000000 0.000000
# 3 -0.002678 -0.006497 0.013547 0.000000 0.000000 0.000000
# 4 0.000000 0.000000 0.000000 0.046203 0.000000 0.000000
# 5 0.000000 0.000000 0.000000 0.000000 -0.016870 0.000000
# 6 0.000000 0.000000 0.000000 0.000000 0.000000 0.044041
#
#
# Mechanical properties :
#
#
# Convention : Reuss Voigt Hill
#
# Bulk Modulus (GPa) = 55.48277 57.08526 56.28402
# Shear Modulus (GPa) = 35.76226 10.35813 23.06019
#
# Velocity S-wave (km/s) = 3.99490 2.14998 3.20793
# Velocity P-wave (km/s) = 6.78517 5.62476 6.23203
#
# Compressibility (1/GPa) = 0.01802361
#
# Stress axis : x y z
#
# Youngs Moduli (GPa) = 108.57045 60.72120 73.81504
#
# Poissons Ratio (x) = 0.08662 0.19769
# Poissons Ratio (y) = 0.15488 0.47956
# Poissons Ratio (z) = 0.29077 0.39449
#
# Static dielectric constant tensor:
#      x y z
#    x 1.912380 0.000000 0.000000 
#    y 0.000000 1.795770 0.000000 
#    z 0.000000 0.000000 1.851910 
# 
# From -- ./inp_files/19715.got.cif
#   From: 2010.05.17/outbox.cif.g08.bks.cpg/sg73_10_cif.got.tgz:19715.got - 2010.06.03 17:35:07.
