data_PCOD9532323
_publ_section_title
;
Structure prediction by ZEFSAII (Michael W. Deem and Ramdas Pophale) SiO2 
 PCOD9532323
Probable space group: I B C A 
;
_chemical_formula_sum "Si O2"
_cell_formula_units_Z 96
_cell_length_a 14.054041
_cell_length_b 14.044227
_cell_length_c 22.175766
_cell_angle_alpha 90.000000
_cell_angle_beta 90.000000
_cell_angle_gamma 90.000000
_cell_volume 4377.011492
_symmetry_space_group_name_H-M "I B C A "
_symmetry_group_IT_number 73
_symmetry_cell_setting 'orthorhombic'
loop_
_space_group_symop_operation_xyz
x,y,z
-x,1/2-y,z
x,-y,1/2-z
1/2-x,y,-z
-x,-y,-z
x,1/2+y,-z
-x,y,1/2+z
1/2+x,-y,z
1/2+x,1/2+y,1/2+z
1/2-x,-y,1/2+z
1/2+x,1/2-y,-z
-x,1/2+y,1/2-z
1/2-x,1/2-y,1/2-z
1/2+x,y,1/2-z
1/2-x,1/2+y,z
x,1/2-y,1/2+z
loop_
_atom_site_type_symbol
_atom_site_label
_atom_site_fract_x
_atom_site_fract_y
_atom_site_fract_z
Si Si1 0.877851 0.386983 0.760559
Si Si2 0.636406 0.860697 0.622445
Si Si3 0.038832 0.154878 0.355886
Si Si4 0.213386 0.282095 0.365039
Si Si5 0.252706 0.459983 0.569823
Si Si6 0.967894 0.033789 0.566785
O O1 0.869883 0.500000 0.750000
O O2 0.879163 0.347687 0.693560
O O3 0.794234 0.343164 0.802792
O O4 0.974937 0.359573 0.796098
O O5 0.694031 0.766539 0.606775
O O6 0.538961 0.884222 0.588695
O O7 0.701338 0.953647 0.607194
O O8 0.146937 0.190332 0.349577
O O9 0.000000 0.250000 0.388239
O O10 0.022606 0.060196 0.392405
O O11 0.188698 0.364737 0.413566
O O12 0.250000 0.487949 0.500000
O O13 0.141381 0.440019 0.579746
O O14 0.000000 0.000000 0.500000
#
# Coordination Sequence:
#
# PCOD9532323 Si02
#       6
#    16  16  16  16  16  16
#     4  11  21  44  76 103 141 191 244 305 374 456
#     4  12  24  48  72 106 149 189 253 310 376 450
#     4  10  22  44  73 102 138 191 244 301 370 440
#     4  11  25  46  71 107 146 193 244 309 377 446
#     4  12  26  46  73 105 149 202 252 307 372 451
#     4  12  25  44  72 106 146 201 255 307 370 446
#
# _framework density 21.932773999999998
#
# number of rings (size 3 to 8) (size 9 to 14) (size 15 to 20)
#    0.000    0.667    6.667    1.500    0.000    2.667 
#   12.000    2.500    0.000    0.000    0.000    0.000 
#    0.000    0.000    0.000    0.000    0.000    0.000 
#
# Total GULP energy -267475.756540 kJ/mol
# GULP energy per Si atom -5572.411595 kJ/mol
# Density = 2.188285 g / cm^3
# Si number density = 21.932774 Si / 1000 Ang^3
#
#
#
# Elastic Constant Matrix: (Units=GPa)
#
#
# Indices 1 2 3 4 5 6 
#
# 1 124.1493 40.4623 12.9681 0.0000 0.0000 0.0000
# 2 40.4623 100.9942 18.4989 0.0000 0.0000 0.0000
# 3 12.9681 18.4989 84.2858 0.0000 0.0000 0.0000
# 4 0.0000 0.0000 0.0000 2.8448 0.0000 0.0000
# 5 0.0000 0.0000 0.0000 0.0000 33.5043 0.0000
# 6 0.0000 0.0000 0.0000 0.0000 0.0000 46.0963
#
#
#
# Elastic Compliance Matrix: (Units=1/GPa)
#
#
# Indices 1 2 3 4 5 6 
#
# 1 0.009297 -0.003608 -0.000639 0.000000 0.000000 0.000000
# 2 -0.003608 0.011716 -0.002016 0.000000 0.000000 0.000000
# 3 -0.000639 -0.002016 0.012405 0.000000 0.000000 0.000000
# 4 0.000000 0.000000 0.000000 0.351516 0.000000 0.000000
# 5 0.000000 0.000000 0.000000 0.000000 0.029847 0.000000
# 6 0.000000 0.000000 0.000000 0.000000 0.000000 0.021694
#
#
# Mechanical properties :
#
#
# Convention : Reuss Voigt Hill
#
# Bulk Modulus (GPa) = 47.86265 50.36532 49.11399
# Shear Modulus (GPa) = 10.96574 32.32241 21.64408
#
# Velocity S-wave (km/s) = 2.23843 3.84305 3.14480
# Velocity P-wave (km/s) = 5.34327 6.53494 5.96892
#
# Compressibility (1/GPa) = 0.02089312
#
# Stress axis : x y z
#
# Youngs Moduli (GPa) = 107.55680 85.35059 80.61129
#
# Poissons Ratio (x) = 0.30794 0.05148
# Poissons Ratio (y) = 0.38806 0.16254
# Poissons Ratio (z) = 0.06869 0.17210
#
# Static dielectric constant tensor:
#      x y z
#    x 1.995340 0.000000 0.000000 
#    y 0.000000 1.792970 0.000000 
#    z 0.000000 0.000000 1.790430 
# 
# From -- ./inp_files/26003.got.cif
#   From: 2010.05.17/outbox.cif.g08.bks.cpg/sg73_14_cif.got.tgz:26003.got - 2010.06.03 17:35:07.
