data_PCOD9532974
_publ_section_title
;
Structure prediction by ZEFSAII (Michael W. Deem and Ramdas Pophale) SiO2 
 PCOD9532974
Probable space group: I B C A 
;
_chemical_formula_sum "Si O2"
_cell_formula_units_Z 56
_cell_length_a 18.413716
_cell_length_b 14.310588
_cell_length_c 8.649024
_cell_angle_alpha 90.000000
_cell_angle_beta 90.000000
_cell_angle_gamma 90.000000
_cell_volume 2279.113856
_symmetry_space_group_name_H-M "I B C A "
_symmetry_group_IT_number 73
_symmetry_cell_setting 'orthorhombic'
loop_
_space_group_symop_operation_xyz
x,y,z
-x,1/2-y,z
x,-y,1/2-z
1/2-x,y,-z
-x,-y,-z
x,1/2+y,-z
-x,y,1/2+z
1/2+x,-y,z
1/2+x,1/2+y,1/2+z
1/2-x,-y,1/2+z
1/2+x,1/2-y,-z
-x,1/2+y,1/2-z
1/2-x,1/2-y,1/2-z
1/2+x,y,1/2-z
1/2-x,1/2+y,z
x,1/2-y,1/2+z
loop_
_atom_site_type_symbol
_atom_site_label
_atom_site_fract_x
_atom_site_fract_y
_atom_site_fract_z
Si Si1 0.092337 0.956958 0.093809
Si Si2 0.419859 0.719963 0.590907
Si Si3 0.861787 0.882070 0.107708
Si Si4 0.735397 0.000000 0.250000
O O1 0.178523 0.050725 0.364061
O O2 0.910779 0.967870 0.043919
O O3 0.059257 0.000000 0.250000
O O4 0.068284 0.855744 0.044712
O O5 0.500000 0.750000 0.635734
O O6 0.386643 0.667195 0.736069
O O7 0.370096 0.804464 0.527139
O O8 0.785670 0.928693 0.156340
#
# Coordination Sequence:
#
# PCOD9532974 Si02
#       4
#    16  16  16   8
#     4  10  24  48  76 110 150 196 250 320 391 446
#     4  12  27  47  72 112 154 205 262 305 380 459
#     4  12  24  49  75 112 152 203 254 319 384 451
#     4  10  24  48  74 112 150 196 248 320 398 444
#
# _framework density 24.570954
#
# number of rings (size 3 to 8) (size 9 to 14) (size 15 to 20)
#    0.857    0.000    2.857    3.429    0.000    2.286 
#    7.714    1.429    0.000    0.000    0.000    0.000 
#    0.000    0.000    0.000    0.000    0.000    0.000 
#
# Total GULP energy -156764.483556 kJ/mol
# GULP energy per Si atom -5598.731556 kJ/mol
# Density = 2.451503 g / cm^3
# Si number density = 24.570954 Si / 1000 Ang^3
#
#
#
# Elastic Constant Matrix: (Units=GPa)
#
#
# Indices 1 2 3 4 5 6 
#
# 1 73.1058 14.9049 36.3285 0.0000 0.0000 0.0000
# 2 14.9049 107.8140 32.4238 0.0000 0.0000 0.0000
# 3 36.3285 32.4238 108.1785 0.0000 0.0000 0.0000
# 4 0.0000 0.0000 0.0000 54.8163 0.0000 0.0000
# 5 0.0000 0.0000 0.0000 0.0000 22.4347 0.0000
# 6 0.0000 0.0000 0.0000 0.0000 0.0000 9.0973
#
#
#
# Elastic Compliance Matrix: (Units=1/GPa)
#
#
# Indices 1 2 3 4 5 6 
#
# 1 0.016463 -0.000674 -0.005327 0.000000 0.000000 0.000000
# 2 -0.000674 0.010222 -0.002837 0.000000 0.000000 0.000000
# 3 -0.005327 -0.002837 0.011883 0.000000 0.000000 0.000000
# 4 0.000000 0.000000 0.000000 0.018243 0.000000 0.000000
# 5 0.000000 0.000000 0.000000 0.000000 0.044574 0.000000
# 6 0.000000 0.000000 0.000000 0.000000 0.000000 0.109923
#
#
# Mechanical properties :
#
#
# Convention : Reuss Voigt Hill
#
# Bulk Modulus (GPa) = 47.86514 50.71252 49.28883
# Shear Modulus (GPa) = 21.19112 30.96573 26.07842
#
# Velocity S-wave (km/s) = 2.93993 3.55386 3.26137
# Velocity P-wave (km/s) = 5.57198 6.12568 5.85538
#
# Compressibility (1/GPa) = 0.02089203
#
# Stress axis : x y z
#
# Youngs Moduli (GPa) = 60.74155 97.83098 84.15246
#
# Poissons Ratio (x) = 0.06594 0.44825
# Poissons Ratio (y) = 0.04094 0.23877
# Poissons Ratio (z) = 0.32355 0.27758
#
# Static dielectric constant tensor:
#      x y z
#    x 1.954120 0.000000 0.000000 
#    y 0.000000 1.909660 0.000000 
#    z 0.000000 0.000000 1.968100 
# 
# From -- ./inp_files/5138.got.cif
#   From: 2010.05.17/outbox.cif.g08.bks.cpg/sg73_3_cif.got.tgz:5138.got - 2010.06.03 17:35:07.
