data_PCOD9532654
_publ_section_title
;
Structure prediction by ZEFSAII (Michael W. Deem and Ramdas Pophale) SiO2 
 PCOD9532654
Probable space group: I B C A 
;
_chemical_formula_sum "Si O2"
_cell_formula_units_Z 80
_cell_length_a 22.030757
_cell_length_b 10.853610
_cell_length_c 14.104762
_cell_angle_alpha 90.000000
_cell_angle_beta 90.000000
_cell_angle_gamma 90.000000
_cell_volume 3372.635404
_symmetry_space_group_name_H-M "I B C A "
_symmetry_group_IT_number 73
_symmetry_cell_setting 'orthorhombic'
loop_
_space_group_symop_operation_xyz
x,y,z
-x,1/2-y,z
x,-y,1/2-z
1/2-x,y,-z
-x,-y,-z
x,1/2+y,-z
-x,y,1/2+z
1/2+x,-y,z
1/2+x,1/2+y,1/2+z
1/2-x,-y,1/2+z
1/2+x,1/2-y,-z
-x,1/2+y,1/2-z
1/2-x,1/2-y,1/2-z
1/2+x,y,1/2-z
1/2-x,1/2+y,z
x,1/2-y,1/2+z
loop_
_atom_site_type_symbol
_atom_site_label
_atom_site_fract_x
_atom_site_fract_y
_atom_site_fract_z
Si Si1 0.731629 0.169470 0.390352
Si Si2 0.617233 0.673628 0.062063
Si Si3 0.000000 0.750000 0.013023
Si Si4 0.547190 0.556776 0.348649
Si Si5 0.358871 0.774786 0.846627
Si Si6 0.671139 0.000000 0.250000
O O1 0.750000 0.146539 0.500000
O O2 0.675426 0.265763 0.388585
O O3 0.790676 0.224397 0.340064
O O4 0.711983 0.044846 0.337828
O O5 0.589024 0.547930 0.101899
O O6 0.558542 0.762017 0.053471
O O7 0.635824 0.669025 0.951843
O O8 0.000854 0.627484 0.080001
O O9 0.523314 0.500000 0.250000
O O10 0.594066 0.667164 0.327735
O O11 0.368960 0.884954 0.776141
#
# Coordination Sequence:
#
# PCOD9532654 Si02
#       6
#    16  16   8  16  16   8
#     4  10  24  42  68 106 142 189 233 287 363 428
#     4  10  23  46  72  95 142 182 231 297 352 429
#     4  10  24  46  68 108 124 192 246 280 368 420
#     4  11  24  45  69 101 142 184 233 304 352 422
#     4  10  25  40  66 106 138 184 236 274 368 425
#     4  12  24  40  68 104 142 184 230 290 328 452
#
# _framework density 23.720323
#
# number of rings (size 3 to 8) (size 9 to 14) (size 15 to 20)
#    0.000    1.600    0.000    2.400   12.600    1.600 
#    7.200    0.000    0.000    0.000    0.000    0.000 
#    0.000    0.000    0.000    0.000    0.000    0.000 
#
# Total GULP energy -223595.930791 kJ/mol
# GULP energy per Si atom -5589.898270 kJ/mol
# Density = 2.366633 g / cm^3
# Si number density = 23.720323 Si / 1000 Ang^3
#
#
#
# Elastic Constant Matrix: (Units=GPa)
#
#
# Indices 1 2 3 4 5 6 
#
# 1 107.8132 9.3605 7.5717 0.0000 0.0000 0.0000
# 2 9.3605 106.1018 44.2742 0.0000 0.0000 0.0000
# 3 7.5717 44.2742 52.8847 0.0000 0.0000 0.0000
# 4 0.0000 0.0000 0.0000 41.5486 0.0000 0.0000
# 5 0.0000 0.0000 0.0000 0.0000 13.3186 0.0000
# 6 0.0000 0.0000 0.0000 0.0000 0.0000 30.2143
#
#
#
# Elastic Compliance Matrix: (Units=1/GPa)
#
#
# Indices 1 2 3 4 5 6 
#
# 1 0.009381 -0.000411 -0.000999 0.000000 0.000000 0.000000
# 2 -0.000411 0.014503 -0.012083 0.000000 0.000000 0.000000
# 3 -0.000999 -0.012083 0.029168 0.000000 0.000000 0.000000
# 4 0.000000 0.000000 0.000000 0.024068 0.000000 0.000000
# 5 0.000000 0.000000 0.000000 0.000000 0.075083 0.000000
# 6 0.000000 0.000000 0.000000 0.000000 0.000000 0.033097
#
#
# Mechanical properties :
#
#
# Convention : Reuss Voigt Hill
#
# Bulk Modulus (GPa) = 38.36396 43.24584 40.80490
# Shear Modulus (GPa) = 22.62699 30.72252 26.67476
#
# Velocity S-wave (km/s) = 3.09189 3.60279 3.35707
# Velocity P-wave (km/s) = 5.38098 5.96472 5.68036
#
# Compressibility (1/GPa) = 0.02606613
#
# Stress axis : x y z
#
# Youngs Moduli (GPa) = 106.59686 68.95063 34.28435
#
# Poissons Ratio (x) = 0.02831 0.03426
# Poissons Ratio (y) = 0.04377 0.41426
# Poissons Ratio (z) = 0.10653 0.83313
#
# Static dielectric constant tensor:
#      x y z
#    x 1.919250 0.000000 0.000000 
#    y 0.000000 1.861480 0.000000 
#    z 0.000000 0.000000 1.973310 
# 
# From -- ./inp_files/19218.got.cif
#   From: 2010.05.17/outbox.cif.g08.bks.cpg/sg73_10_cif.got.tgz:19218.got - 2010.06.03 17:35:07.
