data_PCOD9532428
_publ_section_title
;
Structure prediction by ZEFSAII (Michael W. Deem and Ramdas Pophale) SiO2 
 PCOD9532428
Probable space group: I B C A 
;
_chemical_formula_sum "Si O2"
_cell_formula_units_Z 88
_cell_length_a 21.493137
_cell_length_b 13.579455
_cell_length_c 14.425928
_cell_angle_alpha 90.000000
_cell_angle_beta 90.000000
_cell_angle_gamma 90.000000
_cell_volume 4210.424726
_symmetry_space_group_name_H-M "I B C A "
_symmetry_group_IT_number 73
_symmetry_cell_setting 'orthorhombic'
loop_
_space_group_symop_operation_xyz
x,y,z
-x,1/2-y,z
x,-y,1/2-z
1/2-x,y,-z
-x,-y,-z
x,1/2+y,-z
-x,y,1/2+z
1/2+x,-y,z
1/2+x,1/2+y,1/2+z
1/2-x,-y,1/2+z
1/2+x,1/2-y,-z
-x,1/2+y,1/2-z
1/2-x,1/2-y,1/2-z
1/2+x,y,1/2-z
1/2-x,1/2+y,z
x,1/2-y,1/2+z
loop_
_atom_site_type_symbol
_atom_site_label
_atom_site_fract_x
_atom_site_fract_y
_atom_site_fract_z
Si Si1 0.361423 0.779834 0.544654
Si Si2 0.925485 0.260764 0.739488
Si Si3 0.353789 0.553611 0.519742
Si Si4 0.935203 0.909496 0.107738
Si Si5 0.750000 0.586620 0.500000
Si Si6 0.076289 0.566683 0.658743
O O1 0.395198 0.760732 0.641511
O O2 0.344459 0.669292 0.513846
O O3 0.406758 0.837158 0.471952
O O4 0.298138 0.842669 0.552499
O O5 0.914752 0.362330 0.794331
O O6 0.902877 0.173418 0.806631
O O7 0.000000 0.250000 0.730457
O O8 0.408750 0.517456 0.586860
O O9 0.295117 0.489605 0.552689
O O10 0.376277 0.523478 0.416168
O O11 0.009683 0.916610 0.109273
O O12 0.068337 0.500000 0.750000
#
# Coordination Sequence:
#
# PCOD9532428 Si02
#       6
#    16  16  16  16   8  16
#     4  11  23  43  71  91 135 178 223 283 338 394
#     4  10  23  38  66 100 140 169 212 279 344 409
#     4  11  23  40  72  88 129 183 225 273 338 394
#     4  10  23  40  61 106 136 165 223 271 338 417
#     4  10  24  46  62  94 124 180 236 276 320 394
#     4  11  22  39  65 101 139 175 213 272 341 416
#
# _framework density 20.900504000000002
#
# number of rings (size 3 to 8) (size 9 to 14) (size 15 to 20)
#    0.000    1.455    1.818    3.273    7.636    0.000 
#    0.000    3.636   16.000    0.000    0.000    0.000 
#    0.000    0.000    0.000    0.000    0.000    0.000 
#
# Total GULP energy -245497.268452 kJ/mol
# GULP energy per Si atom -5579.483374 kJ/mol
# Density = 2.085293 g / cm^3
# Si number density = 20.900504 Si / 1000 Ang^3
#
#
#
# Elastic Constant Matrix: (Units=GPa)
#
#
# Indices 1 2 3 4 5 6 
#
# 1 60.5672 39.2124 52.6658 0.0000 0.0000 0.0000
# 2 39.2124 119.4265 26.2470 0.0000 0.0000 0.0000
# 3 52.6658 26.2470 100.3847 0.0000 0.0000 0.0000
# 4 0.0000 0.0000 0.0000 34.4633 0.0000 0.0000
# 5 0.0000 0.0000 0.0000 0.0000 5.3725 0.0000
# 6 0.0000 0.0000 0.0000 0.0000 0.0000 27.6590
#
#
#
# Elastic Compliance Matrix: (Units=1/GPa)
#
#
# Indices 1 2 3 4 5 6 
#
# 1 0.036784 -0.008314 -0.017124 0.000000 0.000000 0.000000
# 2 -0.008314 0.010763 0.001548 0.000000 0.000000 0.000000
# 3 -0.017124 0.001548 0.018541 0.000000 0.000000 0.000000
# 4 0.000000 0.000000 0.000000 0.029016 0.000000 0.000000
# 5 0.000000 0.000000 0.000000 0.000000 0.186133 0.000000
# 6 0.000000 0.000000 0.000000 0.000000 0.000000 0.036155
#
#
# Mechanical properties :
#
#
# Convention : Reuss Voigt Hill
#
# Bulk Modulus (GPa) = 54.62541 57.40320 56.01430
# Shear Modulus (GPa) = 13.46710 24.31583 18.89146
#
# Velocity S-wave (km/s) = 2.54115 3.41458 3.00971
# Velocity P-wave (km/s) = 5.89937 6.56280 6.23991
#
# Compressibility (1/GPa) = 0.01830650
#
# Stress axis : x y z
#
# Youngs Moduli (GPa) = 27.18603 92.91084 53.93418
#
# Poissons Ratio (x) = 0.77246 0.92359
# Poissons Ratio (y) = 0.22602 -0.08347
# Poissons Ratio (z) = 0.46554 -0.14380
#
# Static dielectric constant tensor:
#      x y z
#    x 1.767100 0.000000 0.000000 
#    y 0.000000 1.808860 0.000000 
#    z 0.000000 0.000000 1.751060 
# 
# From -- ./inp_files/17178.got.cif
#   From: 2010.05.17/outbox.cif.g08.bks.cpg/sg73_9_cif.got.tgz:17178.got - 2010.06.03 17:35:07.
