data_PCOD9532091
_publ_section_title
;
Structure prediction by ZEFSAII (Michael W. Deem and Ramdas Pophale) SiO2 
 PCOD9532091
Probable space group: I B C A 
;
_chemical_formula_sum "Si O2"
_cell_formula_units_Z 88
_cell_length_a 8.477472
_cell_length_b 21.182968
_cell_length_c 22.198104
_cell_angle_alpha 90.000000
_cell_angle_beta 90.000000
_cell_angle_gamma 90.000000
_cell_volume 3986.291522
_symmetry_space_group_name_H-M "I B C A "
_symmetry_group_IT_number 73
_symmetry_cell_setting 'orthorhombic'
loop_
_space_group_symop_operation_xyz
x,y,z
-x,1/2-y,z
x,-y,1/2-z
1/2-x,y,-z
-x,-y,-z
x,1/2+y,-z
-x,y,1/2+z
1/2+x,-y,z
1/2+x,1/2+y,1/2+z
1/2-x,-y,1/2+z
1/2+x,1/2-y,-z
-x,1/2+y,1/2-z
1/2-x,1/2-y,1/2-z
1/2+x,y,1/2-z
1/2-x,1/2+y,z
x,1/2-y,1/2+z
loop_
_atom_site_type_symbol
_atom_site_label
_atom_site_fract_x
_atom_site_fract_y
_atom_site_fract_z
Si Si1 0.000000 0.250000 0.750000
Si Si2 0.849573 0.556317 0.058242
Si Si3 0.734786 0.327826 0.688039
Si Si4 0.132431 0.196095 0.445032
Si Si5 0.934918 0.975191 0.362136
Si Si6 0.214950 0.938388 0.285588
O O1 0.138126 0.222985 0.709812
O O2 0.060749 0.305754 0.791959
O O3 0.928702 0.624022 0.044705
O O4 0.720322 0.559202 0.112679
O O5 0.973007 0.505893 0.082053
O O6 0.750000 0.537635 0.000000
O O7 0.727728 0.315105 0.616680
O O8 0.756229 0.387178 0.734590
O O9 0.250000 0.211011 0.500000
O O10 0.000000 0.250000 0.439949
O O11 0.062529 0.929323 0.329270
O O12 0.865167 0.034496 0.323173
O O13 0.160854 0.000000 0.250000
#
# Coordination Sequence:
#
# PCOD9532091 Si02
#       6
#     8  16  16  16  16  16
#     4  10  26  40  64  98 132 182 212 288 338 402
#     4  10  22  42  68  99 137 184 232 285 336 407
#     4  11  24  45  66  97 139 172 231 276 351 401
#     4  11  26  47  71  95 135 184 237 287 334 409
#     4  10  22  41  66 106 142 178 222 278 354 417
#     4  11  24  36  66 101 136 176 214 279 347 417
#
# _framework density 22.075658000000001
#
# number of rings (size 3 to 8) (size 9 to 14) (size 15 to 20)
#    0.000    1.455    0.909    3.273   11.455    0.000 
#    0.000    8.182    0.000    0.000    0.000    0.000 
#    0.000    0.000    0.000    0.000    0.000    0.000 
#
# Total GULP energy -245084.704378 kJ/mol
# GULP energy per Si atom -5570.106918 kJ/mol
# Density = 2.202541 g / cm^3
# Si number density = 22.075658 Si / 1000 Ang^3
#
#
#
# Elastic Constant Matrix: (Units=GPa)
#
#
# Indices 1 2 3 4 5 6 
#
# 1 59.1408 39.9402 27.1734 0.0000 0.0000 0.0000
# 2 39.9402 98.5598 46.2836 0.0000 0.0000 0.0000
# 3 27.1734 46.2836 140.8254 0.0000 0.0000 0.0000
# 4 0.0000 0.0000 0.0000 2.7404 0.0000 0.0000
# 5 0.0000 0.0000 0.0000 0.0000 36.7896 0.0000
# 6 0.0000 0.0000 0.0000 0.0000 0.0000 1.7308
#
#
#
# Elastic Compliance Matrix: (Units=1/GPa)
#
#
# Indices 1 2 3 4 5 6 
#
# 1 0.023607 -0.008783 -0.001669 0.000000 0.000000 0.000000
# 2 -0.008783 0.015265 -0.003322 0.000000 0.000000 0.000000
# 3 -0.001669 -0.003322 0.008515 0.000000 0.000000 0.000000
# 4 0.000000 0.000000 0.000000 0.364912 0.000000 0.000000
# 5 0.000000 0.000000 0.000000 0.000000 0.027182 0.000000
# 6 0.000000 0.000000 0.000000 0.000000 0.000000 0.577763
#
#
# Mechanical properties :
#
#
# Convention : Reuss Voigt Hill
#
# Bulk Modulus (GPa) = 50.40431 58.36893 54.38662
# Shear Modulus (GPa) = 4.75554 20.59409 12.67482
#
# Velocity S-wave (km/s) = 1.46931 3.05763 2.39875
# Velocity P-wave (km/s) = 5.07549 6.24206 5.68876
#
# Compressibility (1/GPa) = 0.01983957
#
# Stress axis : x y z
#
# Youngs Moduli (GPa) = 42.36055 65.50730 117.44125
#
# Poissons Ratio (x) = 0.57534 0.19596
# Poissons Ratio (y) = 0.37205 0.39019
# Poissons Ratio (z) = 0.07068 0.21764
#
# Static dielectric constant tensor:
#      x y z
#    x 1.867410 0.000000 0.000000 
#    y 0.000000 1.961510 0.000000 
#    z 0.000000 0.000000 1.885580 
# 
# From -- ./inp_files/28339.got.cif
#   From: 2010.05.17/outbox.cif.g08.bks.cpg/sg73_15_cif.got.tgz:28339.got - 2010.06.03 17:35:07.
