data_PCOD9532638
_publ_section_title
;
Structure prediction by ZEFSAII (Michael W. Deem and Ramdas Pophale) SiO2 
 PCOD9532638
Probable space group: I B C A 
;
_chemical_formula_sum "Si O2"
_cell_formula_units_Z 88
_cell_length_a 25.496571
_cell_length_b 12.223988
_cell_length_c 13.793602
_cell_angle_alpha 90.000000
_cell_angle_beta 90.000000
_cell_angle_gamma 90.000000
_cell_volume 4299.048872
_symmetry_space_group_name_H-M "I B C A "
_symmetry_group_IT_number 73
_symmetry_cell_setting 'orthorhombic'
loop_
_space_group_symop_operation_xyz
x,y,z
-x,1/2-y,z
x,-y,1/2-z
1/2-x,y,-z
-x,-y,-z
x,1/2+y,-z
-x,y,1/2+z
1/2+x,-y,z
1/2+x,1/2+y,1/2+z
1/2-x,-y,1/2+z
1/2+x,1/2-y,-z
-x,1/2+y,1/2-z
1/2-x,1/2-y,1/2-z
1/2+x,y,1/2-z
1/2-x,1/2+y,z
x,1/2-y,1/2+z
loop_
_atom_site_type_symbol
_atom_site_label
_atom_site_fract_x
_atom_site_fract_y
_atom_site_fract_z
Si Si1 0.203124 0.605489 0.688553
Si Si2 0.868671 0.309366 0.479825
Si Si3 0.464148 0.559995 0.576968
Si Si4 0.908373 0.856490 0.174673
Si Si5 0.500000 0.750000 0.211526
Si Si6 0.817187 0.680300 0.817533
O O1 0.188179 0.500000 0.750000
O O2 0.167604 0.620466 0.593373
O O3 0.194900 0.711734 0.755472
O O4 0.265532 0.606751 0.668605
O O5 0.919831 0.372925 0.518484
O O6 0.884414 0.201519 0.420163
O O7 0.836810 0.285055 0.577050
O O8 0.500000 0.500000 0.500000
O O9 0.437820 0.465901 0.642387
O O10 0.497765 0.643838 0.642475
O O11 0.863430 0.874334 0.254834
O O12 0.949290 0.769411 0.221413
#
# Coordination Sequence:
#
# PCOD9532638 Si02
#       6
#    16  16  16  16   8  16
#     4  10  24  42  71 104 136 181 227 284 345 411
#     4  11  24  43  68 100 137 178 232 283 341 417
#     4  12  26  42  70 100 133 187 232 285 349 411
#     4  11  25  43  70  95 138 185 226 290 352 404
#     4  12  24  44  64  96 134 172 232 288 334 418
#     4  10  23  46  66 101 144 172 230 283 343 416
#
# _framework density 20.469645
#
# number of rings (size 3 to 8) (size 9 to 14) (size 15 to 20)
#    0.000    1.091    1.818    3.273    5.091    1.455 
#    0.000    1.818    0.000    0.000    0.000    0.000 
#    0.000    0.000    0.000    0.000    0.000    0.000 
#
# Total GULP energy -245986.331492 kJ/mol
# GULP energy per Si atom -5590.598443 kJ/mol
# Density = 2.042305 g / cm^3
# Si number density = 20.469645 Si / 1000 Ang^3
#
#
#
# Elastic Constant Matrix: (Units=GPa)
#
#
# Indices 1 2 3 4 5 6 
#
# 1 58.7606 32.0119 26.0444 0.0000 0.0000 0.0000
# 2 32.0119 89.8690 41.6386 0.0000 0.0000 0.0000
# 3 26.0444 41.6386 138.6515 0.0000 0.0000 0.0000
# 4 0.0000 0.0000 0.0000 29.5766 0.0000 0.0000
# 5 0.0000 0.0000 0.0000 0.0000 37.5682 0.0000
# 6 0.0000 0.0000 0.0000 0.0000 0.0000 26.3764
#
#
#
# Elastic Compliance Matrix: (Units=1/GPa)
#
#
# Indices 1 2 3 4 5 6 
#
# 1 0.021596 -0.006753 -0.002029 0.000000 0.000000 0.000000
# 2 -0.006753 0.015037 -0.003247 0.000000 0.000000 0.000000
# 3 -0.002029 -0.003247 0.008569 0.000000 0.000000 0.000000
# 4 0.000000 0.000000 0.000000 0.033810 0.000000 0.000000
# 5 0.000000 0.000000 0.000000 0.000000 0.026618 0.000000
# 6 0.000000 0.000000 0.000000 0.000000 0.000000 0.037913
#
#
# Mechanical properties :
#
#
# Convention : Reuss Voigt Hill
#
# Bulk Modulus (GPa) = 47.29394 54.07453 50.68424
# Shear Modulus (GPa) = 28.62880 31.21001 29.91941
#
# Velocity S-wave (km/s) = 3.74384 3.90897 3.82730
# Velocity P-wave (km/s) = 6.46862 6.84454 6.65923
#
# Compressibility (1/GPa) = 0.02114436
#
# Stress axis : x y z
#
# Youngs Moduli (GPa) = 46.30446 66.50142 116.70461
#
# Poissons Ratio (x) = 0.44907 0.23676
# Poissons Ratio (y) = 0.31268 0.37899
# Poissons Ratio (z) = 0.09394 0.21596
#
# Static dielectric constant tensor:
#      x y z
#    x 1.757490 0.000000 0.000000 
#    y 0.000000 1.712440 0.000000 
#    z 0.000000 0.000000 1.709290 
# 
# From -- ./inp_files/13528.got.cif
#   From: 2010.05.17/outbox.cif.g08.bks.cpg/sg73_7_cif.got.tgz:13528.got - 2010.06.03 17:35:07.
