data_PCOD9532932
_publ_section_title
;
Structure prediction by ZEFSAII (Michael W. Deem and Ramdas Pophale) SiO2 
 PCOD9532932
Probable space group: I B C A 
;
_chemical_formula_sum "Si O2"
_cell_formula_units_Z 88
_cell_length_a 19.612064
_cell_length_b 16.396718
_cell_length_c 12.775739
_cell_angle_alpha 90.000000
_cell_angle_beta 90.000000
_cell_angle_gamma 90.000000
_cell_volume 4108.338886
_symmetry_space_group_name_H-M "I B C A "
_symmetry_group_IT_number 73
_symmetry_cell_setting 'orthorhombic'
loop_
_space_group_symop_operation_xyz
x,y,z
-x,1/2-y,z
x,-y,1/2-z
1/2-x,y,-z
-x,-y,-z
x,1/2+y,-z
-x,y,1/2+z
1/2+x,-y,z
1/2+x,1/2+y,1/2+z
1/2-x,-y,1/2+z
1/2+x,1/2-y,-z
-x,1/2+y,1/2-z
1/2-x,1/2-y,1/2-z
1/2+x,y,1/2-z
1/2-x,1/2+y,z
x,1/2-y,1/2+z
loop_
_atom_site_type_symbol
_atom_site_label
_atom_site_fract_x
_atom_site_fract_y
_atom_site_fract_z
Si Si1 0.845148 0.000000 0.750000
Si Si2 0.500000 0.250000 0.824204
Si Si3 0.734558 0.583525 0.381307
Si Si4 0.973366 0.623311 0.000513
Si Si5 0.750000 0.250000 0.750000
Si Si6 0.579054 0.526724 0.368929
Si Si7 0.112053 0.323614 0.819775
O O1 0.793724 0.978975 0.844907
O O2 0.887212 0.918006 0.722298
O O3 0.498093 0.326864 0.901027
O O4 0.433954 0.234627 0.753208
O O5 0.750000 0.606681 0.500000
O O6 0.740645 0.661564 0.308146
O O7 0.658769 0.547780 0.370460
O O8 0.936672 0.544854 0.951505
O O9 0.919629 0.675542 0.065579
O O10 0.032054 0.598769 0.083611
O O11 0.812825 0.211142 0.818330
O O12 0.560584 0.500000 0.250000
#
# Coordination Sequence:
#
# PCOD9532932 Si02
#       7
#     8   8  16  16   8  16  16
#     4  10  24  46  72 104 134 190 244 302 366 428
#     4  12  28  44  72 106 154 186 242 300 374 442
#     4  11  24  46  72 101 144 188 240 306 368 442
#     4  11  27  42  72 107 140 197 237 298 374 435
#     4  10  28  44  70 106 140 192 244 304 374 432
#     4  11  25  46  73 107 145 187 250 299 364 446
#     4  11  26  47  70 103 145 187 244 306 362 442
#
# _framework density 21.419848999999999
#
# number of rings (size 3 to 8) (size 9 to 14) (size 15 to 20)
#    0.000    1.091    0.909    2.727   19.091    0.000 
#    0.000    3.636    0.000    0.000    0.000    0.000 
#    0.000    0.000    0.000    0.000    0.000    0.000 
#
# Total GULP energy -245026.379528 kJ/mol
# GULP energy per Si atom -5568.781353 kJ/mol
# Density = 2.137110 g / cm^3
# Si number density = 21.419849 Si / 1000 Ang^3
#
#
#
# Elastic Constant Matrix: (Units=GPa)
#
#
# Indices 1 2 3 4 5 6 
#
# 1 38.9721 9.4667 40.1071 0.0000 0.0000 0.0000
# 2 9.4667 57.3334 14.2787 0.0000 0.0000 0.0000
# 3 40.1071 14.2787 93.8536 0.0000 0.0000 0.0000
# 4 0.0000 0.0000 0.0000 50.3537 0.0000 0.0000
# 5 0.0000 0.0000 0.0000 0.0000 18.4133 0.0000
# 6 0.0000 0.0000 0.0000 0.0000 0.0000 -26.9312
#
#
#
# Elastic Compliance Matrix: (Units=1/GPa)
#
#
# Indices 1 2 3 4 5 6 
#
# 1 0.046237 -0.002820 -0.019330 0.000000 0.000000 0.000000
# 2 -0.002820 0.018301 -0.001579 0.000000 0.000000 0.000000
# 3 -0.019330 -0.001579 0.019155 0.000000 0.000000 0.000000
# 4 0.000000 0.000000 0.000000 0.019860 0.000000 0.000000
# 5 0.000000 0.000000 0.000000 0.000000 0.054309 0.000000
# 6 0.000000 0.000000 0.000000 0.000000 0.000000 -0.037132
#
#
# Mechanical properties :
#
#
# Convention : Reuss Voigt Hill
#
# Bulk Modulus (GPa) = 27.59762 35.31824 31.45793
# Shear Modulus (GPa) = 27.73669 16.78759 22.26214
#
# Velocity S-wave (km/s) = 3.60238 2.80257 3.22735
# Velocity P-wave (km/s) = 5.49682 5.19585 5.34845
#
# Compressibility (1/GPa) = 0.03623501
#
# Stress axis : x y z
#
# Youngs Moduli (GPa) = 21.62761 54.64250 52.20456
#
# Poissons Ratio (x) = 0.15412 1.00910
# Poissons Ratio (y) = 0.06100 0.08243
# Poissons Ratio (z) = 0.41806 0.08628
#
# Static dielectric constant tensor:
#      x y z
#    x 1.795000 0.000000 0.000000 
#    y 0.000000 1.815020 0.000000 
#    z 0.000000 0.000000 1.750210 
# 
# From -- ./inp_files/12768.got.cif
#   From: 2010.05.17/outbox.cif.g08.bks.cpg/sg73_7_cif.got.tgz:12768.got - 2010.06.03 17:35:07.
