data_PCOD9532735
_publ_section_title
;
Structure prediction by ZEFSAII (Michael W. Deem and Ramdas Pophale) SiO2 
 PCOD9532735
Probable space group: I B C A 
;
_chemical_formula_sum "Si O2"
_cell_formula_units_Z 104
_cell_length_a 20.005055
_cell_length_b 17.377267
_cell_length_c 15.257050
_cell_angle_alpha 90.000000
_cell_angle_beta 90.000000
_cell_angle_gamma 90.000000
_cell_volume 5303.856841
_symmetry_space_group_name_H-M "I B C A "
_symmetry_group_IT_number 73
_symmetry_cell_setting 'orthorhombic'
loop_
_space_group_symop_operation_xyz
x,y,z
-x,1/2-y,z
x,-y,1/2-z
1/2-x,y,-z
-x,-y,-z
x,1/2+y,-z
-x,y,1/2+z
1/2+x,-y,z
1/2+x,1/2+y,1/2+z
1/2-x,-y,1/2+z
1/2+x,1/2-y,-z
-x,1/2+y,1/2-z
1/2-x,1/2-y,1/2-z
1/2+x,y,1/2-z
1/2-x,1/2+y,z
x,1/2-y,1/2+z
loop_
_atom_site_type_symbol
_atom_site_label
_atom_site_fract_x
_atom_site_fract_y
_atom_site_fract_z
Si Si1 0.766608 0.824950 0.688883
Si Si2 0.417264 0.665539 0.357823
Si Si3 0.493586 0.909985 0.014261
Si Si4 0.520447 0.663108 0.200579
Si Si5 0.150310 0.912167 0.732889
Si Si6 0.378901 0.671920 0.937011
Si Si7 0.250000 0.754012 0.000000
O O1 0.750000 0.750000 0.750000
O O2 0.844469 0.847745 0.684680
O O3 0.720930 0.893262 0.723946
O O4 0.748371 0.802587 0.589231
O O5 0.436509 0.621694 0.447685
O O6 0.473129 0.646791 0.284682
O O7 0.411932 0.755069 0.386589
O O8 0.561820 0.867874 0.987818
O O9 0.485569 0.890165 0.115846
O O10 0.500000 0.000000 0.000000
O O11 0.500000 0.750000 0.175095
O O12 0.596600 0.647916 0.228024
O O13 0.151015 0.889205 0.631371
O O14 0.129953 0.000000 0.750000
O O15 0.317672 0.704417 0.993501
#
# Coordination Sequence:
#
# PCOD9532735 Si02
#       7
#    16  16  16  16  16  16   8
#     4  11  23  45  71  98 136 176 236 281 334 416
#     4  11  23  46  69 101 128 177 238 284 321 416
#     4  12  27  42  63 103 139 173 221 291 349 403
#     4  12  23  41  74  94 126 182 230 267 346 407
#     4  12  25  44  66 101 141 180 219 293 358 399
#     4  11  22  45  68  94 140 171 232 284 331 407
#     4  10  24  40  74 100 124 176 234 278 316 404
#
# _framework density 19.608373
#
# number of rings (size 3 to 8) (size 9 to 14) (size 15 to 20)
#    0.000    0.615    6.154    2.308    8.615    0.000 
#    5.538    0.000    0.000    0.000    0.000    0.000 
#    0.000    0.000    0.000    0.000    0.000    0.000 
#
# Total GULP energy -290411.824439 kJ/mol
# GULP energy per Si atom -5584.842778 kJ/mol
# Density = 1.956374 g / cm^3
# Si number density = 19.608373 Si / 1000 Ang^3
#
#
#
# Elastic Constant Matrix: (Units=GPa)
#
#
# Indices 1 2 3 4 5 6 
#
# 1 92.3698 -8.6935 10.6427 0.0000 0.0000 0.0000
# 2 -8.6935 72.8721 -0.2110 0.0000 0.0000 0.0000
# 3 10.6427 -0.2110 84.8595 0.0000 0.0000 0.0000
# 4 0.0000 0.0000 0.0000 -5.8499 0.0000 0.0000
# 5 0.0000 0.0000 0.0000 0.0000 40.8010 0.0000
# 6 0.0000 0.0000 0.0000 0.0000 0.0000 9.7287
#
#
#
# Elastic Compliance Matrix: (Units=1/GPa)
#
#
# Indices 1 2 3 4 5 6 
#
# 1 0.011111 0.001321 -0.001390 0.000000 0.000000 0.000000
# 2 0.001321 0.013880 -0.000131 0.000000 0.000000 0.000000
# 3 -0.001390 -0.000131 0.011958 0.000000 0.000000 0.000000
# 4 0.000000 0.000000 0.000000 -0.170943 0.000000 0.000000
# 5 0.000000 0.000000 0.000000 0.000000 0.024509 0.000000
# 6 0.000000 0.000000 0.000000 0.000000 0.000000 0.102788
#
#
# Mechanical properties :
#
#
# Convention : Reuss Voigt Hill
#
# Bulk Modulus (GPa) = 27.36060 28.17530 27.76795
# Shear Modulus (GPa) = 849.48454 25.49352 437.48903
#
# Velocity S-wave (km/s) = 20.83665 3.60965 14.95318
# Velocity P-wave (km/s) = 24.34896 5.63675 17.67264
#
# Compressibility (1/GPa) = 0.03654890
#
# Stress axis : x y z
#
# Youngs Moduli (GPa) = 90.00426 72.04638 83.62462
#
# Poissons Ratio (x) = -0.09521 0.11625
# Poissons Ratio (y) = -0.11894 0.01097
# Poissons Ratio (z) = 0.12512 0.00945
#
# Static dielectric constant tensor:
#      x y z
#    x 1.696070 0.000000 0.000000 
#    y 0.000000 1.878540 0.000000 
#    z 0.000000 0.000000 1.713260 
# 
# From -- ./inp_files/18788.got.cif
#   From: 2010.05.17/outbox.cif.g08.bks.cpg/sg73_10_cif.got.tgz:18788.got - 2010.06.03 17:35:07.
