data_PCOD9532834
_publ_section_title
;
Structure prediction by ZEFSAII (Michael W. Deem and Ramdas Pophale) SiO2 
 PCOD9532834
Probable space group: I B C A 
;
_chemical_formula_sum "Si O2"
_cell_formula_units_Z 72
_cell_length_a 12.200925
_cell_length_b 8.509353
_cell_length_c 29.051113
_cell_angle_alpha 90.000000
_cell_angle_beta 90.000000
_cell_angle_gamma 90.000000
_cell_volume 3016.144008
_symmetry_space_group_name_H-M "I B C A "
_symmetry_group_IT_number 73
_symmetry_cell_setting 'orthorhombic'
loop_
_space_group_symop_operation_xyz
x,y,z
-x,1/2-y,z
x,-y,1/2-z
1/2-x,y,-z
-x,-y,-z
x,1/2+y,-z
-x,y,1/2+z
1/2+x,-y,z
1/2+x,1/2+y,1/2+z
1/2-x,-y,1/2+z
1/2+x,1/2-y,-z
-x,1/2+y,1/2-z
1/2-x,1/2-y,1/2-z
1/2+x,y,1/2-z
1/2-x,1/2+y,z
x,1/2-y,1/2+z
loop_
_atom_site_type_symbol
_atom_site_label
_atom_site_fract_x
_atom_site_fract_y
_atom_site_fract_z
Si Si1 0.212596 0.941797 0.364458
Si Si2 0.348323 0.019932 0.964628
Si Si3 0.050039 0.424273 0.794063
Si Si4 0.500000 0.250000 0.523144
Si Si5 0.101817 0.348426 0.158360
O O1 0.332398 0.016745 0.367440
O O2 0.126238 0.058708 0.339370
O O3 0.187042 0.902168 0.417100
O O4 0.192411 0.785818 0.334192
O O5 0.415965 0.863777 0.951054
O O6 0.250000 0.980349 0.000000
O O7 0.426906 0.137860 0.991440
O O8 0.111671 0.500000 0.750000
O O9 0.954003 0.555491 0.800709
O O10 0.000000 0.250000 0.789673
O O11 0.000000 0.250000 0.136817
#
# Coordination Sequence:
#
# PCOD9532834 Si02
#       5
#    16  16  16   8  16
#     4  11  25  42  72 102 148 196 253 311 375 452
#     4  11  26  44  71 104 146 193 252 304 379 445
#     4  11  24  46  75 111 152 194 247 308 383 457
#     4  10  26  46  68 100 140 192 242 318 370 448
#     4  10  24  44  68 106 144 193 245 308 370 446
#
# _framework density 23.871538000000001
#
# number of rings (size 3 to 8) (size 9 to 14) (size 15 to 20)
#    0.000    1.333    0.000    4.000   12.444    4.444 
#    0.000    7.778    0.000    0.000    0.000    0.000 
#    0.000    0.000    0.000    0.000    0.000    0.000 
#
# Total GULP energy -200756.797572 kJ/mol
# GULP energy per Si atom -5576.577710 kJ/mol
# Density = 2.381721 g / cm^3
# Si number density = 23.871538 Si / 1000 Ang^3
#
#
#
# Elastic Constant Matrix: (Units=GPa)
#
#
# Indices 1 2 3 4 5 6 
#
# 1 80.2785 46.2496 13.7646 0.0000 0.0000 0.0000
# 2 46.2496 117.6969 -2.0134 0.0000 0.0000 0.0000
# 3 13.7646 -2.0134 79.9405 0.0000 0.0000 0.0000
# 4 0.0000 0.0000 0.0000 13.0127 0.0000 0.0000
# 5 0.0000 0.0000 0.0000 0.0000 59.6875 0.0000
# 6 0.0000 0.0000 0.0000 0.0000 0.0000 48.1748
#
#
#
# Elastic Compliance Matrix: (Units=1/GPa)
#
#
# Indices 1 2 3 4 5 6 
#
# 1 0.016820 -0.006662 -0.003064 0.000000 0.000000 0.000000
# 2 -0.006662 0.011139 0.001428 0.000000 0.000000 0.000000
# 3 -0.003064 0.001428 0.013073 0.000000 0.000000 0.000000
# 4 0.000000 0.000000 0.000000 0.076848 0.000000 0.000000
# 5 0.000000 0.000000 0.000000 0.000000 0.016754 0.000000
# 6 0.000000 0.000000 0.000000 0.000000 0.000000 0.020758
#
#
# Mechanical properties :
#
#
# Convention : Reuss Voigt Hill
#
# Bulk Modulus (GPa) = 40.92493 43.76865 42.34679
# Shear Modulus (GPa) = 27.75736 38.83602 33.29669
#
# Velocity S-wave (km/s) = 3.41366 4.03783 3.73879
# Velocity P-wave (km/s) = 5.72000 6.33353 6.03457
#
# Compressibility (1/GPa) = 0.02443498
#
# Stress axis : x y z
#
# Youngs Moduli (GPa) = 59.45295 89.77737 76.49456
#
# Poissons Ratio (x) = 0.59809 0.23438
# Poissons Ratio (y) = 0.39607 -0.10921
# Poissons Ratio (z) = 0.18216 -0.12817
#
# Static dielectric constant tensor:
#      x y z
#    x 2.002220 0.000000 0.000000 
#    y 0.000000 1.958160 0.000000 
#    z 0.000000 0.000000 1.842830 
# 
# From -- ./inp_files/32037.got.cif
#   From: 2010.05.17/outbox.cif.g08.bks.cpg/sg73_17_cif.got.tgz:32037.got - 2010.06.03 17:35:07.
