data_PCOD9532194
_publ_section_title
;
Structure prediction by ZEFSAII (Michael W. Deem and Ramdas Pophale) SiO2 
 PCOD9532194
Probable space group: I B C A 
;
_chemical_formula_sum "Si O2"
_cell_formula_units_Z 88
_cell_length_a 14.739947
_cell_length_b 17.418403
_cell_length_c 16.564220
_cell_angle_alpha 90.000000
_cell_angle_beta 90.000000
_cell_angle_gamma 90.000000
_cell_volume 4252.802811
_symmetry_space_group_name_H-M "I B C A "
_symmetry_group_IT_number 73
_symmetry_cell_setting 'orthorhombic'
loop_
_space_group_symop_operation_xyz
x,y,z
-x,1/2-y,z
x,-y,1/2-z
1/2-x,y,-z
-x,-y,-z
x,1/2+y,-z
-x,y,1/2+z
1/2+x,-y,z
1/2+x,1/2+y,1/2+z
1/2-x,-y,1/2+z
1/2+x,1/2-y,-z
-x,1/2+y,1/2-z
1/2-x,1/2-y,1/2-z
1/2+x,y,1/2-z
1/2-x,1/2+y,z
x,1/2-y,1/2+z
loop_
_atom_site_type_symbol
_atom_site_label
_atom_site_fract_x
_atom_site_fract_y
_atom_site_fract_z
Si Si1 0.340597 0.797896 0.240130
Si Si2 0.519442 0.840423 0.607688
Si Si3 0.996308 0.410276 0.932365
Si Si4 0.000000 0.750000 0.161962
Si Si5 0.827626 0.046760 0.332871
Si Si6 0.116469 0.969388 0.340722
O O1 0.250000 0.750000 0.250000
O O2 0.386399 0.834735 0.159205
O O3 0.416323 0.744036 0.278192
O O4 0.326707 0.867609 0.300203
O O5 0.500000 0.750000 0.592411
O O6 0.519109 0.886891 0.523733
O O7 0.438790 0.888682 0.652337
O O8 0.901815 0.452151 0.904707
O O9 0.995423 0.327566 0.888657
O O10 0.071080 0.467733 0.898244
O O11 0.724143 0.031163 0.358144
O O12 0.852395 0.000000 0.250000
O O13 0.105342 0.000000 0.250000
#
# Coordination Sequence:
#
# PCOD9532194 Si02
#       6
#    16  16  16   8  16  16
#     4  11  23  40  69  99 135 182 242 287 340 427
#     4  12  24  43  70 104 144 183 232 294 371 422
#     4  11  23  44  69 102 147 180 232 298 366 427
#     4  10  22  42  70  98 136 188 236 294 350 422
#     4  10  23  41  68 101 132 182 240 288 350 427
#     4  11  24  43  74 101 140 192 241 295 358 440
#
# _framework density 20.692235
#
# number of rings (size 3 to 8) (size 9 to 14) (size 15 to 20)
#    0.000    1.091    1.818    5.455    5.091    0.727 
#    0.000    2.727    0.000    0.000    0.000    0.000 
#    0.000    0.000    0.000    0.000    0.000    0.000 
#
# Total GULP energy -245231.633268 kJ/mol
# GULP energy per Si atom -5573.446211 kJ/mol
# Density = 2.064514 g / cm^3
# Si number density = 20.692235 Si / 1000 Ang^3
#
#
#
# Elastic Constant Matrix: (Units=GPa)
#
#
# Indices 1 2 3 4 5 6 
#
# 1 184.8207 53.7559 89.7037 0.0000 0.0000 0.0000
# 2 53.7559 112.4909 53.9504 0.0000 0.0000 0.0000
# 3 89.7037 53.9504 134.3372 0.0000 0.0000 0.0000
# 4 0.0000 0.0000 0.0000 43.7123 0.0000 0.0000
# 5 0.0000 0.0000 0.0000 0.0000 8.6952 0.0000
# 6 0.0000 0.0000 0.0000 0.0000 0.0000 41.6528
#
#
#
# Elastic Compliance Matrix: (Units=1/GPa)
#
#
# Indices 1 2 3 4 5 6 
#
# 1 0.008233 -0.001607 -0.004852 0.000000 0.000000 0.000000
# 2 -0.001607 0.011324 -0.003475 0.000000 0.000000 0.000000
# 3 -0.004852 -0.003475 0.012079 0.000000 0.000000 0.000000
# 4 0.000000 0.000000 0.000000 0.022877 0.000000 0.000000
# 5 0.000000 0.000000 0.000000 0.000000 0.115005 0.000000
# 6 0.000000 0.000000 0.000000 0.000000 0.000000 0.024008
#
#
# Mechanical properties :
#
#
# Convention : Reuss Voigt Hill
#
# Bulk Modulus (GPa) = 84.97187 91.82986 88.40086
# Shear Modulus (GPa) = 23.00778 34.42799 28.71789
#
# Velocity S-wave (km/s) = 3.33814 4.08341 3.72944
# Velocity P-wave (km/s) = 7.48407 8.16747 7.83323
#
# Compressibility (1/GPa) = 0.01176860
#
# Stress axis : x y z
#
# Youngs Moduli (GPa) = 121.45976 88.30758 82.78546
#
# Poissons Ratio (x) = 0.14193 0.40169
# Poissons Ratio (y) = 0.19522 0.28764
# Poissons Ratio (z) = 0.58935 0.30683
#
# Static dielectric constant tensor:
#      x y z
#    x 1.778150 0.000000 0.000000 
#    y 0.000000 0.443130 0.000000 
#    z 0.000000 0.000000 1.795960 
# 
# From -- ./inp_files/21936.got.cif
#   From: 2010.05.17/outbox.cif.g08.bks.cpg/sg73_11_cif.got.tgz:21936.got - 2010.06.03 17:35:07.
