data_PCOD9532573
_publ_section_title
;
Structure prediction by ZEFSAII (Michael W. Deem and Ramdas Pophale) SiO2 
 PCOD9532573
Probable space group: I B C A 
;
_chemical_formula_sum "Si O2"
_cell_formula_units_Z 104
_cell_length_a 23.815631
_cell_length_b 22.638070
_cell_length_c 9.223114
_cell_angle_alpha 90.000000
_cell_angle_beta 90.000000
_cell_angle_gamma 90.000000
_cell_volume 4972.548960
_symmetry_space_group_name_H-M "I B C A "
_symmetry_group_IT_number 73
_symmetry_cell_setting 'orthorhombic'
loop_
_space_group_symop_operation_xyz
x,y,z
-x,1/2-y,z
x,-y,1/2-z
1/2-x,y,-z
-x,-y,-z
x,1/2+y,-z
-x,y,1/2+z
1/2+x,-y,z
1/2+x,1/2+y,1/2+z
1/2-x,-y,1/2+z
1/2+x,1/2-y,-z
-x,1/2+y,1/2-z
1/2-x,1/2-y,1/2-z
1/2+x,y,1/2-z
1/2-x,1/2+y,z
x,1/2-y,1/2+z
loop_
_atom_site_type_symbol
_atom_site_label
_atom_site_fract_x
_atom_site_fract_y
_atom_site_fract_z
Si Si1 0.058913 0.164259 0.644840
Si Si2 0.448345 0.625254 0.312703
Si Si3 0.872106 0.218044 0.666691
Si Si4 0.829682 0.401553 0.743299
Si Si5 0.799907 0.289024 0.891406
Si Si6 0.896783 0.000000 0.750000
Si Si7 0.685639 0.501063 0.475656
O O1 0.049435 0.140970 0.482188
O O2 0.079314 0.232277 0.650228
O O3 0.112287 0.130060 0.708581
O O4 0.004581 0.149302 0.738149
O O5 0.396840 0.661531 0.244882
O O6 0.435732 0.557128 0.276644
O O7 0.822403 0.244188 0.769169
O O8 0.850383 0.203002 0.506662
O O9 0.789204 0.350836 0.808380
O O10 0.811449 0.436590 0.599513
O O11 0.837964 0.451638 0.862694
O O12 0.750000 0.270515 0.000000
O O13 0.854469 0.002825 0.613513
O O14 0.750000 0.518974 0.500000
#
# Coordination Sequence:
#
# PCOD9532573 Si02
#       7
#    16  16  16  16  16   8  16
#     4  11  26  46  68 100 131 184 229 296 347 406
#     4  12  27  45  71 100 140 180 234 287 352 413
#     4  11  24  45  71 100 140 177 237 285 344 423
#     4  10  23  44  65  98 141 175 233 287 334 417
#     4  11  23  42  68 103 139 184 224 288 356 403
#     4  12  26  44  68 110 140 176 228 288 346 416
#     4  11  23  43  71  98 137 187 231 274 338 412
#
# _framework density 20.914826999999999
#
# number of rings (size 3 to 8) (size 9 to 14) (size 15 to 20)
#    0.000    0.923    3.077    3.231    6.462    4.308 
#    0.000    2.308    0.000    0.000    0.000    0.000 
#    0.000    0.000    0.000    0.000    0.000    0.000 
#
# Total GULP energy -290693.561171 kJ/mol
# GULP energy per Si atom -5590.260792 kJ/mol
# Density = 2.086722 g / cm^3
# Si number density = 20.914827 Si / 1000 Ang^3
#
#
#
# Elastic Constant Matrix: (Units=GPa)
#
#
# Indices 1 2 3 4 5 6 
#
# 1 45.3932 11.0869 25.0325 0.0000 0.0000 0.0000
# 2 11.0869 105.6306 23.3958 0.0000 0.0000 0.0000
# 3 25.0325 23.3958 121.7960 0.0000 0.0000 0.0000
# 4 0.0000 0.0000 0.0000 9.9359 0.0000 0.0000
# 5 0.0000 0.0000 0.0000 0.0000 31.9368 0.0000
# 6 0.0000 0.0000 0.0000 0.0000 0.0000 23.5249
#
#
#
# Elastic Compliance Matrix: (Units=1/GPa)
#
#
# Indices 1 2 3 4 5 6 
#
# 1 0.025089 -0.001557 -0.004857 0.000000 0.000000 0.000000
# 2 -0.001557 0.009984 -0.001598 0.000000 0.000000 0.000000
# 3 -0.004857 -0.001598 0.009516 0.000000 0.000000 0.000000
# 4 0.000000 0.000000 0.000000 0.100645 0.000000 0.000000
# 5 0.000000 0.000000 0.000000 0.000000 0.031312 0.000000
# 6 0.000000 0.000000 0.000000 0.000000 0.000000 0.042508
#
#
# Mechanical properties :
#
#
# Convention : Reuss Voigt Hill
#
# Bulk Modulus (GPa) = 35.00950 43.53890 39.27420
# Shear Modulus (GPa) = 20.44153 27.29982 23.87067
#
# Velocity S-wave (km/s) = 3.12968 3.61679 3.38202
# Velocity P-wave (km/s) = 5.46217 6.18902 5.83692
#
# Compressibility (1/GPa) = 0.02856368
#
# Stress axis : x y z
#
# Youngs Moduli (GPa) = 39.85859 100.15709 105.08988
#
# Poissons Ratio (x) = 0.15599 0.51045
# Poissons Ratio (y) = 0.06208 0.16791
# Poissons Ratio (z) = 0.19360 0.16003
#
# Static dielectric constant tensor:
#      x y z
#    x 1.749020 0.000000 0.000000 
#    y 0.000000 1.755360 0.000000 
#    z 0.000000 0.000000 1.739340 
# 
# From -- ./inp_files/7886.got.cif
#   From: 2010.05.17/outbox.cif.g08.bks.cpg/sg73_4_cif.got.tgz:7886.got - 2010.06.03 17:35:07.
