data_PCOD9532733
_publ_section_title
;
Structure prediction by ZEFSAII (Michael W. Deem and Ramdas Pophale) SiO2 
 PCOD9532733
Probable space group: I B C A 
;
_chemical_formula_sum "Si O2"
_cell_formula_units_Z 72
_cell_length_a 18.268531
_cell_length_b 9.021773
_cell_length_c 20.817593
_cell_angle_alpha 90.000000
_cell_angle_beta 90.000000
_cell_angle_gamma 90.000000
_cell_volume 3431.042008
_symmetry_space_group_name_H-M "I B C A "
_symmetry_group_IT_number 73
_symmetry_cell_setting 'orthorhombic'
loop_
_space_group_symop_operation_xyz
x,y,z
-x,1/2-y,z
x,-y,1/2-z
1/2-x,y,-z
-x,-y,-z
x,1/2+y,-z
-x,y,1/2+z
1/2+x,-y,z
1/2+x,1/2+y,1/2+z
1/2-x,-y,1/2+z
1/2+x,1/2-y,-z
-x,1/2+y,1/2-z
1/2-x,1/2-y,1/2-z
1/2+x,y,1/2-z
1/2-x,1/2+y,z
x,1/2-y,1/2+z
loop_
_atom_site_type_symbol
_atom_site_label
_atom_site_fract_x
_atom_site_fract_y
_atom_site_fract_z
Si Si1 0.483573 0.925758 0.067600
Si Si2 0.818189 0.019113 0.417195
Si Si3 0.219393 0.868595 0.298940
Si Si4 0.250000 0.262284 0.000000
Si Si5 0.556410 0.387104 0.809378
O O1 0.500000 0.750000 0.061069
O O2 0.535474 0.974461 0.125887
O O3 0.401991 0.971309 0.089146
O O4 0.500000 0.000000 0.000000
O O5 0.774945 0.080101 0.354777
O O6 0.809971 0.150973 0.469985
O O7 0.778112 0.872848 0.444865
O O8 0.250000 0.750000 0.250000
O O9 0.138176 0.825522 0.321651
O O10 0.205589 0.000000 0.250000
O O11 0.500000 0.250000 0.800569
O O12 0.551167 0.500000 0.750000
#
# Coordination Sequence:
#
# PCOD9532733 Si02
#       5
#    16  16  16   8  16
#     4  11  26  44  71 103 144 185 236 295 367 432
#     4  11  24  43  71 102 142 187 238 300 355 439
#     4  11  26  44  72 103 138 183 242 296 361 436
#     4  10  24  40  70  98 142 182 238 282 364 414
#     4  10  26  46  69 100 142 183 238 292 362 435
#
# _framework density 20.984877999999998
#
# number of rings (size 3 to 8) (size 9 to 14) (size 15 to 20)
#    0.000    1.333    0.000    2.667   21.778    0.889 
#    4.000    0.000    0.000    0.000    0.000    0.000 
#    0.000    0.000    0.000    0.000    0.000    0.000 
#
# Total GULP energy -200979.170070 kJ/mol
# GULP energy per Si atom -5582.754724 kJ/mol
# Density = 2.093712 g / cm^3
# Si number density = 20.984878 Si / 1000 Ang^3
#
#
#
# Elastic Constant Matrix: (Units=GPa)
#
#
# Indices 1 2 3 4 5 6 
#
# 1 189.2940 50.9695 71.4183 0.0000 0.0000 0.0000
# 2 50.9695 105.2104 49.8137 0.0000 0.0000 0.0000
# 3 71.4183 49.8137 164.3115 0.0000 0.0000 0.0000
# 4 0.0000 0.0000 0.0000 48.4692 0.0000 0.0000
# 5 0.0000 0.0000 0.0000 0.0000 31.8288 0.0000
# 6 0.0000 0.0000 0.0000 0.0000 0.0000 15.4542
#
#
#
# Elastic Compliance Matrix: (Units=1/GPa)
#
#
# Indices 1 2 3 4 5 6 
#
# 1 0.006724 -0.002188 -0.002259 0.000000 0.000000 0.000000
# 2 -0.002188 0.011810 -0.002629 0.000000 0.000000 0.000000
# 3 -0.002259 -0.002629 0.007865 0.000000 0.000000 0.000000
# 4 0.000000 0.000000 0.000000 0.020632 0.000000 0.000000
# 5 0.000000 0.000000 0.000000 0.000000 0.031418 0.000000
# 6 0.000000 0.000000 0.000000 0.000000 0.000000 0.064707
#
#
# Mechanical properties :
#
#
# Convention : Reuss Voigt Hill
#
# Bulk Modulus (GPa) = 81.66023 89.24657 85.45340
# Shear Modulus (GPa) = 30.98060 38.25806 34.61933
#
# Velocity S-wave (km/s) = 3.84647 4.27444 4.06609
# Velocity P-wave (km/s) = 7.66325 8.18428 7.92805
#
# Compressibility (1/GPa) = 0.01224586
#
# Stress axis : x y z
#
# Youngs Moduli (GPa) = 148.71298 84.67708 127.14226
#
# Poissons Ratio (x) = 0.18526 0.28727
# Poissons Ratio (y) = 0.32536 0.33430
# Poissons Ratio (z) = 0.33601 0.22264
#
# Static dielectric constant tensor:
#      x y z
#    x 1.774460 0.000000 0.000000 
#    y 0.000000 1.693270 0.000000 
#    z 0.000000 0.000000 1.782250 
# 
# From -- ./inp_files/5338.got.cif
#   From: 2010.05.17/outbox.cif.g08.bks.cpg/sg73_3_cif.got.tgz:5338.got - 2010.06.03 17:35:07.
