data_PCOD9532326
_publ_section_title
;
Structure prediction by ZEFSAII (Michael W. Deem and Ramdas Pophale) SiO2 
 PCOD9532326
Probable space group: I B C A 
;
_chemical_formula_sum "Si O2"
_cell_formula_units_Z 56
_cell_length_a 19.948051
_cell_length_b 10.742025
_cell_length_c 10.861045
_cell_angle_alpha 90.000000
_cell_angle_beta 90.000000
_cell_angle_gamma 90.000000
_cell_volume 2327.331468
_symmetry_space_group_name_H-M "I B C A "
_symmetry_group_IT_number 73
_symmetry_cell_setting 'orthorhombic'
loop_
_space_group_symop_operation_xyz
x,y,z
-x,1/2-y,z
x,-y,1/2-z
1/2-x,y,-z
-x,-y,-z
x,1/2+y,-z
-x,y,1/2+z
1/2+x,-y,z
1/2+x,1/2+y,1/2+z
1/2-x,-y,1/2+z
1/2+x,1/2-y,-z
-x,1/2+y,1/2-z
1/2-x,1/2-y,1/2-z
1/2+x,y,1/2-z
1/2-x,1/2+y,z
x,1/2-y,1/2+z
loop_
_atom_site_type_symbol
_atom_site_label
_atom_site_fract_x
_atom_site_fract_y
_atom_site_fract_z
Si Si1 0.832878 0.823050 0.373773
Si Si2 0.686622 0.350121 0.638584
Si Si3 0.518166 0.383110 0.414670
Si Si4 0.080990 0.000000 0.250000
O O1 0.762973 0.898871 0.362450
O O2 0.826275 0.725866 0.263158
O O3 0.826432 0.772112 0.514211
O O4 0.905002 0.886705 0.370876
O O5 0.630897 0.456599 0.642757
O O6 0.500000 0.250000 0.474962
O O7 0.500000 0.500000 0.500000
O O8 0.467956 0.393750 0.298865
#
# Coordination Sequence:
#
# PCOD9532326 Si02
#       4
#    16  16  16   8
#     4  10  22  45  74 107 147 199 255 320 393 465
#     4  10  22  44  73 107 148 196 260 321 390 468
#     4  12  26  46  76 113 153 206 258 330 398 476
#     4  12  24  42  72 108 156 192 258 328 394 480
#
# _framework density 24.061893000000001
#
# number of rings (size 3 to 8) (size 9 to 14) (size 15 to 20)
#    0.000    1.143    5.714    0.000    0.000    4.571 
#    0.000   17.143    0.000    0.000    0.000    0.000 
#    0.000    0.000    0.000    0.000    0.000    0.000 
#
# Total GULP energy -156282.561865 kJ/mol
# GULP energy per Si atom -5581.520067 kJ/mol
# Density = 2.400713 g / cm^3
# Si number density = 24.061893 Si / 1000 Ang^3
#
#
#
# Elastic Constant Matrix: (Units=GPa)
#
#
# Indices 1 2 3 4 5 6 
#
# 1 287.7544 47.8756 46.3016 0.0000 0.0000 0.0000
# 2 47.8756 84.7676 37.0902 0.0000 0.0000 0.0000
# 3 46.3016 37.0902 131.9643 0.0000 0.0000 0.0000
# 4 0.0000 0.0000 0.0000 30.8873 0.0000 0.0000
# 5 0.0000 0.0000 0.0000 0.0000 16.7695 0.0000
# 6 0.0000 0.0000 0.0000 0.0000 0.0000 31.5341
#
#
#
# Elastic Compliance Matrix: (Units=1/GPa)
#
#
# Indices 1 2 3 4 5 6 
#
# 1 0.003919 -0.001838 -0.000859 0.000000 0.000000 0.000000
# 2 -0.001838 0.014313 -0.003378 0.000000 0.000000 0.000000
# 3 -0.000859 -0.003378 0.008828 0.000000 0.000000 0.000000
# 4 0.000000 0.000000 0.000000 0.032376 0.000000 0.000000
# 5 0.000000 0.000000 0.000000 0.000000 0.059632 0.000000
# 6 0.000000 0.000000 0.000000 0.000000 0.000000 0.031712
#
#
# Mechanical properties :
#
#
# Convention : Reuss Voigt Hill
#
# Bulk Modulus (GPa) = 67.06085 85.22458 76.14272
# Shear Modulus (GPa) = 29.77976 40.71945 35.24961
#
# Velocity S-wave (km/s) = 3.52182 4.11820 3.83163
# Velocity P-wave (km/s) = 6.66845 7.62289 7.16159
#
# Compressibility (1/GPa) = 0.01491183
#
# Stress axis : x y z
#
# Youngs Moduli (GPa) = 255.16089 69.86667 113.26988
#
# Poissons Ratio (x) = 0.12840 0.09725
# Poissons Ratio (y) = 0.46893 0.38263
# Poissons Ratio (z) = 0.21906 0.23601
#
# Static dielectric constant tensor:
#      x y z
#    x 1.958750 0.000000 0.000000 
#    y 0.000000 1.973210 0.000000 
#    z 0.000000 0.000000 2.010020 
# 
# From -- ./inp_files/12422.got.cif
#   From: 2010.05.17/outbox.cif.g08.bks.cpg/sg73_7_cif.got.tgz:12422.got - 2010.06.03 17:35:07.
