data_PCOD9532670
_publ_section_title
;
Structure prediction by ZEFSAII (Michael W. Deem and Ramdas Pophale) SiO2 
 PCOD9532670
Probable space group: I B C A 
;
_chemical_formula_sum "Si O2"
_cell_formula_units_Z 112
_cell_length_a 12.461643
_cell_length_b 27.123803
_cell_length_c 14.251154
_cell_angle_alpha 90.000000
_cell_angle_beta 90.000000
_cell_angle_gamma 90.000000
_cell_volume 4816.991945
_symmetry_space_group_name_H-M "I B C A "
_symmetry_group_IT_number 73
_symmetry_cell_setting 'orthorhombic'
loop_
_space_group_symop_operation_xyz
x,y,z
-x,1/2-y,z
x,-y,1/2-z
1/2-x,y,-z
-x,-y,-z
x,1/2+y,-z
-x,y,1/2+z
1/2+x,-y,z
1/2+x,1/2+y,1/2+z
1/2-x,-y,1/2+z
1/2+x,1/2-y,-z
-x,1/2+y,1/2-z
1/2-x,1/2-y,1/2-z
1/2+x,y,1/2-z
1/2-x,1/2+y,z
x,1/2-y,1/2+z
loop_
_atom_site_type_symbol
_atom_site_label
_atom_site_fract_x
_atom_site_fract_y
_atom_site_fract_z
Si Si1 0.750000 0.521602 0.500000
Si Si2 0.250000 0.183222 0.000000
Si Si3 0.599674 0.723456 0.826363
Si Si4 0.660096 0.233615 0.877412
Si Si5 0.458384 0.631028 0.591723
Si Si6 0.596410 0.103167 0.576789
Si Si7 0.747659 0.074117 0.893216
Si Si8 0.939364 0.386431 0.272428
O O1 0.652548 0.556434 0.471034
O O2 0.733811 0.483542 0.585869
O O3 0.166450 0.218028 0.056657
O O4 0.317657 0.147989 0.070144
O O5 0.500000 0.750000 0.876287
O O6 0.625331 0.751147 0.727898
O O7 0.713775 0.718928 0.876835
O O8 0.557689 0.670038 0.803559
O O9 0.588016 0.186558 0.903529
O O10 0.496384 0.618464 0.488256
O O11 0.368908 0.593786 0.631652
O O12 0.557279 0.618366 0.660700
O O13 0.544336 0.091302 0.676726
O O14 0.833524 0.090895 0.817625
O O15 0.750000 0.096539 0.000000
#
# Coordination Sequence:
#
# PCOD9532670 Si02
#       8
#     8   8  16  16  16  16  16  16
#     4   9  24  51  76  94 146 179 228 317 380 418
#     4  11  26  37  62  94 138 191 246 285 346 434
#     4  11  22  40  60  91 138 186 220 276 348 391
#     4  11  25  40  61  96 143 183 233 286 339 414
#     4  12  25  43  71 107 144 184 246 293 358 438
#     4  11  25  46  68 101 137 189 241 303 367 422
#     4  10  23  47  75 100 136 190 228 296 370 431
#     4  12  24  41  72 103 140 184 236 293 350 433
#
# _framework density 23.251024000000001
#
# number of rings (size 3 to 8) (size 9 to 14) (size 15 to 20)
#    0.429    0.571    4.286    1.714    5.000    4.571 
#    0.000    4.286    0.000    0.000    0.000    0.000 
#    0.000    0.000    0.000    0.000    0.000    0.000 
#
# Total GULP energy -312850.324831 kJ/mol
# GULP energy per Si atom -5586.612943 kJ/mol
# Density = 2.319810 g / cm^3
# Si number density = 23.251024 Si / 1000 Ang^3
#
#
#
# Elastic Constant Matrix: (Units=GPa)
#
#
# Indices 1 2 3 4 5 6 
#
# 1 88.6805 4.2131 18.4347 -0.0001 0.0000 0.0000
# 2 4.2131 77.3894 6.4138 -0.0002 0.0001 0.0000
# 3 18.4347 6.4138 81.3101 -0.0002 0.0005 0.0001
# 4 -0.0001 -0.0002 -0.0002 18.5365 0.0002 0.0000
# 5 0.0000 0.0001 0.0005 0.0002 23.4112 -0.0001
# 6 0.0000 0.0000 0.0001 0.0000 -0.0001 12.3517
#
#
#
# Elastic Compliance Matrix: (Units=1/GPa)
#
#
# Indices 1 2 3 4 5 6 
#
# 1 0.011848 -0.000425 -0.002653 0.000000 0.000000 0.000000
# 2 -0.000425 0.013022 -0.000931 0.000000 0.000000 0.000000
# 3 -0.002653 -0.000931 0.012973 0.000000 0.000000 0.000000
# 4 0.000000 0.000000 0.000000 0.053948 0.000000 0.000000
# 5 0.000000 0.000000 0.000000 0.000000 0.042715 0.000000
# 6 0.000000 0.000000 0.000000 0.000000 0.000000 0.080961
#
#
# Mechanical properties :
#
#
# Convention : Reuss Voigt Hill
#
# Bulk Modulus (GPa) = 33.52756 33.94480 33.73618
# Shear Modulus (GPa) = 21.42010 25.41443 23.41726
#
# Velocity S-wave (km/s) = 3.03851 3.30971 3.17701
# Velocity P-wave (km/s) = 5.17312 5.40708 5.29140
#
# Compressibility (1/GPa) = 0.02982620
#
# Stress axis : x y z
#
# Youngs Moduli (GPa) = 84.40200 76.79343 77.08060
#
# Poissons Ratio (x) = 0.03265 0.20447
# Poissons Ratio (y) = 0.03588 0.07175
# Poissons Ratio (z) = 0.22389 0.07148
#
# Static dielectric constant tensor:
#      x y z
#    x 1.920660 0.000000 0.000000 
#    y 0.000000 1.856790 0.000000 
#    z 0.000000 0.000000 1.787280 
# 
# From -- ./inp_files/16372.got.cif
#   From: 2010.05.17/outbox.cif.g08.bks.cpg/sg73_9_cif.got.tgz:16372.got - 2010.06.03 17:35:07.
