data_PCOD9532219
_publ_section_title
;
Structure prediction by ZEFSAII (Michael W. Deem and Ramdas Pophale) SiO2 
 PCOD9532219
Probable space group: I B C A 
;
_chemical_formula_sum "Si O2"
_cell_formula_units_Z 80
_cell_length_a 10.737114
_cell_length_b 23.914997
_cell_length_c 14.508207
_cell_angle_alpha 90.000000
_cell_angle_beta 90.000000
_cell_angle_gamma 90.000000
_cell_volume 3725.389089
_symmetry_space_group_name_H-M "I B C A "
_symmetry_group_IT_number 73
_symmetry_cell_setting 'orthorhombic'
loop_
_space_group_symop_operation_xyz
x,y,z
-x,1/2-y,z
x,-y,1/2-z
1/2-x,y,-z
-x,-y,-z
x,1/2+y,-z
-x,y,1/2+z
1/2+x,-y,z
1/2+x,1/2+y,1/2+z
1/2-x,-y,1/2+z
1/2+x,1/2-y,-z
-x,1/2+y,1/2-z
1/2-x,1/2-y,1/2-z
1/2+x,y,1/2-z
1/2-x,1/2+y,z
x,1/2-y,1/2+z
loop_
_atom_site_type_symbol
_atom_site_label
_atom_site_fract_x
_atom_site_fract_y
_atom_site_fract_z
Si Si1 0.439462 0.374240 0.322183
Si Si2 0.505654 0.358698 0.114222
Si Si3 0.896978 0.799319 0.448423
Si Si4 0.730581 0.718355 0.344598
Si Si5 0.392179 0.954864 0.515422
O O1 0.455591 0.380302 0.212394
O O2 0.557021 0.340777 0.365936
O O3 0.322983 0.334135 0.343378
O O4 0.414185 0.429134 0.382701
O O5 0.595061 0.306169 0.136992
O O6 0.405380 0.337618 0.039478
O O7 0.584222 0.405037 0.058504
O O8 0.779087 0.764346 0.415135
O O9 0.000000 0.750000 0.457272
O O10 0.750000 0.750000 0.250000
O O11 0.250000 0.974915 0.500000
O O12 0.500000 0.000000 0.500000
#
# Coordination Sequence:
#
# PCOD9532219 Si02
#       5
#    16  16  16  16  16
#     4  10  22  43  64 103 140 181 244 298 367 447
#     4  11  23  43  68 100 149 189 238 311 364 455
#     4   9  21  34  59  97 137 185 234 267 352 441
#     4  11  21  39  66  98 147 195 232 285 363 450
#     4  11  25  52  78 101 139 192 255 326 385 436
#
# _framework density 21.474266
#
# number of rings (size 3 to 8) (size 9 to 14) (size 15 to 20)
#    0.000    1.600    4.000    0.000    2.800    0.800 
#    3.600    2.000    0.000    0.000    0.000    0.000 
#    0.000    0.000    0.000    0.000    0.000    0.000 
#
# Total GULP energy -223490.156155 kJ/mol
# GULP energy per Si atom -5587.253904 kJ/mol
# Density = 2.142539 g / cm^3
# Si number density = 21.474266 Si / 1000 Ang^3
#
#
#
# Elastic Constant Matrix: (Units=GPa)
#
#
# Indices 1 2 3 4 5 6 
#
# 1 76.6825 43.3024 29.8005 0.0000 0.0000 0.0000
# 2 43.3024 69.9495 32.9268 -0.0001 0.0000 0.0000
# 3 29.8005 32.9268 194.6519 0.0000 0.0000 0.0000
# 4 0.0000 -0.0001 0.0000 23.8991 0.0000 0.0000
# 5 0.0000 0.0000 0.0000 0.0000 22.9030 0.0000
# 6 0.0000 0.0000 0.0000 0.0000 0.0000 44.3176
#
#
#
# Elastic Compliance Matrix: (Units=1/GPa)
#
#
# Indices 1 2 3 4 5 6 
#
# 1 0.020251 -0.012035 -0.001064 0.000000 0.000000 0.000000
# 2 -0.012035 0.022685 -0.001995 0.000000 0.000000 0.000000
# 3 -0.001064 -0.001995 0.005638 0.000000 0.000000 0.000000
# 4 0.000000 0.000000 0.000000 0.041843 0.000000 0.000000
# 5 0.000000 0.000000 0.000000 0.000000 0.043662 0.000000
# 6 0.000000 0.000000 0.000000 0.000000 0.000000 0.022564
#
#
# Mechanical properties :
#
#
# Convention : Reuss Voigt Hill
#
# Bulk Modulus (GPa) = 54.39242 61.48261 57.93751
# Shear Modulus (GPa) = 25.91203 33.90755 29.90979
#
# Velocity S-wave (km/s) = 3.47746 3.97796 3.73610
# Velocity P-wave (km/s) = 6.44265 7.05633 6.75646
#
# Compressibility (1/GPa) = 0.01838492
#
# Stress axis : x y z
#
# Youngs Moduli (GPa) = 49.38112 44.08118 177.37448
#
# Poissons Ratio (x) = 0.53052 0.18881
# Poissons Ratio (y) = 0.59431 0.35384
# Poissons Ratio (z) = 0.05256 0.08794
#
# Static dielectric constant tensor:
#      x y z
#    x 1.844800 0.000000 0.000000 
#    y 0.000000 1.744530 0.000000 
#    z 0.000000 0.000000 2.180130 
# 
# From -- ./inp_files/16029.got.cif
#   From: 2010.05.17/outbox.cif.g08.bks.cpg/sg73_9_cif.got.tgz:16029.got - 2010.06.03 17:35:07.
