data_PCOD9532415
_publ_section_title
;
Structure prediction by ZEFSAII (Michael W. Deem and Ramdas Pophale) SiO2 
 PCOD9532415
Probable space group: I B C A 
;
_chemical_formula_sum "Si O2"
_cell_formula_units_Z 96
_cell_length_a 17.106647
_cell_length_b 11.497518
_cell_length_c 23.757548
_cell_angle_alpha 90.000000
_cell_angle_beta 90.000000
_cell_angle_gamma 90.000000
_cell_volume 4672.729138
_symmetry_space_group_name_H-M "I B C A "
_symmetry_group_IT_number 73
_symmetry_cell_setting 'orthorhombic'
loop_
_space_group_symop_operation_xyz
x,y,z
-x,1/2-y,z
x,-y,1/2-z
1/2-x,y,-z
-x,-y,-z
x,1/2+y,-z
-x,y,1/2+z
1/2+x,-y,z
1/2+x,1/2+y,1/2+z
1/2-x,-y,1/2+z
1/2+x,1/2-y,-z
-x,1/2+y,1/2-z
1/2-x,1/2-y,1/2-z
1/2+x,y,1/2-z
1/2-x,1/2+y,z
x,1/2-y,1/2+z
loop_
_atom_site_type_symbol
_atom_site_label
_atom_site_fract_x
_atom_site_fract_y
_atom_site_fract_z
Si Si1 0.261225 0.318856 0.191076
Si Si2 0.544431 0.536803 0.415838
Si Si3 0.606717 0.931434 0.041868
Si Si4 0.854663 0.309933 0.591084
Si Si5 0.581471 0.700771 0.313383
Si Si6 0.826677 0.500000 0.750000
Si Si7 0.750000 0.061835 0.000000
O O1 0.250000 0.250000 0.250000
O O2 0.202401 0.277008 0.142556
O O3 0.351507 0.297341 0.176904
O O4 0.231311 0.449195 0.202669
O O5 0.452910 0.513715 0.424809
O O6 0.578062 0.570330 0.477068
O O7 0.586193 0.416353 0.396350
O O8 0.562387 0.636044 0.371458
O O9 0.603425 0.804948 0.069028
O O10 0.693850 0.982277 0.038340
O O11 0.802009 0.358901 0.540262
O O12 0.500000 0.750000 0.290350
O O13 0.619145 0.602801 0.273107
#
# Coordination Sequence:
#
# PCOD9532415 Si02
#       7
#    16  16  16  16  16   8   8
#     4  10  24  43  71  94 132 179 221 283 336 398
#     4  10  23  43  64  94 138 172 220 279 339 402
#     4  10  23  40  64  96 131 181 217 273 339 401
#     4  11  22  40  65  94 131 174 227 269 338 399
#     4  11  25  43  68 100 132 177 218 286 339 402
#     4  10  22  52  66 100 132 170 238 276 336 416
#     4  10  24  34  64 102 128 174 224 280 320 414
#
# _framework density 20.544737999999999
#
# number of rings (size 3 to 8) (size 9 to 14) (size 15 to 20)
#    0.000    1.667    1.667    1.000    9.333    3.333 
#    6.000    0.000    0.000    0.000    0.000    0.000 
#    0.000    0.000    0.000    0.000    0.000    0.000 
#
# Total GULP energy -268101.078452 kJ/mol
# GULP energy per Si atom -5585.439134 kJ/mol
# Density = 2.049798 g / cm^3
# Si number density = 20.544738 Si / 1000 Ang^3
#
#
#
# Elastic Constant Matrix: (Units=GPa)
#
#
# Indices 1 2 3 4 5 6 
#
# 1 138.4422 51.0788 25.0829 0.0000 0.0000 0.0000
# 2 51.0788 75.6014 26.7765 0.0000 0.0000 0.0000
# 3 25.0829 26.7765 53.4299 0.0000 0.0000 0.0000
# 4 0.0000 0.0000 0.0000 33.2660 0.0000 0.0000
# 5 0.0000 0.0000 0.0000 0.0000 25.3412 0.0000
# 6 0.0000 0.0000 0.0000 0.0000 0.0000 39.4291
#
#
#
# Elastic Compliance Matrix: (Units=1/GPa)
#
#
# Indices 1 2 3 4 5 6 
#
# 1 0.009726 -0.006023 -0.001547 0.000000 0.000000 0.000000
# 2 -0.006023 0.019812 -0.007101 0.000000 0.000000 0.000000
# 3 -0.001547 -0.007101 0.023001 0.000000 0.000000 0.000000
# 4 0.000000 0.000000 0.000000 0.030061 0.000000 0.000000
# 5 0.000000 0.000000 0.000000 0.000000 0.039461 0.000000
# 6 0.000000 0.000000 0.000000 0.000000 0.000000 0.025362
#
#
# Mechanical properties :
#
#
# Convention : Reuss Voigt Hill
#
# Bulk Modulus (GPa) = 43.11142 52.59447 47.85294
# Shear Modulus (GPa) = 27.10057 30.57628 28.83843
#
# Velocity S-wave (km/s) = 3.63588 3.86201 3.75065
# Velocity P-wave (km/s) = 6.21739 6.74851 6.48838
#
# Compressibility (1/GPa) = 0.02319571
#
# Stress axis : x y z
#
# Youngs Moduli (GPa) = 102.81927 50.47520 43.47581
#
# Poissons Ratio (x) = 0.30401 0.06727
# Poissons Ratio (y) = 0.61928 0.30873
# Poissons Ratio (z) = 0.15910 0.35843
#
# Static dielectric constant tensor:
#      x y z
#    x 1.793510 0.000000 0.000000 
#    y 0.000000 1.745500 0.000000 
#    z 0.000000 0.000000 1.732350 
# 
# From -- ./inp_files/23573.got.cif
#   From: 2010.05.17/outbox.cif.g08.bks.cpg/sg73_12_cif.got.tgz:23573.got - 2010.06.03 17:35:07.
