data_PCOD9532722
_publ_section_title
;
Structure prediction by ZEFSAII (Michael W. Deem and Ramdas Pophale) SiO2 
 PCOD9532722
Probable space group: I B C A 
;
_chemical_formula_sum "Si O2"
_cell_formula_units_Z 56
_cell_length_a 26.550799
_cell_length_b 10.692670
_cell_length_c 8.855004
_cell_angle_alpha 90.000000
_cell_angle_beta 90.000000
_cell_angle_gamma 90.000000
_cell_volume 2513.926178
_symmetry_space_group_name_H-M "I B C A "
_symmetry_group_IT_number 73
_symmetry_cell_setting 'orthorhombic'
loop_
_space_group_symop_operation_xyz
x,y,z
-x,1/2-y,z
x,-y,1/2-z
1/2-x,y,-z
-x,-y,-z
x,1/2+y,-z
-x,y,1/2+z
1/2+x,-y,z
1/2+x,1/2+y,1/2+z
1/2-x,-y,1/2+z
1/2+x,1/2-y,-z
-x,1/2+y,1/2-z
1/2-x,1/2-y,1/2-z
1/2+x,y,1/2-z
1/2-x,1/2+y,z
x,1/2-y,1/2+z
loop_
_atom_site_type_symbol
_atom_site_label
_atom_site_fract_x
_atom_site_fract_y
_atom_site_fract_z
Si Si1 0.500000 0.750000 0.831475
Si Si2 0.342307 0.884122 0.595890
Si Si3 0.694352 0.858110 0.442179
Si Si4 0.457170 0.408984 0.432170
O O1 0.521053 0.644484 0.722540
O O2 0.457123 0.700148 0.941710
O O3 0.339977 0.750161 0.514495
O O4 0.318125 0.862655 0.762484
O O5 0.399280 0.938403 0.596370
O O6 0.313628 0.996900 0.510831
O O7 0.750000 0.822958 0.500000
O O8 0.500000 0.500000 0.500000
#
# Coordination Sequence:
#
# PCOD9532722 Si02
#       4
#     8  16  16  16
#     4  10  24  40  66  94 144 184 240 280 352 406
#     4  11  26  44  74 104 144 185 240 292 372 426
#     4  11  25  47  73 104 141 184 242 307 358 427
#     4  11  24  42  67 100 144 186 236 292 349 435
#
# _framework density 22.275912999999999
#
# number of rings (size 3 to 8) (size 9 to 14) (size 15 to 20)
#    0.000    1.143    0.000    4.286   16.000    3.429 
#    5.143    0.000    0.000    0.000    0.000    0.000 
#    0.000    0.000    0.000    0.000    0.000    0.000 
#
# Total GULP energy -156178.053865 kJ/mol
# GULP energy per Si atom -5577.787638 kJ/mol
# Density = 2.222521 g / cm^3
# Si number density = 22.275913 Si / 1000 Ang^3
#
#
#
# Elastic Constant Matrix: (Units=GPa)
#
#
# Indices 1 2 3 4 5 6 
#
# 1 154.7413 18.2342 31.0320 0.0000 0.0000 0.0000
# 2 18.2342 103.1414 50.3008 0.0000 0.0000 0.0000
# 3 31.0320 50.3008 109.3694 0.0000 0.0000 0.0000
# 4 0.0000 0.0000 0.0000 57.3213 0.0000 0.0000
# 5 0.0000 0.0000 0.0000 0.0000 -29.6406 0.0000
# 6 0.0000 0.0000 0.0000 0.0000 0.0000 32.3533
#
#
#
# Elastic Compliance Matrix: (Units=1/GPa)
#
#
# Indices 1 2 3 4 5 6 
#
# 1 0.006862 -0.000340 -0.001791 0.000000 0.000000 0.000000
# 2 -0.000340 0.012516 -0.005660 0.000000 0.000000 0.000000
# 3 -0.001791 -0.005660 0.012254 0.000000 0.000000 0.000000
# 4 0.000000 0.000000 0.000000 0.017446 0.000000 0.000000
# 5 0.000000 0.000000 0.000000 0.000000 -0.033738 0.000000
# 6 0.000000 0.000000 0.000000 0.000000 0.000000 0.030909
#
#
# Mechanical properties :
#
#
# Convention : Reuss Voigt Hill
#
# Bulk Modulus (GPa) = 62.30010 62.93179 62.61594
# Shear Modulus (GPa) = 74.42798 29.85248 52.14023
#
# Velocity S-wave (km/s) = 5.78657 3.66474 4.84328
# Velocity P-wave (km/s) = 8.52491 6.79849 7.71017
#
# Compressibility (1/GPa) = 0.01605134
#
# Stress axis : x y z
#
# Youngs Moduli (GPa) = 145.74022 79.89963 81.60343
#
# Poissons Ratio (x) = 0.02715 0.14612
# Poissons Ratio (y) = 0.04952 0.46186
# Poissons Ratio (z) = 0.26096 0.45221
#
# Static dielectric constant tensor:
#      x y z
#    x 1.933350 0.000000 0.000000 
#    y 0.000000 2.160940 0.000000 
#    z 0.000000 0.000000 1.800970 
# 
# From -- ./inp_files/3907.got.cif
#   From: 2010.05.17/outbox.cif.g08.bks.cpg/sg73_2_cif.got.tgz:3907.got - 2010.06.03 17:35:07.
