data_PCOD9532912
_publ_section_title
;
Structure prediction by ZEFSAII (Michael W. Deem and Ramdas Pophale) SiO2 
 PCOD9532912
Probable space group: I B C A 
;
_chemical_formula_sum "Si O2"
_cell_formula_units_Z 104
_cell_length_a 25.296785
_cell_length_b 9.311970
_cell_length_c 17.102725
_cell_angle_alpha 90.000000
_cell_angle_beta 90.000000
_cell_angle_gamma 90.000000
_cell_volume 4028.767550
_symmetry_space_group_name_H-M "I B C A "
_symmetry_group_IT_number 73
_symmetry_cell_setting 'orthorhombic'
loop_
_space_group_symop_operation_xyz
x,y,z
-x,1/2-y,z
x,-y,1/2-z
1/2-x,y,-z
-x,-y,-z
x,1/2+y,-z
-x,y,1/2+z
1/2+x,-y,z
1/2+x,1/2+y,1/2+z
1/2-x,-y,1/2+z
1/2+x,1/2-y,-z
-x,1/2+y,1/2-z
1/2-x,1/2-y,1/2-z
1/2+x,y,1/2-z
1/2-x,1/2+y,z
x,1/2-y,1/2+z
loop_
_atom_site_type_symbol
_atom_site_label
_atom_site_fract_x
_atom_site_fract_y
_atom_site_fract_z
Si Si1 0.459877 0.495690 0.426697
Si Si2 0.000000 0.750000 0.312188
Si Si3 0.097532 0.429605 0.177919
Si Si4 0.098459 0.259183 0.375389
Si Si5 0.239824 0.961415 0.415203
Si Si6 0.636600 0.708802 0.547420
Si Si7 0.293775 0.233428 0.681814
O O1 0.500000 0.500000 0.500000
O O2 0.480165 0.378591 0.366202
O O3 0.449025 0.646216 0.383853
O O4 0.403454 0.425676 0.448384
O O5 0.948379 0.832627 0.279670
O O6 0.130113 0.500000 0.250000
O O7 0.081265 0.574828 0.131665
O O8 0.122442 0.327152 0.112888
O O9 0.127953 0.237195 0.459540
O O10 0.142666 0.220038 0.309640
O O11 0.250000 0.027339 0.500000
O O12 0.194199 0.846338 0.431993
O O13 0.286112 0.871738 0.374398
O O14 0.222129 0.085657 0.358613
O O15 0.250000 0.250000 0.750000
#
# Coordination Sequence:
#
# PCOD9532912 Si02
#       7
#    16   8  16  16  16  16  16
#     4  11  22  43  76 116 158 204 267 344 409 486
#     4  10  24  46  68 108 154 212 258 328 414 504
#     4  11  28  47  76 111 158 209 263 331 412 501
#     4  12  25  45  75 115 154 209 273 335 410 490
#     4  12  26  48  78 111 157 212 270 338 408 492
#     4  11  24  46  74 112 155 203 272 333 404 489
#     4  12  29  48  74 114 162 214 272 335 408 493
#
# _framework density 25.814346
#
# number of rings (size 3 to 8) (size 9 to 14) (size 15 to 20)
#    0.000    0.615    3.077    4.615    4.308    3.077 
#    0.000    3.077    0.000    0.000    0.000    0.000 
#    0.000    0.000    0.000    0.000    0.000    0.000 
#
# Total GULP energy -290891.491722 kJ/mol
# GULP energy per Si atom -5594.067149 kJ/mol
# Density = 2.575559 g / cm^3
# Si number density = 25.814346 Si / 1000 Ang^3
#
#
#
# Elastic Constant Matrix: (Units=GPa)
#
#
# Indices 1 2 3 4 5 6 
#
# 1 112.8882 45.7676 26.9295 0.0000 0.0000 0.0000
# 2 45.7676 183.5047 41.4050 0.0000 0.0000 0.0000
# 3 26.9295 41.4050 102.0927 0.0000 0.0000 0.0000
# 4 0.0000 0.0000 0.0000 44.0185 0.0000 0.0000
# 5 0.0000 0.0000 0.0000 0.0000 47.5029 0.0000
# 6 0.0000 0.0000 0.0000 0.0000 0.0000 42.8899
#
#
#
# Elastic Compliance Matrix: (Units=1/GPa)
#
#
# Indices 1 2 3 4 5 6 
#
# 1 0.010152 -0.002122 -0.001817 0.000000 0.000000 0.000000
# 2 -0.002122 0.006442 -0.002053 0.000000 0.000000 0.000000
# 3 -0.001817 -0.002053 0.011107 0.000000 0.000000 0.000000
# 4 0.000000 0.000000 0.000000 0.022718 0.000000 0.000000
# 5 0.000000 0.000000 0.000000 0.000000 0.021051 0.000000
# 6 0.000000 0.000000 0.000000 0.000000 0.000000 0.023316
#
#
# Mechanical properties :
#
#
# Convention : Reuss Voigt Hill
#
# Bulk Modulus (GPa) = 63.62657 69.63220 66.62938
# Shear Modulus (GPa) = 44.63939 45.84116 45.24027
#
# Velocity S-wave (km/s) = 4.16293 4.21860 4.19086
# Velocity P-wave (km/s) = 6.91433 7.12471 7.02031
#
# Compressibility (1/GPa) = 0.01571671
#
# Stress axis : x y z
#
# Youngs Moduli (GPa) = 98.50139 155.23397 90.03384
#
# Poissons Ratio (x) = 0.32940 0.16362
# Poissons Ratio (y) = 0.20902 0.18483
# Poissons Ratio (z) = 0.17900 0.31867
#
# Static dielectric constant tensor:
#      x y z
#    x 2.159740 0.000000 0.000000 
#    y 0.000000 1.942520 0.000000 
#    z 0.000000 0.000000 2.109770 
# 
# From -- ./inp_files/27615.got.cif
#   From: 2010.05.17/outbox.cif.g08.bks.cpg/sg73_14_cif.got.tgz:27615.got - 2010.06.03 17:35:07.
