data_PCOD9532192
_publ_section_title
;
Structure prediction by ZEFSAII (Michael W. Deem and Ramdas Pophale) SiO2 
 PCOD9532192
Probable space group: I B C A 
;
_chemical_formula_sum "Si O2"
_cell_formula_units_Z 56
_cell_length_a 10.215898
_cell_length_b 20.820942
_cell_length_c 10.392247
_cell_angle_alpha 90.000000
_cell_angle_beta 90.000000
_cell_angle_gamma 90.000000
_cell_volume 2210.478946
_symmetry_space_group_name_H-M "I B C A "
_symmetry_group_IT_number 73
_symmetry_cell_setting 'orthorhombic'
loop_
_space_group_symop_operation_xyz
x,y,z
-x,1/2-y,z
x,-y,1/2-z
1/2-x,y,-z
-x,-y,-z
x,1/2+y,-z
-x,y,1/2+z
1/2+x,-y,z
1/2+x,1/2+y,1/2+z
1/2-x,-y,1/2+z
1/2+x,1/2-y,-z
-x,1/2+y,1/2-z
1/2-x,1/2-y,1/2-z
1/2+x,y,1/2-z
1/2-x,1/2+y,z
x,1/2-y,1/2+z
loop_
_atom_site_type_symbol
_atom_site_label
_atom_site_fract_x
_atom_site_fract_y
_atom_site_fract_z
Si Si1 0.250000 0.456021 0.500000
Si Si2 0.413116 0.884288 0.329437
Si Si3 0.579922 0.925182 0.572910
Si Si4 0.250000 0.182187 0.500000
Si Si5 0.500000 0.750000 0.377975
O O1 0.271302 0.410347 0.623753
O O2 0.364734 0.508717 0.517752
O O3 0.489535 0.893807 0.465582
O O4 0.472113 0.928416 0.217273
O O5 0.444463 0.810326 0.299180
O O6 0.694849 0.871517 0.599840
O O7 0.371623 0.225441 0.544403
#
# Coordination Sequence:
#
# PCOD9532192 Si02
#       5
#     8  16  16   8   8
#     4  11  23  40  64  96 135 183 242 304 372 439
#     4  11  24  41  68  99 140 190 242 313 377 458
#     4  10  24  43  65  99 139 187 248 312 382 449
#     4   9  21  42  66 100 143 191 248 314 372 457
#     4  10  22  42  70 104 146 194 252 304 384 460
#
# _framework density 25.333877000000001
#
# number of rings (size 3 to 8) (size 9 to 14) (size 15 to 20)
#    0.000    1.714    0.000    2.571    0.000   14.857 
#    0.000    0.000    0.000    0.000    0.000    0.000 
#    0.000    0.000    0.000    0.000    0.000    0.000 
#
# Total GULP energy -155908.065475 kJ/mol
# GULP energy per Si atom -5568.145196 kJ/mol
# Density = 2.527622 g / cm^3
# Si number density = 25.333877 Si / 1000 Ang^3
#
#
#
# Elastic Constant Matrix: (Units=GPa)
#
#
# Indices 1 2 3 4 5 6 
#
# 1 120.5742 39.5730 12.4453 0.0000 0.0000 0.0000
# 2 39.5730 162.5672 9.9940 -0.0002 0.0000 0.0000
# 3 12.4453 9.9940 100.9009 -0.0003 0.0000 0.0000
# 4 0.0000 -0.0002 -0.0003 29.8191 0.0000 0.0000
# 5 0.0000 0.0000 0.0000 0.0000 31.4991 0.0000
# 6 0.0000 0.0000 0.0000 0.0000 0.0000 46.5996
#
#
#
# Elastic Compliance Matrix: (Units=1/GPa)
#
#
# Indices 1 2 3 4 5 6 
#
# 1 0.009096 -0.002158 -0.000908 0.000000 0.000000 0.000000
# 2 -0.002158 0.006701 -0.000398 0.000000 0.000000 0.000000
# 3 -0.000908 -0.000398 0.010062 0.000000 0.000000 0.000000
# 4 0.000000 0.000000 0.000000 0.033536 0.000000 0.000000
# 5 0.000000 0.000000 0.000000 0.000000 0.031747 0.000000
# 6 0.000000 0.000000 0.000000 0.000000 0.000000 0.021459
#
#
# Mechanical properties :
#
#
# Convention : Reuss Voigt Hill
#
# Bulk Modulus (GPa) = 52.82317 56.45188 54.63752
# Shear Modulus (GPa) = 39.73326 43.05221 41.39274
#
# Velocity S-wave (km/s) = 3.96458 4.12684 4.04652
# Velocity P-wave (km/s) = 6.46941 6.71113 6.59138
#
# Compressibility (1/GPa) = 0.01893109
#
# Stress axis : x y z
#
# Youngs Moduli (GPa) = 109.94143 149.22856 99.38288
#
# Poissons Ratio (x) = 0.32208 0.09025
# Poissons Ratio (y) = 0.23729 0.03951
# Poissons Ratio (z) = 0.09984 0.05932
#
# Static dielectric constant tensor:
#      x y z
#    x 2.382600 0.000000 0.000000 
#    y 0.000000 2.006600 0.000000 
#    z 0.000000 0.000000 2.316480 
# 
# From -- ./inp_files/9383.got.cif
#   From: 2010.05.17/outbox.cif.g08.bks.cpg/sg73_5_cif.got.tgz:9383.got - 2010.06.03 17:35:07.
