data_PCOD9532241
_publ_section_title
;
Structure prediction by ZEFSAII (Michael W. Deem and Ramdas Pophale) SiO2 
 PCOD9532241
Probable space group: I B C A 
;
_chemical_formula_sum "Si O2"
_cell_formula_units_Z 88
_cell_length_a 10.544310
_cell_length_b 26.191842
_cell_length_c 14.187984
_cell_angle_alpha 90.000000
_cell_angle_beta 90.000000
_cell_angle_gamma 90.000000
_cell_volume 3918.365084
_symmetry_space_group_name_H-M "I B C A "
_symmetry_group_IT_number 73
_symmetry_cell_setting 'orthorhombic'
loop_
_space_group_symop_operation_xyz
x,y,z
-x,1/2-y,z
x,-y,1/2-z
1/2-x,y,-z
-x,-y,-z
x,1/2+y,-z
-x,y,1/2+z
1/2+x,-y,z
1/2+x,1/2+y,1/2+z
1/2-x,-y,1/2+z
1/2+x,1/2-y,-z
-x,1/2+y,1/2-z
1/2-x,1/2-y,1/2-z
1/2+x,y,1/2-z
1/2-x,1/2+y,z
x,1/2-y,1/2+z
loop_
_atom_site_type_symbol
_atom_site_label
_atom_site_fract_x
_atom_site_fract_y
_atom_site_fract_z
Si Si1 0.166831 0.538546 0.837035
Si Si2 0.129975 0.724481 0.141448
Si Si3 0.051597 0.899143 0.920630
Si Si4 0.619519 0.716451 0.131947
Si Si5 0.642859 0.608191 0.419915
Si Si6 0.250000 0.970897 0.000000
O O1 0.156401 0.500000 0.750000
O O2 0.302168 0.568738 0.842615
O O3 0.162516 0.505850 0.933820
O O4 0.053130 0.579760 0.846609
O O5 0.247223 0.758037 0.104974
O O6 0.124741 0.721655 0.254770
O O7 0.141370 0.666004 0.113086
O O8 0.000000 0.750000 0.109489
O O9 0.095555 0.841852 0.897636
O O10 0.169933 0.936601 0.928510
O O11 0.987088 0.901738 0.024756
O O12 0.500000 0.750000 0.099873
O O13 0.750000 0.605868 0.500000
#
# Coordination Sequence:
#
# PCOD9532241 Si02
#       6
#    16  16  16  16  16   8
#     4  11  25  46  75  99 141 195 234 306 371 430
#     4  10  23  40  68 102 140 180 237 293 352 445
#     4  11  25  44  68 101 141 181 241 299 360 439
#     4  10  22  44  67  97 141 184 230 297 361 433
#     4  10  22  43  67  99 140 177 233 297 355 435
#     4  12  26  46  66 106 144 178 250 304 352 440
#
# _framework density 22.458345999999999
#
# number of rings (size 3 to 8) (size 9 to 14) (size 15 to 20)
#    0.000    1.455    2.727    2.727    5.091    4.364 
#    0.000    0.000    0.000    0.000    0.000    0.000 
#    0.000    0.000    0.000    0.000    0.000    0.000 
#
# Total GULP energy -245996.455935 kJ/mol
# GULP energy per Si atom -5590.828544 kJ/mol
# Density = 2.240723 g / cm^3
# Si number density = 22.458346 Si / 1000 Ang^3
#
#
#
# Elastic Constant Matrix: (Units=GPa)
#
#
# Indices 1 2 3 4 5 6 
#
# 1 122.1557 69.8424 15.6501 0.0000 0.0000 0.0000
# 2 69.8424 186.2867 40.6460 0.0000 0.0000 0.0000
# 3 15.6501 40.6460 88.1667 0.0001 0.0000 0.0002
# 4 0.0000 0.0000 0.0001 47.3716 0.0000 0.0000
# 5 0.0000 0.0000 0.0000 0.0000 -22.3898 0.0000
# 6 0.0000 0.0000 0.0002 0.0000 0.0000 0.5858
#
#
#
# Elastic Compliance Matrix: (Units=1/GPa)
#
#
# Indices 1 2 3 4 5 6 
#
# 1 0.010420 -0.003895 -0.000054 0.000000 0.000000 0.000000
# 2 -0.003895 0.007424 -0.002731 0.000000 0.000000 0.000001
# 3 -0.000054 -0.002731 0.012611 0.000000 0.000000 -0.000005
# 4 0.000000 0.000000 0.000000 0.021110 0.000000 -0.000002
# 5 0.000000 0.000000 0.000000 0.000000 -0.044663 -0.000001
# 6 0.000000 0.000001 -0.000005 -0.000002 -0.000001 1.707132
#
#
# Mechanical properties :
#
#
# Convention : Reuss Voigt Hill
#
# Bulk Modulus (GPa) = 58.49733 72.09845 65.29789
# Shear Modulus (GPa) = 2.88502 23.14490 13.01496
#
# Velocity S-wave (km/s) = 1.13463 3.21373 2.40992
# Velocity P-wave (km/s) = 5.27448 6.77817 6.07305
#
# Compressibility (1/GPa) = 0.01709480
#
# Stress axis : x y z
#
# Youngs Moduli (GPa) = 95.96839 134.69302 79.29639
#
# Poissons Ratio (x) = 0.52462 0.00428
# Poissons Ratio (y) = 0.37379 0.21658
# Poissons Ratio (z) = 0.00518 0.36789
#
# Static dielectric constant tensor:
#      x y z
#    x 1.843300 0.000000 0.000000 
#    y 0.000000 1.805270 0.000000 
#    z 0.000000 0.000000 1.860910 
# 
# From -- ./inp_files/16125.got.cif
#   From: 2010.05.17/outbox.cif.g08.bks.cpg/sg73_9_cif.got.tgz:16125.got - 2010.06.03 17:35:07.
