data_PCOD9532092
_publ_section_title
;
Structure prediction by ZEFSAII (Michael W. Deem and Ramdas Pophale) SiO2 
 PCOD9532092
Probable space group: I B C A 
;
_chemical_formula_sum "Si O2"
_cell_formula_units_Z 88
_cell_length_a 13.512901
_cell_length_b 10.636132
_cell_length_c 31.754129
_cell_angle_alpha 90.000000
_cell_angle_beta 90.000000
_cell_angle_gamma 90.000000
_cell_volume 4563.862150
_symmetry_space_group_name_H-M "I B C A "
_symmetry_group_IT_number 73
_symmetry_cell_setting 'orthorhombic'
loop_
_space_group_symop_operation_xyz
x,y,z
-x,1/2-y,z
x,-y,1/2-z
1/2-x,y,-z
-x,-y,-z
x,1/2+y,-z
-x,y,1/2+z
1/2+x,-y,z
1/2+x,1/2+y,1/2+z
1/2-x,-y,1/2+z
1/2+x,1/2-y,-z
-x,1/2+y,1/2-z
1/2-x,1/2-y,1/2-z
1/2+x,y,1/2-z
1/2-x,1/2+y,z
x,1/2-y,1/2+z
loop_
_atom_site_type_symbol
_atom_site_label
_atom_site_fract_x
_atom_site_fract_y
_atom_site_fract_z
Si Si1 0.500000 0.250000 0.916743
Si Si2 0.205856 0.690465 0.953960
Si Si3 0.779469 0.062596 0.906235
Si Si4 0.251524 0.372811 0.221996
Si Si5 0.103661 0.073433 0.652127
Si Si6 0.059955 0.879229 0.160554
O O1 0.588517 0.294894 0.946628
O O2 0.452450 0.348757 0.884007
O O3 0.224563 0.546453 0.940694
O O4 0.252006 0.799493 0.924015
O O5 0.250000 0.712364 0.000000
O O6 0.697520 0.015586 0.872504
O O7 0.883142 0.077703 0.881983
O O8 0.243075 0.500000 0.250000
O O9 0.250000 0.250000 0.250000
O O10 0.159311 0.357199 0.189893
O O11 0.353394 0.373868 0.195194
O O12 0.024127 0.979663 0.671104
O O13 0.000000 0.750000 0.155053
#
# Coordination Sequence:
#
# PCOD9532092 Si02
#       6
#     8  16  16  16  16  16
#     4  10  22  42  68  90 126 178 222 248 328 408
#     4  11  22  42  64  98 133 165 208 276 332 375
#     4  10  22  41  66  94 130 169 219 267 318 398
#     4  11  26  42  61  97 136 164 214 282 330 374
#     4  10  22  41  66  89 124 173 221 256 321 392
#     4  11  22  40  68  92 124 177 220 261 323 394
#
# _framework density 19.281915999999999
#
# number of rings (size 3 to 8) (size 9 to 14) (size 15 to 20)
#    0.000    1.455    1.818    2.727    2.545    5.091 
#    4.909    2.727    0.000    0.000    0.000    0.000 
#    0.000    0.000    0.000    0.000    0.000    0.000 
#
# Total GULP energy -245319.546726 kJ/mol
# GULP energy per Si atom -5575.444244 kJ/mol
# Density = 1.923803 g / cm^3
# Si number density = 19.281916 Si / 1000 Ang^3
#
#
#
# Elastic Constant Matrix: (Units=GPa)
#
#
# Indices 1 2 3 4 5 6 
#
# 1 133.8631 39.5273 49.9855 0.0000 0.0000 0.0000
# 2 39.5273 81.3613 31.1796 0.0000 0.0000 0.0000
# 3 49.9855 31.1796 95.7500 0.0000 0.0000 0.0000
# 4 0.0000 0.0000 0.0000 32.1653 0.0000 0.0000
# 5 0.0000 0.0000 0.0000 0.0000 32.1346 0.0000
# 6 0.0000 0.0000 0.0000 0.0000 0.0000 -152.0251
#
#
#
# Elastic Compliance Matrix: (Units=1/GPa)
#
#
# Indices 1 2 3 4 5 6 
#
# 1 0.009982 -0.003259 -0.004150 0.000000 0.000000 0.000000
# 2 -0.003259 0.015108 -0.003218 0.000000 0.000000 0.000000
# 3 -0.004150 -0.003218 0.013658 0.000000 0.000000 0.000000
# 4 0.000000 0.000000 0.000000 0.031089 0.000000 0.000000
# 5 0.000000 0.000000 0.000000 0.000000 0.031119 0.000000
# 6 0.000000 0.000000 0.000000 0.000000 0.000000 -0.006578
#
#
# Mechanical properties :
#
#
# Convention : Reuss Voigt Hill
#
# Bulk Modulus (GPa) = 57.16376 61.37324 59.26850
# Shear Modulus (GPa) = 41.16437 -4.85957 18.15240
#
# Velocity S-wave (km/s) = 4.62548 -1.58926 3.07159
# Velocity P-wave (km/s) = 7.63134 5.34143 6.58666
#
# Compressibility (1/GPa) = 0.01749360
#
# Stress axis : x y z
#
# Youngs Moduli (GPa) = 100.17719 66.19213 73.21635
#
# Poissons Ratio (x) = 0.21574 0.30384
# Poissons Ratio (y) = 0.32651 0.23561
# Poissons Ratio (z) = 0.41572 0.21301
#
# Static dielectric constant tensor:
#      x y z
#    x 1.719300 0.000000 0.000000 
#    y 0.000000 1.664720 0.000000 
#    z 0.000000 0.000000 1.529310 
# 
# From -- ./inp_files/9851.got.cif
#   From: 2010.05.17/outbox.cif.g08.bks.cpg/sg73_5_cif.got.tgz:9851.got - 2010.06.03 17:35:07.
