data_PCOD9532689
_publ_section_title
;
Structure prediction by ZEFSAII (Michael W. Deem and Ramdas Pophale) SiO2 
 PCOD9532689
Probable space group: I B C A 
;
_chemical_formula_sum "Si O2"
_cell_formula_units_Z 72
_cell_length_a 18.371721
_cell_length_b 9.128625
_cell_length_c 21.149604
_cell_angle_alpha 90.000000
_cell_angle_beta 90.000000
_cell_angle_gamma 90.000000
_cell_volume 3546.969454
_symmetry_space_group_name_H-M "I B C A "
_symmetry_group_IT_number 73
_symmetry_cell_setting 'orthorhombic'
loop_
_space_group_symop_operation_xyz
x,y,z
-x,1/2-y,z
x,-y,1/2-z
1/2-x,y,-z
-x,-y,-z
x,1/2+y,-z
-x,y,1/2+z
1/2+x,-y,z
1/2+x,1/2+y,1/2+z
1/2-x,-y,1/2+z
1/2+x,1/2-y,-z
-x,1/2+y,1/2-z
1/2-x,1/2-y,1/2-z
1/2+x,y,1/2-z
1/2-x,1/2+y,z
x,1/2-y,1/2+z
loop_
_atom_site_type_symbol
_atom_site_label
_atom_site_fract_x
_atom_site_fract_y
_atom_site_fract_z
Si Si1 0.028986 0.480545 0.070260
Si Si2 0.569462 0.695349 0.639982
Si Si3 0.250000 0.362952 0.000000
Si Si4 0.176690 0.388000 0.416914
Si Si5 0.779831 0.869271 0.797108
O O1 0.066393 0.320969 0.085341
O O2 0.089462 0.599198 0.088502
O O3 0.956759 0.460677 0.112996
O O4 0.000000 0.500000 0.000000
O O5 0.500000 0.750000 0.681851
O O6 0.647416 0.686655 0.669293
O O7 0.299626 0.473474 0.959737
O O8 0.204263 0.257039 0.953431
O O9 0.219777 0.402049 0.350895
O O10 0.750000 0.750000 0.750000
O O11 0.798565 0.000000 0.750000
#
# Coordination Sequence:
#
# PCOD9532689 Si02
#       5
#    16  16   8  16  16
#     4   9  20  37  64  91 139 174 208 277 347 411
#     4   8  22  41  62  95 136 166 234 265 341 404
#     4  10  24  34  70  92 140 156 224 280 338 402
#     4  11  23  41  64 103 129 178 223 273 348 398
#     4  12  25  47  72  97 137 186 239 287 325 407
#
# _framework density 20.299019999999999
#
# number of rings (size 3 to 8) (size 9 to 14) (size 15 to 20)
#    1.333    0.444    0.000    4.000   12.444    0.000 
#    4.000    0.000    0.000    0.000    0.000    0.000 
#    0.000    0.000    0.000    0.000    0.000    0.000 
#
# Total GULP energy -200497.628875 kJ/mol
# GULP energy per Si atom -5569.378580 kJ/mol
# Density = 2.025282 g / cm^3
# Si number density = 20.299020 Si / 1000 Ang^3
#
#
#
# Elastic Constant Matrix: (Units=GPa)
#
#
# Indices 1 2 3 4 5 6 
#
# 1 132.5381 14.5406 60.5052 0.0000 0.0000 0.0000
# 2 14.5406 71.9243 23.7607 0.0000 0.0000 0.0000
# 3 60.5052 23.7607 101.3581 0.0000 0.0000 0.0000
# 4 0.0000 0.0000 0.0000 39.2249 0.0000 0.0000
# 5 0.0000 0.0000 0.0000 0.0000 30.8771 0.0000
# 6 0.0000 0.0000 0.0000 0.0000 0.0000 10.6602
#
#
#
# Elastic Compliance Matrix: (Units=1/GPa)
#
#
# Indices 1 2 3 4 5 6 
#
# 1 0.010372 -0.000056 -0.006178 0.000000 0.000000 0.000000
# 2 -0.000056 0.015071 -0.003500 0.000000 0.000000 0.000000
# 3 -0.006178 -0.003500 0.014374 0.000000 0.000000 0.000000
# 4 0.000000 0.000000 0.000000 0.025494 0.000000 0.000000
# 5 0.000000 0.000000 0.000000 0.000000 0.032386 0.000000
# 6 0.000000 0.000000 0.000000 0.000000 0.000000 0.093807
#
#
# Mechanical properties :
#
#
# Convention : Reuss Voigt Hill
#
# Bulk Modulus (GPa) = 49.14086 55.93706 52.53896
# Shear Modulus (GPa) = 22.96165 29.95338 26.45751
#
# Velocity S-wave (km/s) = 3.36694 3.84553 3.61416
# Velocity P-wave (km/s) = 6.27503 6.87996 6.58445
#
# Compressibility (1/GPa) = 0.02034966
#
# Stress axis : x y z
#
# Youngs Moduli (GPa) = 96.41790 66.35295 69.56801
#
# Poissons Ratio (x) = 0.00370 0.42980
# Poissons Ratio (y) = 0.00538 0.24347
# Poissons Ratio (z) = 0.59568 0.23221
#
# Static dielectric constant tensor:
#      x y z
#    x 1.733670 0.000000 0.000000 
#    y 0.000000 1.738870 0.000000 
#    z 0.000000 0.000000 1.711790 
# 
# From -- ./inp_files/29729.got.cif
#   From: 2010.05.17/outbox.cif.g08.bks.cpg/sg73_15_cif.got.tgz:29729.got - 2010.06.03 17:35:07.
