data_PCOD9532944
_publ_section_title
;
Structure prediction by ZEFSAII (Michael W. Deem and Ramdas Pophale) SiO2 
 PCOD9532944
Probable space group: I B C A 
;
_chemical_formula_sum "Si O2"
_cell_formula_units_Z 72
_cell_length_a 15.471919
_cell_length_b 8.791582
_cell_length_c 21.951440
_cell_angle_alpha 90.000000
_cell_angle_beta 90.000000
_cell_angle_gamma 90.000000
_cell_volume 2985.892921
_symmetry_space_group_name_H-M "I B C A "
_symmetry_group_IT_number 73
_symmetry_cell_setting 'orthorhombic'
loop_
_space_group_symop_operation_xyz
x,y,z
-x,1/2-y,z
x,-y,1/2-z
1/2-x,y,-z
-x,-y,-z
x,1/2+y,-z
-x,y,1/2+z
1/2+x,-y,z
1/2+x,1/2+y,1/2+z
1/2-x,-y,1/2+z
1/2+x,1/2-y,-z
-x,1/2+y,1/2-z
1/2-x,1/2-y,1/2-z
1/2+x,y,1/2-z
1/2-x,1/2+y,z
x,1/2-y,1/2+z
loop_
_atom_site_type_symbol
_atom_site_label
_atom_site_fract_x
_atom_site_fract_y
_atom_site_fract_z
Si Si1 0.686322 0.417506 0.874283
Si Si2 0.725351 0.500000 0.250000
Si Si3 0.415196 0.154938 0.320769
Si Si4 0.081675 0.101605 0.472068
Si Si5 0.126081 0.071336 0.921988
O O1 0.713964 0.481414 0.808263
O O2 0.631976 0.267182 0.866212
O O3 0.625153 0.523606 0.913979
O O4 0.778519 0.380800 0.902781
O O5 0.654870 0.370115 0.267191
O O6 0.500000 0.250000 0.301273
O O7 0.423398 0.000199 0.362164
O O8 0.083652 0.278776 0.452931
O O9 0.141432 0.063951 0.529652
O O10 0.000000 0.000000 0.500000
#
# Coordination Sequence:
#
# PCOD9532944 Si02
#       5
#    16   8  16  16  16
#     4  11  24  46  74 106 147 198 247 297 363 447
#     4  10  24  46  76 106 142 196 250 296 364 440
#     4  11  24  45  72 107 146 188 243 306 366 430
#     4  12  25  43  70 105 146 191 244 309 373 436
#     4  11  24  44  68 102 144 192 242 298 368 444
#
# _framework density 24.113388
#
# number of rings (size 3 to 8) (size 9 to 14) (size 15 to 20)
#    0.000    0.889    0.000    7.333    0.000    4.444 
#    0.000    8.889    0.000    0.000    0.000    0.000 
#    0.000    0.000    0.000    0.000    0.000    0.000 
#
# Total GULP energy -200554.000226 kJ/mol
# GULP energy per Si atom -5570.944451 kJ/mol
# Density = 2.405851 g / cm^3
# Si number density = 24.113388 Si / 1000 Ang^3
#
#
#
# Elastic Constant Matrix: (Units=GPa)
#
#
# Indices 1 2 3 4 5 6 
#
# 1 92.3867 47.2748 43.2578 0.0000 0.0000 0.0000
# 2 47.2748 97.4696 42.4218 0.0000 0.0000 0.0000
# 3 43.2578 42.4218 133.4909 0.0000 0.0000 0.0000
# 4 0.0000 0.0000 0.0000 22.0265 0.0000 0.0000
# 5 0.0000 0.0000 0.0000 0.0000 -65.0830 0.0000
# 6 0.0000 0.0000 0.0000 0.0000 0.0000 22.6923
#
#
#
# Elastic Compliance Matrix: (Units=1/GPa)
#
#
# Indices 1 2 3 4 5 6 
#
# 1 0.015388 -0.006143 -0.003034 0.000000 0.000000 0.000000
# 2 -0.006143 0.014359 -0.002572 0.000000 0.000000 0.000000
# 3 -0.003034 -0.002572 0.009292 0.000000 0.000000 0.000000
# 4 0.000000 0.000000 0.000000 0.045400 0.000000 0.000000
# 5 0.000000 0.000000 0.000000 0.000000 -0.015365 0.000000
# 6 0.000000 0.000000 0.000000 0.000000 0.000000 0.044068
#
#
# Mechanical properties :
#
#
# Convention : Reuss Voigt Hill
#
# Bulk Modulus (GPa) = 64.35283 65.47288 64.91285
# Shear Modulus (GPa) = 35.25578 8.62002 21.93790
#
# Velocity S-wave (km/s) = 3.82787 1.89276 3.01953
# Velocity P-wave (km/s) = 6.80311 5.65577 6.25580
#
# Compressibility (1/GPa) = 0.01553933
#
# Stress axis : x y z
#
# Youngs Moduli (GPa) = 64.98473 69.64452 107.62042
#
# Poissons Ratio (x) = 0.42782 0.32656
# Poissons Ratio (y) = 0.39920 0.27684
# Poissons Ratio (z) = 0.19719 0.17915
#
# Static dielectric constant tensor:
#      x y z
#    x 1.990110 0.000000 0.000000 
#    y 0.000000 2.129150 0.000000 
#    z 0.000000 0.000000 2.115730 
# 
# From -- ./inp_files/29730.got.cif
#   From: 2010.05.17/outbox.cif.g08.bks.cpg/sg73_15_cif.got.tgz:29730.got - 2010.06.03 17:35:07.
