data_PCOD9532144
_publ_section_title
;
Structure prediction by ZEFSAII (Michael W. Deem and Ramdas Pophale) SiO2 
 PCOD9532144
Probable space group: I B C A 
;
_chemical_formula_sum "Si O2"
_cell_formula_units_Z 96
_cell_length_a 7.914189
_cell_length_b 25.059698
_cell_length_c 18.573723
_cell_angle_alpha 90.000000
_cell_angle_beta 90.000000
_cell_angle_gamma 90.000000
_cell_volume 3683.674221
_symmetry_space_group_name_H-M "I B C A "
_symmetry_group_IT_number 73
_symmetry_cell_setting 'orthorhombic'
loop_
_space_group_symop_operation_xyz
x,y,z
-x,1/2-y,z
x,-y,1/2-z
1/2-x,y,-z
-x,-y,-z
x,1/2+y,-z
-x,y,1/2+z
1/2+x,-y,z
1/2+x,1/2+y,1/2+z
1/2-x,-y,1/2+z
1/2+x,1/2-y,-z
-x,1/2+y,1/2-z
1/2-x,1/2-y,1/2-z
1/2+x,y,1/2-z
1/2-x,1/2+y,z
x,1/2-y,1/2+z
loop_
_atom_site_type_symbol
_atom_site_label
_atom_site_fract_x
_atom_site_fract_y
_atom_site_fract_z
Si Si1 0.500000 0.250000 0.933842
Si Si2 0.537549 0.133788 0.438430
Si Si3 0.750000 0.555139 0.000000
Si Si4 0.184279 0.122034 0.696511
Si Si5 0.216517 0.916084 0.653028
Si Si6 0.313237 0.269399 0.171265
Si Si7 0.626302 0.480468 0.645205
O O1 0.484304 0.192481 0.972123
O O2 0.330176 0.252287 0.885452
O O3 0.405059 0.093052 0.474384
O O4 0.473208 0.137541 0.353870
O O5 0.724540 0.112237 0.420420
O O6 0.816899 0.517980 0.062783
O O7 0.172448 0.123523 0.782174
O O8 0.317122 0.166403 0.672263
O O9 0.248524 0.063025 0.679099
O O10 0.055978 0.954369 0.646522
O O11 0.360294 0.960002 0.674880
O O12 0.500000 0.250000 0.155654
O O13 0.250000 0.250000 0.250000
#
# Coordination Sequence:
#
# PCOD9532144 Si02
#       7
#     8  16   8  16  16  16  16
#     4  10  22  42  66 100 134 176 230 276 336 396
#     4  10  23  43  70  94 137 175 221 287 331 412
#     4  10  24  50  66  92 126 172 234 280 336 396
#     4  10  23  40  62  98 138 169 216 272 335 406
#     4  12  24  40  65  98 128 172 218 272 348 407
#     4  11  22  35  61  96 137 187 216 267 329 411
#     4  11  25  41  67  92 130 175 219 279 332 402
#
# _framework density 26.060936000000002
#
# number of rings (size 3 to 8) (size 9 to 14) (size 15 to 20)
#    0.000    1.333    0.833    4.500    7.000    4.667 
#    0.000    1.667    3.667    0.000    0.000    0.000 
#    0.000    0.000    0.000    0.000    0.000    0.000 
#
# Total GULP energy -268801.537596 kJ/mol
# GULP energy per Si atom -5600.032033 kJ/mol
# Density = 2.600162 g / cm^3
# Si number density = 26.060936 Si / 1000 Ang^3
#
#
#
# Elastic Constant Matrix: (Units=GPa)
#
#
# Indices 1 2 3 4 5 6 
#
# 1 116.5052 -1.7654 0.9595 0.0000 0.0000 0.0000
# 2 -1.7654 110.2480 -11.3124 0.0000 0.0000 0.0000
# 3 0.9595 -11.3124 65.5258 0.0000 0.0000 0.0000
# 4 0.0000 0.0000 0.0000 24.7699 0.0000 0.0000
# 5 0.0000 0.0000 0.0000 0.0000 6.7188 0.0000
# 6 0.0000 0.0000 0.0000 0.0000 0.0000 42.5904
#
#
#
# Elastic Compliance Matrix: (Units=1/GPa)
#
#
# Indices 1 2 3 4 5 6 
#
# 1 0.008586 0.000127 -0.000104 0.000000 0.000000 0.000000
# 2 0.000127 0.009236 0.001593 0.000000 0.000000 0.000000
# 3 -0.000104 0.001593 0.015538 0.000000 0.000000 0.000000
# 4 0.000000 0.000000 0.000000 0.040372 0.000000 0.000000
# 5 0.000000 0.000000 0.000000 0.000000 0.148837 0.000000
# 6 0.000000 0.000000 0.000000 0.000000 0.000000 0.023479
#
#
# Mechanical properties :
#
#
# Convention : Reuss Voigt Hill
#
# Bulk Modulus (GPa) = 27.32921 29.78251 28.55586
# Shear Modulus (GPa) = 19.60685 35.10896 27.35791
#
# Velocity S-wave (km/s) = 2.74587 3.67439 3.24353
# Velocity P-wave (km/s) = 4.53459 5.42718 5.00084
#
# Compressibility (1/GPa) = 0.03659089
#
# Stress axis : x y z
#
# Youngs Moduli (GPa) = 116.46752 108.27306 64.35987
#
# Poissons Ratio (x) = -0.01373 0.00668
# Poissons Ratio (y) = -0.01477 -0.10250
# Poissons Ratio (z) = 0.01209 -0.17244
#
# Static dielectric constant tensor:
#      x y z
#    x 2.130590 0.000000 0.000000 
#    y 0.000000 2.026210 0.000000 
#    z 0.000000 0.000000 2.085830 
# 
# From -- ./inp_files/24916.got.cif
#   From: 2010.05.17/outbox.cif.g08.bks.cpg/sg73_13_cif.got.tgz:24916.got - 2010.06.03 17:35:07.
