data_PCOD9532525
_publ_section_title
;
Structure prediction by ZEFSAII (Michael W. Deem and Ramdas Pophale) SiO2 
 PCOD9532525
Probable space group: I B C A 
;
_chemical_formula_sum "Si O2"
_cell_formula_units_Z 96
_cell_length_a 23.146234
_cell_length_b 13.781781
_cell_length_c 13.699886
_cell_angle_alpha 90.000000
_cell_angle_beta 90.000000
_cell_angle_gamma 90.000000
_cell_volume 4370.213328
_symmetry_space_group_name_H-M "I B C A "
_symmetry_group_IT_number 73
_symmetry_cell_setting 'orthorhombic'
loop_
_space_group_symop_operation_xyz
x,y,z
-x,1/2-y,z
x,-y,1/2-z
1/2-x,y,-z
-x,-y,-z
x,1/2+y,-z
-x,y,1/2+z
1/2+x,-y,z
1/2+x,1/2+y,1/2+z
1/2-x,-y,1/2+z
1/2+x,1/2-y,-z
-x,1/2+y,1/2-z
1/2-x,1/2-y,1/2-z
1/2+x,y,1/2-z
1/2-x,1/2+y,z
x,1/2-y,1/2+z
loop_
_atom_site_type_symbol
_atom_site_label
_atom_site_fract_x
_atom_site_fract_y
_atom_site_fract_z
Si Si1 0.317804 0.277731 0.756524
Si Si2 0.430133 0.375926 0.997751
Si Si3 0.995393 0.497498 0.137515
Si Si4 0.692707 0.589810 0.055407
Si Si5 0.905423 0.677925 0.390751
Si Si6 0.690157 0.864773 0.950015
O O1 0.250000 0.250000 0.750000
O O2 0.318918 0.357043 0.842910
O O3 0.367079 0.203986 0.795098
O O4 0.330232 0.312400 0.647711
O O5 0.450126 0.462291 0.925112
O O6 0.362064 0.389570 0.013817
O O7 0.435005 0.273682 0.940003
O O8 0.468343 0.403358 0.092552
O O9 0.010918 0.500000 0.250000
O O10 0.949289 0.409740 0.126090
O O11 0.699485 0.476695 0.075906
O O12 0.750000 0.622362 0.000000
O O13 0.858497 0.644702 0.469251
O O14 0.750000 0.830628 0.000000
#
# Coordination Sequence:
#
# PCOD9532525 Si02
#       6
#    16  16  16  16  16  16
#     4  11  24  37  63  97 137 177 226 280 348 416
#     4  10  24  46  67  99 138 174 223 290 335 413
#     4  11  25  47  71 100 137 181 234 285 344 408
#     4  10  23  42  68  95 131 177 221 280 346 410
#     4  11  24  43  69 101 134 179 240 278 349 411
#     4  11  22  42  61  95 141 180 222 285 346 413
#
# _framework density 21.966889999999999
#
# number of rings (size 3 to 8) (size 9 to 14) (size 15 to 20)
#    0.000    1.333    3.333    1.000    7.000    2.667 
#    0.000    3.333    0.000    0.000    0.000    0.000 
#    0.000    0.000    0.000    0.000    0.000    0.000 
#
# Total GULP energy -268203.718161 kJ/mol
# GULP energy per Si atom -5587.577462 kJ/mol
# Density = 2.191689 g / cm^3
# Si number density = 21.966890 Si / 1000 Ang^3
#
#
#
# Elastic Constant Matrix: (Units=GPa)
#
#
# Indices 1 2 3 4 5 6 
#
# 1 81.0727 1.3582 -16.6819 0.0000 0.0000 0.0000
# 2 1.3582 70.1381 -8.8977 0.0000 0.0000 0.0000
# 3 -16.6819 -8.8977 82.4588 0.0000 0.0000 0.0000
# 4 0.0000 0.0000 0.0000 8.8563 0.0000 0.0000
# 5 0.0000 0.0000 0.0000 0.0000 30.4393 0.0000
# 6 0.0000 0.0000 0.0000 0.0000 0.0000 22.1155
#
#
#
# Elastic Compliance Matrix: (Units=1/GPa)
#
#
# Indices 1 2 3 4 5 6 
#
# 1 0.012871 0.000082 0.002613 0.000000 0.000000 0.000000
# 2 0.000082 0.014456 0.001577 0.000000 0.000000 0.000000
# 3 0.002613 0.001577 0.012826 0.000000 0.000000 0.000000
# 4 0.000000 0.000000 0.000000 0.112914 0.000000 0.000000
# 5 0.000000 0.000000 0.000000 0.000000 0.032852 0.000000
# 6 0.000000 0.000000 0.000000 0.000000 0.000000 0.045217
#
#
# Mechanical properties :
#
#
# Convention : Reuss Voigt Hill
#
# Bulk Modulus (GPa) = 20.53571 20.58074 20.55823
# Shear Modulus (GPa) = 20.93581 29.47496 25.20538
#
# Velocity S-wave (km/s) = 3.09052 3.66702 3.39104
# Velocity P-wave (km/s) = 4.70147 5.22673 4.97104
#
# Compressibility (1/GPa) = 0.04869566
#
# Stress axis : x y z
#
# Youngs Moduli (GPa) = 77.69498 69.17545 77.96691
#
# Poissons Ratio (x) = -0.00569 -0.20371
# Poissons Ratio (y) = -0.00639 -0.12292
# Poissons Ratio (z) = -0.20300 -0.10906
#
# Static dielectric constant tensor:
#      x y z
#    x 1.871460 0.000000 0.000000 
#    y 0.000000 1.851600 0.000000 
#    z 0.000000 0.000000 1.737610 
# 
# From -- ./inp_files/13618.got.cif
#   From: 2010.05.17/outbox.cif.g08.bks.cpg/sg73_7_cif.got.tgz:13618.got - 2010.06.03 17:35:07.
