data_PCOD9532339
_publ_section_title
;
Structure prediction by ZEFSAII (Michael W. Deem and Ramdas Pophale) SiO2 
 PCOD9532339
Probable space group: I B C A 
;
_chemical_formula_sum "Si O2"
_cell_formula_units_Z 104
_cell_length_a 19.665505
_cell_length_b 17.986260
_cell_length_c 14.445124
_cell_angle_alpha 90.000000
_cell_angle_beta 90.000000
_cell_angle_gamma 90.000000
_cell_volume 5109.368718
_symmetry_space_group_name_H-M "I B C A "
_symmetry_group_IT_number 73
_symmetry_cell_setting 'orthorhombic'
loop_
_space_group_symop_operation_xyz
x,y,z
-x,1/2-y,z
x,-y,1/2-z
1/2-x,y,-z
-x,-y,-z
x,1/2+y,-z
-x,y,1/2+z
1/2+x,-y,z
1/2+x,1/2+y,1/2+z
1/2-x,-y,1/2+z
1/2+x,1/2-y,-z
-x,1/2+y,1/2-z
1/2-x,1/2-y,1/2-z
1/2+x,y,1/2-z
1/2-x,1/2+y,z
x,1/2-y,1/2+z
loop_
_atom_site_type_symbol
_atom_site_label
_atom_site_fract_x
_atom_site_fract_y
_atom_site_fract_z
Si Si1 0.488578 0.337166 0.584876
Si Si2 0.048922 0.413139 0.221458
Si Si3 0.621195 0.921863 0.412061
Si Si4 0.183119 0.178170 0.690115
Si Si5 0.675226 0.345763 0.769438
Si Si6 0.250000 0.149329 0.500000
Si Si7 0.080291 0.407739 0.584241
O O1 0.500000 0.250000 0.587562
O O2 0.470611 0.369067 0.685328
O O3 0.559725 0.372006 0.552938
O O4 0.434096 0.366081 0.511224
O O5 0.055795 0.500000 0.250000
O O6 0.119142 0.376897 0.184950
O O7 0.987308 0.403231 0.148649
O O8 0.636169 0.895162 0.307026
O O9 0.689624 0.902251 0.464336
O O10 0.597809 0.005737 0.424305
O O11 0.244516 0.144753 0.751821
O O12 0.162275 0.256950 0.735675
O O13 0.218661 0.191807 0.589305
O O14 0.644372 0.371068 0.865588
#
# Coordination Sequence:
#
# PCOD9532339 Si02
#       7
#    16  16  16  16  16   8  16
#     4  12  27  42  69 105 139 177 232 289 351 422
#     4  12  25  44  71 102 136 181 229 294 344 421
#     4  11  22  46  67  97 138 179 228 284 349 411
#     4  10  24  43  68  99 137 179 235 282 348 417
#     4  10  22  45  66  94 132 186 221 281 347 411
#     4  10  24  40  74  94 140 184 230 288 346 414
#     4  12  25  43  71 101 139 181 227 283 351 416
#
# _framework density 20.354765
#
# number of rings (size 3 to 8) (size 9 to 14) (size 15 to 20)
#    0.000    0.923    3.077    2.769    6.462    2.462 
#    0.000    0.000    0.000    0.000    0.000    0.000 
#    0.000    0.000    0.000    0.000    0.000    0.000 
#
# Total GULP energy -290605.936449 kJ/mol
# GULP energy per Si atom -5588.575701 kJ/mol
# Density = 2.030844 g / cm^3
# Si number density = 20.354765 Si / 1000 Ang^3
#
#
#
# Elastic Constant Matrix: (Units=GPa)
#
#
# Indices 1 2 3 4 5 6 
#
# 1 56.4912 13.4287 2.3383 0.0000 0.0000 0.0000
# 2 13.4287 121.6826 15.8634 0.0000 0.0000 0.0000
# 3 2.3383 15.8634 66.0720 0.0000 0.0000 0.0000
# 4 0.0000 0.0000 0.0000 34.1509 0.0000 0.0000
# 5 0.0000 0.0000 0.0000 0.0000 22.3585 0.0000
# 6 0.0000 0.0000 0.0000 0.0000 0.0000 -73.3851
#
#
#
# Elastic Compliance Matrix: (Units=1/GPa)
#
#
# Indices 1 2 3 4 5 6 
#
# 1 0.018181 -0.001985 -0.000167 0.000000 0.000000 0.000000
# 2 -0.001985 0.008700 -0.002019 0.000000 0.000000 0.000000
# 3 -0.000167 -0.002019 0.015626 0.000000 0.000000 0.000000
# 4 0.000000 0.000000 0.000000 0.029282 0.000000 0.000000
# 5 0.000000 0.000000 0.000000 0.000000 0.044726 0.000000
# 6 0.000000 0.000000 0.000000 0.000000 0.000000 -0.013627
#
#
# Mechanical properties :
#
#
# Convention : Reuss Voigt Hill
#
# Bulk Modulus (GPa) = 29.26881 34.16739 31.71810
# Shear Modulus (GPa) = 40.77766 10.79924 25.78845
#
# Velocity S-wave (km/s) = 4.48073 2.30587 3.56328
# Velocity P-wave (km/s) = 6.41715 4.88996 5.70489
#
# Compressibility (1/GPa) = 0.03416606
#
# Stress axis : x y z
#
# Youngs Moduli (GPa) = 55.00386 114.93884 63.99769
#
# Poissons Ratio (x) = 0.22811 0.01068
# Poissons Ratio (y) = 0.10916 0.12919
# Poissons Ratio (z) = 0.00918 0.23202
#
# Static dielectric constant tensor:
#      x y z
#    x 1.708310 0.000000 0.000000 
#    y 0.000000 92.852070 0.000000 
#    z 0.000000 0.000000 1.760270 
# 
# From -- ./inp_files/18797.got.cif
#   From: 2010.05.17/outbox.cif.g08.bks.cpg/sg73_10_cif.got.tgz:18797.got - 2010.06.03 17:35:07.
