data_PCOD9532672
_publ_section_title
;
Structure prediction by ZEFSAII (Michael W. Deem and Ramdas Pophale) SiO2 
 PCOD9532672
Probable space group: I B C A 
;
_chemical_formula_sum "Si O2"
_cell_formula_units_Z 56
_cell_length_a 10.025682
_cell_length_b 13.090223
_cell_length_c 16.357924
_cell_angle_alpha 90.000000
_cell_angle_beta 90.000000
_cell_angle_gamma 90.000000
_cell_volume 2146.787987
_symmetry_space_group_name_H-M "I B C A "
_symmetry_group_IT_number 73
_symmetry_cell_setting 'orthorhombic'
loop_
_space_group_symop_operation_xyz
x,y,z
-x,1/2-y,z
x,-y,1/2-z
1/2-x,y,-z
-x,-y,-z
x,1/2+y,-z
-x,y,1/2+z
1/2+x,-y,z
1/2+x,1/2+y,1/2+z
1/2-x,-y,1/2+z
1/2+x,1/2-y,-z
-x,1/2+y,1/2-z
1/2-x,1/2-y,1/2-z
1/2+x,y,1/2-z
1/2-x,1/2+y,z
x,1/2-y,1/2+z
loop_
_atom_site_type_symbol
_atom_site_label
_atom_site_fract_x
_atom_site_fract_y
_atom_site_fract_z
Si Si1 0.250000 0.822651 0.000000
Si Si2 0.660114 0.817419 0.132391
Si Si3 0.358556 0.449646 0.148913
Si Si4 0.615107 0.135206 0.743177
O O1 0.154760 0.747399 0.949133
O O2 0.332491 0.890807 0.935623
O O3 0.619566 0.738490 0.203398
O O4 0.811634 0.840150 0.158074
O O5 0.603502 0.932106 0.129590
O O6 0.217128 0.430449 0.197618
O O7 0.474818 0.406544 0.208054
#
# Coordination Sequence:
#
# PCOD9532672 Si02
#       4
#     8  16  16  16
#     4  10  24  46  74 112 156 208 260 308 386 474
#     4  10  23  47  77 112 158 203 250 325 384 450
#     4  11  24  48  78 115 154 203 258 319 386 457
#     4  10  25  45  75 114 152 199 263 312 381 467
#
# _framework density 26.085481999999999
#
# number of rings (size 3 to 8) (size 9 to 14) (size 15 to 20)
#    0.000    1.714    0.000    1.714    0.000   19.429 
#    0.000   20.000    0.000    0.000    0.000    8.000 
#    0.000    0.000    0.000    0.000    0.000    0.000 
#
# Total GULP energy -156200.209902 kJ/mol
# GULP energy per Si atom -5578.578925 kJ/mol
# Density = 2.602611 g / cm^3
# Si number density = 26.085482 Si / 1000 Ang^3
#
#
#
# Elastic Constant Matrix: (Units=GPa)
#
#
# Indices 1 2 3 4 5 6 
#
# 1 133.3885 59.6422 61.8985 0.0000 0.0000 0.0000
# 2 59.6422 271.9984 106.0409 0.0000 0.0000 0.0000
# 3 61.8985 106.0409 193.8572 0.0000 0.0000 0.0000
# 4 0.0000 0.0000 0.0000 67.2495 0.0000 0.0000
# 5 0.0000 0.0000 0.0000 0.0000 -27.3760 0.0000
# 6 0.0000 0.0000 0.0000 0.0000 0.0000 8.0256
#
#
#
# Elastic Compliance Matrix: (Units=1/GPa)
#
#
# Indices 1 2 3 4 5 6 
#
# 1 0.009048 -0.001090 -0.002293 0.000000 0.000000 0.000000
# 2 -0.001090 0.004804 -0.002280 0.000000 0.000000 0.000000
# 3 -0.002293 -0.002280 0.007138 0.000000 0.000000 0.000000
# 4 0.000000 0.000000 0.000000 0.014870 0.000000 0.000000
# 5 0.000000 0.000000 0.000000 0.000000 -0.036528 0.000000
# 6 0.000000 0.000000 0.000000 0.000000 0.000000 0.124601
#
#
# Mechanical properties :
#
#
# Convention : Reuss Voigt Hill
#
# Bulk Modulus (GPa) = 103.47095 117.15638 110.31367
# Shear Modulus (GPa) = 36.10621 34.35732 35.23177
#
# Velocity S-wave (km/s) = 3.72445 3.63313 3.67908
# Velocity P-wave (km/s) = 7.63201 7.91262 7.77358
#
# Compressibility (1/GPa) = 0.00966455
#
# Stress axis : x y z
#
# Youngs Moduli (GPa) = 110.51782 208.14278 140.10214
#
# Poissons Ratio (x) = 0.22692 0.32122
# Poissons Ratio (y) = 0.12049 0.31942
# Poissons Ratio (z) = 0.25339 0.47455
#
# Static dielectric constant tensor:
#      x y z
#    x 2.243290 0.000000 0.000000 
#    y 0.000000 2.233070 0.000000 
#    z 0.000000 0.000000 2.046890 
# 
# From -- ./inp_files/21017.got.cif
#   From: 2010.05.17/outbox.cif.g08.bks.cpg/sg73_11_cif.got.tgz:21017.got - 2010.06.03 17:35:07.
