data_PCOD9532400
_publ_section_title
;
Structure prediction by ZEFSAII (Michael W. Deem and Ramdas Pophale) SiO2 
 PCOD9532400
Probable space group: I B C A 
;
_chemical_formula_sum "Si O2"
_cell_formula_units_Z 120
_cell_length_a 10.941962
_cell_length_b 18.369353
_cell_length_c 27.159512
_cell_angle_alpha 90.000000
_cell_angle_beta 90.000000
_cell_angle_gamma 90.000000
_cell_volume 5458.973983
_symmetry_space_group_name_H-M "I B C A "
_symmetry_group_IT_number 73
_symmetry_cell_setting 'orthorhombic'
loop_
_space_group_symop_operation_xyz
x,y,z
-x,1/2-y,z
x,-y,1/2-z
1/2-x,y,-z
-x,-y,-z
x,1/2+y,-z
-x,y,1/2+z
1/2+x,-y,z
1/2+x,1/2+y,1/2+z
1/2-x,-y,1/2+z
1/2+x,1/2-y,-z
-x,1/2+y,1/2-z
1/2-x,1/2-y,1/2-z
1/2+x,y,1/2-z
1/2-x,1/2+y,z
x,1/2-y,1/2+z
loop_
_atom_site_type_symbol
_atom_site_label
_atom_site_fract_x
_atom_site_fract_y
_atom_site_fract_z
Si Si1 0.883258 0.802645 0.794441
Si Si2 0.750000 0.735763 0.000000
Si Si3 0.111738 0.564317 0.860870
Si Si4 0.373882 0.508999 0.885846
Si Si5 0.487999 0.072105 0.530646
Si Si6 0.951418 0.824751 0.948304
Si Si7 0.862212 0.219873 0.820792
Si Si8 0.774168 0.375280 0.410614
O O1 0.910725 0.880928 0.816323
O O2 0.867318 0.806656 0.735603
O O3 0.755471 0.774640 0.819063
O O4 0.000000 0.750000 0.803622
O O5 0.643334 0.790319 0.013683
O O6 0.763414 0.688968 0.049744
O O7 0.250373 0.534243 0.859054
O O8 0.098530 0.616196 0.909755
O O9 0.004227 0.503773 0.859558
O O10 0.400622 0.565876 0.930430
O O11 0.342736 0.425560 0.901930
O O12 0.469084 0.133975 0.489777
O O13 0.368532 0.070446 0.563709
O O14 0.500000 0.000000 0.500000
O O15 0.000000 0.750000 0.922732
O O16 0.825989 0.159452 0.860814
O O17 0.000000 0.250000 0.832411
#
# Coordination Sequence:
#
# PCOD9532400 Si02
#       8
#    16   8  16  16  16  16  16  16
#     4  10  22  47  72 105 139 182 227 293 377 436
#     4  12  24  36  64 100 136 174 222 294 348 398
#     4  12  25  43  71  95 142 177 243 282 357 418
#     4  12  25  45  66  98 129 196 228 282 345 435
#     4  12  24  44  64  91 143 187 230 277 347 424
#     4  12  23  40  62  99 132 178 234 291 345 415
#     4  10  24  42  76 107 139 179 229 297 368 422
#     4  12  24  42  68  99 144 174 236 287 354 413
#
# _framework density 21.982151999999999
#
# number of rings (size 3 to 8) (size 9 to 14) (size 15 to 20)
#    0.000    0.533    4.000    4.400    3.733    1.067 
#    0.000    0.667    2.933    0.000    0.000    0.000 
#    0.000    0.000    0.000    0.000    0.000    0.000 
#
# Total GULP energy -334626.688667 kJ/mol
# GULP energy per Si atom -5577.111478 kJ/mol
# Density = 2.193212 g / cm^3
# Si number density = 21.982152 Si / 1000 Ang^3
#
#
#
# Elastic Constant Matrix: (Units=GPa)
#
#
# Indices 1 2 3 4 5 6 
#
# 1 125.7768 29.5934 26.6662 0.0000 0.0000 0.0000
# 2 29.5934 58.9185 23.3310 0.0000 0.0000 0.0000
# 3 26.6662 23.3310 59.6472 0.0000 0.0000 0.0000
# 4 0.0000 0.0000 0.0000 34.9231 0.0000 0.0000
# 5 0.0000 0.0000 0.0000 0.0000 18.7228 0.0000
# 6 0.0000 0.0000 0.0000 0.0000 0.0000 34.9308
#
#
#
# Elastic Compliance Matrix: (Units=1/GPa)
#
#
# Indices 1 2 3 4 5 6 
#
# 1 0.009391 -0.003614 -0.002785 0.000000 0.000000 0.000000
# 2 -0.003614 0.021474 -0.006784 0.000000 0.000000 0.000000
# 3 -0.002785 -0.006784 0.020664 0.000000 0.000000 0.000000
# 4 0.000000 0.000000 0.000000 0.028634 0.000000 0.000000
# 5 0.000000 0.000000 0.000000 0.000000 0.053411 0.000000
# 6 0.000000 0.000000 0.000000 0.000000 0.000000 0.028628
#
#
# Mechanical properties :
#
#
# Convention : Reuss Voigt Hill
#
# Bulk Modulus (GPa) = 39.74017 44.83598 42.28808
# Shear Modulus (GPa) = 25.38630 28.69877 27.04254
#
# Velocity S-wave (km/s) = 3.40201 3.61716 3.51123
# Velocity P-wave (km/s) = 5.79217 6.15515 5.97642
#
# Compressibility (1/GPa) = 0.02516345
#
# Stress axis : x y z
#
# Youngs Moduli (GPa) = 106.48028 46.56727 48.39398
#
# Poissons Ratio (x) = 0.16831 0.13477
# Poissons Ratio (y) = 0.38486 0.32830
# Poissons Ratio (z) = 0.29653 0.31591
#
# Static dielectric constant tensor:
#      x y z
#    x 1.887810 0.000000 0.000000 
#    y 0.000000 1.949080 0.000000 
#    z 0.000000 0.000000 1.786620 
# 
# From -- ./inp_files/31832.got.cif
#   From: 2010.05.17/outbox.cif.g08.bks.cpg/sg73_16_cif.got.tgz:31832.got - 2010.06.03 17:35:07.
