data_PCOD9532982
_publ_section_title
;
Structure prediction by ZEFSAII (Michael W. Deem and Ramdas Pophale) SiO2 
 PCOD9532982
Probable space group: I B C A 
;
_chemical_formula_sum "Si O2"
_cell_formula_units_Z 120
_cell_length_a 8.505151
_cell_length_b 23.114048
_cell_length_c 25.438387
_cell_angle_alpha 90.000000
_cell_angle_beta 90.000000
_cell_angle_gamma 90.000000
_cell_volume 5000.893540
_symmetry_space_group_name_H-M "I B C A "
_symmetry_group_IT_number 73
_symmetry_cell_setting 'orthorhombic'
loop_
_space_group_symop_operation_xyz
x,y,z
-x,1/2-y,z
x,-y,1/2-z
1/2-x,y,-z
-x,-y,-z
x,1/2+y,-z
-x,y,1/2+z
1/2+x,-y,z
1/2+x,1/2+y,1/2+z
1/2-x,-y,1/2+z
1/2+x,1/2-y,-z
-x,1/2+y,1/2-z
1/2-x,1/2-y,1/2-z
1/2+x,y,1/2-z
1/2-x,1/2+y,z
x,1/2-y,1/2+z
loop_
_atom_site_type_symbol
_atom_site_label
_atom_site_fract_x
_atom_site_fract_y
_atom_site_fract_z
Si Si1 0.259732 0.060556 0.721134
Si Si2 0.483329 0.938665 0.879589
Si Si3 0.959564 0.872787 0.796079
Si Si4 0.507863 0.954711 0.048530
Si Si5 0.231277 0.639173 0.557475
Si Si6 0.687724 0.250629 0.128935
Si Si7 0.000000 0.750000 0.298264
Si Si8 0.719629 0.373329 0.898574
O O1 0.368701 0.065125 0.669854
O O2 0.312483 0.108732 0.762217
O O3 0.082813 0.075692 0.707353
O O4 0.273192 0.000000 0.750000
O O5 0.422662 0.897045 0.926650
O O6 0.654487 0.913600 0.868678
O O7 0.486711 0.003129 0.901308
O O8 0.015213 0.812129 0.771685
O O9 0.922922 0.864946 0.857496
O O10 0.360225 0.912139 0.054494
O O11 0.655873 0.911245 0.053065
O O12 0.500000 0.000000 0.000000
O O13 0.250000 0.666347 0.500000
O O14 0.231150 0.691668 0.598394
O O15 0.500000 0.250000 0.144161
O O16 0.711264 0.309128 0.094016
O O17 0.829053 0.254406 0.171803
#
# Coordination Sequence:
#
# PCOD9532982 Si02
#       8
#    16  16  16  16  16  16   8  16
#     4  12  26  45  73 110 151 198 249 308 389 463
#     4  12  25  46  75 105 154 201 247 319 382 463
#     4  11  25  46  72 109 145 191 253 312 382 476
#     4  12  26  46  70 105 151 199 252 313 384 461
#     4  12  25  48  72 107 149 200 256 319 389 454
#     4  11  23  48  78 113 152 200 260 325 397 464
#     4  10  24  48  78 110 150 202 252 320 396 466
#     4  11  25  46  74 109 146 200 253 315 398 456
#
# _framework density 23.995712000000001
#
# number of rings (size 3 to 8) (size 9 to 14) (size 15 to 20)
#    0.000    0.533    2.667    6.000    0.000    3.733 
#    6.000    2.000    0.000    0.000    0.000    0.000 
#    0.000    0.000    0.000    0.000    0.000    0.000 
#
# Total GULP energy -335294.396346 kJ/mol
# GULP energy per Si atom -5588.239939 kJ/mol
# Density = 2.394110 g / cm^3
# Si number density = 23.995712 Si / 1000 Ang^3
#
#
#
# Elastic Constant Matrix: (Units=GPa)
#
#
# Indices 1 2 3 4 5 6 
#
# 1 112.4440 27.8210 20.6737 0.0000 0.0000 0.0000
# 2 27.8210 150.1109 10.8174 0.0000 0.0000 0.0000
# 3 20.6737 10.8174 54.5566 0.0000 0.0000 0.0000
# 4 0.0000 0.0000 0.0000 14.5321 0.0000 0.0000
# 5 0.0000 0.0000 0.0000 0.0000 21.9308 0.0000
# 6 0.0000 0.0000 0.0000 0.0000 0.0000 61.3106
#
#
#
# Elastic Compliance Matrix: (Units=1/GPa)
#
#
# Indices 1 2 3 4 5 6 
#
# 1 0.009920 -0.001590 -0.003444 0.000000 0.000000 0.000000
# 2 -0.001590 0.007013 -0.000788 0.000000 0.000000 0.000000
# 3 -0.003444 -0.000788 0.019791 0.000000 0.000000 0.000000
# 4 0.000000 0.000000 0.000000 0.068813 0.000000 0.000000
# 5 0.000000 0.000000 0.000000 0.000000 0.045598 0.000000
# 6 0.000000 0.000000 0.000000 0.000000 0.000000 0.016310
#
#
# Mechanical properties :
#
#
# Convention : Reuss Voigt Hill
#
# Bulk Modulus (GPa) = 39.87246 48.41506 44.14376
# Shear Modulus (GPa) = 26.67387 36.74134 31.70761
#
# Velocity S-wave (km/s) = 3.33770 3.91725 3.63903
# Velocity P-wave (km/s) = 5.61304 6.37810 6.00776
#
# Compressibility (1/GPa) = 0.02507997
#
# Stress axis : x y z
#
# Youngs Moduli (GPa) = 100.80687 142.58677 50.52859
#
# Poissons Ratio (x) = 0.22676 0.17401
# Poissons Ratio (y) = 0.16032 0.03981
# Poissons Ratio (z) = 0.34715 0.11235
#
# Static dielectric constant tensor:
#      x y z
#    x 1.989170 0.000000 0.000000 
#    y 0.000000 1.920740 0.000000 
#    z 0.000000 0.000000 2.007330 
# 
# From -- ./inp_files/31405.got.cif
#   From: 2010.05.17/outbox.cif.g08.bks.cpg/sg73_16_cif.got.tgz:31405.got - 2010.06.03 17:35:07.
