data_PCOD9532688
_publ_section_title
;
Structure prediction by ZEFSAII (Michael W. Deem and Ramdas Pophale) SiO2 
 PCOD9532688
Probable space group: I B C A 
;
_chemical_formula_sum "Si O2"
_cell_formula_units_Z 64
_cell_length_a 5.114445
_cell_length_b 23.317621
_cell_length_c 26.961671
_cell_angle_alpha 90.000000
_cell_angle_beta 90.000000
_cell_angle_gamma 90.000000
_cell_volume 3215.359644
_symmetry_space_group_name_H-M "I B C A "
_symmetry_group_IT_number 73
_symmetry_cell_setting 'orthorhombic'
loop_
_space_group_symop_operation_xyz
x,y,z
-x,1/2-y,z
x,-y,1/2-z
1/2-x,y,-z
-x,-y,-z
x,1/2+y,-z
-x,y,1/2+z
1/2+x,-y,z
1/2+x,1/2+y,1/2+z
1/2-x,-y,1/2+z
1/2+x,1/2-y,-z
-x,1/2+y,1/2-z
1/2-x,1/2-y,1/2-z
1/2+x,y,1/2-z
1/2-x,1/2+y,z
x,1/2-y,1/2+z
loop_
_atom_site_type_symbol
_atom_site_label
_atom_site_fract_x
_atom_site_fract_y
_atom_site_fract_z
Si Si1 0.380233 0.036963 0.600855
Si Si2 0.500000 0.250000 0.715050
Si Si3 0.750000 0.094351 0.000000
Si Si4 0.956928 0.687363 0.437663
Si Si5 0.952259 0.663374 0.127363
O O1 0.378261 0.056698 0.543187
O O2 0.440333 0.094790 0.630736
O O3 0.596148 0.989063 0.610387
O O4 0.250000 0.250000 0.750000
O O5 0.506860 0.195684 0.678147
O O6 0.538262 0.136201 0.974249
O O7 0.172963 0.683560 0.393936
O O8 0.000000 0.750000 0.461122
O O9 0.674160 0.679468 0.413141
#
# Coordination Sequence:
#
# PCOD9532688 Si02
#       5
#    16   8   8  16  16
#     4  11  23  40  60  84 126 174 216 257 287 348
#     4  12  24  42  74 100 122 146 194 270 332 402
#     4  10  24  34  58  90 122 176 230 256 286 334
#     4  11  21  38  58  85 134 172 204 257 306 370
#     4  11  23  42  63  93 124 162 204 252 328 380
#
# _framework density 19.904461999999999
#
# number of rings (size 3 to 8) (size 9 to 14) (size 15 to 20)
#    0.000    1.000    2.500    5.250    0.000   12.000 
#    0.000    0.000    0.000    4.500    0.000    0.000 
#    0.000    0.000    0.000    0.000    0.000    0.000 
#
# Total GULP energy -179112.500252 kJ/mol
# GULP energy per Si atom -5597.265633 kJ/mol
# Density = 1.985916 g / cm^3
# Si number density = 19.904462 Si / 1000 Ang^3
#
#
#
# Elastic Constant Matrix: (Units=GPa)
#
#
# Indices 1 2 3 4 5 6 
#
# 1 90.9474 9.6741 27.0310 0.0000 0.0000 0.0000
# 2 9.6741 96.2056 24.4612 0.0000 0.0000 0.0000
# 3 27.0310 24.4612 91.3584 0.0000 0.0000 0.0000
# 4 0.0000 0.0000 0.0000 2.2534 0.0000 0.0000
# 5 0.0000 0.0000 0.0000 0.0000 33.5724 0.0000
# 6 0.0000 0.0000 0.0000 0.0000 0.0000 32.6395
#
#
#
# Elastic Compliance Matrix: (Units=1/GPa)
#
#
# Indices 1 2 3 4 5 6 
#
# 1 0.012065 -0.000328 -0.003482 0.000000 0.000000 0.000000
# 2 -0.000328 0.011163 -0.002892 0.000000 0.000000 0.000000
# 3 -0.003482 -0.002892 0.012750 0.000000 0.000000 0.000000
# 4 0.000000 0.000000 0.000000 0.443765 0.000000 0.000000
# 5 0.000000 0.000000 0.000000 0.000000 0.029786 0.000000
# 6 0.000000 0.000000 0.000000 0.000000 0.000000 0.030638
#
#
# Mechanical properties :
#
#
# Convention : Reuss Voigt Hill
#
# Bulk Modulus (GPa) = 44.29713 44.53823 44.41768
# Shear Modulus (GPa) = 8.91113 28.18274 18.54694
#
# Velocity S-wave (km/s) = 2.11818 3.76693 3.05585
# Velocity P-wave (km/s) = 5.31840 6.42995 5.90041
#
# Compressibility (1/GPa) = 0.02257483
#
# Stress axis : x y z
#
# Youngs Moduli (GPa) = 82.88325 89.58453 78.42873
#
# Poissons Ratio (x) = 0.02937 0.27309
# Poissons Ratio (y) = 0.02718 0.22680
# Poissons Ratio (z) = 0.28860 0.25906
#
# Static dielectric constant tensor:
#      x y z
#    x 1.699490 0.000000 0.000000 
#    y 0.000000 1.727030 0.000000 
#    z 0.000000 0.000000 1.672430 
# 
# From -- ./inp_files/1578.got.cif
#   From: 2010.05.17/outbox.cif.g08.bks.cpg/sg73_1_cif.got.tgz:1578.got - 2010.06.03 17:35:07.
