data_PCOD9532655
_publ_section_title
;
Structure prediction by ZEFSAII (Michael W. Deem and Ramdas Pophale) SiO2 
 PCOD9532655
Probable space group: I B C A 
;
_chemical_formula_sum "Si O2"
_cell_formula_units_Z 120
_cell_length_a 8.641914
_cell_length_b 23.580083
_cell_length_c 25.967833
_cell_angle_alpha 90.000000
_cell_angle_beta 90.000000
_cell_angle_gamma 90.000000
_cell_volume 5291.648388
_symmetry_space_group_name_H-M "I B C A "
_symmetry_group_IT_number 73
_symmetry_cell_setting 'orthorhombic'
loop_
_space_group_symop_operation_xyz
x,y,z
-x,1/2-y,z
x,-y,1/2-z
1/2-x,y,-z
-x,-y,-z
x,1/2+y,-z
-x,y,1/2+z
1/2+x,-y,z
1/2+x,1/2+y,1/2+z
1/2-x,-y,1/2+z
1/2+x,1/2-y,-z
-x,1/2+y,1/2-z
1/2-x,1/2-y,1/2-z
1/2+x,y,1/2-z
1/2-x,1/2+y,z
x,1/2-y,1/2+z
loop_
_atom_site_type_symbol
_atom_site_label
_atom_site_fract_x
_atom_site_fract_y
_atom_site_fract_z
Si Si1 0.250000 0.174173 0.500000
Si Si2 0.812880 0.908403 0.693002
Si Si3 0.456524 0.043208 0.955135
Si Si4 0.290197 0.193416 0.123256
Si Si5 0.292725 0.503340 0.881284
Si Si6 0.351175 0.173236 0.608783
Si Si7 0.162540 0.103785 0.800083
Si Si8 0.586267 0.826383 0.028994
O O1 0.288621 0.147789 0.555292
O O2 0.420278 0.201431 0.487035
O O3 0.806751 0.962451 0.655659
O O4 0.764765 0.857894 0.655134
O O5 0.726763 0.917579 0.746055
O O6 0.982304 0.889122 0.709022
O O7 0.567617 0.032900 0.905601
O O8 0.451982 0.106730 0.976632
O O9 0.292271 0.027030 0.931384
O O10 0.500000 0.000000 0.000000
O O11 0.460605 0.167818 0.107166
O O12 0.316148 0.260425 0.116473
O O13 0.266965 0.162579 0.178146
O O14 0.142918 0.180385 0.087641
O O15 0.325756 0.556972 0.844985
O O16 0.750000 0.812513 0.000000
#
# Coordination Sequence:
#
# PCOD9532655 Si02
#       8
#     8  16  16  16  16  16  16  16
#     4  12  26  40  72 108 144 186 242 288 352 430
#     4  11  26  44  69  99 137 178 239 300 357 424
#     4  12  27  41  68 105 146 191 228 285 358 430
#     4  10  23  46  72  99 142 186 238 297 361 431
#     4  12  24  45  68 101 142 180 236 285 351 442
#     4  10  24  45  70 106 138 184 242 299 356 436
#     4  11  25  45  70  98 133 184 237 301 363 423
#     4  12  25  44  70 100 149 195 238 288 352 426
#
# _framework density 22.677244999999999
#
# number of rings (size 3 to 8) (size 9 to 14) (size 15 to 20)
#    0.000    0.800    4.000    2.400    6.533    3.200 
#    0.000    0.000    0.000    0.000    0.000    0.000 
#    0.000    0.000    0.000    0.000    0.000    0.000 
#
# Total GULP energy -334728.834760 kJ/mol
# GULP energy per Si atom -5578.813913 kJ/mol
# Density = 2.262563 g / cm^3
# Si number density = 22.677245 Si / 1000 Ang^3
#
#
#
# Elastic Constant Matrix: (Units=GPa)
#
#
# Indices 1 2 3 4 5 6 
#
# 1 90.6564 22.9526 27.7990 0.0000 0.0000 0.0000
# 2 22.9526 88.0399 25.2991 0.0000 0.0000 0.0000
# 3 27.7990 25.2991 113.0788 0.0000 0.0000 0.0000
# 4 0.0000 0.0000 0.0000 6.7459 0.0000 0.0000
# 5 0.0000 0.0000 0.0000 0.0000 31.5322 0.0000
# 6 0.0000 0.0000 0.0000 0.0000 0.0000 28.7509
#
#
#
# Elastic Compliance Matrix: (Units=1/GPa)
#
#
# Indices 1 2 3 4 5 6 
#
# 1 0.012434 -0.002526 -0.002492 0.000000 0.000000 0.000000
# 2 -0.002526 0.012652 -0.002210 0.000000 0.000000 0.000000
# 3 -0.002492 -0.002210 0.009950 0.000000 0.000000 0.000000
# 4 0.000000 0.000000 0.000000 0.148239 0.000000 0.000000
# 5 0.000000 0.000000 0.000000 0.000000 0.031714 0.000000
# 6 0.000000 0.000000 0.000000 0.000000 0.000000 0.034782
#
#
# Mechanical properties :
#
#
# Convention : Reuss Voigt Hill
#
# Bulk Modulus (GPa) = 48.58554 49.31960 48.95257
# Shear Modulus (GPa) = 18.44438 27.78743 23.11590
#
# Velocity S-wave (km/s) = 2.85501 3.50429 3.19618
# Velocity P-wave (km/s) = 5.68678 6.17811 5.93753
#
# Compressibility (1/GPa) = 0.02058225
#
# Stress axis : x y z
#
# Youngs Moduli (GPa) = 80.42351 79.03939 100.49926
#
# Poissons Ratio (x) = 0.19963 0.25042
# Poissons Ratio (y) = 0.20312 0.22207
# Poissons Ratio (z) = 0.20039 0.17465
#
# Static dielectric constant tensor:
#      x y z
#    x 1.889210 0.000000 0.000000 
#    y 0.000000 1.711850 0.000000 
#    z 0.000000 0.000000 1.888210 
# 
# From -- ./inp_files/28540.got.cif
#   From: 2010.05.17/outbox.cif.g08.bks.cpg/sg73_15_cif.got.tgz:28540.got - 2010.06.03 17:35:07.
