data_PCOD9532695
_publ_section_title
;
Structure prediction by ZEFSAII (Michael W. Deem and Ramdas Pophale) SiO2 
 PCOD9532695
Probable space group: I B C A 
;
_chemical_formula_sum "Si O2"
_cell_formula_units_Z 112
_cell_length_a 15.250567
_cell_length_b 30.466481
_cell_length_c 11.422185
_cell_angle_alpha 90.000000
_cell_angle_beta 90.000000
_cell_angle_gamma 90.000000
_cell_volume 5307.102492
_symmetry_space_group_name_H-M "I B C A "
_symmetry_group_IT_number 73
_symmetry_cell_setting 'orthorhombic'
loop_
_space_group_symop_operation_xyz
x,y,z
-x,1/2-y,z
x,-y,1/2-z
1/2-x,y,-z
-x,-y,-z
x,1/2+y,-z
-x,y,1/2+z
1/2+x,-y,z
1/2+x,1/2+y,1/2+z
1/2-x,-y,1/2+z
1/2+x,1/2-y,-z
-x,1/2+y,1/2-z
1/2-x,1/2-y,1/2-z
1/2+x,y,1/2-z
1/2-x,1/2+y,z
x,1/2-y,1/2+z
loop_
_atom_site_type_symbol
_atom_site_label
_atom_site_fract_x
_atom_site_fract_y
_atom_site_fract_z
Si Si1 0.779551 0.381797 0.226002
Si Si2 0.125113 0.797306 0.320191
Si Si3 0.496492 0.075635 0.531259
Si Si4 0.915516 0.799418 0.292076
Si Si5 0.835652 0.624475 0.933734
Si Si6 0.065049 0.547883 0.781501
Si Si7 0.861698 0.348418 0.941570
O O1 0.822205 0.333658 0.255477
O O2 0.707945 0.397608 0.319707
O O3 0.859018 0.415445 0.213812
O O4 0.722369 0.373961 0.110140
O O5 0.139146 0.745480 0.307594
O O6 0.144819 0.815172 0.450048
O O7 0.020859 0.798057 0.296432
O O8 0.398196 0.093072 0.507043
O O9 0.520907 0.048427 0.411926
O O10 0.495699 0.058163 0.666159
O O11 0.563851 0.116170 0.529306
O O12 0.889797 0.834054 0.390908
O O13 0.890926 0.819356 0.168000
O O14 0.750000 0.639578 0.000000
O O15 0.101743 0.500000 0.750000
#
# Coordination Sequence:
#
# PCOD9532695 Si02
#       7
#    16  16  16  16  16  16  16
#     4  11  23  43  67 102 138 186 236 294 365 419
#     4  11  22  40  64  94 142 183 244 291 350 422
#     4  12  24  49  75 105 143 193 235 289 369 445
#     4  10  24  38  59 103 138 190 237 294 345 408
#     4  11  22  39  68  94 136 185 230 289 346 422
#     4  12  26  47  77 110 143 180 235 298 360 442
#     4  11  23  41  70  97 139 192 238 287 360 428
#
# _framework density 21.103795000000002
#
# number of rings (size 3 to 8) (size 9 to 14) (size 15 to 20)
#    0.000    0.857    4.286    3.429    0.000    6.857 
#    0.000    5.714    0.000    0.000    0.000    0.000 
#    0.000    0.000    0.000    0.000    0.000    0.000 
#
# Total GULP energy -312236.992655 kJ/mol
# GULP energy per Si atom -5575.660583 kJ/mol
# Density = 2.105576 g / cm^3
# Si number density = 21.103795 Si / 1000 Ang^3
#
#
#
# Elastic Constant Matrix: (Units=GPa)
#
#
# Indices 1 2 3 4 5 6 
#
# 1 70.7367 11.1087 17.8114 0.0001 0.0000 0.0000
# 2 11.1087 55.0448 27.3844 0.0001 0.0000 0.0000
# 3 17.8114 27.3844 134.3240 0.0009 -0.0001 0.0000
# 4 0.0001 0.0001 0.0009 18.1895 0.0002 0.0000
# 5 0.0000 0.0000 -0.0001 0.0002 38.4599 0.0000
# 6 0.0000 0.0000 0.0000 0.0000 0.0000 9.1438
#
#
#
# Elastic Compliance Matrix: (Units=1/GPa)
#
#
# Indices 1 2 3 4 5 6 
#
# 1 0.014871 -0.002248 -0.001514 0.000000 0.000000 0.000000
# 2 -0.002248 0.020557 -0.003893 0.000000 0.000000 0.000000
# 3 -0.001514 -0.003893 0.008439 0.000000 0.000000 0.000000
# 4 0.000000 0.000000 0.000000 0.054977 0.000000 0.000000
# 5 0.000000 0.000000 0.000000 0.000000 0.026001 0.000000
# 6 0.000000 0.000000 0.000000 0.000000 0.000000 0.109364
#
#
# Mechanical properties :
#
#
# Convention : Reuss Voigt Hill
#
# Bulk Modulus (GPa) = 35.01618 41.41273 38.21445
# Shear Modulus (GPa) = 19.30221 26.74538 23.02379
#
# Velocity S-wave (km/s) = 3.02757 3.56381 3.30658
# Velocity P-wave (km/s) = 5.37121 6.04982 5.72059
#
# Compressibility (1/GPa) = 0.02855823
#
# Stress axis : x y z
#
# Youngs Moduli (GPa) = 67.24451 48.64430 118.49708
#
# Poissons Ratio (x) = 0.10936 0.17936
# Poissons Ratio (y) = 0.15118 0.46130
# Poissons Ratio (z) = 0.10178 0.18937
#
# Static dielectric constant tensor:
#      x y z
#    x 1.789840 0.000000 0.000000 
#    y 0.000000 1.764480 0.000000 
#    z 0.000000 0.000000 1.829300 
# 
# From -- ./inp_files/11240.got.cif
#   From: 2010.05.17/outbox.cif.g08.bks.cpg/sg73_6_cif.got.tgz:11240.got - 2010.06.03 17:35:07.
