data_PCOD9532464
_publ_section_title
;
Structure prediction by ZEFSAII (Michael W. Deem and Ramdas Pophale) SiO2 
 PCOD9532464
Probable space group: I B C A 
;
_chemical_formula_sum "Si O2"
_cell_formula_units_Z 64
_cell_length_a 8.234293
_cell_length_b 15.807331
_cell_length_c 22.056156
_cell_angle_alpha 90.000000
_cell_angle_beta 90.000000
_cell_angle_gamma 90.000000
_cell_volume 2870.877678
_symmetry_space_group_name_H-M "I B C A "
_symmetry_group_IT_number 73
_symmetry_cell_setting 'orthorhombic'
loop_
_space_group_symop_operation_xyz
x,y,z
-x,1/2-y,z
x,-y,1/2-z
1/2-x,y,-z
-x,-y,-z
x,1/2+y,-z
-x,y,1/2+z
1/2+x,-y,z
1/2+x,1/2+y,1/2+z
1/2-x,-y,1/2+z
1/2+x,1/2-y,-z
-x,1/2+y,1/2-z
1/2-x,1/2-y,1/2-z
1/2+x,y,1/2-z
1/2-x,1/2+y,z
x,1/2-y,1/2+z
loop_
_atom_site_type_symbol
_atom_site_label
_atom_site_fract_x
_atom_site_fract_y
_atom_site_fract_z
Si Si1 0.056208 0.845939 0.503094
Si Si2 0.161643 0.495984 0.683014
Si Si3 0.082595 0.836751 0.136366
Si Si4 0.092699 0.095091 0.616029
O O1 0.250000 0.852062 0.500000
O O2 0.000000 0.750000 0.488564
O O3 0.987968 0.860760 0.570335
O O4 0.974011 0.902400 0.451416
O O5 0.233874 0.500000 0.750000
O O6 0.057431 0.583708 0.680187
O O7 0.290551 0.515472 0.630272
O O8 0.054170 0.416834 0.663162
O O9 0.278802 0.829633 0.128624
O O10 0.000000 0.750000 0.155571
#
# Coordination Sequence:
#
# PCOD9532464 Si02
#       4
#    16  16  16  16
#     4  11  22  40  67 100 138 171 214 282 351 418
#     4  10  23  43  65  91 136 178 234 282 328 391
#     4   9  21  42  66  94 136 172 223 278 340 409
#     4  10  23  40  67  94 132 180 222 276 352 394
#
# _framework density 22.292835
#
# number of rings (size 3 to 8) (size 9 to 14) (size 15 to 20)
#    1.500    0.500    0.000    4.500    3.500    1.000 
#    0.000    2.500    0.000    0.000    0.000    0.000 
#    0.000    0.000    0.000    0.000    0.000    0.000 
#
# Total GULP energy -178277.292875 kJ/mol
# GULP energy per Si atom -5571.165402 kJ/mol
# Density = 2.224210 g / cm^3
# Si number density = 22.292835 Si / 1000 Ang^3
#
#
#
# Elastic Constant Matrix: (Units=GPa)
#
#
# Indices 1 2 3 4 5 6 
#
# 1 106.2895 30.3362 19.6852 0.0000 0.0000 0.0000
# 2 30.3362 51.5228 37.4784 0.0000 0.0000 0.0000
# 3 19.6852 37.4784 79.1655 0.0000 0.0000 0.0000
# 4 0.0000 0.0000 0.0000 9.5696 0.0000 0.0000
# 5 0.0000 0.0000 0.0000 0.0000 27.2423 0.0000
# 6 0.0000 0.0000 0.0000 0.0000 0.0000 23.4754
#
#
#
# Elastic Compliance Matrix: (Units=1/GPa)
#
#
# Indices 1 2 3 4 5 6 
#
# 1 0.011323 -0.007045 0.000520 0.000000 0.000000 0.000000
# 2 -0.007045 0.033986 -0.014338 0.000000 0.000000 0.000000
# 3 0.000520 -0.014338 0.019290 0.000000 0.000000 0.000000
# 4 0.000000 0.000000 0.000000 0.104497 0.000000 0.000000
# 5 0.000000 0.000000 0.000000 0.000000 0.036708 0.000000
# 6 0.000000 0.000000 0.000000 0.000000 0.000000 0.042598
#
#
# Mechanical properties :
#
#
# Convention : Reuss Voigt Hill
#
# Bulk Modulus (GPa) = 43.71910 45.77524 44.74717
# Shear Modulus (GPa) = 16.79245 22.02266 19.40755
#
# Velocity S-wave (km/s) = 2.74755 3.14647 2.95375
# Velocity P-wave (km/s) = 5.45153 5.81193 5.63461
#
# Compressibility (1/GPa) = 0.02287330
#
# Stress axis : x y z
#
# Youngs Moduli (GPa) = 88.31850 29.42351 51.83906
#
# Poissons Ratio (x) = 0.20728 -0.02693
# Poissons Ratio (y) = 0.62217 0.74327
# Poissons Ratio (z) = -0.04589 0.42188
#
# Static dielectric constant tensor:
#      x y z
#    x 1.921600 0.000000 0.000000 
#    y 0.000000 1.922420 0.000000 
#    z 0.000000 0.000000 1.765630 
# 
# From -- ./inp_files/24604.got.cif
#   From: 2010.05.17/outbox.cif.g08.bks.cpg/sg73_13_cif.got.tgz:24604.got - 2010.06.03 17:35:07.
