data_PCOD9532580
_publ_section_title
;
Structure prediction by ZEFSAII (Michael W. Deem and Ramdas Pophale) SiO2 
 PCOD9532580
Probable space group: I B C A 
;
_chemical_formula_sum "Si O2"
_cell_formula_units_Z 104
_cell_length_a 26.638044
_cell_length_b 9.778812
_cell_length_c 19.590701
_cell_angle_alpha 90.000000
_cell_angle_beta 90.000000
_cell_angle_gamma 90.000000
_cell_volume 5103.150835
_symmetry_space_group_name_H-M "I B C A "
_symmetry_group_IT_number 73
_symmetry_cell_setting 'orthorhombic'
loop_
_space_group_symop_operation_xyz
x,y,z
-x,1/2-y,z
x,-y,1/2-z
1/2-x,y,-z
-x,-y,-z
x,1/2+y,-z
-x,y,1/2+z
1/2+x,-y,z
1/2+x,1/2+y,1/2+z
1/2-x,-y,1/2+z
1/2+x,1/2-y,-z
-x,1/2+y,1/2-z
1/2-x,1/2-y,1/2-z
1/2+x,y,1/2-z
1/2-x,1/2+y,z
x,1/2-y,1/2+z
loop_
_atom_site_type_symbol
_atom_site_label
_atom_site_fract_x
_atom_site_fract_y
_atom_site_fract_z
Si Si1 0.694761 0.160832 0.979497
Si Si2 0.307283 0.249276 0.821938
Si Si3 0.128966 0.603810 0.000236
Si Si4 0.522374 0.387815 0.050061
Si Si5 0.251045 0.000000 0.750000
Si Si6 0.583474 0.715423 0.644363
Si Si7 0.012023 0.456848 0.175325
O O1 0.698399 0.213868 0.901812
O O2 0.673384 0.292157 0.018938
O O3 0.750000 0.114797 0.000000
O O4 0.653827 0.044307 0.994230
O O5 0.283753 0.101453 0.799790
O O6 0.282438 0.381657 0.785779
O O7 0.367034 0.238744 0.810677
O O8 0.104165 0.649225 0.926883
O O9 0.082030 0.614459 0.049746
O O10 0.500000 0.250000 0.021846
O O11 0.504198 0.415848 0.125974
O O12 0.500000 0.500000 0.000000
O O13 0.552836 0.857833 0.638552
O O14 0.541372 0.619518 0.677666
O O15 0.028958 0.500000 0.250000
#
# Coordination Sequence:
#
# PCOD9532580 Si02
#       7
#    16  16  16  16   8  16  16
#     4  11  25  42  68 103 137 168 222 294 347 401
#     4  10  24  45  70  96 137 177 232 282 336 417
#     4  11  23  43  68 100 130 184 220 278 356 412
#     4  12  23  41  69  97 133 177 230 279 335 424
#     4  10  24  46  70 100 128 194 232 274 346 412
#     4  10  23  44  68  94 139 179 224 287 347 411
#     4  11  25  43  66 100 141 179 231 288 351 416
#
# _framework density 20.379566000000001
#
# number of rings (size 3 to 8) (size 9 to 14) (size 15 to 20)
#    0.000    1.231    1.538    4.154   10.769    0.000 
#    0.000    0.000    0.000    0.000    0.000    0.000 
#    0.000    0.000    0.000    0.000    0.000    0.000 
#
# Total GULP energy -289950.002014 kJ/mol
# GULP energy per Si atom -5575.961577 kJ/mol
# Density = 2.033318 g / cm^3
# Si number density = 20.379566 Si / 1000 Ang^3
#
#
#
# Elastic Constant Matrix: (Units=GPa)
#
#
# Indices 1 2 3 4 5 6 
#
# 1 120.1575 31.9481 32.0768 0.0000 0.0000 0.0000
# 2 31.9481 137.8549 39.2188 0.0000 0.0000 0.0000
# 3 32.0768 39.2188 57.3633 0.0000 0.0000 0.0000
# 4 0.0000 0.0000 0.0000 21.0182 0.0000 0.0000
# 5 0.0000 0.0000 0.0000 0.0000 26.0503 0.0000
# 6 0.0000 0.0000 0.0000 0.0000 0.0000 32.1537
#
#
#
# Elastic Compliance Matrix: (Units=1/GPa)
#
#
# Indices 1 2 3 4 5 6 
#
# 1 0.009870 -0.000890 -0.004910 0.000000 0.000000 0.000000
# 2 -0.000890 0.009086 -0.005714 0.000000 0.000000 0.000000
# 3 -0.004910 -0.005714 0.024085 0.000000 0.000000 0.000000
# 4 0.000000 0.000000 0.000000 0.047578 0.000000 0.000000
# 5 0.000000 0.000000 0.000000 0.000000 0.038387 0.000000
# 6 0.000000 0.000000 0.000000 0.000000 0.000000 0.031101
#
#
# Mechanical properties :
#
#
# Convention : Reuss Voigt Hill
#
# Bulk Modulus (GPa) = 49.97147 57.98478 53.97813
# Shear Modulus (GPa) = 26.34249 29.98655 28.16452
#
# Velocity S-wave (km/s) = 3.59917 3.84005 3.72156
# Velocity P-wave (km/s) = 6.46882 6.94086 6.70899
#
# Compressibility (1/GPa) = 0.02001142
#
# Stress axis : x y z
#
# Youngs Moduli (GPa) = 101.31688 110.05957 41.51914
#
# Poissons Ratio (x) = 0.09800 0.20388
# Poissons Ratio (y) = 0.09021 0.23724
# Poissons Ratio (z) = 0.49751 0.62889
#
# Static dielectric constant tensor:
#      x y z
#    x 1.735400 0.000000 0.000000 
#    y 0.000000 1.767230 0.000000 
#    z 0.000000 0.000000 1.766090 
# 
# From -- ./inp_files/27605.got.cif
#   From: 2010.05.17/outbox.cif.g08.bks.cpg/sg73_14_cif.got.tgz:27605.got - 2010.06.03 17:35:07.
