data_PCOD9532911
_publ_section_title
;
Structure prediction by ZEFSAII (Michael W. Deem and Ramdas Pophale) SiO2 
 PCOD9532911
Probable space group: I B C A 
;
_chemical_formula_sum "Si O2"
_cell_formula_units_Z 88
_cell_length_a 19.535773
_cell_length_b 14.454998
_cell_length_c 12.555526
_cell_angle_alpha 90.000000
_cell_angle_beta 90.000000
_cell_angle_gamma 90.000000
_cell_volume 3545.549458
_symmetry_space_group_name_H-M "I B C A "
_symmetry_group_IT_number 73
_symmetry_cell_setting 'orthorhombic'
loop_
_space_group_symop_operation_xyz
x,y,z
-x,1/2-y,z
x,-y,1/2-z
1/2-x,y,-z
-x,-y,-z
x,1/2+y,-z
-x,y,1/2+z
1/2+x,-y,z
1/2+x,1/2+y,1/2+z
1/2-x,-y,1/2+z
1/2+x,1/2-y,-z
-x,1/2+y,1/2-z
1/2-x,1/2-y,1/2-z
1/2+x,y,1/2-z
1/2-x,1/2+y,z
x,1/2-y,1/2+z
loop_
_atom_site_type_symbol
_atom_site_label
_atom_site_fract_x
_atom_site_fract_y
_atom_site_fract_z
Si Si1 0.510429 0.578020 0.588611
Si Si2 0.750000 0.438722 0.000000
Si Si3 0.282637 0.336681 0.693029
Si Si4 0.500000 0.250000 0.545527
Si Si5 0.633782 0.676660 0.888923
Si Si6 0.120425 0.000000 0.250000
Si Si7 0.647662 0.919583 0.605859
O O1 0.500000 0.500000 0.500000
O O2 0.531559 0.673981 0.533608
O O3 0.569859 0.547751 0.666259
O O4 0.432805 0.581742 0.634581
O O5 0.766837 0.380534 0.105178
O O6 0.684621 0.494429 0.046444
O O7 0.250000 0.250000 0.750000
O O8 0.342530 0.280740 0.634120
O O9 0.311819 0.400210 0.786186
O O10 0.551995 0.311408 0.613981
O O11 0.654905 0.587544 0.815284
O O12 0.654770 0.654990 0.010574
#
# Coordination Sequence:
#
# PCOD9532911 Si02
#       7
#    16   8  16   8  16   8  16
#     4  11  25  46  71 112 156 198 252 312 388 464
#     4  12  28  48  78 104 146 196 256 318 362 464
#     4  12  28  47  76 107 146 198 255 318 381 448
#     4  10  24  46  68 108 154 198 242 324 370 474
#     4  11  27  44  75 109 153 196 256 313 389 463
#     4  12  26  42  76 112 154 204 248 316 394 474
#     4  11  26  49  73 109 150 199 252 315 385 455
#
# _framework density 24.819849000000001
#
# number of rings (size 3 to 8) (size 9 to 14) (size 15 to 20)
#    0.000    0.727    3.636    2.727   15.273    0.000 
#    0.000    0.000    0.000    0.000    0.000    0.000 
#    0.000    0.000    0.000    0.000    0.000    0.000 
#
# Total GULP energy -245780.045726 kJ/mol
# GULP energy per Si atom -5585.910130 kJ/mol
# Density = 2.476336 g / cm^3
# Si number density = 24.819849 Si / 1000 Ang^3
#
#
#
# Elastic Constant Matrix: (Units=GPa)
#
#
# Indices 1 2 3 4 5 6 
#
# 1 70.1299 14.7506 20.4830 0.0000 0.0000 0.0000
# 2 14.7506 133.8053 58.3854 0.0000 0.0000 0.0000
# 3 20.4830 58.3854 127.8710 0.0000 0.0000 0.0000
# 4 0.0000 0.0000 0.0000 49.0918 0.0000 0.0000
# 5 0.0000 0.0000 0.0000 0.0000 40.1396 0.0000
# 6 0.0000 0.0000 0.0000 0.0000 0.0000 34.4945
#
#
#
# Elastic Compliance Matrix: (Units=1/GPa)
#
#
# Indices 1 2 3 4 5 6 
#
# 1 0.015020 -0.000757 -0.002061 0.000000 0.000000 0.000000
# 2 -0.000757 0.009371 -0.004158 0.000000 0.000000 0.000000
# 3 -0.002061 -0.004158 0.010049 0.000000 0.000000 0.000000
# 4 0.000000 0.000000 0.000000 0.020370 0.000000 0.000000
# 5 0.000000 0.000000 0.000000 0.000000 0.024913 0.000000
# 6 0.000000 0.000000 0.000000 0.000000 0.000000 0.028990
#
#
# Mechanical properties :
#
#
# Convention : Reuss Voigt Hill
#
# Bulk Modulus (GPa) = 48.80314 57.67159 53.23737
# Shear Modulus (GPa) = 38.61209 40.62433 39.61821
#
# Velocity S-wave (km/s) = 3.94851 4.05009 3.99962
# Velocity P-wave (km/s) = 6.36343 6.71993 6.54411
#
# Compressibility (1/GPa) = 0.02049048
#
# Stress axis : x y z
#
# Youngs Moduli (GPa) = 66.57685 106.71091 99.51455
#
# Poissons Ratio (x) = 0.08075 0.20505
# Poissons Ratio (y) = 0.05038 0.41374
# Poissons Ratio (z) = 0.13718 0.44366
#
# Static dielectric constant tensor:
#      x y z
#    x 1.778470 0.000000 0.000000 
#    y 0.000000 1.457140 0.000000 
#    z 0.000000 0.000000 1.731610 
# 
# From -- ./inp_files/13548.got.cif
#   From: 2010.05.17/outbox.cif.g08.bks.cpg/sg73_7_cif.got.tgz:13548.got - 2010.06.03 17:35:07.
