data_PCOD9532104
_publ_section_title
;
Structure prediction by ZEFSAII (Michael W. Deem and Ramdas Pophale) SiO2 
 PCOD9532104
Probable space group: I B C A 
;
_chemical_formula_sum "Si O2"
_cell_formula_units_Z 64
_cell_length_a 5.312898
_cell_length_b 24.676415
_cell_length_c 13.993908
_cell_angle_alpha 90.000000
_cell_angle_beta 90.000000
_cell_angle_gamma 90.000000
_cell_volume 1834.647181
_symmetry_space_group_name_H-M "I B C A "
_symmetry_group_IT_number 73
_symmetry_cell_setting 'orthorhombic'
loop_
_space_group_symop_operation_xyz
x,y,z
-x,1/2-y,z
x,-y,1/2-z
1/2-x,y,-z
-x,-y,-z
x,1/2+y,-z
-x,y,1/2+z
1/2+x,-y,z
1/2+x,1/2+y,1/2+z
1/2-x,-y,1/2+z
1/2+x,1/2-y,-z
-x,1/2+y,1/2-z
1/2-x,1/2-y,1/2-z
1/2+x,y,1/2-z
1/2-x,1/2+y,z
x,1/2-y,1/2+z
loop_
_atom_site_type_symbol
_atom_site_label
_atom_site_fract_x
_atom_site_fract_y
_atom_site_fract_z
Si Si1 0.367316 0.467252 0.641924
Si Si2 0.320010 0.913242 0.103882
Si Si3 0.942545 0.156852 0.782696
Si Si4 0.723318 0.271685 0.110222
O O1 0.388781 0.500000 0.750000
O O2 0.687549 0.476214 0.601200
O O3 0.614339 0.565501 0.602794
O O4 0.511089 0.404730 0.661455
O O5 0.375985 0.868708 0.187630
O O6 0.250000 0.890138 0.000000
O O7 0.744698 0.186329 0.703665
O O8 0.912779 0.208976 0.872534
O O9 0.500000 0.250000 0.873800
O O10 0.750000 0.290909 0.000000
#
# Coordination Sequence:
#
# PCOD9532104 Si02
#       4
#    16  16  16  16
#     4   8  19  36  63  94 123 174 244 301 339 384
#     4  10  22  41  68  95 132 184 245 294 336 400
#     4  12  29  45  64 105 151 183 219 280 362 434
#     4  10  23  48  78 104 129 171 234 289 341 420
#
# _framework density 34.88409
#
# number of rings (size 3 to 8) (size 9 to 14) (size 15 to 20)
#    1.500    0.500    0.000    2.250    3.500    8.000 
#    0.000    3.750    0.000    0.000    0.000    0.000 
#    0.000    0.000    0.000    0.000    0.000    0.000 
#
# Total GULP energy -178155.660843 kJ/mol
# GULP energy per Si atom -5567.364401 kJ/mol
# Density = 3.480469 g / cm^3
# Si number density = 34.884090 Si / 1000 Ang^3
#
#
#
# Elastic Constant Matrix: (Units=GPa)
#
#
# Indices 1 2 3 4 5 6 
#
# 1 505.3316 113.8166 141.8439 0.0000 0.0000 0.0000
# 2 113.8166 211.3413 180.2662 0.0000 0.0000 0.0000
# 3 141.8439 180.2662 368.7684 0.0000 0.0000 0.0000
# 4 0.0000 0.0000 0.0000 50.0311 0.0000 0.0000
# 5 0.0000 0.0000 0.0000 0.0000 98.1705 0.0000
# 6 0.0000 0.0000 0.0000 0.0000 0.0000 117.2675
#
#
#
# Elastic Compliance Matrix: (Units=1/GPa)
#
#
# Indices 1 2 3 4 5 6 
#
# 1 0.002300 -0.000830 -0.000479 0.000000 0.000000 0.000000
# 2 -0.000830 0.008415 -0.003794 0.000000 0.000000 0.000000
# 3 -0.000479 -0.003794 0.004751 0.000000 0.000000 0.000000
# 4 0.000000 0.000000 0.000000 0.019988 0.000000 0.000000
# 5 0.000000 0.000000 0.000000 0.000000 0.010186 0.000000
# 6 0.000000 0.000000 0.000000 0.000000 0.000000 0.008528
#
#
# Mechanical properties :
#
#
# Convention : Reuss Voigt Hill
#
# Bulk Modulus (GPa) = 190.14142 217.47720 203.80931
# Shear Modulus (GPa) = 75.61119 96.39480 86.00300
#
# Velocity S-wave (km/s) = 4.66069 5.26240 4.97066
# Velocity P-wave (km/s) = 9.14263 9.97005 9.56529
#
# Compressibility (1/GPa) = 0.00525924
#
# Stress axis : x y z
#
# Youngs Moduli (GPa) = 434.71726 118.83235 210.49558
#
# Poissons Ratio (x) = 0.09867 0.10081
# Poissons Ratio (y) = 0.36097 0.79867
# Poissons Ratio (z) = 0.20819 0.45088
#
# Static dielectric constant tensor:
#      x y z
#    x 2.975480 0.000000 0.000000 
#    y 0.000000 2.762990 0.000000 
#    z 0.000000 0.000000 2.837750 
# 
# From -- ./inp_files/15448.got.cif
#   From: 2010.05.17/outbox.cif.g08.bks.cpg/sg73_8_cif.got.tgz:15448.got - 2010.06.03 17:35:07.
