data_PCOD9532029
_publ_section_title
;
Structure prediction by ZEFSAII (Michael W. Deem and Ramdas Pophale) SiO2 
 PCOD9532029
Probable space group: I B C A 
;
_chemical_formula_sum "Si O2"
_cell_formula_units_Z 104
_cell_length_a 22.656156
_cell_length_b 27.561279
_cell_length_c 8.621843
_cell_angle_alpha 90.000000
_cell_angle_beta 90.000000
_cell_angle_gamma 90.000000
_cell_volume 5383.760157
_symmetry_space_group_name_H-M "I B C A "
_symmetry_group_IT_number 73
_symmetry_cell_setting 'orthorhombic'
loop_
_space_group_symop_operation_xyz
x,y,z
-x,1/2-y,z
x,-y,1/2-z
1/2-x,y,-z
-x,-y,-z
x,1/2+y,-z
-x,y,1/2+z
1/2+x,-y,z
1/2+x,1/2+y,1/2+z
1/2-x,-y,1/2+z
1/2+x,1/2-y,-z
-x,1/2+y,1/2-z
1/2-x,1/2-y,1/2-z
1/2+x,y,1/2-z
1/2-x,1/2+y,z
x,1/2-y,1/2+z
loop_
_atom_site_type_symbol
_atom_site_label
_atom_site_fract_x
_atom_site_fract_y
_atom_site_fract_z
Si Si1 0.630868 0.853240 0.622281
Si Si2 0.268720 0.325244 0.661169
Si Si3 0.549142 0.431936 0.493512
Si Si4 0.333596 0.276123 0.138916
Si Si5 0.051215 0.212119 0.184109
Si Si6 0.989831 0.500000 0.250000
Si Si7 0.532800 0.847864 0.889634
O O1 0.688339 0.856606 0.730622
O O2 0.607704 0.899483 0.524905
O O3 0.645074 0.807932 0.508125
O O4 0.576776 0.848988 0.744488
O O5 0.250000 0.349464 0.500000
O O6 0.213668 0.307908 0.765175
O O7 0.303086 0.275646 0.609398
O O8 0.550387 0.471490 0.628375
O O9 0.530629 0.461255 0.339991
O O10 0.494169 0.396754 0.538840
O O11 0.389851 0.266004 0.246664
O O12 0.000000 0.250000 0.144742
O O13 0.023957 0.179709 0.321136
O O14 0.062040 0.181276 0.030389
#
# Coordination Sequence:
#
# PCOD9532029 Si02
#       7
#    16  16  16  16  16   8  16
#     4  12  23  40  64  89 129 168 216 273 309 376
#     4  11  24  42  60  87 122 177 234 272 299 352
#     4  11  21  40  62  97 127 165 194 255 326 416
#     4  11  23  40  61  85 125 177 229 265 306 352
#     4  12  23  35  54  86 130 181 215 256 314 364
#     4  10  22  40  68  90 140 154 192 248 340 434
#     4  12  22  37  56  90 135 161 215 258 309 388
#
# _framework density 19.317354999999999
#
# number of rings (size 3 to 8) (size 9 to 14) (size 15 to 20)
#    0.000    0.615    4.615    4.615    0.000    3.692 
#    0.000    0.769    0.000    0.000    0.000    6.462 
#    0.000    0.000    0.000    0.000    0.000    0.000 
#
# Total GULP energy -290659.938620 kJ/mol
# GULP energy per Si atom -5589.614204 kJ/mol
# Density = 1.927339 g / cm^3
# Si number density = 19.317355 Si / 1000 Ang^3
#
#
#
# Elastic Constant Matrix: (Units=GPa)
#
#
# Indices 1 2 3 4 5 6 
#
# 1 99.4040 18.1978 29.3555 0.0000 0.0000 0.0000
# 2 18.1978 64.6748 35.1904 0.0000 0.0000 0.0000
# 3 29.3555 35.1904 109.0981 0.0000 0.0000 0.0000
# 4 0.0000 0.0000 0.0000 38.7622 0.0000 0.0000
# 5 0.0000 0.0000 0.0000 0.0000 37.2028 0.0000
# 6 0.0000 0.0000 0.0000 0.0000 0.0000 11.9355
#
#
#
# Elastic Compliance Matrix: (Units=1/GPa)
#
#
# Indices 1 2 3 4 5 6 
#
# 1 0.011102 -0.001817 -0.002401 0.000000 0.000000 0.000000
# 2 -0.001817 0.019051 -0.005656 0.000000 0.000000 0.000000
# 3 -0.002401 -0.005656 0.011636 0.000000 0.000000 0.000000
# 4 0.000000 0.000000 0.000000 0.025798 0.000000 0.000000
# 5 0.000000 0.000000 0.000000 0.000000 0.026880 0.000000
# 6 0.000000 0.000000 0.000000 0.000000 0.000000 0.083784
#
#
# Mechanical properties :
#
#
# Convention : Reuss Voigt Hill
#
# Bulk Modulus (GPa) = 45.37120 48.74047 47.05583
# Shear Modulus (GPa) = 24.34914 30.27563 27.31239
#
# Velocity S-wave (km/s) = 3.55418 3.96318 3.76424
# Velocity P-wave (km/s) = 6.35462 6.79916 6.58064
#
# Compressibility (1/GPa) = 0.02204041
#
# Stress axis : x y z
#
# Youngs Moduli (GPa) = 90.07624 52.49117 85.93654
#
# Poissons Ratio (x) = 0.09539 0.20633
# Poissons Ratio (y) = 0.16370 0.48606
# Poissons Ratio (z) = 0.21627 0.29689
#
# Static dielectric constant tensor:
#      x y z
#    x 1.675140 0.000000 0.000000 
#    y 0.000000 1.702040 0.000000 
#    z 0.000000 0.000000 1.724440 
# 
# From -- ./inp_files/6690.got.cif
#   From: 2010.05.17/outbox.cif.g08.bks.cpg/sg73_4_cif.got.tgz:6690.got - 2010.06.03 17:35:07.
