data_PCOD9532658
_publ_section_title
;
Structure prediction by ZEFSAII (Michael W. Deem and Ramdas Pophale) SiO2 
 PCOD9532658
Probable space group: I B C A 
;
_chemical_formula_sum "Si O2"
_cell_formula_units_Z 104
_cell_length_a 10.598266
_cell_length_b 20.012355
_cell_length_c 19.846461
_cell_angle_alpha 90.000000
_cell_angle_beta 90.000000
_cell_angle_gamma 90.000000
_cell_volume 4209.360184
_symmetry_space_group_name_H-M "I B C A "
_symmetry_group_IT_number 73
_symmetry_cell_setting 'orthorhombic'
loop_
_space_group_symop_operation_xyz
x,y,z
-x,1/2-y,z
x,-y,1/2-z
1/2-x,y,-z
-x,-y,-z
x,1/2+y,-z
-x,y,1/2+z
1/2+x,-y,z
1/2+x,1/2+y,1/2+z
1/2-x,-y,1/2+z
1/2+x,1/2-y,-z
-x,1/2+y,1/2-z
1/2-x,1/2-y,1/2-z
1/2+x,y,1/2-z
1/2-x,1/2+y,z
x,1/2-y,1/2+z
loop_
_atom_site_type_symbol
_atom_site_label
_atom_site_fract_x
_atom_site_fract_y
_atom_site_fract_z
Si Si1 0.173264 0.461416 0.139156
Si Si2 0.022578 0.327163 0.943024
Si Si3 0.250000 0.912026 0.000000
Si Si4 0.849592 0.209110 0.346394
Si Si5 0.701068 0.151664 0.218810
Si Si6 0.160615 0.155745 0.058529
Si Si7 0.901497 0.056117 0.677314
O O1 0.182745 0.456108 0.057880
O O2 0.209978 0.388309 0.167845
O O3 0.280572 0.509039 0.169235
O O4 0.034930 0.478946 0.165644
O O5 0.000000 0.250000 0.918383
O O6 0.932670 0.351687 0.882181
O O7 0.149066 0.366343 0.958992
O O8 0.957726 0.322830 0.015339
O O9 0.788183 0.176923 0.279863
O O10 0.739382 0.213926 0.404319
O O11 0.133263 0.214487 0.317340
O O12 0.605872 0.100241 0.255144
O O13 0.114141 0.106332 0.114884
O O14 0.250000 0.125640 0.000000
#
# Coordination Sequence:
#
# PCOD9532658 Si02
#       7
#    16  16   8  16  16  16  16
#     4  12  28  47  74 104 149 196 258 315 372 441
#     4  11  23  39  72 106 155 185 232 298 374 458
#     4  12  28  46  70 114 148 200 248 302 376 458
#     4   9  21  43  74 111 141 188 232 304 375 462
#     4  10  23  46  76 107 146 188 250 303 387 448
#     4   9  20  40  70 103 141 185 236 297 373 440
#     4  11  26  48  72 104 142 201 251 319 368 441
#
# _framework density 24.706841000000001
#
# number of rings (size 3 to 8) (size 9 to 14) (size 15 to 20)
#    0.000    1.538    1.538    1.385    6.462    9.231 
#    0.000    5.385    0.000    0.000    0.000    0.000 
#    0.000    0.000    0.000    0.000    0.000    0.000 
#
# Total GULP energy -290062.053690 kJ/mol
# GULP energy per Si atom -5578.116417 kJ/mol
# Density = 2.465061 g / cm^3
# Si number density = 24.706841 Si / 1000 Ang^3
#
#
#
# Elastic Constant Matrix: (Units=GPa)
#
#
# Indices 1 2 3 4 5 6 
#
# 1 137.3630 45.6442 39.2713 0.0000 0.0000 0.0000
# 2 45.6442 77.5169 37.3922 0.0000 0.0000 0.0000
# 3 39.2713 37.3922 139.7977 0.0000 0.0000 0.0000
# 4 0.0000 0.0000 0.0000 47.7707 0.0000 0.0000
# 5 0.0000 0.0000 0.0000 0.0000 66.2585 0.0000
# 6 0.0000 0.0000 0.0000 0.0000 0.0000 8.9162
#
#
#
# Elastic Compliance Matrix: (Units=1/GPa)
#
#
# Indices 1 2 3 4 5 6 
#
# 1 0.009256 -0.004817 -0.001312 0.000000 0.000000 0.000000
# 2 -0.004817 0.017319 -0.003279 0.000000 0.000000 0.000000
# 3 -0.001312 -0.003279 0.008399 0.000000 0.000000 0.000000
# 4 0.000000 0.000000 0.000000 0.020933 0.000000 0.000000
# 5 0.000000 0.000000 0.000000 0.000000 0.015092 0.000000
# 6 0.000000 0.000000 0.000000 0.000000 0.000000 0.112155
#
#
# Mechanical properties :
#
#
# Convention : Reuss Voigt Hill
#
# Bulk Modulus (GPa) = 61.89180 66.58811 64.23995
# Shear Modulus (GPa) = 24.11320 40.08041 32.09681
#
# Velocity S-wave (km/s) = 3.12745 4.03207 3.60822
# Velocity P-wave (km/s) = 6.17625 6.97758 6.58911
#
# Compressibility (1/GPa) = 0.01615723
#
# Stress axis : x y z
#
# Youngs Moduli (GPa) = 108.04152 57.74090 119.06631
#
# Poissons Ratio (x) = 0.27816 0.15616
# Poissons Ratio (y) = 0.52048 0.39042
# Poissons Ratio (z) = 0.14170 0.18933
#
# Static dielectric constant tensor:
#      x y z
#    x 1.583040 0.000000 0.000000 
#    y 0.000000 1.461470 0.000000 
#    z 0.000000 0.000000 1.977890 
# 
# From -- ./inp_files/24953.got.cif
#   From: 2010.05.17/outbox.cif.g08.bks.cpg/sg73_13_cif.got.tgz:24953.got - 2010.06.03 17:35:07.
