data_PCOD9532206
_publ_section_title
;
Structure prediction by ZEFSAII (Michael W. Deem and Ramdas Pophale) SiO2 
 PCOD9532206
Probable space group: I B C A 
;
_chemical_formula_sum "Si O2"
_cell_formula_units_Z 64
_cell_length_a 12.502290
_cell_length_b 28.058393
_cell_length_c 8.601850
_cell_angle_alpha 90.000000
_cell_angle_beta 90.000000
_cell_angle_gamma 90.000000
_cell_volume 3017.478799
_symmetry_space_group_name_H-M "I B C A "
_symmetry_group_IT_number 73
_symmetry_cell_setting 'orthorhombic'
loop_
_space_group_symop_operation_xyz
x,y,z
-x,1/2-y,z
x,-y,1/2-z
1/2-x,y,-z
-x,-y,-z
x,1/2+y,-z
-x,y,1/2+z
1/2+x,-y,z
1/2+x,1/2+y,1/2+z
1/2-x,-y,1/2+z
1/2+x,1/2-y,-z
-x,1/2+y,1/2-z
1/2-x,1/2-y,1/2-z
1/2+x,y,1/2-z
1/2-x,1/2+y,z
x,1/2-y,1/2+z
loop_
_atom_site_type_symbol
_atom_site_label
_atom_site_fract_x
_atom_site_fract_y
_atom_site_fract_z
Si Si1 0.415664 0.561660 0.907824
Si Si2 0.632425 0.050299 0.946602
Si Si3 0.250000 0.132428 0.000000
Si Si4 0.158911 0.787986 0.701828
Si Si5 0.500000 0.250000 0.441634
O O1 0.381342 0.507326 0.945007
O O2 0.389129 0.568303 0.727219
O O3 0.350405 0.597434 0.016158
O O4 0.540442 0.567976 0.939074
O O5 0.750000 0.063011 0.000000
O O6 0.278248 0.165058 0.148204
O O7 0.250000 0.750000 0.750000
O O8 0.090173 0.773381 0.549978
O O9 0.067412 0.786926 0.834842
#
# Coordination Sequence:
#
# PCOD9532206 Si02
#       5
#    16  16   8  16   8
#     4  10  24  40  69 103 136 187 237 297 345 436
#     4  10  22  44  70  95 145 189 230 283 382 412
#     4  12  24  42  70 104 144 174 258 288 346 428
#     4  11  22  44  70  99 136 186 221 298 353 423
#     4  10  22  42  72  96 128 188 232 264 384 418
#
# _framework density 21.209762000000001
#
# number of rings (size 3 to 8) (size 9 to 14) (size 15 to 20)
#    0.000    1.500    3.750    0.000    3.500    4.000 
#    0.000    2.500    0.000    0.000    0.000    0.000 
#    0.000    0.000    0.000    0.000    0.000    0.000 
#
# Total GULP energy -178694.324182 kJ/mol
# GULP energy per Si atom -5584.197631 kJ/mol
# Density = 2.116149 g / cm^3
# Si number density = 21.209762 Si / 1000 Ang^3
#
#
#
# Elastic Constant Matrix: (Units=GPa)
#
#
# Indices 1 2 3 4 5 6 
#
# 1 214.0427 44.8704 90.2115 0.0000 -0.0002 0.0000
# 2 44.8704 73.4367 37.1337 -0.0004 -0.0002 0.0000
# 3 90.2115 37.1337 119.4476 -0.0009 -0.0005 0.0021
# 4 0.0000 -0.0004 -0.0009 1.1340 -0.0003 0.0002
# 5 -0.0002 -0.0002 -0.0005 -0.0003 50.7961 -0.0002
# 6 0.0000 0.0000 0.0021 0.0002 -0.0002 17.1120
#
#
#
# Elastic Compliance Matrix: (Units=1/GPa)
#
#
# Indices 1 2 3 4 5 6 
#
# 1 0.007075 -0.001923 -0.004746 -0.000004 0.000000 0.000001
# 2 -0.001923 0.016680 -0.003733 0.000002 0.000000 0.000000
# 3 -0.004746 -0.003733 0.013116 0.000009 0.000000 -0.000002
# 4 -0.000004 0.000002 0.000009 0.881844 0.000006 -0.000012
# 5 0.000000 0.000000 0.000000 0.000006 0.019687 0.000000
# 6 0.000001 0.000000 -0.000002 -0.000012 0.000000 0.058438
#
#
# Mechanical properties :
#
#
# Convention : Reuss Voigt Hill
#
# Bulk Modulus (GPa) = 62.23559 83.48427 72.85993
# Shear Modulus (GPa) = 4.88759 29.45585 17.17172
#
# Velocity S-wave (km/s) = 1.51967 3.73069 2.84846
# Velocity P-wave (km/s) = 5.69963 7.61604 6.72644
#
# Compressibility (1/GPa) = 0.01606798
#
# Stress axis : x y z
#
# Youngs Moduli (GPa) = 141.33733 59.95245 76.24073
#
# Poissons Ratio (x) = 0.11531 0.36181
# Poissons Ratio (y) = 0.27185 0.28459
# Poissons Ratio (z) = 0.67073 0.22379
#
# Static dielectric constant tensor:
#      x y z
#    x 1.660130 0.000000 0.000000 
#    y 0.000000 1.788410 0.000000 
#    z 0.000000 0.000000 1.770260 
# 
# From -- ./inp_files/4012.got.cif
#   From: 2010.05.17/outbox.cif.g08.bks.cpg/sg73_3_cif.got.tgz:4012.got - 2010.06.03 17:35:07.
