data_PCOD9532536
_publ_section_title
;
Structure prediction by ZEFSAII (Michael W. Deem and Ramdas Pophale) SiO2 
 PCOD9532536
Probable space group: I B C A 
;
_chemical_formula_sum "Si O2"
_cell_formula_units_Z 80
_cell_length_a 16.454163
_cell_length_b 9.227518
_cell_length_c 22.784341
_cell_angle_alpha 90.000000
_cell_angle_beta 90.000000
_cell_angle_gamma 90.000000
_cell_volume 3459.371221
_symmetry_space_group_name_H-M "I B C A "
_symmetry_group_IT_number 73
_symmetry_cell_setting 'orthorhombic'
loop_
_space_group_symop_operation_xyz
x,y,z
-x,1/2-y,z
x,-y,1/2-z
1/2-x,y,-z
-x,-y,-z
x,1/2+y,-z
-x,y,1/2+z
1/2+x,-y,z
1/2+x,1/2+y,1/2+z
1/2-x,-y,1/2+z
1/2+x,1/2-y,-z
-x,1/2+y,1/2-z
1/2-x,1/2-y,1/2-z
1/2+x,y,1/2-z
1/2-x,1/2+y,z
x,1/2-y,1/2+z
loop_
_atom_site_type_symbol
_atom_site_label
_atom_site_fract_x
_atom_site_fract_y
_atom_site_fract_z
Si Si1 0.151104 0.982890 0.380303
Si Si2 0.725065 0.696624 0.136093
Si Si3 0.364592 0.574517 0.840418
Si Si4 0.012277 0.919471 0.560792
Si Si5 0.000000 0.250000 0.269116
Si Si6 0.387543 0.500000 0.250000
O O1 0.166790 0.815300 0.393751
O O2 0.159619 0.016866 0.310400
O O3 0.221311 0.089157 0.404581
O O4 0.061786 0.028956 0.398084
O O5 0.669652 0.585730 0.174563
O O6 0.791472 0.808967 0.163311
O O7 0.402351 0.557980 0.905860
O O8 0.439334 0.646187 0.805719
O O9 0.000000 0.750000 0.551691
O O10 0.000000 0.000000 0.500000
O O11 0.942766 0.361055 0.236094
#
# Coordination Sequence:
#
# PCOD9532536 Si02
#       6
#    16  16  16  16   8   8
#     4  11  24  46  67 102 137 180 229 278 348 403
#     4  10  23  42  71  95 142 178 217 285 340 421
#     4  11  21  48  67  95 138 173 227 279 343 401
#     4  12  25  46  71  97 134 179 234 288 338 408
#     4  12  24  44  68  96 140 184 228 292 320 418
#     4  12  24  40  70 100 132 182 232 274 344 400
#
# _framework density 23.125588
#
# number of rings (size 3 to 8) (size 9 to 14) (size 15 to 20)
#    0.000    0.800    7.000    0.000    5.600    0.800 
#    0.000    6.000    0.000    0.000    0.000    0.000 
#    0.000    0.000    0.000    0.000    0.000    0.000 
#
# Total GULP energy -223262.118795 kJ/mol
# GULP energy per Si atom -5581.552970 kJ/mol
# Density = 2.307295 g / cm^3
# Si number density = 23.125588 Si / 1000 Ang^3
#
#
#
# Elastic Constant Matrix: (Units=GPa)
#
#
# Indices 1 2 3 4 5 6 
#
# 1 117.2546 69.9185 24.4197 0.0000 0.0000 0.0000
# 2 69.9185 208.7615 17.6006 0.0000 0.0000 0.0000
# 3 24.4197 17.6006 67.9617 0.0000 0.0000 0.0000
# 4 0.0000 0.0000 0.0000 28.2174 0.0000 0.0000
# 5 0.0000 0.0000 0.0000 0.0000 1.5789 0.0000
# 6 0.0000 0.0000 0.0000 0.0000 0.0000 60.5754
#
#
#
# Elastic Compliance Matrix: (Units=1/GPa)
#
#
# Indices 1 2 3 4 5 6 
#
# 1 0.011277 -0.003512 -0.003143 0.000000 0.000000 0.000000
# 2 -0.003512 0.005991 -0.000290 0.000000 0.000000 0.000000
# 3 -0.003143 -0.000290 0.015918 0.000000 0.000000 0.000000
# 4 0.000000 0.000000 0.000000 0.035439 0.000000 0.000000
# 5 0.000000 0.000000 0.000000 0.000000 0.633338 0.000000
# 6 0.000000 0.000000 0.000000 0.000000 0.000000 0.016508
#
#
# Mechanical properties :
#
#
# Convention : Reuss Voigt Hill
#
# Bulk Modulus (GPa) = 51.81864 68.65060 60.23462
# Shear Modulus (GPa) = 6.76780 36.87695 21.82237
#
# Velocity S-wave (km/s) = 1.71257 3.99762 3.07522
# Velocity P-wave (km/s) = 5.13485 7.14552 6.22194
#
# Compressibility (1/GPa) = 0.01929808
#
# Stress axis : x y z
#
# Youngs Moduli (GPa) = 88.67527 166.92246 62.82070
#
# Poissons Ratio (x) = 0.58623 0.19741
# Poissons Ratio (y) = 0.31143 0.01819
# Poissons Ratio (z) = 0.27866 0.04834
#
# Static dielectric constant tensor:
#      x y z
#    x 1.902370 0.000000 0.000000 
#    y 0.000000 1.975150 0.000000 
#    z 0.000000 0.000000 1.905720 
# 
# From -- ./inp_files/32331.got.cif
#   From: 2010.05.17/outbox.cif.g08.bks.cpg/sg73_17_cif.got.tgz:32331.got - 2010.06.03 17:35:07.
