data_PCOD9532874
_publ_section_title
;
Structure prediction by ZEFSAII (Michael W. Deem and Ramdas Pophale) SiO2 
 PCOD9532874
Probable space group: I B C A 
;
_chemical_formula_sum "Si O2"
_cell_formula_units_Z 72
_cell_length_a 9.059019
_cell_length_b 14.553791
_cell_length_c 25.668551
_cell_angle_alpha 90.000000
_cell_angle_beta 90.000000
_cell_angle_gamma 90.000000
_cell_volume 3384.220546
_symmetry_space_group_name_H-M "I B C A "
_symmetry_group_IT_number 73
_symmetry_cell_setting 'orthorhombic'
loop_
_space_group_symop_operation_xyz
x,y,z
-x,1/2-y,z
x,-y,1/2-z
1/2-x,y,-z
-x,-y,-z
x,1/2+y,-z
-x,y,1/2+z
1/2+x,-y,z
1/2+x,1/2+y,1/2+z
1/2-x,-y,1/2+z
1/2+x,1/2-y,-z
-x,1/2+y,1/2-z
1/2-x,1/2-y,1/2-z
1/2+x,y,1/2-z
1/2-x,1/2+y,z
x,1/2-y,1/2+z
loop_
_atom_site_type_symbol
_atom_site_label
_atom_site_fract_x
_atom_site_fract_y
_atom_site_fract_z
Si Si1 0.122378 0.680908 0.765056
Si Si2 0.412124 0.883842 0.851681
Si Si3 0.254020 0.928162 0.639408
Si Si4 0.237111 0.264444 0.426551
Si Si5 0.000000 0.250000 0.509225
O O1 0.250000 0.750000 0.750000
O O2 0.077789 0.636558 0.710072
O O3 0.181634 0.607224 0.805580
O O4 0.000000 0.750000 0.787892
O O5 0.578360 0.913947 0.865010
O O6 0.345277 0.796149 0.882513
O O7 0.305056 0.968017 0.865329
O O8 0.312116 0.854758 0.597448
O O9 0.112319 0.297368 0.467982
O O10 0.371281 0.208566 0.453897
#
# Coordination Sequence:
#
# PCOD9532874 Si02
#       5
#    16  16  16  16   8
#     4  12  24  43  71  99 138 183 221 271 333 400
#     4  12  26  45  67 104 142 181 225 284 333 416
#     4  12  27  43  70 103 144 179 228 276 343 408
#     4  11  23  49  70  98 136 177 231 284 353 399
#     4  10  24  44  78  94 128 182 228 294 346 406
#
# _framework density 21.275209
#
# number of rings (size 3 to 8) (size 9 to 14) (size 15 to 20)
#    0.000    0.444    6.667    0.667    7.778    1.778 
#    0.000    6.667    0.000    0.000    0.000    0.000 
#    0.000    0.000    0.000    0.000    0.000    0.000 
#
# Total GULP energy -200640.509347 kJ/mol
# GULP energy per Si atom -5573.347482 kJ/mol
# Density = 2.122679 g / cm^3
# Si number density = 21.275209 Si / 1000 Ang^3
#
#
#
# Elastic Constant Matrix: (Units=GPa)
#
#
# Indices 1 2 3 4 5 6 
#
# 1 93.2073 2.0766 13.9937 0.0000 0.0000 0.0000
# 2 2.0766 83.7495 3.5907 0.0000 0.0000 0.0000
# 3 13.9937 3.5907 81.2835 0.0000 0.0000 0.0000
# 4 0.0000 0.0000 0.0000 -8.5875 0.0000 0.0000
# 5 0.0000 0.0000 0.0000 0.0000 28.8394 0.0000
# 6 0.0000 0.0000 0.0000 0.0000 0.0000 33.8454
#
#
#
# Elastic Compliance Matrix: (Units=1/GPa)
#
#
# Indices 1 2 3 4 5 6 
#
# 1 0.011017 -0.000192 -0.001888 0.000000 0.000000 0.000000
# 2 -0.000192 0.011966 -0.000496 0.000000 0.000000 0.000000
# 3 -0.001888 -0.000496 0.012650 0.000000 0.000000 0.000000
# 4 0.000000 0.000000 0.000000 -0.116449 0.000000 0.000000
# 5 0.000000 0.000000 0.000000 0.000000 0.034675 0.000000
# 6 0.000000 0.000000 0.000000 0.000000 0.000000 0.029546
#
#
# Mechanical properties :
#
#
# Convention : Reuss Voigt Hill
#
# Bulk Modulus (GPa) = 32.80755 33.06249 32.93502
# Shear Modulus (GPa) = -3896.17856 26.72476 -1934.72690
#
# Velocity S-wave (km/s) = -42.84039 3.54806 -30.18866
# Velocity P-wave (km/s) = 49.31137 5.68850 34.63562
#
# Compressibility (1/GPa) = 0.03048078
#
# Stress axis : x y z
#
# Youngs Moduli (GPa) = 90.77275 83.56746 79.05414
#
# Poissons Ratio (x) = 0.01606 0.14926
# Poissons Ratio (y) = 0.01745 0.03917
# Poissons Ratio (z) = 0.17139 0.04141
#
# Static dielectric constant tensor:
#      x y z
#    x 2.067540 0.000000 0.000000 
#    y 0.000000 1.773660 0.000000 
#    z 0.000000 0.000000 1.946290 
# 
# From -- ./inp_files/7611.got.cif
#   From: 2010.05.17/outbox.cif.g08.bks.cpg/sg73_4_cif.got.tgz:7611.got - 2010.06.03 17:35:07.
