data_PCOD9532357
_publ_section_title
;
Structure prediction by ZEFSAII (Michael W. Deem and Ramdas Pophale) SiO2 
 PCOD9532357
Probable space group: I B C A 
;
_chemical_formula_sum "Si O2"
_cell_formula_units_Z 88
_cell_length_a 11.036246
_cell_length_b 28.174276
_cell_length_c 10.421467
_cell_angle_alpha 90.000000
_cell_angle_beta 90.000000
_cell_angle_gamma 90.000000
_cell_volume 3240.432616
_symmetry_space_group_name_H-M "I B C A "
_symmetry_group_IT_number 73
_symmetry_cell_setting 'orthorhombic'
loop_
_space_group_symop_operation_xyz
x,y,z
-x,1/2-y,z
x,-y,1/2-z
1/2-x,y,-z
-x,-y,-z
x,1/2+y,-z
-x,y,1/2+z
1/2+x,-y,z
1/2+x,1/2+y,1/2+z
1/2-x,-y,1/2+z
1/2+x,1/2-y,-z
-x,1/2+y,1/2-z
1/2-x,1/2-y,1/2-z
1/2+x,y,1/2-z
1/2-x,1/2+y,z
x,1/2-y,1/2+z
loop_
_atom_site_type_symbol
_atom_site_label
_atom_site_fract_x
_atom_site_fract_y
_atom_site_fract_z
Si Si1 0.887819 0.546693 0.988798
Si Si2 0.101831 0.649721 0.796163
Si Si3 0.750000 0.091087 0.500000
Si Si4 0.649483 0.354040 0.357550
Si Si5 0.435326 0.468701 0.663919
Si Si6 0.174195 0.247472 0.119692
O O1 0.877753 0.602362 0.950389
O O2 0.912355 0.528148 0.822819
O O3 0.750000 0.528048 0.000000
O O4 0.933124 0.552386 0.142610
O O5 0.150330 0.619816 0.918688
O O6 0.216938 0.644693 0.702899
O O7 0.088502 0.704494 0.841726
O O8 0.962622 0.639698 0.756785
O O9 0.670592 0.059836 0.598570
O O10 0.640715 0.301316 0.416505
O O11 0.500000 0.500000 0.500000
O O12 0.250000 0.250000 0.250000
O O13 0.250000 0.228600 0.000000
#
# Coordination Sequence:
#
# PCOD9532357 Si02
#       6
#    16  16   8  16  16  16
#     4  11  24  44  67 103 140 184 245 308 379 466
#     4  11  24  45  75 110 151 206 260 324 392 473
#     4  12  22  48  74 106 148 194 258 310 402 474
#     4  11  24  45  73 111 152 205 261 322 393 475
#     4  11  25  45  71 101 141 189 245 321 392 465
#     4  10  22  45  72 111 158 210 262 328 391 469
#
# _framework density 27.156869
#
# number of rings (size 3 to 8) (size 9 to 14) (size 15 to 20)
#    0.000    1.091    3.636    2.182    0.000    3.636 
#    6.545    3.636    0.000    0.000    0.000    0.000 
#    0.000    0.000    0.000    0.000    0.000    0.000 
#
# Total GULP energy -244983.605865 kJ/mol
# GULP energy per Si atom -5567.809224 kJ/mol
# Density = 2.709506 g / cm^3
# Si number density = 27.156869 Si / 1000 Ang^3
#
#
#
# Elastic Constant Matrix: (Units=GPa)
#
#
# Indices 1 2 3 4 5 6 
#
# 1 213.9338 43.9592 72.3299 0.0001 0.0000 0.0004
# 2 43.9592 174.2010 65.3425 0.0003 0.0000 -0.0007
# 3 72.3299 65.3425 119.5521 0.0024 -0.0008 0.0028
# 4 0.0001 0.0003 0.0024 39.1495 -0.0002 0.0001
# 5 0.0000 0.0000 -0.0008 -0.0002 53.6915 0.0002
# 6 0.0004 -0.0007 0.0028 0.0001 0.0002 -12.9737
#
#
#
# Elastic Compliance Matrix: (Units=1/GPa)
#
#
# Indices 1 2 3 4 5 6 
#
# 1 0.005881 -0.000188 -0.003455 0.000000 0.000000 -0.000001
# 2 -0.000188 0.007227 -0.003836 0.000000 0.000000 -0.000001
# 3 -0.003455 -0.003836 0.012552 -0.000001 0.000000 0.000003
# 4 0.000000 0.000000 -0.000001 0.025543 0.000000 0.000000
# 5 0.000000 0.000000 0.000000 0.000000 0.018625 0.000000
# 6 -0.000001 -0.000001 0.000003 0.000000 0.000000 -0.077079
#
#
# Mechanical properties :
#
#
# Convention : Reuss Voigt Hill
#
# Bulk Modulus (GPa) = 93.45182 96.77222 95.11202
# Shear Modulus (GPa) = 443.45988 37.71048 240.58518
#
# Velocity S-wave (km/s) = 12.79258 3.73046 9.42249
# Velocity P-wave (km/s) = 15.89612 7.36661 12.38858
#
# Compressibility (1/GPa) = 0.01070070
#
# Stress axis : x y z
#
# Youngs Moduli (GPa) = 170.03221 138.37220 79.66962
#
# Poissons Ratio (x) = 0.02601 0.27529
# Poissons Ratio (y) = 0.03196 0.30563
# Poissons Ratio (z) = 0.58754 0.53082
#
# Static dielectric constant tensor:
#      x y z
#    x 1.980300 0.000000 0.000000 
#    y 0.000000 1.123740 0.000000 
#    z 0.000000 0.000000 1.403300 
# 
# From -- ./inp_files/9896.got.cif
#   From: 2010.05.17/outbox.cif.g08.bks.cpg/sg73_5_cif.got.tgz:9896.got - 2010.06.03 17:35:07.
