data_PCOD9532440
_publ_section_title
;
Structure prediction by ZEFSAII (Michael W. Deem and Ramdas Pophale) SiO2 
 PCOD9532440
Probable space group: I B C A 
;
_chemical_formula_sum "Si O2"
_cell_formula_units_Z 96
_cell_length_a 24.985735
_cell_length_b 8.199222
_cell_length_c 20.722520
_cell_angle_alpha 90.000000
_cell_angle_beta 90.000000
_cell_angle_gamma 90.000000
_cell_volume 4245.289802
_symmetry_space_group_name_H-M "I B C A "
_symmetry_group_IT_number 73
_symmetry_cell_setting 'orthorhombic'
loop_
_space_group_symop_operation_xyz
x,y,z
-x,1/2-y,z
x,-y,1/2-z
1/2-x,y,-z
-x,-y,-z
x,1/2+y,-z
-x,y,1/2+z
1/2+x,-y,z
1/2+x,1/2+y,1/2+z
1/2-x,-y,1/2+z
1/2+x,1/2-y,-z
-x,1/2+y,1/2-z
1/2-x,1/2-y,1/2-z
1/2+x,y,1/2-z
1/2-x,1/2+y,z
x,1/2-y,1/2+z
loop_
_atom_site_type_symbol
_atom_site_label
_atom_site_fract_x
_atom_site_fract_y
_atom_site_fract_z
Si Si1 0.764171 0.885298 0.184776
Si Si2 0.550689 0.131113 0.803489
Si Si3 0.061297 0.793332 0.939439
Si Si4 0.343458 0.682844 0.235859
Si Si5 0.627951 0.985085 0.457565
Si Si6 0.297533 0.193071 0.050326
O O1 0.703193 0.821443 0.181863
O O2 0.809127 0.755652 0.205373
O O3 0.778638 0.917797 0.110912
O O4 0.764981 0.000000 0.250000
O O5 0.500000 0.250000 0.807342
O O6 0.562268 0.085473 0.877829
O O7 0.605715 0.210683 0.779394
O O8 0.536556 0.000000 0.750000
O O9 0.094617 0.627578 0.920926
O O10 0.000000 0.750000 0.952568
O O11 0.086195 0.876954 0.001829
O O12 0.360918 0.500000 0.250000
O O13 0.669740 0.855338 0.427454
O O14 0.662434 0.084794 0.508981
O O15 0.250000 0.237816 0.000000
#
# Coordination Sequence:
#
# PCOD9532440 Si02
#       6
#    16  16  16  16  16  16
#     4  10  24  42  65 101 138 190 231 283 353 421
#     4  11  25  45  70 101 138 180 228 294 361 420
#     4  10  23  45  72  99 135 180 233 292 348 421
#     4  10  23  39  65  94 135 178 231 285 343 427
#     4  10  24  42  68 104 134 186 232 285 354 419
#     4  11  25  41  67 103 144 183 233 291 350 423
#
# _framework density 22.613295999999998
#
# number of rings (size 3 to 8) (size 9 to 14) (size 15 to 20)
#    0.000    1.667    0.000    2.000   11.667    6.000 
#    0.000    0.833    0.000    0.000    0.000    0.000 
#    0.000    0.000    0.000    0.000    0.000    0.000 
#
# Total GULP energy -267751.834097 kJ/mol
# GULP energy per Si atom -5578.163210 kJ/mol
# Density = 2.256183 g / cm^3
# Si number density = 22.613296 Si / 1000 Ang^3
#
#
#
# Elastic Constant Matrix: (Units=GPa)
#
#
# Indices 1 2 3 4 5 6 
#
# 1 107.8149 5.7376 23.5020 0.0000 0.0000 0.0000
# 2 5.7376 43.1915 20.7419 0.0000 0.0000 0.0000
# 3 23.5020 20.7419 95.7206 0.0000 0.0000 0.0000
# 4 0.0000 0.0000 0.0000 27.6492 0.0000 0.0000
# 5 0.0000 0.0000 0.0000 0.0000 -9.7041 0.0000
# 6 0.0000 0.0000 0.0000 0.0000 0.0000 23.6976
#
#
#
# Elastic Compliance Matrix: (Units=1/GPa)
#
#
# Indices 1 2 3 4 5 6 
#
# 1 0.009801 -0.000163 -0.002371 0.000000 0.000000 0.000000
# 2 -0.000163 0.025845 -0.005560 0.000000 0.000000 0.000000
# 3 -0.002371 -0.005560 0.012234 0.000000 0.000000 0.000000
# 4 0.000000 0.000000 0.000000 0.036167 0.000000 0.000000
# 5 0.000000 0.000000 0.000000 0.000000 -0.103049 0.000000
# 6 0.000000 0.000000 0.000000 0.000000 0.000000 0.042198
#
#
# Mechanical properties :
#
#
# Convention : Reuss Voigt Hill
#
# Bulk Modulus (GPa) = 31.55534 38.52109 35.03822
# Shear Modulus (GPa) = 100.10368 21.44491 60.77430
#
# Velocity S-wave (km/s) = 6.66061 3.08284 5.18978
# Velocity P-wave (km/s) = 8.55197 5.45377 7.17216
#
# Compressibility (1/GPa) = 0.03169036
#
# Stress axis : x y z
#
# Youngs Moduli (GPa) = 102.03376 38.69284 81.73906
#
# Poissons Ratio (x) = 0.00632 0.19380
# Poissons Ratio (y) = 0.01666 0.45449
# Poissons Ratio (z) = 0.24192 0.21514
#
# Static dielectric constant tensor:
#      x y z
#    x 1.812530 0.000000 0.000000 
#    y 0.000000 1.955660 0.000000 
#    z 0.000000 0.000000 1.895860 
# 
# From -- ./inp_files/27510.got.cif
#   From: 2010.05.17/outbox.cif.g08.bks.cpg/sg73_14_cif.got.tgz:27510.got - 2010.06.03 17:35:07.
