data_PCOD9532808
_publ_section_title
;
Structure prediction by ZEFSAII (Michael W. Deem and Ramdas Pophale) SiO2 
 PCOD9532808
Probable space group: I B C A 
;
_chemical_formula_sum "Si O2"
_cell_formula_units_Z 96
_cell_length_a 13.153577
_cell_length_b 25.463998
_cell_length_c 14.519971
_cell_angle_alpha 90.000000
_cell_angle_beta 90.000000
_cell_angle_gamma 90.000000
_cell_volume 4863.357687
_symmetry_space_group_name_H-M "I B C A "
_symmetry_group_IT_number 73
_symmetry_cell_setting 'orthorhombic'
loop_
_space_group_symop_operation_xyz
x,y,z
-x,1/2-y,z
x,-y,1/2-z
1/2-x,y,-z
-x,-y,-z
x,1/2+y,-z
-x,y,1/2+z
1/2+x,-y,z
1/2+x,1/2+y,1/2+z
1/2-x,-y,1/2+z
1/2+x,1/2-y,-z
-x,1/2+y,1/2-z
1/2-x,1/2-y,1/2-z
1/2+x,y,1/2-z
1/2-x,1/2+y,z
x,1/2-y,1/2+z
loop_
_atom_site_type_symbol
_atom_site_label
_atom_site_fract_x
_atom_site_fract_y
_atom_site_fract_z
Si Si1 0.000000 0.250000 0.694280
Si Si2 0.219847 0.382452 0.644294
Si Si3 0.642937 0.213659 0.466292
Si Si4 0.424182 0.000000 0.250000
Si Si5 0.085386 0.084551 0.307713
Si Si6 0.245748 0.495598 0.894000
Si Si7 0.058656 0.830642 0.645849
O O1 0.907833 0.240267 0.622351
O O2 0.971895 0.297591 0.763467
O O3 0.168739 0.345003 0.569428
O O4 0.152377 0.382559 0.735918
O O5 0.219966 0.442810 0.613464
O O6 0.333179 0.360197 0.660629
O O7 0.750000 0.237974 0.500000
O O8 0.575191 0.205969 0.556965
O O9 0.495655 0.050500 0.238425
O O10 0.350032 0.990685 0.163215
O O11 0.027795 0.125872 0.372482
O O12 0.160630 0.041475 0.349907
O O13 0.250000 0.481000 0.000000
#
# Coordination Sequence:
#
# PCOD9532808 Si02
#       7
#     8  16  16   8  16  16  16
#     4  12  24  46  72  96 128 174 220 282 340 388
#     4  11  21  43  65  93 132 173 212 270 325 392
#     4  10  24  43  67  98 129 168 221 272 333 402
#     4  12  22  40  66  90 132 178 224 260 316 400
#     4  12  22  42  65  95 134 177 219 268 323 387
#     4  12  24  39  63  99 136 173 220 267 321 390
#     4  11  24  43  70  96 128 171 225 268 338 394
#
# _framework density 19.739447999999999
#
# number of rings (size 3 to 8) (size 9 to 14) (size 15 to 20)
#    0.000    0.667    6.667    2.000    0.000    4.667 
#    6.000    0.000    0.000    0.000    0.000    0.000 
#    0.000    0.000    0.000    0.000    0.000    0.000 
#
# Total GULP energy -268008.287276 kJ/mol
# GULP energy per Si atom -5583.505985 kJ/mol
# Density = 1.969452 g / cm^3
# Si number density = 19.739448 Si / 1000 Ang^3
#
#
#
# Elastic Constant Matrix: (Units=GPa)
#
#
# Indices 1 2 3 4 5 6 
#
# 1 107.5233 44.0107 47.1712 0.0000 0.0000 0.0000
# 2 44.0107 68.6807 24.0255 0.0001 0.0000 0.0000
# 3 47.1712 24.0255 109.7718 0.0001 0.0000 0.0000
# 4 0.0000 0.0001 0.0001 17.4032 0.0000 0.0000
# 5 0.0000 0.0000 0.0000 0.0000 23.2689 0.0000
# 6 0.0000 0.0000 0.0000 0.0000 0.0000 25.3390
#
#
#
# Elastic Compliance Matrix: (Units=1/GPa)
#
#
# Indices 1 2 3 4 5 6 
#
# 1 0.014417 -0.007658 -0.004519 0.000000 0.000000 0.000000
# 2 -0.007658 0.019835 -0.001050 0.000000 0.000000 0.000000
# 3 -0.004519 -0.001050 0.011282 0.000000 0.000000 0.000000
# 4 0.000000 0.000000 0.000000 0.057461 0.000000 0.000000
# 5 0.000000 0.000000 0.000000 0.000000 0.042976 0.000000
# 6 0.000000 0.000000 0.000000 0.000000 0.000000 0.039465
#
#
# Mechanical properties :
#
#
# Convention : Reuss Voigt Hill
#
# Bulk Modulus (GPa) = 52.41470 57.37674 54.89572
# Shear Modulus (GPa) = 22.90949 24.58679 23.74814
#
# Velocity S-wave (km/s) = 3.41045 3.53309 3.47231
# Velocity P-wave (km/s) = 6.48992 6.76563 6.62921
#
# Compressibility (1/GPa) = 0.01907862
#
# Stress axis : x y z
#
# Youngs Moduli (GPa) = 69.36047 50.41669 88.63819
#
# Poissons Ratio (x) = 0.38608 0.40059
# Poissons Ratio (y) = 0.53114 0.09311
# Poissons Ratio (z) = 0.31347 0.05296
#
# Static dielectric constant tensor:
#      x y z
#    x 1.711840 0.000000 0.000000 
#    y 0.000000 1.690090 0.000000 
#    z 0.000000 0.000000 1.664830 
# 
# From -- ./inp_files/14781.got.cif
#   From: 2010.05.17/outbox.cif.g08.bks.cpg/sg73_8_cif.got.tgz:14781.got - 2010.06.03 17:35:07.
