data_PCOD9532913
_publ_section_title
;
Structure prediction by ZEFSAII (Michael W. Deem and Ramdas Pophale) SiO2 
 PCOD9532913
Probable space group: I B C A 
;
_chemical_formula_sum "Si O2"
_cell_formula_units_Z 88
_cell_length_a 12.921350
_cell_length_b 20.458402
_cell_length_c 13.766236
_cell_angle_alpha 90.000000
_cell_angle_beta 90.000000
_cell_angle_gamma 90.000000
_cell_volume 3639.106864
_symmetry_space_group_name_H-M "I B C A "
_symmetry_group_IT_number 73
_symmetry_cell_setting 'orthorhombic'
loop_
_space_group_symop_operation_xyz
x,y,z
-x,1/2-y,z
x,-y,1/2-z
1/2-x,y,-z
-x,-y,-z
x,1/2+y,-z
-x,y,1/2+z
1/2+x,-y,z
1/2+x,1/2+y,1/2+z
1/2-x,-y,1/2+z
1/2+x,1/2-y,-z
-x,1/2+y,1/2-z
1/2-x,1/2-y,1/2-z
1/2+x,y,1/2-z
1/2-x,1/2+y,z
x,1/2-y,1/2+z
loop_
_atom_site_type_symbol
_atom_site_label
_atom_site_fract_x
_atom_site_fract_y
_atom_site_fract_z
Si Si1 0.214038 0.426273 0.731309
Si Si2 0.341333 0.670484 0.649445
Si Si3 0.073143 0.189740 0.859883
Si Si4 0.750000 0.226413 0.500000
Si Si5 0.075649 0.552801 0.112986
Si Si6 0.470264 0.581415 0.104862
O O1 0.177534 0.500000 0.750000
O O2 0.255247 0.384329 0.822134
O O3 0.314147 0.437701 0.663302
O O4 0.122435 0.393025 0.671461
O O5 0.376310 0.698438 0.754002
O O6 0.299329 0.726427 0.580858
O O7 0.439443 0.634981 0.599890
O O8 0.016472 0.119372 0.856993
O O9 0.000000 0.250000 0.881574
O O10 0.160875 0.187351 0.943319
O O11 0.027208 0.484132 0.142861
O O12 0.077146 0.557084 0.996775
#
# Coordination Sequence:
#
# PCOD9532913 Si02
#       6
#    16  16  16   8  16  16
#     4  11  24  40  71 104 149 180 229 302 371 442
#     4  11  27  47  76 109 143 187 252 297 386 429
#     4  11  27  47  75 103 147 196 250 295 363 438
#     4  12  28  52  70 108 146 198 246 318 342 456
#     4  10  24  46  68 110 138 190 246 296 370 438
#     4  11  24  44  75 105 145 187 237 308 374 437
#
# _framework density 24.181757999999999
#
# number of rings (size 3 to 8) (size 9 to 14) (size 15 to 20)
#    0.000    1.091    1.818    2.182   12.727    5.091 
#    0.000    0.000    0.000    0.000    0.000    0.000 
#    0.000    0.000    0.000    0.000    0.000    0.000 
#
# Total GULP energy -246419.854048 kJ/mol
# GULP energy per Si atom -5600.451228 kJ/mol
# Density = 2.412672 g / cm^3
# Si number density = 24.181758 Si / 1000 Ang^3
#
#
#
# Elastic Constant Matrix: (Units=GPa)
#
#
# Indices 1 2 3 4 5 6 
#
# 1 63.7321 12.7937 -5.0842 0.0001 0.0000 0.0000
# 2 12.7937 82.7579 -15.9194 -0.0001 0.0002 0.0000
# 3 -5.0842 -15.9194 83.7491 -0.0003 0.0004 0.0001
# 4 0.0001 -0.0001 -0.0003 39.9555 0.0002 0.0001
# 5 0.0000 0.0002 0.0004 0.0002 15.4356 -0.0001
# 6 0.0000 0.0000 0.0001 0.0001 -0.0001 22.7571
#
#
#
# Elastic Compliance Matrix: (Units=1/GPa)
#
#
# Indices 1 2 3 4 5 6 
#
# 1 0.016216 -0.002405 0.000527 0.000000 0.000000 0.000000
# 2 -0.002405 0.012899 0.002306 0.000000 0.000000 0.000000
# 3 0.000527 0.002306 0.012411 0.000000 0.000000 0.000000
# 4 0.000000 0.000000 0.000000 0.025028 0.000000 0.000000
# 5 0.000000 0.000000 0.000000 0.000000 0.064785 0.000000
# 6 0.000000 0.000000 0.000000 0.000000 0.000000 0.043942
#
#
# Mechanical properties :
#
#
# Convention : Reuss Voigt Hill
#
# Bulk Modulus (GPa) = 23.59578 23.75770 23.67674
# Shear Modulus (GPa) = 26.51785 31.52623 29.02204
#
# Velocity S-wave (km/s) = 3.31510 3.61462 3.46809
# Velocity P-wave (km/s) = 4.94287 5.22175 5.08422
#
# Compressibility (1/GPa) = 0.04238046
#
# Stress axis : x y z
#
# Youngs Moduli (GPa) = 61.66904 77.52624 80.57534
#
# Poissons Ratio (x) = 0.18648 -0.04248
# Poissons Ratio (y) = 0.14834 -0.18579
# Poissons Ratio (z) = -0.03251 -0.17876
#
# Static dielectric constant tensor:
#      x y z
#    x 1.931570 0.000000 0.000000 
#    y 0.000000 1.937480 0.000000 
#    z 0.000000 0.000000 1.943220 
# 
# From -- ./inp_files/16132.got.cif
#   From: 2010.05.17/outbox.cif.g08.bks.cpg/sg73_9_cif.got.tgz:16132.got - 2010.06.03 17:35:07.
