data_PCOD9532861
_publ_section_title
;
Structure prediction by ZEFSAII (Michael W. Deem and Ramdas Pophale) SiO2 
 PCOD9532861
Probable space group: I B C A 
;
_chemical_formula_sum "Si O2"
_cell_formula_units_Z 72
_cell_length_a 16.287881
_cell_length_b 22.087703
_cell_length_c 7.573593
_cell_angle_alpha 90.000000
_cell_angle_beta 90.000000
_cell_angle_gamma 90.000000
_cell_volume 2724.690041
_symmetry_space_group_name_H-M "I B C A "
_symmetry_group_IT_number 73
_symmetry_cell_setting 'orthorhombic'
loop_
_space_group_symop_operation_xyz
x,y,z
-x,1/2-y,z
x,-y,1/2-z
1/2-x,y,-z
-x,-y,-z
x,1/2+y,-z
-x,y,1/2+z
1/2+x,-y,z
1/2+x,1/2+y,1/2+z
1/2-x,-y,1/2+z
1/2+x,1/2-y,-z
-x,1/2+y,1/2-z
1/2-x,1/2-y,1/2-z
1/2+x,y,1/2-z
1/2-x,1/2+y,z
x,1/2-y,1/2+z
loop_
_atom_site_type_symbol
_atom_site_label
_atom_site_fract_x
_atom_site_fract_y
_atom_site_fract_z
Si Si1 0.182019 0.620065 0.794020
Si Si2 0.250000 0.224921 0.000000
Si Si3 0.944946 0.128118 0.387149
Si Si4 0.750000 0.489232 0.000000
Si Si5 0.886091 0.324651 0.523196
Si Si6 0.102831 0.500000 0.250000
O O1 0.237199 0.678279 0.839786
O O2 0.223878 0.557932 0.844566
O O3 0.162425 0.625841 0.591006
O O4 0.106557 0.625024 0.931559
O O5 0.332556 0.264581 0.004012
O O6 0.950521 0.058501 0.312503
O O7 0.024907 0.167587 0.432486
O O8 0.900150 0.160836 0.225844
O O9 0.664367 0.513595 0.084157
#
# Coordination Sequence:
#
# PCOD9532861 Si02
#       6
#    16   8  16   8  16   8
#     4  10  24  49  68 108 143 183 246 314 342 453
#     4  11  28  45  80 100 146 195 246 299 380 408
#     4  11  26  48  71 105 152 183 248 292 374 428
#     4   9  22  41  70 106 146 179 256 295 352 430
#     4  12  26  47  73 106 141 197 237 306 356 446
#     4  10  24  44  72 108 146 200 228 306 362 428
#
# _framework density 26.425025999999999
#
# number of rings (size 3 to 8) (size 9 to 14) (size 15 to 20)
#    0.000    1.333    2.222    0.667   15.556    1.778 
#    0.000    0.000    0.000    0.000    0.000    0.000 
#    0.000    0.000    0.000    0.000    0.000    0.000 
#
# Total GULP energy -201349.077342 kJ/mol
# GULP energy per Si atom -5593.029926 kJ/mol
# Density = 2.636488 g / cm^3
# Si number density = 26.425026 Si / 1000 Ang^3
#
#
#
# Elastic Constant Matrix: (Units=GPa)
#
#
# Indices 1 2 3 4 5 6 
#
# 1 150.4768 82.1025 48.0985 0.0000 0.0000 0.0000
# 2 82.1025 167.4065 55.3810 0.0000 0.0000 0.0000
# 3 48.0985 55.3810 91.8219 0.0000 0.0000 0.0000
# 4 0.0000 0.0000 0.0000 28.2644 0.0000 0.0000
# 5 0.0000 0.0000 0.0000 0.0000 54.6200 0.0000
# 6 0.0000 0.0000 0.0000 0.0000 0.0000 -1.0992
#
#
#
# Elastic Compliance Matrix: (Units=1/GPa)
#
#
# Indices 1 2 3 4 5 6 
#
# 1 0.009593 -0.003801 -0.002733 0.000000 0.000000 0.000000
# 2 -0.003801 0.008968 -0.003418 0.000000 0.000000 0.000000
# 3 -0.002733 -0.003418 0.014384 0.000000 0.000000 0.000000
# 4 0.000000 0.000000 0.000000 0.035380 0.000000 0.000000
# 5 0.000000 0.000000 0.000000 0.000000 0.018308 0.000000
# 6 0.000000 0.000000 0.000000 0.000000 0.000000 -0.909716
#
#
# Mechanical properties :
#
#
# Convention : Reuss Voigt Hill
#
# Bulk Modulus (GPa) = 76.67666 86.76324 81.71995
# Shear Modulus (GPa) = -6.25913 31.29859 12.51973
#
# Velocity S-wave (km/s) = -1.54071 3.44529 2.17902
# Velocity P-wave (km/s) = 5.09064 6.98081 6.10927
#
# Compressibility (1/GPa) = 0.01304178
#
# Stress axis : x y z
#
# Youngs Moduli (GPa) = 104.24633 111.50438 69.52323
#
# Poissons Ratio (x) = 0.42379 0.18998
# Poissons Ratio (y) = 0.39620 0.23765
# Poissons Ratio (z) = 0.28486 0.38115
#
# Static dielectric constant tensor:
#      x y z
#    x 2.227240 0.000000 0.000000 
#    y 0.000000 2.085580 0.000000 
#    z 0.000000 0.000000 2.035050 
# 
# From -- ./inp_files/5489.got.cif
#   From: 2010.05.17/outbox.cif.g08.bks.cpg/sg73_3_cif.got.tgz:5489.got - 2010.06.03 17:35:07.
