data_PCOD9532723
_publ_section_title
;
Structure prediction by ZEFSAII (Michael W. Deem and Ramdas Pophale) SiO2 
 PCOD9532723
Probable space group: I B C A 
;
_chemical_formula_sum "Si O2"
_cell_formula_units_Z 48
_cell_length_a 12.050678
_cell_length_b 20.527938
_cell_length_c 8.061479
_cell_angle_alpha 90.000000
_cell_angle_beta 90.000000
_cell_angle_gamma 90.000000
_cell_volume 1994.212969
_symmetry_space_group_name_H-M "I B C A "
_symmetry_group_IT_number 73
_symmetry_cell_setting 'orthorhombic'
loop_
_space_group_symop_operation_xyz
x,y,z
-x,1/2-y,z
x,-y,1/2-z
1/2-x,y,-z
-x,-y,-z
x,1/2+y,-z
-x,y,1/2+z
1/2+x,-y,z
1/2+x,1/2+y,1/2+z
1/2-x,-y,1/2+z
1/2+x,1/2-y,-z
-x,1/2+y,1/2-z
1/2-x,1/2-y,1/2-z
1/2+x,y,1/2-z
1/2-x,1/2+y,z
x,1/2-y,1/2+z
loop_
_atom_site_type_symbol
_atom_site_label
_atom_site_fract_x
_atom_site_fract_y
_atom_site_fract_z
Si Si1 0.838694 0.805321 0.198575
Si Si2 0.000000 0.750000 0.434997
Si Si3 0.082633 0.000000 0.250000
Si Si4 0.133498 0.447150 0.383869
O O1 0.750000 0.750000 0.250000
O O2 0.938703 0.804730 0.330131
O O3 0.808234 0.879192 0.162744
O O4 0.900940 0.780283 0.037121
O O5 0.134684 0.970137 0.422808
O O6 0.997951 0.945882 0.169795
O O7 0.175469 0.500000 0.250000
#
# Coordination Sequence:
#
# PCOD9532723 Si02
#       4
#    16   8   8  16
#     4  11  22  41  68 102 145 191 246 304 381 459
#     4  10  24  40  66  96 142 194 236 308 370 450
#     4   8  16  30  60 104 136 182 230 304 380 452
#     4   9  17  33  62  99 138 178 236 304 374 440
#
# _framework density 24.069645999999999
#
# number of rings (size 3 to 8) (size 9 to 14) (size 15 to 20)
#    1.000    1.333    0.000    3.000    0.000    0.000 
#    0.000    0.000    0.000   16.000    0.000    0.000 
#    0.000    0.000    0.000    0.000    0.000    0.000 
#
# Total GULP energy -133644.191763 kJ/mol
# GULP energy per Si atom -5568.507990 kJ/mol
# Density = 2.401486 g / cm^3
# Si number density = 24.069646 Si / 1000 Ang^3
#
#
#
# Elastic Constant Matrix: (Units=GPa)
#
#
# Indices 1 2 3 4 5 6 
#
# 1 95.0481 75.8225 83.2606 0.0000 0.0000 0.0000
# 2 75.8225 214.8236 92.2754 0.0000 0.0000 0.0000
# 3 83.2606 92.2754 214.7119 0.0014 -0.0003 -0.0002
# 4 0.0000 0.0000 0.0014 125.1666 -0.0001 -0.0001
# 5 0.0000 0.0000 -0.0003 -0.0001 84.8193 0.0000
# 6 0.0000 0.0000 -0.0002 -0.0001 0.0000 41.2292
#
#
#
# Elastic Compliance Matrix: (Units=1/GPa)
#
#
# Indices 1 2 3 4 5 6 
#
# 1 0.018654 -0.004264 -0.005401 0.000000 0.000000 0.000000
# 2 -0.004264 0.006683 -0.001219 0.000000 0.000000 0.000000
# 3 -0.005401 -0.001219 0.007276 0.000000 0.000000 0.000000
# 4 0.000000 0.000000 0.000000 0.007989 0.000000 0.000000
# 5 0.000000 0.000000 0.000000 0.000000 0.011790 0.000000
# 6 0.000000 0.000000 0.000000 0.000000 0.000000 0.024255
#
#
# Mechanical properties :
#
#
# Convention : Reuss Voigt Hill
#
# Bulk Modulus (GPa) = 92.20683 114.14450 103.17567
# Shear Modulus (GPa) = 49.00569 68.45803 58.73186
#
# Velocity S-wave (km/s) = 4.51710 5.33886 4.94508
# Velocity P-wave (km/s) = 8.09920 9.24825 8.69273
#
# Compressibility (1/GPa) = 0.01084518
#
# Stress axis : x y z
#
# Youngs Moduli (GPa) = 53.60906 149.62255 137.44533
#
# Poissons Ratio (x) = 0.63797 0.74234
# Poissons Ratio (y) = 0.22858 0.16753
# Poissons Ratio (z) = 0.28954 0.18237
#
# Static dielectric constant tensor:
#      x y z
#    x 2.069670 0.000000 0.000000 
#    y 0.000000 1.948950 0.000000 
#    z 0.000000 0.000000 2.010320 
# 
# From -- ./inp_files/4412.got.cif
#   From: 2010.05.17/outbox.cif.g08.bks.cpg/sg73_3_cif.got.tgz:4412.got - 2010.06.03 17:35:07.
