data_PCOD9532167
_publ_section_title
;
Structure prediction by ZEFSAII (Michael W. Deem and Ramdas Pophale) SiO2 
 PCOD9532167
Probable space group: I B C A 
;
_chemical_formula_sum "Si O2"
_cell_formula_units_Z 88
_cell_length_a 9.046913
_cell_length_b 24.239022
_cell_length_c 20.043142
_cell_angle_alpha 90.000000
_cell_angle_beta 90.000000
_cell_angle_gamma 90.000000
_cell_volume 4395.227002
_symmetry_space_group_name_H-M "I B C A "
_symmetry_group_IT_number 73
_symmetry_cell_setting 'orthorhombic'
loop_
_space_group_symop_operation_xyz
x,y,z
-x,1/2-y,z
x,-y,1/2-z
1/2-x,y,-z
-x,-y,-z
x,1/2+y,-z
-x,y,1/2+z
1/2+x,-y,z
1/2+x,1/2+y,1/2+z
1/2-x,-y,1/2+z
1/2+x,1/2-y,-z
-x,1/2+y,1/2-z
1/2-x,1/2-y,1/2-z
1/2+x,y,1/2-z
1/2-x,1/2+y,z
x,1/2-y,1/2+z
loop_
_atom_site_type_symbol
_atom_site_label
_atom_site_fract_x
_atom_site_fract_y
_atom_site_fract_z
Si Si1 0.799177 0.658964 0.682053
Si Si2 0.000000 0.750000 0.122935
Si Si3 0.537703 0.813976 0.687412
Si Si4 0.680601 0.565944 0.428171
Si Si5 0.727523 0.160453 0.078790
Si Si6 0.341969 0.960102 0.930831
O O1 0.869598 0.717686 0.660785
O O2 0.623100 0.659527 0.683466
O O3 0.868141 0.654739 0.755734
O O4 0.837495 0.613869 0.626138
O O5 0.088795 0.798879 0.087330
O O6 0.500000 0.750000 0.703369
O O7 0.631915 0.817245 0.619507
O O8 0.750000 0.584374 0.500000
O O9 0.785728 0.517291 0.399570
O O10 0.517210 0.541919 0.441298
O O11 0.697789 0.097983 0.103571
O O12 0.750000 0.157437 0.000000
O O13 0.250000 0.960242 0.000000
#
# Coordination Sequence:
#
# PCOD9532167 Si02
#       6
#    16   8  16  16  16  16
#     4  12  26  42  72  94 136 182 234 274 343 420
#     4  12  22  44  62 104 136 174 232 284 340 410
#     4  12  25  45  67  97 137 189 222 272 345 416
#     4  11  24  42  72 101 133 178 232 287 346 412
#     4  11  26  41  69 100 142 175 227 290 346 406
#     4  10  22  42  67  99 139 175 225 282 356 411
#
# _framework density 20.021718
#
# number of rings (size 3 to 8) (size 9 to 14) (size 15 to 20)
#    0.000    0.727    4.545    3.818    8.909    0.727 
#    0.000    0.909    0.000    0.000    0.000    0.000 
#    0.000    0.000    0.000    0.000    0.000    0.000 
#
# Total GULP energy -245379.501468 kJ/mol
# GULP energy per Si atom -5576.806852 kJ/mol
# Density = 1.997615 g / cm^3
# Si number density = 20.021718 Si / 1000 Ang^3
#
#
#
# Elastic Constant Matrix: (Units=GPa)
#
#
# Indices 1 2 3 4 5 6 
#
# 1 160.2369 26.1564 55.2113 0.0000 0.0000 0.0000
# 2 26.1564 102.6502 47.8359 0.0000 0.0000 0.0000
# 3 55.2113 47.8359 100.3226 0.0000 0.0000 0.0000
# 4 0.0000 0.0000 0.0000 -75.2284 0.0000 0.0000
# 5 0.0000 0.0000 0.0000 0.0000 5.5800 0.0000
# 6 0.0000 0.0000 0.0000 0.0000 0.0000 35.2397
#
#
#
# Elastic Compliance Matrix: (Units=1/GPa)
#
#
# Indices 1 2 3 4 5 6 
#
# 1 0.007701 0.000016 -0.004246 0.000000 0.000000 0.000000
# 2 0.000016 0.012525 -0.005981 0.000000 0.000000 0.000000
# 3 -0.004246 -0.005981 0.015157 0.000000 0.000000 0.000000
# 4 0.000000 0.000000 0.000000 -0.013293 0.000000 0.000000
# 5 0.000000 0.000000 0.000000 0.000000 0.179212 0.000000
# 6 0.000000 0.000000 0.000000 0.000000 0.000000 0.028377
#
#
# Mechanical properties :
#
#
# Convention : Reuss Voigt Hill
#
# Bulk Modulus (GPa) = 66.84067 69.06852 67.95460
# Shear Modulus (GPa) = 19.60110 8.71866 14.15988
#
# Velocity S-wave (km/s) = 3.13228 2.08903 2.66226
# Velocity P-wave (km/s) = 6.82189 6.35535 6.59274
#
# Compressibility (1/GPa) = 0.01496095
#
# Stress axis : x y z
#
# Youngs Moduli (GPa) = 129.85176 79.84079 65.97827
#
# Poissons Ratio (x) = -0.00131 0.28014
# Poissons Ratio (y) = -0.00212 0.39463
# Poissons Ratio (z) = 0.55135 0.47754
#
# Static dielectric constant tensor:
#      x y z
#    x 1.699790 0.000000 0.000000 
#    y 0.000000 1.765720 0.000000 
#    z 0.000000 0.000000 1.738210 
# 
# From -- ./inp_files/24788.got.cif
#   From: 2010.05.17/outbox.cif.g08.bks.cpg/sg73_13_cif.got.tgz:24788.got - 2010.06.03 17:35:07.
