data_PCOD9532442
_publ_section_title
;
Structure prediction by ZEFSAII (Michael W. Deem and Ramdas Pophale) SiO2 
 PCOD9532442
Probable space group: I B C A 
;
_chemical_formula_sum "Si O2"
_cell_formula_units_Z 72
_cell_length_a 14.437386
_cell_length_b 18.787908
_cell_length_c 9.672973
_cell_angle_alpha 90.000000
_cell_angle_beta 90.000000
_cell_angle_gamma 90.000000
_cell_volume 2623.777288
_symmetry_space_group_name_H-M "I B C A "
_symmetry_group_IT_number 73
_symmetry_cell_setting 'orthorhombic'
loop_
_space_group_symop_operation_xyz
x,y,z
-x,1/2-y,z
x,-y,1/2-z
1/2-x,y,-z
-x,-y,-z
x,1/2+y,-z
-x,y,1/2+z
1/2+x,-y,z
1/2+x,1/2+y,1/2+z
1/2-x,-y,1/2+z
1/2+x,1/2-y,-z
-x,1/2+y,1/2-z
1/2-x,1/2-y,1/2-z
1/2+x,y,1/2-z
1/2-x,1/2+y,z
x,1/2-y,1/2+z
loop_
_atom_site_type_symbol
_atom_site_label
_atom_site_fract_x
_atom_site_fract_y
_atom_site_fract_z
Si Si1 0.859678 0.097836 0.768363
Si Si2 0.890088 0.497305 0.520784
Si Si3 0.581435 0.108412 0.751792
Si Si4 0.250000 0.854300 0.500000
Si Si5 0.894271 0.751900 0.125175
O O1 0.847287 0.966225 0.621115
O O2 0.794245 0.103968 0.633655
O O3 0.854433 0.175002 0.841914
O O4 0.970675 0.095490 0.733039
O O5 0.869329 0.434377 0.628196
O O6 0.882697 0.570455 0.609894
O O7 0.000000 0.500000 0.500000
O O8 0.599419 0.192290 0.754182
O O9 0.168703 0.797230 0.526671
O O10 0.000000 0.750000 0.073920
#
# Coordination Sequence:
#
# PCOD9532442 Si02
#       5
#    16  16  16   8  16
#     4  10  23  39  67 105 148 205 258 343 406 483
#     4   9  19  39  71 107 138 194 271 334 398 482
#     4   9  20  41  73 103 141 200 280 324 395 503
#     4  12  26  42  66 110 164 202 266 346 418 494
#     4  10  24  44  72 105 147 209 272 335 409 500
#
# _framework density 27.441354
#
# number of rings (size 3 to 8) (size 9 to 14) (size 15 to 20)
#    0.000    2.222    0.000    0.667   12.444    0.889 
#    0.000    0.000    9.778    0.000    0.000    0.000 
#    0.000    0.000    0.000    0.000    0.000    1.667 
#
# Total GULP energy -201166.705870 kJ/mol
# GULP energy per Si atom -5587.964052 kJ/mol
# Density = 2.737890 g / cm^3
# Si number density = 27.441354 Si / 1000 Ang^3
#
#
#
# Elastic Constant Matrix: (Units=GPa)
#
#
# Indices 1 2 3 4 5 6 
#
# 1 157.7389 66.4125 64.6310 0.0000 0.0000 0.0000
# 2 66.4125 210.4808 83.2975 0.0000 0.0000 0.0000
# 3 64.6310 83.2975 187.8678 0.0000 0.0000 0.0000
# 4 0.0000 0.0000 0.0000 32.0743 0.0000 0.0000
# 5 0.0000 0.0000 0.0000 0.0000 34.2293 0.0000
# 6 0.0000 0.0000 0.0000 0.0000 0.0000 12.4055
#
#
#
# Elastic Compliance Matrix: (Units=1/GPa)
#
#
# Indices 1 2 3 4 5 6 
#
# 1 0.007856 -0.001709 -0.001945 0.000000 0.000000 0.000000
# 2 -0.001709 0.006134 -0.002132 0.000000 0.000000 0.000000
# 3 -0.001945 -0.002132 0.006937 0.000000 0.000000 0.000000
# 4 0.000000 0.000000 0.000000 0.031178 0.000000 0.000000
# 5 0.000000 0.000000 0.000000 0.000000 0.029215 0.000000
# 6 0.000000 0.000000 0.000000 0.000000 0.000000 0.080609
#
#
# Mechanical properties :
#
#
# Convention : Reuss Voigt Hill
#
# Bulk Modulus (GPa) = 106.88648 109.41884 108.15266
# Shear Modulus (GPa) = 28.30960 38.52493 33.41727
#
# Velocity S-wave (km/s) = 3.21540 3.75093 3.49344
# Velocity P-wave (km/s) = 7.26777 7.66287 7.46793
#
# Compressibility (1/GPa) = 0.00935572
#
# Stress axis : x y z
#
# Youngs Moduli (GPa) = 127.29030 163.02786 144.15167
#
# Poissons Ratio (x) = 0.27863 0.28036
# Poissons Ratio (y) = 0.21755 0.30729
# Poissons Ratio (z) = 0.24756 0.34753
#
# Static dielectric constant tensor:
#      x y z
#    x 2.318280 0.000000 0.000000 
#    y 0.000000 2.156350 0.000000 
#    z 0.000000 0.000000 2.264650 
# 
# From -- ./inp_files/11770.got.cif
#   From: 2010.05.17/outbox.cif.g08.bks.cpg/sg73_6_cif.got.tgz:11770.got - 2010.06.03 17:35:07.
