data_PCOD9532306
_publ_section_title
;
Structure prediction by ZEFSAII (Michael W. Deem and Ramdas Pophale) SiO2 
 PCOD9532306
Probable space group: I B C A 
;
_chemical_formula_sum "Si O2"
_cell_formula_units_Z 72
_cell_length_a 29.571769
_cell_length_b 9.339946
_cell_length_c 13.402866
_cell_angle_alpha 90.000000
_cell_angle_beta 90.000000
_cell_angle_gamma 90.000000
_cell_volume 3701.854508
_symmetry_space_group_name_H-M "I B C A "
_symmetry_group_IT_number 73
_symmetry_cell_setting 'orthorhombic'
loop_
_space_group_symop_operation_xyz
x,y,z
-x,1/2-y,z
x,-y,1/2-z
1/2-x,y,-z
-x,-y,-z
x,1/2+y,-z
-x,y,1/2+z
1/2+x,-y,z
1/2+x,1/2+y,1/2+z
1/2-x,-y,1/2+z
1/2+x,1/2-y,-z
-x,1/2+y,1/2-z
1/2-x,1/2-y,1/2-z
1/2+x,y,1/2-z
1/2-x,1/2+y,z
x,1/2-y,1/2+z
loop_
_atom_site_type_symbol
_atom_site_label
_atom_site_fract_x
_atom_site_fract_y
_atom_site_fract_z
Si Si1 0.790803 0.955349 0.636949
Si Si2 0.953781 0.665331 0.775871
Si Si3 0.604367 0.383074 0.670683
Si Si4 0.966225 0.868830 0.502951
Si Si5 0.750000 0.797090 0.000000
O O1 0.843331 0.913235 0.650921
O O2 0.769327 0.814314 0.583591
O O3 0.774507 0.000000 0.750000
O O4 0.782167 0.091396 0.562450
O O5 0.959466 0.500000 0.750000
O O6 0.911217 0.732614 0.718106
O O7 0.948723 0.677070 0.894768
O O8 0.000000 0.750000 0.753627
O O9 0.587853 0.500000 0.750000
O O10 0.576072 0.400065 0.571057
O O11 0.000000 0.750000 0.544099
O O12 0.000000 0.000000 0.500000
#
# Coordination Sequence:
#
# PCOD9532306 Si02
#       5
#    16  16  16  16   8
#     4  10  23  42  67  96 127 162 206 264 323 395
#     4  11  22  37  57  83 119 164 207 252 304 360
#     4  11  23  39  58  86 121 156 202 256 306 366
#     4  11  22  35  55  81 115 159 201 241 290 350
#     4  10  22  44  70  94 124 164 206 258 336 402
#
# _framework density 19.449712000000002
#
# number of rings (size 3 to 8) (size 9 to 14) (size 15 to 20)
#    0.000    1.333    0.000    7.333    0.000    7.111 
#    0.000    5.556    0.000    0.000    0.000    0.000 
#    0.000    0.000    0.000    0.000    0.000    0.000 
#
# Total GULP energy -200779.197110 kJ/mol
# GULP energy per Si atom -5577.199920 kJ/mol
# Density = 1.940544 g / cm^3
# Si number density = 19.449712 Si / 1000 Ang^3
#
#
#
# Elastic Constant Matrix: (Units=GPa)
#
#
# Indices 1 2 3 4 5 6 
#
# 1 95.3516 59.6460 61.6910 0.0000 0.0000 0.0000
# 2 59.6460 162.6783 44.3078 0.0000 0.0000 0.0000
# 3 61.6910 44.3078 154.7751 0.0000 0.0000 0.0000
# 4 0.0000 0.0000 0.0000 27.5743 0.0000 0.0000
# 5 0.0000 0.0000 0.0000 0.0000 21.2783 0.0000
# 6 0.0000 0.0000 0.0000 0.0000 0.0000 23.3433
#
#
#
# Elastic Compliance Matrix: (Units=1/GPa)
#
#
# Indices 1 2 3 4 5 6 
#
# 1 0.016946 -0.004744 -0.005397 0.000000 0.000000 0.000000
# 2 -0.004744 0.007995 -0.000398 0.000000 0.000000 0.000000
# 3 -0.005397 -0.000398 0.008726 0.000000 0.000000 0.000000
# 4 0.000000 0.000000 0.000000 0.036266 0.000000 0.000000
# 5 0.000000 0.000000 0.000000 0.000000 0.046996 0.000000
# 6 0.000000 0.000000 0.000000 0.000000 0.000000 0.042839
#
#
# Mechanical properties :
#
#
# Convention : Reuss Voigt Hill
#
# Bulk Modulus (GPa) = 79.42344 82.67718 81.05031
# Shear Modulus (GPa) = 27.02109 30.91652 28.96881
#
# Velocity S-wave (km/s) = 3.73135 3.99126 3.86349
# Velocity P-wave (km/s) = 7.71284 7.99003 7.85266
#
# Compressibility (1/GPa) = 0.01259074
#
# Stress axis : x y z
#
# Youngs Moduli (GPa) = 59.01010 125.08286 114.60116
#
# Poissons Ratio (x) = 0.59333 0.61846
# Poissons Ratio (y) = 0.27991 0.04561
# Poissons Ratio (z) = 0.31845 0.04978
#
# Static dielectric constant tensor:
#      x y z
#    x 1.641100 0.000000 0.000000 
#    y 0.000000 1.690300 0.000000 
#    z 0.000000 0.000000 1.730590 
# 
# From -- ./inp_files/15513.got.cif
#   From: 2010.05.17/outbox.cif.g08.bks.cpg/sg73_8_cif.got.tgz:15513.got - 2010.06.03 17:35:07.
