data_PCOD9532858
_publ_section_title
;
Structure prediction by ZEFSAII (Michael W. Deem and Ramdas Pophale) SiO2 
 PCOD9532858
Probable space group: I B C A 
;
_chemical_formula_sum "Si O2"
_cell_formula_units_Z 72
_cell_length_a 19.369587
_cell_length_b 10.744081
_cell_length_c 14.667238
_cell_angle_alpha 90.000000
_cell_angle_beta 90.000000
_cell_angle_gamma 90.000000
_cell_volume 3052.375604
_symmetry_space_group_name_H-M "I B C A "
_symmetry_group_IT_number 73
_symmetry_cell_setting 'orthorhombic'
loop_
_space_group_symop_operation_xyz
x,y,z
-x,1/2-y,z
x,-y,1/2-z
1/2-x,y,-z
-x,-y,-z
x,1/2+y,-z
-x,y,1/2+z
1/2+x,-y,z
1/2+x,1/2+y,1/2+z
1/2-x,-y,1/2+z
1/2+x,1/2-y,-z
-x,1/2+y,1/2-z
1/2-x,1/2-y,1/2-z
1/2+x,y,1/2-z
1/2-x,1/2+y,z
x,1/2-y,1/2+z
loop_
_atom_site_type_symbol
_atom_site_label
_atom_site_fract_x
_atom_site_fract_y
_atom_site_fract_z
Si Si1 0.705696 0.000000 0.750000
Si Si2 0.662986 0.867483 0.269848
Si Si3 0.885003 0.659209 0.607186
Si Si4 0.018648 0.957651 0.856228
Si Si5 0.609588 0.282186 0.904926
O O1 0.760107 0.094047 0.798787
O O2 0.662276 0.071192 0.672405
O O3 0.616460 0.786623 0.336029
O O4 0.666355 0.803122 0.172018
O O5 0.629420 0.000000 0.250000
O O6 0.957297 0.585913 0.596466
O O7 0.862346 0.694960 0.505766
O O8 0.075449 0.851811 0.883553
O O9 0.949552 0.886332 0.885573
O O10 0.021035 0.000000 0.750000
#
# Coordination Sequence:
#
# PCOD9532858 Si02
#       5
#     8  16  16  16  16
#     4  10  24  44  72 104 144 200 242 302 364 428
#     4  10  24  45  69 104 148 193 243 302 366 424
#     4  12  23  47  73 103 154 189 248 305 368 442
#     4  11  23  46  72 104 148 190 236 299 379 434
#     4  11  25  43  71 111 139 193 244 301 367 451
#
# _framework density 23.588186
#
# number of rings (size 3 to 8) (size 9 to 14) (size 15 to 20)
#    0.667    0.444    3.333    2.000    3.111    0.889 
#    8.000    0.000    0.000    0.000    0.000    0.000 
#    0.000    0.000    0.000    0.000    0.000    0.000 
#
# Total GULP energy -200803.730913 kJ/mol
# GULP energy per Si atom -5577.881414 kJ/mol
# Density = 2.353450 g / cm^3
# Si number density = 23.588186 Si / 1000 Ang^3
#
#
#
# Elastic Constant Matrix: (Units=GPa)
#
#
# Indices 1 2 3 4 5 6 
#
# 1 50.5673 52.8940 -13.4050 0.0000 0.0000 0.0000
# 2 52.8940 157.4916 44.5693 0.0000 0.0000 0.0000
# 3 -13.4050 44.5693 127.2433 0.0000 0.0000 0.0000
# 4 0.0000 0.0000 0.0000 30.2604 0.0000 0.0000
# 5 0.0000 0.0000 0.0000 0.0000 14.8848 0.0000
# 6 0.0000 0.0000 0.0000 0.0000 0.0000 37.5138
#
#
#
# Elastic Compliance Matrix: (Units=1/GPa)
#
#
# Indices 1 2 3 4 5 6 
#
# 1 0.038790 -0.015745 0.009602 0.000000 0.000000 0.000000
# 2 -0.015745 0.013439 -0.006366 0.000000 0.000000 0.000000
# 3 0.009602 -0.006366 0.011100 0.000000 0.000000 0.000000
# 4 0.000000 0.000000 0.000000 0.033046 0.000000 0.000000
# 5 0.000000 0.000000 0.000000 0.000000 0.067183 0.000000
# 6 0.000000 0.000000 0.000000 0.000000 0.000000 0.026657
#
#
# Mechanical properties :
#
#
# Convention : Reuss Voigt Hill
#
# Bulk Modulus (GPa) = 26.10232 55.93542 41.01887
# Shear Modulus (GPa) = 21.92932 33.28141 27.60536
#
# Velocity S-wave (km/s) = 3.05236 3.76032 3.42468
# Velocity P-wave (km/s) = 4.84896 6.52825 5.75024
#
# Compressibility (1/GPa) = 0.03831078
#
# Stress axis : x y z
#
# Youngs Moduli (GPa) = 25.77952 74.40961 90.08774
#
# Poissons Ratio (x) = 1.17159 -0.86498
# Poissons Ratio (y) = 0.40590 0.57350
# Poissons Ratio (z) = -0.24752 0.47369
#
# Static dielectric constant tensor:
#      x y z
#    x 1.945990 0.000000 0.000000 
#    y 0.000000 2.045200 0.000000 
#    z 0.000000 0.000000 1.895320 
# 
# From -- ./inp_files/18465.got.cif
#   From: 2010.05.17/outbox.cif.g08.bks.cpg/sg73_10_cif.got.tgz:18465.got - 2010.06.03 17:35:07.
