data_PCOD9532474
_publ_section_title
;
Structure prediction by ZEFSAII (Michael W. Deem and Ramdas Pophale) SiO2 
 PCOD9532474
Probable space group: I B C A 
;
_chemical_formula_sum "Si O2"
_cell_formula_units_Z 120
_cell_length_a 24.519502
_cell_length_b 8.714379
_cell_length_c 30.129283
_cell_angle_alpha 90.000000
_cell_angle_beta 90.000000
_cell_angle_gamma 90.000000
_cell_volume 6437.791187
_symmetry_space_group_name_H-M "I B C A "
_symmetry_group_IT_number 73
_symmetry_cell_setting 'orthorhombic'
loop_
_space_group_symop_operation_xyz
x,y,z
-x,1/2-y,z
x,-y,1/2-z
1/2-x,y,-z
-x,-y,-z
x,1/2+y,-z
-x,y,1/2+z
1/2+x,-y,z
1/2+x,1/2+y,1/2+z
1/2-x,-y,1/2+z
1/2+x,1/2-y,-z
-x,1/2+y,1/2-z
1/2-x,1/2-y,1/2-z
1/2+x,y,1/2-z
1/2-x,1/2+y,z
x,1/2-y,1/2+z
loop_
_atom_site_type_symbol
_atom_site_label
_atom_site_fract_x
_atom_site_fract_y
_atom_site_fract_z
Si Si1 0.302628 0.347026 0.552382
Si Si2 0.343982 0.189742 0.640912
Si Si3 0.764500 0.000000 0.250000
Si Si4 0.770269 0.763034 0.312748
Si Si5 0.860441 0.665701 0.375907
Si Si6 0.939226 0.181689 0.298661
Si Si7 0.560930 0.314004 0.302756
Si Si8 0.817887 0.789635 0.460515
O O1 0.328242 0.294000 0.598783
O O2 0.239059 0.297872 0.550448
O O3 0.329898 0.257031 0.511115
O O4 0.308193 0.528998 0.545050
O O5 0.291105 0.193680 0.673327
O O6 0.395694 0.250308 0.667556
O O7 0.356967 0.017483 0.625273
O O8 0.796945 0.094752 0.213329
O O9 0.730592 0.122818 0.278244
O O10 0.803004 0.723542 0.356061
O O11 0.903359 0.734240 0.340878
O O12 0.862639 0.731468 0.425448
O O13 0.921593 0.221502 0.248050
O O14 0.000000 0.250000 0.304879
O O15 0.940249 0.998395 0.305302
O O16 0.500000 0.250000 0.307190
#
# Coordination Sequence:
#
# PCOD9532474 Si02
#       8
#    16  16   8  16  16  16  16  16
#     4  11  22  38  59  85 119 155 194 241 296 355
#     4  12  24  37  59  86 119 155 199 243 292 353
#     4  10  24  38  48  74 120 162 192 238 286 354
#     4  11  24  36  53  80 118 156 199 234 293 346
#     4  12  24  37  59  86 119 155 199 243 292 353
#     4  10  23  41  62  86 117 157 203 249 296 346
#     4  10  23  41  62  86 117 157 203 249 296 346
#     4  11  22  38  59  85 119 155 194 241 296 355
#
# _framework density 18.639932000000002
#
# number of rings (size 3 to 8) (size 9 to 14) (size 15 to 20)
#    0.000    1.067    2.667    4.800    7.467    1.600 
#    0.000    0.000    0.000    0.800    0.000    5.600 
#    0.000    0.000    0.000    0.000    0.000    0.000 
#
# Total GULP energy -335256.531386 kJ/mol
# GULP energy per Si atom -5587.608856 kJ/mol
# Density = 1.859751 g / cm^3
# Si number density = 18.639932 Si / 1000 Ang^3
#
#
#
# Elastic Constant Matrix: (Units=GPa)
#
#
# Indices 1 2 3 4 5 6 
#
# 1 68.2664 23.6401 41.5899 0.0000 0.0000 0.0000
# 2 23.6401 125.7595 41.4361 0.0000 0.0000 0.0000
# 3 41.5899 41.4361 124.2782 0.0000 0.0000 0.0000
# 4 0.0000 0.0000 0.0000 32.6436 0.0000 0.0000
# 5 0.0000 0.0000 0.0000 0.0000 32.5014 0.0000
# 6 0.0000 0.0000 0.0000 0.0000 0.0000 7.5219
#
#
#
# Elastic Compliance Matrix: (Units=1/GPa)
#
#
# Indices 1 2 3 4 5 6 
#
# 1 0.018693 -0.001632 -0.005712 0.000000 0.000000 0.000000
# 2 -0.001632 0.009076 -0.002480 0.000000 0.000000 0.000000
# 3 -0.005712 -0.002480 0.010785 0.000000 0.000000 0.000000
# 4 0.000000 0.000000 0.000000 0.030634 0.000000 0.000000
# 5 0.000000 0.000000 0.000000 0.000000 0.030768 0.000000
# 6 0.000000 0.000000 0.000000 0.000000 0.000000 0.132945
#
#
# Mechanical properties :
#
#
# Convention : Reuss Voigt Hill
#
# Bulk Modulus (GPa) = 52.89126 59.07069 55.98097
# Shear Modulus (GPa) = 19.31625 28.64259 23.97942
#
# Velocity S-wave (km/s) = 3.22263 3.92423 3.59061
# Velocity P-wave (km/s) = 6.50261 7.23132 6.87663
#
# Compressibility (1/GPa) = 0.01890672
#
# Stress axis : x y z
#
# Youngs Moduli (GPa) = 53.49496 110.18658 92.72441
#
# Poissons Ratio (x) = 0.17983 0.52961
# Poissons Ratio (y) = 0.08731 0.22993
# Poissons Ratio (z) = 0.30554 0.27323
#
# Static dielectric constant tensor:
#      x y z
#    x 1.633340 0.000000 0.000000 
#    y 0.000000 1.663840 0.000000 
#    z 0.000000 0.000000 1.660350 
# 
# From -- ./inp_files/34816.got.cif
#   From: 2010.05.17/outbox.cif.g08.bks.cpg/sg73_18_cif.got.tgz:34816.got - 2010.06.03 17:35:07.
