data_PCOD9532996
_publ_section_title
;
Structure prediction by ZEFSAII (Michael W. Deem and Ramdas Pophale) SiO2 
 PCOD9532996
Probable space group: I B C A 
;
_chemical_formula_sum "Si O2"
_cell_formula_units_Z 88
_cell_length_a 18.085415
_cell_length_b 21.594010
_cell_length_c 8.760052
_cell_angle_alpha 90.000000
_cell_angle_beta 90.000000
_cell_angle_gamma 90.000000
_cell_volume 3421.121207
_symmetry_space_group_name_H-M "I B C A "
_symmetry_group_IT_number 73
_symmetry_cell_setting 'orthorhombic'
loop_
_space_group_symop_operation_xyz
x,y,z
-x,1/2-y,z
x,-y,1/2-z
1/2-x,y,-z
-x,-y,-z
x,1/2+y,-z
-x,y,1/2+z
1/2+x,-y,z
1/2+x,1/2+y,1/2+z
1/2-x,-y,1/2+z
1/2+x,1/2-y,-z
-x,1/2+y,1/2-z
1/2-x,1/2-y,1/2-z
1/2+x,y,1/2-z
1/2-x,1/2+y,z
x,1/2-y,1/2+z
loop_
_atom_site_type_symbol
_atom_site_label
_atom_site_fract_x
_atom_site_fract_y
_atom_site_fract_z
Si Si1 0.033918 0.544766 0.870023
Si Si2 0.025016 0.367304 0.378613
Si Si3 0.838874 0.698906 0.709857
Si Si4 0.751715 0.000000 0.750000
Si Si5 0.856929 0.825696 0.565496
Si Si6 0.250000 0.923476 0.000000
Si Si7 0.750000 0.099718 0.500000
O O1 0.075680 0.500000 0.750000
O O2 0.978254 0.581909 0.757068
O O3 0.062398 0.600808 0.973599
O O4 0.000000 0.500000 0.000000
O O5 0.075168 0.310741 0.332156
O O6 0.942172 0.343859 0.412036
O O7 0.825534 0.769864 0.666100
O O8 0.795867 0.647793 0.608203
O O9 0.836948 0.689239 0.890343
O O10 0.784343 0.049976 0.624892
O O11 0.705592 0.960135 0.629500
O O12 0.809641 0.886466 0.594832
#
# Coordination Sequence:
#
# PCOD9532996 Si02
#       7
#    16  16  16   8  16   8   8
#     4   9  20  42  64 100 143 195 235 286 351 435
#     4  11  23  46  70 109 150 186 243 300 371 427
#     4  12  28  48  75 108 147 191 247 308 362 443
#     4  10  24  50  76 108 144 196 234 308 362 448
#     4  12  28  48  75 108 148 191 250 305 367 439
#     4  11  25  52  74 108 145 193 246 294 376 437
#     4  11  25  52  78 108 145 193 244 300 374 437
#
# _framework density 25.722560999999999
#
# number of rings (size 3 to 8) (size 9 to 14) (size 15 to 20)
#    0.000    1.091    3.636    1.091    5.091    2.909 
#   32.727    0.000    0.000    0.000    0.000    0.000 
#    0.000    0.000    0.000    0.000    0.000    0.000 
#
# Total GULP energy -245390.777124 kJ/mol
# GULP energy per Si atom -5577.063116 kJ/mol
# Density = 2.566402 g / cm^3
# Si number density = 25.722561 Si / 1000 Ang^3
#
#
#
# Elastic Constant Matrix: (Units=GPa)
#
#
# Indices 1 2 3 4 5 6 
#
# 1 76.8123 12.7123 20.7108 0.0000 0.0000 0.0000
# 2 12.7123 92.7862 58.1884 0.0000 0.0000 0.0000
# 3 20.7108 58.1884 192.1292 0.0000 0.0000 0.0000
# 4 0.0000 0.0000 0.0000 59.9048 0.0000 0.0000
# 5 0.0000 0.0000 0.0000 0.0000 14.1868 0.0000
# 6 0.0000 0.0000 0.0000 0.0000 0.0000 14.8600
#
#
#
# Elastic Compliance Matrix: (Units=1/GPa)
#
#
# Indices 1 2 3 4 5 6 
#
# 1 0.013508 -0.001157 -0.001106 0.000000 0.000000 0.000000
# 2 -0.001157 0.013404 -0.003935 0.000000 0.000000 0.000000
# 3 -0.001106 -0.003935 0.006516 0.000000 0.000000 0.000000
# 4 0.000000 0.000000 0.000000 0.016693 0.000000 0.000000
# 5 0.000000 0.000000 0.000000 0.000000 0.070488 0.000000
# 6 0.000000 0.000000 0.000000 0.000000 0.000000 0.067295
#
#
# Mechanical properties :
#
#
# Convention : Reuss Voigt Hill
#
# Bulk Modulus (GPa) = 47.54589 60.55009 54.04799
# Shear Modulus (GPa) = 24.11851 35.79806 29.95828
#
# Velocity S-wave (km/s) = 3.06541 3.73460 3.41643
# Velocity P-wave (km/s) = 5.57255 6.49516 6.05146
#
# Compressibility (1/GPa) = 0.02103231
#
# Stress axis : x y z
#
# Youngs Moduli (GPa) = 74.02801 74.60712 153.47628
#
# Poissons Ratio (x) = 0.08635 0.16969
# Poissons Ratio (y) = 0.08568 0.60388
# Poissons Ratio (z) = 0.08185 0.29355
#
# Static dielectric constant tensor:
#      x y z
#    x 2.011910 0.000000 0.000000 
#    y 0.000000 2.169160 0.000000 
#    z 0.000000 0.000000 1.985390 
# 
# From -- ./inp_files/6350.got.cif
#   From: 2010.05.17/outbox.cif.g08.bks.cpg/sg73_4_cif.got.tgz:6350.got - 2010.06.03 17:35:07.
