data_PCOD9532292
_publ_section_title
;
Structure prediction by ZEFSAII (Michael W. Deem and Ramdas Pophale) SiO2 
 PCOD9532292
Probable space group: I B C A 
;
_chemical_formula_sum "Si O2"
_cell_formula_units_Z 64
_cell_length_a 14.422915
_cell_length_b 7.880449
_cell_length_c 23.026498
_cell_angle_alpha 90.000000
_cell_angle_beta 90.000000
_cell_angle_gamma 90.000000
_cell_volume 2617.169797
_symmetry_space_group_name_H-M "I B C A "
_symmetry_group_IT_number 73
_symmetry_cell_setting 'orthorhombic'
loop_
_space_group_symop_operation_xyz
x,y,z
-x,1/2-y,z
x,-y,1/2-z
1/2-x,y,-z
-x,-y,-z
x,1/2+y,-z
-x,y,1/2+z
1/2+x,-y,z
1/2+x,1/2+y,1/2+z
1/2-x,-y,1/2+z
1/2+x,1/2-y,-z
-x,1/2+y,1/2-z
1/2-x,1/2-y,1/2-z
1/2+x,y,1/2-z
1/2-x,1/2+y,z
x,1/2-y,1/2+z
loop_
_atom_site_type_symbol
_atom_site_label
_atom_site_fract_x
_atom_site_fract_y
_atom_site_fract_z
Si Si1 0.551024 0.509784 0.318392
Si Si2 0.101895 0.789772 0.510380
Si Si3 0.167804 0.608182 0.410485
Si Si4 0.871394 0.137711 0.869974
O O1 0.562325 0.500000 0.250000
O O2 0.596126 0.367459 0.358447
O O3 0.443472 0.524132 0.335227
O O4 0.606546 0.678604 0.340834
O O5 0.171116 0.760560 0.456788
O O6 0.099166 0.652427 0.562748
O O7 0.000000 0.750000 0.484242
O O8 0.131390 0.957106 0.546587
O O9 0.265036 0.587179 0.377077
#
# Coordination Sequence:
#
# PCOD9532292 Si02
#       4
#    16  16  16  16
#     4  10  23  47  69  96 142 193 243 304 353 429
#     4  11  22  45  69 101 147 184 229 298 373 435
#     4  11  24  42  72 106 140 188 237 298 363 443
#     4  10  22  44  68  98 144 184 236 301 371 431
#
# _framework density 24.453897000000001
#
# number of rings (size 3 to 8) (size 9 to 14) (size 15 to 20)
#    0.000    1.500    5.000    1.500    0.000   10.000 
#    4.500    0.000    0.000    0.000    0.000    0.000 
#    0.000    0.000    0.000    0.000    0.000    0.000 
#
# Total GULP energy -178650.012152 kJ/mol
# GULP energy per Si atom -5582.812880 kJ/mol
# Density = 2.439824 g / cm^3
# Si number density = 24.453897 Si / 1000 Ang^3
#
#
#
# Elastic Constant Matrix: (Units=GPa)
#
#
# Indices 1 2 3 4 5 6 
#
# 1 161.4150 42.7485 67.2851 0.0000 0.0000 0.0000
# 2 42.7485 79.4998 39.8500 0.0000 0.0000 0.0000
# 3 67.2851 39.8500 241.3063 0.0000 0.0000 0.0000
# 4 0.0000 0.0000 0.0000 23.9212 0.0000 0.0000
# 5 0.0000 0.0000 0.0000 0.0000 25.4777 0.0000
# 6 0.0000 0.0000 0.0000 0.0000 0.0000 28.6218
#
#
#
# Elastic Compliance Matrix: (Units=1/GPa)
#
#
# Indices 1 2 3 4 5 6 
#
# 1 0.007756 -0.003365 -0.001607 0.000000 0.000000 0.000000
# 2 -0.003365 0.015174 -0.001568 0.000000 0.000000 0.000000
# 3 -0.001607 -0.001568 0.004851 0.000000 0.000000 0.000000
# 4 0.000000 0.000000 0.000000 0.041804 0.000000 0.000000
# 5 0.000000 0.000000 0.000000 0.000000 0.039250 0.000000
# 6 0.000000 0.000000 0.000000 0.000000 0.000000 0.034938
#
#
# Mechanical properties :
#
#
# Convention : Reuss Voigt Hill
#
# Bulk Modulus (GPa) = 68.01861 86.88756 77.45308
# Shear Modulus (GPa) = 30.91123 37.76000 34.33561
#
# Velocity S-wave (km/s) = 3.55922 3.93381 3.75119
# Velocity P-wave (km/s) = 6.69075 7.49943 7.10660
#
# Compressibility (1/GPa) = 0.01470186
#
# Stress axis : x y z
#
# Youngs Moduli (GPa) = 128.92739 65.90259 206.14012
#
# Poissons Ratio (x) = 0.22177 0.33127
# Poissons Ratio (y) = 0.43386 0.32313
# Poissons Ratio (z) = 0.20719 0.10330
#
# Static dielectric constant tensor:
#      x y z
#    x 2.051820 0.000000 0.000000 
#    y 0.000000 2.224340 0.000000 
#    z 0.000000 0.000000 1.825940 
# 
# From -- ./inp_files/4627.got.cif
#   From: 2010.05.17/outbox.cif.g08.bks.cpg/sg73_3_cif.got.tgz:4627.got - 2010.06.03 17:35:07.
