data_PCOD9532765
_publ_section_title
;
Structure prediction by ZEFSAII (Michael W. Deem and Ramdas Pophale) SiO2 
 PCOD9532765
Probable space group: I B C A 
;
_chemical_formula_sum "Si O2"
_cell_formula_units_Z 56
_cell_length_a 8.785183
_cell_length_b 12.631170
_cell_length_c 21.389762
_cell_angle_alpha 90.000000
_cell_angle_beta 90.000000
_cell_angle_gamma 90.000000
_cell_volume 2373.560713
_symmetry_space_group_name_H-M "I B C A "
_symmetry_group_IT_number 73
_symmetry_cell_setting 'orthorhombic'
loop_
_space_group_symop_operation_xyz
x,y,z
-x,1/2-y,z
x,-y,1/2-z
1/2-x,y,-z
-x,-y,-z
x,1/2+y,-z
-x,y,1/2+z
1/2+x,-y,z
1/2+x,1/2+y,1/2+z
1/2-x,-y,1/2+z
1/2+x,1/2-y,-z
-x,1/2+y,1/2-z
1/2-x,1/2-y,1/2-z
1/2+x,y,1/2-z
1/2-x,1/2+y,z
x,1/2-y,1/2+z
loop_
_atom_site_type_symbol
_atom_site_label
_atom_site_fract_x
_atom_site_fract_y
_atom_site_fract_z
Si Si1 0.750000 0.893653 0.500000
Si Si2 0.000000 0.250000 0.063275
Si Si3 0.039682 0.372622 0.321530
Si Si4 0.209508 0.500000 0.750000
Si Si5 0.761025 0.594615 0.428171
O O1 0.893325 0.827060 0.477259
O O2 0.792518 0.971731 0.557593
O O3 0.890846 0.330536 0.100956
O O4 0.180146 0.411305 0.278536
O O5 0.106889 0.391047 0.390554
O O6 0.000000 0.250000 0.313262
O O7 0.898513 0.446017 0.301606
O O8 0.750000 0.633947 0.500000
#
# Coordination Sequence:
#
# PCOD9532765 Si02
#       5
#     8   8  16   8  16
#     4  10  24  42  68 106 152 190 250 294 378 464
#     4  12  22  44  66 102 152 198 240 302 384 454
#     4  11  25  50  81 110 154 200 249 322 379 449
#     4  10  26  50  80 118 144 198 268 316 372 448
#     4  10  26  41  72 108 152 192 252 299 384 457
#
# _framework density 23.593245
#
# number of rings (size 3 to 8) (size 9 to 14) (size 15 to 20)
#    0.857    0.571    1.429    1.714    6.000    2.286 
#    7.714    0.000    0.000    0.000    0.000    0.000 
#    0.000    0.000    0.000    0.000    0.000    0.000 
#
# Total GULP energy -156451.195342 kJ/mol
# GULP energy per Si atom -5587.542691 kJ/mol
# Density = 2.353955 g / cm^3
# Si number density = 23.593245 Si / 1000 Ang^3
#
#
#
# Elastic Constant Matrix: (Units=GPa)
#
#
# Indices 1 2 3 4 5 6 
#
# 1 169.8473 98.9611 56.8367 0.0000 0.0000 0.0000
# 2 98.9611 193.2886 41.9204 0.0000 0.0000 0.0000
# 3 56.8367 41.9204 104.6777 0.0000 0.0000 0.0000
# 4 0.0000 0.0000 0.0000 -35.6349 0.0000 0.0000
# 5 0.0000 0.0000 0.0000 0.0000 18.4384 0.0000
# 6 0.0000 0.0000 0.0000 0.0000 0.0000 45.0282
#
#
#
# Elastic Compliance Matrix: (Units=1/GPa)
#
#
# Indices 1 2 3 4 5 6 
#
# 1 0.009426 -0.004069 -0.003488 0.000000 0.000000 0.000000
# 2 -0.004069 0.007423 -0.000763 0.000000 0.000000 0.000000
# 3 -0.003488 -0.000763 0.011753 0.000000 0.000000 0.000000
# 4 0.000000 0.000000 0.000000 -0.028062 0.000000 0.000000
# 5 0.000000 0.000000 0.000000 0.000000 0.054235 0.000000
# 6 0.000000 0.000000 0.000000 0.000000 0.000000 0.022208
#
#
# Mechanical properties :
#
#
# Convention : Reuss Voigt Hill
#
# Bulk Modulus (GPa) = 83.61297 95.91668 89.76483
# Shear Modulus (GPa) = 51.22427 23.57269 37.39848
#
# Velocity S-wave (km/s) = 4.66461 3.16433 3.98569
# Velocity P-wave (km/s) = 8.03291 7.35481 7.70133
#
# Compressibility (1/GPa) = 0.01195987
#
# Stress axis : x y z
#
# Youngs Moduli (GPa) = 106.08951 134.72410 85.08660
#
# Poissons Ratio (x) = 0.54825 0.29681
# Poissons Ratio (y) = 0.43172 0.06492
# Poissons Ratio (z) = 0.37008 0.10279
#
# Static dielectric constant tensor:
#      x y z
#    x 1.915580 0.000000 0.000000 
#    y 0.000000 1.891750 0.000000 
#    z 0.000000 0.000000 1.958320 
# 
# From -- ./inp_files/15490.got.cif
#   From: 2010.05.17/outbox.cif.g08.bks.cpg/sg73_8_cif.got.tgz:15490.got - 2010.06.03 17:35:07.
