data_PCOD9532124
_publ_section_title
;
Structure prediction by ZEFSAII (Michael W. Deem and Ramdas Pophale) SiO2 
 PCOD9532124
Probable space group: I B C A 
;
_chemical_formula_sum "Si O2"
_cell_formula_units_Z 96
_cell_length_a 15.752237
_cell_length_b 23.042113
_cell_length_c 11.527550
_cell_angle_alpha 90.000000
_cell_angle_beta 90.000000
_cell_angle_gamma 90.000000
_cell_volume 4184.095168
_symmetry_space_group_name_H-M "I B C A "
_symmetry_group_IT_number 73
_symmetry_cell_setting 'orthorhombic'
loop_
_space_group_symop_operation_xyz
x,y,z
-x,1/2-y,z
x,-y,1/2-z
1/2-x,y,-z
-x,-y,-z
x,1/2+y,-z
-x,y,1/2+z
1/2+x,-y,z
1/2+x,1/2+y,1/2+z
1/2-x,-y,1/2+z
1/2+x,1/2-y,-z
-x,1/2+y,1/2-z
1/2-x,1/2-y,1/2-z
1/2+x,y,1/2-z
1/2-x,1/2+y,z
x,1/2-y,1/2+z
loop_
_atom_site_type_symbol
_atom_site_label
_atom_site_fract_x
_atom_site_fract_y
_atom_site_fract_z
Si Si1 0.197128 0.846330 0.249770
Si Si2 0.448070 0.412362 0.927070
Si Si3 0.122122 0.875085 0.700793
Si Si4 0.457767 0.689086 0.397878
Si Si5 0.142463 0.917235 0.442678
Si Si6 0.319637 0.042619 0.591119
O O1 0.298151 0.835617 0.256830
O O2 0.129355 0.808407 0.177573
O O3 0.170622 0.857457 0.382208
O O4 0.183968 0.910359 0.191816
O O5 0.396323 0.417000 0.808773
O O6 0.545353 0.424566 0.905769
O O7 0.440646 0.348594 0.986393
O O8 0.409480 0.452445 0.026266
O O9 0.145267 0.907617 0.581094
O O10 0.032449 0.843545 0.674677
O O11 0.500000 0.750000 0.427379
O O12 0.191699 0.974028 0.396920
O O13 0.250000 0.064243 0.500000
#
# Coordination Sequence:
#
# PCOD9532124 Si02
#       6
#    16  16  16  16  16  16
#     4  11  22  41  66  92 135 170 211 274 323 374
#     4  10  22  42  61  89 127 167 213 271 322 382
#     4  11  22  42  66  92 134 168 214 272 324 384
#     4  10  24  43  68  94 120 167 218 272 332 387
#     4  11  23  39  61  96 131 174 214 260 320 388
#     4  11  21  37  62  92 128 176 221 256 311 387
#
# _framework density 22.944027999999999
#
# number of rings (size 3 to 8) (size 9 to 14) (size 15 to 20)
#    0.000    1.333    3.333    2.500    0.000    2.000 
#    3.000    0.000    7.333    0.000    0.000    0.000 
#    0.000    0.000    0.000    0.000    0.000    0.000 
#
# Total GULP energy -267822.658317 kJ/mol
# GULP energy per Si atom -5579.638715 kJ/mol
# Density = 2.289181 g / cm^3
# Si number density = 22.944028 Si / 1000 Ang^3
#
#
#
# Elastic Constant Matrix: (Units=GPa)
#
#
# Indices 1 2 3 4 5 6 
#
# 1 108.8381 -21.7912 -0.1777 0.0000 0.0000 0.0000
# 2 -21.7912 49.7785 14.9201 0.0000 0.0000 0.0000
# 3 -0.1777 14.9201 97.5966 0.0000 0.0000 0.0000
# 4 0.0000 0.0000 0.0000 7.7673 0.0000 0.0000
# 5 0.0000 0.0000 0.0000 0.0000 27.2494 0.0000
# 6 0.0000 0.0000 0.0000 0.0000 0.0000 25.9429
#
#
#
# Elastic Compliance Matrix: (Units=1/GPa)
#
#
# Indices 1 2 3 4 5 6 
#
# 1 0.010115 0.004635 -0.000690 0.000000 0.000000 0.000000
# 2 0.004635 0.023177 -0.003535 0.000000 0.000000 0.000000
# 3 -0.000690 -0.003535 0.010785 0.000000 0.000000 0.000000
# 4 0.000000 0.000000 0.000000 0.128745 0.000000 0.000000
# 5 0.000000 0.000000 0.000000 0.000000 0.036698 0.000000
# 6 0.000000 0.000000 0.000000 0.000000 0.000000 0.038546
#
#
# Mechanical properties :
#
#
# Convention : Reuss Voigt Hill
#
# Bulk Modulus (GPa) = 22.27312 26.90174 24.58743
# Shear Modulus (GPa) = 19.06844 29.74271 24.40557
#
# Velocity S-wave (km/s) = 2.88598 3.60434 3.26498
# Velocity P-wave (km/s) = 4.56441 5.39186 4.99530
#
# Compressibility (1/GPa) = 0.04489716
#
# Stress axis : x y z
#
# Youngs Moduli (GPa) = 98.86517 43.14547 92.71803
#
# Poissons Ratio (x) = -0.19997 0.06399
# Poissons Ratio (y) = -0.45821 0.32774
# Poissons Ratio (z) = 0.06823 0.15251
#
# Static dielectric constant tensor:
#      x y z
#    x 1.927080 0.000000 0.000000 
#    y 0.000000 1.857270 0.000000 
#    z 0.000000 0.000000 1.893510 
# 
# From -- ./inp_files/12009.got.cif
#   From: 2010.05.17/outbox.cif.g08.bks.cpg/sg73_7_cif.got.tgz:12009.got - 2010.06.03 17:35:07.
