data_PCOD9532293
_publ_section_title
;
Structure prediction by ZEFSAII (Michael W. Deem and Ramdas Pophale) SiO2 
 PCOD9532293
Probable space group: I B C A 
;
_chemical_formula_sum "Si O2"
_cell_formula_units_Z 80
_cell_length_a 18.912809
_cell_length_b 8.096108
_cell_length_c 22.150720
_cell_angle_alpha 90.000000
_cell_angle_beta 90.000000
_cell_angle_gamma 90.000000
_cell_volume 3391.721442
_symmetry_space_group_name_H-M "I B C A "
_symmetry_group_IT_number 73
_symmetry_cell_setting 'orthorhombic'
loop_
_space_group_symop_operation_xyz
x,y,z
-x,1/2-y,z
x,-y,1/2-z
1/2-x,y,-z
-x,-y,-z
x,1/2+y,-z
-x,y,1/2+z
1/2+x,-y,z
1/2+x,1/2+y,1/2+z
1/2-x,-y,1/2+z
1/2+x,1/2-y,-z
-x,1/2+y,1/2-z
1/2-x,1/2-y,1/2-z
1/2+x,y,1/2-z
1/2-x,1/2+y,z
x,1/2-y,1/2+z
loop_
_atom_site_type_symbol
_atom_site_label
_atom_site_fract_x
_atom_site_fract_y
_atom_site_fract_z
Si Si1 0.922454 0.000000 0.250000
Si Si2 0.528434 0.986962 0.620118
Si Si3 0.750000 0.579368 0.500000
Si Si4 0.891479 0.334066 0.401800
Si Si5 0.645672 0.669876 0.042204
Si Si6 0.176324 0.817268 0.222621
O O1 0.967425 0.959157 0.308885
O O2 0.876953 0.166223 0.261723
O O3 0.566748 0.162713 0.608814
O O4 0.447383 0.016099 0.603591
O O5 0.576680 0.859360 0.582312
O O6 0.700265 0.480774 0.453897
O O7 0.803177 0.674061 0.454856
O O8 0.871207 0.330808 0.471184
O O9 0.831989 0.340010 0.349972
O O10 0.250000 0.750000 0.250000
O O11 0.161384 0.000000 0.250000
#
# Coordination Sequence:
#
# PCOD9532293 Si02
#       6
#     8  16   8  16  16  16
#     4  10  24  46  68 102 140 188 232 308 356 426
#     4  10  22  44  69  96 143 184 235 299 363 426
#     4  10  24  36  64  96 136 170 232 272 364 422
#     4  10  23  41  70 100 138 180 239 296 354 443
#     4  11  21  43  63  99 131 185 220 299 348 427
#     4  11  24  44  69 103 138 186 237 293 360 439
#
# _framework density 23.586843999999999
#
# number of rings (size 3 to 8) (size 9 to 14) (size 15 to 20)
#    0.000    1.600    3.000    0.600    1.400    6.400 
#    0.000    2.000    0.000    0.000    0.000    0.000 
#    0.000    0.000    0.000    0.000    0.000    0.000 
#
# Total GULP energy -223355.247992 kJ/mol
# GULP energy per Si atom -5583.881200 kJ/mol
# Density = 2.353316 g / cm^3
# Si number density = 23.586844 Si / 1000 Ang^3
#
#
#
# Elastic Constant Matrix: (Units=GPa)
#
#
# Indices 1 2 3 4 5 6 
#
# 1 82.8809 8.9579 41.1229 0.0000 0.0000 0.0000
# 2 8.9579 115.5927 8.5138 0.0000 0.0000 0.0000
# 3 41.1229 8.5138 155.6524 0.0000 0.0000 0.0000
# 4 0.0000 0.0000 0.0000 27.7141 0.0000 0.0000
# 5 0.0000 0.0000 0.0000 0.0000 9.9700 0.0000
# 6 0.0000 0.0000 0.0000 0.0000 0.0000 15.3288
#
#
#
# Elastic Compliance Matrix: (Units=1/GPa)
#
#
# Indices 1 2 3 4 5 6 
#
# 1 0.013962 -0.000814 -0.003644 0.000000 0.000000 0.000000
# 2 -0.000814 0.008733 -0.000263 0.000000 0.000000 0.000000
# 3 -0.003644 -0.000263 0.007402 0.000000 0.000000 0.000000
# 4 0.000000 0.000000 0.000000 0.036083 0.000000 0.000000
# 5 0.000000 0.000000 0.000000 0.000000 0.100301 0.000000
# 6 0.000000 0.000000 0.000000 0.000000 0.000000 0.065237
#
#
# Mechanical properties :
#
#
# Convention : Reuss Voigt Hill
#
# Bulk Modulus (GPa) = 48.41238 52.36836 50.39037
# Shear Modulus (GPa) = 20.15776 30.30466 25.23121
#
# Velocity S-wave (km/s) = 2.92656 3.58832 3.27420
# Velocity P-wave (km/s) = 5.65592 6.27842 5.97528
#
# Compressibility (1/GPa) = 0.02065587
#
# Stress axis : x y z
#
# Youngs Moduli (GPa) = 71.62543 114.50209 135.10402
#
# Poissons Ratio (x) = 0.09315 0.49233
# Poissons Ratio (y) = 0.05827 0.03550
# Poissons Ratio (z) = 0.26101 0.03009
#
# Static dielectric constant tensor:
#      x y z
#    x 1.959010 0.000000 0.000000 
#    y 0.000000 2.058520 0.000000 
#    z 0.000000 0.000000 1.897350 
# 
# From -- ./inp_files/30040.got.cif
#   From: 2010.05.17/outbox.cif.g08.bks.cpg/sg73_16_cif.got.tgz:30040.got - 2010.06.03 17:35:07.
