data_PCOD9532036
_publ_section_title
;
Structure prediction by ZEFSAII (Michael W. Deem and Ramdas Pophale) SiO2 
 PCOD9532036
Probable space group: I B C A 
;
_chemical_formula_sum "Si O2"
_cell_formula_units_Z 80
_cell_length_a 9.639311
_cell_length_b 24.678608
_cell_length_c 16.006715
_cell_angle_alpha 90.000000
_cell_angle_beta 90.000000
_cell_angle_gamma 90.000000
_cell_volume 3807.753837
_symmetry_space_group_name_H-M "I B C A "
_symmetry_group_IT_number 73
_symmetry_cell_setting 'orthorhombic'
loop_
_space_group_symop_operation_xyz
x,y,z
-x,1/2-y,z
x,-y,1/2-z
1/2-x,y,-z
-x,-y,-z
x,1/2+y,-z
-x,y,1/2+z
1/2+x,-y,z
1/2+x,1/2+y,1/2+z
1/2-x,-y,1/2+z
1/2+x,1/2-y,-z
-x,1/2+y,1/2-z
1/2-x,1/2-y,1/2-z
1/2+x,y,1/2-z
1/2-x,1/2+y,z
x,1/2-y,1/2+z
loop_
_atom_site_type_symbol
_atom_site_label
_atom_site_fract_x
_atom_site_fract_y
_atom_site_fract_z
Si Si1 0.981213 0.966841 0.915273
Si Si2 0.100634 0.125865 0.492214
Si Si3 0.882367 0.793679 0.944796
Si Si4 0.790279 0.391978 0.166002
Si Si5 0.518655 0.426996 0.679608
O O1 0.833354 0.937145 0.903690
O O2 0.002979 0.009142 0.840730
O O3 0.083850 0.916252 0.930333
O O4 0.000000 0.000000 0.000000
O O5 0.250000 0.152356 0.500000
O O6 0.973146 0.166492 0.497001
O O7 0.088637 0.095029 0.405072
O O8 0.827684 0.832768 0.870273
O O9 0.000000 0.750000 0.917851
O O10 0.750000 0.775178 0.000000
O O11 0.631046 0.399482 0.188266
O O12 0.886080 0.409652 0.243466
#
# Coordination Sequence:
#
# PCOD9532036 Si02
#       5
#    16  16  16  16  16
#     4   9  22  36  64  93 132 179 228 270 317 383
#     4  10  22  40  68  98 130 172 229 276 329 391
#     4  11  23  47  73  99 123 170 227 288 342 397
#     4  11  25  42  63  98 139 178 222 277 335 402
#     4  11  24  41  62  94 143 179 219 268 333 403
#
# _framework density 21.009761999999998
#
# number of rings (size 3 to 8) (size 9 to 14) (size 15 to 20)
#    0.000    1.600    2.000    1.200   11.200    1.600 
#    0.000    2.000    0.000    0.000    0.000    0.000 
#    0.000    0.000    0.000    0.000    0.000    0.000 
#
# Total GULP energy -223112.340200 kJ/mol
# GULP energy per Si atom -5577.808505 kJ/mol
# Density = 2.096194 g / cm^3
# Si number density = 21.009762 Si / 1000 Ang^3
#
#
#
# Elastic Constant Matrix: (Units=GPa)
#
#
# Indices 1 2 3 4 5 6 
#
# 1 165.3648 41.8896 41.1002 0.0000 0.0000 0.0000
# 2 41.8896 106.4354 34.1667 0.0000 0.0000 0.0000
# 3 41.1002 34.1667 103.7545 0.0001 -0.0001 0.0000
# 4 0.0000 0.0000 0.0001 11.7305 0.0000 0.0000
# 5 0.0000 0.0000 -0.0001 0.0000 34.6754 0.0000
# 6 0.0000 0.0000 0.0000 0.0000 0.0000 19.1602
#
#
#
# Elastic Compliance Matrix: (Units=1/GPa)
#
#
# Indices 1 2 3 4 5 6 
#
# 1 0.007111 -0.002118 -0.002119 0.000000 0.000000 0.000000
# 2 -0.002118 0.011137 -0.002828 0.000000 0.000000 0.000000
# 3 -0.002119 -0.002828 0.011409 0.000000 0.000000 0.000000
# 4 0.000000 0.000000 0.000000 0.085248 0.000000 0.000000
# 5 0.000000 0.000000 0.000000 0.000000 0.028839 0.000000
# 6 0.000000 0.000000 0.000000 0.000000 0.000000 0.052192
#
#
# Mechanical properties :
#
#
# Convention : Reuss Voigt Hill
#
# Bulk Modulus (GPa) = 64.41213 67.76309 66.08761
# Shear Modulus (GPa) = 23.22977 30.33977 26.78477
#
# Velocity S-wave (km/s) = 3.32876 3.80423 3.57441
# Velocity P-wave (km/s) = 6.74529 7.18466 6.96844
#
# Compressibility (1/GPa) = 0.01552503
#
# Stress axis : x y z
#
# Youngs Moduli (GPa) = 140.63684 89.79113 87.65026
#
# Poissons Ratio (x) = 0.19020 0.18574
# Poissons Ratio (y) = 0.29790 0.24791
# Poissons Ratio (z) = 0.29803 0.25396
#
# Static dielectric constant tensor:
#      x y z
#    x 1.757960 0.000000 0.000000 
#    y 0.000000 1.808000 0.000000 
#    z 0.000000 0.000000 1.766980 
# 
# From -- ./inp_files/20739.got.cif
#   From: 2010.05.17/outbox.cif.g08.bks.cpg/sg73_11_cif.got.tgz:20739.got - 2010.06.03 17:35:07.
