data_PCOD9532878
_publ_section_title
;
Structure prediction by ZEFSAII (Michael W. Deem and Ramdas Pophale) SiO2 
 PCOD9532878
Probable space group: I B C A 
;
_chemical_formula_sum "Si O2"
_cell_formula_units_Z 88
_cell_length_a 18.880110
_cell_length_b 13.872749
_cell_length_c 15.530267
_cell_angle_alpha 90.000000
_cell_angle_beta 90.000000
_cell_angle_gamma 90.000000
_cell_volume 4067.672424
_symmetry_space_group_name_H-M "I B C A "
_symmetry_group_IT_number 73
_symmetry_cell_setting 'orthorhombic'
loop_
_space_group_symop_operation_xyz
x,y,z
-x,1/2-y,z
x,-y,1/2-z
1/2-x,y,-z
-x,-y,-z
x,1/2+y,-z
-x,y,1/2+z
1/2+x,-y,z
1/2+x,1/2+y,1/2+z
1/2-x,-y,1/2+z
1/2+x,1/2-y,-z
-x,1/2+y,1/2-z
1/2-x,1/2-y,1/2-z
1/2+x,y,1/2-z
1/2-x,1/2+y,z
x,1/2-y,1/2+z
loop_
_atom_site_type_symbol
_atom_site_label
_atom_site_fract_x
_atom_site_fract_y
_atom_site_fract_z
Si Si1 0.809909 0.920921 0.824954
Si Si2 0.448413 0.835121 0.716423
Si Si3 0.461755 0.500000 0.750000
Si Si4 0.074402 0.210302 0.417981
Si Si5 0.151726 0.396153 0.360554
Si Si6 0.171729 0.948674 0.006995
O O1 0.868600 0.837975 0.817406
O O2 0.729210 0.884993 0.819425
O O3 0.821652 0.000000 0.750000
O O4 0.821102 0.976277 0.914360
O O5 0.500000 0.750000 0.688153
O O6 0.486019 0.935867 0.692057
O O7 0.441172 0.828474 0.820784
O O8 0.410112 0.423045 0.705816
O O9 0.127812 0.299859 0.408386
O O10 0.111259 0.127640 0.472718
O O11 0.000000 0.250000 0.452755
O O12 0.156304 0.487924 0.423322
O O13 0.250000 0.901839 0.000000
#
# Coordination Sequence:
#
# PCOD9532878 Si02
#       6
#    16  16   8  16  16  16
#     4  11  21  42  70  94 128 177 221 272 336 393
#     4  11  22  41  67  99 132 174 220 275 333 393
#     4  12  20  42  66  96 136 166 220 276 324 400
#     4  11  22  44  67  97 137 174 214 281 342 386
#     4  11  25  42  68  97 132 174 225 274 329 399
#     4  10  24  45  66  96 135 175 222 276 331 398
#
# _framework density 21.633994000000001
#
# number of rings (size 3 to 8) (size 9 to 14) (size 15 to 20)
#    0.000    1.091    7.273    0.000    0.000    3.636 
#    9.818    0.000    0.000    0.000    0.000    0.000 
#    0.000    0.000    0.000    0.000    0.000    0.000 
#
# Total GULP energy -245979.916939 kJ/mol
# GULP energy per Si atom -5590.452658 kJ/mol
# Density = 2.158475 g / cm^3
# Si number density = 21.633994 Si / 1000 Ang^3
#
#
#
# Elastic Constant Matrix: (Units=GPa)
#
#
# Indices 1 2 3 4 5 6 
#
# 1 172.2682 53.6348 17.5409 0.0000 0.0000 0.0000
# 2 53.6348 77.3728 -14.3340 0.0000 0.0000 0.0000
# 3 17.5409 -14.3340 21.1466 0.0000 0.0000 0.0000
# 4 0.0000 0.0000 0.0000 17.8285 0.0000 0.0000
# 5 0.0000 0.0000 0.0000 0.0000 24.1153 0.0000
# 6 0.0000 0.0000 0.0000 0.0000 0.0000 48.8364
#
#
#
# Elastic Compliance Matrix: (Units=1/GPa)
#
#
# Indices 1 2 3 4 5 6 
#
# 1 0.010609 -0.010275 -0.015765 0.000000 0.000000 0.000000
# 2 -0.010275 0.024732 0.025287 0.000000 0.000000 0.000000
# 3 -0.015765 0.025287 0.077506 0.000000 0.000000 0.000000
# 4 0.000000 0.000000 0.000000 0.056090 0.000000 0.000000
# 5 0.000000 0.000000 0.000000 0.000000 0.041467 0.000000
# 6 0.000000 0.000000 0.000000 0.000000 0.000000 0.020477
#
#
# Mechanical properties :
#
#
# Convention : Reuss Voigt Hill
#
# Bulk Modulus (GPa) = 8.98138 42.71899 25.85018
# Shear Modulus (GPa) = 18.55285 32.41911 25.48598
#
# Velocity S-wave (km/s) = 2.93162 3.87528 3.43600
# Velocity P-wave (km/s) = 3.95218 6.30974 5.26463
#
# Compressibility (1/GPa) = 0.11134151
#
# Stress axis : x y z
#
# Youngs Moduli (GPa) = 94.25825 40.43411 12.90218
#
# Poissons Ratio (x) = 0.41545 0.20340
# Poissons Ratio (y) = 0.96849 -0.32626
# Poissons Ratio (z) = 1.48597 -1.02246
#
# Static dielectric constant tensor:
#      x y z
#    x 1.791600 0.000000 0.000000 
#    y 0.000000 1.770080 0.000000 
#    z 0.000000 0.000000 1.793050 
# 
# From -- ./inp_files/22469.got.cif
#   From: 2010.05.17/outbox.cif.g08.bks.cpg/sg73_12_cif.got.tgz:22469.got - 2010.06.03 17:35:07.
