data_PCOD9532644
_publ_section_title
;
Structure prediction by ZEFSAII (Michael W. Deem and Ramdas Pophale) SiO2 
 PCOD9532644
Probable space group: I B C A 
;
_chemical_formula_sum "Si O2"
_cell_formula_units_Z 56
_cell_length_a 17.941923
_cell_length_b 27.433069
_cell_length_c 5.253504
_cell_angle_alpha 90.000000
_cell_angle_beta 90.000000
_cell_angle_gamma 90.000000
_cell_volume 2585.785237
_symmetry_space_group_name_H-M "I B C A "
_symmetry_group_IT_number 73
_symmetry_cell_setting 'orthorhombic'
loop_
_space_group_symop_operation_xyz
x,y,z
-x,1/2-y,z
x,-y,1/2-z
1/2-x,y,-z
-x,-y,-z
x,1/2+y,-z
-x,y,1/2+z
1/2+x,-y,z
1/2+x,1/2+y,1/2+z
1/2-x,-y,1/2+z
1/2+x,1/2-y,-z
-x,1/2+y,1/2-z
1/2-x,1/2-y,1/2-z
1/2+x,y,1/2-z
1/2-x,1/2+y,z
x,1/2-y,1/2+z
loop_
_atom_site_type_symbol
_atom_site_label
_atom_site_fract_x
_atom_site_fract_y
_atom_site_fract_z
Si Si1 0.699446 0.000000 0.750000
Si Si2 0.338697 0.720012 0.996855
Si Si3 0.542905 0.855330 0.155412
Si Si4 0.426258 0.966234 0.542978
O O1 0.750000 0.990912 0.500000
O O2 0.636181 0.959197 0.823535
O O3 0.357834 0.741166 0.719422
O O4 0.250000 0.712173 0.000000
O O5 0.382285 0.671454 0.071110
O O6 0.516790 0.841549 0.437308
O O7 0.550809 0.913749 0.142940
O O8 0.386372 0.000000 0.750000
O O9 0.500000 0.000000 0.500000
#
# Coordination Sequence:
#
# PCOD9532644 Si02
#       4
#     8  16  16  16
#     4  12  26  42  64  98 134 176 232 298 334 384
#     4  10  23  46  68  94 134 177 217 278 351 408
#     4  12  25  40  69 104 130 175 231 277 333 408
#     4  12  23  45  70  95 141 193 227 275 348 416
#
# _framework density 21.656863999999999
#
# number of rings (size 3 to 8) (size 9 to 14) (size 15 to 20)
#    0.000    0.571    5.714    1.714    0.000    4.571 
#    0.000    1.429    0.000    0.000    0.000    0.000 
#    0.000    0.000    0.000    0.000    0.000    0.000 
#
# Total GULP energy -156070.379050 kJ/mol
# GULP energy per Si atom -5573.942109 kJ/mol
# Density = 2.160757 g / cm^3
# Si number density = 21.656864 Si / 1000 Ang^3
#
#
#
# Elastic Constant Matrix: (Units=GPa)
#
#
# Indices 1 2 3 4 5 6 
#
# 1 97.7575 38.1581 44.1945 0.0000 0.0000 0.0000
# 2 38.1581 90.2107 12.2017 0.0000 0.0000 0.0000
# 3 44.1945 12.2017 121.0041 0.0000 0.0001 0.0000
# 4 0.0000 0.0000 0.0000 28.9706 0.0000 0.0000
# 5 0.0000 0.0000 0.0001 0.0000 38.2436 0.0000
# 6 0.0000 0.0000 0.0000 0.0000 0.0000 14.8898
#
#
#
# Elastic Compliance Matrix: (Units=1/GPa)
#
#
# Indices 1 2 3 4 5 6 
#
# 1 0.014524 -0.005501 -0.004750 0.000000 0.000000 0.000000
# 2 -0.005501 0.013322 0.000666 0.000000 0.000000 0.000000
# 3 -0.004750 0.000666 0.009932 0.000000 0.000000 0.000000
# 4 0.000000 0.000000 0.000000 0.034518 0.000000 0.000000
# 5 0.000000 0.000000 0.000000 0.000000 0.026148 0.000000
# 6 0.000000 0.000000 0.000000 0.000000 0.000000 0.067160
#
#
# Mechanical properties :
#
#
# Convention : Reuss Voigt Hill
#
# Bulk Modulus (GPa) = 53.74160 55.34232 54.54196
# Shear Modulus (GPa) = 26.18124 30.71535 28.44829
#
# Velocity S-wave (km/s) = 3.48071 3.77008 3.62828
# Velocity P-wave (km/s) = 6.40490 6.67540 6.54155
#
# Compressibility (1/GPa) = 0.01860756
#
# Stress axis : x y z
#
# Youngs Moduli (GPa) = 68.85167 75.06399 100.68606
#
# Poissons Ratio (x) = 0.41293 0.47825
# Poissons Ratio (y) = 0.37875 -0.06704
# Poissons Ratio (z) = 0.32704 -0.04998
#
# Static dielectric constant tensor:
#      x y z
#    x 1.804340 0.000000 0.000000 
#    y 0.000000 1.751920 0.000000 
#    z 0.000000 0.000000 2.581020 
# 
# From -- ./inp_files/1007.got.cif
#   From: 2010.05.17/outbox.cif.g08.bks.cpg/sg73_1_cif.got.tgz:1007.got - 2010.06.03 17:35:07.
