data_PCOD9532230
_publ_section_title
;
Structure prediction by ZEFSAII (Michael W. Deem and Ramdas Pophale) SiO2 
 PCOD9532230
Probable space group: I B C A 
;
_chemical_formula_sum "Si O2"
_cell_formula_units_Z 112
_cell_length_a 29.112379
_cell_length_b 13.584219
_cell_length_c 12.553519
_cell_angle_alpha 90.000000
_cell_angle_beta 90.000000
_cell_angle_gamma 90.000000
_cell_volume 4964.526751
_symmetry_space_group_name_H-M "I B C A "
_symmetry_group_IT_number 73
_symmetry_cell_setting 'orthorhombic'
loop_
_space_group_symop_operation_xyz
x,y,z
-x,1/2-y,z
x,-y,1/2-z
1/2-x,y,-z
-x,-y,-z
x,1/2+y,-z
-x,y,1/2+z
1/2+x,-y,z
1/2+x,1/2+y,1/2+z
1/2-x,-y,1/2+z
1/2+x,1/2-y,-z
-x,1/2+y,1/2-z
1/2-x,1/2-y,1/2-z
1/2+x,y,1/2-z
1/2-x,1/2+y,z
x,1/2-y,1/2+z
loop_
_atom_site_type_symbol
_atom_site_label
_atom_site_fract_x
_atom_site_fract_y
_atom_site_fract_z
Si Si1 0.541642 0.072967 0.648844
Si Si2 0.198124 0.763223 0.149817
Si Si3 0.754123 0.589197 0.310840
Si Si4 0.105330 0.785512 0.770588
Si Si5 0.939415 0.396403 0.309560
Si Si6 0.197179 0.543083 0.536845
Si Si7 0.603454 0.068430 0.969954
O O1 0.578831 0.153875 0.679388
O O2 0.490758 0.116946 0.644002
O O3 0.540138 0.000000 0.750000
O O4 0.562015 0.007540 0.554292
O O5 0.229763 0.836741 0.219297
O O6 0.223347 0.661893 0.117908
O O7 0.156017 0.735411 0.226428
O O8 0.187466 0.840090 0.056020
O O9 0.728231 0.500000 0.250000
O O10 0.797459 0.535250 0.366296
O O11 0.076647 0.684914 0.774887
O O12 0.103794 0.847882 0.879121
O O13 0.936803 0.500000 0.250000
O O14 0.905738 0.394399 0.410686
O O15 0.250000 0.538806 0.500000
O O16 0.153140 0.514966 0.467277
#
# Coordination Sequence:
#
# PCOD9532230 Si02
#       7
#    16  16  16  16  16  16  16
#     4   9  22  45  71 101 137 179 232 290 353 419
#     4  10  22  43  66  92 136 179 232 288 354 412
#     4   9  22  40  65  88 127 183 229 286 348 407
#     4  11  24  42  71 100 143 181 230 290 356 428
#     4  11  24  46  72 103 142 184 232 296 355 430
#     4  11  25  42  62 101 139 177 242 289 348 425
#     4  11  25  44  71 106 139 184 240 289 363 430
#
# _framework density 22.560055999999999
#
# number of rings (size 3 to 8) (size 9 to 14) (size 15 to 20)
#    0.000    1.714    1.429    0.857   10.000    2.286 
#    0.000    4.286    0.000    0.000    0.000    0.000 
#    0.000    0.000    0.000    0.000    0.000    0.000 
#
# Total GULP energy -312312.382159 kJ/mol
# GULP energy per Si atom -5577.006824 kJ/mol
# Density = 2.250871 g / cm^3
# Si number density = 22.560056 Si / 1000 Ang^3
#
#
#
# Elastic Constant Matrix: (Units=GPa)
#
#
# Indices 1 2 3 4 5 6 
#
# 1 89.6701 30.2524 19.9096 0.0000 0.0000 0.0000
# 2 30.2524 125.8478 15.4350 0.0000 0.0000 0.0000
# 3 19.9096 15.4350 57.9565 0.0000 0.0000 0.0000
# 4 0.0000 0.0000 0.0000 30.7007 0.0000 0.0000
# 5 0.0000 0.0000 0.0000 0.0000 27.5674 0.0000
# 6 0.0000 0.0000 0.0000 0.0000 0.0000 55.6242
#
#
#
# Elastic Compliance Matrix: (Units=1/GPa)
#
#
# Indices 1 2 3 4 5 6 
#
# 1 0.012867 -0.002637 -0.003718 0.000000 0.000000 0.000000
# 2 -0.002637 0.008755 -0.001426 0.000000 0.000000 0.000000
# 3 -0.003718 -0.001426 0.018911 0.000000 0.000000 0.000000
# 4 0.000000 0.000000 0.000000 0.032572 0.000000 0.000000
# 5 0.000000 0.000000 0.000000 0.000000 0.036275 0.000000
# 6 0.000000 0.000000 0.000000 0.000000 0.000000 0.017978
#
#
# Mechanical properties :
#
#
# Convention : Reuss Voigt Hill
#
# Bulk Modulus (GPa) = 40.04504 44.96313 42.50409
# Shear Modulus (GPa) = 33.05923 36.63697 34.84810
#
# Velocity S-wave (km/s) = 3.83219 4.03423 3.93451
# Velocity P-wave (km/s) = 6.11309 6.45552 6.28664
#
# Compressibility (1/GPa) = 0.02497188
#
# Stress axis : x y z
#
# Youngs Moduli (GPa) = 77.71718 114.22179 52.87870
#
# Poissons Ratio (x) = 0.30122 0.19660
# Poissons Ratio (y) = 0.20495 0.07539
# Poissons Ratio (z) = 0.28894 0.16284
#
# Static dielectric constant tensor:
#      x y z
#    x 1.877710 0.000000 0.000000 
#    y 0.000000 1.937170 0.000000 
#    z 0.000000 0.000000 2.015430 
# 
# From -- ./inp_files/20040.got.cif
#   From: 2010.05.17/outbox.cif.g08.bks.cpg/sg73_11_cif.got.tgz:20040.got - 2010.06.03 17:35:07.
