data_PCOD9532542
_publ_section_title
;
Structure prediction by ZEFSAII (Michael W. Deem and Ramdas Pophale) SiO2 
 PCOD9532542
Probable space group: I B C A 
;
_chemical_formula_sum "Si O2"
_cell_formula_units_Z 88
_cell_length_a 11.755043
_cell_length_b 19.045375
_cell_length_c 19.282458
_cell_angle_alpha 90.000000
_cell_angle_beta 90.000000
_cell_angle_gamma 90.000000
_cell_volume 4316.941311
_symmetry_space_group_name_H-M "I B C A "
_symmetry_group_IT_number 73
_symmetry_cell_setting 'orthorhombic'
loop_
_space_group_symop_operation_xyz
x,y,z
-x,1/2-y,z
x,-y,1/2-z
1/2-x,y,-z
-x,-y,-z
x,1/2+y,-z
-x,y,1/2+z
1/2+x,-y,z
1/2+x,1/2+y,1/2+z
1/2-x,-y,1/2+z
1/2+x,1/2-y,-z
-x,1/2+y,1/2-z
1/2-x,1/2-y,1/2-z
1/2+x,y,1/2-z
1/2-x,1/2+y,z
x,1/2-y,1/2+z
loop_
_atom_site_type_symbol
_atom_site_label
_atom_site_fract_x
_atom_site_fract_y
_atom_site_fract_z
Si Si1 0.999224 0.000000 0.750000
Si Si2 0.418688 0.681968 0.436581
Si Si3 0.091323 0.928971 0.624264
Si Si4 0.338983 0.305495 0.903680
Si Si5 0.806366 0.652435 0.427025
Si Si6 0.493469 0.573404 0.618429
O O1 0.071763 0.944460 0.705511
O O2 0.942458 0.957173 0.812891
O O3 0.500000 0.750000 0.426561
O O4 0.489662 0.616478 0.408326
O O5 0.383829 0.680357 0.517632
O O6 0.296678 0.684828 0.398912
O O7 0.206431 0.887666 0.611635
O O8 0.082332 0.007862 0.593082
O O9 0.354587 0.222523 0.891351
O O10 0.411031 0.362370 0.861853
O O11 0.750000 0.674659 0.500000
O O12 0.911396 0.599796 0.434415
#
# Coordination Sequence:
#
# PCOD9532542 Si02
#       6
#     8  16  16  16  16  16
#     4   8  24  48  58  90 132 180 224 278 292 378
#     4  11  20  39  64  96 134 164 206 267 335 393
#     4  10  23  43  64  90 129 175 218 266 321 377
#     4  11  22  38  66  99 131 167 206 272 336 395
#     4  12  22  40  67 100 135 162 205 280 339 395
#     4  10  24  42  65  90 133 173 223 263 322 374
#
# _framework density 20.384803000000002
#
# number of rings (size 3 to 8) (size 9 to 14) (size 15 to 20)
#    1.091    0.364    3.636    2.727    2.545    3.636 
#    3.273    2.727    0.000    0.000    0.000    0.000 
#    0.000    0.000    0.000    0.000    0.000    0.000 
#
# Total GULP energy -245015.351637 kJ/mol
# GULP energy per Si atom -5568.530719 kJ/mol
# Density = 2.033841 g / cm^3
# Si number density = 20.384803 Si / 1000 Ang^3
#
#
#
# Elastic Constant Matrix: (Units=GPa)
#
#
# Indices 1 2 3 4 5 6 
#
# 1 88.7000 44.6234 22.6405 0.0000 0.0000 0.0000
# 2 44.6234 140.4355 26.4324 0.0000 0.0000 0.0000
# 3 22.6405 26.4324 34.4988 0.0000 0.0000 0.0000
# 4 0.0000 0.0000 0.0000 -10.7883 0.0000 0.0000
# 5 0.0000 0.0000 0.0000 0.0000 12.6965 0.0000
# 6 0.0000 0.0000 0.0000 0.0000 0.0000 17.0358
#
#
#
# Elastic Compliance Matrix: (Units=1/GPa)
#
#
# Indices 1 2 3 4 5 6 
#
# 1 0.014782 -0.003355 -0.007130 0.000000 0.000000 0.000000
# 2 -0.003355 0.009082 -0.004757 0.000000 0.000000 0.000000
# 3 -0.007130 -0.004757 0.037311 0.000000 0.000000 0.000000
# 4 0.000000 0.000000 0.000000 -0.092693 0.000000 0.000000
# 5 0.000000 0.000000 0.000000 0.000000 0.078762 0.000000
# 6 0.000000 0.000000 0.000000 0.000000 0.000000 0.058700
#
#
# Mechanical properties :
#
#
# Convention : Reuss Voigt Hill
#
# Bulk Modulus (GPa) = 32.58364 50.11411 41.34888
# Shear Modulus (GPa) = 34.09301 15.11799 24.60550
#
# Velocity S-wave (km/s) = 4.09402 2.72624 3.47803
# Velocity P-wave (km/s) = 6.19411 5.87769 6.03798
#
# Compressibility (1/GPa) = 0.03069024
#
# Stress axis : x y z
#
# Youngs Moduli (GPa) = 67.65106 110.10766 26.80207
#
# Poissons Ratio (x) = 0.36939 0.19111
# Poissons Ratio (y) = 0.22696 0.12749
# Poissons Ratio (z) = 0.48238 0.52376
#
# Static dielectric constant tensor:
#      x y z
#    x 1.717660 0.000000 0.000000 
#    y 0.000000 1.764290 0.000000 
#    z 0.000000 0.000000 1.746010 
# 
# From -- ./inp_files/25369.got.cif
#   From: 2010.05.17/outbox.cif.g08.bks.cpg/sg73_13_cif.got.tgz:25369.got - 2010.06.03 17:35:07.
