data_PCOD9532872
_publ_section_title
;
Structure prediction by ZEFSAII (Michael W. Deem and Ramdas Pophale) SiO2 
 PCOD9532872
Probable space group: I B C A 
;
_chemical_formula_sum "Si O2"
_cell_formula_units_Z 56
_cell_length_a 5.183011
_cell_length_b 20.006819
_cell_length_c 21.645009
_cell_angle_alpha 90.000000
_cell_angle_beta 90.000000
_cell_angle_gamma 90.000000
_cell_volume 2244.491393
_symmetry_space_group_name_H-M "I B C A "
_symmetry_group_IT_number 73
_symmetry_cell_setting 'orthorhombic'
loop_
_space_group_symop_operation_xyz
x,y,z
-x,1/2-y,z
x,-y,1/2-z
1/2-x,y,-z
-x,-y,-z
x,1/2+y,-z
-x,y,1/2+z
1/2+x,-y,z
1/2+x,1/2+y,1/2+z
1/2-x,-y,1/2+z
1/2+x,1/2-y,-z
-x,1/2+y,1/2-z
1/2-x,1/2-y,1/2-z
1/2+x,y,1/2-z
1/2-x,1/2+y,z
x,1/2-y,1/2+z
loop_
_atom_site_type_symbol
_atom_site_label
_atom_site_fract_x
_atom_site_fract_y
_atom_site_fract_z
Si Si1 0.000000 0.250000 0.957160
Si Si2 0.530175 0.575004 0.773937
Si Si3 0.226059 0.639766 0.115512
Si Si4 0.250000 0.452174 0.500000
Si Si5 0.000000 0.750000 0.297850
O O1 0.503772 0.313512 0.087280
O O2 0.750000 0.251434 0.000000
O O3 0.574280 0.500000 0.750000
O O4 0.812444 0.605559 0.770498
O O5 0.400698 0.585343 0.839121
O O6 0.410001 0.690773 0.153486
O O7 0.317124 0.597108 0.057274
O O8 0.500000 0.500000 0.500000
O O9 0.250000 0.750000 0.250000
#
# Coordination Sequence:
#
# PCOD9532872 Si02
#       5
#     8  16  16   8   8
#     4  12  28  50  80 122 162 224 278 348 422 510
#     4  10  24  44  74 108 151 205 258 323 410 490
#     4  12  28  53  85 117 173 206 289 347 432 517
#     4  12  34  50  80 122 166 230 282 344 422 512
#     4  12  28  52  86 128 160 218 278 368 434 520
#
# _framework density 24.949974000000001
#
# number of rings (size 3 to 8) (size 9 to 14) (size 15 to 20)
#    0.000    0.571    1.429    3.429   10.000    6.857 
#    0.000    0.000    0.000    0.000    0.000    0.000 
#    0.000    0.000    0.000    0.000    0.000    0.000 
#
# Total GULP energy -156234.725777 kJ/mol
# GULP energy per Si atom -5579.811635 kJ/mol
# Density = 2.489319 g / cm^3
# Si number density = 24.949974 Si / 1000 Ang^3
#
#
#
# Elastic Constant Matrix: (Units=GPa)
#
#
# Indices 1 2 3 4 5 6 
#
# 1 190.2951 34.0262 49.2534 0.0000 0.0000 0.0000
# 2 34.0262 154.6695 82.3829 0.0000 0.0000 0.0000
# 3 49.2534 82.3829 174.6280 0.0000 0.0000 0.0000
# 4 0.0000 0.0000 0.0000 78.3532 0.0000 0.0000
# 5 0.0000 0.0000 0.0000 0.0000 15.1847 0.0000
# 6 0.0000 0.0000 0.0000 0.0000 0.0000 35.9703
#
#
#
# Elastic Compliance Matrix: (Units=1/GPa)
#
#
# Indices 1 2 3 4 5 6 
#
# 1 0.005701 -0.000531 -0.001357 0.000000 0.000000 0.000000
# 2 -0.000531 0.008685 -0.003947 0.000000 0.000000 0.000000
# 3 -0.001357 -0.003947 0.007972 0.000000 0.000000 0.000000
# 4 0.000000 0.000000 0.000000 0.012763 0.000000 0.000000
# 5 0.000000 0.000000 0.000000 0.000000 0.065856 0.000000
# 6 0.000000 0.000000 0.000000 0.000000 0.000000 0.027801
#
#
# Mechanical properties :
#
#
# Convention : Reuss Voigt Hill
#
# Bulk Modulus (GPa) = 93.58345 94.54639 94.06492
# Shear Modulus (GPa) = 34.71967 49.49698 42.10832
#
# Velocity S-wave (km/s) = 3.73442 4.45887 4.11263
# Velocity P-wave (km/s) = 7.49563 8.03028 7.76755
#
# Compressibility (1/GPa) = 0.01068565
#
# Stress axis : x y z
#
# Youngs Moduli (GPa) = 175.39784 115.14439 125.44684
#
# Poissons Ratio (x) = 0.06117 0.17029
# Poissons Ratio (y) = 0.09318 0.49518
# Poissons Ratio (z) = 0.23809 0.45451
#
# Static dielectric constant tensor:
#      x y z
#    x 1.875780 0.000000 0.000000 
#    y 0.000000 3.457990 0.000000 
#    z 0.000000 0.000000 2.068940 
# 
# From -- ./inp_files/1464.got.cif
#   From: 2010.05.17/outbox.cif.g08.bks.cpg/sg73_1_cif.got.tgz:1464.got - 2010.06.03 17:35:07.
