data_PCOD9532579
_publ_section_title
;
Structure prediction by ZEFSAII (Michael W. Deem and Ramdas Pophale) SiO2 
 PCOD9532579
Probable space group: I B C A 
;
_chemical_formula_sum "Si O2"
_cell_formula_units_Z 80
_cell_length_a 12.914613
_cell_length_b 20.667555
_cell_length_c 13.079978
_cell_angle_alpha 90.000000
_cell_angle_beta 90.000000
_cell_angle_gamma 90.000000
_cell_volume 3491.222374
_symmetry_space_group_name_H-M "I B C A "
_symmetry_group_IT_number 73
_symmetry_cell_setting 'orthorhombic'
loop_
_space_group_symop_operation_xyz
x,y,z
-x,1/2-y,z
x,-y,1/2-z
1/2-x,y,-z
-x,-y,-z
x,1/2+y,-z
-x,y,1/2+z
1/2+x,-y,z
1/2+x,1/2+y,1/2+z
1/2-x,-y,1/2+z
1/2+x,1/2-y,-z
-x,1/2+y,1/2-z
1/2-x,1/2-y,1/2-z
1/2+x,y,1/2-z
1/2-x,1/2+y,z
x,1/2-y,1/2+z
loop_
_atom_site_type_symbol
_atom_site_label
_atom_site_fract_x
_atom_site_fract_y
_atom_site_fract_z
Si Si1 0.013464 0.000973 0.877870
Si Si2 0.620778 0.373968 0.213743
Si Si3 0.147961 0.388914 0.068259
Si Si4 0.959440 0.820050 0.016148
Si Si5 0.183665 0.080373 0.099573
O O1 0.903336 0.967065 0.854795
O O2 0.116367 0.955976 0.876264
O O3 0.042198 0.066036 0.817026
O O4 0.000000 0.000000 0.000000
O O5 0.632098 0.346662 0.328356
O O6 0.587610 0.320795 0.129822
O O7 0.733365 0.399860 0.182860
O O8 0.250000 0.390135 0.000000
O O9 0.059131 0.366117 0.991502
O O10 0.000000 0.750000 0.986475
O O11 0.876802 0.856272 0.943537
O O12 0.250000 0.056116 0.000000
#
# Coordination Sequence:
#
# PCOD9532579 Si02
#       5
#    16  16  16  16  16
#     4  11  20  40  66  94 132 168 214 262 319 394
#     4  11  23  43  66  95 131 179 214 264 337 383
#     4  11  26  41  63 100 135 166 221 267 320 400
#     4  10  23  44  68  91 125 169 223 278 326 383
#     4   9  19  38  66  93 131 170 215 267 325 382
#
# _framework density 22.91461
#
# number of rings (size 3 to 8) (size 9 to 14) (size 15 to 20)
#    0.000    1.600    6.000    0.600    2.800    6.400 
#    3.600    2.000    0.000    0.000    0.000    0.000 
#    0.000    0.000    0.000    0.000    0.000    0.000 
#
# Total GULP energy -222765.668497 kJ/mol
# GULP energy per Si atom -5569.141712 kJ/mol
# Density = 2.286246 g / cm^3
# Si number density = 22.914610 Si / 1000 Ang^3
#
#
#
# Elastic Constant Matrix: (Units=GPa)
#
#
# Indices 1 2 3 4 5 6 
#
# 1 161.2082 34.5919 59.4212 0.0000 0.0000 0.0000
# 2 34.5919 78.4237 6.4592 0.0000 0.0000 0.0000
# 3 59.4212 6.4592 154.9807 0.0001 0.0000 0.0000
# 4 0.0000 0.0000 0.0001 9.1268 0.0000 0.0000
# 5 0.0000 0.0000 0.0000 0.0000 38.4863 0.0000
# 6 0.0000 0.0000 0.0000 0.0000 0.0000 18.6656
#
#
#
# Elastic Compliance Matrix: (Units=1/GPa)
#
#
# Indices 1 2 3 4 5 6 
#
# 1 0.007985 -0.003281 -0.002925 0.000000 0.000000 0.000000
# 2 -0.003281 0.014144 0.000669 0.000000 0.000000 0.000000
# 3 -0.002925 0.000669 0.007546 0.000000 0.000000 0.000000
# 4 0.000000 0.000000 0.000000 0.109567 0.000000 0.000000
# 5 0.000000 0.000000 0.000000 0.000000 0.025983 0.000000
# 6 0.000000 0.000000 0.000000 0.000000 0.000000 0.053574
#
#
# Mechanical properties :
#
#
# Convention : Reuss Voigt Hill
#
# Bulk Modulus (GPa) = 53.76445 66.17301 59.96873
# Shear Modulus (GPa) = 21.17970 32.86511 27.02241
#
# Velocity S-wave (km/s) = 3.04351 3.79125 3.43777
# Velocity P-wave (km/s) = 5.98870 6.93582 6.47958
#
# Compressibility (1/GPa) = 0.01859965
#
# Stress axis : x y z
#
# Youngs Moduli (GPa) = 125.22865 70.70354 132.52064
#
# Poissons Ratio (x) = 0.23200 0.38761
# Poissons Ratio (y) = 0.41092 -0.08861
# Poissons Ratio (z) = 0.36628 -0.04728
#
# Static dielectric constant tensor:
#      x y z
#    x 1.855010 0.000000 0.000000 
#    y 0.000000 2.237970 0.000000 
#    z 0.000000 0.000000 2.274440 
# 
# From -- ./inp_files/16051.got.cif
#   From: 2010.05.17/outbox.cif.g08.bks.cpg/sg73_9_cif.got.tgz:16051.got - 2010.06.03 17:35:07.
