data_PCOD9532170
_publ_section_title
;
Structure prediction by ZEFSAII (Michael W. Deem and Ramdas Pophale) SiO2 
 PCOD9532170
Probable space group: I B C A 
;
_chemical_formula_sum "Si O2"
_cell_formula_units_Z 80
_cell_length_a 11.221098
_cell_length_b 21.022179
_cell_length_c 14.462508
_cell_angle_alpha 90.000000
_cell_angle_beta 90.000000
_cell_angle_gamma 90.000000
_cell_volume 3411.588935
_symmetry_space_group_name_H-M "I B C A "
_symmetry_group_IT_number 73
_symmetry_cell_setting 'orthorhombic'
loop_
_space_group_symop_operation_xyz
x,y,z
-x,1/2-y,z
x,-y,1/2-z
1/2-x,y,-z
-x,-y,-z
x,1/2+y,-z
-x,y,1/2+z
1/2+x,-y,z
1/2+x,1/2+y,1/2+z
1/2-x,-y,1/2+z
1/2+x,1/2-y,-z
-x,1/2+y,1/2-z
1/2-x,1/2-y,1/2-z
1/2+x,y,1/2-z
1/2-x,1/2+y,z
x,1/2-y,1/2+z
loop_
_atom_site_type_symbol
_atom_site_label
_atom_site_fract_x
_atom_site_fract_y
_atom_site_fract_z
Si Si1 0.473582 0.883578 0.174858
Si Si2 0.630187 0.126424 0.621133
Si Si3 0.695581 0.979921 0.152617
Si Si4 0.250000 0.770346 0.500000
Si Si5 0.000000 0.250000 0.586896
Si Si6 0.073511 0.565173 0.513504
O O1 0.406669 0.875941 0.271844
O O2 0.580751 0.935602 0.178456
O O3 0.519876 0.813716 0.146809
O O4 0.396942 0.908549 0.087599
O O5 0.711966 0.065310 0.602192
O O6 0.704432 0.186108 0.585301
O O7 0.512774 0.117379 0.559618
O O8 0.749827 0.000000 0.250000
O O9 0.663479 0.040228 0.090617
O O10 0.374689 0.738463 0.532026
O O11 0.000000 0.500000 0.500000
#
# Coordination Sequence:
#
# PCOD9532170 Si02
#       6
#    16  16  16   8   8  16
#     4  11  25  47  73 109 144 198 266 308 385 461
#     4  12  24  48  73 105 153 204 246 321 394 463
#     4  11  23  42  70 106 152 195 245 316 387 468
#     4  12  26  52  82 104 162 206 258 330 388 458
#     4  12  26  54  78 114 152 208 270 320 388 456
#     4  10  22  42  68 104 145 190 246 312 382 460
#
# _framework density 23.449484999999999
#
# number of rings (size 3 to 8) (size 9 to 14) (size 15 to 20)
#    0.000    0.800    6.000    1.200    5.600    1.600 
#    7.200    0.000    0.000    0.000    0.000    0.000 
#    0.000    0.000    0.000    0.000    0.000    0.000 
#
# Total GULP energy -223568.972172 kJ/mol
# GULP energy per Si atom -5589.224304 kJ/mol
# Density = 2.339611 g / cm^3
# Si number density = 23.449485 Si / 1000 Ang^3
#
#
#
# Elastic Constant Matrix: (Units=GPa)
#
#
# Indices 1 2 3 4 5 6 
#
# 1 116.1044 29.1596 47.5345 0.0000 0.0000 0.0000
# 2 29.1596 71.1259 20.3981 0.0000 0.0000 0.0000
# 3 47.5345 20.3981 176.8785 0.0000 0.0000 0.0000
# 4 0.0000 0.0000 0.0000 29.0118 0.0000 0.0000
# 5 0.0000 0.0000 0.0000 0.0000 28.4224 0.0000
# 6 0.0000 0.0000 0.0000 0.0000 0.0000 41.0142
#
#
#
# Elastic Compliance Matrix: (Units=1/GPa)
#
#
# Indices 1 2 3 4 5 6 
#
# 1 0.010507 -0.003617 -0.002406 0.000000 0.000000 0.000000
# 2 -0.003617 0.015786 -0.000848 0.000000 0.000000 0.000000
# 3 -0.002406 -0.000848 0.006398 0.000000 0.000000 0.000000
# 4 0.000000 0.000000 0.000000 0.034469 0.000000 0.000000
# 5 0.000000 0.000000 0.000000 0.000000 0.035184 0.000000
# 6 0.000000 0.000000 0.000000 0.000000 0.000000 0.024382
#
#
# Mechanical properties :
#
#
# Convention : Reuss Voigt Hill
#
# Bulk Modulus (GPa) = 52.78012 62.03257 57.40635
# Shear Modulus (GPa) = 34.06359 37.49079 35.77719
#
# Velocity S-wave (km/s) = 3.81548 4.00282 3.91028
# Velocity P-wave (km/s) = 6.47823 6.91915 6.70231
#
# Compressibility (1/GPa) = 0.01894653
#
# Stress axis : x y z
#
# Youngs Moduli (GPa) = 95.17802 63.34782 156.29558
#
# Poissons Ratio (x) = 0.22915 0.37611
# Poissons Ratio (y) = 0.34429 0.13259
# Poissons Ratio (z) = 0.22904 0.05374
#
# Static dielectric constant tensor:
#      x y z
#    x 1.979210 0.000000 0.000000 
#    y 0.000000 1.906170 0.000000 
#    z 0.000000 0.000000 1.859850 
# 
# From -- ./inp_files/10892.got.cif
#   From: 2010.05.17/outbox.cif.g08.bks.cpg/sg73_6_cif.got.tgz:10892.got - 2010.06.03 17:35:07.
