data_PCOD9532716
_publ_section_title
;
Structure prediction by ZEFSAII (Michael W. Deem and Ramdas Pophale) SiO2 
 PCOD9532716
Probable space group: I B C A 
;
_chemical_formula_sum "Si O2"
_cell_formula_units_Z 104
_cell_length_a 8.655184
_cell_length_b 20.332013
_cell_length_c 28.683742
_cell_angle_alpha 90.000000
_cell_angle_beta 90.000000
_cell_angle_gamma 90.000000
_cell_volume 5047.687861
_symmetry_space_group_name_H-M "I B C A "
_symmetry_group_IT_number 73
_symmetry_cell_setting 'orthorhombic'
loop_
_space_group_symop_operation_xyz
x,y,z
-x,1/2-y,z
x,-y,1/2-z
1/2-x,y,-z
-x,-y,-z
x,1/2+y,-z
-x,y,1/2+z
1/2+x,-y,z
1/2+x,1/2+y,1/2+z
1/2-x,-y,1/2+z
1/2+x,1/2-y,-z
-x,1/2+y,1/2-z
1/2-x,1/2-y,1/2-z
1/2+x,y,1/2-z
1/2-x,1/2+y,z
x,1/2-y,1/2+z
loop_
_atom_site_type_symbol
_atom_site_label
_atom_site_fract_x
_atom_site_fract_y
_atom_site_fract_z
Si Si1 0.317910 0.451400 0.947916
Si Si2 0.647993 0.293594 0.785213
Si Si3 0.860701 0.593370 0.213370
Si Si4 0.289773 0.307316 0.615414
Si Si5 0.353378 0.842215 0.886775
Si Si6 0.323709 0.084759 0.949255
Si Si7 0.900089 0.000000 0.250000
O O1 0.230032 0.396322 0.918156
O O2 0.500086 0.439349 0.951591
O O3 0.277176 0.524105 0.929077
O O4 0.250000 0.450064 0.000000
O O5 0.500000 0.250000 0.799189
O O6 0.750000 0.250000 0.750000
O O7 0.600656 0.357292 0.755642
O O8 0.745783 0.314235 0.830286
O O9 0.841098 0.634731 0.166704
O O10 0.706682 0.553580 0.225328
O O11 0.993741 0.538304 0.212902
O O12 0.280387 0.229643 0.605705
O O13 0.463750 0.331975 0.605138
O O14 0.182904 0.351923 0.583398
O O15 0.250000 0.099682 0.000000
#
# Coordination Sequence:
#
# PCOD9532716 Si02
#       7
#    16  16  16  16  16  16   8
#     4  11  24  44  72  99 135 181 226 278 350 421
#     4  12  24  41  68  93 132 181 234 280 340 413
#     4  11  23  41  62  93 130 175 222 280 340 399
#     4  11  25  42  66 102 134 176 227 287 344 407
#     4  11  24  42  66  95 138 172 229 282 348 407
#     4  11  24  45  72 100 137 177 229 284 345 417
#     4  10  24  40  60  90 132 170 222 278 340 400
#
# _framework density 20.603493
#
# number of rings (size 3 to 8) (size 9 to 14) (size 15 to 20)
#    0.000    0.923    1.538    6.462    2.154    5.538 
#    0.000    0.000    0.000    0.000    0.000    0.000 
#    0.000    0.000    0.000    0.000    0.000    0.000 
#
# Total GULP energy -290926.006452 kJ/mol
# GULP energy per Si atom -5594.730893 kJ/mol
# Density = 2.055660 g / cm^3
# Si number density = 20.603493 Si / 1000 Ang^3
#
#
#
# Elastic Constant Matrix: (Units=GPa)
#
#
# Indices 1 2 3 4 5 6 
#
# 1 101.0676 35.5745 12.2031 0.0000 0.0000 0.0000
# 2 35.5745 129.2662 40.9200 0.0000 0.0000 0.0000
# 3 12.2031 40.9200 53.4423 0.0000 0.0000 0.0000
# 4 0.0000 0.0000 0.0000 23.3448 0.0000 0.0000
# 5 0.0000 0.0000 0.0000 0.0000 21.1032 0.0000
# 6 0.0000 0.0000 0.0000 0.0000 0.0000 38.5037
#
#
#
# Elastic Compliance Matrix: (Units=1/GPa)
#
#
# Indices 1 2 3 4 5 6 
#
# 1 0.010958 -0.002935 -0.000255 0.000000 0.000000 0.000000
# 2 -0.002935 0.010997 -0.007750 0.000000 0.000000 0.000000
# 3 -0.000255 -0.007750 0.024704 0.000000 0.000000 0.000000
# 4 0.000000 0.000000 0.000000 0.042836 0.000000 0.000000
# 5 0.000000 0.000000 0.000000 0.000000 0.047386 0.000000
# 6 0.000000 0.000000 0.000000 0.000000 0.000000 0.025972
#
#
# Mechanical properties :
#
#
# Convention : Reuss Voigt Hill
#
# Bulk Modulus (GPa) = 40.35624 51.24126 45.79875
# Shear Modulus (GPa) = 25.90768 29.59558 27.75163
#
# Velocity S-wave (km/s) = 3.54989 3.79414 3.67405
# Velocity P-wave (km/s) = 6.03588 6.64215 6.34626
#
# Compressibility (1/GPa) = 0.02477932
#
# Stress axis : x y z
#
# Youngs Moduli (GPa) = 91.25542 90.93351 40.47915
#
# Poissons Ratio (x) = 0.26690 0.01032
# Poissons Ratio (y) = 0.26784 0.31372
# Poissons Ratio (z) = 0.02326 0.70474
#
# Static dielectric constant tensor:
#      x y z
#    x 1.751730 0.000000 0.000000 
#    y 0.000000 1.739770 0.000000 
#    z 0.000000 0.000000 1.707790 
# 
# From -- ./inp_files/31283.got.cif
#   From: 2010.05.17/outbox.cif.g08.bks.cpg/sg73_16_cif.got.tgz:31283.got - 2010.06.03 17:35:07.
