data_PCOD9532624
_publ_section_title
;
Structure prediction by ZEFSAII (Michael W. Deem and Ramdas Pophale) SiO2 
 PCOD9532624
Probable space group: I B C A 
;
_chemical_formula_sum "Si O2"
_cell_formula_units_Z 80
_cell_length_a 10.507804
_cell_length_b 14.756152
_cell_length_c 21.871596
_cell_angle_alpha 90.000000
_cell_angle_beta 90.000000
_cell_angle_gamma 90.000000
_cell_volume 3391.294916
_symmetry_space_group_name_H-M "I B C A "
_symmetry_group_IT_number 73
_symmetry_cell_setting 'orthorhombic'
loop_
_space_group_symop_operation_xyz
x,y,z
-x,1/2-y,z
x,-y,1/2-z
1/2-x,y,-z
-x,-y,-z
x,1/2+y,-z
-x,y,1/2+z
1/2+x,-y,z
1/2+x,1/2+y,1/2+z
1/2-x,-y,1/2+z
1/2+x,1/2-y,-z
-x,1/2+y,1/2-z
1/2-x,1/2-y,1/2-z
1/2+x,y,1/2-z
1/2-x,1/2+y,z
x,1/2-y,1/2+z
loop_
_atom_site_type_symbol
_atom_site_label
_atom_site_fract_x
_atom_site_fract_y
_atom_site_fract_z
Si Si1 0.870326 0.007409 0.078362
Si Si2 0.636459 0.200401 0.714156
Si Si3 0.496261 0.564278 0.702572
Si Si4 0.806884 0.868047 0.885131
Si Si5 0.016574 0.848359 0.494905
O O1 0.728972 0.970661 0.092985
O O2 0.934159 0.016307 0.144459
O O3 0.930791 0.925201 0.039835
O O4 0.900922 0.100046 0.041367
O O5 0.500000 0.250000 0.711411
O O6 0.750000 0.250000 0.750000
O O7 0.607503 0.112041 0.755145
O O8 0.686321 0.178525 0.646046
O O9 0.569019 0.500000 0.750000
O O10 0.592548 0.631637 0.669870
O O11 0.876263 0.827130 0.943306
O O12 0.000000 0.750000 0.524516
#
# Coordination Sequence:
#
# PCOD9532624 Si02
#       5
#    16  16  16  16  16
#     4  10  23  45  72 104 146 193 257 313 383 462
#     4  12  26  44  70 112 156 196 254 311 383 460
#     4  11  24  43  68 104 145 194 241 313 379 451
#     4  11  24  43  71 101 155 194 253 316 377 460
#     4  10  24  48  76 105 150 200 260 321 387 454
#
# _framework density 23.589808999999999
#
# number of rings (size 3 to 8) (size 9 to 14) (size 15 to 20)
#    0.000    1.200    4.000    0.600    8.400    0.800 
#    0.000   10.000    0.000    0.000    0.000    0.000 
#    0.000    0.000    0.000    0.000    0.000    0.000 
#
# Total GULP energy -223280.380478 kJ/mol
# GULP energy per Si atom -5582.009512 kJ/mol
# Density = 2.353612 g / cm^3
# Si number density = 23.589809 Si / 1000 Ang^3
#
#
#
# Elastic Constant Matrix: (Units=GPa)
#
#
# Indices 1 2 3 4 5 6 
#
# 1 77.2936 15.7507 14.0384 0.0000 0.0000 0.0000
# 2 15.7507 101.7029 26.6565 0.0000 0.0000 0.0000
# 3 14.0384 26.6565 97.9734 0.0000 0.0000 0.0000
# 4 0.0000 0.0000 0.0000 31.4547 0.0000 0.0000
# 5 0.0000 0.0000 0.0000 0.0000 24.5441 0.0000
# 6 0.0000 0.0000 0.0000 0.0000 0.0000 21.3817
#
#
#
# Elastic Compliance Matrix: (Units=1/GPa)
#
#
# Indices 1 2 3 4 5 6 
#
# 1 0.013555 -0.001712 -0.001476 0.000000 0.000000 0.000000
# 2 -0.001712 0.010804 -0.002694 0.000000 0.000000 0.000000
# 3 -0.001476 -0.002694 0.011151 0.000000 0.000000 0.000000
# 4 0.000000 0.000000 0.000000 0.031792 0.000000 0.000000
# 5 0.000000 0.000000 0.000000 0.000000 0.040743 0.000000
# 6 0.000000 0.000000 0.000000 0.000000 0.000000 0.046769
#
#
# Mechanical properties :
#
#
# Convention : Reuss Voigt Hill
#
# Bulk Modulus (GPa) = 42.11507 43.31792 42.71649
# Shear Modulus (GPa) = 28.65424 30.17772 29.41598
#
# Velocity S-wave (km/s) = 3.48902 3.58057 3.53509
# Velocity P-wave (km/s) = 5.84147 5.95792 5.89998
#
# Compressibility (1/GPa) = 0.02374447
#
# Stress axis : x y z
#
# Youngs Moduli (GPa) = 73.77494 92.55930 89.67470
#
# Poissons Ratio (x) = 0.15849 0.13239
# Poissons Ratio (y) = 0.12632 0.24160
# Poissons Ratio (z) = 0.10892 0.24937
#
# Static dielectric constant tensor:
#      x y z
#    x 1.993080 0.000000 0.000000 
#    y 0.000000 2.130130 0.000000 
#    z 0.000000 0.000000 1.895300 
# 
# From -- ./inp_files/13424.got.cif
#   From: 2010.05.17/outbox.cif.g08.bks.cpg/sg73_7_cif.got.tgz:13424.got - 2010.06.03 17:35:07.
