data_PCOD9532511
_publ_section_title
;
Structure prediction by ZEFSAII (Michael W. Deem and Ramdas Pophale) SiO2 
 PCOD9532511
Probable space group: I B C A 
;
_chemical_formula_sum "Si O2"
_cell_formula_units_Z 96
_cell_length_a 15.660206
_cell_length_b 13.973704
_cell_length_c 20.245350
_cell_angle_alpha 90.000000
_cell_angle_beta 90.000000
_cell_angle_gamma 90.000000
_cell_volume 4430.311871
_symmetry_space_group_name_H-M "I B C A "
_symmetry_group_IT_number 73
_symmetry_cell_setting 'orthorhombic'
loop_
_space_group_symop_operation_xyz
x,y,z
-x,1/2-y,z
x,-y,1/2-z
1/2-x,y,-z
-x,-y,-z
x,1/2+y,-z
-x,y,1/2+z
1/2+x,-y,z
1/2+x,1/2+y,1/2+z
1/2-x,-y,1/2+z
1/2+x,1/2-y,-z
-x,1/2+y,1/2-z
1/2-x,1/2-y,1/2-z
1/2+x,y,1/2-z
1/2-x,1/2+y,z
x,1/2-y,1/2+z
loop_
_atom_site_type_symbol
_atom_site_label
_atom_site_fract_x
_atom_site_fract_y
_atom_site_fract_z
Si Si1 0.176143 0.425061 0.946522
Si Si2 0.634553 0.708120 0.270992
Si Si3 0.839820 0.133588 0.538144
Si Si4 0.234449 0.234378 0.638932
Si Si5 0.998961 0.138745 0.438176
Si Si6 0.032465 0.405122 0.790337
O O1 0.161669 0.533226 0.923206
O O2 0.212796 0.350092 0.894806
O O3 0.087031 0.385987 0.975570
O O4 0.250000 0.431714 0.000000
O O5 0.693737 0.690481 0.335343
O O6 0.689747 0.700690 0.205367
O O7 0.597739 0.816518 0.279089
O O8 0.557257 0.635634 0.264663
O O9 0.750000 0.145261 0.500000
O O10 0.835137 0.219625 0.590195
O O11 0.917123 0.127033 0.485411
O O12 0.000000 0.250000 0.418084
O O13 0.012521 0.082565 0.368968
O O14 0.057030 0.500000 0.750000
#
# Coordination Sequence:
#
# PCOD9532511 Si02
#       6
#    16  16  16  16  16  16
#     4  11  24  43  63  98 138 173 230 283 344 420
#     4  10  23  42  65  98 129 183 232 287 354 416
#     4  11  25  41  68 104 133 179 226 277 352 417
#     4  11  22  43  69  92 137 180 232 290 346 421
#     4  12  22  44  72  94 141 184 225 286 355 416
#     4  11  23  42  67  96 136 178 231 291 353 421
#
# _framework density 21.668904000000001
#
# number of rings (size 3 to 8) (size 9 to 14) (size 15 to 20)
#    0.000    1.000    3.333    4.000    2.333    4.000 
#    9.000    3.333    0.000    0.000    0.000    0.000 
#    0.000    0.000    0.000    0.000    0.000    0.000 
#
# Total GULP energy -267973.037638 kJ/mol
# GULP energy per Si atom -5582.771617 kJ/mol
# Density = 2.161958 g / cm^3
# Si number density = 21.668904 Si / 1000 Ang^3
#
#
#
# Elastic Constant Matrix: (Units=GPa)
#
#
# Indices 1 2 3 4 5 6 
#
# 1 121.0261 11.6935 39.7450 0.0000 0.0000 0.0000
# 2 11.6935 73.9271 34.7993 0.0000 0.0000 0.0000
# 3 39.7450 34.7993 84.3145 0.0000 0.0000 0.0000
# 4 0.0000 0.0000 0.0000 3.9021 0.0000 0.0000
# 5 0.0000 0.0000 0.0000 0.0000 36.6067 0.0000
# 6 0.0000 0.0000 0.0000 0.0000 0.0000 6.3803
#
#
#
# Elastic Compliance Matrix: (Units=1/GPa)
#
#
# Indices 1 2 3 4 5 6 
#
# 1 0.009812 0.000776 -0.004945 0.000000 0.000000 0.000000
# 2 0.000776 0.016850 -0.007320 0.000000 0.000000 0.000000
# 3 -0.004945 -0.007320 0.017213 0.000000 0.000000 0.000000
# 4 0.000000 0.000000 0.000000 0.256274 0.000000 0.000000
# 5 0.000000 0.000000 0.000000 0.000000 0.027317 0.000000
# 6 0.000000 0.000000 0.000000 0.000000 0.000000 0.156731
#
#
# Mechanical properties :
#
#
# Convention : Reuss Voigt Hill
#
# Bulk Modulus (GPa) = 47.85816 50.19370 49.02593
# Shear Modulus (GPa) = 9.72494 22.24650 15.98572
#
# Velocity S-wave (km/s) = 2.12078 3.20762 2.71906
# Velocity P-wave (km/s) = 5.30387 6.07723 5.70367
#
# Compressibility (1/GPa) = 0.02089508
#
# Stress axis : x y z
#
# Youngs Moduli (GPa) = 101.91820 59.34746 58.09602
#
# Poissons Ratio (x) = -0.04605 0.28731
# Poissons Ratio (y) = -0.07908 0.42528
# Poissons Ratio (z) = 0.50403 0.43444
#
# Static dielectric constant tensor:
#      x y z
#    x 1.853290 0.000000 0.000000 
#    y 0.000000 1.823700 0.000000 
#    z 0.000000 0.000000 1.822420 
# 
# From -- ./inp_files/25976.got.cif
#   From: 2010.05.17/outbox.cif.g08.bks.cpg/sg73_13_cif.got.tgz:25976.got - 2010.06.03 17:35:07.
