data_PCOD9532313
_publ_section_title
;
Structure prediction by ZEFSAII (Michael W. Deem and Ramdas Pophale) SiO2 
 PCOD9532313
Probable space group: I B C A 
;
_chemical_formula_sum "Si O2"
_cell_formula_units_Z 88
_cell_length_a 8.478012
_cell_length_b 29.678057
_cell_length_c 15.934605
_cell_angle_alpha 90.000000
_cell_angle_beta 90.000000
_cell_angle_gamma 90.000000
_cell_volume 4009.320678
_symmetry_space_group_name_H-M "I B C A "
_symmetry_group_IT_number 73
_symmetry_cell_setting 'orthorhombic'
loop_
_space_group_symop_operation_xyz
x,y,z
-x,1/2-y,z
x,-y,1/2-z
1/2-x,y,-z
-x,-y,-z
x,1/2+y,-z
-x,y,1/2+z
1/2+x,-y,z
1/2+x,1/2+y,1/2+z
1/2-x,-y,1/2+z
1/2+x,1/2-y,-z
-x,1/2+y,1/2-z
1/2-x,1/2-y,1/2-z
1/2+x,y,1/2-z
1/2-x,1/2+y,z
x,1/2-y,1/2+z
loop_
_atom_site_type_symbol
_atom_site_label
_atom_site_fract_x
_atom_site_fract_y
_atom_site_fract_z
Si Si1 0.973487 0.350283 0.712084
Si Si2 0.048413 0.500000 0.750000
Si Si3 0.250000 0.392152 0.000000
Si Si4 0.500000 0.250000 0.030542
Si Si5 0.081029 0.845224 0.462761
Si Si6 0.310455 0.438595 0.823496
Si Si7 0.693895 0.212898 0.181480
O O1 0.884591 0.396970 0.729586
O O2 0.841616 0.318991 0.669563
O O3 0.091351 0.358268 0.635188
O O4 0.056604 0.320109 0.782574
O O5 0.157426 0.459852 0.781994
O O6 0.937666 0.521233 0.821462
O O7 0.418764 0.365702 0.002214
O O8 0.268581 0.420636 0.915087
O O9 0.635838 0.234620 0.095795
O O10 0.559563 0.291812 0.976645
O O11 0.250000 0.858948 0.500000
O O12 0.750000 0.250000 0.250000
#
# Coordination Sequence:
#
# PCOD9532313 Si02
#       7
#    16   8   8   8  16  16  16
#     4  11  24  43  63  92 133 177 218 277 334 394
#     4  10  22  44  72 108 128 168 218 272 360 418
#     4  10  24  50  66 100 138 174 224 278 336 418
#     4  12  24  36  62  90 130 176 232 292 314 382
#     4  11  26  42  66  93 131 184 230 276 338 389
#     4  10  22  44  71  99 139 170 217 281 342 419
#     4  12  23  39  59  93 131 174 231 275 323 385
#
# _framework density 21.948854999999998
#
# number of rings (size 3 to 8) (size 9 to 14) (size 15 to 20)
#    0.000    1.091    1.818    4.364    6.364    0.727 
#   13.091    0.000    0.000    0.000    0.000    0.000 
#    0.000    0.000    0.000    0.000    0.000    0.000 
#
# Total GULP energy -245943.874605 kJ/mol
# GULP energy per Si atom -5589.633514 kJ/mol
# Density = 2.189890 g / cm^3
# Si number density = 21.948855 Si / 1000 Ang^3
#
#
#
# Elastic Constant Matrix: (Units=GPa)
#
#
# Indices 1 2 3 4 5 6 
#
# 1 134.6266 50.2188 37.5280 0.0000 0.0000 0.0000
# 2 50.2188 102.5766 43.1150 0.0000 0.0000 0.0000
# 3 37.5280 43.1150 56.8132 0.0001 0.0000 0.0000
# 4 0.0000 0.0000 0.0001 34.5592 0.0000 0.0000
# 5 0.0000 0.0000 0.0000 0.0000 27.9065 0.0000
# 6 0.0000 0.0000 0.0000 0.0000 0.0000 34.4635
#
#
#
# Elastic Compliance Matrix: (Units=1/GPa)
#
#
# Indices 1 2 3 4 5 6 
#
# 1 0.009702 -0.003019 -0.004117 0.000000 0.000000 0.000000
# 2 -0.003019 0.015255 -0.009582 0.000000 0.000000 0.000000
# 3 -0.004117 -0.009582 0.027593 0.000000 0.000000 0.000000
# 4 0.000000 0.000000 0.000000 0.028936 0.000000 0.000000
# 5 0.000000 0.000000 0.000000 0.000000 0.035834 0.000000
# 6 0.000000 0.000000 0.000000 0.000000 0.000000 0.029016
#
#
# Mechanical properties :
#
#
# Convention : Reuss Voigt Hill
#
# Bulk Modulus (GPa) = 52.32302 61.74889 57.03596
# Shear Modulus (GPa) = 26.86096 30.26280 28.56188
#
# Velocity S-wave (km/s) = 3.50208 3.71723 3.61126
# Velocity P-wave (km/s) = 6.34374 6.82773 6.59018
#
# Compressibility (1/GPa) = 0.01911205
#
# Stress axis : x y z
#
# Youngs Moduli (GPa) = 103.07237 65.55436 36.24096
#
# Poissons Ratio (x) = 0.19792 0.14922
# Poissons Ratio (y) = 0.31120 0.34727
# Poissons Ratio (z) = 0.42439 0.62815
#
# Static dielectric constant tensor:
#      x y z
#    x 1.874670 0.000000 0.000000 
#    y 0.000000 1.826980 0.000000 
#    z 0.000000 0.000000 1.809390 
# 
# From -- ./inp_files/20859.got.cif
#   From: 2010.05.17/outbox.cif.g08.bks.cpg/sg73_11_cif.got.tgz:20859.got - 2010.06.03 17:35:07.
