data_PCOD9532795
_publ_section_title
;
Structure prediction by ZEFSAII (Michael W. Deem and Ramdas Pophale) SiO2 
 PCOD9532795
Probable space group: I B C A 
;
_chemical_formula_sum "Si O2"
_cell_formula_units_Z 112
_cell_length_a 22.432048
_cell_length_b 16.540178
_cell_length_c 15.092787
_cell_angle_alpha 90.000000
_cell_angle_beta 90.000000
_cell_angle_gamma 90.000000
_cell_volume 5599.877769
_symmetry_space_group_name_H-M "I B C A "
_symmetry_group_IT_number 73
_symmetry_cell_setting 'orthorhombic'
loop_
_space_group_symop_operation_xyz
x,y,z
-x,1/2-y,z
x,-y,1/2-z
1/2-x,y,-z
-x,-y,-z
x,1/2+y,-z
-x,y,1/2+z
1/2+x,-y,z
1/2+x,1/2+y,1/2+z
1/2-x,-y,1/2+z
1/2+x,1/2-y,-z
-x,1/2+y,1/2-z
1/2-x,1/2-y,1/2-z
1/2+x,y,1/2-z
1/2-x,1/2+y,z
x,1/2-y,1/2+z
loop_
_atom_site_type_symbol
_atom_site_label
_atom_site_fract_x
_atom_site_fract_y
_atom_site_fract_z
Si Si1 0.357949 0.205696 0.334262
Si Si2 0.998634 0.655150 0.125869
Si Si3 0.388010 0.073043 0.053472
Si Si4 0.210491 0.084415 0.798413
Si Si5 0.300772 0.340658 0.425933
Si Si6 0.539934 0.669038 0.687150
Si Si7 0.451505 0.901911 0.056721
O O1 0.322582 0.153144 0.261394
O O2 0.314526 0.247517 0.404786
O O3 0.395639 0.286673 0.305157
O O4 0.403472 0.146058 0.384109
O O5 0.065649 0.631545 0.101996
O O6 0.000000 0.750000 0.136575
O O7 0.976034 0.624458 0.220883
O O8 0.959183 0.633112 0.041372
O O9 0.334127 0.061282 0.121845
O O10 0.426746 0.991881 0.044672
O O11 0.357847 0.112396 0.966595
O O12 0.271166 0.119422 0.839599
O O13 0.221775 0.000000 0.750000
O O14 0.250000 0.344654 0.500000
O O15 0.500000 0.750000 0.674488
O O16 0.514818 0.611728 0.608080
#
# Coordination Sequence:
#
# PCOD9532795 Si02
#       7
#    16  16  16  16  16  16  16
#     4  11  21  41  65  91 124 167 214 271 332 388
#     4  11  21  35  59  91 125 165 208 257 316 400
#     4  11  22  40  63  86 132 164 207 262 334 376
#     4  11  22  42  65  88 118 170 221 272 328 384
#     4  10  24  43  61  89 122 164 218 282 323 384
#     4   9  20  35  59  93 128 161 213 257 308 407
#     4  11  21  37  61  94 128 173 206 257 329 403
#
# _framework density 20.000437000000002
#
# number of rings (size 3 to 8) (size 9 to 14) (size 15 to 20)
#    0.000    1.429    1.429    6.429    0.000    1.143 
#    5.143    0.000    0.000    0.000    0.000    0.000 
#    0.000    0.000    0.000    0.000    0.000    0.000 
#
# Total GULP energy -312160.281012 kJ/mol
# GULP energy per Si atom -5574.290732 kJ/mol
# Density = 1.995491 g / cm^3
# Si number density = 20.000437 Si / 1000 Ang^3
#
#
#
# Elastic Constant Matrix: (Units=GPa)
#
#
# Indices 1 2 3 4 5 6 
#
# 1 70.4207 32.0035 21.3229 0.0000 0.0000 0.0000
# 2 32.0035 82.7248 37.6009 0.0000 0.0000 0.0000
# 3 21.3229 37.6009 94.8352 0.0000 0.0000 0.0000
# 4 0.0000 0.0000 0.0000 24.0320 0.0000 0.0000
# 5 0.0000 0.0000 0.0000 0.0000 19.8556 0.0000
# 6 0.0000 0.0000 0.0000 0.0000 0.0000 22.5908
#
#
#
# Elastic Compliance Matrix: (Units=1/GPa)
#
#
# Indices 1 2 3 4 5 6 
#
# 1 0.017407 -0.006044 -0.001517 0.000000 0.000000 0.000000
# 2 -0.006044 0.016845 -0.005320 0.000000 0.000000 0.000000
# 3 -0.001517 -0.005320 0.012995 0.000000 0.000000 0.000000
# 4 0.000000 0.000000 0.000000 0.041611 0.000000 0.000000
# 5 0.000000 0.000000 0.000000 0.000000 0.050364 0.000000
# 6 0.000000 0.000000 0.000000 0.000000 0.000000 0.044266
#
#
# Mechanical properties :
#
#
# Convention : Reuss Voigt Hill
#
# Bulk Modulus (GPa) = 46.54702 47.75949 47.15326
# Shear Modulus (GPa) = 23.10423 23.76592 23.43508
#
# Velocity S-wave (km/s) = 3.40249 3.45087 3.42677
# Velocity P-wave (km/s) = 6.22571 6.30944 6.26772
#
# Compressibility (1/GPa) = 0.02148365
#
# Stress axis : x y z
#
# Youngs Moduli (GPa) = 57.44892 59.36610 76.95330
#
# Poissons Ratio (x) = 0.35884 0.11675
# Poissons Ratio (y) = 0.34725 0.40936
# Poissons Ratio (z) = 0.08716 0.31581
#
# Static dielectric constant tensor:
#      x y z
#    x 1.770890 0.000000 0.000000 
#    y 0.000000 1.701030 0.000000 
#    z 0.000000 0.000000 1.780970 
# 
# From -- ./inp_files/19426.got.cif
#   From: 2010.05.17/outbox.cif.g08.bks.cpg/sg73_10_cif.got.tgz:19426.got - 2010.06.03 17:35:07.
