data_PCOD9532710
_publ_section_title
;
Structure prediction by ZEFSAII (Michael W. Deem and Ramdas Pophale) SiO2 
 PCOD9532710
Probable space group: I B C A 
;
_chemical_formula_sum "Si O2"
_cell_formula_units_Z 56
_cell_length_a 8.710198
_cell_length_b 9.704403
_cell_length_c 28.907895
_cell_angle_alpha 90.000000
_cell_angle_beta 90.000000
_cell_angle_gamma 90.000000
_cell_volume 2443.505492
_symmetry_space_group_name_H-M "I B C A "
_symmetry_group_IT_number 73
_symmetry_cell_setting 'orthorhombic'
loop_
_space_group_symop_operation_xyz
x,y,z
-x,1/2-y,z
x,-y,1/2-z
1/2-x,y,-z
-x,-y,-z
x,1/2+y,-z
-x,y,1/2+z
1/2+x,-y,z
1/2+x,1/2+y,1/2+z
1/2-x,-y,1/2+z
1/2+x,1/2-y,-z
-x,1/2+y,1/2-z
1/2-x,1/2-y,1/2-z
1/2+x,y,1/2-z
1/2-x,1/2+y,z
x,1/2-y,1/2+z
loop_
_atom_site_type_symbol
_atom_site_label
_atom_site_fract_x
_atom_site_fract_y
_atom_site_fract_z
Si Si1 0.991143 0.899843 0.433760
Si Si2 0.250000 0.487772 0.500000
Si Si3 0.772508 0.796943 0.302456
Si Si4 0.566790 0.535252 0.663535
O O1 0.024882 0.994499 0.390017
O O2 0.000000 0.750000 0.412299
O O3 0.832502 0.928086 0.459432
O O4 0.117789 0.904770 0.474070
O O5 0.750000 0.750000 0.250000
O O6 0.804018 0.656497 0.331395
O O7 0.420922 0.895959 0.189188
O O8 0.630296 0.894008 0.315790
#
# Coordination Sequence:
#
# PCOD9532710 Si02
#       4
#    16   8  16  16
#     4  11  21  43  67  98 139 176 235 277 353 408
#     4  10  24  38  68 102 134 182 222 294 338 418
#     4  11  25  45  70 100 140 177 240 284 355 414
#     4  11  25  46  71 103 137 188 224 296 343 425
#
# _framework density 22.917894
#
# number of rings (size 3 to 8) (size 9 to 14) (size 15 to 20)
#    0.000    1.143    2.857    3.429    0.000   10.286 
#    0.000    0.000    0.000    0.000    0.000    0.000 
#    0.000    0.000    0.000    0.000    0.000    0.000 
#
# Total GULP energy -156512.362276 kJ/mol
# GULP energy per Si atom -5589.727224 kJ/mol
# Density = 2.286573 g / cm^3
# Si number density = 22.917894 Si / 1000 Ang^3
#
#
#
# Elastic Constant Matrix: (Units=GPa)
#
#
# Indices 1 2 3 4 5 6 
#
# 1 64.6271 18.4940 31.2844 0.0000 0.0000 0.0000
# 2 18.4940 75.4804 32.5685 0.0000 0.0000 0.0000
# 3 31.2844 32.5685 150.5890 0.0000 0.0000 0.0000
# 4 0.0000 0.0000 0.0000 35.3702 0.0000 0.0000
# 5 0.0000 0.0000 0.0000 0.0000 46.3578 0.0000
# 6 0.0000 0.0000 0.0000 0.0000 0.0000 33.3067
#
#
#
# Elastic Compliance Matrix: (Units=1/GPa)
#
#
# Indices 1 2 3 4 5 6 
#
# 1 0.017820 -0.003054 -0.003042 0.000000 0.000000 0.000000
# 2 -0.003054 0.015135 -0.002639 0.000000 0.000000 0.000000
# 3 -0.003042 -0.002639 0.007843 0.000000 0.000000 0.000000
# 4 0.000000 0.000000 0.000000 0.028272 0.000000 0.000000
# 5 0.000000 0.000000 0.000000 0.000000 0.021571 0.000000
# 6 0.000000 0.000000 0.000000 0.000000 0.000000 0.030024
#
#
# Mechanical properties :
#
#
# Convention : Reuss Voigt Hill
#
# Bulk Modulus (GPa) = 42.86389 50.59893 46.73141
# Shear Modulus (GPa) = 34.26749 36.89692 35.58221
#
# Velocity S-wave (km/s) = 3.87101 4.01679 3.94457
# Velocity P-wave (km/s) = 6.22282 6.60598 6.41726
#
# Compressibility (1/GPa) = 0.02332966
#
# Stress axis : x y z
#
# Youngs Moduli (GPa) = 56.11799 66.07040 127.49895
#
# Poissons Ratio (x) = 0.20176 0.38779
# Poissons Ratio (y) = 0.17137 0.33647
# Poissons Ratio (z) = 0.17068 0.17436
#
# Static dielectric constant tensor:
#      x y z
#    x 1.973960 0.000000 0.000000 
#    y 0.000000 1.862730 0.000000 
#    z 0.000000 0.000000 1.797130 
# 
# From -- ./inp_files/33439.got.cif
#   From: 2010.05.17/outbox.cif.g08.bks.cpg/sg73_17_cif.got.tgz:33439.got - 2010.06.03 17:35:07.
