data_PCOD9532411
_publ_section_title
;
Structure prediction by ZEFSAII (Michael W. Deem and Ramdas Pophale) SiO2 
 PCOD9532411
Probable space group: I B C A 
;
_chemical_formula_sum "Si O2"
_cell_formula_units_Z 88
_cell_length_a 11.026052
_cell_length_b 11.747227
_cell_length_c 29.015257
_cell_angle_alpha 90.000000
_cell_angle_beta 90.000000
_cell_angle_gamma 90.000000
_cell_volume 3758.216708
_symmetry_space_group_name_H-M "I B C A "
_symmetry_group_IT_number 73
_symmetry_cell_setting 'orthorhombic'
loop_
_space_group_symop_operation_xyz
x,y,z
-x,1/2-y,z
x,-y,1/2-z
1/2-x,y,-z
-x,-y,-z
x,1/2+y,-z
-x,y,1/2+z
1/2+x,-y,z
1/2+x,1/2+y,1/2+z
1/2-x,-y,1/2+z
1/2+x,1/2-y,-z
-x,1/2+y,1/2-z
1/2-x,1/2-y,1/2-z
1/2+x,y,1/2-z
1/2-x,1/2+y,z
x,1/2-y,1/2+z
loop_
_atom_site_type_symbol
_atom_site_label
_atom_site_fract_x
_atom_site_fract_y
_atom_site_fract_z
Si Si1 0.500000 0.250000 0.283068
Si Si2 0.407083 0.401276 0.713185
Si Si3 0.678612 0.630939 0.652657
Si Si4 0.622067 0.670144 0.091075
Si Si5 0.977301 0.952718 0.620090
Si Si6 0.500000 0.250000 0.548143
Si Si7 0.250000 0.715107 0.500000
O O1 0.598465 0.294503 0.247312
O O2 0.439223 0.341132 0.316318
O O3 0.431098 0.500000 0.750000
O O4 0.282355 0.407906 0.686385
O O5 0.503406 0.400506 0.671235
O O6 0.700874 0.748632 0.625135
O O7 0.644353 0.527741 0.619434
O O8 0.500000 0.750000 0.083912
O O9 0.578955 0.549755 0.110762
O O10 0.694308 0.651592 0.044058
O O11 0.980687 0.858008 0.581286
O O12 0.625051 0.227185 0.519515
#
# Coordination Sequence:
#
# PCOD9532411 Si02
#       7
#     8  16  16  16  16   8   8
#     4  12  23  45  66  98 144 190 250 303 365 438
#     4  12  25  40  70 107 141 196 252 310 362 446
#     4  11  23  46  70  99 147 195 244 305 383 438
#     4  10  22  48  73 100 142 192 239 308 387 451
#     4  11  25  48  70 104 151 196 239 311 378 456
#     4  12  29  49  78 114 154 196 256 315 391 456
#     4  12  26  50  78 116 142 190 260 318 376 476
#
# _framework density 23.41536
#
# number of rings (size 3 to 8) (size 9 to 14) (size 15 to 20)
#    0.000    0.727    5.455    2.182    5.091    1.455 
#    3.273    0.000    0.000    0.000    0.000    0.000 
#    0.000    0.000    0.000    0.000    0.000    0.000 
#
# Total GULP energy -245635.172443 kJ/mol
# GULP energy per Si atom -5582.617556 kJ/mol
# Density = 2.336207 g / cm^3
# Si number density = 23.415360 Si / 1000 Ang^3
#
#
#
# Elastic Constant Matrix: (Units=GPa)
#
#
# Indices 1 2 3 4 5 6 
#
# 1 77.8592 14.9629 31.2932 0.0000 0.0000 0.0000
# 2 14.9629 88.8288 47.9191 0.0000 0.0000 0.0000
# 3 31.2932 47.9191 147.1569 0.0000 0.0000 0.0000
# 4 0.0000 0.0000 0.0000 -8.7090 0.0000 0.0000
# 5 0.0000 0.0000 0.0000 0.0000 111.5154 0.0000
# 6 0.0000 0.0000 0.0000 0.0000 0.0000 5.1066
#
#
#
# Elastic Compliance Matrix: (Units=1/GPa)
#
#
# Indices 1 2 3 4 5 6 
#
# 1 0.014106 -0.000919 -0.002700 0.000000 0.000000 0.000000
# 2 -0.000919 0.013717 -0.004271 0.000000 0.000000 0.000000
# 3 -0.002700 -0.004271 0.008760 0.000000 0.000000 0.000000
# 4 0.000000 0.000000 0.000000 -0.114823 0.000000 0.000000
# 5 0.000000 0.000000 0.000000 0.000000 0.008967 0.000000
# 6 0.000000 0.000000 0.000000 0.000000 0.000000 0.195827
#
#
# Mechanical properties :
#
#
# Convention : Reuss Voigt Hill
#
# Bulk Modulus (GPa) = 48.07384 55.79948 51.93666
# Shear Modulus (GPa) = 33.49675 36.22722 34.86198
#
# Velocity S-wave (km/s) = 3.78636 3.93766 3.86275
# Velocity P-wave (km/s) = 6.30007 6.67499 6.49024
#
# Compressibility (1/GPa) = 0.02080133
#
# Stress axis : x y z
#
# Youngs Moduli (GPa) = 70.89353 72.90480 114.14926
#
# Poissons Ratio (x) = 0.06703 0.30823
# Poissons Ratio (y) = 0.06518 0.48754
# Poissons Ratio (z) = 0.19143 0.31138
#
# Static dielectric constant tensor:
#      x y z
#    x 1.999810 0.000000 0.000000 
#    y 0.000000 1.939300 0.000000 
#    z 0.000000 0.000000 1.837780 
# 
# From -- ./inp_files/9912.got.cif
#   From: 2010.05.17/outbox.cif.g08.bks.cpg/sg73_5_cif.got.tgz:9912.got - 2010.06.03 17:35:07.
