data_PCOD9532254
_publ_section_title
;
Structure prediction by ZEFSAII (Michael W. Deem and Ramdas Pophale) SiO2 
 PCOD9532254
Probable space group: I B C A 
;
_chemical_formula_sum "Si O2"
_cell_formula_units_Z 88
_cell_length_a 14.293892
_cell_length_b 22.690183
_cell_length_c 13.047137
_cell_angle_alpha 90.000000
_cell_angle_beta 90.000000
_cell_angle_gamma 90.000000
_cell_volume 4231.591320
_symmetry_space_group_name_H-M "I B C A "
_symmetry_group_IT_number 73
_symmetry_cell_setting 'orthorhombic'
loop_
_space_group_symop_operation_xyz
x,y,z
-x,1/2-y,z
x,-y,1/2-z
1/2-x,y,-z
-x,-y,-z
x,1/2+y,-z
-x,y,1/2+z
1/2+x,-y,z
1/2+x,1/2+y,1/2+z
1/2-x,-y,1/2+z
1/2+x,1/2-y,-z
-x,1/2+y,1/2-z
1/2-x,1/2-y,1/2-z
1/2+x,y,1/2-z
1/2-x,1/2+y,z
x,1/2-y,1/2+z
loop_
_atom_site_type_symbol
_atom_site_label
_atom_site_fract_x
_atom_site_fract_y
_atom_site_fract_z
Si Si1 0.500000 0.750000 0.492501
Si Si2 0.560459 0.033973 0.585152
Si Si3 0.585172 0.367061 0.925965
Si Si4 0.924513 0.574551 0.793269
Si Si5 0.238637 0.844734 0.707211
Si Si6 0.184642 0.274742 0.900804
O O1 0.561844 0.701656 0.552310
O O2 0.576531 0.785490 0.427661
O O3 0.598909 0.090735 0.524902
O O4 0.515198 0.056932 0.691499
O O5 0.500000 0.000000 0.500000
O O6 0.616618 0.980044 0.639361
O O7 0.493669 0.389938 0.866320
O O8 0.677639 0.372234 0.858128
O O9 0.840026 0.611267 0.746588
O O10 0.195042 0.792359 0.638589
O O11 0.281907 0.814890 0.808160
O O12 0.250000 0.283684 0.000000
#
# Coordination Sequence:
#
# PCOD9532254 Si02
#       6
#     8  16  16  16  16  16
#     4  12  24  40  72  94 138 188 212 276 358 408
#     4   9  21  44  70  95 131 175 229 286 332 408
#     4  11  24  42  69 102 135 183 227 278 354 411
#     4  10  22  43  69  95 136 176 226 285 341 402
#     4  11  25  41  66  99 138 175 230 286 334 424
#     4  11  24  43  61 102 138 177 229 276 339 418
#
# _framework density 20.795959
#
# number of rings (size 3 to 8) (size 9 to 14) (size 15 to 20)
#    0.000    1.455    1.818    2.182    7.636    0.000 
#    0.000    9.091    4.000    0.000    0.000    0.000 
#    0.000    0.000    0.000    0.000    0.000    0.000 
#
# Total GULP energy -245314.467125 kJ/mol
# GULP energy per Si atom -5575.328798 kJ/mol
# Density = 2.074863 g / cm^3
# Si number density = 20.795959 Si / 1000 Ang^3
#
#
#
# Elastic Constant Matrix: (Units=GPa)
#
#
# Indices 1 2 3 4 5 6 
#
# 1 86.4980 13.2426 37.0617 0.0000 0.0000 0.0000
# 2 13.2426 85.5934 50.6157 0.0000 0.0000 0.0000
# 3 37.0617 50.6157 135.0904 0.0000 0.0000 0.0000
# 4 0.0000 0.0000 0.0000 34.8570 0.0000 0.0000
# 5 0.0000 0.0000 0.0000 0.0000 37.1268 0.0000
# 6 0.0000 0.0000 0.0000 0.0000 0.0000 19.5367
#
#
#
# Elastic Compliance Matrix: (Units=1/GPa)
#
#
# Indices 1 2 3 4 5 6 
#
# 1 0.013102 0.000127 -0.003642 0.000000 0.000000 0.000000
# 2 0.000127 0.015010 -0.005659 0.000000 0.000000 0.000000
# 3 -0.003642 -0.005659 0.010522 0.000000 0.000000 0.000000
# 4 0.000000 0.000000 0.000000 0.028689 0.000000 0.000000
# 5 0.000000 0.000000 0.000000 0.000000 0.026935 0.000000
# 6 0.000000 0.000000 0.000000 0.000000 0.000000 0.051186
#
#
# Mechanical properties :
#
#
# Convention : Reuss Voigt Hill
#
# Bulk Modulus (GPa) = 49.29586 56.55797 52.92691
# Shear Modulus (GPa) = 29.31648 32.05488 30.68568
#
# Velocity S-wave (km/s) = 3.75870 3.93033 3.84547
# Velocity P-wave (km/s) = 6.52634 6.91753 6.72478
#
# Compressibility (1/GPa) = 0.02028568
#
# Stress axis : x y z
#
# Youngs Moduli (GPa) = 76.32403 66.62322 95.04103
#
# Poissons Ratio (x) = -0.00843 0.34613
# Poissons Ratio (y) = -0.00966 0.53780
# Poissons Ratio (z) = 0.27797 0.37699
#
# Static dielectric constant tensor:
#      x y z
#    x 1.712330 0.000000 0.000000 
#    y 0.000000 1.828540 0.000000 
#    z 0.000000 0.000000 1.745100 
# 
# From -- ./inp_files/10960.got.cif
#   From: 2010.05.17/outbox.cif.g08.bks.cpg/sg73_6_cif.got.tgz:10960.got - 2010.06.03 17:35:07.
