data_PCOD9532005
_publ_section_title
;
Structure prediction by ZEFSAII (Michael W. Deem and Ramdas Pophale) SiO2 
 PCOD9532005
Probable space group: I B C A 
;
_chemical_formula_sum "Si O2"
_cell_formula_units_Z 56
_cell_length_a 11.988208
_cell_length_b 22.467155
_cell_length_c 9.507029
_cell_angle_alpha 90.000000
_cell_angle_beta 90.000000
_cell_angle_gamma 90.000000
_cell_volume 2560.632007
_symmetry_space_group_name_H-M "I B C A "
_symmetry_group_IT_number 73
_symmetry_cell_setting 'orthorhombic'
loop_
_space_group_symop_operation_xyz
x,y,z
-x,1/2-y,z
x,-y,1/2-z
1/2-x,y,-z
-x,-y,-z
x,1/2+y,-z
-x,y,1/2+z
1/2+x,-y,z
1/2+x,1/2+y,1/2+z
1/2-x,-y,1/2+z
1/2+x,1/2-y,-z
-x,1/2+y,1/2-z
1/2-x,1/2-y,1/2-z
1/2+x,y,1/2-z
1/2-x,1/2+y,z
x,1/2-y,1/2+z
loop_
_atom_site_type_symbol
_atom_site_label
_atom_site_fract_x
_atom_site_fract_y
_atom_site_fract_z
Si Si1 0.500000 0.750000 0.267198
Si Si2 0.492578 0.067881 0.058192
Si Si3 0.127537 0.500000 0.750000
Si Si4 0.881496 0.820524 0.481113
Si Si5 0.250000 0.940587 0.500000
O O1 0.565613 0.792383 0.376268
O O2 0.579875 0.714471 0.158823
O O3 0.549523 0.055933 0.209153
O O4 0.570312 0.113032 0.975732
O O5 0.364756 0.090550 0.051020
O O6 0.500000 0.000000 0.000000
O O7 0.208587 0.481280 0.626079
O O8 0.750000 0.820001 0.500000
#
# Coordination Sequence:
#
# PCOD9532005 Si02
#       5
#     8  16   8  16   8
#     4  10  26  50  72 108 128 188 250 292 358 400
#     4  10  24  40  67 105 140 186 228 277 361 415
#     4  10  22  40  64  98 142 184 230 274 344 426
#     4  11  25  48  77 101 143 183 238 300 348 416
#     4  10  22  42  62  96 146 178 232 278 338 422
#
# _framework density 21.869599000000001
#
# number of rings (size 3 to 8) (size 9 to 14) (size 15 to 20)
#    0.000    1.714    0.000    1.714   16.000    2.286 
#   10.286    0.000    0.000    0.000    0.000    0.000 
#    0.000    0.000    0.000    0.000    0.000    0.000 
#
# Total GULP energy -156241.929226 kJ/mol
# GULP energy per Si atom -5580.068901 kJ/mol
# Density = 2.181982 g / cm^3
# Si number density = 21.869599 Si / 1000 Ang^3
#
#
#
# Elastic Constant Matrix: (Units=GPa)
#
#
# Indices 1 2 3 4 5 6 
#
# 1 174.2154 29.4754 52.7208 0.0000 0.0000 0.0000
# 2 29.4754 91.3697 35.9461 0.0000 0.0000 0.0000
# 3 52.7208 35.9461 143.0995 0.0002 -0.0001 -0.0001
# 4 0.0000 0.0000 0.0002 28.1211 0.0000 0.0000
# 5 0.0000 0.0000 -0.0001 0.0000 42.0312 0.0000
# 6 0.0000 0.0000 -0.0001 0.0000 0.0000 24.6690
#
#
#
# Elastic Compliance Matrix: (Units=1/GPa)
#
#
# Indices 1 2 3 4 5 6 
#
# 1 0.006597 -0.001300 -0.002104 0.000000 0.000000 0.000000
# 2 -0.001300 0.012401 -0.002636 0.000000 0.000000 0.000000
# 3 -0.002104 -0.002636 0.008425 0.000000 0.000000 0.000000
# 4 0.000000 0.000000 0.000000 0.035560 0.000000 0.000000
# 5 0.000000 0.000000 0.000000 0.000000 0.023792 0.000000
# 6 0.000000 0.000000 0.000000 0.000000 0.000000 0.040537
#
#
# Mechanical properties :
#
#
# Convention : Reuss Voigt Hill
#
# Bulk Modulus (GPa) = 65.17690 71.66324 68.42007
# Shear Modulus (GPa) = 34.60046 38.33373 36.46709
#
# Velocity S-wave (km/s) = 3.98191 4.19123 4.08791
# Velocity P-wave (km/s) = 7.14199 7.50076 7.32357
#
# Compressibility (1/GPa) = 0.01534286
#
# Stress axis : x y z
#
# Youngs Moduli (GPa) = 151.59202 80.63799 118.68956
#
# Poissons Ratio (x) = 0.10486 0.24968
# Poissons Ratio (y) = 0.19713 0.31287
# Poissons Ratio (z) = 0.31890 0.21256
#
# Static dielectric constant tensor:
#      x y z
#    x 1.800220 0.000000 0.000000 
#    y 0.000000 1.805230 0.000000 
#    z 0.000000 0.000000 1.737560 
# 
# From -- ./inp_files/3884.got.cif
#   From: 2010.05.17/outbox.cif.g08.bks.cpg/sg73_2_cif.got.tgz:3884.got - 2010.06.03 17:35:07.
