data_PCOD9532449
_publ_section_title
;
Structure prediction by ZEFSAII (Michael W. Deem and Ramdas Pophale) SiO2 
 PCOD9532449
Probable space group: I B C A 
;
_chemical_formula_sum "Si O2"
_cell_formula_units_Z 80
_cell_length_a 23.077889
_cell_length_b 18.631803
_cell_length_c 8.786706
_cell_angle_alpha 90.000000
_cell_angle_beta 90.000000
_cell_angle_gamma 90.000000
_cell_volume 3778.131407
_symmetry_space_group_name_H-M "I B C A "
_symmetry_group_IT_number 73
_symmetry_cell_setting 'orthorhombic'
loop_
_space_group_symop_operation_xyz
x,y,z
-x,1/2-y,z
x,-y,1/2-z
1/2-x,y,-z
-x,-y,-z
x,1/2+y,-z
-x,y,1/2+z
1/2+x,-y,z
1/2+x,1/2+y,1/2+z
1/2-x,-y,1/2+z
1/2+x,1/2-y,-z
-x,1/2+y,1/2-z
1/2-x,1/2-y,1/2-z
1/2+x,y,1/2-z
1/2-x,1/2+y,z
x,1/2-y,1/2+z
loop_
_atom_site_type_symbol
_atom_site_label
_atom_site_fract_x
_atom_site_fract_y
_atom_site_fract_z
Si Si1 0.975970 0.674590 0.375244
Si Si2 0.391422 0.429409 0.552293
Si Si3 0.873360 0.795654 0.636151
Si Si4 0.906711 0.408603 0.612109
Si Si5 0.313801 0.324059 0.437563
O O1 0.941443 0.622447 0.488333
O O2 0.932853 0.696801 0.236205
O O3 0.000000 0.750000 0.439489
O O4 0.032545 0.627643 0.339437
O O5 0.411885 0.511448 0.545275
O O6 0.374675 0.414652 0.727205
O O7 0.335969 0.405726 0.454978
O O8 0.877000 0.858298 0.511788
O O9 0.857474 0.725176 0.539503
O O10 0.823835 0.803017 0.763330
O O11 0.250000 0.313993 0.500000
#
# Coordination Sequence:
#
# PCOD9532449 Si02
#       5
#    16  16  16  16  16
#     4  11  22  37  61  90 124 166 204 254 315 385
#     4  10  23  40  60  88 125 161 208 254 309 390
#     4  11  24  39  63  92 122 159 213 259 312 388
#     4  11  22  39  60  91 127 163 198 252 318 387
#     4  11  23  43  65  88 120 163 213 272 320 365
#
# _framework density 21.174489999999999
#
# number of rings (size 3 to 8) (size 9 to 14) (size 15 to 20)
#    0.000    1.200    0.000    7.200    0.000    8.000 
#    0.000    5.000    0.000    0.000    0.000    0.000 
#    0.000    0.000    0.000    0.000    0.000    0.000 
#
# Total GULP energy -223271.435461 kJ/mol
# GULP energy per Si atom -5581.785887 kJ/mol
# Density = 2.112630 g / cm^3
# Si number density = 21.174490 Si / 1000 Ang^3
#
#
#
# Elastic Constant Matrix: (Units=GPa)
#
#
# Indices 1 2 3 4 5 6 
#
# 1 45.3592 26.3611 5.6325 0.0000 0.0000 0.0000
# 2 26.3611 123.7794 -2.5762 0.0000 0.0000 0.0000
# 3 5.6325 -2.5762 30.0095 0.0000 0.0000 0.0000
# 4 0.0000 0.0000 0.0000 37.1777 0.0000 0.0000
# 5 0.0000 0.0000 0.0000 0.0000 5.2422 0.0000
# 6 0.0000 0.0000 0.0000 0.0000 0.0000 3.2583
#
#
#
# Elastic Compliance Matrix: (Units=1/GPa)
#
#
# Indices 1 2 3 4 5 6 
#
# 1 0.025994 -0.005648 -0.005364 0.000000 0.000000 0.000000
# 2 -0.005648 0.009320 0.001860 0.000000 0.000000 0.000000
# 3 -0.005364 0.001860 0.034489 0.000000 0.000000 0.000000
# 4 0.000000 0.000000 0.000000 0.026898 0.000000 0.000000
# 5 0.000000 0.000000 0.000000 0.000000 0.190758 0.000000
# 6 0.000000 0.000000 0.000000 0.000000 0.000000 0.306910
#
#
# Mechanical properties :
#
#
# Convention : Reuss Voigt Hill
#
# Bulk Modulus (GPa) = 19.41690 28.66476 24.04083
# Shear Modulus (GPa) = 7.93853 20.45102 14.19477
#
# Velocity S-wave (km/s) = 1.93836 3.11116 2.59196
# Velocity P-wave (km/s) = 3.76822 5.14515 4.50955
#
# Compressibility (1/GPa) = 0.05150152
#
# Stress axis : x y z
#
# Youngs Moduli (GPa) = 38.46975 107.29189 28.99464
#
# Poissons Ratio (x) = 0.60594 0.15552
# Poissons Ratio (y) = 0.21726 -0.05393
# Poissons Ratio (z) = 0.20634 -0.19957
#
# Static dielectric constant tensor:
#      x y z
#    x 1.811360 0.000000 0.000000 
#    y 0.000000 1.781360 0.000000 
#    z 0.000000 0.000000 1.789160 
# 
# From -- ./inp_files/7727.got.cif
#   From: 2010.05.17/outbox.cif.g08.bks.cpg/sg73_4_cif.got.tgz:7727.got - 2010.06.03 17:35:07.
