data_PCOD9532508
_publ_section_title
;
Structure prediction by ZEFSAII (Michael W. Deem and Ramdas Pophale) SiO2 
 PCOD9532508
Probable space group: I B C A 
;
_chemical_formula_sum "Si O2"
_cell_formula_units_Z 88
_cell_length_a 13.397378
_cell_length_b 10.822334
_cell_length_c 25.976665
_cell_angle_alpha 90.000000
_cell_angle_beta 90.000000
_cell_angle_gamma 90.000000
_cell_volume 3766.380023
_symmetry_space_group_name_H-M "I B C A "
_symmetry_group_IT_number 73
_symmetry_cell_setting 'orthorhombic'
loop_
_space_group_symop_operation_xyz
x,y,z
-x,1/2-y,z
x,-y,1/2-z
1/2-x,y,-z
-x,-y,-z
x,1/2+y,-z
-x,y,1/2+z
1/2+x,-y,z
1/2+x,1/2+y,1/2+z
1/2-x,-y,1/2+z
1/2+x,1/2-y,-z
-x,1/2+y,1/2-z
1/2-x,1/2-y,1/2-z
1/2+x,y,1/2-z
1/2-x,1/2+y,z
x,1/2-y,1/2+z
loop_
_atom_site_type_symbol
_atom_site_label
_atom_site_fract_x
_atom_site_fract_y
_atom_site_fract_z
Si Si1 0.148575 0.928709 0.968321
Si Si2 0.069813 0.870626 0.189415
Si Si3 0.746292 0.692838 0.880452
Si Si4 0.098657 0.297608 0.460104
Si Si5 0.617775 0.254921 0.791653
Si Si6 0.916084 0.000000 0.250000
O O1 0.178602 0.898454 0.909844
O O2 0.090662 0.057956 0.972639
O O3 0.250000 0.952220 0.000000
O O4 0.106284 0.801943 0.993259
O O5 0.155022 0.878786 0.147075
O O6 0.122752 0.849847 0.244737
O O7 0.000000 0.750000 0.181980
O O8 0.987403 0.973737 0.200635
O O9 0.694833 0.776608 0.924290
O O10 0.807732 0.770385 0.838656
O O11 0.000000 0.250000 0.431511
O O12 0.500000 0.250000 0.806883
O O13 0.641384 0.122608 0.765065
#
# Coordination Sequence:
#
# PCOD9532508 Si02
#       6
#    16  16  16  16  16   8
#     4  10  23  42  65  92 125 162 208 261 320 385
#     4   9  19  36  56  83 123 166 207 253 303 364
#     4  11  22  35  60  93 121 158 208 263 315 370
#     4  11  24  45  67  92 125 165 208 262 325 387
#     4   9  20  36  55  83 123 166 208 252 301 361
#     4   8  18  36  52  76 120 168 208 246 300 360
#
# _framework density 23.364609999999999
#
# number of rings (size 3 to 8) (size 9 to 14) (size 15 to 20)
#    0.000    2.545    0.000    3.273    0.000    8.727 
#    0.000    1.818    0.000    0.000    0.000    0.000 
#    0.000    0.000    0.000    0.000    0.000    0.000 
#
# Total GULP energy -245572.762524 kJ/mol
# GULP energy per Si atom -5581.199148 kJ/mol
# Density = 2.331143 g / cm^3
# Si number density = 23.364610 Si / 1000 Ang^3
#
#
#
# Elastic Constant Matrix: (Units=GPa)
#
#
# Indices 1 2 3 4 5 6 
#
# 1 86.6229 22.0390 30.7571 0.0000 0.0000 0.0000
# 2 22.0390 132.1296 36.4085 0.0000 0.0000 0.0000
# 3 30.7571 36.4085 92.0952 0.0000 0.0000 0.0000
# 4 0.0000 0.0000 0.0000 -0.4012 0.0000 0.0000
# 5 0.0000 0.0000 0.0000 0.0000 27.8672 0.0000
# 6 0.0000 0.0000 0.0000 0.0000 0.0000 12.8902
#
#
#
# Elastic Compliance Matrix: (Units=1/GPa)
#
#
# Indices 1 2 3 4 5 6 
#
# 1 0.013241 -0.001111 -0.003983 0.000000 0.000000 0.000000
# 2 -0.001111 0.008587 -0.003024 0.000000 0.000000 0.000000
# 3 -0.003983 -0.003024 0.013384 0.000000 0.000000 0.000000
# 4 0.000000 0.000000 0.000000 -2.492410 0.000000 0.000000
# 5 0.000000 0.000000 0.000000 0.000000 0.035884 0.000000
# 6 0.000000 0.000000 0.000000 0.000000 0.000000 0.077578
#
#
# Mechanical properties :
#
#
# Convention : Reuss Voigt Hill
#
# Bulk Modulus (GPa) = 52.69643 54.36187 53.52915
# Shear Modulus (GPa) = -2.15408 22.84744 10.34668
#
# Velocity S-wave (km/s) = -0.96122 3.13048 2.10665
# Velocity P-wave (km/s) = 4.62288 6.03190 5.37377
#
# Compressibility (1/GPa) = 0.01897662
#
# Stress axis : x y z
#
# Youngs Moduli (GPa) = 75.52192 116.45765 74.71697
#
# Poissons Ratio (x) = 0.12940 0.29759
# Poissons Ratio (y) = 0.08391 0.22591
# Poissons Ratio (z) = 0.30080 0.35212
#
# Static dielectric constant tensor:
#      x y z
#    x 1.938580 0.000000 0.000000 
#    y 0.000000 1.908530 0.000000 
#    z 0.000000 0.000000 1.905710 
# 
# From -- ./inp_files/29415.got.cif
#   From: 2010.05.17/outbox.cif.g08.bks.cpg/sg73_15_cif.got.tgz:29415.got - 2010.06.03 17:35:07.
