data_PCOD9532519
_publ_section_title
;
Structure prediction by ZEFSAII (Michael W. Deem and Ramdas Pophale) SiO2 
 PCOD9532519
Probable space group: I B C A 
;
_chemical_formula_sum "Si O2"
_cell_formula_units_Z 80
_cell_length_a 10.850795
_cell_length_b 13.197252
_cell_length_c 26.400585
_cell_angle_alpha 90.000000
_cell_angle_beta 90.000000
_cell_angle_gamma 90.000000
_cell_volume 3780.581619
_symmetry_space_group_name_H-M "I B C A "
_symmetry_group_IT_number 73
_symmetry_cell_setting 'orthorhombic'
loop_
_space_group_symop_operation_xyz
x,y,z
-x,1/2-y,z
x,-y,1/2-z
1/2-x,y,-z
-x,-y,-z
x,1/2+y,-z
-x,y,1/2+z
1/2+x,-y,z
1/2+x,1/2+y,1/2+z
1/2-x,-y,1/2+z
1/2+x,1/2-y,-z
-x,1/2+y,1/2-z
1/2-x,1/2-y,1/2-z
1/2+x,y,1/2-z
1/2-x,1/2+y,z
x,1/2-y,1/2+z
loop_
_atom_site_type_symbol
_atom_site_label
_atom_site_fract_x
_atom_site_fract_y
_atom_site_fract_z
Si Si1 0.637125 0.237252 0.353954
Si Si2 0.685083 0.727501 0.448962
Si Si3 0.920555 0.485675 0.151745
Si Si4 0.029157 0.573788 0.546415
Si Si5 0.681228 0.062632 0.801732
O O1 0.500000 0.250000 0.376495
O O2 0.731249 0.249316 0.400167
O O3 0.637448 0.123093 0.334835
O O4 0.650954 0.318077 0.308824
O O5 0.750000 0.690196 0.500000
O O6 0.589401 0.638472 0.435416
O O7 0.622057 0.833903 0.464816
O O8 0.920435 0.505993 0.092060
O O9 0.820094 0.558793 0.176355
O O10 0.063342 0.487006 0.168778
O O11 0.000000 0.500000 0.500000
O O12 0.682625 0.000000 0.750000
#
# Coordination Sequence:
#
# PCOD9532519 Si02
#       5
#    16  16  16  16  16
#     4  10  23  42  67  96 135 181 226 289 348 413
#     4  11  24  40  65 101 141 183 236 281 336 417
#     4  11  23  44  71  97 139 180 231 287 353 415
#     4  11  25  41  67 101 138 190 228 281 340 417
#     4  11  24  44  68  99 132 176 232 294 357 417
#
# _framework density 21.160765999999999
#
# number of rings (size 3 to 8) (size 9 to 14) (size 15 to 20)
#    0.000    1.200    2.000    3.000    8.400    3.200 
#    0.000    2.000    0.000    0.000    0.000    0.000 
#    0.000    0.000    0.000    0.000    0.000    0.000 
#
# Total GULP energy -223036.116989 kJ/mol
# GULP energy per Si atom -5575.902925 kJ/mol
# Density = 2.111260 g / cm^3
# Si number density = 21.160766 Si / 1000 Ang^3
#
#
#
# Elastic Constant Matrix: (Units=GPa)
#
#
# Indices 1 2 3 4 5 6 
#
# 1 45.4554 8.0625 -2.0001 0.0000 0.0000 0.0000
# 2 8.0625 100.4520 25.1972 0.0000 0.0000 0.0000
# 3 -2.0001 25.1972 83.3856 0.0000 0.0000 0.0000
# 4 0.0000 0.0000 0.0000 21.3470 0.0000 0.0000
# 5 0.0000 0.0000 0.0000 0.0000 29.2401 0.0000
# 6 0.0000 0.0000 0.0000 0.0000 0.0000 17.5661
#
#
#
# Elastic Compliance Matrix: (Units=1/GPa)
#
#
# Indices 1 2 3 4 5 6 
#
# 1 0.022422 -0.002093 0.001170 0.000000 0.000000 0.000000
# 2 -0.002093 0.010967 -0.003364 0.000000 0.000000 0.000000
# 3 0.001170 -0.003364 0.013037 0.000000 0.000000 0.000000
# 4 0.000000 0.000000 0.000000 0.046845 0.000000 0.000000
# 5 0.000000 0.000000 0.000000 0.000000 0.034200 0.000000
# 6 0.000000 0.000000 0.000000 0.000000 0.000000 0.056928
#
#
# Mechanical properties :
#
#
# Convention : Reuss Voigt Hill
#
# Bulk Modulus (GPa) = 26.41847 32.42357 29.42102
# Shear Modulus (GPa) = 24.32022 26.83287 25.57654
#
# Velocity S-wave (km/s) = 3.39382 3.56483 3.48038
# Velocity P-wave (km/s) = 5.27912 5.68329 5.48493
#
# Compressibility (1/GPa) = 0.03785231
#
# Stress axis : x y z
#
# Youngs Moduli (GPa) = 44.59829 91.18373 76.70409
#
# Poissons Ratio (x) = 0.19087 -0.08977
# Poissons Ratio (y) = 0.09335 0.25804
# Poissons Ratio (z) = -0.05220 0.30675
#
# Static dielectric constant tensor:
#      x y z
#    x 1.820450 0.000000 0.000000 
#    y 0.000000 1.796070 0.000000 
#    z 0.000000 0.000000 1.741440 
# 
# From -- ./inp_files/33830.got.cif
#   From: 2010.05.17/outbox.cif.g08.bks.cpg/sg73_17_cif.got.tgz:33830.got - 2010.06.03 17:35:07.
