data_PCOD9532013
_publ_section_title
;
Structure prediction by ZEFSAII (Michael W. Deem and Ramdas Pophale) SiO2 
 PCOD9532013
Probable space group: I B C A 
;
_chemical_formula_sum "Si O2"
_cell_formula_units_Z 104
_cell_length_a 19.500050
_cell_length_b 8.658630
_cell_length_c 29.565754
_cell_angle_alpha 90.000000
_cell_angle_beta 90.000000
_cell_angle_gamma 90.000000
_cell_volume 4991.991829
_symmetry_space_group_name_H-M "I B C A "
_symmetry_group_IT_number 73
_symmetry_cell_setting 'orthorhombic'
loop_
_space_group_symop_operation_xyz
x,y,z
-x,1/2-y,z
x,-y,1/2-z
1/2-x,y,-z
-x,-y,-z
x,1/2+y,-z
-x,y,1/2+z
1/2+x,-y,z
1/2+x,1/2+y,1/2+z
1/2-x,-y,1/2+z
1/2+x,1/2-y,-z
-x,1/2+y,1/2-z
1/2-x,1/2-y,1/2-z
1/2+x,y,1/2-z
1/2-x,1/2+y,z
x,1/2-y,1/2+z
loop_
_atom_site_type_symbol
_atom_site_label
_atom_site_fract_x
_atom_site_fract_y
_atom_site_fract_z
Si Si1 0.500000 0.750000 0.015378
Si Si2 0.052754 0.618736 0.712582
Si Si3 0.769990 0.165927 0.673405
Si Si4 0.656743 0.623374 0.862638
Si Si5 0.846096 0.939302 0.295079
Si Si6 0.468599 0.422119 0.859694
Si Si7 0.550591 0.031599 0.061902
O O1 0.446963 0.646083 0.044439
O O2 0.460470 0.865118 0.981955
O O3 0.079628 0.500000 0.750000
O O4 0.111690 0.685313 0.679932
O O5 0.000000 0.750000 0.729873
O O6 0.011112 0.511140 0.678280
O O7 0.725479 0.273515 0.639268
O O8 0.812154 0.271217 0.708115
O O9 0.821642 0.051706 0.648411
O O10 0.716107 0.056025 0.697902
O O11 0.610033 0.605384 0.907111
O O12 0.892589 0.926424 0.339796
O O13 0.883587 0.000000 0.250000
O O14 0.500000 0.250000 0.863303
O O15 0.483437 0.517089 0.905511
#
# Coordination Sequence:
#
# PCOD9532013 Si02
#       7
#     8  16  16  16  16  16  16
#     4  10  22  40  68 100 124 148 186 254 324 396
#     4  11  23  37  57  89 125 163 210 265 323 368
#     4  10  23  39  58  85 117 178 210 256 284 348
#     4  10  23  41  62  87 125 164 213 251 300 372
#     4  11  22  37  57  86 121 168 213 253 292 344
#     4  11  22  36  59  89 126 158 199 255 315 376
#     4  10  22  40  65  99 122 154 193 249 327 377
#
# _framework density 20.833368
#
# number of rings (size 3 to 8) (size 9 to 14) (size 15 to 20)
#    0.000    1.538    0.769    4.154    6.462    6.154 
#    0.000    0.000    0.000    2.769    0.000    0.000 
#    0.000    0.000    0.000    0.000    0.000    0.000 
#
# Total GULP energy -290280.498807 kJ/mol
# GULP energy per Si atom -5582.317285 kJ/mol
# Density = 2.078595 g / cm^3
# Si number density = 20.833368 Si / 1000 Ang^3
#
#
#
# Elastic Constant Matrix: (Units=GPa)
#
#
# Indices 1 2 3 4 5 6 
#
# 1 57.6056 10.8692 14.9710 0.0000 0.0000 0.0000
# 2 10.8692 86.0015 14.8422 0.0000 0.0000 0.0000
# 3 14.9710 14.8422 83.1404 0.0000 0.0000 0.0000
# 4 0.0000 0.0000 0.0000 28.0278 0.0000 0.0000
# 5 0.0000 0.0000 0.0000 0.0000 14.6992 0.0000
# 6 0.0000 0.0000 0.0000 0.0000 0.0000 44.2642
#
#
#
# Elastic Compliance Matrix: (Units=1/GPa)
#
#
# Indices 1 2 3 4 5 6 
#
# 1 0.018483 -0.001818 -0.003004 0.000000 0.000000 0.000000
# 2 -0.001818 0.012176 -0.001846 0.000000 0.000000 0.000000
# 3 -0.003004 -0.001846 0.012898 0.000000 0.000000 0.000000
# 4 0.000000 0.000000 0.000000 0.035679 0.000000 0.000000
# 5 0.000000 0.000000 0.000000 0.000000 0.068031 0.000000
# 6 0.000000 0.000000 0.000000 0.000000 0.000000 0.022592
#
#
# Mechanical properties :
#
#
# Convention : Reuss Voigt Hill
#
# Bulk Modulus (GPa) = 33.08842 34.23468 33.66155
# Shear Modulus (GPa) = 25.87080 29.80259 27.83669
#
# Velocity S-wave (km/s) = 3.52774 3.78633 3.65932
# Velocity P-wave (km/s) = 5.70176 5.96518 5.83496
#
# Compressibility (1/GPa) = 0.03022205
#
# Stress axis : x y z
#
# Youngs Moduli (GPa) = 54.10375 82.12836 77.52940
#
# Poissons Ratio (x) = 0.14927 0.23288
# Poissons Ratio (y) = 0.09834 0.14315
# Poissons Ratio (z) = 0.16251 0.15164
#
# Static dielectric constant tensor:
#      x y z
#    x 1.797430 0.000000 0.000000 
#    y 0.000000 1.768540 0.000000 
#    z 0.000000 0.000000 1.782230 
# 
# From -- ./inp_files/24967.got.cif
#   From: 2010.05.17/outbox.cif.g08.bks.cpg/sg73_13_cif.got.tgz:24967.got - 2010.06.03 17:35:07.
