data_PCOD9532494
_publ_section_title
;
Structure prediction by ZEFSAII (Michael W. Deem and Ramdas Pophale) SiO2 
 PCOD9532494
Probable space group: I B C A 
;
_chemical_formula_sum "Si O2"
_cell_formula_units_Z 88
_cell_length_a 19.822917
_cell_length_b 22.009625
_cell_length_c 8.818704
_cell_angle_alpha 90.000000
_cell_angle_beta 90.000000
_cell_angle_gamma 90.000000
_cell_volume 3847.556193
_symmetry_space_group_name_H-M "I B C A "
_symmetry_group_IT_number 73
_symmetry_cell_setting 'orthorhombic'
loop_
_space_group_symop_operation_xyz
x,y,z
-x,1/2-y,z
x,-y,1/2-z
1/2-x,y,-z
-x,-y,-z
x,1/2+y,-z
-x,y,1/2+z
1/2+x,-y,z
1/2+x,1/2+y,1/2+z
1/2-x,-y,1/2+z
1/2+x,1/2-y,-z
-x,1/2+y,1/2-z
1/2-x,1/2-y,1/2-z
1/2+x,y,1/2-z
1/2-x,1/2+y,z
x,1/2-y,1/2+z
loop_
_atom_site_type_symbol
_atom_site_label
_atom_site_fract_x
_atom_site_fract_y
_atom_site_fract_z
Si Si1 0.124952 0.108183 0.600644
Si Si2 0.545186 0.806238 0.166758
Si Si3 0.824842 0.795531 0.638405
Si Si4 0.792386 0.164903 0.366021
Si Si5 0.590664 0.500000 0.250000
Si Si6 0.482109 0.889898 0.421231
O O1 0.161447 0.151680 0.482093
O O2 0.147830 0.134719 0.766123
O O3 0.049984 0.103743 0.524106
O O4 0.136720 0.037126 0.632231
O O5 0.500000 0.750000 0.106852
O O6 0.610902 0.785614 0.254224
O O7 0.501222 0.842063 0.291138
O O8 0.565496 0.855159 0.040013
O O9 0.815463 0.729599 0.565364
O O10 0.762416 0.816784 0.738619
O O11 0.750000 0.131713 0.500000
O O12 0.544505 0.548348 0.343833
#
# Coordination Sequence:
#
# PCOD9532494 Si02
#       6
#    16  16  16  16   8  16
#     4  11  24  45  69  99 140 184 236 291 342 431
#     4  11  23  39  69 111 144 178 224 299 371 431
#     4  10  23  41  69 105 143 177 223 290 365 431
#     4  11  23  42  72 104 136 181 232 289 366 428
#     4  12  26  46  70  98 138 204 246 280 354 424
#     4  11  24  43  68 101 146 187 232 291 356 436
#
# _framework density 22.871659999999999
#
# number of rings (size 3 to 8) (size 9 to 14) (size 15 to 20)
#    0.000    1.091    1.818    4.909    2.545    2.909 
#    0.000    1.818    0.000    1.091    0.000    0.000 
#    0.000    0.000    0.000    0.000    0.000    0.000 
#
# Total GULP energy -245445.505553 kJ/mol
# GULP energy per Si atom -5578.306944 kJ/mol
# Density = 2.281960 g / cm^3
# Si number density = 22.871660 Si / 1000 Ang^3
#
#
#
# Elastic Constant Matrix: (Units=GPa)
#
#
# Indices 1 2 3 4 5 6 
#
# 1 83.3922 40.2758 28.8493 0.0000 0.0000 0.0000
# 2 40.2758 122.9688 46.4371 0.0000 0.0000 0.0000
# 3 28.8493 46.4371 117.3405 0.0000 0.0000 0.0000
# 4 0.0000 0.0000 0.0000 55.8555 0.0000 0.0000
# 5 0.0000 0.0000 0.0000 0.0000 42.4141 0.0000
# 6 0.0000 0.0000 0.0000 0.0000 0.0000 14.9283
#
#
#
# Elastic Compliance Matrix: (Units=1/GPa)
#
#
# Indices 1 2 3 4 5 6 
#
# 1 0.014633 -0.004038 -0.002000 0.000000 0.000000 0.000000
# 2 -0.004038 0.010675 -0.003232 0.000000 0.000000 0.000000
# 3 -0.002000 -0.003232 0.010293 0.000000 0.000000 0.000000
# 4 0.000000 0.000000 0.000000 0.017903 0.000000 0.000000
# 5 0.000000 0.000000 0.000000 0.000000 0.023577 0.000000
# 6 0.000000 0.000000 0.000000 0.000000 0.000000 0.066987
#
#
# Mechanical properties :
#
#
# Convention : Reuss Voigt Hill
#
# Bulk Modulus (GPa) = 58.60801 61.64730 60.12766
# Shear Modulus (GPa) = 29.70971 36.51554 33.11263
#
# Velocity S-wave (km/s) = 3.60804 4.00001 3.80907
# Velocity P-wave (km/s) = 6.56031 6.95309 6.75955
#
# Compressibility (1/GPa) = 0.01706251
#
# Stress axis : x y z
#
# Youngs Moduli (GPa) = 68.33661 93.67627 97.15415
#
# Poissons Ratio (x) = 0.37823 0.19430
# Poissons Ratio (y) = 0.27592 0.31399
# Poissons Ratio (z) = 0.13667 0.30275
#
# Static dielectric constant tensor:
#      x y z
#    x 1.940870 0.000000 0.000000 
#    y 0.000000 1.840090 0.000000 
#    z 0.000000 0.000000 1.890550 
# 
# From -- ./inp_files/7050.got.cif
#   From: 2010.05.17/outbox.cif.g08.bks.cpg/sg73_4_cif.got.tgz:7050.got - 2010.06.03 17:35:07.
