data_PCOD9532815
_publ_section_title
;
Structure prediction by ZEFSAII (Michael W. Deem and Ramdas Pophale) SiO2 
 PCOD9532815
Probable space group: I B C A 
;
_chemical_formula_sum "Si O2"
_cell_formula_units_Z 96
_cell_length_a 8.554921
_cell_length_b 21.400314
_cell_length_c 23.790494
_cell_angle_alpha 90.000000
_cell_angle_beta 90.000000
_cell_angle_gamma 90.000000
_cell_volume 4355.515957
_symmetry_space_group_name_H-M "I B C A "
_symmetry_group_IT_number 73
_symmetry_cell_setting 'orthorhombic'
loop_
_space_group_symop_operation_xyz
x,y,z
-x,1/2-y,z
x,-y,1/2-z
1/2-x,y,-z
-x,-y,-z
x,1/2+y,-z
-x,y,1/2+z
1/2+x,-y,z
1/2+x,1/2+y,1/2+z
1/2-x,-y,1/2+z
1/2+x,1/2-y,-z
-x,1/2+y,1/2-z
1/2-x,1/2-y,1/2-z
1/2+x,y,1/2-z
1/2-x,1/2+y,z
x,1/2-y,1/2+z
loop_
_atom_site_type_symbol
_atom_site_label
_atom_site_fract_x
_atom_site_fract_y
_atom_site_fract_z
Si Si1 0.996844 0.842436 0.110331
Si Si2 0.170432 0.073766 0.304883
Si Si3 0.065613 0.931800 0.512045
Si Si4 0.043124 0.062076 0.180904
Si Si5 0.521364 0.655730 0.583076
Si Si6 0.252819 0.254145 0.091532
O O1 0.095592 0.868231 0.162291
O O2 0.113762 0.801048 0.071310
O O3 0.949897 0.901765 0.073405
O O4 0.857336 0.795160 0.127775
O O5 0.126407 0.079024 0.239432
O O6 0.356077 0.067062 0.311918
O O7 0.093368 0.009672 0.328473
O O8 0.250000 0.931601 0.500000
O O9 0.973761 0.887626 0.468162
O O10 0.000000 0.000000 0.500000
O O11 0.085325 0.109068 0.130787
O O12 0.650551 0.703497 0.558190
O O13 0.383811 0.697834 0.609865
#
# Coordination Sequence:
#
# PCOD9532815 Si02
#       6
#    16  16  16  16  16  16
#     4  11  24  45  67  97 134 168 223 264 324 390
#     4  11  24  42  69  98 129 172 217 274 332 385
#     4  12  28  43  69 100 132 173 214 274 331 378
#     4  11  24  42  69  98 129 172 217 274 332 385
#     4  11  24  45  67  97 134 168 223 264 324 390
#     4  10  24  43  69  94 130 180 213 267 320 384
#
# _framework density 22.041018000000001
#
# number of rings (size 3 to 8) (size 9 to 14) (size 15 to 20)
#    0.000    1.000    3.333    3.000    7.000    6.667 
#    0.000    5.000    0.000    0.000    0.000    0.000 
#    0.000    0.000    0.000    0.000    0.000    0.000 
#
# Total GULP energy -267534.460740 kJ/mol
# GULP energy per Si atom -5573.634599 kJ/mol
# Density = 2.199085 g / cm^3
# Si number density = 22.041018 Si / 1000 Ang^3
#
#
#
# Elastic Constant Matrix: (Units=GPa)
#
#
# Indices 1 2 3 4 5 6 
#
# 1 84.7337 13.2454 12.7571 0.0000 0.0000 0.0000
# 2 13.2454 102.0305 42.8560 0.0000 0.0000 0.0000
# 3 12.7571 42.8560 63.5277 0.0000 0.0000 0.0000
# 4 0.0000 0.0000 0.0000 6.4474 0.0000 0.0000
# 5 0.0000 0.0000 0.0000 0.0000 24.4677 0.0000
# 6 0.0000 0.0000 0.0000 0.0000 0.0000 50.9968
#
#
#
# Elastic Compliance Matrix: (Units=1/GPa)
#
#
# Indices 1 2 3 4 5 6 
#
# 1 0.012213 -0.000775 -0.001930 0.000000 0.000000 0.000000
# 2 -0.000775 0.013725 -0.009104 0.000000 0.000000 0.000000
# 3 -0.001930 -0.009104 0.022270 0.000000 0.000000 0.000000
# 4 0.000000 0.000000 0.000000 0.155101 0.000000 0.000000
# 5 0.000000 0.000000 0.000000 0.000000 0.040870 0.000000
# 6 0.000000 0.000000 0.000000 0.000000 0.000000 0.019609
#
#
# Mechanical properties :
#
#
# Convention : Reuss Voigt Hill
#
# Bulk Modulus (GPa) = 40.66347 43.11210 41.88778
# Shear Modulus (GPa) = 16.91461 28.47796 22.69628
#
# Velocity S-wave (km/s) = 2.77323 3.59840 3.21242
# Velocity P-wave (km/s) = 5.36129 6.07182 5.72759
#
# Compressibility (1/GPa) = 0.02459209
#
# Stress axis : x y z
#
# Youngs Moduli (GPa) = 81.87759 72.85774 44.90345
#
# Poissons Ratio (x) = 0.05646 0.08666
# Poissons Ratio (y) = 0.06345 0.40878
# Poissons Ratio (z) = 0.15801 0.66327
#
# Static dielectric constant tensor:
#      x y z
#    x 1.853710 0.000000 0.000000 
#    y 0.000000 1.810290 0.000000 
#    z 0.000000 0.000000 1.793610 
# 
# From -- ./inp_files/24866.got.cif
#   From: 2010.05.17/outbox.cif.g08.bks.cpg/sg73_13_cif.got.tgz:24866.got - 2010.06.03 17:35:07.
