data_PCOD9532859
_publ_section_title
;
Structure prediction by ZEFSAII (Michael W. Deem and Ramdas Pophale) SiO2 
 PCOD9532859
Probable space group: I B C A 
;
_chemical_formula_sum "Si O2"
_cell_formula_units_Z 56
_cell_length_a 10.908476
_cell_length_b 9.491656
_cell_length_c 24.725144
_cell_angle_alpha 90.000000
_cell_angle_beta 90.000000
_cell_angle_gamma 90.000000
_cell_volume 2560.029089
_symmetry_space_group_name_H-M "I B C A "
_symmetry_group_IT_number 73
_symmetry_cell_setting 'orthorhombic'
loop_
_space_group_symop_operation_xyz
x,y,z
-x,1/2-y,z
x,-y,1/2-z
1/2-x,y,-z
-x,-y,-z
x,1/2+y,-z
-x,y,1/2+z
1/2+x,-y,z
1/2+x,1/2+y,1/2+z
1/2-x,-y,1/2+z
1/2+x,1/2-y,-z
-x,1/2+y,1/2-z
1/2-x,1/2-y,1/2-z
1/2+x,y,1/2-z
1/2-x,1/2+y,z
x,1/2-y,1/2+z
loop_
_atom_site_type_symbol
_atom_site_label
_atom_site_fract_x
_atom_site_fract_y
_atom_site_fract_z
Si Si1 0.131566 0.711903 0.923045
Si Si2 0.843045 0.089893 0.891742
Si Si3 0.000000 0.750000 0.528199
Si Si4 0.625887 0.834498 0.268389
O O1 0.178486 0.575385 0.892787
O O2 0.223791 0.837148 0.915458
O O3 0.000000 0.750000 0.898472
O O4 0.102345 0.692324 0.986716
O O5 0.870448 0.152787 0.833402
O O6 0.951429 0.127639 0.933318
O O7 0.500000 0.750000 0.252698
O O8 0.750000 0.750000 0.250000
O O9 0.625385 0.000000 0.250000
#
# Coordination Sequence:
#
# PCOD9532859 Si02
#       4
#    16  16   8  16
#     4  10  27  41  71 107 148 182 236 279 352 437
#     4  12  24  47  73 102 145 192 229 296 359 418
#     4  10  24  44  72 104 146 184 238 278 356 428
#     4  12  28  50  78 107 144 192 253 310 367 427
#
# _framework density 21.874751
#
# number of rings (size 3 to 8) (size 9 to 14) (size 15 to 20)
#    0.857    0.000    1.429    4.286    4.000    9.143 
#    0.000    0.000    0.000    0.000    0.000    0.000 
#    0.000    0.000    0.000    0.000    0.000    0.000 
#
# Total GULP energy -156433.859758 kJ/mol
# GULP energy per Si atom -5586.923563 kJ/mol
# Density = 2.182496 g / cm^3
# Si number density = 21.874751 Si / 1000 Ang^3
#
#
#
# Elastic Constant Matrix: (Units=GPa)
#
#
# Indices 1 2 3 4 5 6 
#
# 1 146.2890 80.1906 44.2051 0.0000 0.0000 0.0000
# 2 80.1906 149.9451 26.5661 0.0000 0.0000 0.0000
# 3 44.2051 26.5661 105.9505 0.0000 0.0000 0.0000
# 4 0.0000 0.0000 0.0000 57.9118 0.0000 0.0000
# 5 0.0000 0.0000 0.0000 0.0000 -5.2865 0.0000
# 6 0.0000 0.0000 0.0000 0.0000 0.0000 42.3555
#
#
#
# Elastic Compliance Matrix: (Units=1/GPa)
#
#
# Indices 1 2 3 4 5 6 
#
# 1 0.010580 -0.005103 -0.003135 0.000000 0.000000 0.000000
# 2 -0.005103 0.009440 -0.000238 0.000000 0.000000 0.000000
# 3 -0.003135 -0.000238 0.010806 0.000000 0.000000 0.000000
# 4 0.000000 0.000000 0.000000 0.017268 0.000000 0.000000
# 5 0.000000 0.000000 0.000000 0.000000 -0.189160 0.000000
# 6 0.000000 0.000000 0.000000 0.000000 0.000000 0.023610
#
#
# Mechanical properties :
#
#
# Convention : Reuss Voigt Hill
#
# Bulk Modulus (GPa) = 72.07189 78.23426 75.15308
# Shear Modulus (GPa) = -52.14872 35.74432 -8.20220
#
# Velocity S-wave (km/s) = -4.88789 4.04672 -1.93849
# Velocity P-wave (km/s) = 1.07880 7.59453 5.42405
#
# Compressibility (1/GPa) = 0.01387504
#
# Stress axis : x y z
#
# Youngs Moduli (GPa) = 94.51500 105.92849 92.54128
#
# Poissons Ratio (x) = 0.54055 0.29010
# Poissons Ratio (y) = 0.48231 0.02203
# Poissons Ratio (z) = 0.29629 0.02521
#
# Static dielectric constant tensor:
#      x y z
#    x 1.823130 0.000000 0.000000 
#    y 0.000000 1.783850 0.000000 
#    z 0.000000 0.000000 1.808350 
# 
# From -- ./inp_files/30984.got.cif
#   From: 2010.05.17/outbox.cif.g08.bks.cpg/sg73_16_cif.got.tgz:30984.got - 2010.06.03 17:35:07.
