data_PCOD9532648
_publ_section_title
;
Structure prediction by ZEFSAII (Michael W. Deem and Ramdas Pophale) SiO2 
 PCOD9532648
Probable space group: I B C A 
;
_chemical_formula_sum "Si O2"
_cell_formula_units_Z 80
_cell_length_a 11.740446
_cell_length_b 22.964062
_cell_length_c 12.432301
_cell_angle_alpha 90.000000
_cell_angle_beta 90.000000
_cell_angle_gamma 90.000000
_cell_volume 3351.851909
_symmetry_space_group_name_H-M "I B C A "
_symmetry_group_IT_number 73
_symmetry_cell_setting 'orthorhombic'
loop_
_space_group_symop_operation_xyz
x,y,z
-x,1/2-y,z
x,-y,1/2-z
1/2-x,y,-z
-x,-y,-z
x,1/2+y,-z
-x,y,1/2+z
1/2+x,-y,z
1/2+x,1/2+y,1/2+z
1/2-x,-y,1/2+z
1/2+x,1/2-y,-z
-x,1/2+y,1/2-z
1/2-x,1/2-y,1/2-z
1/2+x,y,1/2-z
1/2-x,1/2+y,z
x,1/2-y,1/2+z
loop_
_atom_site_type_symbol
_atom_site_label
_atom_site_fract_x
_atom_site_fract_y
_atom_site_fract_z
Si Si1 0.758714 0.839810 0.333713
Si Si2 0.093042 0.622565 0.165028
Si Si3 0.111491 0.932049 0.277153
Si Si4 0.371461 0.473729 0.506557
Si Si5 0.568717 0.807208 0.481399
O O1 0.819314 0.832264 0.218314
O O2 0.700278 0.902173 0.305742
O O3 0.657821 0.799883 0.381257
O O4 0.855409 0.834942 0.424475
O O5 0.003354 0.603443 0.255379
O O6 0.025140 0.650528 0.067352
O O7 0.135427 0.561575 0.117417
O O8 0.134676 0.930911 0.403720
O O9 0.099701 0.000000 0.250000
O O10 0.250000 0.508587 0.500000
O O11 0.500000 0.500000 0.500000
O O12 0.500000 0.750000 0.515467
#
# Coordination Sequence:
#
# PCOD9532648 Si02
#       5
#    16  16  16  16  16
#     4  10  23  46  71 105 152 195 260 336 399 499
#     4  11  23  43  70 105 152 197 260 323 393 485
#     4  11  23  42  70 106 152 213 260 315 396 484
#     4  12  25  45  69 111 153 214 269 326 385 480
#     4  10  24  47  73 105 139 197 264 336 413 471
#
# _framework density 23.867401999999998
#
# number of rings (size 3 to 8) (size 9 to 14) (size 15 to 20)
#    0.000    1.200    4.000    1.200    0.000    5.600 
#    3.600    0.000    0.000    0.000    0.000    1.400 
#    0.000    0.000    0.000    0.000    0.000    0.000 
#
# Total GULP energy -222859.497593 kJ/mol
# GULP energy per Si atom -5571.487440 kJ/mol
# Density = 2.381308 g / cm^3
# Si number density = 23.867402 Si / 1000 Ang^3
#
#
#
# Elastic Constant Matrix: (Units=GPa)
#
#
# Indices 1 2 3 4 5 6 
#
# 1 159.9431 41.9581 48.5822 0.0000 0.0000 0.0000
# 2 41.9581 62.4812 22.2164 0.0000 0.0000 0.0000
# 3 48.5822 22.2164 90.7893 -0.0001 0.0000 0.0000
# 4 0.0000 0.0000 -0.0001 10.5631 0.0000 0.0000
# 5 0.0000 0.0000 0.0000 0.0000 34.7715 0.0000
# 6 0.0000 0.0000 0.0000 0.0000 0.0000 12.2465
#
#
#
# Elastic Compliance Matrix: (Units=1/GPa)
#
#
# Indices 1 2 3 4 5 6 
#
# 1 0.008468 -0.004464 -0.003439 0.000000 0.000000 0.000000
# 2 -0.004464 0.019883 -0.002477 0.000000 0.000000 0.000000
# 3 -0.003439 -0.002477 0.013461 0.000000 0.000000 0.000000
# 4 0.000000 0.000000 0.000000 0.094669 0.000000 0.000000
# 5 0.000000 0.000000 0.000000 0.000000 0.028759 0.000000
# 6 0.000000 0.000000 0.000000 0.000000 0.000000 0.081656
#
#
# Mechanical properties :
#
#
# Convention : Reuss Voigt Hill
#
# Bulk Modulus (GPa) = 47.49982 59.85853 53.67917
# Shear Modulus (GPa) = 18.20349 24.88001 21.54175
#
# Velocity S-wave (km/s) = 2.76469 3.23217 3.00752
# Velocity P-wave (km/s) = 5.48963 6.25006 5.88215
#
# Compressibility (1/GPa) = 0.02105271
#
# Stress axis : x y z
#
# Youngs Moduli (GPa) = 118.09560 50.29429 74.28970
#
# Poissons Ratio (x) = 0.22449 0.25548
# Poissons Ratio (y) = 0.52713 0.18401
# Poissons Ratio (z) = 0.40612 0.12457
#
# Static dielectric constant tensor:
#      x y z
#    x 2.081920 0.000000 0.000000 
#    y 0.000000 1.914600 0.000000 
#    z 0.000000 0.000000 1.936930 
# 
# From -- ./inp_files/9780.got.cif
#   From: 2010.05.17/outbox.cif.g08.bks.cpg/sg73_5_cif.got.tgz:9780.got - 2010.06.03 17:35:07.
