data_PCOD9532335
_publ_section_title
;
Structure prediction by ZEFSAII (Michael W. Deem and Ramdas Pophale) SiO2 
 PCOD9532335
Probable space group: I B C A 
;
_chemical_formula_sum "Si O2"
_cell_formula_units_Z 64
_cell_length_a 9.000895
_cell_length_b 12.976097
_cell_length_c 23.825839
_cell_angle_alpha 90.000000
_cell_angle_beta 90.000000
_cell_angle_gamma 90.000000
_cell_volume 2782.774286
_symmetry_space_group_name_H-M "I B C A "
_symmetry_group_IT_number 73
_symmetry_cell_setting 'orthorhombic'
loop_
_space_group_symop_operation_xyz
x,y,z
-x,1/2-y,z
x,-y,1/2-z
1/2-x,y,-z
-x,-y,-z
x,1/2+y,-z
-x,y,1/2+z
1/2+x,-y,z
1/2+x,1/2+y,1/2+z
1/2-x,-y,1/2+z
1/2+x,1/2-y,-z
-x,1/2+y,1/2-z
1/2-x,1/2-y,1/2-z
1/2+x,y,1/2-z
1/2-x,1/2+y,z
x,1/2-y,1/2+z
loop_
_atom_site_type_symbol
_atom_site_label
_atom_site_fract_x
_atom_site_fract_y
_atom_site_fract_z
Si Si1 0.000000 0.750000 0.025282
Si Si2 0.721706 0.612327 0.903638
Si Si3 0.770794 0.781877 0.825057
Si Si4 0.000000 0.250000 0.270160
Si Si5 0.069043 0.395196 0.572709
O O1 0.125190 0.804181 0.062461
O O2 0.079506 0.664652 0.986087
O O3 0.737553 0.662081 0.841444
O O4 0.639941 0.506235 0.917559
O O5 0.891638 0.598185 0.921316
O O6 0.881232 0.798200 0.773078
O O7 0.606260 0.821113 0.808728
O O8 0.853288 0.827856 0.878704
#
# Coordination Sequence:
#
# PCOD9532335 Si02
#       5
#     8  16  16   8  16
#     4  12  26  48  74 104 156 204 248 308 370 450
#     4  12  27  46  74 111 147 200 245 310 372 449
#     4  11  23  50  71 107 145 190 244 310 366 443
#     4  10  22  44  84  96 140 196 240 304 384 428
#     4  12  27  47  73 110 152 191 253 303 372 451
#
# _framework density 22.998629999999999
#
# number of rings (size 3 to 8) (size 9 to 14) (size 15 to 20)
#    0.000    0.500    5.000    2.250    7.000    0.000 
#    0.000    7.500    0.000    0.000    0.000    0.000 
#    0.000    0.000    0.000    0.000    0.000    0.000 
#
# Total GULP energy -178725.777530 kJ/mol
# GULP energy per Si atom -5585.180548 kJ/mol
# Density = 2.294628 g / cm^3
# Si number density = 22.998630 Si / 1000 Ang^3
#
#
#
# Elastic Constant Matrix: (Units=GPa)
#
#
# Indices 1 2 3 4 5 6 
#
# 1 242.8005 68.1144 63.7731 0.0000 0.0000 0.0000
# 2 68.1144 124.6225 39.6506 0.0000 0.0000 0.0000
# 3 63.7731 39.6506 102.1447 0.0000 0.0000 0.0000
# 4 0.0000 0.0000 0.0000 -2.8851 0.0000 0.0000
# 5 0.0000 0.0000 0.0000 0.0000 45.2298 0.0000
# 6 0.0000 0.0000 0.0000 0.0000 0.0000 50.0721
#
#
#
# Elastic Compliance Matrix: (Units=1/GPa)
#
#
# Indices 1 2 3 4 5 6 
#
# 1 0.005383 -0.002137 -0.002531 0.000000 0.000000 0.000000
# 2 -0.002137 0.010003 -0.002549 0.000000 0.000000 0.000000
# 3 -0.002531 -0.002549 0.012360 0.000000 0.000000 0.000000
# 4 0.000000 0.000000 0.000000 -0.346612 0.000000 0.000000
# 5 0.000000 0.000000 0.000000 0.000000 0.022109 0.000000
# 6 0.000000 0.000000 0.000000 0.000000 0.000000 0.019971
#
#
# Mechanical properties :
#
#
# Convention : Reuss Voigt Hill
#
# Bulk Modulus (GPa) = 75.12099 90.29375 82.70737
# Shear Modulus (GPa) = -19.38628 38.35202 9.48287
#
# Velocity S-wave (km/s) = -2.90648 4.08803 2.03278
# Velocity P-wave (km/s) = 4.63364 7.85037 6.44589
#
# Compressibility (1/GPa) = 0.01331186
#
# Stress axis : x y z
#
# Youngs Moduli (GPa) = 185.77320 99.96911 80.90682
#
# Poissons Ratio (x) = 0.21361 0.20480
# Poissons Ratio (y) = 0.39695 0.20623
# Poissons Ratio (z) = 0.47025 0.25482
#
# Static dielectric constant tensor:
#      x y z
#    x 1.897610 0.000000 0.000000 
#    y 0.000000 1.913520 0.000000 
#    z 0.000000 0.000000 1.929040 
# 
# From -- ./inp_files/7589.got.cif
#   From: 2010.05.17/outbox.cif.g08.bks.cpg/sg73_4_cif.got.tgz:7589.got - 2010.06.03 17:35:07.
