data_PCOD9532043
_publ_section_title
;
Structure prediction by ZEFSAII (Michael W. Deem and Ramdas Pophale) SiO2 
 PCOD9532043
Probable space group: I B C A 
;
_chemical_formula_sum "Si O2"
_cell_formula_units_Z 88
_cell_length_a 22.894854
_cell_length_b 34.325609
_cell_length_c 5.114019
_cell_angle_alpha 90.000000
_cell_angle_beta 90.000000
_cell_angle_gamma 90.000000
_cell_volume 4019.004262
_symmetry_space_group_name_H-M "I B C A "
_symmetry_group_IT_number 73
_symmetry_cell_setting 'orthorhombic'
loop_
_space_group_symop_operation_xyz
x,y,z
-x,1/2-y,z
x,-y,1/2-z
1/2-x,y,-z
-x,-y,-z
x,1/2+y,-z
-x,y,1/2+z
1/2+x,-y,z
1/2+x,1/2+y,1/2+z
1/2-x,-y,1/2+z
1/2+x,1/2-y,-z
-x,1/2+y,1/2-z
1/2-x,1/2-y,1/2-z
1/2+x,y,1/2-z
1/2-x,1/2+y,z
x,1/2-y,1/2+z
loop_
_atom_site_type_symbol
_atom_site_label
_atom_site_fract_x
_atom_site_fract_y
_atom_site_fract_z
Si Si1 0.750000 0.891227 0.500000
Si Si2 0.133386 0.391523 0.216448
Si Si3 0.963984 0.856243 0.634336
Si Si4 0.960497 0.454933 0.750883
Si Si5 0.409755 0.276082 0.222941
Si Si6 0.309389 0.330282 0.389178
O O1 0.695269 0.910955 0.639162
O O2 0.782178 0.863402 0.706064
O O3 0.095798 0.374790 0.971689
O O4 0.091413 0.425432 0.319605
O O5 0.150796 0.354163 0.398544
O O6 0.954724 0.809954 0.649932
O O7 0.987452 0.866605 0.918920
O O8 0.941112 0.500000 0.750000
O O9 0.988027 0.449330 0.462785
O O10 0.415278 0.257108 0.506976
O O11 0.348009 0.298958 0.236723
O O12 0.250000 0.311056 0.500000
#
# Coordination Sequence:
#
# PCOD9532043 Si02
#       6
#     8  16  16  16  16  16
#     4  10  22  40  70  94 132 176 222 290 334 392
#     4  11  22  41  70  99 136 174 231 276 334 404
#     4  12  25  41  66  93 125 171 221 273 330 402
#     4  10  23  42  70 107 145 180 217 274 335 390
#     4  12  26  43  63  91 131 171 219 281 348 408
#     4  10  23  42  64  96 132 177 231 286 338 401
#
# _framework density 21.895972
#
# number of rings (size 3 to 8) (size 9 to 14) (size 15 to 20)
#    0.000    1.091    1.818    4.364    5.091    2.909 
#    0.000    0.000    6.000    0.000    0.000    0.000 
#    0.000    0.000    0.000    0.000    0.000    0.000 
#
# Total GULP energy -245853.135952 kJ/mol
# GULP energy per Si atom -5587.571272 kJ/mol
# Density = 2.184614 g / cm^3
# Si number density = 21.895972 Si / 1000 Ang^3
#
#
#
# Elastic Constant Matrix: (Units=GPa)
#
#
# Indices 1 2 3 4 5 6 
#
# 1 132.6217 45.9190 33.3201 0.0000 0.0000 0.0000
# 2 45.9190 85.0233 12.3571 0.0000 0.0000 0.0000
# 3 33.3201 12.3571 84.2135 0.0000 0.0001 0.0000
# 4 0.0000 0.0000 0.0000 19.4686 0.0000 0.0000
# 5 0.0000 0.0000 0.0001 0.0000 44.8432 0.0000
# 6 0.0000 0.0000 0.0000 0.0000 0.0000 27.6788
#
#
#
# Elastic Compliance Matrix: (Units=1/GPa)
#
#
# Indices 1 2 3 4 5 6 
#
# 1 0.010080 -0.004970 -0.003259 0.000000 0.000000 0.000000
# 2 -0.004970 0.014469 -0.000156 0.000000 0.000000 0.000000
# 3 -0.003259 -0.000156 0.013187 0.000000 0.000000 0.000000
# 4 0.000000 0.000000 0.000000 0.051365 0.000000 0.000000
# 5 0.000000 0.000000 0.000000 0.000000 0.022300 0.000000
# 6 0.000000 0.000000 0.000000 0.000000 0.000000 0.036129
#
#
# Mechanical properties :
#
#
# Convention : Reuss Voigt Hill
#
# Bulk Modulus (GPa) = 47.70068 53.89452 50.79760
# Shear Modulus (GPa) = 29.19056 32.41562 30.80309
#
# Velocity S-wave (km/s) = 3.65519 3.85182 3.75479
# Velocity P-wave (km/s) = 6.29653 6.66703 6.48443
#
# Compressibility (1/GPa) = 0.02096406
#
# Stress axis : x y z
#
# Youngs Moduli (GPa) = 99.20697 69.11540 75.83233
#
# Poissons Ratio (x) = 0.34352 0.24713
# Poissons Ratio (y) = 0.49309 0.01187
# Poissons Ratio (z) = 0.32331 0.01082
#
# Static dielectric constant tensor:
#      x y z
#    x 1.868960 0.000000 0.000000 
#    y 0.000000 1.798450 0.000000 
#    z 0.000000 0.000000 1.892200 
# 
# From -- ./inp_files/2247.got.cif
#   From: 2010.05.17/outbox.cif.g08.bks.cpg/sg73_2_cif.got.tgz:2247.got - 2010.06.03 17:35:07.
