data_PCOD9532676
_publ_section_title
;
Structure prediction by ZEFSAII (Michael W. Deem and Ramdas Pophale) SiO2 
 PCOD9532676
Probable space group: I B C A 
;
_chemical_formula_sum "Si O2"
_cell_formula_units_Z 96
_cell_length_a 17.303275
_cell_length_b 24.778760
_cell_length_c 8.562372
_cell_angle_alpha 90.000000
_cell_angle_beta 90.000000
_cell_angle_gamma 90.000000
_cell_volume 3671.148662
_symmetry_space_group_name_H-M "I B C A "
_symmetry_group_IT_number 73
_symmetry_cell_setting 'orthorhombic'
loop_
_space_group_symop_operation_xyz
x,y,z
-x,1/2-y,z
x,-y,1/2-z
1/2-x,y,-z
-x,-y,-z
x,1/2+y,-z
-x,y,1/2+z
1/2+x,-y,z
1/2+x,1/2+y,1/2+z
1/2-x,-y,1/2+z
1/2+x,1/2-y,-z
-x,1/2+y,1/2-z
1/2-x,1/2-y,1/2-z
1/2+x,y,1/2-z
1/2-x,1/2+y,z
x,1/2-y,1/2+z
loop_
_atom_site_type_symbol
_atom_site_label
_atom_site_fract_x
_atom_site_fract_y
_atom_site_fract_z
Si Si1 0.070864 0.469000 0.089806
Si Si2 0.049070 0.617994 0.853525
Si Si3 0.746138 0.658544 0.676505
Si Si4 0.173397 0.730804 0.389161
Si Si5 0.525263 0.694574 0.920774
Si Si6 0.320697 0.443564 0.199897
O O1 0.091888 0.500000 0.250000
O O2 0.031708 0.413189 0.142184
O O3 0.136599 0.455285 0.963525
O O4 0.000000 0.500000 0.000000
O O5 0.056440 0.650451 0.695342
O O6 0.115798 0.573211 0.834386
O O7 0.041984 0.662253 0.988628
O O8 0.750000 0.637378 0.500000
O O9 0.818195 0.692274 0.739384
O O10 0.683454 0.707294 0.664879
O O11 0.732050 0.609141 0.792544
O O12 0.250000 0.721429 0.500000
O O13 0.094634 0.714656 0.470006
O O14 0.500000 0.750000 0.838852
O O15 0.283233 0.500000 0.250000
#
# Coordination Sequence:
#
# PCOD9532676 Si02
#       6
#    16  16  16  16  16  16
#     4  12  21  43  69 104 146 198 249 303 391 455
#     4  12  23  40  67 103 144 193 236 301 389 442
#     4  10  24  48  78 105 140 199 257 312 383 461
#     4  10  23  48  76 107 151 201 255 309 388 471
#     4  12  26  41  66 110 154 189 247 314 375 460
#     4  12  24  44  75 105 149 190 256 316 377 469
#
# _framework density 26.149853
#
# number of rings (size 3 to 8) (size 9 to 14) (size 15 to 20)
#    0.000    0.667    5.000    2.500    0.000    8.000 
#    0.000    2.500    0.000    0.000    0.000    0.000 
#    0.000    0.000    0.000    0.000    0.000    0.000 
#
# Total GULP energy -268737.431405 kJ/mol
# GULP energy per Si atom -5598.696488 kJ/mol
# Density = 2.609033 g / cm^3
# Si number density = 26.149853 Si / 1000 Ang^3
#
#
#
# Elastic Constant Matrix: (Units=GPa)
#
#
# Indices 1 2 3 4 5 6 
#
# 1 52.5714 30.7430 37.4260 0.0000 0.0000 0.0000
# 2 30.7430 192.9028 58.8022 0.0000 0.0000 0.0000
# 3 37.4260 58.8022 118.8816 0.0000 0.0000 0.0000
# 4 0.0000 0.0000 0.0000 46.9287 0.0000 0.0000
# 5 0.0000 0.0000 0.0000 0.0000 36.0187 0.0000
# 6 0.0000 0.0000 0.0000 0.0000 0.0000 8.5484
#
#
#
# Elastic Compliance Matrix: (Units=1/GPa)
#
#
# Indices 1 2 3 4 5 6 
#
# 1 0.025078 -0.001872 -0.006969 0.000000 0.000000 0.000000
# 2 -0.001872 0.006244 -0.002499 0.000000 0.000000 0.000000
# 3 -0.006969 -0.002499 0.011842 0.000000 0.000000 0.000000
# 4 0.000000 0.000000 0.000000 0.021309 0.000000 0.000000
# 5 0.000000 0.000000 0.000000 0.000000 0.027763 0.000000
# 6 0.000000 0.000000 0.000000 0.000000 0.000000 0.116981
#
#
# Mechanical properties :
#
#
# Convention : Reuss Voigt Hill
#
# Bulk Modulus (GPa) = 48.82049 68.69982 58.76015
# Shear Modulus (GPa) = 20.94455 34.12479 27.53467
#
# Velocity S-wave (km/s) = 2.83316 3.61636 3.24845
# Velocity P-wave (km/s) = 5.42333 6.61559 6.04890
#
# Compressibility (1/GPa) = 0.02048320
#
# Stress axis : x y z
#
# Youngs Moduli (GPa) = 39.87585 160.14994 84.44698
#
# Poissons Ratio (x) = 0.29986 0.58850
# Poissons Ratio (y) = 0.07466 0.21104
# Poissons Ratio (z) = 0.27789 0.40023
#
# Static dielectric constant tensor:
#      x y z
#    x 2.129600 0.000000 0.000000 
#    y 0.000000 2.007050 0.000000 
#    z 0.000000 0.000000 2.073200 
# 
# From -- ./inp_files/7162.got.cif
#   From: 2010.05.17/outbox.cif.g08.bks.cpg/sg73_4_cif.got.tgz:7162.got - 2010.06.03 17:35:07.
