data_PCOD9532877
_publ_section_title
;
Structure prediction by ZEFSAII (Michael W. Deem and Ramdas Pophale) SiO2 
 PCOD9532877
Probable space group: I B C A 
;
_chemical_formula_sum "Si O2"
_cell_formula_units_Z 56
_cell_length_a 15.900353
_cell_length_b 10.534405
_cell_length_c 16.411712
_cell_angle_alpha 90.000000
_cell_angle_beta 90.000000
_cell_angle_gamma 90.000000
_cell_volume 2748.974202
_symmetry_space_group_name_H-M "I B C A "
_symmetry_group_IT_number 73
_symmetry_cell_setting 'orthorhombic'
loop_
_space_group_symop_operation_xyz
x,y,z
-x,1/2-y,z
x,-y,1/2-z
1/2-x,y,-z
-x,-y,-z
x,1/2+y,-z
-x,y,1/2+z
1/2+x,-y,z
1/2+x,1/2+y,1/2+z
1/2-x,-y,1/2+z
1/2+x,1/2-y,-z
-x,1/2+y,1/2-z
1/2-x,1/2-y,1/2-z
1/2+x,y,1/2-z
1/2-x,1/2+y,z
x,1/2-y,1/2+z
loop_
_atom_site_type_symbol
_atom_site_label
_atom_site_fract_x
_atom_site_fract_y
_atom_site_fract_z
Si Si1 0.768603 0.127186 0.195267
Si Si2 0.906521 0.763081 0.908708
Si Si3 0.409227 0.537213 0.343928
Si Si4 0.000000 0.750000 0.068741
O O1 0.750000 0.250000 0.250000
O O2 0.842745 0.166663 0.133606
O O3 0.679061 0.109492 0.152374
O O4 0.785193 0.000000 0.250000
O O5 0.000000 0.750000 0.870688
O O6 0.888732 0.909289 0.892189
O O7 0.922098 0.748252 0.005091
O O8 0.425326 0.500000 0.250000
O O9 0.484327 0.624315 0.378290
#
# Coordination Sequence:
#
# PCOD9532877 Si02
#       4
#    16  16  16   8
#     4  11  22  44  70 106 141 190 251 297 355 435
#     4  10  24  45  66 106 146 183 241 303 369 430
#     4  11  23  44  71 101 143 183 255 291 364 447
#     4  10  26  44  68 106 142 190 236 302 380 428
#
# _framework density 20.371234000000001
#
# number of rings (size 3 to 8) (size 9 to 14) (size 15 to 20)
#    0.857    0.571    5.714    0.857    2.000    4.571 
#    0.000    2.857    0.000    0.000    0.000    0.000 
#    0.000    0.000    0.000    0.000    0.000    0.000 
#
# Total GULP energy -155959.667836 kJ/mol
# GULP energy per Si atom -5569.988137 kJ/mol
# Density = 2.032487 g / cm^3
# Si number density = 20.371234 Si / 1000 Ang^3
#
#
#
# Elastic Constant Matrix: (Units=GPa)
#
#
# Indices 1 2 3 4 5 6 
#
# 1 88.3436 40.9538 47.9334 0.0000 0.0000 0.0000
# 2 40.9538 129.8690 49.2185 0.0000 0.0000 0.0000
# 3 47.9334 49.2185 113.6888 0.0000 0.0000 0.0000
# 4 0.0000 0.0000 0.0000 39.6615 0.0000 0.0000
# 5 0.0000 0.0000 0.0000 0.0000 26.8444 0.0000
# 6 0.0000 0.0000 0.0000 0.0000 0.0000 54.1748
#
#
#
# Elastic Compliance Matrix: (Units=1/GPa)
#
#
# Indices 1 2 3 4 5 6 
#
# 1 0.015534 -0.002891 -0.005298 0.000000 0.000000 0.000000
# 2 -0.002891 0.009749 -0.003002 0.000000 0.000000 0.000000
# 3 -0.005298 -0.003002 0.012329 0.000000 0.000000 0.000000
# 4 0.000000 0.000000 0.000000 0.025213 0.000000 0.000000
# 5 0.000000 0.000000 0.000000 0.000000 0.037252 0.000000
# 6 0.000000 0.000000 0.000000 0.000000 0.000000 0.018459
#
#
# Mechanical properties :
#
#
# Convention : Reuss Voigt Hill
#
# Bulk Modulus (GPa) = 65.65398 67.56808 66.61103
# Shear Modulus (GPa) = 34.24774 37.05586 35.65180
#
# Velocity S-wave (km/s) = 4.10467 4.26963 4.18796
# Velocity P-wave (km/s) = 7.40021 7.58596 7.49366
#
# Compressibility (1/GPa) = 0.01523137
#
# Stress axis : x y z
#
# Youngs Moduli (GPa) = 64.37446 102.57103 81.10770
#
# Poissons Ratio (x) = 0.29651 0.42971
# Poissons Ratio (y) = 0.18609 0.24348
# Poissons Ratio (z) = 0.34106 0.30791
#
# Static dielectric constant tensor:
#      x y z
#    x 1.704940 0.000000 0.000000 
#    y 0.000000 1.258090 0.000000 
#    z 0.000000 0.000000 1.877810 
# 
# From -- ./inp_files/5086.got.cif
#   From: 2010.05.17/outbox.cif.g08.bks.cpg/sg73_3_cif.got.tgz:5086.got - 2010.06.03 17:35:07.
