data_PCOD9532215
_publ_section_title
;
Structure prediction by ZEFSAII (Michael W. Deem and Ramdas Pophale) SiO2 
 PCOD9532215
Probable space group: I B C A 
;
_chemical_formula_sum "Si O2"
_cell_formula_units_Z 72
_cell_length_a 31.047232
_cell_length_b 12.879577
_cell_length_c 8.594264
_cell_angle_alpha 90.000000
_cell_angle_beta 90.000000
_cell_angle_gamma 90.000000
_cell_volume 3436.633166
_symmetry_space_group_name_H-M "I B C A "
_symmetry_group_IT_number 73
_symmetry_cell_setting 'orthorhombic'
loop_
_space_group_symop_operation_xyz
x,y,z
-x,1/2-y,z
x,-y,1/2-z
1/2-x,y,-z
-x,-y,-z
x,1/2+y,-z
-x,y,1/2+z
1/2+x,-y,z
1/2+x,1/2+y,1/2+z
1/2-x,-y,1/2+z
1/2+x,1/2-y,-z
-x,1/2+y,1/2-z
1/2-x,1/2-y,1/2-z
1/2+x,y,1/2-z
1/2-x,1/2+y,z
x,1/2-y,1/2+z
loop_
_atom_site_type_symbol
_atom_site_label
_atom_site_fract_x
_atom_site_fract_y
_atom_site_fract_z
Si Si1 0.175238 0.131351 0.556259
Si Si2 0.207656 0.322737 0.717777
Si Si3 0.607369 0.500000 0.250000
Si Si4 0.000000 0.250000 0.682061
Si Si5 0.750000 0.990174 0.000000
Si Si6 0.031921 0.405092 0.443341
O O1 0.177891 0.247529 0.617638
O O2 0.181686 0.140907 0.370027
O O3 0.136918 0.076777 0.648171
O O4 0.217955 0.064089 0.594791
O O5 0.250000 0.250000 0.750000
O O6 0.222369 0.417019 0.610825
O O7 0.576804 0.550540 0.381848
O O8 0.966827 0.187315 0.571252
O O9 0.984627 0.342877 0.792169
O O10 0.000000 0.500000 0.500000
#
# Coordination Sequence:
#
# PCOD9532215 Si02
#       6
#    16  16   8   8   8  16
#     4  12  27  42  68 106 143 191 246 316 367 430
#     4  12  22  43  70  98 137 196 251 296 365 445
#     4  12  28  46  72 110 158 180 252 320 366 450
#     4  10  22  42  86 110 136 202 242 288 384 476
#     4  12  22  44  74  96 140 202 252 298 380 440
#     4  11  22  48  75 112 146 192 239 303 380 469
#
# _framework density 20.950738999999999
#
# number of rings (size 3 to 8) (size 9 to 14) (size 15 to 20)
#    0.000    0.444    6.667    2.000    0.000    1.778 
#    0.000    2.222    0.000    0.000    0.000    0.000 
#    0.000    0.000    0.000    0.000    0.000    0.000 
#
# Total GULP energy -200790.124252 kJ/mol
# GULP energy per Si atom -5577.503451 kJ/mol
# Density = 2.090305 g / cm^3
# Si number density = 20.950739 Si / 1000 Ang^3
#
#
#
# Elastic Constant Matrix: (Units=GPa)
#
#
# Indices 1 2 3 4 5 6 
#
# 1 95.7319 56.7562 48.4685 0.0000 0.0000 0.0000
# 2 56.7562 154.7750 77.5067 0.0000 0.0000 0.0000
# 3 48.4685 77.5067 150.9115 0.0000 0.0000 0.0000
# 4 0.0000 0.0000 0.0000 63.2845 0.0000 0.0000
# 5 0.0000 0.0000 0.0000 0.0000 34.4776 0.0000
# 6 0.0000 0.0000 0.0000 0.0000 0.0000 -2.1511
#
#
#
# Elastic Compliance Matrix: (Units=1/GPa)
#
#
# Indices 1 2 3 4 5 6 
#
# 1 0.014018 -0.003885 -0.002507 0.000000 0.000000 0.000000
# 2 -0.003885 0.009775 -0.003772 0.000000 0.000000 0.000000
# 3 -0.002507 -0.003772 0.009369 0.000000 0.000000 0.000000
# 4 0.000000 0.000000 0.000000 0.015802 0.000000 0.000000
# 5 0.000000 0.000000 0.000000 0.000000 0.029004 0.000000
# 6 0.000000 0.000000 0.000000 0.000000 0.000000 -0.464884
#
#
# Mechanical properties :
#
#
# Convention : Reuss Voigt Hill
#
# Bulk Modulus (GPa) = 77.92288 85.20903 81.56596
# Shear Modulus (GPa) = -13.80037 33.70133 9.95048
#
# Velocity S-wave (km/s) = -2.56931 4.01509 2.18169
# Velocity P-wave (km/s) = 5.33595 7.89012 6.73522
#
# Compressibility (1/GPa) = 0.01283320
#
# Stress axis : x y z
#
# Youngs Moduli (GPa) = 71.33434 102.30366 106.73451
#
# Poissons Ratio (x) = 0.39747 0.26758
# Poissons Ratio (y) = 0.27715 0.40265
# Poissons Ratio (z) = 0.17883 0.38593
#
# Static dielectric constant tensor:
#      x y z
#    x 1.765750 0.000000 0.000000 
#    y 0.000000 1.753160 0.000000 
#    z 0.000000 0.000000 1.945020 
# 
# From -- ./inp_files/7641.got.cif
#   From: 2010.05.17/outbox.cif.g08.bks.cpg/sg73_4_cif.got.tgz:7641.got - 2010.06.03 17:35:07.
