data_PCOD9532424
_publ_section_title
;
Structure prediction by ZEFSAII (Michael W. Deem and Ramdas Pophale) SiO2 
 PCOD9532424
Probable space group: I B C A 
;
_chemical_formula_sum "Si O2"
_cell_formula_units_Z 104
_cell_length_a 14.032856
_cell_length_b 18.422134
_cell_length_c 18.056020
_cell_angle_alpha 90.000000
_cell_angle_beta 90.000000
_cell_angle_gamma 90.000000
_cell_volume 4667.754784
_symmetry_space_group_name_H-M "I B C A "
_symmetry_group_IT_number 73
_symmetry_cell_setting 'orthorhombic'
loop_
_space_group_symop_operation_xyz
x,y,z
-x,1/2-y,z
x,-y,1/2-z
1/2-x,y,-z
-x,-y,-z
x,1/2+y,-z
-x,y,1/2+z
1/2+x,-y,z
1/2+x,1/2+y,1/2+z
1/2-x,-y,1/2+z
1/2+x,1/2-y,-z
-x,1/2+y,1/2-z
1/2-x,1/2-y,1/2-z
1/2+x,y,1/2-z
1/2-x,1/2+y,z
x,1/2-y,1/2+z
loop_
_atom_site_type_symbol
_atom_site_label
_atom_site_fract_x
_atom_site_fract_y
_atom_site_fract_z
Si Si1 0.849292 0.394011 0.909250
Si Si2 0.544343 0.603674 0.258141
Si Si3 0.829770 0.078761 0.780768
Si Si4 0.337666 0.560793 0.619348
Si Si5 0.010728 0.918815 0.468965
Si Si6 0.655877 0.153019 0.371689
Si Si7 0.000000 0.250000 0.169993
O O1 0.887904 0.384864 0.827021
O O2 0.822190 0.479942 0.912892
O O3 0.752767 0.349355 0.916525
O O4 0.933409 0.376761 0.966569
O O5 0.443603 0.576042 0.290731
O O6 0.595358 0.557537 0.193212
O O7 0.525817 0.681151 0.219647
O O8 0.761994 0.092875 0.851091
O O9 0.818377 0.135749 0.713689
O O10 0.799240 0.000000 0.750000
O O11 0.406180 0.601943 0.560891
O O12 0.085326 0.910927 0.400900
O O13 0.000000 0.000000 0.500000
O O14 0.591260 0.224090 0.376148
#
# Coordination Sequence:
#
# PCOD9532424 Si02
#       7
#    16  16  16  16  16  16   8
#     4  11  22  37  64  96 131 170 221 291 350 408
#     4  11  22  38  60  91 128 175 230 275 335 394
#     4  11  19  32  61  93 128 164 222 286 337 401
#     4  11  19  37  60  98 127 171 221 282 349 407
#     4  10  23  38  61  97 135 171 218 283 355 415
#     4  11  21  41  61  99 130 181 230 269 342 416
#     4  10  24  40  64  92 132 184 226 280 320 406
#
# _framework density 22.280519000000002
#
# number of rings (size 3 to 8) (size 9 to 14) (size 15 to 20)
#    0.000    1.231    6.154    1.846    2.154    0.615 
#    0.000    1.538    0.000    0.000    8.000    0.000 
#    0.000    0.000    0.000    0.000    0.000    0.000 
#
# Total GULP energy -290203.784665 kJ/mol
# GULP energy per Si atom -5580.842013 kJ/mol
# Density = 2.222981 g / cm^3
# Si number density = 22.280519 Si / 1000 Ang^3
#
#
#
# Elastic Constant Matrix: (Units=GPa)
#
#
# Indices 1 2 3 4 5 6 
#
# 1 176.8587 38.9756 40.3321 0.0000 0.0000 0.0000
# 2 38.9756 57.5723 21.1324 0.0000 0.0000 0.0000
# 3 40.3321 21.1324 63.4097 0.0000 0.0000 0.0000
# 4 0.0000 0.0000 0.0000 17.9982 0.0000 0.0000
# 5 0.0000 0.0000 0.0000 0.0000 47.9283 0.0000
# 6 0.0000 0.0000 0.0000 0.0000 0.0000 28.6019
#
#
#
# Elastic Compliance Matrix: (Units=1/GPa)
#
#
# Indices 1 2 3 4 5 6 
#
# 1 0.007231 -0.003654 -0.003381 0.000000 0.000000 0.000000
# 2 -0.003654 0.021637 -0.004887 0.000000 0.000000 0.000000
# 3 -0.003381 -0.004887 0.019550 0.000000 0.000000 0.000000
# 4 0.000000 0.000000 0.000000 0.055561 0.000000 0.000000
# 5 0.000000 0.000000 0.000000 0.000000 0.020865 0.000000
# 6 0.000000 0.000000 0.000000 0.000000 0.000000 0.034963
#
#
# Mechanical properties :
#
#
# Convention : Reuss Voigt Hill
#
# Bulk Modulus (GPa) = 40.69471 55.41341 48.05406
# Shear Modulus (GPa) = 26.06334 32.06573 29.06454
#
# Velocity S-wave (km/s) = 3.42392 3.79777 3.61568
# Velocity P-wave (km/s) = 5.82540 6.64496 6.24863
#
# Compressibility (1/GPa) = 0.02457322
#
# Stress axis : x y z
#
# Youngs Moduli (GPa) = 138.30207 46.21761 51.15149
#
# Poissons Ratio (x) = 0.16887 0.17296
# Poissons Ratio (y) = 0.50533 0.24997
# Poissons Ratio (z) = 0.46764 0.22586
#
# Static dielectric constant tensor:
#      x y z
#    x 1.879590 0.000000 0.000000 
#    y 0.000000 1.824880 0.000000 
#    z 0.000000 0.000000 1.880920 
# 
# From -- ./inp_files/22082.got.cif
#   From: 2010.05.17/outbox.cif.g08.bks.cpg/sg73_12_cif.got.tgz:22082.got - 2010.06.03 17:35:07.
