data_PCOD9532563
_publ_section_title
;
Structure prediction by ZEFSAII (Michael W. Deem and Ramdas Pophale) SiO2 
 PCOD9532563
Probable space group: I B C A 
;
_chemical_formula_sum "Si O2"
_cell_formula_units_Z 64
_cell_length_a 9.894502
_cell_length_b 15.016682
_cell_length_c 17.969581
_cell_angle_alpha 90.000000
_cell_angle_beta 90.000000
_cell_angle_gamma 90.000000
_cell_volume 2669.966888
_symmetry_space_group_name_H-M "I B C A "
_symmetry_group_IT_number 73
_symmetry_cell_setting 'orthorhombic'
loop_
_space_group_symop_operation_xyz
x,y,z
-x,1/2-y,z
x,-y,1/2-z
1/2-x,y,-z
-x,-y,-z
x,1/2+y,-z
-x,y,1/2+z
1/2+x,-y,z
1/2+x,1/2+y,1/2+z
1/2-x,-y,1/2+z
1/2+x,1/2-y,-z
-x,1/2+y,1/2-z
1/2-x,1/2-y,1/2-z
1/2+x,y,1/2-z
1/2-x,1/2+y,z
x,1/2-y,1/2+z
loop_
_atom_site_type_symbol
_atom_site_label
_atom_site_fract_x
_atom_site_fract_y
_atom_site_fract_z
Si Si1 0.752966 0.971689 0.913097
Si Si2 0.647591 0.788054 0.069943
Si Si3 0.720623 0.849949 0.318255
Si Si4 0.941569 0.409702 0.795470
O O1 0.859457 0.890966 0.904710
O O2 0.613330 0.933877 0.877783
O O3 0.782219 0.059398 0.866817
O O4 0.750000 0.993628 0.000000
O O5 0.500000 0.750000 0.051770
O O6 0.715825 0.727413 0.132683
O O7 0.750000 0.787038 0.000000
O O8 0.815607 0.869047 0.248614
O O9 0.565793 0.842720 0.295462
O O10 0.978996 0.500000 0.750000
#
# Coordination Sequence:
#
# PCOD9532563 Si02
#       4
#    16  16  16  16
#     4  10  24  44  73 103 141 186 243 293 363 422
#     4  11  28  48  73 108 145 185 243 297 355 435
#     4  11  25  46  73 102 147 192 233 299 359 421
#     4  10  23  43  70 103 146 184 241 291 353 426
#
# _framework density 23.970334999999999
#
# number of rings (size 3 to 8) (size 9 to 14) (size 15 to 20)
#    0.000    1.500    0.000    3.000   17.500    2.000 
#    0.000    0.000    0.000    0.000    0.000    0.000 
#    0.000    0.000    0.000    0.000    0.000    0.000 
#
# Total GULP energy -179382.681159 kJ/mol
# GULP energy per Si atom -5605.708786 kJ/mol
# Density = 2.391578 g / cm^3
# Si number density = 23.970335 Si / 1000 Ang^3
#
#
#
# Elastic Constant Matrix: (Units=GPa)
#
#
# Indices 1 2 3 4 5 6 
#
# 1 142.9817 46.9754 70.6386 0.0000 0.0000 0.0000
# 2 46.9754 123.2761 34.7716 0.0000 0.0000 0.0000
# 3 70.6386 34.7716 142.9430 0.0000 0.0000 0.0000
# 4 0.0000 0.0000 0.0000 8.6836 0.0000 0.0000
# 5 0.0000 0.0000 0.0000 0.0000 29.6595 0.0000
# 6 0.0000 0.0000 0.0000 0.0000 0.0000 25.0878
#
#
#
# Elastic Compliance Matrix: (Units=1/GPa)
#
#
# Indices 1 2 3 4 5 6 
#
# 1 0.009966 -0.002586 -0.004296 0.000000 0.000000 0.000000
# 2 -0.002586 0.009380 -0.001004 0.000000 0.000000 0.000000
# 3 -0.004296 -0.001004 0.009363 0.000000 0.000000 0.000000
# 4 0.000000 0.000000 0.000000 0.115160 0.000000 0.000000
# 5 0.000000 0.000000 0.000000 0.000000 0.033716 0.000000
# 6 0.000000 0.000000 0.000000 0.000000 0.000000 0.039860
#
#
# Mechanical properties :
#
#
# Convention : Reuss Voigt Hill
#
# Bulk Modulus (GPa) = 77.29274 79.33021 78.31147
# Shear Modulus (GPa) = 21.05010 29.80719 25.42865
#
# Velocity S-wave (km/s) = 2.96661 3.53016 3.26058
# Velocity P-wave (km/s) = 6.63698 7.05571 6.84955
#
# Compressibility (1/GPa) = 0.01293783
#
# Stress axis : x y z
#
# Youngs Moduli (GPa) = 100.34370 106.60504 106.80478
#
# Poissons Ratio (x) = 0.27566 0.45881
# Poissons Ratio (y) = 0.25947 0.10723
# Poissons Ratio (z) = 0.43105 0.10703
#
# Static dielectric constant tensor:
#      x y z
#    x 1.911190 0.000000 0.000000 
#    y 0.000000 1.932700 0.000000 
#    z 0.000000 0.000000 1.891210 
# 
# From -- ./inp_files/24596.got.cif
#   From: 2010.05.17/outbox.cif.g08.bks.cpg/sg73_13_cif.got.tgz:24596.got - 2010.06.03 17:35:07.
