data_PCOD9532086
_publ_section_title
;
Structure prediction by ZEFSAII (Michael W. Deem and Ramdas Pophale) SiO2 
 PCOD9532086
Probable space group: I B C A 
;
_chemical_formula_sum "Si O2"
_cell_formula_units_Z 104
_cell_length_a 8.739067
_cell_length_b 25.301065
_cell_length_c 20.317420
_cell_angle_alpha 90.000000
_cell_angle_beta 90.000000
_cell_angle_gamma 90.000000
_cell_volume 4492.338051
_symmetry_space_group_name_H-M "I B C A "
_symmetry_group_IT_number 73
_symmetry_cell_setting 'orthorhombic'
loop_
_space_group_symop_operation_xyz
x,y,z
-x,1/2-y,z
x,-y,1/2-z
1/2-x,y,-z
-x,-y,-z
x,1/2+y,-z
-x,y,1/2+z
1/2+x,-y,z
1/2+x,1/2+y,1/2+z
1/2-x,-y,1/2+z
1/2+x,1/2-y,-z
-x,1/2+y,1/2-z
1/2-x,1/2-y,1/2-z
1/2+x,y,1/2-z
1/2-x,1/2+y,z
x,1/2-y,1/2+z
loop_
_atom_site_type_symbol
_atom_site_label
_atom_site_fract_x
_atom_site_fract_y
_atom_site_fract_z
Si Si1 0.250000 0.547449 0.500000
Si Si2 0.613493 0.427852 0.840672
Si Si3 0.409312 0.303230 0.699962
Si Si4 0.692751 0.979399 0.646438
Si Si5 0.682430 0.128381 0.213350
Si Si6 0.358872 0.288635 0.557671
Si Si7 0.582985 0.601513 0.513974
O O1 0.258280 0.520104 0.570635
O O2 0.418024 0.576044 0.498700
O O3 0.487300 0.473282 0.845675
O O4 0.764227 0.462681 0.828003
O O5 0.596838 0.391873 0.778346
O O6 0.593492 0.394473 0.906915
O O7 0.500000 0.250000 0.721034
O O8 0.309427 0.330804 0.757435
O O9 0.548266 0.341189 0.675333
O O10 0.307184 0.294025 0.634013
O O11 0.756684 0.924248 0.676903
O O12 0.500000 0.250000 0.562531
O O13 0.250000 0.266566 0.500000
O O14 0.407155 0.344901 0.527216
O O15 0.750000 0.575088 0.500000
#
# Coordination Sequence:
#
# PCOD9532086 Si02
#       7
#     8  16  16  16  16  16  16
#     4  10  24  42  64 100 134 186 238 288 360 426
#     4  11  26  42  67 102 136 182 240 288 354 424
#     4  11  25  45  71 103 138 181 235 285 358 420
#     4  11  26  42  67 100 137 186 234 293 353 426
#     4  12  23  46  69  99 140 182 228 296 347 427
#     4  10  22  43  68 104 133 183 230 292 355 426
#     4  10  22  41  65  97 139 183 231 294 356 421
#
# _framework density 23.150527
#
# number of rings (size 3 to 8) (size 9 to 14) (size 15 to 20)
#    0.000    1.231    1.538    3.692    6.462    2.462 
#    2.769    1.538    0.000    0.000    0.000    0.000 
#    0.000    0.000    0.000    0.000    0.000    0.000 
#
# Total GULP energy -289983.418756 kJ/mol
# GULP energy per Si atom -5576.604207 kJ/mol
# Density = 2.309784 g / cm^3
# Si number density = 23.150527 Si / 1000 Ang^3
#
#
#
# Elastic Constant Matrix: (Units=GPa)
#
#
# Indices 1 2 3 4 5 6 
#
# 1 83.9538 11.7800 10.9448 0.0001 0.0000 0.0000
# 2 11.7800 67.2880 29.3555 0.0009 0.0000 0.0000
# 3 10.9448 29.3555 95.4384 0.0047 0.0000 0.0000
# 4 0.0001 0.0009 0.0047-1640.9482 0.0002 0.0007
# 5 0.0000 0.0000 0.0000 0.0002 26.3147 0.0000
# 6 0.0000 0.0000 0.0000 0.0007 0.0000 48.9549
#
#
#
# Elastic Compliance Matrix: (Units=1/GPa)
#
#
# Indices 1 2 3 4 5 6 
#
# 1 0.012272 -0.001772 -0.000862 0.000000 0.000000 0.000000
# 2 -0.001772 0.017421 -0.005155 0.000000 0.000000 0.000000
# 3 -0.000862 -0.005155 0.012162 0.000000 0.000000 0.000000
# 4 0.000000 0.000000 0.000000 -0.000609 0.000000 0.000000
# 5 0.000000 0.000000 0.000000 0.000000 0.038002 0.000000
# 6 0.000000 0.000000 0.000000 0.000000 0.000000 0.020427
#
#
# Mechanical properties :
#
#
# Convention : Reuss Voigt Hill
#
# Bulk Modulus (GPa) = 38.05720 38.98232 38.51976
# Shear Modulus (GPa) = 40.31838 -300.16238 -129.92200
#
# Velocity S-wave (km/s) = 4.17775 -11.39905 -7.49949
# Velocity P-wave (km/s) = 6.30445 12.50503 7.63642
#
# Compressibility (1/GPa) = 0.02627624
#
# Stress axis : x y z
#
# Youngs Moduli (GPa) = 81.48359 57.40273 82.22004
#
# Poissons Ratio (x) = 0.10174 0.07089
# Poissons Ratio (y) = 0.14442 0.42385
# Poissons Ratio (z) = 0.07026 0.29592
#
# Static dielectric constant tensor:
#      x y z
#    x 1.897550 0.000000 0.000000 
#    y 0.000000 1.850720 0.000000 
#    z 0.000000 0.000000 1.862140 
# 
# From -- ./inp_files/24981.got.cif
#   From: 2010.05.17/outbox.cif.g08.bks.cpg/sg73_13_cif.got.tgz:24981.got - 2010.06.03 17:35:07.
