data_PCOD9532172
_publ_section_title
;
Structure prediction by ZEFSAII (Michael W. Deem and Ramdas Pophale) SiO2 
 PCOD9532172
Probable space group: I B C A 
;
_chemical_formula_sum "Si O2"
_cell_formula_units_Z 56
_cell_length_a 13.202983
_cell_length_b 9.391608
_cell_length_c 17.141627
_cell_angle_alpha 90.000000
_cell_angle_beta 90.000000
_cell_angle_gamma 90.000000
_cell_volume 2125.514450
_symmetry_space_group_name_H-M "I B C A "
_symmetry_group_IT_number 73
_symmetry_cell_setting 'orthorhombic'
loop_
_space_group_symop_operation_xyz
x,y,z
-x,1/2-y,z
x,-y,1/2-z
1/2-x,y,-z
-x,-y,-z
x,1/2+y,-z
-x,y,1/2+z
1/2+x,-y,z
1/2+x,1/2+y,1/2+z
1/2-x,-y,1/2+z
1/2+x,1/2-y,-z
-x,1/2+y,1/2-z
1/2-x,1/2-y,1/2-z
1/2+x,y,1/2-z
1/2-x,1/2+y,z
x,1/2-y,1/2+z
loop_
_atom_site_type_symbol
_atom_site_label
_atom_site_fract_x
_atom_site_fract_y
_atom_site_fract_z
Si Si1 0.250000 0.708987 0.000000
Si Si2 0.882954 0.467556 0.495861
Si Si3 0.090618 0.159912 0.726622
Si Si4 0.683663 0.894308 0.322712
O O1 0.162611 0.818880 0.973973
O O2 0.322852 0.592864 0.959376
O O3 0.853337 0.460790 0.403649
O O4 0.000000 0.500000 0.500000
O O5 0.197805 0.147979 0.682160
O O6 0.119270 0.254245 0.802326
O O7 0.000000 0.250000 0.687194
O O8 0.060145 0.000000 0.750000
O O9 0.670294 0.000000 0.250000
#
# Coordination Sequence:
#
# PCOD9532172 Si02
#       4
#     8  16  16  16
#     4  10  26  48  74 114 150 220 274 340 396 502
#     4  11  25  51  79 111 162 218 273 337 419 498
#     4  10  22  42  68 118 162 211 253 331 415 495
#     4  10  24  46  75 118 162 205 275 344 408 507
#
# _framework density 26.346561000000001
#
# number of rings (size 3 to 8) (size 9 to 14) (size 15 to 20)
#    0.000    1.714    0.000    1.714   12.000    3.429 
#   20.571    0.000    0.000    0.000    0.000    0.000 
#    0.000    0.000    0.000    0.000    0.000    0.000 
#
# Total GULP energy -156323.712980 kJ/mol
# GULP energy per Si atom -5582.989749 kJ/mol
# Density = 2.628659 g / cm^3
# Si number density = 26.346561 Si / 1000 Ang^3
#
#
#
# Elastic Constant Matrix: (Units=GPa)
#
#
# Indices 1 2 3 4 5 6 
#
# 1 281.4647 85.3757 35.1855 0.0000 0.0000 0.0000
# 2 85.3757 224.2633 30.4017 0.0000 0.0000 0.0000
# 3 35.1855 30.4017 168.9171 0.0000 0.0000 0.0000
# 4 0.0000 0.0000 0.0000 -4.0315 0.0000 0.0000
# 5 0.0000 0.0000 0.0000 0.0000 6.2426 0.0000
# 6 0.0000 0.0000 0.0000 0.0000 0.0000 0.0734
#
#
#
# Elastic Compliance Matrix: (Units=1/GPa)
#
#
# Indices 1 2 3 4 5 6 
#
# 1 0.004072 -0.001471 -0.000583 0.000000 0.000000 0.000000
# 2 -0.001471 0.005102 -0.000612 0.000000 0.000000 0.000000
# 3 -0.000583 -0.000612 0.006152 0.000000 0.000000 0.000000
# 4 0.000000 0.000000 0.000000 -0.248046 0.000000 0.000000
# 5 0.000000 0.000000 0.000000 0.000000 0.160190 0.000000
# 6 0.000000 0.000000 0.000000 0.000000 0.000000 13.623383
#
#
# Mechanical properties :
#
#
# Convention : Reuss Voigt Hill
#
# Bulk Modulus (GPa) = 100.06988 108.50787 104.28888
# Shear Modulus (GPa) = 0.36874 35.36904 17.86889
#
# Velocity S-wave (km/s) = 0.37452 3.66793 2.60710
# Velocity P-wave (km/s) = 6.18479 7.69496 6.98083
#
# Compressibility (1/GPa) = 0.00999302
#
# Stress axis : x y z
#
# Youngs Moduli (GPa) = 245.57955 196.00071 162.55640
#
# Poissons Ratio (x) = 0.28834 0.09484
# Poissons Ratio (y) = 0.36127 0.09946
# Poissons Ratio (z) = 0.14328 0.11992
#
# Static dielectric constant tensor:
#      x y z
#    x 2.082240 0.000000 0.000000 
#    y 0.000000 2.236620 0.000000 
#    z 0.000000 0.000000 2.111160 
# 
# From -- ./inp_files/25787.got.cif
#   From: 2010.05.17/outbox.cif.g08.bks.cpg/sg73_13_cif.got.tgz:25787.got - 2010.06.03 17:35:07.
