data_PCOD9532168
_publ_section_title
;
Structure prediction by ZEFSAII (Michael W. Deem and Ramdas Pophale) SiO2 
 PCOD9532168
Probable space group: I B C A 
;
_chemical_formula_sum "Si O2"
_cell_formula_units_Z 88
_cell_length_a 10.249604
_cell_length_b 23.865851
_cell_length_c 14.462978
_cell_angle_alpha 90.000000
_cell_angle_beta 90.000000
_cell_angle_gamma 90.000000
_cell_volume 3537.868911
_symmetry_space_group_name_H-M "I B C A "
_symmetry_group_IT_number 73
_symmetry_cell_setting 'orthorhombic'
loop_
_space_group_symop_operation_xyz
x,y,z
-x,1/2-y,z
x,-y,1/2-z
1/2-x,y,-z
-x,-y,-z
x,1/2+y,-z
-x,y,1/2+z
1/2+x,-y,z
1/2+x,1/2+y,1/2+z
1/2-x,-y,1/2+z
1/2+x,1/2-y,-z
-x,1/2+y,1/2-z
1/2-x,1/2-y,1/2-z
1/2+x,y,1/2-z
1/2-x,1/2+y,z
x,1/2-y,1/2+z
loop_
_atom_site_type_symbol
_atom_site_label
_atom_site_fract_x
_atom_site_fract_y
_atom_site_fract_z
Si Si1 0.544932 0.624550 0.790035
Si Si2 0.184126 0.691086 0.269202
Si Si3 0.250000 0.577956 0.000000
Si Si4 0.510855 0.399579 0.425980
Si Si5 0.910492 0.982871 0.143929
Si Si6 0.389831 0.790880 0.028532
O O1 0.420666 0.667030 0.805012
O O2 0.692526 0.649305 0.792433
O O3 0.513409 0.610960 0.682750
O O4 0.518018 0.566829 0.845347
O O5 0.250000 0.750000 0.250000
O O6 0.104099 0.706390 0.361104
O O7 0.126176 0.612688 0.972826
O O8 0.287330 0.542404 0.909581
O O9 0.548617 0.464540 0.419427
O O10 0.600432 0.357934 0.486255
O O11 0.879470 0.000000 0.250000
O O12 0.500000 0.750000 0.991254
O O13 0.250000 0.769492 0.000000
#
# Coordination Sequence:
#
# PCOD9532168 Si02
#       6
#    16  16   8  16  16  16
#     4  10  22  42  68 103 138 192 231 308 360 441
#     4  11  22  42  71 101 141 183 245 294 367 433
#     4  12  24  40  72 102 142 192 250 304 370 454
#     4  10  24  43  65 101 142 181 245 299 369 446
#     4  10  24  43  67 104 148 198 248 309 375 446
#     4  11  27  46  68 101 139 186 232 307 369 449
#
# _framework density 24.873730999999999
#
# number of rings (size 3 to 8) (size 9 to 14) (size 15 to 20)
#    0.000    1.455    0.000    4.364    5.091    8.000 
#    0.000    0.000    0.000    0.000    0.000    0.000 
#    0.000    0.000    0.000    0.000    0.000    0.000 
#
# Total GULP energy -245393.182538 kJ/mol
# GULP energy per Si atom -5577.117785 kJ/mol
# Density = 2.481712 g / cm^3
# Si number density = 24.873731 Si / 1000 Ang^3
#
#
#
# Elastic Constant Matrix: (Units=GPa)
#
#
# Indices 1 2 3 4 5 6 
#
# 1 136.7889 45.4655 -9.6570 0.0000 0.0000 0.0000
# 2 45.4655 105.9418 17.2492 -0.0001 0.0000 0.0000
# 3 -9.6570 17.2492 46.9182 -0.0002 0.0000 0.0001
# 4 0.0000 -0.0001 -0.0002 -29.9620 0.0000 0.0001
# 5 0.0000 0.0000 0.0000 0.0000 36.7488 0.0000
# 6 0.0000 0.0000 0.0001 0.0001 0.0000 53.0470
#
#
#
# Elastic Compliance Matrix: (Units=1/GPa)
#
#
# Indices 1 2 3 4 5 6 
#
# 1 0.009035 -0.004446 0.003494 0.000000 0.000000 0.000000
# 2 -0.004446 0.012228 -0.005411 0.000000 0.000000 0.000000
# 3 0.003494 -0.005411 0.024022 0.000000 0.000000 0.000000
# 4 0.000000 0.000000 0.000000 -0.033376 0.000000 0.000000
# 5 0.000000 0.000000 0.000000 0.000000 0.027212 0.000000
# 6 0.000000 0.000000 0.000000 0.000000 0.000000 0.018851
#
#
# Mechanical properties :
#
#
# Convention : Reuss Voigt Hill
#
# Bulk Modulus (GPa) = 30.71271 43.97383 37.34327
# Shear Modulus (GPa) = 61.31052 27.73951 44.52501
#
# Velocity S-wave (km/s) = 4.97013 3.34310 4.23548
# Velocity P-wave (km/s) = 6.73131 5.71130 6.24218
#
# Compressibility (1/GPa) = 0.03255981
#
# Stress axis : x y z
#
# Youngs Moduli (GPa) = 110.67925 81.77731 41.62817
#
# Poissons Ratio (x) = 0.36362 -0.14546
# Poissons Ratio (y) = 0.49213 0.22524
# Poissons Ratio (z) = -0.38675 0.44249
#
# Static dielectric constant tensor:
#      x y z
#    x 2.062720 0.000000 0.000000 
#    y 0.000000 2.401130 0.000000 
#    z 0.000000 0.000000 1.884700 
# 
# From -- ./inp_files/16221.got.cif
#   From: 2010.05.17/outbox.cif.g08.bks.cpg/sg73_9_cif.got.tgz:16221.got - 2010.06.03 17:35:07.
