data_PCOD9532820
_publ_section_title
;
Structure prediction by ZEFSAII (Michael W. Deem and Ramdas Pophale) SiO2 
 PCOD9532820
Probable space group: I B C A 
;
_chemical_formula_sum "Si O2"
_cell_formula_units_Z 72
_cell_length_a 14.171330
_cell_length_b 8.530733
_cell_length_c 24.844232
_cell_angle_alpha 90.000000
_cell_angle_beta 90.000000
_cell_angle_gamma 90.000000
_cell_volume 3003.464733
_symmetry_space_group_name_H-M "I B C A "
_symmetry_group_IT_number 73
_symmetry_cell_setting 'orthorhombic'
loop_
_space_group_symop_operation_xyz
x,y,z
-x,1/2-y,z
x,-y,1/2-z
1/2-x,y,-z
-x,-y,-z
x,1/2+y,-z
-x,y,1/2+z
1/2+x,-y,z
1/2+x,1/2+y,1/2+z
1/2-x,-y,1/2+z
1/2+x,1/2-y,-z
-x,1/2+y,1/2-z
1/2-x,1/2-y,1/2-z
1/2+x,y,1/2-z
1/2-x,1/2+y,z
x,1/2-y,1/2+z
loop_
_atom_site_type_symbol
_atom_site_label
_atom_site_fract_x
_atom_site_fract_y
_atom_site_fract_z
Si Si1 0.815534 0.646219 0.712966
Si Si2 0.981447 0.922887 0.911732
Si Si3 0.829833 0.448808 0.543174
Si Si4 0.500000 0.750000 0.346263
Si Si5 0.276074 0.663896 0.101364
O O1 0.844901 0.500000 0.750000
O O2 0.750000 0.750000 0.750000
O O3 0.750400 0.612689 0.660807
O O4 0.906442 0.735553 0.689869
O O5 0.058968 0.918391 0.959872
O O6 0.000000 0.750000 0.883712
O O7 0.870012 0.917035 0.923222
O O8 0.997313 0.084911 0.879394
O O9 0.750000 0.410435 0.500000
O O10 0.810619 0.624747 0.562113
O O11 0.799126 0.345841 0.595252
#
# Coordination Sequence:
#
# PCOD9532820 Si02
#       5
#    16  16  16   8  16
#     4  12  27  46  73 111 150 203 258 324 391 465
#     4  10  24  43  76 105 150 202 246 313 392 457
#     4  11  23  43  72 106 143 195 250 314 388 460
#     4  12  24  48  76 112 150 200 258 320 392 462
#     4  11  23  46  69 103 152 190 247 318 382 459
#
# _framework density 23.972314999999998
#
# number of rings (size 3 to 8) (size 9 to 14) (size 15 to 20)
#    0.000    0.889    2.222    4.667    3.111    3.556 
#    0.000    2.222    0.000    0.000    0.000    0.000 
#    0.000    0.000    0.000    0.000    0.000    0.000 
#
# Total GULP energy -200723.942993 kJ/mol
# GULP energy per Si atom -5575.665083 kJ/mol
# Density = 2.391775 g / cm^3
# Si number density = 23.972315 Si / 1000 Ang^3
#
#
#
# Elastic Constant Matrix: (Units=GPa)
#
#
# Indices 1 2 3 4 5 6 
#
# 1 195.3203 31.6675 58.9168 0.0000 0.0000 0.0000
# 2 31.6675 138.3588 33.6175 0.0000 0.0000 0.0000
# 3 58.9168 33.6175 91.6433 0.0000 0.0000 0.0000
# 4 0.0000 0.0000 0.0000 35.9035 0.0000 0.0000
# 5 0.0000 0.0000 0.0000 0.0000 51.3028 0.0000
# 6 0.0000 0.0000 0.0000 0.0000 0.0000 40.3051
#
#
#
# Elastic Compliance Matrix: (Units=1/GPa)
#
#
# Indices 1 2 3 4 5 6 
#
# 1 0.006384 -0.000509 -0.003917 0.000000 0.000000 0.000000
# 2 -0.000509 0.007975 -0.002598 0.000000 0.000000 0.000000
# 3 -0.003917 -0.002598 0.014383 0.000000 0.000000 0.000000
# 4 0.000000 0.000000 0.000000 0.027852 0.000000 0.000000
# 5 0.000000 0.000000 0.000000 0.000000 0.019492 0.000000
# 6 0.000000 0.000000 0.000000 0.000000 0.000000 0.024811
#
#
# Mechanical properties :
#
#
# Convention : Reuss Voigt Hill
#
# Bulk Modulus (GPa) = 68.05935 74.85843 71.45889
# Shear Modulus (GPa) = 41.72030 45.57698 43.64864
#
# Velocity S-wave (km/s) = 4.17628 4.36504 4.27171
# Velocity P-wave (km/s) = 7.19079 7.52992 7.36231
#
# Compressibility (1/GPa) = 0.01469306
#
# Stress axis : x y z
#
# Youngs Moduli (GPa) = 156.64083 125.38472 69.52449
#
# Poissons Ratio (x) = 0.06386 0.27236
# Poissons Ratio (y) = 0.07979 0.18064
# Poissons Ratio (z) = 0.61363 0.32577
#
# Static dielectric constant tensor:
#      x y z
#    x 1.991500 0.000000 0.000000 
#    y 0.000000 1.813780 0.000000 
#    z 0.000000 0.000000 2.021900 
# 
# From -- ./inp_files/15520.got.cif
#   From: 2010.05.17/outbox.cif.g08.bks.cpg/sg73_8_cif.got.tgz:15520.got - 2010.06.03 17:35:07.
