data_PCOD9532131
_publ_section_title
;
Structure prediction by ZEFSAII (Michael W. Deem and Ramdas Pophale) SiO2 
 PCOD9532131
Probable space group: I B C A 
;
_chemical_formula_sum "Si O2"
_cell_formula_units_Z 112
_cell_length_a 21.349707
_cell_length_b 20.124781
_cell_length_c 12.528512
_cell_angle_alpha 90.000000
_cell_angle_beta 90.000000
_cell_angle_gamma 90.000000
_cell_volume 5382.977636
_symmetry_space_group_name_H-M "I B C A "
_symmetry_group_IT_number 73
_symmetry_cell_setting 'orthorhombic'
loop_
_space_group_symop_operation_xyz
x,y,z
-x,1/2-y,z
x,-y,1/2-z
1/2-x,y,-z
-x,-y,-z
x,1/2+y,-z
-x,y,1/2+z
1/2+x,-y,z
1/2+x,1/2+y,1/2+z
1/2-x,-y,1/2+z
1/2+x,1/2-y,-z
-x,1/2+y,1/2-z
1/2-x,1/2-y,1/2-z
1/2+x,y,1/2-z
1/2-x,1/2+y,z
x,1/2-y,1/2+z
loop_
_atom_site_type_symbol
_atom_site_label
_atom_site_fract_x
_atom_site_fract_y
_atom_site_fract_z
Si Si1 0.457770 0.334735 0.678785
Si Si2 0.196959 0.601618 0.709230
Si Si3 0.461104 0.432652 0.507765
Si Si4 0.667760 0.527612 0.581708
Si Si5 0.399258 0.203947 0.625190
Si Si6 0.073730 0.359814 0.088341
Si Si7 0.821193 0.460691 0.639413
O O1 0.447152 0.407195 0.627344
O O2 0.412001 0.282523 0.620583
O O3 0.532319 0.320952 0.667979
O O4 0.437445 0.325696 0.799945
O O5 0.161157 0.542732 0.644134
O O6 0.200818 0.576325 0.832149
O O7 0.157174 0.668820 0.690680
O O8 0.266072 0.594103 0.656758
O O9 0.500000 0.500000 0.500000
O O10 0.399271 0.440589 0.439914
O O11 0.505970 0.377300 0.457916
O O12 0.691221 0.508319 0.462328
O O13 0.391485 0.179718 0.503978
O O14 0.114088 0.425137 0.112442
O O15 0.823773 0.500000 0.750000
#
# Coordination Sequence:
#
# PCOD9532131 Si02
#       7
#    16  16  16  16  16  16  16
#     4  10  23  40  61  93 121 166 212 262 330 391
#     4  11  23  38  62  90 121 172 218 264 322 404
#     4  11  21  38  61  99 133 157 208 270 343 404
#     4  11  21  38  61  92 130 164 211 274 338 398
#     4  10  22  42  63  86 124 171 221 257 322 398
#     4  11  23  38  64  91 130 167 208 277 327 393
#     4  12  23  39  61  94 131 169 216 272 344 402
#
# _framework density 20.806329000000002
#
# number of rings (size 3 to 8) (size 9 to 14) (size 15 to 20)
#    0.000    1.143    4.286    3.000    0.000    6.857 
#    0.000    0.714    0.000    1.714    0.000    0.000 
#    0.000    0.000    0.000    0.000    0.000    0.000 
#
# Total GULP energy -312234.714122 kJ/mol
# GULP energy per Si atom -5575.619895 kJ/mol
# Density = 2.075897 g / cm^3
# Si number density = 20.806329 Si / 1000 Ang^3
#
#
#
# Elastic Constant Matrix: (Units=GPa)
#
#
# Indices 1 2 3 4 5 6 
#
# 1 78.5135 -0.7851 20.5547 0.0000 0.0000 0.0000
# 2 -0.7851 49.3336 23.4753 0.0000 0.0000 0.0000
# 3 20.5547 23.4753 132.9795 0.0000 0.0000 0.0000
# 4 0.0000 0.0000 0.0000 18.8046 0.0000 0.0000
# 5 0.0000 0.0000 0.0000 0.0000 31.0705 0.0000
# 6 0.0000 0.0000 0.0000 0.0000 0.0000 32.3163
#
#
#
# Elastic Compliance Matrix: (Units=1/GPa)
#
#
# Indices 1 2 3 4 5 6 
#
# 1 0.013350 0.001304 -0.002294 0.000000 0.000000 0.000000
# 2 0.001304 0.022256 -0.004131 0.000000 0.000000 0.000000
# 3 -0.002294 -0.004131 0.008604 0.000000 0.000000 0.000000
# 4 0.000000 0.000000 0.000000 0.053179 0.000000 0.000000
# 5 0.000000 0.000000 0.000000 0.000000 0.032185 0.000000
# 6 0.000000 0.000000 0.000000 0.000000 0.000000 0.030944
#
#
# Mechanical properties :
#
#
# Convention : Reuss Voigt Hill
#
# Bulk Modulus (GPa) = 29.43812 38.59071 34.01441
# Shear Modulus (GPa) = 27.46022 30.94374 29.20198
#
# Velocity S-wave (km/s) = 3.63685 3.86064 3.75041
# Velocity P-wave (km/s) = 5.64047 6.20166 5.92771
#
# Compressibility (1/GPa) = 0.03396956
#
# Stress axis : x y z
#
# Youngs Moduli (GPa) = 74.90532 44.93091 116.22940
#
# Poissons Ratio (x) = -0.05859 0.26660
# Poissons Ratio (y) = -0.09767 0.48009
# Poissons Ratio (z) = 0.17181 0.18559
#
# Static dielectric constant tensor:
#      x y z
#    x 1.802200 0.000000 0.000000 
#    y 0.000000 1.792010 0.000000 
#    z 0.000000 0.000000 1.775420 
# 
# From -- ./inp_files/13790.got.cif
#   From: 2010.05.17/outbox.cif.g08.bks.cpg/sg73_7_cif.got.tgz:13790.got - 2010.06.03 17:35:07.
