data_PCOD9532764
_publ_section_title
;
Structure prediction by ZEFSAII (Michael W. Deem and Ramdas Pophale) SiO2 
 PCOD9532764
Probable space group: I B C A 
;
_chemical_formula_sum "Si O2"
_cell_formula_units_Z 88
_cell_length_a 22.786784
_cell_length_b 5.355389
_cell_length_c 28.925634
_cell_angle_alpha 90.000000
_cell_angle_beta 90.000000
_cell_angle_gamma 90.000000
_cell_volume 3529.855640
_symmetry_space_group_name_H-M "I B C A "
_symmetry_group_IT_number 73
_symmetry_cell_setting 'orthorhombic'
loop_
_space_group_symop_operation_xyz
x,y,z
-x,1/2-y,z
x,-y,1/2-z
1/2-x,y,-z
-x,-y,-z
x,1/2+y,-z
-x,y,1/2+z
1/2+x,-y,z
1/2+x,1/2+y,1/2+z
1/2-x,-y,1/2+z
1/2+x,1/2-y,-z
-x,1/2+y,1/2-z
1/2-x,1/2-y,1/2-z
1/2+x,y,1/2-z
1/2-x,1/2+y,z
x,1/2-y,1/2+z
loop_
_atom_site_type_symbol
_atom_site_label
_atom_site_fract_x
_atom_site_fract_y
_atom_site_fract_z
Si Si1 0.681741 0.788233 0.517173
Si Si2 0.381770 0.000000 0.250000
Si Si3 0.054903 0.392543 0.164348
Si Si4 0.782677 0.820148 0.649040
Si Si5 0.686518 0.500000 0.750000
Si Si6 0.000000 0.750000 0.589216
Si Si7 0.615273 0.490802 0.902786
O O1 0.750000 0.818014 0.500000
O O2 0.658713 0.571787 0.482381
O O3 0.659826 0.656667 0.563749
O O4 0.417425 0.938360 0.296018
O O5 0.348862 0.253059 0.265506
O O6 0.029643 0.549745 0.122400
O O7 0.095023 0.191237 0.138502
O O8 0.000000 0.250000 0.187195
O O9 0.749030 0.069126 0.634128
O O10 0.783937 0.874966 0.704523
O O11 0.845625 0.809431 0.624749
O O12 0.057693 0.600282 0.570279
#
# Coordination Sequence:
#
# PCOD9532764 Si02
#       7
#    16   8  16  16   8   8  16
#     4  10  25  46  75 112 147 180 235 311 374 454
#     4  12  24  40  70  98 144 190 263 311 364 422
#     4  10  24  42  68 104 140 203 250 313 366 437
#     4  12  27  42  71 100 141 200 247 309 370 444
#     4  12  24  46  60  96 144 196 249 311 364 444
#     4  10  24  46  74 104 150 202 244 308 370 454
#     4  11  25  47  76 106 152 191 254 303 393 449
#
# _framework density 24.930195999999999
#
# number of rings (size 3 to 8) (size 9 to 14) (size 15 to 20)
#    0.000    1.091    1.818    2.727   14.000    0.000 
#    0.000    0.909    0.000    0.000    0.000    0.000 
#    0.000    0.000    0.000    0.000    0.000    0.000 
#
# Total GULP energy -245333.071144 kJ/mol
# GULP energy per Si atom -5575.751617 kJ/mol
# Density = 2.487345 g / cm^3
# Si number density = 24.930196 Si / 1000 Ang^3
#
#
#
# Elastic Constant Matrix: (Units=GPa)
#
#
# Indices 1 2 3 4 5 6 
#
# 1 94.8421 14.4362 41.3277 0.0000 0.0000 0.0000
# 2 14.4362 102.6667 -15.9695 0.0000 0.0000 0.0000
# 3 41.3277 -15.9695 56.1745 0.0000 0.0000 0.0000
# 4 0.0000 0.0000 0.0000 13.5944 0.0000 0.0000
# 5 0.0000 0.0000 0.0000 0.0000 -749.5956 0.0000
# 6 0.0000 0.0000 0.0000 0.0000 0.0000 22.3702
#
#
#
# Elastic Compliance Matrix: (Units=1/GPa)
#
#
# Indices 1 2 3 4 5 6 
#
# 1 0.017407 -0.004645 -0.014127 0.000000 0.000000 0.000000
# 2 -0.004645 0.011430 0.006667 0.000000 0.000000 0.000000
# 3 -0.014127 0.006667 0.030090 0.000000 0.000000 0.000000
# 4 0.000000 0.000000 0.000000 0.073560 0.000000 0.000000
# 5 0.000000 0.000000 0.000000 0.000000 -0.001334 0.000000
# 6 0.000000 0.000000 0.000000 0.000000 0.000000 0.044702
#
#
# Mechanical properties :
#
#
# Convention : Reuss Voigt Hill
#
# Bulk Modulus (GPa) = 28.80397 37.03021 32.91709
# Shear Modulus (GPa) = 23.62540 -128.46694 -52.42077
#
# Velocity S-wave (km/s) = 3.08175 -7.18627 -4.59050
# Velocity P-wave (km/s) = 4.92360 7.34649 3.85545
#
# Compressibility (1/GPa) = 0.03471744
#
# Stress axis : x y z
#
# Youngs Moduli (GPa) = 57.44973 87.48610 33.23381
#
# Poissons Ratio (x) = 0.40636 0.46948
# Poissons Ratio (y) = 0.26685 -0.22156
# Poissons Ratio (z) = 0.81156 -0.58325
#
# Static dielectric constant tensor:
#      x y z
#    x 9.056020 0.000000 0.000000 
#    y 0.000000 1.832670 0.000000 
#    z 0.000000 0.000000 2.053380 
# 
# From -- ./inp_files/2309.got.cif
#   From: 2010.05.17/outbox.cif.g08.bks.cpg/sg73_2_cif.got.tgz:2309.got - 2010.06.03 17:35:07.
