data_PCOD9532234
_publ_section_title
;
Structure prediction by ZEFSAII (Michael W. Deem and Ramdas Pophale) SiO2 
 PCOD9532234
Probable space group: I B C A 
;
_chemical_formula_sum "Si O2"
_cell_formula_units_Z 88
_cell_length_a 10.558192
_cell_length_b 31.431920
_cell_length_c 11.838734
_cell_angle_alpha 90.000000
_cell_angle_beta 90.000000
_cell_angle_gamma 90.000000
_cell_volume 3928.852536
_symmetry_space_group_name_H-M "I B C A "
_symmetry_group_IT_number 73
_symmetry_cell_setting 'orthorhombic'
loop_
_space_group_symop_operation_xyz
x,y,z
-x,1/2-y,z
x,-y,1/2-z
1/2-x,y,-z
-x,-y,-z
x,1/2+y,-z
-x,y,1/2+z
1/2+x,-y,z
1/2+x,1/2+y,1/2+z
1/2-x,-y,1/2+z
1/2+x,1/2-y,-z
-x,1/2+y,1/2-z
1/2-x,1/2-y,1/2-z
1/2+x,y,1/2-z
1/2-x,1/2+y,z
x,1/2-y,1/2+z
loop_
_atom_site_type_symbol
_atom_site_label
_atom_site_fract_x
_atom_site_fract_y
_atom_site_fract_z
Si Si1 0.385480 0.217252 0.341560
Si Si2 0.632935 0.126530 0.231460
Si Si3 0.250000 0.155077 0.500000
Si Si4 0.876500 0.073343 0.253480
Si Si5 0.751780 0.698788 0.631698
Si Si6 0.124739 0.995926 0.927294
O O1 0.500000 0.250000 0.354661
O O2 0.359206 0.181860 0.434874
O O3 0.271281 0.250633 0.364626
O O4 0.372291 0.196325 0.216799
O O5 0.747177 0.097884 0.280553
O O6 0.498832 0.103535 0.241655
O O7 0.647231 0.170865 0.300468
O O8 0.675521 0.132266 0.101355
O O9 0.886078 0.034120 0.338579
O O10 0.869264 0.049923 0.132859
O O11 0.750000 0.685859 0.500000
O O12 0.250000 0.001580 0.000000
O O13 0.000000 0.000000 0.000000
#
# Coordination Sequence:
#
# PCOD9532234 Si02
#       6
#    16  16   8  16  16  16
#     4  10  22  43  67  93 129 180 242 294 346 430
#     4  11  26  44  68 105 149 186 238 301 363 428
#     4  10  24  46  68 102 142 196 238 300 370 416
#     4  11  26  46  68 108 144 180 243 287 358 440
#     4  10  23  42  62  97 132 179 236 292 359 413
#     4  11  24  45  76 103 138 192 231 288 354 428
#
# _framework density 22.398399000000001
#
# number of rings (size 3 to 8) (size 9 to 14) (size 15 to 20)
#    0.000    1.455    0.909    2.182    8.909    7.273 
#    0.000    0.000    0.000    0.000    0.000    0.000 
#    0.000    0.000    0.000    0.000    0.000    0.000 
#
# Total GULP energy -245711.203831 kJ/mol
# GULP energy per Si atom -5584.345542 kJ/mol
# Density = 2.234742 g / cm^3
# Si number density = 22.398399 Si / 1000 Ang^3
#
#
#
# Elastic Constant Matrix: (Units=GPa)
#
#
# Indices 1 2 3 4 5 6 
#
# 1 111.0755 20.3536 24.1630 0.0001 0.0001 0.0001
# 2 20.3536 88.0599 19.9641 0.0000 0.0000 0.0001
# 3 24.1630 19.9641 127.0969 -0.0008 -0.0001 0.0000
# 4 0.0001 0.0000 -0.0008 32.8456 -0.0001 -0.0001
# 5 0.0001 0.0000 -0.0001 -0.0001 16.4289 0.0000
# 6 0.0001 0.0001 0.0000 -0.0001 0.0000 49.4342
#
#
#
# Elastic Compliance Matrix: (Units=1/GPa)
#
#
# Indices 1 2 3 4 5 6 
#
# 1 0.009685 -0.001888 -0.001545 0.000000 0.000000 0.000000
# 2 -0.001888 0.012143 -0.001548 0.000000 0.000000 0.000000
# 3 -0.001545 -0.001548 0.008405 0.000000 0.000000 0.000000
# 4 0.000000 0.000000 0.000000 0.030445 0.000000 0.000000
# 5 0.000000 0.000000 0.000000 0.000000 0.060868 0.000000
# 6 0.000000 0.000000 0.000000 0.000000 0.000000 0.020229
#
#
# Mechanical properties :
#
#
# Convention : Reuss Voigt Hill
#
# Bulk Modulus (GPa) = 49.33303 50.57707 49.95505
# Shear Modulus (GPa) = 31.54663 37.19186 34.36925
#
# Velocity S-wave (km/s) = 3.75698 4.07931 3.92146
# Velocity P-wave (km/s) = 6.39476 6.69458 6.54638
#
# Compressibility (1/GPa) = 0.02027039
#
# Stress axis : x y z
#
# Youngs Moduli (GPa) = 103.25338 82.34923 118.97822
#
# Poissons Ratio (x) = 0.15550 0.18378
# Poissons Ratio (y) = 0.19498 0.18423
# Poissons Ratio (z) = 0.15949 0.12751
#
# Static dielectric constant tensor:
#      x y z
#    x 1.873600 0.000000 0.000000 
#    y 0.000000 1.870040 0.000000 
#    z 0.000000 0.000000 1.856410 
# 
# From -- ./inp_files/9907.got.cif
#   From: 2010.05.17/outbox.cif.g08.bks.cpg/sg73_5_cif.got.tgz:9907.got - 2010.06.03 17:35:07.
