data_PCOD9532227
_publ_section_title
;
Structure prediction by ZEFSAII (Michael W. Deem and Ramdas Pophale) SiO2 
 PCOD9532227
Probable space group: I B C A 
;
_chemical_formula_sum "Si O2"
_cell_formula_units_Z 96
_cell_length_a 17.134932
_cell_length_b 20.775402
_cell_length_c 11.096997
_cell_angle_alpha 90.000000
_cell_angle_beta 90.000000
_cell_angle_gamma 90.000000
_cell_volume 3950.365593
_symmetry_space_group_name_H-M "I B C A "
_symmetry_group_IT_number 73
_symmetry_cell_setting 'orthorhombic'
loop_
_space_group_symop_operation_xyz
x,y,z
-x,1/2-y,z
x,-y,1/2-z
1/2-x,y,-z
-x,-y,-z
x,1/2+y,-z
-x,y,1/2+z
1/2+x,-y,z
1/2+x,1/2+y,1/2+z
1/2-x,-y,1/2+z
1/2+x,1/2-y,-z
-x,1/2+y,1/2-z
1/2-x,1/2-y,1/2-z
1/2+x,y,1/2-z
1/2-x,1/2+y,z
x,1/2-y,1/2+z
loop_
_atom_site_type_symbol
_atom_site_label
_atom_site_fract_x
_atom_site_fract_y
_atom_site_fract_z
Si Si1 0.587120 0.523077 0.483454
Si Si2 0.882767 0.330932 0.311893
Si Si3 0.105668 0.272843 0.126156
Si Si4 0.750000 0.319696 0.500000
Si Si5 0.325969 0.500000 0.750000
Si Si6 0.295358 0.417466 0.376091
Si Si7 0.980379 0.339032 0.992315
O O1 0.500000 0.500000 0.500000
O O2 0.621431 0.489803 0.366340
O O3 0.652664 0.519732 0.586900
O O4 0.575531 0.600052 0.477954
O O5 0.894368 0.259213 0.256994
O O6 0.818282 0.346829 0.414065
O O7 0.852149 0.370143 0.196377
O O8 0.965141 0.344119 0.374762
O O9 0.195215 0.283767 0.095202
O O10 0.045752 0.332145 0.101368
O O11 0.073073 0.222266 0.025499
O O12 0.272064 0.440156 0.714448
O O13 0.250000 0.396819 0.500000
#
# Coordination Sequence:
#
# PCOD9532227 Si02
#       7
#    16  16  16   8   8  16  16
#     4  11  25  45  72 107 140 189 254 303 374 452
#     4  11  23  43  71 102 149 190 244 309 370 455
#     4  10  22  43  66 100 146 195 236 306 372 443
#     4  10  24  40  64 108 134 192 244 286 370 450
#     4  10  26  42  68 102 142 194 236 304 384 430
#     4  10  24  48  70 103 145 192 245 312 381 451
#     4  10  24  42  66 105 142 185 251 297 377 437
#
# _framework density 24.301548
#
# number of rings (size 3 to 8) (size 9 to 14) (size 15 to 20)
#    0.000    1.667    1.667    0.500    5.833    8.000 
#    1.500    6.667    0.000    0.000    0.000    0.000 
#    0.000    0.000    0.000    0.000    0.000    0.000 
#
# Total GULP energy -267521.533184 kJ/mol
# GULP energy per Si atom -5573.365275 kJ/mol
# Density = 2.424624 g / cm^3
# Si number density = 24.301548 Si / 1000 Ang^3
#
#
#
# Elastic Constant Matrix: (Units=GPa)
#
#
# Indices 1 2 3 4 5 6 
#
# 1 120.7933 3.9679 33.8400 0.0000 0.0000 0.0000
# 2 3.9679 30.7996 17.9440 0.0000 0.0000 0.0000
# 3 33.8400 17.9440 142.1007 0.0000 0.0000 0.0000
# 4 0.0000 0.0000 0.0000 13.7416 0.0000 0.0000
# 5 0.0000 0.0000 0.0000 0.0000 44.1415 0.0000
# 6 0.0000 0.0000 0.0000 0.0000 0.0000 29.5497
#
#
#
# Elastic Compliance Matrix: (Units=1/GPa)
#
#
# Indices 1 2 3 4 5 6 
#
# 1 0.008871 0.000095 -0.002124 0.000000 0.000000 0.000000
# 2 0.000095 0.035047 -0.004448 0.000000 0.000000 0.000000
# 3 -0.002124 -0.004448 0.008105 0.000000 0.000000 0.000000
# 4 0.000000 0.000000 0.000000 0.072772 0.000000 0.000000
# 5 0.000000 0.000000 0.000000 0.000000 0.022654 0.000000
# 6 0.000000 0.000000 0.000000 0.000000 0.000000 0.033841
#
#
# Mechanical properties :
#
#
# Convention : Reuss Voigt Hill
#
# Bulk Modulus (GPa) = 25.59686 45.02190 35.30938
# Shear Modulus (GPa) = 24.12335 33.34936 28.73635
#
# Velocity S-wave (km/s) = 3.15408 3.70849 3.44247
# Velocity P-wave (km/s) = 4.88059 6.07485 5.51017
#
# Compressibility (1/GPa) = 0.03906730
#
# Stress axis : x y z
#
# Youngs Moduli (GPa) = 112.73133 28.53286 123.38231
#
# Poissons Ratio (x) = -0.00271 0.26212
# Poissons Ratio (y) = -0.01070 0.54884
# Poissons Ratio (z) = 0.23949 0.12692
#
# Static dielectric constant tensor:
#      x y z
#    x 4.858330 0.000000 0.000000 
#    y 0.000000 2.018080 0.000000 
#    z 0.000000 0.000000 1.947450 
# 
# From -- ./inp_files/12073.got.cif
#   From: 2010.05.17/outbox.cif.g08.bks.cpg/sg73_7_cif.got.tgz:12073.got - 2010.06.03 17:35:07.
