data_PCOD9532481
_publ_section_title
;
Structure prediction by ZEFSAII (Michael W. Deem and Ramdas Pophale) SiO2 
 PCOD9532481
Probable space group: I B C A 
;
_chemical_formula_sum "Si O2"
_cell_formula_units_Z 112
_cell_length_a 28.186968
_cell_length_b 14.083825
_cell_length_c 14.108173
_cell_angle_alpha 90.000000
_cell_angle_beta 90.000000
_cell_angle_gamma 90.000000
_cell_volume 5600.667097
_symmetry_space_group_name_H-M "I B C A "
_symmetry_group_IT_number 73
_symmetry_cell_setting 'orthorhombic'
loop_
_space_group_symop_operation_xyz
x,y,z
-x,1/2-y,z
x,-y,1/2-z
1/2-x,y,-z
-x,-y,-z
x,1/2+y,-z
-x,y,1/2+z
1/2+x,-y,z
1/2+x,1/2+y,1/2+z
1/2-x,-y,1/2+z
1/2+x,1/2-y,-z
-x,1/2+y,1/2-z
1/2-x,1/2-y,1/2-z
1/2+x,y,1/2-z
1/2-x,1/2+y,z
x,1/2-y,1/2+z
loop_
_atom_site_type_symbol
_atom_site_label
_atom_site_fract_x
_atom_site_fract_y
_atom_site_fract_z
Si Si1 0.483215 0.644662 0.757696
Si Si2 0.203829 0.214070 0.823198
Si Si3 0.021404 0.001519 0.104578
Si Si4 0.116626 0.419527 0.329770
Si Si5 0.694989 0.209050 0.385126
Si Si6 0.124893 0.458232 0.545969
Si Si7 0.299065 0.623578 0.461877
O O1 0.500000 0.750000 0.737980
O O2 0.492789 0.577488 0.667844
O O3 0.513122 0.598704 0.843661
O O4 0.428595 0.635895 0.788449
O O5 0.160443 0.148996 0.850806
O O6 0.251652 0.167556 0.867968
O O7 0.193554 0.230622 0.712200
O O8 0.206130 0.321079 0.863280
O O9 0.076752 0.027973 0.104783
O O10 0.000000 0.000000 0.000000
O O11 0.127799 0.500000 0.250000
O O12 0.106753 0.454330 0.436505
O O13 0.655877 0.129863 0.411573
O O14 0.692202 0.288205 0.466911
O O15 0.159682 0.548253 0.546290
O O16 0.250000 0.579154 0.500000
#
# Coordination Sequence:
#
# PCOD9532481 Si02
#       7
#    16  16  16  16  16  16  16
#     4  11  26  45  70  94 135 176 221 290 350 401
#     4  10  23  42  67  94 144 175 222 281 327 409
#     4  11  24  48  64 101 135 168 233 289 334 418
#     4  12  23  44  70  99 128 180 229 276 346 412
#     4  10  23  44  62 103 138 177 227 278 331 402
#     4  12  25  40  74  97 135 183 224 279 345 412
#     4  10  23  41  65  99 138 176 222 275 331 400
#
# _framework density 19.997617999999999
#
# number of rings (size 3 to 8) (size 9 to 14) (size 15 to 20)
#    0.000    1.143    4.286    0.857    6.000    2.286 
#    0.000    0.000    0.000    0.000    0.000    0.000 
#    0.000    0.000    0.000    0.000    0.000    0.000 
#
# Total GULP energy -312205.642749 kJ/mol
# GULP energy per Si atom -5575.100763 kJ/mol
# Density = 1.995210 g / cm^3
# Si number density = 19.997618 Si / 1000 Ang^3
#
#
#
# Elastic Constant Matrix: (Units=GPa)
#
#
# Indices 1 2 3 4 5 6 
#
# 1 90.9653 8.0635 -26.2349 0.0000 0.0000 0.0000
# 2 8.0635 37.6738 -13.9774 0.0000 0.0000 0.0000
# 3 -26.2349 -13.9774 64.1364 0.0000 0.0000 0.0000
# 4 0.0000 0.0000 0.0000 12.2431 0.0000 0.0000
# 5 0.0000 0.0000 0.0000 0.0000 31.8559 0.0000
# 6 0.0000 0.0000 0.0000 0.0000 0.0000 15.4191
#
#
#
# Elastic Compliance Matrix: (Units=1/GPa)
#
#
# Indices 1 2 3 4 5 6 
#
# 1 0.012488 -0.000846 0.004924 0.000000 0.000000 0.000000
# 2 -0.000846 0.028936 0.005960 0.000000 0.000000 0.000000
# 3 0.004924 0.005960 0.018905 0.000000 0.000000 0.000000
# 4 0.000000 0.000000 0.000000 0.081679 0.000000 0.000000
# 5 0.000000 0.000000 0.000000 0.000000 0.031391 0.000000
# 6 0.000000 0.000000 0.000000 0.000000 0.000000 0.064855
#
#
# Mechanical properties :
#
#
# Convention : Reuss Voigt Hill
#
# Bulk Modulus (GPa) = 12.43710 14.27533 13.35621
# Shear Modulus (GPa) = 20.40986 26.89856 23.65421
#
# Velocity S-wave (km/s) = 3.19817 3.67152 3.44299
# Velocity P-wave (km/s) = 4.45764 5.01273 4.74331
#
# Compressibility (1/GPa) = 0.08040460
#
# Stress axis : x y z
#
# Youngs Moduli (GPa) = 80.07497 34.55904 52.89673
#
# Poissons Ratio (x) = 0.02924 -0.26046
# Poissons Ratio (y) = 0.06775 -0.31526
# Poissons Ratio (z) = -0.39428 -0.20597
#
# Static dielectric constant tensor:
#      x y z
#    x 1.746000 0.000000 0.000000 
#    y 0.000000 1.683690 0.000000 
#    z 0.000000 0.000000 1.753940 
# 
# From -- ./inp_files/19824.got.cif
#   From: 2010.05.17/outbox.cif.g08.bks.cpg/sg73_10_cif.got.tgz:19824.got - 2010.06.03 17:35:07.
