data_PCOD9532003
_publ_section_title
;
Structure prediction by ZEFSAII (Michael W. Deem and Ramdas Pophale) SiO2 
 PCOD9532003
Probable space group: I B C A 
;
_chemical_formula_sum "Si O2"
_cell_formula_units_Z 104
_cell_length_a 25.486762
_cell_length_b 9.687618
_cell_length_c 20.516410
_cell_angle_alpha 90.000000
_cell_angle_beta 90.000000
_cell_angle_gamma 90.000000
_cell_volume 5065.625021
_symmetry_space_group_name_H-M "I B C A "
_symmetry_group_IT_number 73
_symmetry_cell_setting 'orthorhombic'
loop_
_space_group_symop_operation_xyz
x,y,z
-x,1/2-y,z
x,-y,1/2-z
1/2-x,y,-z
-x,-y,-z
x,1/2+y,-z
-x,y,1/2+z
1/2+x,-y,z
1/2+x,1/2+y,1/2+z
1/2-x,-y,1/2+z
1/2+x,1/2-y,-z
-x,1/2+y,1/2-z
1/2-x,1/2-y,1/2-z
1/2+x,y,1/2-z
1/2-x,1/2+y,z
x,1/2-y,1/2+z
loop_
_atom_site_type_symbol
_atom_site_label
_atom_site_fract_x
_atom_site_fract_y
_atom_site_fract_z
Si Si1 0.141818 0.561375 0.964148
Si Si2 0.497613 0.416380 0.184971
Si Si3 0.676114 0.689223 0.103949
Si Si4 0.299880 0.342787 0.263522
Si Si5 0.117099 0.354498 0.850896
Si Si6 0.596028 0.452176 0.098450
Si Si7 0.250000 0.064397 0.500000
O O1 0.139988 0.720577 0.944323
O O2 0.140244 0.455940 0.904561
O O3 0.199996 0.532751 0.990630
O O4 0.099979 0.531630 0.020563
O O5 0.500000 0.250000 0.194356
O O6 0.510267 0.500000 0.250000
O O7 0.436897 0.431408 0.167256
O O8 0.538857 0.468722 0.130714
O O9 0.684833 0.791885 0.164439
O O10 0.641676 0.555865 0.124209
O O11 0.729427 0.650651 0.063686
O O12 0.283397 0.500000 0.250000
O O13 0.250000 0.250000 0.250000
O O14 0.347904 0.328324 0.212966
O O15 0.109560 0.205356 0.883376
#
# Coordination Sequence:
#
# PCOD9532003 Si02
#       7
#    16  16  16  16  16  16   8
#     4  11  22  42  66  96 137 179 227 282 342 417
#     4  10  24  43  69  97 131 178 225 285 355 411
#     4  11  24  40  68  97 136 183 232 282 340 414
#     4  12  27  43  67 101 141 185 229 280 343 410
#     4  11  24  45  67  93 143 174 221 288 343 410
#     4  10  24  41  68  99 127 176 231 281 342 411
#     4  10  22  40  64  96 134 184 230 274 346 398
#
# _framework density 20.530536000000001
#
# number of rings (size 3 to 8) (size 9 to 14) (size 15 to 20)
#    0.000    1.231    1.538    3.692    6.462    3.077 
#    0.000    1.538    0.000    0.000    0.000    0.000 
#    0.000    0.000    0.000    0.000    0.000    0.000 
#
# Total GULP energy -289973.252805 kJ/mol
# GULP energy per Si atom -5576.408708 kJ/mol
# Density = 2.048381 g / cm^3
# Si number density = 20.530536 Si / 1000 Ang^3
#
#
#
# Elastic Constant Matrix: (Units=GPa)
#
#
# Indices 1 2 3 4 5 6 
#
# 1 108.5098 22.1165 56.7038 0.0000 0.0000 0.0000
# 2 22.1165 70.7852 33.4953 0.0000 0.0000 0.0000
# 3 56.7038 33.4953 110.8735 0.0000 0.0000 0.0000
# 4 0.0000 0.0000 0.0000 62.8183 0.0000 0.0000
# 5 0.0000 0.0000 0.0000 0.0000 22.8657 0.0000
# 6 0.0000 0.0000 0.0000 0.0000 0.0000 7.7265
#
#
#
# Elastic Compliance Matrix: (Units=1/GPa)
#
#
# Indices 1 2 3 4 5 6 
#
# 1 0.012642 -0.001039 -0.006152 0.000000 0.000000 0.000000
# 2 -0.001039 0.016569 -0.004474 0.000000 0.000000 0.000000
# 3 -0.006152 -0.004474 0.013517 0.000000 0.000000 0.000000
# 4 0.000000 0.000000 0.000000 0.015919 0.000000 0.000000
# 5 0.000000 0.000000 0.000000 0.000000 0.043734 0.000000
# 6 0.000000 0.000000 0.000000 0.000000 0.000000 0.129424
#
#
# Mechanical properties :
#
#
# Convention : Reuss Voigt Hill
#
# Bulk Modulus (GPa) = 51.55025 57.19998 54.37512
# Shear Modulus (GPa) = 19.11306 30.53896 24.82601
#
# Velocity S-wave (km/s) = 3.05447 3.86098 3.48116
# Velocity P-wave (km/s) = 6.13215 6.91359 6.53456
#
# Compressibility (1/GPa) = 0.01939855
#
# Stress axis : x y z
#
# Youngs Moduli (GPa) = 79.10005 60.35351 73.98044
#
# Poissons Ratio (x) = 0.06271 0.45510
# Poissons Ratio (y) = 0.08219 0.33100
# Poissons Ratio (z) = 0.48660 0.27003
#
# Static dielectric constant tensor:
#      x y z
#    x 1.812490 0.000000 0.000000 
#    y 0.000000 1.742990 0.000000 
#    z 0.000000 0.000000 1.786620 
# 
# From -- ./inp_files/27603.got.cif
#   From: 2010.05.17/outbox.cif.g08.bks.cpg/sg73_14_cif.got.tgz:27603.got - 2010.06.03 17:35:07.
