data_PCOD9532065
_publ_section_title
;
Structure prediction by ZEFSAII (Michael W. Deem and Ramdas Pophale) SiO2 
 PCOD9532065
Probable space group: I B C A 
;
_chemical_formula_sum "Si O2"
_cell_formula_units_Z 64
_cell_length_a 12.781897
_cell_length_b 9.093697
_cell_length_c 23.847067
_cell_angle_alpha 90.000000
_cell_angle_beta 90.000000
_cell_angle_gamma 90.000000
_cell_volume 2771.856641
_symmetry_space_group_name_H-M "I B C A "
_symmetry_group_IT_number 73
_symmetry_cell_setting 'orthorhombic'
loop_
_space_group_symop_operation_xyz
x,y,z
-x,1/2-y,z
x,-y,1/2-z
1/2-x,y,-z
-x,-y,-z
x,1/2+y,-z
-x,y,1/2+z
1/2+x,-y,z
1/2+x,1/2+y,1/2+z
1/2-x,-y,1/2+z
1/2+x,1/2-y,-z
-x,1/2+y,1/2-z
1/2-x,1/2-y,1/2-z
1/2+x,y,1/2-z
1/2-x,1/2+y,z
x,1/2-y,1/2+z
loop_
_atom_site_type_symbol
_atom_site_label
_atom_site_fract_x
_atom_site_fract_y
_atom_site_fract_z
Si Si1 0.058203 0.931752 0.065883
Si Si2 0.879440 0.720679 0.296303
Si Si3 0.175359 0.617703 0.678079
Si Si4 0.629633 0.829806 0.997483
O O1 0.109979 0.868454 0.121251
O O2 0.082807 0.101318 0.054219
O O3 0.112561 0.841546 0.014630
O O4 0.937016 0.899741 0.053948
O O5 0.840282 0.555464 0.309541
O O6 0.869881 0.719227 0.228237
O O7 0.797168 0.834795 0.323288
O O8 0.000000 0.750000 0.311601
O O9 0.750000 0.863675 0.000000
#
# Coordination Sequence:
#
# PCOD9532065 Si02
#       4
#    16  16  16  16
#     4  10  23  42  66  96 135 184 228 294 358 419
#     4  10  24  46  72 107 146 185 247 308 364 456
#     4  10  24  45  70 106 141 190 244 303 372 441
#     4  10  22  41  62  96 133 178 234 290 342 433
#
# _framework density 23.089216
#
# number of rings (size 3 to 8) (size 9 to 14) (size 15 to 20)
#    0.000    2.000    0.000    0.750    7.000   10.000 
#    9.000    0.000    0.000    0.000    0.000    0.000 
#    0.000    0.000    0.000    0.000    0.000    0.000 
#
# Total GULP energy -178460.450887 kJ/mol
# GULP energy per Si atom -5576.889090 kJ/mol
# Density = 2.303666 g / cm^3
# Si number density = 23.089216 Si / 1000 Ang^3
#
#
#
# Elastic Constant Matrix: (Units=GPa)
#
#
# Indices 1 2 3 4 5 6 
#
# 1 233.9520 57.1993 61.4393 0.0000 0.0000 0.0000
# 2 57.1993 89.4980 33.4090 0.0000 0.0000 0.0000
# 3 61.4393 33.4090 111.9690 0.0000 0.0000 0.0000
# 4 0.0000 0.0000 0.0000 35.0580 0.0000 0.0000
# 5 0.0000 0.0000 0.0000 0.0000 38.6565 0.0000
# 6 0.0000 0.0000 0.0000 0.0000 0.0000 21.1282
#
#
#
# Elastic Compliance Matrix: (Units=1/GPa)
#
#
# Indices 1 2 3 4 5 6 
#
# 1 0.005517 -0.002696 -0.002223 0.000000 0.000000 0.000000
# 2 -0.002696 0.013892 -0.002665 0.000000 0.000000 0.000000
# 3 -0.002223 -0.002665 0.010946 0.000000 0.000000 0.000000
# 4 0.000000 0.000000 0.000000 0.028524 0.000000 0.000000
# 5 0.000000 0.000000 0.000000 0.000000 0.025869 0.000000
# 6 0.000000 0.000000 0.000000 0.000000 0.000000 0.047330
#
#
# Mechanical properties :
#
#
# Convention : Reuss Voigt Hill
#
# Bulk Modulus (GPa) = 65.85144 82.16825 74.00985
# Shear Modulus (GPa) = 32.82782 37.85996 35.34389
#
# Velocity S-wave (km/s) = 3.77474 4.05374 3.91673
# Velocity P-wave (km/s) = 6.89787 7.58782 7.25105
#
# Compressibility (1/GPa) = 0.01518570
#
# Stress axis : x y z
#
# Youngs Moduli (GPa) = 181.24419 71.98522 91.35674
#
# Poissons Ratio (x) = 0.19410 0.20308
# Poissons Ratio (y) = 0.48871 0.24350
# Poissons Ratio (z) = 0.40290 0.19187
#
# Static dielectric constant tensor:
#      x y z
#    x 1.858740 0.000000 0.000000 
#    y 0.000000 1.910500 0.000000 
#    z 0.000000 0.000000 1.944160 
# 
# From -- ./inp_files/31591.got.cif
#   From: 2010.05.17/outbox.cif.g08.bks.cpg/sg73_16_cif.got.tgz:31591.got - 2010.06.03 17:35:07.
