data_PCOD9532191
_publ_section_title
;
Structure prediction by ZEFSAII (Michael W. Deem and Ramdas Pophale) SiO2 
 PCOD9532191
Probable space group: I B C A 
;
_chemical_formula_sum "Si O2"
_cell_formula_units_Z 72
_cell_length_a 12.945552
_cell_length_b 13.753362
_cell_length_c 15.938583
_cell_angle_alpha 90.000000
_cell_angle_beta 90.000000
_cell_angle_gamma 90.000000
_cell_volume 2837.782826
_symmetry_space_group_name_H-M "I B C A "
_symmetry_group_IT_number 73
_symmetry_cell_setting 'orthorhombic'
loop_
_space_group_symop_operation_xyz
x,y,z
-x,1/2-y,z
x,-y,1/2-z
1/2-x,y,-z
-x,-y,-z
x,1/2+y,-z
-x,y,1/2+z
1/2+x,-y,z
1/2+x,1/2+y,1/2+z
1/2-x,-y,1/2+z
1/2+x,1/2-y,-z
-x,1/2+y,1/2-z
1/2-x,1/2-y,1/2-z
1/2+x,y,1/2-z
1/2-x,1/2+y,z
x,1/2-y,1/2+z
loop_
_atom_site_type_symbol
_atom_site_label
_atom_site_fract_x
_atom_site_fract_y
_atom_site_fract_z
Si Si1 0.000000 0.750000 0.937077
Si Si2 0.943605 0.091392 0.428933
Si Si3 0.336057 0.705426 0.188553
Si Si4 0.000000 0.250000 0.311146
Si Si5 0.750000 0.527782 0.000000
Si Si6 0.857976 0.998193 0.650298
O O1 0.101142 0.768608 0.879494
O O2 0.009982 0.655101 0.994944
O O3 0.849129 0.031593 0.465666
O O4 0.925648 0.179713 0.363687
O O5 0.025366 0.022223 0.380370
O O6 0.250000 0.750000 0.250000
O O7 0.428969 0.682732 0.254126
O O8 0.315052 0.607916 0.136170
O O9 0.706198 0.572713 0.912553
O O10 0.841215 0.000000 0.750000
#
# Coordination Sequence:
#
# PCOD9532191 Si02
#       6
#     8  16  16   8   8  16
#     4  10  24  44  78 104 150 204 254 334 388 479
#     4  11  24  47  71 106 149 199 254 325 397 474
#     4  11  23  45  74 107 147 200 257 313 394 471
#     4  10  22  42  70 104 142 192 244 322 386 465
#     4  12  26  44  74 104 146 200 260 314 394 476
#     4  12  26  48  71 112 154 200 262 328 396 475
#
# _framework density 25.371921
#
# number of rings (size 3 to 8) (size 9 to 14) (size 15 to 20)
#    0.000    0.889    4.444    2.000    0.000    2.667 
#    4.000    0.000    0.000    0.000    0.000    0.000 
#    0.000    0.000    0.000    0.000    0.000    0.000 
#
# Total GULP energy -200482.195455 kJ/mol
# GULP energy per Si atom -5568.949874 kJ/mol
# Density = 2.531417 g / cm^3
# Si number density = 25.371921 Si / 1000 Ang^3
#
#
#
# Elastic Constant Matrix: (Units=GPa)
#
#
# Indices 1 2 3 4 5 6 
#
# 1 92.4289 10.0848 55.1353 0.0000 0.0000 0.0000
# 2 10.0848 40.3151 1.9137 0.0000 0.0000 0.0000
# 3 55.1353 1.9137 169.0374 0.0000 0.0000 0.0000
# 4 0.0000 0.0000 0.0000 31.6627 0.0000 0.0000
# 5 0.0000 0.0000 0.0000 0.0000 50.6130 0.0000
# 6 0.0000 0.0000 0.0000 0.0000 0.0000 30.3865
#
#
#
# Elastic Compliance Matrix: (Units=1/GPa)
#
#
# Indices 1 2 3 4 5 6 
#
# 1 0.013846 -0.003251 -0.004479 0.000000 0.000000 0.000000
# 2 -0.003251 0.025581 0.000771 0.000000 0.000000 0.000000
# 3 -0.004479 0.000771 0.007368 0.000000 0.000000 0.000000
# 4 0.000000 0.000000 0.000000 0.031583 0.000000 0.000000
# 5 0.000000 0.000000 0.000000 0.000000 0.019758 0.000000
# 6 0.000000 0.000000 0.000000 0.000000 0.000000 0.032909
#
#
# Mechanical properties :
#
#
# Convention : Reuss Voigt Hill
#
# Bulk Modulus (GPa) = 30.41710 48.44988 39.43349
# Shear Modulus (GPa) = 32.06714 38.17562 35.12138
#
# Velocity S-wave (km/s) = 3.55897 3.88318 3.72460
# Velocity P-wave (km/s) = 5.37614 6.26440 5.83719
#
# Compressibility (1/GPa) = 0.03287624
#
# Stress axis : x y z
#
# Youngs Moduli (GPa) = 72.22399 39.09121 135.71923
#
# Poissons Ratio (x) = 0.12708 0.60793
# Poissons Ratio (y) = 0.23479 -0.10460
# Poissons Ratio (z) = 0.32351 -0.03013
#
# Static dielectric constant tensor:
#      x y z
#    x 2.017070 0.000000 0.000000 
#    y 0.000000 2.221150 0.000000 
#    z 0.000000 0.000000 2.141080 
# 
# From -- ./inp_files/21183.got.cif
#   From: 2010.05.17/outbox.cif.g08.bks.cpg/sg73_11_cif.got.tgz:21183.got - 2010.06.03 17:35:07.
