data_PCOD9532662
_publ_section_title
;
Structure prediction by ZEFSAII (Michael W. Deem and Ramdas Pophale) SiO2 
 PCOD9532662
Probable space group: I B C A 
;
_chemical_formula_sum "Si O2"
_cell_formula_units_Z 88
_cell_length_a 23.783884
_cell_length_b 11.086573
_cell_length_c 14.440007
_cell_angle_alpha 90.000000
_cell_angle_beta 90.000000
_cell_angle_gamma 90.000000
_cell_volume 3807.566550
_symmetry_space_group_name_H-M "I B C A "
_symmetry_group_IT_number 73
_symmetry_cell_setting 'orthorhombic'
loop_
_space_group_symop_operation_xyz
x,y,z
-x,1/2-y,z
x,-y,1/2-z
1/2-x,y,-z
-x,-y,-z
x,1/2+y,-z
-x,y,1/2+z
1/2+x,-y,z
1/2+x,1/2+y,1/2+z
1/2-x,-y,1/2+z
1/2+x,1/2-y,-z
-x,1/2+y,1/2-z
1/2-x,1/2-y,1/2-z
1/2+x,y,1/2-z
1/2-x,1/2+y,z
x,1/2-y,1/2+z
loop_
_atom_site_type_symbol
_atom_site_label
_atom_site_fract_x
_atom_site_fract_y
_atom_site_fract_z
Si Si1 0.750000 0.714742 0.000000
Si Si2 0.781781 0.365811 0.699419
Si Si3 0.639144 0.361646 0.039527
Si Si4 0.902256 0.257560 0.648155
Si Si5 0.563777 0.792784 0.337342
Si Si6 0.939890 0.560733 0.982088
O O1 0.739818 0.634727 0.092218
O O2 0.700230 0.805735 0.968891
O O3 0.776333 0.500000 0.750000
O O4 0.750000 0.250000 0.750000
O O5 0.846295 0.323275 0.686555
O O6 0.611542 0.316566 0.943674
O O7 0.605988 0.310704 0.127795
O O8 0.619859 0.498392 0.041635
O O9 0.924063 0.177293 0.732046
O O10 0.946918 0.352149 0.606537
O O11 0.500000 0.750000 0.345816
O O12 0.573067 0.887735 0.417065
O O13 0.000000 0.500000 0.000000
#
# Coordination Sequence:
#
# PCOD9532662 Si02
#       6
#     8  16  16  16  16  16
#     4  10  24  50  76 110 150 212 236 318 396 446
#     4  11  26  49  77 113 156 200 265 322 379 474
#     4  10  23  47  68 105 148 183 255 299 375 453
#     4  10  26  44  68 104 147 194 241 314 384 451
#     4  11  23  41  69 102 148 185 242 306 382 455
#     4  11  24  44  72 103 141 196 250 322 375 464
#
# _framework density 23.111872999999999
#
# number of rings (size 3 to 8) (size 9 to 14) (size 15 to 20)
#    0.000    1.455    1.818    1.091    7.636    1.455 
#   22.909    0.000    0.000    0.000    0.000    0.000 
#    0.000    0.000    0.000    0.000    0.000    0.000 
#
# Total GULP energy -245116.740618 kJ/mol
# GULP energy per Si atom -5570.835014 kJ/mol
# Density = 2.305927 g / cm^3
# Si number density = 23.111873 Si / 1000 Ang^3
#
#
#
# Elastic Constant Matrix: (Units=GPa)
#
#
# Indices 1 2 3 4 5 6 
#
# 1 67.2322 3.5128 18.0336 0.0000 0.0000 0.0000
# 2 3.5128 55.1574 28.7318 0.0000 0.0000 0.0000
# 3 18.0336 28.7318 166.9034 0.0000 0.0000 0.0000
# 4 0.0000 0.0000 0.0000 12.8773 0.0000 0.0000
# 5 0.0000 0.0000 0.0000 0.0000 11.7851 0.0000
# 6 0.0000 0.0000 0.0000 0.0000 0.0000 23.4923
#
#
#
# Elastic Compliance Matrix: (Units=1/GPa)
#
#
# Indices 1 2 3 4 5 6 
#
# 1 0.015319 -0.000125 -0.001634 0.000000 0.000000 0.000000
# 2 -0.000125 0.019917 -0.003415 0.000000 0.000000 0.000000
# 3 -0.001634 -0.003415 0.006756 0.000000 0.000000 0.000000
# 4 0.000000 0.000000 0.000000 0.077656 0.000000 0.000000
# 5 0.000000 0.000000 0.000000 0.000000 0.084853 0.000000
# 6 0.000000 0.000000 0.000000 0.000000 0.000000 0.042567
#
#
# Mechanical properties :
#
#
# Convention : Reuss Voigt Hill
#
# Bulk Modulus (GPa) = 31.60116 43.31661 37.45888
# Shear Modulus (GPa) = 18.65937 25.56528 22.11233
#
# Velocity S-wave (km/s) = 2.84447 3.32950 3.09650
# Velocity P-wave (km/s) = 4.94882 5.79341 5.38769
#
# Compressibility (1/GPa) = 0.03164441
#
# Stress axis : x y z
#
# Youngs Moduli (GPa) = 65.28042 50.20882 148.01852
#
# Poissons Ratio (x) = 0.00626 0.24182
# Poissons Ratio (y) = 0.00813 0.50550
# Poissons Ratio (z) = 0.10665 0.17147
#
# Static dielectric constant tensor:
#      x y z
#    x 1.809660 0.000000 0.000000 
#    y 0.000000 2.003340 0.000000 
#    z 0.000000 0.000000 1.608700 
# 
# From -- ./inp_files/19261.got.cif
#   From: 2010.05.17/outbox.cif.g08.bks.cpg/sg73_10_cif.got.tgz:19261.got - 2010.06.03 17:35:07.
