data_PCOD9532337
_publ_section_title
;
Structure prediction by ZEFSAII (Michael W. Deem and Ramdas Pophale) SiO2 
 PCOD9532337
Probable space group: I B C A 
;
_chemical_formula_sum "Si O2"
_cell_formula_units_Z 72
_cell_length_a 23.031534
_cell_length_b 10.730497
_cell_length_c 13.692854
_cell_angle_alpha 90.000000
_cell_angle_beta 90.000000
_cell_angle_gamma 90.000000
_cell_volume 3384.049288
_symmetry_space_group_name_H-M "I B C A "
_symmetry_group_IT_number 73
_symmetry_cell_setting 'orthorhombic'
loop_
_space_group_symop_operation_xyz
x,y,z
-x,1/2-y,z
x,-y,1/2-z
1/2-x,y,-z
-x,-y,-z
x,1/2+y,-z
-x,y,1/2+z
1/2+x,-y,z
1/2+x,1/2+y,1/2+z
1/2-x,-y,1/2+z
1/2+x,1/2-y,-z
-x,1/2+y,1/2-z
1/2-x,1/2-y,1/2-z
1/2+x,y,1/2-z
1/2-x,1/2+y,z
x,1/2-y,1/2+z
loop_
_atom_site_type_symbol
_atom_site_label
_atom_site_fract_x
_atom_site_fract_y
_atom_site_fract_z
Si Si1 0.551855 0.500000 0.250000
Si Si2 0.607002 0.895867 0.106583
Si Si3 0.256124 0.000000 0.250000
Si Si4 0.000000 0.750000 0.343010
Si Si5 0.646484 0.094701 0.604732
Si Si6 0.853695 0.643383 0.189092
O O1 0.519580 0.369112 0.275999
O O2 0.593096 0.523927 0.343728
O O3 0.549065 0.816361 0.090225
O O4 0.634967 0.822068 0.197825
O O5 0.603261 0.034628 0.152303
O O6 0.645164 0.918895 0.011142
O O7 0.296901 0.057392 0.166602
O O8 0.211703 0.091740 0.305790
O O9 0.638308 0.240099 0.622487
#
# Coordination Sequence:
#
# PCOD9532337 Si02
#       6
#     8  16   8   8  16  16
#     4  11  26  41  72  96 142 171 236 275 340 406
#     4  10  24  41  67  95 135 176 226 277 337 400
#     4   9  22  41  68  98 130 175 218 279 362 396
#     4  12  24  46  66 102 136 190 222 284 344 396
#     4  11  23  42  67 100 130 176 225 286 334 423
#     4  10  22  45  65  97 139 172 221 293 332 417
#
# _framework density 21.276285999999999
#
# number of rings (size 3 to 8) (size 9 to 14) (size 15 to 20)
#    0.000    1.778    2.222    2.000    3.111    5.333 
#    0.000    4.444    0.000    0.000    0.000    0.000 
#    0.000    0.000    0.000    0.000    0.000    0.000 
#
# Total GULP energy -200570.622494 kJ/mol
# GULP energy per Si atom -5571.406180 kJ/mol
# Density = 2.122786 g / cm^3
# Si number density = 21.276286 Si / 1000 Ang^3
#
#
#
# Elastic Constant Matrix: (Units=GPa)
#
#
# Indices 1 2 3 4 5 6 
#
# 1 68.2633 47.2816 0.1808 0.0000 0.0000 0.0000
# 2 47.2816 111.3584 27.7631 0.0000 0.0000 0.0000
# 3 0.1808 27.7631 96.4710 0.0000 0.0000 0.0000
# 4 0.0000 0.0000 0.0000 27.2352 0.0000 0.0000
# 5 0.0000 0.0000 0.0000 0.0000 14.8897 0.0000
# 6 0.0000 0.0000 0.0000 0.0000 0.0000 114.0331
#
#
#
# Elastic Compliance Matrix: (Units=1/GPa)
#
#
# Indices 1 2 3 4 5 6 
#
# 1 0.021421 -0.009787 0.002776 0.000000 0.000000 0.000000
# 2 -0.009787 0.014146 -0.004053 0.000000 0.000000 0.000000
# 3 0.002776 -0.004053 0.011527 0.000000 0.000000 0.000000
# 4 0.000000 0.000000 0.000000 0.036717 0.000000 0.000000
# 5 0.000000 0.000000 0.000000 0.000000 0.067161 0.000000
# 6 0.000000 0.000000 0.000000 0.000000 0.000000 0.008769
#
#
# Mechanical properties :
#
#
# Convention : Reuss Voigt Hill
#
# Bulk Modulus (GPa) = 40.05319 47.39373 43.72346
# Shear Modulus (GPa) = 26.28950 44.62275 35.45612
#
# Velocity S-wave (km/s) = 3.51896 4.58460 4.08666
# Velocity P-wave (km/s) = 5.94785 7.09566 6.54696
#
# Compressibility (1/GPa) = 0.02496680
#
# Stress axis : x y z
#
# Youngs Moduli (GPa) = 46.68359 70.69151 86.75349
#
# Poissons Ratio (x) = 0.69188 -0.24087
# Poissons Ratio (y) = 0.45690 0.35158
# Poissons Ratio (z) = -0.12962 0.28649
#
# Static dielectric constant tensor:
#      x y z
#    x 1.852090 0.000000 0.000000 
#    y 0.000000 1.778380 0.000000 
#    z 0.000000 0.000000 1.762910 
# 
# From -- ./inp_files/11028.got.cif
#   From: 2010.05.17/outbox.cif.g08.bks.cpg/sg73_6_cif.got.tgz:11028.got - 2010.06.03 17:35:07.
