data_PCOD9532669
_publ_section_title
;
Structure prediction by ZEFSAII (Michael W. Deem and Ramdas Pophale) SiO2 
 PCOD9532669
Probable space group: I B C A 
;
_chemical_formula_sum "Si O2"
_cell_formula_units_Z 104
_cell_length_a 8.700108
_cell_length_b 26.546039
_cell_length_c 20.150733
_cell_angle_alpha 90.000000
_cell_angle_beta 90.000000
_cell_angle_gamma 90.000000
_cell_volume 4653.880425
_symmetry_space_group_name_H-M "I B C A "
_symmetry_group_IT_number 73
_symmetry_cell_setting 'orthorhombic'
loop_
_space_group_symop_operation_xyz
x,y,z
-x,1/2-y,z
x,-y,1/2-z
1/2-x,y,-z
-x,-y,-z
x,1/2+y,-z
-x,y,1/2+z
1/2+x,-y,z
1/2+x,1/2+y,1/2+z
1/2-x,-y,1/2+z
1/2+x,1/2-y,-z
-x,1/2+y,1/2-z
1/2-x,1/2-y,1/2-z
1/2+x,y,1/2-z
1/2-x,1/2+y,z
x,1/2-y,1/2+z
loop_
_atom_site_type_symbol
_atom_site_label
_atom_site_fract_x
_atom_site_fract_y
_atom_site_fract_z
Si Si1 0.500000 0.250000 0.700553
Si Si2 0.434000 0.346254 0.778386
Si Si3 0.955304 0.438972 0.066090
Si Si4 0.250000 0.523988 0.500000
Si Si5 0.273713 0.184880 0.608379
Si Si6 0.561279 0.646164 0.455686
Si Si7 0.761546 0.886252 0.828773
Si Si8 0.750000 0.261163 0.000000
O O1 0.413144 0.291916 0.743788
O O2 0.385002 0.217825 0.655262
O O3 0.345017 0.345305 0.847487
O O4 0.367106 0.389381 0.729379
O O5 0.613931 0.350203 0.794000
O O6 0.878959 0.426557 0.137568
O O7 0.136391 0.448220 0.052143
O O8 0.864103 0.488117 0.041368
O O9 0.919455 0.392986 0.015345
O O10 0.385576 0.148876 0.566891
O O11 0.198405 0.224928 0.559176
O O12 0.663775 0.632472 0.391752
O O13 0.616108 0.701256 0.477534
#
# Coordination Sequence:
#
# PCOD9532669 Si02
#       8
#     8  16  16   8  16  16  16   8
#     4  12  22  42  60  84 130 186 238 286 310 366
#     4  12  27  40  64  89 133 186 243 268 324 384
#     4  11  24  44  77 105 139 161 213 273 356 419
#     4  10  23  47  74 118 126 162 200 279 353 434
#     4  12  26  41  61  93 134 185 239 281 320 384
#     4  12  23  42  65  98 136 178 223 286 343 395
#     4  12  23  45  63  96 131 180 219 280 324 405
#     4  12  23  37  60  90 142 180 228 291 329 372
#
# _framework density 22.346941000000001
#
# number of rings (size 3 to 8) (size 9 to 14) (size 15 to 20)
#    0.000    0.308    7.692    0.462    6.462    1.231 
#    0.000    0.000    0.000    2.769    0.000    0.000 
#    0.000    0.000    0.000    0.000    0.000    0.000 
#
# Total GULP energy -290537.973798 kJ/mol
# GULP energy per Si atom -5587.268727 kJ/mol
# Density = 2.229608 g / cm^3
# Si number density = 22.346941 Si / 1000 Ang^3
#
#
#
# Elastic Constant Matrix: (Units=GPa)
#
#
# Indices 1 2 3 4 5 6 
#
# 1 96.2762 13.9683 15.2435 0.0000 0.0000 0.0000
# 2 13.9683 42.7693 25.6953 0.0000 0.0000 0.0000
# 3 15.2435 25.6953 83.5306 0.0001 0.0000 0.0000
# 4 0.0000 0.0000 0.0001 28.3948 0.0000 0.0000
# 5 0.0000 0.0000 0.0000 0.0000 45.9167 0.0000
# 6 0.0000 0.0000 0.0000 0.0000 0.0000 33.0590
#
#
#
# Elastic Compliance Matrix: (Units=1/GPa)
#
#
# Indices 1 2 3 4 5 6 
#
# 1 0.010986 -0.002924 -0.001105 0.000000 0.000000 0.000000
# 2 -0.002924 0.029460 -0.008529 0.000000 0.000000 0.000000
# 3 -0.001105 -0.008529 0.014797 0.000000 0.000000 0.000000
# 4 0.000000 0.000000 0.000000 0.035218 0.000000 0.000000
# 5 0.000000 0.000000 0.000000 0.000000 0.021779 0.000000
# 6 0.000000 0.000000 0.000000 0.000000 0.000000 0.030249
#
#
# Mechanical properties :
#
#
# Convention : Reuss Voigt Hill
#
# Bulk Modulus (GPa) = 33.19287 36.93228 35.06257
# Shear Modulus (GPa) = 28.14568 32.65202 30.39885
#
# Velocity S-wave (km/s) = 3.55278 3.82663 3.69224
# Velocity P-wave (km/s) = 5.63163 6.00723 5.82246
#
# Compressibility (1/GPa) = 0.03012696
#
# Stress axis : x y z
#
# Youngs Moduli (GPa) = 91.02483 33.94407 67.58132
#
# Poissons Ratio (x) = 0.09925 0.07471
# Poissons Ratio (y) = 0.26615 0.57639
# Poissons Ratio (z) = 0.10062 0.28950
#
# Static dielectric constant tensor:
#      x y z
#    x 1.947960 0.000000 0.000000 
#    y 0.000000 1.815540 0.000000 
#    z 0.000000 0.000000 1.854630 
# 
# From -- ./inp_files/7912.got.cif
#   From: 2010.05.17/outbox.cif.g08.bks.cpg/sg73_4_cif.got.tgz:7912.got - 2010.06.03 17:35:07.
