data_PCOD9532884
_publ_section_title
;
Structure prediction by ZEFSAII (Michael W. Deem and Ramdas Pophale) SiO2 
 PCOD9532884
Probable space group: I B C A 
;
_chemical_formula_sum "Si O2"
_cell_formula_units_Z 112
_cell_length_a 13.357541
_cell_length_b 29.085331
_cell_length_c 13.217321
_cell_angle_alpha 90.000000
_cell_angle_beta 90.000000
_cell_angle_gamma 90.000000
_cell_volume 5135.041573
_symmetry_space_group_name_H-M "I B C A "
_symmetry_group_IT_number 73
_symmetry_cell_setting 'orthorhombic'
loop_
_space_group_symop_operation_xyz
x,y,z
-x,1/2-y,z
x,-y,1/2-z
1/2-x,y,-z
-x,-y,-z
x,1/2+y,-z
-x,y,1/2+z
1/2+x,-y,z
1/2+x,1/2+y,1/2+z
1/2-x,-y,1/2+z
1/2+x,1/2-y,-z
-x,1/2+y,1/2-z
1/2-x,1/2-y,1/2-z
1/2+x,y,1/2-z
1/2-x,1/2+y,z
x,1/2-y,1/2+z
loop_
_atom_site_type_symbol
_atom_site_label
_atom_site_fract_x
_atom_site_fract_y
_atom_site_fract_z
Si Si1 0.250000 0.542218 0.000000
Si Si2 0.881346 0.745885 0.342210
Si Si3 0.100485 0.617271 0.530274
Si Si4 0.171865 0.595906 0.303001
Si Si5 0.212093 0.180503 0.322393
Si Si6 0.384084 0.381248 0.600800
Si Si7 0.750000 0.192780 0.500000
Si Si8 0.333968 0.527415 0.343072
O O1 0.177345 0.574779 0.063375
O O2 0.314834 0.510023 0.071599
O O3 0.817920 0.792998 0.332819
O O4 0.855975 0.713955 0.244724
O O5 0.829613 0.722150 0.438095
O O6 0.000000 0.750000 0.352150
O O7 0.138232 0.606398 0.417390
O O8 0.156597 0.661864 0.577171
O O9 0.119317 0.571947 0.600575
O O10 0.983127 0.625897 0.535781
O O11 0.259163 0.632033 0.271996
O O12 0.090597 0.607425 0.217761
O O13 0.226791 0.547099 0.303370
O O14 0.312817 0.338172 0.577914
O O15 0.384774 0.500000 0.250000
#
# Coordination Sequence:
#
# PCOD9532884 Si02
#       8
#     8  16  16  16  16  16   8  16
#     4  11  22  44  65  94 146 182 231 292 352 401
#     4  11  26  44  74 105 140 187 236 297 353 430
#     4  11  26  42  74 101 136 191 239 279 360 432
#     4  11  22  45  68  97 141 186 223 287 358 409
#     4  10  24  45  69 102 139 179 232 294 349 419
#     4  11  26  43  70 101 139 191 227 292 348 430
#     4  11  26  46  63 104 148 180 231 286 362 409
#     4  11  21  42  68  98 138 186 227 296 349 407
#
# _framework density 21.810922999999999
#
# number of rings (size 3 to 8) (size 9 to 14) (size 15 to 20)
#    0.000    1.143    4.286    1.286    6.000    1.714 
#    2.571    0.714    0.000    0.000    0.000    0.000 
#    0.000    0.000    0.000    0.000    0.000    0.000 
#
# Total GULP energy -312651.847126 kJ/mol
# GULP energy per Si atom -5583.068699 kJ/mol
# Density = 2.176128 g / cm^3
# Si number density = 21.810923 Si / 1000 Ang^3
#
#
#
# Elastic Constant Matrix: (Units=GPa)
#
#
# Indices 1 2 3 4 5 6 
#
# 1 123.0660 32.9034 29.7681 0.0000 0.0000 0.0000
# 2 32.9034 111.6579 43.7125 -0.0003 0.0000 -0.0003
# 3 29.7681 43.7125 116.7704 -0.0006 0.0001 0.0005
# 4 0.0000 -0.0003 -0.0006 34.0425 -0.0001 -0.0004
# 5 0.0000 0.0000 0.0001 -0.0001 23.8470 -0.0001
# 6 0.0000 -0.0003 0.0005 -0.0004 -0.0001 -60.7352
#
#
#
# Elastic Compliance Matrix: (Units=1/GPa)
#
#
# Indices 1 2 3 4 5 6 
#
# 1 0.009049 -0.002066 -0.001533 0.000000 0.000000 0.000000
# 2 -0.002066 0.010966 -0.003578 0.000000 0.000000 0.000000
# 3 -0.001533 -0.003578 0.010294 0.000000 0.000000 0.000000
# 4 0.000000 0.000000 0.000000 0.029375 0.000000 0.000000
# 5 0.000000 0.000000 0.000000 0.000000 0.041934 0.000000
# 6 0.000000 0.000000 0.000000 0.000000 0.000000 -0.016465
#
#
# Mechanical properties :
#
#
# Convention : Reuss Voigt Hill
#
# Bulk Modulus (GPa) = 62.68325 62.69580 62.68953
# Shear Modulus (GPa) = 47.69788 15.77154 31.73471
#
# Velocity S-wave (km/s) = 4.68148 2.69197 3.81857
# Velocity P-wave (km/s) = 7.61731 6.20241 6.94598
#
# Compressibility (1/GPa) = 0.01595323
#
# Stress axis : x y z
#
# Youngs Moduli (GPa) = 110.50854 91.19398 97.14218
#
# Poissons Ratio (x) = 0.18843 0.14895
# Poissons Ratio (y) = 0.22834 0.34759
# Poissons Ratio (z) = 0.16945 0.32631
#
# Static dielectric constant tensor:
#      x y z
#    x 1.785190 0.000000 0.000000 
#    y 0.000000 1.782410 0.000000 
#    z 0.000000 0.000000 1.849770 
# 
# From -- ./inp_files/11293.got.cif
#   From: 2010.05.17/outbox.cif.g08.bks.cpg/sg73_6_cif.got.tgz:11293.got - 2010.06.03 17:35:07.
