data_PCOD9532975
_publ_section_title
;
Structure prediction by ZEFSAII (Michael W. Deem and Ramdas Pophale) SiO2 
 PCOD9532975
Probable space group: I B C A 
;
_chemical_formula_sum "Si O2"
_cell_formula_units_Z 64
_cell_length_a 8.936064
_cell_length_b 25.115113
_cell_length_c 12.418256
_cell_angle_alpha 90.000000
_cell_angle_beta 90.000000
_cell_angle_gamma 90.000000
_cell_volume 2787.032387
_symmetry_space_group_name_H-M "I B C A "
_symmetry_group_IT_number 73
_symmetry_cell_setting 'orthorhombic'
loop_
_space_group_symop_operation_xyz
x,y,z
-x,1/2-y,z
x,-y,1/2-z
1/2-x,y,-z
-x,-y,-z
x,1/2+y,-z
-x,y,1/2+z
1/2+x,-y,z
1/2+x,1/2+y,1/2+z
1/2-x,-y,1/2+z
1/2+x,1/2-y,-z
-x,1/2+y,1/2-z
1/2-x,1/2-y,1/2-z
1/2+x,y,1/2-z
1/2-x,1/2+y,z
x,1/2-y,1/2+z
loop_
_atom_site_type_symbol
_atom_site_label
_atom_site_fract_x
_atom_site_fract_y
_atom_site_fract_z
Si Si1 0.540943 0.842599 0.115175
Si Si2 0.961307 0.958734 0.904960
Si Si3 0.500000 0.750000 0.473625
Si Si4 0.204466 0.500000 0.250000
Si Si5 0.716910 0.305508 0.689926
O O1 0.552400 0.898374 0.054659
O O2 0.636910 0.843768 0.224284
O O3 0.369288 0.830077 0.146020
O O4 0.590202 0.791041 0.047942
O O5 0.811827 0.974596 0.840328
O O6 0.094025 0.961137 0.815956
O O7 0.000000 0.000000 0.000000
O O8 0.398007 0.711649 0.402225
O O9 0.750000 0.250000 0.750000
#
# Coordination Sequence:
#
# PCOD9532975 Si02
#       5
#    16  16   8   8  16
#     4  12  26  43  72 102 141 186 230 297 351 427
#     4  11  25  48  72 105 140 190 243 299 363 424
#     4  12  24  40  70 100 138 182 228 280 352 428
#     4  10  24  48  74  98 142 184 246 302 354 428
#     4  12  23  46  65 101 143 180 233 281 356 425
#
# _framework density 22.963494000000001
#
# number of rings (size 3 to 8) (size 9 to 14) (size 15 to 20)
#    0.000    0.500    5.000    3.000    0.000    8.000 
#    9.000    0.000    0.000    0.000    0.000    0.000 
#    0.000    0.000    0.000    0.000    0.000    0.000 
#
# Total GULP energy -179173.715921 kJ/mol
# GULP energy per Si atom -5599.178623 kJ/mol
# Density = 2.291123 g / cm^3
# Si number density = 22.963494 Si / 1000 Ang^3
#
#
#
# Elastic Constant Matrix: (Units=GPa)
#
#
# Indices 1 2 3 4 5 6 
#
# 1 100.2155 -5.8987 14.6841 0.0000 0.0000 0.0000
# 2 -5.8987 133.7657 22.8871 0.0000 0.0000 0.0000
# 3 14.6841 22.8871 90.1787 0.0002 0.0000 0.0000
# 4 0.0000 0.0000 0.0002 38.6695 0.0000 0.0000
# 5 0.0000 0.0000 0.0000 0.0000 35.4103 0.0000
# 6 0.0000 0.0000 0.0000 0.0000 0.0000 12.1182
#
#
#
# Elastic Compliance Matrix: (Units=1/GPa)
#
#
# Indices 1 2 3 4 5 6 
#
# 1 0.010299 0.000775 -0.001874 0.000000 0.000000 0.000000
# 2 0.000775 0.007873 -0.002124 0.000000 0.000000 0.000000
# 3 -0.001874 -0.002124 0.011933 0.000000 0.000000 0.000000
# 4 0.000000 0.000000 0.000000 0.025860 0.000000 0.000000
# 5 0.000000 0.000000 0.000000 0.000000 0.028240 0.000000
# 6 0.000000 0.000000 0.000000 0.000000 0.000000 0.082520
#
#
# Mechanical properties :
#
#
# Convention : Reuss Voigt Hill
#
# Bulk Modulus (GPa) = 42.26752 43.05610 42.66181
# Shear Modulus (GPa) = 27.61532 36.73876 32.17704
#
# Velocity S-wave (km/s) = 3.47158 4.00419 3.74736
# Velocity P-wave (km/s) = 5.87499 6.33786 6.11081
#
# Compressibility (1/GPa) = 0.02365883
#
# Stress axis : x y z
#
# Youngs Moduli (GPa) = 97.10042 127.00990 83.79887
#
# Poissons Ratio (x) = -0.09840 0.15700
# Poissons Ratio (y) = -0.07522 0.17802
# Poissons Ratio (z) = 0.18192 0.26982
#
# Static dielectric constant tensor:
#      x y z
#    x 1.808230 0.000000 0.000000 
#    y 0.000000 1.818870 0.000000 
#    z 0.000000 0.000000 1.923930 
# 
# From -- ./inp_files/4753.got.cif
#   From: 2010.05.17/outbox.cif.g08.bks.cpg/sg73_3_cif.got.tgz:4753.got - 2010.06.03 17:35:07.
