data_PCOD9532825
_publ_section_title
;
Structure prediction by ZEFSAII (Michael W. Deem and Ramdas Pophale) SiO2 
 PCOD9532825
Probable space group: I B C A 
;
_chemical_formula_sum "Si O2"
_cell_formula_units_Z 120
_cell_length_a 8.856998
_cell_length_b 25.373908
_cell_length_c 26.541592
_cell_angle_alpha 90.000000
_cell_angle_beta 90.000000
_cell_angle_gamma 90.000000
_cell_volume 5964.868536
_symmetry_space_group_name_H-M "I B C A "
_symmetry_group_IT_number 73
_symmetry_cell_setting 'orthorhombic'
loop_
_space_group_symop_operation_xyz
x,y,z
-x,1/2-y,z
x,-y,1/2-z
1/2-x,y,-z
-x,-y,-z
x,1/2+y,-z
-x,y,1/2+z
1/2+x,-y,z
1/2+x,1/2+y,1/2+z
1/2-x,-y,1/2+z
1/2+x,1/2-y,-z
-x,1/2+y,1/2-z
1/2-x,1/2-y,1/2-z
1/2+x,y,1/2-z
1/2-x,1/2+y,z
x,1/2-y,1/2+z
loop_
_atom_site_type_symbol
_atom_site_label
_atom_site_fract_x
_atom_site_fract_y
_atom_site_fract_z
Si Si1 0.445504 0.369010 0.601586
Si Si2 0.114111 0.027050 0.962474
Si Si3 0.922792 0.064219 0.301671
Si Si4 0.844024 0.854111 0.950484
Si Si5 0.556079 0.946948 0.194176
Si Si6 0.269792 0.679872 0.438721
Si Si7 0.500000 0.750000 0.569401
Si Si8 0.904912 0.077434 0.091696
O O1 0.445922 0.421470 0.565964
O O2 0.470938 0.392016 0.657434
O O3 0.272459 0.349992 0.595620
O O4 0.557466 0.324158 0.580259
O O5 0.149933 0.981153 0.921538
O O6 0.250000 0.036305 0.000000
O O7 0.000000 0.000000 0.000000
O O8 0.739270 0.057391 0.304407
O O9 0.981246 0.075325 0.245241
O O10 0.006129 0.008262 0.311812
O O11 0.936369 0.800986 0.957582
O O12 0.955347 0.902385 0.941938
O O13 0.750000 0.858772 0.000000
O O14 0.474425 0.919552 0.147184
O O15 0.250000 0.685840 0.500000
O O16 0.217236 0.621365 0.421563
O O17 0.157656 0.722034 0.411228
#
# Coordination Sequence:
#
# PCOD9532825 Si02
#       8
#    16  16  16  16  16  16   8  16
#     4  12  23  37  61  93 127 163 217 256 308 375
#     4  12  23  34  52  82 130 182 204 237 292 362
#     4  11  24  39  63  89 125 174 218 268 299 367
#     4  11  22  40  61  89 124 160 208 261 311 378
#     4  11  23  41  59  88 125 175 219 260 311 350
#     4  11  24  40  62  95 124 168 209 259 311 377
#     4  10  24  44  64  86 122 166 200 270 322 362
#     4  11  22  38  59  86 132 172 211 256 301 370
#
# _framework density 20.117794
#
# number of rings (size 3 to 8) (size 9 to 14) (size 15 to 20)
#    0.000    0.800    2.667    7.600    3.733    0.533 
#    0.000    0.000    0.000    0.000    0.000   14.933 
#    0.000    0.000    0.000    0.000    0.000    0.000 
#
# Total GULP energy -334431.318484 kJ/mol
# GULP energy per Si atom -5573.855308 kJ/mol
# Density = 2.007200 g / cm^3
# Si number density = 20.117794 Si / 1000 Ang^3
#
#
#
# Elastic Constant Matrix: (Units=GPa)
#
#
# Indices 1 2 3 4 5 6 
#
# 1 88.9284 24.5238 2.2705 0.0000 0.0000 0.0000
# 2 24.5238 74.3781 25.6093 0.0001 0.0000 0.0000
# 3 2.2705 25.6093 86.8249 0.0000 0.0000 0.0000
# 4 0.0000 0.0001 0.0000 -339.4914 0.0000 0.0000
# 5 0.0000 0.0000 0.0000 0.0000 25.2686 0.0000
# 6 0.0000 0.0000 0.0000 0.0000 0.0000 40.9279
#
#
#
# Elastic Compliance Matrix: (Units=1/GPa)
#
#
# Indices 1 2 3 4 5 6 
#
# 1 0.012445 -0.004442 0.000985 0.000000 0.000000 0.000000
# 2 -0.004442 0.016550 -0.004765 0.000000 0.000000 0.000000
# 3 0.000985 -0.004765 0.012897 0.000000 0.000000 0.000000
# 4 0.000000 0.000000 0.000000 -0.002946 0.000000 0.000000
# 5 0.000000 0.000000 0.000000 0.000000 0.039575 0.000000
# 6 0.000000 0.000000 0.000000 0.000000 0.000000 0.024433
#
#
# Mechanical properties :
#
#
# Convention : Reuss Voigt Hill
#
# Bulk Modulus (GPa) = 39.29799 39.43765 39.36782
# Shear Modulus (GPa) = 39.09818 -41.47712 -1.18947
#
# Velocity S-wave (km/s) = 4.41325 -4.54554 -0.76976
# Velocity P-wave (km/s) = 6.74874 2.81127 4.33833
#
# Compressibility (1/GPa) = 0.02544660
#
# Stress axis : x y z
#
# Youngs Moduli (GPa) = 80.35386 60.42168 77.53593
#
# Poissons Ratio (x) = 0.26842 -0.07636
# Poissons Ratio (y) = 0.35697 0.36949
# Poissons Ratio (z) = -0.07914 0.28793
#
# Static dielectric constant tensor:
#      x y z
#    x 1.631790 0.000000 0.000000 
#    y 0.000000 1.798090 0.000000 
#    z 0.000000 0.000000 1.771910 
# 
# From -- ./inp_files/31467.got.cif
#   From: 2010.05.17/outbox.cif.g08.bks.cpg/sg73_16_cif.got.tgz:31467.got - 2010.06.03 17:35:07.
