data_PCOD9532620
_publ_section_title
;
Structure prediction by ZEFSAII (Michael W. Deem and Ramdas Pophale) SiO2 
 PCOD9532620
Probable space group: I B C A 
;
_chemical_formula_sum "Si O2"
_cell_formula_units_Z 64
_cell_length_a 12.143340
_cell_length_b 14.627841
_cell_length_c 14.090897
_cell_angle_alpha 90.000000
_cell_angle_beta 90.000000
_cell_angle_gamma 90.000000
_cell_volume 2502.977965
_symmetry_space_group_name_H-M "I B C A "
_symmetry_group_IT_number 73
_symmetry_cell_setting 'orthorhombic'
loop_
_space_group_symop_operation_xyz
x,y,z
-x,1/2-y,z
x,-y,1/2-z
1/2-x,y,-z
-x,-y,-z
x,1/2+y,-z
-x,y,1/2+z
1/2+x,-y,z
1/2+x,1/2+y,1/2+z
1/2-x,-y,1/2+z
1/2+x,1/2-y,-z
-x,1/2+y,1/2-z
1/2-x,1/2-y,1/2-z
1/2+x,y,1/2-z
1/2-x,1/2+y,z
x,1/2-y,1/2+z
loop_
_atom_site_type_symbol
_atom_site_label
_atom_site_fract_x
_atom_site_fract_y
_atom_site_fract_z
Si Si1 0.684371 0.983082 0.648112
Si Si2 0.693081 0.672108 0.625763
Si Si3 0.855820 0.667567 0.158400
Si Si4 0.483787 0.607887 0.514398
O O1 0.726021 0.083158 0.615829
O O2 0.627379 0.000000 0.750000
O O3 0.798903 0.931300 0.661773
O O4 0.617129 0.907829 0.587677
O O5 0.636895 0.687904 0.729867
O O6 0.774575 0.756938 0.614606
O O7 0.589054 0.656450 0.558730
O O8 0.954894 0.653106 0.085983
O O9 0.500000 0.500000 0.500000
#
# Coordination Sequence:
#
# PCOD9532620 Si02
#       4
#    16  16  16  16
#     4  10  23  45  71 108 157 201 257 319 394 474
#     4  10  24  49  78 108 163 208 248 337 399 469
#     4  10  23  49  77 113 156 204 264 322 401 471
#     4  12  25  43  79 114 146 204 268 319 394 473
#
# _framework density 25.569542999999999
#
# number of rings (size 3 to 8) (size 9 to 14) (size 15 to 20)
#    0.000    1.500    2.500    0.750    3.500    1.000 
#   13.500    0.000    0.000    1.500    0.000    0.000 
#    0.000    0.000    0.000    0.000    0.000    0.000 
#
# Total GULP energy -178800.756172 kJ/mol
# GULP energy per Si atom -5587.523630 kJ/mol
# Density = 2.551135 g / cm^3
# Si number density = 25.569543 Si / 1000 Ang^3
#
#
#
# Elastic Constant Matrix: (Units=GPa)
#
#
# Indices 1 2 3 4 5 6 
#
# 1 101.8393 34.8515 79.2507 0.0000 0.0000 0.0000
# 2 34.8515 146.4158 23.5381 0.0000 0.0000 0.0000
# 3 79.2507 23.5381 154.7488 0.0000 0.0000 0.0000
# 4 0.0000 0.0000 0.0000 24.3383 0.0000 0.0000
# 5 0.0000 0.0000 0.0000 0.0000 211.9580 0.0000
# 6 0.0000 0.0000 0.0000 0.0000 0.0000 33.4957
#
#
#
# Elastic Compliance Matrix: (Units=1/GPa)
#
#
# Indices 1 2 3 4 5 6 
#
# 1 0.017357 -0.002770 -0.008467 0.000000 0.000000 0.000000
# 2 -0.002770 0.007443 0.000287 0.000000 0.000000 0.000000
# 3 -0.008467 0.000287 0.010755 0.000000 0.000000 0.000000
# 4 0.000000 0.000000 0.000000 0.041088 0.000000 0.000000
# 5 0.000000 0.000000 0.000000 0.000000 0.004718 0.000000
# 6 0.000000 0.000000 0.000000 0.000000 0.000000 0.029855
#
#
# Mechanical properties :
#
#
# Convention : Reuss Voigt Hill
#
# Bulk Modulus (GPa) = 73.24613 75.36493 74.30553
# Shear Modulus (GPa) = 36.31929 71.64931 53.98430
#
# Velocity S-wave (km/s) = 3.77292 5.29926 4.59984
# Velocity P-wave (km/s) = 6.90565 8.18422 7.57197
#
# Compressibility (1/GPa) = 0.01365260
#
# Stress axis : x y z
#
# Youngs Moduli (GPa) = 57.61458 134.35100 92.98092
#
# Poissons Ratio (x) = 0.37218 0.78731
# Poissons Ratio (y) = 0.15960 -0.02664
# Poissons Ratio (z) = 0.48785 -0.03850
#
# Static dielectric constant tensor:
#      x y z
#    x 2.072960 0.000000 0.000000 
#    y 0.000000 1.907640 0.000000 
#    z 0.000000 0.000000 1.890170 
# 
# From -- ./inp_files/16617.got.cif
#   From: 2010.05.17/outbox.cif.g08.bks.cpg/sg73_9_cif.got.tgz:16617.got - 2010.06.03 17:35:07.
