data_PCOD9532540
_publ_section_title
;
Structure prediction by ZEFSAII (Michael W. Deem and Ramdas Pophale) SiO2 
 PCOD9532540
Probable space group: I B C A 
;
_chemical_formula_sum "Si O2"
_cell_formula_units_Z 80
_cell_length_a 11.458853
_cell_length_b 13.032635
_cell_length_c 24.979729
_cell_angle_alpha 90.000000
_cell_angle_beta 90.000000
_cell_angle_gamma 90.000000
_cell_volume 3730.448965
_symmetry_space_group_name_H-M "I B C A "
_symmetry_group_IT_number 73
_symmetry_cell_setting 'orthorhombic'
loop_
_space_group_symop_operation_xyz
x,y,z
-x,1/2-y,z
x,-y,1/2-z
1/2-x,y,-z
-x,-y,-z
x,1/2+y,-z
-x,y,1/2+z
1/2+x,-y,z
1/2+x,1/2+y,1/2+z
1/2-x,-y,1/2+z
1/2+x,1/2-y,-z
-x,1/2+y,1/2-z
1/2-x,1/2-y,1/2-z
1/2+x,y,1/2-z
1/2-x,1/2+y,z
x,1/2-y,1/2+z
loop_
_atom_site_type_symbol
_atom_site_label
_atom_site_fract_x
_atom_site_fract_y
_atom_site_fract_z
Si Si1 0.894863 0.500000 0.250000
Si Si2 0.377832 0.307917 0.069158
Si Si3 0.492298 0.865079 0.157872
Si Si4 0.763751 0.934815 0.658313
Si Si5 0.750000 0.954743 0.500000
Si Si6 0.216827 0.115888 0.093688
O O1 0.969647 0.555736 0.295809
O O2 0.811043 0.422218 0.282143
O O3 0.500000 0.250000 0.067939
O O4 0.360598 0.386525 0.118613
O O5 0.353340 0.376460 0.016437
O O6 0.279894 0.220499 0.078404
O O7 0.500000 0.750000 0.179323
O O8 0.358523 0.884639 0.144559
O O9 0.579166 0.871610 0.106492
O O10 0.745073 0.056753 0.647844
O O11 0.744600 0.032609 0.549486
#
# Coordination Sequence:
#
# PCOD9532540 Si02
#       6
#     8  16  16  16   8  16
#     4  10  24  40  66 104 136 176 224 276 336 402
#     4  11  24  44  67  97 133 173 223 278 337 404
#     4  11  22  44  70  95 137 179 222 281 331 404
#     4  10  23  43  64 100 134 176 225 269 340 397
#     4  10  24  46  64 102 124 172 228 268 340 402
#     4  10  23  43  66  93 135 175 218 278 337 396
#
# _framework density 21.445141
#
# number of rings (size 3 to 8) (size 9 to 14) (size 15 to 20)
#    0.000    1.600    2.000    1.200    8.400    2.400 
#   10.800    0.000    0.000    0.000    0.000    0.000 
#    0.000    0.000    0.000    0.000    0.000    0.000 
#
# Total GULP energy -222893.091883 kJ/mol
# GULP energy per Si atom -5572.327297 kJ/mol
# Density = 2.139633 g / cm^3
# Si number density = 21.445141 Si / 1000 Ang^3
#
#
#
# Elastic Constant Matrix: (Units=GPa)
#
#
# Indices 1 2 3 4 5 6 
#
# 1 105.2831 22.3179 35.5881 0.0000 0.0000 0.0000
# 2 22.3179 101.7206 22.8419 0.0000 0.0000 0.0000
# 3 35.5881 22.8419 93.0303 0.0000 0.0000 0.0000
# 4 0.0000 0.0000 0.0000 25.8489 0.0000 0.0000
# 5 0.0000 0.0000 0.0000 0.0000 13.2592 0.0000
# 6 0.0000 0.0000 0.0000 0.0000 0.0000 26.5884
#
#
#
# Elastic Compliance Matrix: (Units=1/GPa)
#
#
# Indices 1 2 3 4 5 6 
#
# 1 0.011142 -0.001574 -0.003876 0.000000 0.000000 0.000000
# 2 -0.001574 0.010627 -0.002007 0.000000 0.000000 0.000000
# 3 -0.003876 -0.002007 0.012725 0.000000 0.000000 0.000000
# 4 0.000000 0.000000 0.000000 0.038686 0.000000 0.000000
# 5 0.000000 0.000000 0.000000 0.000000 0.075419 0.000000
# 6 0.000000 0.000000 0.000000 0.000000 0.000000 0.037610
#
#
# Mechanical properties :
#
#
# Convention : Reuss Voigt Hill
#
# Bulk Modulus (GPa) = 51.07398 51.28109 51.17753
# Shear Modulus (GPa) = 24.07896 27.75838 25.91867
#
# Velocity S-wave (km/s) = 3.35448 3.60167 3.48027
# Velocity P-wave (km/s) = 6.23468 6.42344 6.32976
#
# Compressibility (1/GPa) = 0.01957944
#
# Stress axis : x y z
#
# Youngs Moduli (GPa) = 89.75042 94.10048 78.58775
#
# Poissons Ratio (x) = 0.14814 0.30459
# Poissons Ratio (y) = 0.14129 0.15773
# Poissons Ratio (z) = 0.34785 0.18886
#
# Static dielectric constant tensor:
#      x y z
#    x 1.822320 0.000000 0.000000 
#    y 0.000000 1.822180 0.000000 
#    z 0.000000 0.000000 1.830770 
# 
# From -- ./inp_files/28811.got.cif
#   From: 2010.05.17/outbox.cif.g08.bks.cpg/sg73_15_cif.got.tgz:28811.got - 2010.06.03 17:35:07.
