data_PCOD9532218
_publ_section_title
;
Structure prediction by ZEFSAII (Michael W. Deem and Ramdas Pophale) SiO2 
 PCOD9532218
Probable space group: I B C A 
;
_chemical_formula_sum "Si O2"
_cell_formula_units_Z 120
_cell_length_a 25.807492
_cell_length_b 18.442519
_cell_length_c 11.481007
_cell_angle_alpha 90.000000
_cell_angle_beta 90.000000
_cell_angle_gamma 90.000000
_cell_volume 5464.444541
_symmetry_space_group_name_H-M "I B C A "
_symmetry_group_IT_number 73
_symmetry_cell_setting 'orthorhombic'
loop_
_space_group_symop_operation_xyz
x,y,z
-x,1/2-y,z
x,-y,1/2-z
1/2-x,y,-z
-x,-y,-z
x,1/2+y,-z
-x,y,1/2+z
1/2+x,-y,z
1/2+x,1/2+y,1/2+z
1/2-x,-y,1/2+z
1/2+x,1/2-y,-z
-x,1/2+y,1/2-z
1/2-x,1/2-y,1/2-z
1/2+x,y,1/2-z
1/2-x,1/2+y,z
x,1/2-y,1/2+z
loop_
_atom_site_type_symbol
_atom_site_label
_atom_site_fract_x
_atom_site_fract_y
_atom_site_fract_z
Si Si1 0.805862 0.888384 0.958491
Si Si2 0.193941 0.542881 0.634142
Si Si3 0.585902 0.600347 0.443819
Si Si4 0.304907 0.757581 0.681975
Si Si5 0.009674 0.175177 0.515044
Si Si6 0.250000 0.334069 0.000000
Si Si7 0.595986 0.162929 0.803800
Si Si8 0.593654 0.434734 0.516132
O O1 0.814780 0.842719 0.840773
O O2 0.803400 0.975258 0.955098
O O3 0.750000 0.863294 0.000000
O O4 0.855592 0.872878 0.035555
O O5 0.208957 0.500000 0.750000
O O6 0.227803 0.610840 0.596665
O O7 0.134047 0.564985 0.621479
O O8 0.546629 0.641119 0.529662
O O9 0.576064 0.620906 0.309930
O O10 0.581316 0.515778 0.474767
O O11 0.250000 0.750000 0.750000
O O12 0.292806 0.717050 0.559062
O O13 0.357366 0.718481 0.725738
O O14 0.045832 0.193792 0.626686
O O15 0.043495 0.112841 0.453384
O O16 0.000000 0.250000 0.448329
O O17 0.617071 0.105841 0.901601
#
# Coordination Sequence:
#
# PCOD9532218 Si02
#       8
#    16  16  16  16  16   8  16  16
#     4  11  23  42  64  98 140 172 232 284 346 424
#     4  11  23  43  64  98 131 189 229 291 355 430
#     4  11  22  41  69  96 129 187 226 287 355 428
#     4  12  24  42  66 103 136 187 231 297 363 429
#     4  10  22  43  63  96 136 172 229 293 350 428
#     4  12  22  42  68  92 146 176 242 294 350 434
#     4  10  23  41  67  94 135 174 235 284 362 418
#     4   9  22  44  65  94 136 167 234 289 345 424
#
# _framework density 21.960145000000001
#
# number of rings (size 3 to 8) (size 9 to 14) (size 15 to 20)
#    0.800    0.533    2.667    3.200    0.000    0.533 
#    7.200    0.000    0.000    0.000    0.000    0.000 
#    0.000    0.000    0.000    0.000    0.000    0.000 
#
# Total GULP energy -334205.978065 kJ/mol
# GULP energy per Si atom -5570.099634 kJ/mol
# Density = 2.191016 g / cm^3
# Si number density = 21.960145 Si / 1000 Ang^3
#
#
#
# Elastic Constant Matrix: (Units=GPa)
#
#
# Indices 1 2 3 4 5 6 
#
# 1 116.8687 40.5037 10.6916 0.0000 0.0000 0.0000
# 2 40.5037 111.9219 0.1038 0.0000 0.0000 0.0000
# 3 10.6916 0.1038 37.2623 0.0000 0.0000 0.0000
# 4 0.0000 0.0000 0.0000 12.5166 0.0000 0.0000
# 5 0.0000 0.0000 0.0000 0.0000 25.6510 0.0000
# 6 0.0000 0.0000 0.0000 0.0000 0.0000 31.2566
#
#
#
# Elastic Compliance Matrix: (Units=1/GPa)
#
#
# Indices 1 2 3 4 5 6 
#
# 1 0.010084 -0.003647 -0.002883 0.000000 0.000000 0.000000
# 2 -0.003647 0.010254 0.001018 0.000000 0.000000 0.000000
# 3 -0.002883 0.001018 0.027661 0.000000 0.000000 0.000000
# 4 0.000000 0.000000 0.000000 0.079894 0.000000 0.000000
# 5 0.000000 0.000000 0.000000 0.000000 0.038985 0.000000
# 6 0.000000 0.000000 0.000000 0.000000 0.000000 0.031993
#
#
# Mechanical properties :
#
#
# Convention : Reuss Voigt Hill
#
# Bulk Modulus (GPa) = 27.04561 40.96123 34.00342
# Shear Modulus (GPa) = 22.50018 28.20175 25.35097
#
# Velocity S-wave (km/s) = 3.20440 3.58750 3.40134
# Velocity P-wave (km/s) = 5.10229 5.98775 5.56267
#
# Compressibility (1/GPa) = 0.03697458
#
# Stress axis : x y z
#
# Youngs Moduli (GPa) = 99.16444 97.52680 36.15165
#
# Poissons Ratio (x) = 0.35566 0.10424
# Poissons Ratio (y) = 0.36163 -0.03679
# Poissons Ratio (z) = 0.28592 -0.09926
#
# Static dielectric constant tensor:
#      x y z
#    x 1.831420 0.000000 0.000000 
#    y 0.000000 1.827040 0.000000 
#    z 0.000000 0.000000 1.839270 
# 
# From -- ./inp_files/14376.got.cif
#   From: 2010.05.17/outbox.cif.g08.bks.cpg/sg73_8_cif.got.tgz:14376.got - 2010.06.03 17:35:07.
