data_PCOD9532538
_publ_section_title
;
Structure prediction by ZEFSAII (Michael W. Deem and Ramdas Pophale) SiO2 
 PCOD9532538
Probable space group: I B C A 
;
_chemical_formula_sum "Si O2"
_cell_formula_units_Z 120
_cell_length_a 14.401526
_cell_length_b 21.205391
_cell_length_c 16.247532
_cell_angle_alpha 90.000000
_cell_angle_beta 90.000000
_cell_angle_gamma 90.000000
_cell_volume 4961.833632
_symmetry_space_group_name_H-M "I B C A "
_symmetry_group_IT_number 73
_symmetry_cell_setting 'orthorhombic'
loop_
_space_group_symop_operation_xyz
x,y,z
-x,1/2-y,z
x,-y,1/2-z
1/2-x,y,-z
-x,-y,-z
x,1/2+y,-z
-x,y,1/2+z
1/2+x,-y,z
1/2+x,1/2+y,1/2+z
1/2-x,-y,1/2+z
1/2+x,1/2-y,-z
-x,1/2+y,1/2-z
1/2-x,1/2-y,1/2-z
1/2+x,y,1/2-z
1/2-x,1/2+y,z
x,1/2-y,1/2+z
loop_
_atom_site_type_symbol
_atom_site_label
_atom_site_fract_x
_atom_site_fract_y
_atom_site_fract_z
Si Si1 0.811275 0.642867 0.115253
Si Si2 0.319403 0.652408 0.075973
Si Si3 0.990244 0.389964 0.619730
Si Si4 0.207624 0.681976 0.231788
Si Si5 0.485633 0.362363 0.690166
Si Si6 0.070193 0.519264 0.074824
Si Si7 0.403042 0.721805 0.513351
Si Si8 0.250000 0.030068 0.500000
O O1 0.728766 0.647459 0.181531
O O2 0.798921 0.578253 0.064315
O O3 0.911281 0.648350 0.157715
O O4 0.825990 0.700630 0.051908
O O5 0.408786 0.607358 0.076335
O O6 0.265609 0.647410 0.161056
O O7 0.364654 0.722436 0.069995
O O8 0.250000 0.646525 0.000000
O O9 0.003425 0.369460 0.712742
O O10 0.942520 0.456937 0.629353
O O11 0.932504 0.340172 0.564793
O O12 0.250000 0.750000 0.250000
O O13 0.103202 0.684242 0.196212
O O14 0.452070 0.419688 0.629830
O O15 0.174707 0.513484 0.043430
O O16 0.000000 0.500000 0.000000
O O17 0.500000 0.750000 0.476706
#
# Coordination Sequence:
#
# PCOD9532538 Si02
#       8
#    16  16  16  16  16  16  16   8
#     4  12  26  49  75 109 154 202 261 325 397 486
#     4  11  25  41  69 110 147 194 245 309 388 474
#     4  11  23  48  71 101 151 193 249 318 389 467
#     4  12  28  45  75 115 153 201 254 320 398 488
#     4  12  27  50  72 110 151 199 257 328 399 464
#     4  12  26  48  77 108 145 203 259 327 392 472
#     4  10  23  42  73 106 148 205 251 317 400 484
#     4  12  26  48  82 110 148 208 274 328 404 474
#
# _framework density 24.184608000000001
#
# number of rings (size 3 to 8) (size 9 to 14) (size 15 to 20)
#    0.000    0.533    4.000    2.800   10.267    1.067 
#    0.000    0.000    0.000    0.000    0.000    0.000 
#    0.000    0.000    0.000    0.000    0.000    0.000 
#
# Total GULP energy -335616.316142 kJ/mol
# GULP energy per Si atom -5593.605269 kJ/mol
# Density = 2.412956 g / cm^3
# Si number density = 24.184608 Si / 1000 Ang^3
#
#
#
# Elastic Constant Matrix: (Units=GPa)
#
#
# Indices 1 2 3 4 5 6 
#
# 1 131.1058 4.7411 31.2089 0.0000 0.0000 0.0000
# 2 4.7411 51.4006 11.7236 0.0002 0.0000 0.0000
# 3 31.2089 11.7236 104.0606 0.0003 0.0000 0.0000
# 4 0.0000 0.0002 0.0003 26.5899 0.0000 0.0000
# 5 0.0000 0.0000 0.0000 0.0000 52.2346 0.0000
# 6 0.0000 0.0000 0.0000 0.0000 0.0000 42.3159
#
#
#
# Elastic Compliance Matrix: (Units=1/GPa)
#
#
# Indices 1 2 3 4 5 6 
#
# 1 0.008216 -0.000201 -0.002441 0.000000 0.000000 0.000000
# 2 -0.000201 0.019973 -0.002190 0.000000 0.000000 0.000000
# 3 -0.002441 -0.002190 0.010589 0.000000 0.000000 0.000000
# 4 0.000000 0.000000 0.000000 0.037608 0.000000 0.000000
# 5 0.000000 0.000000 0.000000 0.000000 0.019144 0.000000
# 6 0.000000 0.000000 0.000000 0.000000 0.000000 0.023632
#
#
# Mechanical properties :
#
#
# Convention : Reuss Voigt Hill
#
# Bulk Modulus (GPa) = 34.34883 42.43489 38.39186
# Shear Modulus (GPa) = 36.09300 40.15431 38.12365
#
# Velocity S-wave (km/s) = 3.86734 4.07913 3.97465
# Velocity P-wave (km/s) = 5.84597 6.30635 6.08052
#
# Compressibility (1/GPa) = 0.02911307
#
# Stress axis : x y z
#
# Youngs Moduli (GPa) = 121.71599 50.06742 94.44029
#
# Poissons Ratio (x) = 0.01006 0.23056
# Poissons Ratio (y) = 0.02446 0.20682
# Poissons Ratio (z) = 0.29715 0.10964
#
# Static dielectric constant tensor:
#      x y z
#    x 1.989590 0.000000 0.000000 
#    y 0.000000 1.957400 0.000000 
#    z 0.000000 0.000000 2.019580 
# 
# From -- ./inp_files/22169.got.cif
#   From: 2010.05.17/outbox.cif.g08.bks.cpg/sg73_12_cif.got.tgz:22169.got - 2010.06.03 17:35:07.
