data_PCOD9532895
_publ_section_title
;
Structure prediction by ZEFSAII (Michael W. Deem and Ramdas Pophale) SiO2 
 PCOD9532895
Probable space group: I B C A 
;
_chemical_formula_sum "Si O2"
_cell_formula_units_Z 96
_cell_length_a 9.367856
_cell_length_b 18.338024
_cell_length_c 24.759187
_cell_angle_alpha 90.000000
_cell_angle_beta 90.000000
_cell_angle_gamma 90.000000
_cell_volume 4253.330428
_symmetry_space_group_name_H-M "I B C A "
_symmetry_group_IT_number 73
_symmetry_cell_setting 'orthorhombic'
loop_
_space_group_symop_operation_xyz
x,y,z
-x,1/2-y,z
x,-y,1/2-z
1/2-x,y,-z
-x,-y,-z
x,1/2+y,-z
-x,y,1/2+z
1/2+x,-y,z
1/2+x,1/2+y,1/2+z
1/2-x,-y,1/2+z
1/2+x,1/2-y,-z
-x,1/2+y,1/2-z
1/2-x,1/2-y,1/2-z
1/2+x,y,1/2-z
1/2-x,1/2+y,z
x,1/2-y,1/2+z
loop_
_atom_site_type_symbol
_atom_site_label
_atom_site_fract_x
_atom_site_fract_y
_atom_site_fract_z
Si Si1 0.109484 0.692879 0.467711
Si Si2 0.018291 0.916023 0.397203
Si Si3 0.465524 0.133429 0.184962
Si Si4 0.000000 0.250000 0.729765
Si Si5 0.313741 0.000000 0.250000
Si Si6 0.800626 0.950549 0.640480
Si Si7 0.695730 0.219048 0.358754
O O1 0.250000 0.674112 0.500000
O O2 0.015286 0.622018 0.454134
O O3 0.167179 0.733720 0.412749
O O4 0.000000 0.750000 0.494265
O O5 0.860284 0.936887 0.377645
O O6 0.090021 0.850776 0.363426
O O7 0.125915 0.982972 0.391381
O O8 0.529621 0.181817 0.232475
O O9 0.584111 0.113669 0.140492
O O10 0.346041 0.182879 0.155355
O O11 0.399277 0.061912 0.215428
O O12 0.863347 0.263753 0.692044
O O13 0.214932 0.965813 0.204144
#
# Coordination Sequence:
#
# PCOD9532895 Si02
#       7
#    16  16  16   8   8  16  16
#     4  10  24  45  76  99 128 170 224 290 359 421
#     4  11  22  44  65  92 130 176 225 280 349 396
#     4  12  26  37  62 100 140 189 234 271 320 409
#     4  12  24  38  62 102 138 182 226 284 330 400
#     4  12  22  38  60  90 138 192 240 256 318 404
#     4  12  24  39  61  92 134 184 227 273 327 400
#     4  11  22  44  64  93 140 175 222 286 343 397
#
# _framework density 22.570549
#
# number of rings (size 3 to 8) (size 9 to 14) (size 15 to 20)
#    0.000    0.667    5.833    3.000    2.333    1.333 
#    0.000    0.833    0.000    2.000    0.000    0.000 
#    0.000    0.000    0.000    0.000    0.000    0.000 
#
# Total GULP energy -268180.498206 kJ/mol
# GULP energy per Si atom -5587.093713 kJ/mol
# Density = 2.251918 g / cm^3
# Si number density = 22.570549 Si / 1000 Ang^3
#
#
#
# Elastic Constant Matrix: (Units=GPa)
#
#
# Indices 1 2 3 4 5 6 
#
# 1 100.1596 7.6893 12.6441 0.0000 0.0000 0.0000
# 2 7.6893 57.5413 10.9305 0.0000 0.0000 0.0000
# 3 12.6441 10.9305 8.0036 0.0000 0.0000 0.0000
# 4 0.0000 0.0000 0.0000 1.4756 0.0000 0.0000
# 5 0.0000 0.0000 0.0000 0.0000 30.4942 0.0000
# 6 0.0000 0.0000 0.0000 0.0000 0.0000 40.2643
#
#
#
# Elastic Compliance Matrix: (Units=1/GPa)
#
#
# Indices 1 2 3 4 5 6 
#
# 1 0.012815 0.002881 -0.024180 0.000000 0.000000 0.000000
# 2 0.002881 0.024114 -0.037484 0.000000 0.000000 0.000000
# 3 -0.024180 -0.037484 0.214336 0.000000 0.000000 0.000000
# 4 0.000000 0.000000 0.000000 0.677690 0.000000 0.000000
# 5 0.000000 0.000000 0.000000 0.000000 0.032793 0.000000
# 6 0.000000 0.000000 0.000000 0.000000 0.000000 0.024836
#
#
# Mechanical properties :
#
#
# Convention : Reuss Voigt Hill
#
# Bulk Modulus (GPa) = 7.47947 25.35914 16.41931
# Shear Modulus (GPa) = 4.35268 23.40953 13.88111
#
# Velocity S-wave (km/s) = 1.39020 3.22401 2.48263
# Velocity P-wave (km/s) = 2.42856 5.01187 3.93807
#
# Compressibility (1/GPa) = 0.13369935
#
# Stress axis : x y z
#
# Youngs Moduli (GPa) = 78.03108 41.46931 4.66557
#
# Poissons Ratio (x) = -0.11946 0.11281
# Poissons Ratio (y) = -0.22478 0.17488
# Poissons Ratio (z) = 1.88680 1.55443
#
# Static dielectric constant tensor:
#      x y z
#    x 1.886350 0.000000 0.000000 
#    y 0.000000 1.913420 0.000000 
#    z 0.000000 0.000000 1.848940 
# 
# From -- ./inp_files/31204.got.cif
#   From: 2010.05.17/outbox.cif.g08.bks.cpg/sg73_16_cif.got.tgz:31204.got - 2010.06.03 17:35:07.
