data_PCOD9532903
_publ_section_title
;
Structure prediction by ZEFSAII (Michael W. Deem and Ramdas Pophale) SiO2 
 PCOD9532903
Probable space group: I B C A 
;
_chemical_formula_sum "Si O2"
_cell_formula_units_Z 80
_cell_length_a 27.368876
_cell_length_b 7.590412
_cell_length_c 17.372398
_cell_angle_alpha 90.000000
_cell_angle_beta 90.000000
_cell_angle_gamma 90.000000
_cell_volume 3608.960111
_symmetry_space_group_name_H-M "I B C A "
_symmetry_group_IT_number 73
_symmetry_cell_setting 'orthorhombic'
loop_
_space_group_symop_operation_xyz
x,y,z
-x,1/2-y,z
x,-y,1/2-z
1/2-x,y,-z
-x,-y,-z
x,1/2+y,-z
-x,y,1/2+z
1/2+x,-y,z
1/2+x,1/2+y,1/2+z
1/2-x,-y,1/2+z
1/2+x,1/2-y,-z
-x,1/2+y,1/2-z
1/2-x,1/2-y,1/2-z
1/2+x,y,1/2-z
1/2-x,1/2+y,z
x,1/2-y,1/2+z
loop_
_atom_site_type_symbol
_atom_site_label
_atom_site_fract_x
_atom_site_fract_y
_atom_site_fract_z
Si Si1 0.675068 0.169112 0.840181
Si Si2 0.395989 0.675847 0.053056
Si Si3 0.465330 0.890540 0.940513
Si Si4 0.705556 0.022982 0.440053
Si Si5 0.205541 0.276222 0.312361
O O1 0.626082 0.181847 0.888840
O O2 0.710977 0.303541 0.886474
O O3 0.699286 0.977451 0.839233
O O4 0.664075 0.237664 0.754381
O O5 0.500000 0.750000 0.898021
O O6 0.431436 0.539148 0.096714
O O7 0.426749 0.772311 0.988225
O O8 0.347415 0.070186 0.976526
O O9 0.500000 0.000000 0.000000
O O10 0.750000 0.003871 0.500000
O O11 0.699481 0.862221 0.380658
O O12 0.250000 0.250000 0.250000
#
# Coordination Sequence:
#
# PCOD9532903 Si02
#       5
#    16  16  16  16  16
#     4   9  24  42  66  91 137 189 248 300 347 419
#     4   9  21  39  60 101 137 176 236 288 364 435
#     4   9  18  38  67  95 138 180 217 294 384 441
#     4  10  24  46  66 103 148 191 241 304 358 415
#     4  11  24  44  69  90 134 210 259 285 348 426
#
# _framework density 22.167051000000001
#
# number of rings (size 3 to 8) (size 9 to 14) (size 15 to 20)
#    1.200    1.200    0.000    0.600    5.600    5.600 
#    7.200    0.000    0.000    0.000    0.000   67.200 
#    0.000    6.400    0.000    0.000    0.000    0.000 
#
# Total GULP energy -222809.011952 kJ/mol
# GULP energy per Si atom -5570.225299 kJ/mol
# Density = 2.211660 g / cm^3
# Si number density = 22.167051 Si / 1000 Ang^3
#
#
#
# Elastic Constant Matrix: (Units=GPa)
#
#
# Indices 1 2 3 4 5 6 
#
# 1 111.3281 58.0020 36.1073 0.0000 0.0000 0.0000
# 2 58.0020 153.7208 60.0599 0.0000 0.0000 0.0000
# 3 36.1073 60.0599 108.5227 0.0000 0.0000 0.0000
# 4 0.0000 0.0000 0.0000 41.0178 0.0000 0.0000
# 5 0.0000 0.0000 0.0000 0.0000 6.9839 0.0000
# 6 0.0000 0.0000 0.0000 0.0000 0.0000 53.0165
#
#
#
# Elastic Compliance Matrix: (Units=1/GPa)
#
#
# Indices 1 2 3 4 5 6 
#
# 1 0.011452 -0.003614 -0.001810 0.000000 0.000000 0.000000
# 2 -0.003614 0.009440 -0.004022 0.000000 0.000000 0.000000
# 3 -0.001810 -0.004022 0.012043 0.000000 0.000000 0.000000
# 4 0.000000 0.000000 0.000000 0.024380 0.000000 0.000000
# 5 0.000000 0.000000 0.000000 0.000000 0.143187 0.000000
# 6 0.000000 0.000000 0.000000 0.000000 0.000000 0.018862
#
#
# Mechanical properties :
#
#
# Convention : Reuss Voigt Hill
#
# Bulk Modulus (GPa) = 71.21038 75.76778 73.48908
# Shear Modulus (GPa) = 20.58137 34.83046 27.70591
#
# Velocity S-wave (km/s) = 3.05038 3.96823 3.53918
# Velocity P-wave (km/s) = 6.67837 7.43306 7.06580
#
# Compressibility (1/GPa) = 0.01404290
#
# Stress axis : x y z
#
# Youngs Moduli (GPa) = 87.31729 105.92746 83.03565
#
# Poissons Ratio (x) = 0.38281 0.15033
# Poissons Ratio (y) = 0.31556 0.33399
# Poissons Ratio (z) = 0.15808 0.42606
#
# Static dielectric constant tensor:
#      x y z
#    x 1.982880 0.000000 0.000000 
#    y 0.000000 1.891010 0.000000 
#    z 0.000000 0.000000 1.941360 
# 
# From -- ./inp_files/19150.got.cif
#   From: 2010.05.17/outbox.cif.g08.bks.cpg/sg73_10_cif.got.tgz:19150.got - 2010.06.03 17:35:07.
