data_PCOD9532842
_publ_section_title
;
Structure prediction by ZEFSAII (Michael W. Deem and Ramdas Pophale) SiO2 
 PCOD9532842
Probable space group: I B C A 
;
_chemical_formula_sum "Si O2"
_cell_formula_units_Z 128
_cell_length_a 20.622768
_cell_length_b 23.206452
_cell_length_c 11.820296
_cell_angle_alpha 90.000000
_cell_angle_beta 90.000000
_cell_angle_gamma 90.000000
_cell_volume 5656.972339
_symmetry_space_group_name_H-M "I B C A "
_symmetry_group_IT_number 73
_symmetry_cell_setting 'orthorhombic'
loop_
_space_group_symop_operation_xyz
x,y,z
-x,1/2-y,z
x,-y,1/2-z
1/2-x,y,-z
-x,-y,-z
x,1/2+y,-z
-x,y,1/2+z
1/2+x,-y,z
1/2+x,1/2+y,1/2+z
1/2-x,-y,1/2+z
1/2+x,1/2-y,-z
-x,1/2+y,1/2-z
1/2-x,1/2-y,1/2-z
1/2+x,y,1/2-z
1/2-x,1/2+y,z
x,1/2-y,1/2+z
loop_
_atom_site_type_symbol
_atom_site_label
_atom_site_fract_x
_atom_site_fract_y
_atom_site_fract_z
Si Si1 0.814371 0.068725 0.574678
Si Si2 0.743102 0.133530 0.219958
Si Si3 0.321751 0.555110 0.450169
Si Si4 0.876499 0.667618 0.523877
Si Si5 0.035160 0.836421 0.727971
Si Si6 0.123936 0.062748 0.690319
Si Si7 0.596038 0.781690 0.218532
Si Si8 0.284566 0.755571 0.877567
O O1 0.750000 0.065433 0.500000
O O2 0.796453 0.113275 0.672002
O O3 0.868098 0.100054 0.499826
O O4 0.833955 0.005068 0.614137
O O5 0.693879 0.111538 0.121644
O O6 0.808816 0.096228 0.218962
O O7 0.759557 0.201266 0.203902
O O8 0.250000 0.546164 0.500000
O O9 0.371428 0.558677 0.553886
O O10 0.939982 0.674481 0.600222
O O11 0.879685 0.701368 0.405828
O O12 0.812606 0.691953 0.587926
O O13 0.065568 0.896262 0.769860
O O14 0.067272 0.782533 0.793403
O O15 0.959358 0.826988 0.745605
O O16 0.123877 0.000000 0.750000
O O17 0.648201 0.778471 0.319365
O O18 0.250000 0.771147 0.000000
#
# Coordination Sequence:
#
# PCOD9532842 Si02
#       8
#    16  16  16  16  16  16  16  16
#     4  11  20  37  60  91 135 182 218 275 348 423
#     4  11  21  37  60 101 140 178 227 284 352 421
#     4   9  19  33  57  93 131 174 222 277 343 405
#     4  11  23  42  64  93 136 180 228 279 350 418
#     4  10  24  44  69  95 130 184 239 289 340 414
#     4  11  21  39  68 101 136 182 237 287 346 419
#     4  10  24  45  65  96 130 186 233 290 353 418
#     4  11  24  40  64 100 141 170 220 287 357 421
#
# _framework density 22.626944999999999
#
# number of rings (size 3 to 8) (size 9 to 14) (size 15 to 20)
#    0.000    1.500    1.250    5.625    3.500    5.500 
#    0.000    0.000    2.750    1.500    0.000    0.000 
#    0.000    0.000    0.000    0.000    0.000    0.000 
#
# Total GULP energy -356496.769317 kJ/mol
# GULP energy per Si atom -5570.262021 kJ/mol
# Density = 2.257544 g / cm^3
# Si number density = 22.626945 Si / 1000 Ang^3
#
#
#
# Elastic Constant Matrix: (Units=GPa)
#
#
# Indices 1 2 3 4 5 6 
#
# 1 82.6692 28.0705 24.5312 0.0000 0.0000 0.0000
# 2 28.0705 165.4134 25.3260 0.0000 0.0000 0.0000
# 3 24.5312 25.3260 61.7789 0.0000 0.0000 0.0000
# 4 0.0000 0.0000 0.0000 45.6348 0.0000 0.0000
# 5 0.0000 0.0000 0.0000 0.0000 23.2862 0.0000
# 6 0.0000 0.0000 0.0000 0.0000 0.0000 106.0532
#
#
#
# Elastic Compliance Matrix: (Units=1/GPa)
#
#
# Indices 1 2 3 4 5 6 
#
# 1 0.014117 -0.001640 -0.004933 0.000000 0.000000 0.000000
# 2 -0.001640 0.006641 -0.002071 0.000000 0.000000 0.000000
# 3 -0.004933 -0.002071 0.018995 0.000000 0.000000 0.000000
# 4 0.000000 0.000000 0.000000 0.021913 0.000000 0.000000
# 5 0.000000 0.000000 0.000000 0.000000 0.042944 0.000000
# 6 0.000000 0.000000 0.000000 0.000000 0.000000 0.009429
#
#
# Mechanical properties :
#
#
# Convention : Reuss Voigt Hill
#
# Bulk Modulus (GPa) = 44.51655 51.74631 48.13143
# Shear Modulus (GPa) = 36.01881 50.45708 43.23795
#
# Velocity S-wave (km/s) = 3.99413 4.72736 4.37613
# Velocity P-wave (km/s) = 6.40216 7.26060 6.84485
#
# Compressibility (1/GPa) = 0.02246355
#
# Stress axis : x y z
#
# Youngs Moduli (GPa) = 70.83516 150.58141 52.64633
#
# Poissons Ratio (x) = 0.24701 0.25972
# Poissons Ratio (y) = 0.11620 0.10903
# Poissons Ratio (z) = 0.34945 0.31186
#
# Static dielectric constant tensor:
#      x y z
#    x 1.750770 0.000000 0.000000 
#    y 0.000000 1.974330 0.000000 
#    z 0.000000 0.000000 1.998960 
# 
# From -- ./inp_files/13925.got.cif
#   From: 2010.05.17/outbox.cif.g08.bks.cpg/sg73_7_cif.got.tgz:13925.got - 2010.06.03 17:35:07.
