data_PCOD9532186
_publ_section_title
;
Structure prediction by ZEFSAII (Michael W. Deem and Ramdas Pophale) SiO2 
 PCOD9532186
Probable space group: I B C A 
;
_chemical_formula_sum "Si O2"
_cell_formula_units_Z 72
_cell_length_a 11.760722
_cell_length_b 16.895698
_cell_length_c 13.834860
_cell_angle_alpha 90.000000
_cell_angle_beta 90.000000
_cell_angle_gamma 90.000000
_cell_volume 2749.064256
_symmetry_space_group_name_H-M "I B C A "
_symmetry_group_IT_number 73
_symmetry_cell_setting 'orthorhombic'
loop_
_space_group_symop_operation_xyz
x,y,z
-x,1/2-y,z
x,-y,1/2-z
1/2-x,y,-z
-x,-y,-z
x,1/2+y,-z
-x,y,1/2+z
1/2+x,-y,z
1/2+x,1/2+y,1/2+z
1/2-x,-y,1/2+z
1/2+x,1/2-y,-z
-x,1/2+y,1/2-z
1/2-x,1/2-y,1/2-z
1/2+x,y,1/2-z
1/2-x,1/2+y,z
x,1/2-y,1/2+z
loop_
_atom_site_type_symbol
_atom_site_label
_atom_site_fract_x
_atom_site_fract_y
_atom_site_fract_z
Si Si1 0.413012 0.159793 0.260389
Si Si2 0.090201 0.950792 0.937548
Si Si3 0.250000 0.575239 0.000000
Si Si4 0.915310 0.811515 0.581132
Si Si5 0.292326 0.300995 0.357396
O O1 0.440233 0.091925 0.337578
O O2 0.505418 0.160803 0.172658
O O3 0.387660 0.245498 0.311570
O O4 0.284964 0.148385 0.217166
O O5 0.119836 0.880984 0.011569
O O6 0.188159 0.016062 0.927056
O O7 0.000000 0.000000 0.000000
O O8 0.172866 0.636552 0.939282
O O9 0.803747 0.761435 0.607137
O O10 0.000000 0.750000 0.529454
#
# Coordination Sequence:
#
# PCOD9532186 Si02
#       5
#    16  16   8  16  16
#     4  10  23  44  68  99 134 179 233 276 326 396
#     4  12  26  42  66 102 143 180 216 276 346 404
#     4  12  26  44  68 102 140 176 216 278 350 404
#     4  10  22  42  69  98 130 178 234 280 326 392
#     4  10  22  43  73  99 127 177 232 281 330 393
#
# _framework density 26.190729999999999
#
# number of rings (size 3 to 8) (size 9 to 14) (size 15 to 20)
#    0.000    1.333    0.000    5.333    0.000   13.333 
#    0.000    2.222    0.000    0.000    0.000    0.000 
#    0.000    0.000    0.000    0.000    0.000    0.000 
#
# Total GULP energy -201245.947303 kJ/mol
# GULP energy per Si atom -5590.165203 kJ/mol
# Density = 2.613112 g / cm^3
# Si number density = 26.190730 Si / 1000 Ang^3
#
#
#
# Elastic Constant Matrix: (Units=GPa)
#
#
# Indices 1 2 3 4 5 6 
#
# 1 118.0396 37.5526 28.1473 0.0000 0.0000 0.0000
# 2 37.5526 152.0090 81.9033 -0.0001 0.0000 0.0000
# 3 28.1473 81.9033 130.8700 -0.0003 0.0000 0.0000
# 4 0.0000 -0.0001 -0.0003 67.2375 0.0000 0.0000
# 5 0.0000 0.0000 0.0000 0.0000 35.9753 0.0000
# 6 0.0000 0.0000 0.0000 0.0000 0.0000 38.2098
#
#
#
# Elastic Compliance Matrix: (Units=1/GPa)
#
#
# Indices 1 2 3 4 5 6 
#
# 1 0.009256 -0.001832 -0.000844 0.000000 0.000000 0.000000
# 2 -0.001832 0.010288 -0.006045 0.000000 0.000000 0.000000
# 3 -0.000844 -0.006045 0.011606 0.000000 0.000000 0.000000
# 4 0.000000 0.000000 0.000000 0.014873 0.000000 0.000000
# 5 0.000000 0.000000 0.000000 0.000000 0.027797 0.000000
# 6 0.000000 0.000000 0.000000 0.000000 0.000000 0.026171
#
#
# Mechanical properties :
#
#
# Convention : Reuss Voigt Hill
#
# Bulk Modulus (GPa) = 72.94935 77.34723 75.14829
# Shear Modulus (GPa) = 40.98330 45.17222 43.07776
#
# Velocity S-wave (km/s) = 3.96005 4.15751 4.05998
# Velocity P-wave (km/s) = 6.98734 7.25554 7.12270
#
# Compressibility (1/GPa) = 0.01370814
#
# Stress axis : x y z
#
# Youngs Moduli (GPa) = 108.04057 97.20142 86.16415
#
# Poissons Ratio (x) = 0.17803 0.07276
# Poissons Ratio (y) = 0.19788 0.52083
# Poissons Ratio (z) = 0.09123 0.58755
#
# Static dielectric constant tensor:
#      x y z
#    x 2.197620 0.000000 0.000000 
#    y 0.000000 2.035960 0.000000 
#    z 0.000000 0.000000 2.185820 
# 
# From -- ./inp_files/21816.got.cif
#   From: 2010.05.17/outbox.cif.g08.bks.cpg/sg73_11_cif.got.tgz:21816.got - 2010.06.03 17:35:07.
