data_PCOD9532634
_publ_section_title
;
Structure prediction by ZEFSAII (Michael W. Deem and Ramdas Pophale) SiO2 
 PCOD9532634
Probable space group: I B C A 
;
_chemical_formula_sum "Si O2"
_cell_formula_units_Z 88
_cell_length_a 16.683032
_cell_length_b 14.890106
_cell_length_c 15.661311
_cell_angle_alpha 90.000000
_cell_angle_beta 90.000000
_cell_angle_gamma 90.000000
_cell_volume 3890.459387
_symmetry_space_group_name_H-M "I B C A "
_symmetry_group_IT_number 73
_symmetry_cell_setting 'orthorhombic'
loop_
_space_group_symop_operation_xyz
x,y,z
-x,1/2-y,z
x,-y,1/2-z
1/2-x,y,-z
-x,-y,-z
x,1/2+y,-z
-x,y,1/2+z
1/2+x,-y,z
1/2+x,1/2+y,1/2+z
1/2-x,-y,1/2+z
1/2+x,1/2-y,-z
-x,1/2+y,1/2-z
1/2-x,1/2-y,1/2-z
1/2+x,y,1/2-z
1/2-x,1/2+y,z
x,1/2-y,1/2+z
loop_
_atom_site_type_symbol
_atom_site_label
_atom_site_fract_x
_atom_site_fract_y
_atom_site_fract_z
Si Si1 0.618698 0.000000 0.250000
Si Si2 0.354442 0.383787 0.573739
Si Si3 0.595236 0.748123 0.577490
Si Si4 0.522555 0.049643 0.090641
Si Si5 0.287177 0.664897 0.203826
Si Si6 0.160576 0.087463 0.514499
O O1 0.560400 0.992912 0.167555
O O2 0.679996 0.083052 0.240000
O O3 0.367472 0.305236 0.504167
O O4 0.442025 0.398901 0.616681
O O5 0.280992 0.366053 0.636719
O O6 0.337750 0.480991 0.530188
O O7 0.500000 0.750000 0.571086
O O8 0.632619 0.695646 0.655720
O O9 0.624916 0.850669 0.588210
O O10 0.598106 0.108827 0.061058
O O11 0.500000 0.000000 0.000000
O O12 0.250000 0.750000 0.250000
O O13 0.250000 0.118630 0.500000
#
# Coordination Sequence:
#
# PCOD9532634 Si02
#       6
#     8  16  16  16  16  16
#     4  12  28  48  76 110 162 196 260 326 376 472
#     4  11  24  48  73 107 147 193 254 310 382 457
#     4  12  26  46  78 110 146 195 259 318 375 471
#     4  10  23  45  78 112 144 204 250 307 387 455
#     4  12  30  47  71 110 155 199 253 317 391 455
#     4  11  22  41  79 104 145 194 250 304 385 448
#
# _framework density 22.619437999999999
#
# number of rings (size 3 to 8) (size 9 to 14) (size 15 to 20)
#    0.000    0.727    1.818    6.000   10.182    2.182 
#    0.000    0.000    0.000    0.000    0.000    0.000 
#    0.000    0.000    0.000    0.000    0.000    0.000 
#
# Total GULP energy -245582.651471 kJ/mol
# GULP energy per Si atom -5581.423897 kJ/mol
# Density = 2.256795 g / cm^3
# Si number density = 22.619438 Si / 1000 Ang^3
#
#
#
# Elastic Constant Matrix: (Units=GPa)
#
#
# Indices 1 2 3 4 5 6 
#
# 1 161.1428 32.1699 31.5883 0.0000 0.0000 0.0000
# 2 32.1699 111.9008 34.1072 0.0000 0.0000 0.0000
# 3 31.5883 34.1072 55.0637 0.0000 0.0000 0.0000
# 4 0.0000 0.0000 0.0000 12.8868 0.0000 0.0000
# 5 0.0000 0.0000 0.0000 0.0000 19.7757 0.0000
# 6 0.0000 0.0000 0.0000 0.0000 0.0000 36.7957
#
#
#
# Elastic Compliance Matrix: (Units=1/GPa)
#
#
# Indices 1 2 3 4 5 6 
#
# 1 0.007079 -0.000983 -0.003452 0.000000 0.000000 0.000000
# 2 -0.000983 0.011153 -0.006344 0.000000 0.000000 0.000000
# 3 -0.003452 -0.006344 0.024071 0.000000 0.000000 0.000000
# 4 0.000000 0.000000 0.000000 0.077599 0.000000 0.000000
# 5 0.000000 0.000000 0.000000 0.000000 0.050567 0.000000
# 6 0.000000 0.000000 0.000000 0.000000 0.000000 0.027177
#
#
# Mechanical properties :
#
#
# Convention : Reuss Voigt Hill
#
# Bulk Modulus (GPa) = 48.20700 58.20424 53.20562
# Shear Modulus (GPa) = 22.11229 29.24107 25.67668
#
# Velocity S-wave (km/s) = 3.13002 3.59937 3.37287
# Velocity P-wave (km/s) = 5.86695 6.56215 6.22426
#
# Compressibility (1/GPa) = 0.02074388
#
# Stress axis : x y z
#
# Youngs Moduli (GPa) = 141.27160 89.66359 41.54395
#
# Poissons Ratio (x) = 0.08812 0.14341
# Poissons Ratio (y) = 0.13885 0.26357
# Poissons Ratio (z) = 0.48767 0.56886
#
# Static dielectric constant tensor:
#      x y z
#    x 1.809780 0.000000 0.000000 
#    y 0.000000 1.922440 0.000000 
#    z 0.000000 0.000000 1.900570 
# 
# From -- ./inp_files/22454.got.cif
#   From: 2010.05.17/outbox.cif.g08.bks.cpg/sg73_12_cif.got.tgz:22454.got - 2010.06.03 17:35:07.
