data_PCOD9532941
_publ_section_title
;
Structure prediction by ZEFSAII (Michael W. Deem and Ramdas Pophale) SiO2 
 PCOD9532941
Probable space group: I B C A 
;
_chemical_formula_sum "Si O2"
_cell_formula_units_Z 120
_cell_length_a 22.355648
_cell_length_b 10.971097
_cell_length_c 20.197013
_cell_angle_alpha 90.000000
_cell_angle_beta 90.000000
_cell_angle_gamma 90.000000
_cell_volume 4953.640241
_symmetry_space_group_name_H-M "I B C A "
_symmetry_group_IT_number 73
_symmetry_cell_setting 'orthorhombic'
loop_
_space_group_symop_operation_xyz
x,y,z
-x,1/2-y,z
x,-y,1/2-z
1/2-x,y,-z
-x,-y,-z
x,1/2+y,-z
-x,y,1/2+z
1/2+x,-y,z
1/2+x,1/2+y,1/2+z
1/2-x,-y,1/2+z
1/2+x,1/2-y,-z
-x,1/2+y,1/2-z
1/2-x,1/2-y,1/2-z
1/2+x,y,1/2-z
1/2-x,1/2+y,z
x,1/2-y,1/2+z
loop_
_atom_site_type_symbol
_atom_site_label
_atom_site_fract_x
_atom_site_fract_y
_atom_site_fract_z
Si Si1 0.182553 0.348714 0.400135
Si Si2 0.757639 0.528344 0.079810
Si Si3 0.598455 0.482570 0.549247
Si Si4 0.297759 0.239521 0.859501
Si Si5 0.573090 0.500000 0.250000
Si Si6 0.883970 0.755923 0.977821
Si Si7 0.630254 0.754699 0.763240
Si Si8 0.473370 0.876796 0.832819
O O1 0.179885 0.490970 0.410384
O O2 0.255571 0.371913 0.388584
O O3 0.167972 0.280292 0.466864
O O4 0.152125 0.295039 0.336158
O O5 0.832830 0.518494 0.075843
O O6 0.748161 0.649875 0.127004
O O7 0.750000 0.544266 0.000000
O O8 0.586740 0.368462 0.500801
O O9 0.582216 0.614645 0.519505
O O10 0.560134 0.455034 0.613871
O O11 0.354479 0.247721 0.906038
O O12 0.317437 0.209411 0.785222
O O13 0.611324 0.382896 0.269737
O O14 0.529256 0.450317 0.194226
O O15 0.574137 0.665743 0.775640
O O16 0.500000 0.750000 0.860364
#
# Coordination Sequence:
#
# PCOD9532941 Si02
#       8
#    16  16  16  16   8  16  16  16
#     4  12  21  38  64  98 149 192 226 278 358 448
#     4  12  20  35  60  98 144 193 232 271 351 449
#     4  12  24  42  71 103 141 194 242 296 352 443
#     4  12  22  36  63 104 146 185 226 283 352 447
#     4  10  24  46  74  90 128 192 244 306 378 426
#     4  12  23  41  68 103 150 187 236 274 364 429
#     4  11  24  43  67 102 138 181 243 306 367 438
#     4  10  24  48  74  94 133 188 251 316 380 418
#
# _framework density 24.224609999999998
#
# number of rings (size 3 to 8) (size 9 to 14) (size 15 to 20)
#    0.000    0.533    6.667    1.600    1.867    0.000 
#    0.000    0.667    0.000    0.000    0.000    0.000 
#    0.000    0.000    0.000    0.000    0.000    0.000 
#
# Total GULP energy -334441.350328 kJ/mol
# GULP energy per Si atom -5574.022505 kJ/mol
# Density = 2.416947 g / cm^3
# Si number density = 24.224610 Si / 1000 Ang^3
#
#
#
# Elastic Constant Matrix: (Units=GPa)
#
#
# Indices 1 2 3 4 5 6 
#
# 1 35.6228 -2.5223 12.7897 0.0000 0.0000 0.0000
# 2 -2.5223 122.9016 0.4099 0.0000 0.0000 0.0000
# 3 12.7897 0.4099 71.2894 0.0000 0.0000 0.0000
# 4 0.0000 0.0000 0.0000 20.5805 0.0000 0.0000
# 5 0.0000 0.0000 0.0000 0.0000 25.7567 0.0000
# 6 0.0000 0.0000 0.0000 0.0000 0.0000 7.2630
#
#
#
# Elastic Compliance Matrix: (Units=1/GPa)
#
#
# Indices 1 2 3 4 5 6 
#
# 1 0.030054 0.000635 -0.005395 0.000000 0.000000 0.000000
# 2 0.000635 0.008150 -0.000161 0.000000 0.000000 0.000000
# 3 -0.005395 -0.000161 0.014996 0.000000 0.000000 0.000000
# 4 0.000000 0.000000 0.000000 0.048590 0.000000 0.000000
# 5 0.000000 0.000000 0.000000 0.000000 0.038825 0.000000
# 6 0.000000 0.000000 0.000000 0.000000 0.000000 0.137683
#
#
# Mechanical properties :
#
#
# Convention : Reuss Voigt Hill
#
# Bulk Modulus (GPa) = 23.06406 27.90759 25.48582
# Shear Modulus (GPa) = 16.52382 25.32915 20.92648
#
# Velocity S-wave (km/s) = 2.61455 3.23708 2.94232
# Velocity P-wave (km/s) = 4.31927 5.05143 4.69963
#
# Compressibility (1/GPa) = 0.04335750
#
# Stress axis : x y z
#
# Youngs Moduli (GPa) = 33.27345 122.69703 66.68342
#
# Poissons Ratio (x) = -0.07789 0.35979
# Poissons Ratio (y) = -0.02112 0.01072
# Poissons Ratio (z) = 0.17953 0.01972
#
# Static dielectric constant tensor:
#      x y z
#    x 2.111140 0.000000 0.000000 
#    y 0.000000 2.101240 0.000000 
#    z 0.000000 0.000000 1.907840 
# 
# From -- ./inp_files/27348.got.cif
#   From: 2010.05.17/outbox.cif.g08.bks.cpg/sg73_14_cif.got.tgz:27348.got - 2010.06.03 17:35:07.
