data_PCOD9532352
_publ_section_title
;
Structure prediction by ZEFSAII (Michael W. Deem and Ramdas Pophale) SiO2 
 PCOD9532352
Probable space group: I B C A 
;
_chemical_formula_sum "Si O2"
_cell_formula_units_Z 64
_cell_length_a 24.935864
_cell_length_b 11.339353
_cell_length_c 9.973011
_cell_angle_alpha 90.000000
_cell_angle_beta 90.000000
_cell_angle_gamma 90.000000
_cell_volume 2819.934326
_symmetry_space_group_name_H-M "I B C A "
_symmetry_group_IT_number 73
_symmetry_cell_setting 'orthorhombic'
loop_
_space_group_symop_operation_xyz
x,y,z
-x,1/2-y,z
x,-y,1/2-z
1/2-x,y,-z
-x,-y,-z
x,1/2+y,-z
-x,y,1/2+z
1/2+x,-y,z
1/2+x,1/2+y,1/2+z
1/2-x,-y,1/2+z
1/2+x,1/2-y,-z
-x,1/2+y,1/2-z
1/2-x,1/2-y,1/2-z
1/2+x,y,1/2-z
1/2-x,1/2+y,z
x,1/2-y,1/2+z
loop_
_atom_site_type_symbol
_atom_site_label
_atom_site_fract_x
_atom_site_fract_y
_atom_site_fract_z
Si Si1 0.891195 0.339173 0.232976
Si Si2 0.561939 0.004694 0.464798
Si Si3 0.145155 0.098244 0.665208
Si Si4 0.216019 0.796640 0.375861
O O1 0.926211 0.368810 0.102104
O O2 0.918483 0.409258 0.353066
O O3 0.882690 0.200447 0.254885
O O4 0.831332 0.377069 0.184229
O O5 0.599792 0.972485 0.587970
O O6 0.500000 0.000000 0.500000
O O7 0.183734 0.178772 0.573932
O O8 0.176274 0.000000 0.750000
O O9 0.250000 0.843962 0.500000
O O10 0.250000 0.750000 0.250000
#
# Coordination Sequence:
#
# PCOD9532352 Si02
#       4
#    16  16  16  16
#     4   9  25  46  67 105 145 172 259 298 353 472
#     4  11  24  47  70 100 141 196 234 308 377 419
#     4  10  25  43  69 101 143 178 249 299 360 458
#     4  10  22  45  71 102 144 189 231 304 382 425
#
# _framework density 22.695564000000001
#
# number of rings (size 3 to 8) (size 9 to 14) (size 15 to 20)
#    1.500    0.500    0.000    1.500   10.500    1.000 
#    9.000    0.000    0.000    0.000    0.000    0.000 
#    0.000    0.000    0.000    0.000    0.000    0.000 
#
# Total GULP energy -178267.343404 kJ/mol
# GULP energy per Si atom -5570.854481 kJ/mol
# Density = 2.264391 g / cm^3
# Si number density = 22.695564 Si / 1000 Ang^3
#
#
#
# Elastic Constant Matrix: (Units=GPa)
#
#
# Indices 1 2 3 4 5 6 
#
# 1 133.7108 2.0918 45.1324 0.0000 0.0000 0.0000
# 2 2.0918 98.3109 17.5876 0.0000 0.0000 0.0000
# 3 45.1324 17.5876 78.7305 0.0000 0.0000 0.0000
# 4 0.0000 0.0000 0.0000 25.3343 0.0000 0.0000
# 5 0.0000 0.0000 0.0000 0.0000 41.9074 0.0000
# 6 0.0000 0.0000 0.0000 0.0000 0.0000 38.1881
#
#
#
# Elastic Compliance Matrix: (Units=1/GPa)
#
#
# Indices 1 2 3 4 5 6 
#
# 1 0.009332 0.000790 -0.005526 0.000000 0.000000 0.000000
# 2 0.000790 0.010662 -0.002835 0.000000 0.000000 0.000000
# 3 -0.005526 -0.002835 0.016503 0.000000 0.000000 0.000000
# 4 0.000000 0.000000 0.000000 0.039472 0.000000 0.000000
# 5 0.000000 0.000000 0.000000 0.000000 0.023862 0.000000
# 6 0.000000 0.000000 0.000000 0.000000 0.000000 0.026186
#
#
# Mechanical properties :
#
#
# Convention : Reuss Voigt Hill
#
# Bulk Modulus (GPa) = 46.82698 48.93063 47.87881
# Shear Modulus (GPa) = 33.72086 37.48200 35.60143
#
# Velocity S-wave (km/s) = 3.85878 4.06829 3.96492
# Velocity P-wave (km/s) = 6.36640 6.60866 6.48866
#
# Compressibility (1/GPa) = 0.02135521
#
# Stress axis : x y z
#
# Youngs Moduli (GPa) = 107.16213 93.79004 60.59687
#
# Poissons Ratio (x) = -0.07409 0.33485
# Poissons Ratio (y) = -0.08466 0.17177
# Poissons Ratio (z) = 0.59216 0.26586
#
# Static dielectric constant tensor:
#      x y z
#    x 1.858530 0.000000 0.000000 
#    y 0.000000 1.937820 0.000000 
#    z 0.000000 0.000000 1.921820 
# 
# From -- ./inp_files/14092.got.cif
#   From: 2010.05.17/outbox.cif.g08.bks.cpg/sg73_8_cif.got.tgz:14092.got - 2010.06.03 17:35:07.
