data_PCOD9532205
_publ_section_title
;
Structure prediction by ZEFSAII (Michael W. Deem and Ramdas Pophale) SiO2 
 PCOD9532205
Probable space group: I B C A 
;
_chemical_formula_sum "Si O2"
_cell_formula_units_Z 64
_cell_length_a 8.760801
_cell_length_b 28.785478
_cell_length_c 12.435060
_cell_angle_alpha 90.000000
_cell_angle_beta 90.000000
_cell_angle_gamma 90.000000
_cell_volume 3135.921237
_symmetry_space_group_name_H-M "I B C A "
_symmetry_group_IT_number 73
_symmetry_cell_setting 'orthorhombic'
loop_
_space_group_symop_operation_xyz
x,y,z
-x,1/2-y,z
x,-y,1/2-z
1/2-x,y,-z
-x,-y,-z
x,1/2+y,-z
-x,y,1/2+z
1/2+x,-y,z
1/2+x,1/2+y,1/2+z
1/2-x,-y,1/2+z
1/2+x,1/2-y,-z
-x,1/2+y,1/2-z
1/2-x,1/2-y,1/2-z
1/2+x,y,1/2-z
1/2-x,1/2+y,z
x,1/2-y,1/2+z
loop_
_atom_site_type_symbol
_atom_site_label
_atom_site_fract_x
_atom_site_fract_y
_atom_site_fract_z
Si Si1 0.688393 0.500000 0.250000
Si Si2 0.859889 0.811658 0.168033
Si Si3 0.288830 0.793194 0.879965
Si Si4 0.448679 0.963637 0.592653
Si Si5 0.250000 0.385715 0.500000
O O1 0.579693 0.464225 0.315409
O O2 0.797721 0.478876 0.158796
O O3 0.824297 0.815170 0.293720
O O4 0.782713 0.762940 0.131004
O O5 0.792261 0.853287 0.099876
O O6 0.039245 0.807092 0.148504
O O7 0.250000 0.806839 0.000000
O O8 0.395117 0.917123 0.533248
O O9 0.500000 0.000000 0.500000
#
# Coordination Sequence:
#
# PCOD9532205 Si02
#       5
#     8  16  16  16   8
#     4  10  22  42  72  94 128 186 226 262 376 414
#     4  10  24  40  68 102 136 185 234 292 341 426
#     4  10  22  44  69  95 144 187 227 280 375 405
#     4  11  22  44  68  99 135 183 219 291 349 414
#     4  12  24  42  70 104 146 172 254 284 340 426
#
# _framework density 20.408674999999999
#
# number of rings (size 3 to 8) (size 9 to 14) (size 15 to 20)
#    0.000    1.500    3.750    0.000    3.500    4.000 
#    0.000    0.000    0.000    0.000    0.000    0.000 
#    0.000    0.000    0.000    0.000    0.000    0.000 
#
# Total GULP energy -178785.897279 kJ/mol
# GULP energy per Si atom -5587.059290 kJ/mol
# Density = 2.036222 g / cm^3
# Si number density = 20.408675 Si / 1000 Ang^3
#
#
#
# Elastic Constant Matrix: (Units=GPa)
#
#
# Indices 1 2 3 4 5 6 
#
# 1 96.0635 49.1107 78.0383 0.0000 0.0000 0.0000
# 2 49.1107 97.5793 64.2090 0.0000 0.0000 0.0000
# 3 78.0383 64.2090 210.4358 0.0001 0.0000 -0.0001
# 4 0.0000 0.0000 0.0001 34.8993 0.0000 0.0000
# 5 0.0000 0.0000 0.0000 0.0000 47.8554 0.0000
# 6 0.0000 0.0000 -0.0001 0.0000 0.0000 20.0227
#
#
#
# Elastic Compliance Matrix: (Units=1/GPa)
#
#
# Indices 1 2 3 4 5 6 
#
# 1 0.016973 -0.005506 -0.004614 0.000000 0.000000 0.000000
# 2 -0.005506 0.014609 -0.002416 0.000000 0.000000 0.000000
# 3 -0.004614 -0.002416 0.007200 0.000000 0.000000 0.000000
# 4 0.000000 0.000000 0.000000 0.028654 0.000000 0.000000
# 5 0.000000 0.000000 0.000000 0.000000 0.020896 0.000000
# 6 0.000000 0.000000 0.000000 0.000000 0.000000 0.049943
#
#
# Mechanical properties :
#
#
# Convention : Reuss Voigt Hill
#
# Bulk Modulus (GPa) = 72.93859 87.42164 80.18011
# Shear Modulus (GPa) = 29.77650 34.73686 32.25668
#
# Velocity S-wave (km/s) = 3.82385 4.13008 3.97991
# Velocity P-wave (km/s) = 7.43723 8.10382 7.77767
#
# Compressibility (1/GPa) = 0.01371016
#
# Stress axis : x y z
#
# Youngs Moduli (GPa) = 58.91645 68.45209 138.88368
#
# Poissons Ratio (x) = 0.37691 0.64085
# Poissons Ratio (y) = 0.32440 0.33548
# Poissons Ratio (z) = 0.27186 0.16535
#
# Static dielectric constant tensor:
#      x y z
#    x 1.866170 0.000000 0.000000 
#    y 0.000000 1.728170 0.000000 
#    z 0.000000 0.000000 1.728450 
# 
# From -- ./inp_files/4011.got.cif
#   From: 2010.05.17/outbox.cif.g08.bks.cpg/sg73_3_cif.got.tgz:4011.got - 2010.06.03 17:35:07.
