data_PCOD9532161
_publ_section_title
;
Structure prediction by ZEFSAII (Michael W. Deem and Ramdas Pophale) SiO2 
 PCOD9532161
Probable space group: I B C A 
;
_chemical_formula_sum "Si O2"
_cell_formula_units_Z 48
_cell_length_a 8.101961
_cell_length_b 14.182930
_cell_length_c 17.395993
_cell_angle_alpha 90.000000
_cell_angle_beta 90.000000
_cell_angle_gamma 90.000000
_cell_volume 1998.965653
_symmetry_space_group_name_H-M "I B C A "
_symmetry_group_IT_number 73
_symmetry_cell_setting 'orthorhombic'
loop_
_space_group_symop_operation_xyz
x,y,z
-x,1/2-y,z
x,-y,1/2-z
1/2-x,y,-z
-x,-y,-z
x,1/2+y,-z
-x,y,1/2+z
1/2+x,-y,z
1/2+x,1/2+y,1/2+z
1/2-x,-y,1/2+z
1/2+x,1/2-y,-z
-x,1/2+y,1/2-z
1/2-x,1/2-y,1/2-z
1/2+x,y,1/2-z
1/2-x,1/2+y,z
x,1/2-y,1/2+z
loop_
_atom_site_type_symbol
_atom_site_label
_atom_site_fract_x
_atom_site_fract_y
_atom_site_fract_z
Si Si1 0.334025 0.184737 0.335230
Si Si2 0.514944 0.976201 0.088828
Si Si3 0.675054 0.368808 0.160743
O O1 0.500000 0.250000 0.325226
O O2 0.376719 0.102529 0.393192
O O3 0.301112 0.137160 0.252572
O O4 0.195401 0.259016 0.360927
O O5 0.681080 0.925225 0.116573
O O6 0.483459 0.070286 0.138707
O O7 0.500000 0.000000 0.000000
#
# Coordination Sequence:
#
# PCOD9532161 Si02
#       3
#    16  16  16
#     4   9  21  42  68  95 125 170 225 271 316 381
#     4  11  23  42  66  98 136 170 210 268 334 391
#     4  10  22  42  67  96 128 170 220 268 321 387
#
# _framework density 24.012421
#
# number of rings (size 3 to 8) (size 9 to 14) (size 15 to 20)
#    0.000    2.000    0.000    2.000    0.000   13.333 
#    0.000   28.333    0.000    0.000    0.000    0.000 
#    0.000    0.000    0.000    0.000    0.000    0.000 
#
# Total GULP energy -134310.940147 kJ/mol
# GULP energy per Si atom -5596.289173 kJ/mol
# Density = 2.395777 g / cm^3
# Si number density = 24.012421 Si / 1000 Ang^3
#
#
#
# Elastic Constant Matrix: (Units=GPa)
#
#
# Indices 1 2 3 4 5 6 
#
# 1 64.6634 35.1354 32.4174 0.0000 0.0000 0.0000
# 2 35.1354 168.8136 115.7938 0.0000 0.0000 0.0000
# 3 32.4174 115.7938 145.5186 0.0000 0.0000 0.0000
# 4 0.0000 0.0000 0.0000 18.3315 0.0000 0.0000
# 5 0.0000 0.0000 0.0000 0.0000 30.9374 0.0000
# 6 0.0000 0.0000 0.0000 0.0000 0.0000 49.9404
#
#
#
# Elastic Compliance Matrix: (Units=1/GPa)
#
#
# Indices 1 2 3 4 5 6 
#
# 1 0.017761 -0.002164 -0.002235 0.000000 0.000000 0.000000
# 2 -0.002164 0.013306 -0.010106 0.000000 0.000000 0.000000
# 3 -0.002235 -0.010106 0.015412 0.000000 0.000000 0.000000
# 4 0.000000 0.000000 0.000000 0.054551 0.000000 0.000000
# 5 0.000000 0.000000 0.000000 0.000000 0.032323 0.000000
# 6 0.000000 0.000000 0.000000 0.000000 0.000000 0.020024
#
#
# Mechanical properties :
#
#
# Convention : Reuss Voigt Hill
#
# Bulk Modulus (GPa) = 57.24371 82.85431 70.04901
# Shear Modulus (GPa) = 26.56628 32.88513 29.72570
#
# Velocity S-wave (km/s) = 3.32980 3.70470 3.52224
# Velocity P-wave (km/s) = 6.21887 7.27182 6.76586
#
# Compressibility (1/GPa) = 0.01746917
#
# Stress axis : x y z
#
# Youngs Moduli (GPa) = 56.30403 75.15416 64.88644
#
# Poissons Ratio (x) = 0.16260 0.14502
# Poissons Ratio (y) = 0.12182 0.65574
# Poissons Ratio (z) = 0.12584 0.75951
#
# Static dielectric constant tensor:
#      x y z
#    x 2.115350 0.000000 0.000000 
#    y 0.000000 1.900080 0.000000 
#    z 0.000000 0.000000 1.812730 
# 
# From -- ./inp_files/4301.got.cif
#   From: 2010.05.17/outbox.cif.g08.bks.cpg/sg73_3_cif.got.tgz:4301.got - 2010.06.03 17:35:07.
