data_PCOD9532649
_publ_section_title
;
Structure prediction by ZEFSAII (Michael W. Deem and Ramdas Pophale) SiO2 
 PCOD9532649
Probable space group: I B C A 
;
_chemical_formula_sum "Si O2"
_cell_formula_units_Z 64
_cell_length_a 10.565679
_cell_length_b 26.221151
_cell_length_c 10.075665
_cell_angle_alpha 90.000000
_cell_angle_beta 90.000000
_cell_angle_gamma 90.000000
_cell_volume 2791.405199
_symmetry_space_group_name_H-M "I B C A "
_symmetry_group_IT_number 73
_symmetry_cell_setting 'orthorhombic'
loop_
_space_group_symop_operation_xyz
x,y,z
-x,1/2-y,z
x,-y,1/2-z
1/2-x,y,-z
-x,-y,-z
x,1/2+y,-z
-x,y,1/2+z
1/2+x,-y,z
1/2+x,1/2+y,1/2+z
1/2-x,-y,1/2+z
1/2+x,1/2-y,-z
-x,1/2+y,1/2-z
1/2-x,1/2-y,1/2-z
1/2+x,y,1/2-z
1/2-x,1/2+y,z
x,1/2-y,1/2+z
loop_
_atom_site_type_symbol
_atom_site_label
_atom_site_fract_x
_atom_site_fract_y
_atom_site_fract_z
Si Si1 0.750000 0.470048 0.500000
Si Si2 0.927737 0.091809 0.184799
Si Si3 0.702105 0.830835 0.850599
Si Si4 0.395320 0.000000 0.750000
Si Si5 0.465087 0.302314 0.293251
O O1 0.642562 0.434862 0.435626
O O2 0.689662 0.501531 0.619105
O O3 0.826256 0.113267 0.290973
O O4 0.018499 0.050393 0.250893
O O5 0.000111 0.143265 0.139737
O O6 0.567514 0.803286 0.826702
O O7 0.816450 0.806256 0.765417
O O8 0.750000 0.829450 0.000000
O O9 0.500000 0.250000 0.366846
#
# Coordination Sequence:
#
# PCOD9532649 Si02
#       5
#     8  16  16   8  16
#     4  12  26  50  76 112 150 202 254 326 392 478
#     4  10  26  43  76 104 156 192 260 313 391 454
#     4  10  24  45  72 109 151 200 251 319 379 460
#     4  12  26  52  76 114 150 208 252 334 386 476
#     4  10  23  46  71 110 155 202 257 315 381 460
#
# _framework density 22.927520999999999
#
# number of rings (size 3 to 8) (size 9 to 14) (size 15 to 20)
#    1.500    0.000    0.000    3.750    3.500    1.000 
#   13.500    0.000    0.000    0.000    0.000    0.000 
#    0.000    0.000    0.000    0.000    0.000    0.000 
#
# Total GULP energy -178581.232433 kJ/mol
# GULP energy per Si atom -5580.663514 kJ/mol
# Density = 2.287534 g / cm^3
# Si number density = 22.927521 Si / 1000 Ang^3
#
#
#
# Elastic Constant Matrix: (Units=GPa)
#
#
# Indices 1 2 3 4 5 6 
#
# 1 149.8448 63.1658 69.2951 0.0000 0.0001 -0.0004
# 2 63.1658 138.8180 17.8872 -0.0001 -0.0001 0.0002
# 3 69.2951 17.8872 105.6934 0.0007 0.0000 -0.0016
# 4 0.0000 -0.0001 0.0007 -10.9600 0.0003 0.0000
# 5 0.0001 -0.0001 0.0000 0.0003 26.4988 0.0004
# 6 -0.0004 0.0002 -0.0016 0.0000 0.0004 50.8223
#
#
#
# Elastic Compliance Matrix: (Units=1/GPa)
#
#
# Indices 1 2 3 4 5 6 
#
# 1 0.011775 -0.004460 -0.006965 0.000000 0.000000 0.000000
# 2 -0.004460 0.009054 0.001392 0.000000 0.000000 0.000000
# 3 -0.006965 0.001392 0.013792 0.000001 0.000000 0.000000
# 4 0.000000 0.000000 0.000001 -0.091241 0.000001 0.000000
# 5 0.000000 0.000000 0.000000 0.000001 0.037738 0.000000
# 6 0.000000 0.000000 0.000000 0.000000 0.000000 0.019676
#
#
# Mechanical properties :
#
#
# Convention : Reuss Voigt Hill
#
# Bulk Modulus (GPa) = 68.70831 77.22804 72.96817
# Shear Modulus (GPa) = 194.46374 29.53943 112.00159
#
# Velocity S-wave (km/s) = 9.21959 3.59330 6.99688
# Velocity P-wave (km/s) = 11.97360 7.13950 9.85747
#
# Compressibility (1/GPa) = 0.01455428
#
# Stress axis : x y z
#
# Youngs Moduli (GPa) = 84.92806 110.45003 72.50530
#
# Poissons Ratio (x) = 0.49264 0.50499
# Poissons Ratio (y) = 0.37881 -0.10093
# Poissons Ratio (z) = 0.59152 -0.15375
#
# Static dielectric constant tensor:
#      x y z
#    x 1.899970 0.000000 0.000000 
#    y 0.000000 1.879640 0.000000 
#    z 0.000000 0.000000 1.810920 
# 
# From -- ./inp_files/9614.got.cif
#   From: 2010.05.17/outbox.cif.g08.bks.cpg/sg73_5_cif.got.tgz:9614.got - 2010.06.03 17:35:07.
