data_PCOD9532564
_publ_section_title
;
Structure prediction by ZEFSAII (Michael W. Deem and Ramdas Pophale) SiO2 
 PCOD9532564
Probable space group: I B C A 
;
_chemical_formula_sum "Si O2"
_cell_formula_units_Z 112
_cell_length_a 22.717954
_cell_length_b 13.680336
_cell_length_c 15.439193
_cell_angle_alpha 90.000000
_cell_angle_beta 90.000000
_cell_angle_gamma 90.000000
_cell_volume 4798.335120
_symmetry_space_group_name_H-M "I B C A "
_symmetry_group_IT_number 73
_symmetry_cell_setting 'orthorhombic'
loop_
_space_group_symop_operation_xyz
x,y,z
-x,1/2-y,z
x,-y,1/2-z
1/2-x,y,-z
-x,-y,-z
x,1/2+y,-z
-x,y,1/2+z
1/2+x,-y,z
1/2+x,1/2+y,1/2+z
1/2-x,-y,1/2+z
1/2+x,1/2-y,-z
-x,1/2+y,1/2-z
1/2-x,1/2-y,1/2-z
1/2+x,y,1/2-z
1/2-x,1/2+y,z
x,1/2-y,1/2+z
loop_
_atom_site_type_symbol
_atom_site_label
_atom_site_fract_x
_atom_site_fract_y
_atom_site_fract_z
Si Si1 0.040677 0.401483 0.070275
Si Si2 0.126758 0.396746 0.770459
Si Si3 0.250000 0.735083 0.500000
Si Si4 0.923909 0.313419 0.021052
Si Si5 0.549719 0.000000 0.750000
Si Si6 0.067450 0.211317 0.820602
Si Si7 0.656996 0.425290 0.531892
Si Si8 0.803911 0.613557 0.392352
O O1 0.058826 0.286454 0.070837
O O2 0.024646 0.455108 0.159792
O O3 0.021163 0.610677 0.980064
O O4 0.100067 0.446695 0.027571
O O5 0.094607 0.500000 0.750000
O O6 0.096874 0.292322 0.759170
O O7 0.134591 0.400429 0.872525
O O8 0.184345 0.398980 0.709459
O O9 0.306166 0.665490 0.503385
O O10 0.244949 0.808068 0.418403
O O11 0.867249 0.353773 0.069374
O O12 0.912106 0.289335 0.920639
O O13 0.577646 0.897979 0.785045
O O14 0.000000 0.250000 0.824056
O O15 0.701489 0.512438 0.556610
#
# Coordination Sequence:
#
# PCOD9532564 Si02
#       8
#    16  16   8  16   8  16  16  16
#     4  11  23  46  67 104 141 192 236 296 373 449
#     4  10  23  43  71 102 134 184 246 305 369 438
#     4  12  24  44  70 100 136 194 236 308 372 434
#     4  11  22  46  74  97 147 194 241 292 369 459
#     4  12  30  36  68 106 148 186 250 308 364 442
#     4  12  24  42  62 101 144 193 239 292 369 438
#     4  11  23  45  73  97 140 186 243 295 370 452
#     4  11  24  41  71 103 134 184 242 306 366 440
#
# _framework density 23.341429999999999
#
# number of rings (size 3 to 8) (size 9 to 14) (size 15 to 20)
#    0.000    0.857    4.286    2.143    5.000    4.000 
#    0.000    0.000    7.857    0.000    0.000    0.000 
#    0.000    0.000    0.000    0.000    0.000    0.000 
#
# Total GULP energy -312216.411770 kJ/mol
# GULP energy per Si atom -5575.293067 kJ/mol
# Density = 2.328830 g / cm^3
# Si number density = 23.341430 Si / 1000 Ang^3
#
#
#
# Elastic Constant Matrix: (Units=GPa)
#
#
# Indices 1 2 3 4 5 6 
#
# 1 32.7492 -1.1195 22.1328 0.0000 0.0000 0.0000
# 2 -1.1195 152.7492 35.7332 0.0000 0.0000 0.0000
# 3 22.1328 35.7332 116.3026 0.0000 0.0000 0.0000
# 4 0.0000 0.0000 0.0000 44.1592 0.0000 0.0000
# 5 0.0000 0.0000 0.0000 0.0000 25.3472 0.0000
# 6 0.0000 0.0000 0.0000 0.0000 0.0000 21.2490
#
#
#
# Elastic Compliance Matrix: (Units=1/GPa)
#
#
# Indices 1 2 3 4 5 6 
#
# 1 0.035594 0.001988 -0.007385 0.000000 0.000000 0.000000
# 2 0.001988 0.007165 -0.002580 0.000000 0.000000 0.000000
# 3 -0.007385 -0.002580 0.010796 0.000000 0.000000 0.000000
# 4 0.000000 0.000000 0.000000 0.022645 0.000000 0.000000
# 5 0.000000 0.000000 0.000000 0.000000 0.039452 0.000000
# 6 0.000000 0.000000 0.000000 0.000000 0.000000 0.047061
#
#
# Mechanical properties :
#
#
# Convention : Reuss Voigt Hill
#
# Bulk Modulus (GPa) = 26.59372 46.14378 36.36875
# Shear Modulus (GPa) = 26.15074 34.48804 30.31939
#
# Velocity S-wave (km/s) = 3.35081 3.84806 3.60801
# Velocity P-wave (km/s) = 5.13698 6.28930 5.74212
#
# Compressibility (1/GPa) = 0.03760287
#
# Stress axis : x y z
#
# Youngs Moduli (GPa) = 28.09485 139.57255 92.62554
#
# Poissons Ratio (x) = -0.27752 0.68399
# Poissons Ratio (y) = -0.05586 0.23895
# Poissons Ratio (z) = 0.20747 0.36006
#
# Static dielectric constant tensor:
#      x y z
#    x 1.917650 0.000000 0.000000 
#    y 0.000000 1.981790 0.000000 
#    z 0.000000 0.000000 1.870120 
# 
# From -- ./inp_files/20092.got.cif
#   From: 2010.05.17/outbox.cif.g08.bks.cpg/sg73_11_cif.got.tgz:20092.got - 2010.06.03 17:35:07.
