data_PCOD9532749
_publ_section_title
;
Structure prediction by ZEFSAII (Michael W. Deem and Ramdas Pophale) SiO2 
 PCOD9532749
Probable space group: I B C A 
;
_chemical_formula_sum "Si O2"
_cell_formula_units_Z 56
_cell_length_a 8.391112
_cell_length_b 25.119111
_cell_length_c 12.954972
_cell_angle_alpha 90.000000
_cell_angle_beta 90.000000
_cell_angle_gamma 90.000000
_cell_volume 2730.613680
_symmetry_space_group_name_H-M "I B C A "
_symmetry_group_IT_number 73
_symmetry_cell_setting 'orthorhombic'
loop_
_space_group_symop_operation_xyz
x,y,z
-x,1/2-y,z
x,-y,1/2-z
1/2-x,y,-z
-x,-y,-z
x,1/2+y,-z
-x,y,1/2+z
1/2+x,-y,z
1/2+x,1/2+y,1/2+z
1/2-x,-y,1/2+z
1/2+x,1/2-y,-z
-x,1/2+y,1/2-z
1/2-x,1/2-y,1/2-z
1/2+x,y,1/2-z
1/2-x,1/2+y,z
x,1/2-y,1/2+z
loop_
_atom_site_type_symbol
_atom_site_label
_atom_site_fract_x
_atom_site_fract_y
_atom_site_fract_z
Si Si1 0.743091 0.688122 0.619180
Si Si2 0.198376 0.957344 0.114888
Si Si3 0.666612 0.930965 0.829260
Si Si4 0.500000 0.750000 0.244647
O O1 0.750000 0.703209 0.500000
O O2 0.777409 0.625778 0.630610
O O3 0.578957 0.705530 0.672070
O O4 0.873900 0.720949 0.682697
O O5 0.308110 0.932831 0.205430
O O6 0.015833 0.942610 0.139454
O O7 0.225980 0.020829 0.126673
O O8 0.250000 0.941147 0.000000
#
# Coordination Sequence:
#
# PCOD9532749 Si02
#       4
#    16  16  16   8
#     4  11  23  43  66  90 123 162 202 258 312 361
#     4  11  23  40  61  91 132 166 203 255 304 365
#     4  11  23  39  62  93 125 165 212 247 304 379
#     4  10  24  42  64  94 120 154 212 258 306 372
#
# _framework density 20.508209999999998
#
# number of rings (size 3 to 8) (size 9 to 14) (size 15 to 20)
#    0.000    1.143    0.000    7.714    0.000    4.571 
#    0.000    7.143    0.000    0.000    0.000    0.000 
#    0.000    0.000    0.000    0.000    0.000    0.000 
#
# Total GULP energy -156676.759708 kJ/mol
# GULP energy per Si atom -5595.598561 kJ/mol
# Density = 2.046153 g / cm^3
# Si number density = 20.508210 Si / 1000 Ang^3
#
#
#
# Elastic Constant Matrix: (Units=GPa)
#
#
# Indices 1 2 3 4 5 6 
#
# 1 132.3216 58.3513 72.9549 0.0000 0.0000 0.0000
# 2 58.3513 75.1530 38.2430 0.0000 0.0000 0.0000
# 3 72.9549 38.2430 195.0288 -0.0001 0.0001 0.0000
# 4 0.0000 0.0000 -0.0001 8.5707 0.0000 0.0000
# 5 0.0000 0.0000 0.0001 0.0000 11.4831 0.0000
# 6 0.0000 0.0000 0.0000 0.0000 0.0000 22.7450
#
#
#
# Elastic Compliance Matrix: (Units=1/GPa)
#
#
# Indices 1 2 3 4 5 6 
#
# 1 0.013097 -0.008526 -0.003227 0.000000 0.000000 0.000000
# 2 -0.008526 0.020332 -0.000797 0.000000 0.000000 0.000000
# 3 -0.003227 -0.000797 0.006491 0.000000 0.000000 0.000000
# 4 0.000000 0.000000 0.000000 0.116677 0.000000 0.000000
# 5 0.000000 0.000000 0.000000 0.000000 0.087084 0.000000
# 6 0.000000 0.000000 0.000000 0.000000 0.000000 0.043966
#
#
# Mechanical properties :
#
#
# Convention : Reuss Voigt Hill
#
# Bulk Modulus (GPa) = 67.48641 82.40019 74.94330
# Shear Modulus (GPa) = 15.73873 24.09004 19.91438
#
# Velocity S-wave (km/s) = 2.77327 3.43104 3.11954
# Velocity P-wave (km/s) = 6.57519 7.48080 7.04257
#
# Compressibility (1/GPa) = 0.01481780
#
# Stress axis : x y z
#
# Youngs Moduli (GPa) = 76.35555 49.18303 154.05964
#
# Poissons Ratio (x) = 0.41936 0.49717
# Poissons Ratio (y) = 0.65104 0.12285
# Poissons Ratio (z) = 0.24641 0.03922
#
# Static dielectric constant tensor:
#      x y z
#    x 1.729130 0.000000 0.000000 
#    y 0.000000 1.691550 0.000000 
#    z 0.000000 0.000000 1.728900 
# 
# From -- ./inp_files/3842.got.cif
#   From: 2010.05.17/outbox.cif.g08.bks.cpg/sg73_2_cif.got.tgz:3842.got - 2010.06.03 17:35:07.
