data_PCOD9532030
_publ_section_title
;
Structure prediction by ZEFSAII (Michael W. Deem and Ramdas Pophale) SiO2 
 PCOD9532030
Probable space group: I B C A 
;
_chemical_formula_sum "Si O2"
_cell_formula_units_Z 72
_cell_length_a 9.369950
_cell_length_b 18.604363
_cell_length_c 18.802346
_cell_angle_alpha 90.000000
_cell_angle_beta 90.000000
_cell_angle_gamma 90.000000
_cell_volume 3277.661640
_symmetry_space_group_name_H-M "I B C A "
_symmetry_group_IT_number 73
_symmetry_cell_setting 'orthorhombic'
loop_
_space_group_symop_operation_xyz
x,y,z
-x,1/2-y,z
x,-y,1/2-z
1/2-x,y,-z
-x,-y,-z
x,1/2+y,-z
-x,y,1/2+z
1/2+x,-y,z
1/2+x,1/2+y,1/2+z
1/2-x,-y,1/2+z
1/2+x,1/2-y,-z
-x,1/2+y,1/2-z
1/2-x,1/2-y,1/2-z
1/2+x,y,1/2-z
1/2-x,1/2+y,z
x,1/2-y,1/2+z
loop_
_atom_site_type_symbol
_atom_site_label
_atom_site_fract_x
_atom_site_fract_y
_atom_site_fract_z
Si Si1 0.214724 0.013805 0.334589
Si Si2 0.720566 0.181409 0.168959
Si Si3 0.959679 0.959193 0.073089
Si Si4 0.000000 0.250000 0.730825
Si Si5 0.097482 0.690471 0.531382
O O1 0.245823 0.098086 0.346939
O O2 0.053366 0.007905 0.362305
O O3 0.232793 0.000000 0.250000
O O4 0.304400 0.967902 0.392152
O O5 0.593298 0.191232 0.225708
O O6 0.657255 0.226194 0.103399
O O7 0.873221 0.211314 0.189987
O O8 0.003536 0.877536 0.054751
O O9 0.000000 0.000000 0.000000
O O10 0.250000 0.665697 0.500000
O O11 0.000000 0.750000 0.492643
#
# Coordination Sequence:
#
# PCOD9532030 Si02
#       5
#    16  16  16   8  16
#     4  11  25  40  69 100 133 174 235 280 331 409
#     4  10  23  42  64  97 132 173 219 275 341 405
#     4  11  24  46  66  96 140 180 219 282 349 411
#     4  10  22  40  68  90 140 170 212 278 352 390
#     4  11  25  45  67  98 131 173 233 281 334 419
#
# _framework density 21.96688
#
# number of rings (size 3 to 8) (size 9 to 14) (size 15 to 20)
#    0.000    1.333    1.111    4.000   10.889    1.778 
#    0.000    0.000    0.000    0.000    0.000    0.000 
#    0.000    0.000    0.000    0.000    0.000    0.000 
#
# Total GULP energy -200476.217099 kJ/mol
# GULP energy per Si atom -5568.783808 kJ/mol
# Density = 2.191688 g / cm^3
# Si number density = 21.966880 Si / 1000 Ang^3
#
#
#
# Elastic Constant Matrix: (Units=GPa)
#
#
# Indices 1 2 3 4 5 6 
#
# 1 91.5752 32.1600 -7.5920 0.0000 0.0000 0.0000
# 2 32.1600 80.8666 12.6711 0.0000 0.0000 0.0000
# 3 -7.5920 12.6711 69.7454 0.0000 0.0000 0.0000
# 4 0.0000 0.0000 0.0000 25.6032 0.0000 0.0000
# 5 0.0000 0.0000 0.0000 0.0000 60.9820 0.0000
# 6 0.0000 0.0000 0.0000 0.0000 0.0000 8.6130
#
#
#
# Elastic Compliance Matrix: (Units=1/GPa)
#
#
# Indices 1 2 3 4 5 6 
#
# 1 0.013084 -0.005585 0.002439 0.000000 0.000000 0.000000
# 2 -0.005585 0.015113 -0.003354 0.000000 0.000000 0.000000
# 3 0.002439 -0.003354 0.015213 0.000000 0.000000 0.000000
# 4 0.000000 0.000000 0.000000 0.039058 0.000000 0.000000
# 5 0.000000 0.000000 0.000000 0.000000 0.016398 0.000000
# 6 0.000000 0.000000 0.000000 0.000000 0.000000 0.116104
#
#
# Mechanical properties :
#
#
# Convention : Reuss Voigt Hill
#
# Bulk Modulus (GPa) = 32.88514 35.18506 34.03510
# Shear Modulus (GPa) = 20.99907 32.70285 26.85096
#
# Velocity S-wave (km/s) = 3.09519 3.86260 3.49999
# Velocity P-wave (km/s) = 5.27033 5.99541 5.64453
#
# Compressibility (1/GPa) = 0.03040887
#
# Stress axis : x y z
#
# Youngs Moduli (GPa) = 76.43091 66.16902 65.73487
#
# Poissons Ratio (x) = 0.36958 -0.16032
# Poissons Ratio (y) = 0.42690 0.22045
# Poissons Ratio (z) = -0.18641 0.22191
#
# Static dielectric constant tensor:
#      x y z
#    x 1.613370 0.000000 0.000000 
#    y 0.000000 1.815420 0.000000 
#    z 0.000000 0.000000 1.948500 
# 
# From -- ./inp_files/5313.got.cif
#   From: 2010.05.17/outbox.cif.g08.bks.cpg/sg73_3_cif.got.tgz:5313.got - 2010.06.03 17:35:07.
