data_PCOD9532221
_publ_section_title
;
Structure prediction by ZEFSAII (Michael W. Deem and Ramdas Pophale) SiO2 
 PCOD9532221
Probable space group: I B C A 
;
_chemical_formula_sum "Si O2"
_cell_formula_units_Z 64
_cell_length_a 10.505837
_cell_length_b 18.405207
_cell_length_c 14.571023
_cell_angle_alpha 90.000000
_cell_angle_beta 90.000000
_cell_angle_gamma 90.000000
_cell_volume 2817.483675
_symmetry_space_group_name_H-M "I B C A "
_symmetry_group_IT_number 73
_symmetry_cell_setting 'orthorhombic'
loop_
_space_group_symop_operation_xyz
x,y,z
-x,1/2-y,z
x,-y,1/2-z
1/2-x,y,-z
-x,-y,-z
x,1/2+y,-z
-x,y,1/2+z
1/2+x,-y,z
1/2+x,1/2+y,1/2+z
1/2-x,-y,1/2+z
1/2+x,1/2-y,-z
-x,1/2+y,1/2-z
1/2-x,1/2-y,1/2-z
1/2+x,y,1/2-z
1/2-x,1/2+y,z
x,1/2-y,1/2+z
loop_
_atom_site_type_symbol
_atom_site_label
_atom_site_fract_x
_atom_site_fract_y
_atom_site_fract_z
Si Si1 0.605167 0.192609 0.899676
Si Si2 0.995198 0.080912 0.724490
Si Si3 0.633329 0.014973 0.443950
Si Si4 0.370573 0.351846 0.100759
O O1 0.500000 0.250000 0.869298
O O2 0.596523 0.124976 0.832034
O O3 0.756168 0.206768 0.893250
O O4 0.566563 0.170086 0.003644
O O5 0.888902 0.061909 0.647613
O O6 0.952775 0.131963 0.808957
O O7 0.040877 0.000000 0.750000
O O8 0.750000 0.048453 0.500000
O O9 0.500000 0.000000 0.500000
O O10 0.677546 0.934150 0.416682
#
# Coordination Sequence:
#
# PCOD9532221 Si02
#       4
#    16  16  16  16
#     4  11  23  44  65  90 141 190 229 286 356 420
#     4  10  23  38  69 103 130 177 228 290 356 416
#     4  11  19  38  68  98 139 177 222 291 357 416
#     4  10  22  43  64  93 138 178 229 296 344 417
#
# _framework density 22.715306000000002
#
# number of rings (size 3 to 8) (size 9 to 14) (size 15 to 20)
#    0.000    1.500    5.000    0.000    0.000    9.000 
#    4.500    0.000    0.000    0.000    0.000    0.000 
#    0.000    0.000    0.000    0.000    0.000    0.000 
#
# Total GULP energy -178158.208385 kJ/mol
# GULP energy per Si atom -5567.444012 kJ/mol
# Density = 2.266360 g / cm^3
# Si number density = 22.715306 Si / 1000 Ang^3
#
#
#
# Elastic Constant Matrix: (Units=GPa)
#
#
# Indices 1 2 3 4 5 6 
#
# 1 69.4742 24.8059 42.7451 0.0000 0.0000 0.0000
# 2 24.8059 34.4606 15.1003 0.0000 0.0000 0.0000
# 3 42.7451 15.1003 127.0918 0.0000 0.0000 0.0000
# 4 0.0000 0.0000 0.0000 32.1743 0.0000 0.0000
# 5 0.0000 0.0000 0.0000 0.0000 7.0609 0.0000
# 6 0.0000 0.0000 0.0000 0.0000 0.0000 22.1913
#
#
#
# Elastic Compliance Matrix: (Units=1/GPa)
#
#
# Indices 1 2 3 4 5 6 
#
# 1 0.023156 -0.013984 -0.006127 0.000000 0.000000 0.000000
# 2 -0.013984 0.039057 0.000063 0.000000 0.000000 0.000000
# 3 -0.006127 0.000063 0.009922 0.000000 0.000000 0.000000
# 4 0.000000 0.000000 0.000000 0.031081 0.000000 0.000000
# 5 0.000000 0.000000 0.000000 0.000000 0.141624 0.000000
# 6 0.000000 0.000000 0.000000 0.000000 0.000000 0.045063
#
#
# Mechanical properties :
#
#
# Convention : Reuss Voigt Hill
#
# Bulk Modulus (GPa) = 31.21189 44.03659 37.62424
# Shear Modulus (GPa) = 14.67657 22.17698 18.42678
#
# Velocity S-wave (km/s) = 2.54463 3.12797 2.85126
# Velocity P-wave (km/s) = 4.73326 5.69860 5.23821
#
# Compressibility (1/GPa) = 0.03203908
#
# Stress axis : x y z
#
# Youngs Moduli (GPa) = 43.18450 25.60335 100.79119
#
# Poissons Ratio (x) = 0.35804 0.61752
# Poissons Ratio (y) = 0.60390 -0.00632
# Poissons Ratio (z) = 0.26458 -0.00161
#
# Static dielectric constant tensor:
#      x y z
#    x 2.065990 0.000000 0.000000 
#    y 0.000000 1.851640 0.000000 
#    z 0.000000 0.000000 1.966570 
# 
# From -- ./inp_files/15874.got.cif
#   From: 2010.05.17/outbox.cif.g08.bks.cpg/sg73_8_cif.got.tgz:15874.got - 2010.06.03 17:35:07.
