data_PCOD9532957
_publ_section_title
;
Structure prediction by ZEFSAII (Michael W. Deem and Ramdas Pophale) SiO2 
 PCOD9532957
Probable space group: I B C A 
;
_chemical_formula_sum "Si O2"
_cell_formula_units_Z 64
_cell_length_a 17.709649
_cell_length_b 28.309530
_cell_length_c 5.261577
_cell_angle_alpha 90.000000
_cell_angle_beta 90.000000
_cell_angle_gamma 90.000000
_cell_volume 2637.901308
_symmetry_space_group_name_H-M "I B C A "
_symmetry_group_IT_number 73
_symmetry_cell_setting 'orthorhombic'
loop_
_space_group_symop_operation_xyz
x,y,z
-x,1/2-y,z
x,-y,1/2-z
1/2-x,y,-z
-x,-y,-z
x,1/2+y,-z
-x,y,1/2+z
1/2+x,-y,z
1/2+x,1/2+y,1/2+z
1/2-x,-y,1/2+z
1/2+x,1/2-y,-z
-x,1/2+y,1/2-z
1/2-x,1/2-y,1/2-z
1/2+x,y,1/2-z
1/2-x,1/2+y,z
x,1/2-y,1/2+z
loop_
_atom_site_type_symbol
_atom_site_label
_atom_site_fract_x
_atom_site_fract_y
_atom_site_fract_z
Si Si1 0.534786 0.802836 0.281617
Si Si2 0.664046 0.542932 0.925324
Si Si3 0.053115 0.584290 0.220841
Si Si4 0.334941 0.139982 0.909189
O O1 0.500000 0.750000 0.301079
O O2 0.512553 0.824084 0.549952
O O3 0.621164 0.815455 0.219873
O O4 0.636906 0.500000 0.750000
O O5 0.614484 0.547541 0.176471
O O6 0.613195 0.625912 0.351560
O O7 0.750000 0.533731 0.000000
O O8 0.163138 0.593713 0.725303
O O9 0.005793 0.580258 0.958785
O O10 0.250000 0.149590 0.000000
#
# Coordination Sequence:
#
# PCOD9532957 Si02
#       4
#    16  16  16  16
#     4  10  24  47  75 108 149 197 252 321 410 474
#     4  12  28  48  75 111 162 216 269 327 393 463
#     4  12  26  46  72 108 148 202 263 325 386 454
#     4  12  25  46  76 113 151 210 268 325 391 482
#
# _framework density 24.261713
#
# number of rings (size 3 to 8) (size 9 to 14) (size 15 to 20)
#    0.000    0.500    5.000    2.250    3.500    1.000 
#    0.000    5.000    0.000    0.000    0.000    0.000 
#    0.000    0.000    0.000    0.000    0.000    0.000 
#
# Total GULP energy -178406.625081 kJ/mol
# GULP energy per Si atom -5575.207034 kJ/mol
# Density = 2.420649 g / cm^3
# Si number density = 24.261713 Si / 1000 Ang^3
#
#
#
# Elastic Constant Matrix: (Units=GPa)
#
#
# Indices 1 2 3 4 5 6 
#
# 1 180.9042 24.3151 57.9945 0.0000 -0.0002 0.0002
# 2 24.3151 104.3004 8.7308 -0.0001 -0.0002 0.0000
# 3 57.9945 8.7308 176.1726 -0.0020 -0.0003 -0.0011
# 4 0.0000 -0.0001 -0.0020 30.6208 -0.0004 -0.0003
# 5 -0.0002 -0.0002 -0.0003 -0.0004 47.2105 0.0000
# 6 0.0002 0.0000 -0.0011 -0.0003 0.0000 62.3219
#
#
#
# Elastic Compliance Matrix: (Units=1/GPa)
#
#
# Indices 1 2 3 4 5 6 
#
# 1 0.006354 -0.001312 -0.002027 0.000000 0.000000 0.000000
# 2 -0.001312 0.009898 -0.000059 0.000000 0.000000 0.000000
# 3 -0.002027 -0.000059 0.006346 0.000000 0.000000 0.000000
# 4 0.000000 0.000000 0.000000 0.032658 0.000000 0.000000
# 5 0.000000 0.000000 0.000000 0.000000 0.021182 0.000000
# 6 0.000000 0.000000 0.000000 0.000000 0.000000 0.016046
#
#
# Mechanical properties :
#
#
# Convention : Reuss Voigt Hill
#
# Bulk Modulus (GPa) = 63.27308 71.49531 67.38420
# Shear Modulus (GPa) = 47.82602 52.71976 50.27289
#
# Velocity S-wave (km/s) = 4.44470 4.66656 4.55698
# Velocity P-wave (km/s) = 7.24406 7.65298 7.45133
#
# Compressibility (1/GPa) = 0.01580451
#
# Stress axis : x y z
#
# Youngs Moduli (GPa) = 157.38694 101.02669 157.57202
#
# Poissons Ratio (x) = 0.13250 0.31934
# Poissons Ratio (y) = 0.20643 0.00926
# Poissons Ratio (z) = 0.31896 0.00594
#
# Static dielectric constant tensor:
#      x y z
#    x 1.918550 0.000000 0.000000 
#    y 0.000000 1.851500 0.000000 
#    z 0.000000 0.000000 2.044490 
# 
# From -- ./inp_files/1153.got.cif
#   From: 2010.05.17/outbox.cif.g08.bks.cpg/sg73_1_cif.got.tgz:1153.got - 2010.06.03 17:35:07.
