data_PCOD9532441
_publ_section_title
;
Structure prediction by ZEFSAII (Michael W. Deem and Ramdas Pophale) SiO2 
 PCOD9532441
Probable space group: I B C A 
;
_chemical_formula_sum "Si O2"
_cell_formula_units_Z 88
_cell_length_a 8.495967
_cell_length_b 20.503461
_cell_length_c 22.692342
_cell_angle_alpha 90.000000
_cell_angle_beta 90.000000
_cell_angle_gamma 90.000000
_cell_volume 3952.931728
_symmetry_space_group_name_H-M "I B C A "
_symmetry_group_IT_number 73
_symmetry_cell_setting 'orthorhombic'
loop_
_space_group_symop_operation_xyz
x,y,z
-x,1/2-y,z
x,-y,1/2-z
1/2-x,y,-z
-x,-y,-z
x,1/2+y,-z
-x,y,1/2+z
1/2+x,-y,z
1/2+x,1/2+y,1/2+z
1/2-x,-y,1/2+z
1/2+x,1/2-y,-z
-x,1/2+y,1/2-z
1/2-x,1/2-y,1/2-z
1/2+x,y,1/2-z
1/2-x,1/2+y,z
x,1/2-y,1/2+z
loop_
_atom_site_type_symbol
_atom_site_label
_atom_site_fract_x
_atom_site_fract_y
_atom_site_fract_z
Si Si1 0.000000 0.250000 0.758949
Si Si2 0.526527 0.442188 0.953459
Si Si3 0.772315 0.327267 0.683615
Si Si4 0.875731 0.307693 0.549902
Si Si5 0.815013 0.031444 0.379061
Si Si6 0.081614 0.046375 0.300226
O O1 0.066837 0.192802 0.716713
O O2 0.143650 0.273058 0.799105
O O3 0.464885 0.372519 0.973108
O O4 0.409394 0.468551 0.902671
O O5 0.705581 0.438659 0.930054
O O6 0.500000 0.500000 0.000000
O O7 0.800295 0.325910 0.613457
O O8 0.698213 0.393383 0.710213
O O9 0.750000 0.289300 0.500000
O O10 0.000000 0.250000 0.559334
O O11 0.947302 0.072271 0.345140
O O12 0.690385 0.006036 0.332736
O O13 0.007838 0.000000 0.250000
#
# Coordination Sequence:
#
# PCOD9532441 Si02
#       6
#     8  16  16  16  16  16
#     4  10  26  46  78  98 136 208 238 302 372 452
#     4  11  23  45  70 100 140 188 243 298 369 439
#     4  11  25  49  71 105 149 189 253 302 372 447
#     4  12  28  49  74 108 152 194 256 316 373 459
#     4  10  23  39  66 100 136 185 228 293 368 429
#     4  11  24  40  66 107 142 182 234 304 365 433
#
# _framework density 22.261959000000001
#
# number of rings (size 3 to 8) (size 9 to 14) (size 15 to 20)
#    0.000    1.091    2.727    2.182    8.909    2.909 
#    0.000    0.000    0.000    0.000    0.000    0.000 
#    0.000    0.000    0.000    0.000    0.000    0.000 
#
# Total GULP energy -245650.693206 kJ/mol
# GULP energy per Si atom -5582.970300 kJ/mol
# Density = 2.221129 g / cm^3
# Si number density = 22.261959 Si / 1000 Ang^3
#
#
#
# Elastic Constant Matrix: (Units=GPa)
#
#
# Indices 1 2 3 4 5 6 
#
# 1 115.4470 16.4872 42.3619 0.0000 0.0000 0.0000
# 2 16.4872 66.6716 35.4569 0.0000 0.0000 0.0000
# 3 42.3619 35.4569 93.6196 0.0000 0.0000 0.0000
# 4 0.0000 0.0000 0.0000 19.2405 0.0000 0.0000
# 5 0.0000 0.0000 0.0000 0.0000 32.2406 0.0000
# 6 0.0000 0.0000 0.0000 0.0000 0.0000 29.0022
#
#
#
# Elastic Compliance Matrix: (Units=1/GPa)
#
#
# Indices 1 2 3 4 5 6 
#
# 1 0.010387 -0.000086 -0.004667 0.000000 0.000000 0.000000
# 2 -0.000086 0.018783 -0.007074 0.000000 0.000000 0.000000
# 3 -0.004667 -0.007074 0.015473 0.000000 0.000000 0.000000
# 4 0.000000 0.000000 0.000000 0.051974 0.000000 0.000000
# 5 0.000000 0.000000 0.000000 0.000000 0.031017 0.000000
# 6 0.000000 0.000000 0.000000 0.000000 0.000000 0.034480
#
#
# Mechanical properties :
#
#
# Convention : Reuss Voigt Hill
#
# Bulk Modulus (GPa) = 47.65105 51.59446 49.62275
# Shear Modulus (GPa) = 25.93841 28.19215 27.06528
#
# Velocity S-wave (km/s) = 3.41712 3.56249 3.49056
# Velocity P-wave (km/s) = 6.08442 6.33626 6.21161
#
# Compressibility (1/GPa) = 0.02098590
#
# Stress axis : x y z
#
# Youngs Moduli (GPa) = 96.27502 53.24085 64.62991
#
# Poissons Ratio (x) = 0.00460 0.30164
# Poissons Ratio (y) = 0.00833 0.45722
# Poissons Ratio (z) = 0.44934 0.37665
#
# Static dielectric constant tensor:
#      x y z
#    x 1.855000 0.000000 0.000000 
#    y 0.000000 1.818960 0.000000 
#    z 0.000000 0.000000 1.984690 
# 
# From -- ./inp_files/28338.got.cif
#   From: 2010.05.17/outbox.cif.g08.bks.cpg/sg73_15_cif.got.tgz:28338.got - 2010.06.03 17:35:07.
