data_PCOD9532116
_publ_section_title
;
Structure prediction by ZEFSAII (Michael W. Deem and Ramdas Pophale) SiO2 
 PCOD9532116
Probable space group: I B C A 
;
_chemical_formula_sum "Si O2"
_cell_formula_units_Z 88
_cell_length_a 18.053057
_cell_length_b 12.604849
_cell_length_c 17.428068
_cell_angle_alpha 90.000000
_cell_angle_beta 90.000000
_cell_angle_gamma 90.000000
_cell_volume 3965.862443
_symmetry_space_group_name_H-M "I B C A "
_symmetry_group_IT_number 73
_symmetry_cell_setting 'orthorhombic'
loop_
_space_group_symop_operation_xyz
x,y,z
-x,1/2-y,z
x,-y,1/2-z
1/2-x,y,-z
-x,-y,-z
x,1/2+y,-z
-x,y,1/2+z
1/2+x,-y,z
1/2+x,1/2+y,1/2+z
1/2-x,-y,1/2+z
1/2+x,1/2-y,-z
-x,1/2+y,1/2-z
1/2-x,1/2-y,1/2-z
1/2+x,y,1/2-z
1/2-x,1/2+y,z
x,1/2-y,1/2+z
loop_
_atom_site_type_symbol
_atom_site_label
_atom_site_fract_x
_atom_site_fract_y
_atom_site_fract_z
Si Si1 0.826787 0.000000 0.750000
Si Si2 0.592760 0.988282 0.660417
Si Si3 0.547701 0.653745 0.687913
Si Si4 0.779042 0.308151 0.326413
Si Si5 0.355717 0.215202 0.427190
Si Si6 0.413497 0.721704 0.907147
O O1 0.881389 0.090255 0.718650
O O2 0.778253 0.065007 0.811524
O O3 0.510988 0.937783 0.669469
O O4 0.631938 0.903334 0.605192
O O5 0.618797 0.000000 0.750000
O O6 0.592102 0.098901 0.616223
O O7 0.500000 0.750000 0.728785
O O8 0.583133 0.715010 0.616661
O O9 0.750000 0.250000 0.250000
O O10 0.726685 0.264778 0.394708
O O11 0.863623 0.278623 0.343361
O O12 0.373828 0.239293 0.514730
O O13 0.500000 0.750000 0.910858
#
# Coordination Sequence:
#
# PCOD9532116 Si02
#       6
#     8  16  16  16  16  16
#     4  12  24  40  74 108 148 202 258 320 394 448
#     4  11  24  42  79 107 148 203 257 317 393 464
#     4  10  22  41  72 111 155 192 261 326 386 460
#     4  12  27  48  74 110 152 203 264 324 383 475
#     4  11  26  48  69 106 158 200 252 321 393 476
#     4  12  28  48  76 111 154 197 257 324 399 479
#
# _framework density 22.189373
#
# number of rings (size 3 to 8) (size 9 to 14) (size 15 to 20)
#    0.000    0.727    2.727    4.364    6.364    4.364 
#    0.000    1.818    0.000    0.000    0.000    0.000 
#    0.000    0.000    0.000    0.000    0.000    0.000 
#
# Total GULP energy -245501.832813 kJ/mol
# GULP energy per Si atom -5579.587109 kJ/mol
# Density = 2.213887 g / cm^3
# Si number density = 22.189373 Si / 1000 Ang^3
#
#
#
# Elastic Constant Matrix: (Units=GPa)
#
#
# Indices 1 2 3 4 5 6 
#
# 1 139.1105 31.5899 66.8712 0.0000 0.0000 0.0000
# 2 31.5899 140.1950 83.7260 0.0000 0.0000 0.0000
# 3 66.8712 83.7260 133.1371 0.0000 0.0000 0.0000
# 4 0.0000 0.0000 0.0000 26.6837 0.0000 0.0000
# 5 0.0000 0.0000 0.0000 0.0000 46.2601 0.0000
# 6 0.0000 0.0000 0.0000 0.0000 0.0000 31.8155
#
#
#
# Elastic Compliance Matrix: (Units=1/GPa)
#
#
# Indices 1 2 3 4 5 6 
#
# 1 0.009590 0.001146 -0.005538 0.000000 0.000000 0.000000
# 2 0.001146 0.011560 -0.007846 0.000000 0.000000 0.000000
# 3 -0.005538 -0.007846 0.015226 0.000000 0.000000 0.000000
# 4 0.000000 0.000000 0.000000 0.037476 0.000000 0.000000
# 5 0.000000 0.000000 0.000000 0.000000 0.021617 0.000000
# 6 0.000000 0.000000 0.000000 0.000000 0.000000 0.031431
#
#
# Mechanical properties :
#
#
# Convention : Reuss Voigt Hill
#
# Bulk Modulus (GPa) = 84.01523 86.31298 85.16411
# Shear Modulus (GPa) = 32.18693 36.30222 34.24457
#
# Velocity S-wave (km/s) = 3.81275 4.04916 3.93273
# Velocity P-wave (km/s) = 7.57151 7.80024 7.68672
#
# Compressibility (1/GPa) = 0.01190260
#
# Stress axis : x y z
#
# Youngs Moduli (GPa) = 104.27232 86.50461 65.67556
#
# Poissons Ratio (x) = -0.09916 0.36370
# Poissons Ratio (y) = -0.11952 0.51526
# Poissons Ratio (z) = 0.57744 0.67867
#
# Static dielectric constant tensor:
#      x y z
#    x 1.883140 0.000000 0.000000 
#    y 0.000000 1.864720 0.000000 
#    z 0.000000 0.000000 1.747070 
# 
# From -- ./inp_files/19255.got.cif
#   From: 2010.05.17/outbox.cif.g08.bks.cpg/sg73_10_cif.got.tgz:19255.got - 2010.06.03 17:35:07.
