data_PCOD9532412
_publ_section_title
;
Structure prediction by ZEFSAII (Michael W. Deem and Ramdas Pophale) SiO2 
 PCOD9532412
Probable space group: I B C A 
;
_chemical_formula_sum "Si O2"
_cell_formula_units_Z 104
_cell_length_a 20.059335
_cell_length_b 26.404764
_cell_length_c 8.596684
_cell_angle_alpha 90.000000
_cell_angle_beta 90.000000
_cell_angle_gamma 90.000000
_cell_volume 4553.336898
_symmetry_space_group_name_H-M "I B C A "
_symmetry_group_IT_number 73
_symmetry_cell_setting 'orthorhombic'
loop_
_space_group_symop_operation_xyz
x,y,z
-x,1/2-y,z
x,-y,1/2-z
1/2-x,y,-z
-x,-y,-z
x,1/2+y,-z
-x,y,1/2+z
1/2+x,-y,z
1/2+x,1/2+y,1/2+z
1/2-x,-y,1/2+z
1/2+x,1/2-y,-z
-x,1/2+y,1/2-z
1/2-x,1/2-y,1/2-z
1/2+x,y,1/2-z
1/2-x,1/2+y,z
x,1/2-y,1/2+z
loop_
_atom_site_type_symbol
_atom_site_label
_atom_site_fract_x
_atom_site_fract_y
_atom_site_fract_z
Si Si1 0.052155 0.966546 0.598448
Si Si2 0.541462 0.700778 0.126385
Si Si3 0.750000 0.688459 0.000000
Si Si4 0.277311 0.647618 0.170989
Si Si5 0.146922 0.553927 0.827293
Si Si6 0.171737 0.747632 0.817198
Si Si7 0.541341 0.127853 0.156833
O O1 0.116118 0.956196 0.495049
O O2 0.017884 0.912417 0.624394
O O3 0.065678 0.000000 0.750000
O O4 0.000000 0.000000 0.500000
O O5 0.500000 0.750000 0.066123
O O6 0.605356 0.721675 0.225528
O O7 0.490631 0.668986 0.230077
O O8 0.562713 0.660130 0.994216
O O9 0.744535 0.656235 0.158281
O O10 0.686548 0.726296 0.014336
O O11 0.289212 0.588589 0.162151
O O12 0.338962 0.687649 0.179773
O O13 0.250000 0.662315 0.000000
O O14 0.155385 0.500000 0.750000
O O15 0.096978 0.590487 0.729059
O O16 0.250000 0.750000 0.750000
#
# Coordination Sequence:
#
# PCOD9532412 Si02
#       7
#    16  16   8  16  16  16  16
#     4  12  21  42  69  98 140 185 248 290 370 452
#     4  12  26  42  66 110 154 187 238 309 375 445
#     4  10  22  48  76 104 142 196 252 306 366 456
#     4  11  25  48  74 104 141 194 252 308 375 445
#     4  12  25  46  72 103 141 188 240 315 378 448
#     4  10  23  44  74 102 145 200 252 297 368 461
#     4  12  23  42  69 101 148 191 231 304 383 446
#
# _framework density 22.840391
#
# number of rings (size 3 to 8) (size 9 to 14) (size 15 to 20)
#    0.000    0.615    5.385    2.308    0.000    6.154 
#    4.154    0.000    0.000    0.000    0.000    0.000 
#    0.000    0.000    0.000    0.000    0.000    0.000 
#
# Total GULP energy -289625.000792 kJ/mol
# GULP energy per Si atom -5569.711554 kJ/mol
# Density = 2.278841 g / cm^3
# Si number density = 22.840391 Si / 1000 Ang^3
#
#
#
# Elastic Constant Matrix: (Units=GPa)
#
#
# Indices 1 2 3 4 5 6 
#
# 1 52.3974 39.1254 22.9250 0.0000 0.0000 0.0000
# 2 39.1254 192.2453 57.0019 0.0000 0.0000 0.0000
# 3 22.9250 57.0019 120.0010 0.0000 0.0000 0.0000
# 4 0.0000 0.0000 0.0000 46.6216 0.0000 0.0000
# 5 0.0000 0.0000 0.0000 0.0000 17.6378 0.0000
# 6 0.0000 0.0000 0.0000 0.0000 0.0000 42.6207
#
#
#
# Elastic Compliance Matrix: (Units=1/GPa)
#
#
# Indices 1 2 3 4 5 6 
#
# 1 0.023153 -0.003958 -0.002543 0.000000 0.000000 0.000000
# 2 -0.003958 0.006731 -0.002441 0.000000 0.000000 0.000000
# 3 -0.002543 -0.002441 0.009979 0.000000 0.000000 0.000000
# 4 0.000000 0.000000 0.000000 0.021449 0.000000 0.000000
# 5 0.000000 0.000000 0.000000 0.000000 0.056697 0.000000
# 6 0.000000 0.000000 0.000000 0.000000 0.000000 0.023463
#
#
# Mechanical properties :
#
#
# Convention : Reuss Voigt Hill
#
# Bulk Modulus (GPa) = 45.49955 66.97203 56.23579
# Shear Modulus (GPa) = 29.99725 37.74878 33.87301
#
# Velocity S-wave (km/s) = 3.62794 4.06978 3.85519
# Velocity P-wave (km/s) = 6.12480 7.17423 6.67018
#
# Compressibility (1/GPa) = 0.02197824
#
# Stress axis : x y z
#
# Youngs Moduli (GPa) = 43.19090 148.56538 100.21362
#
# Poissons Ratio (x) = 0.58803 0.25485
# Poissons Ratio (y) = 0.17095 0.24464
# Poissons Ratio (z) = 0.10984 0.36268
#
# Static dielectric constant tensor:
#      x y z
#    x 1.900000 0.000000 0.000000 
#    y 0.000000 1.906150 0.000000 
#    z 0.000000 0.000000 1.983290 
# 
# From -- ./inp_files/6538.got.cif
#   From: 2010.05.17/outbox.cif.g08.bks.cpg/sg73_4_cif.got.tgz:6538.got - 2010.06.03 17:35:07.
