data_PCOD9532336
_publ_section_title
;
Structure prediction by ZEFSAII (Michael W. Deem and Ramdas Pophale) SiO2 
 PCOD9532336
Probable space group: I B C A 
;
_chemical_formula_sum "Si O2"
_cell_formula_units_Z 112
_cell_length_a 9.688713
_cell_length_b 32.409237
_cell_length_c 15.428933
_cell_angle_alpha 90.000000
_cell_angle_beta 90.000000
_cell_angle_gamma 90.000000
_cell_volume 4844.743528
_symmetry_space_group_name_H-M "I B C A "
_symmetry_group_IT_number 73
_symmetry_cell_setting 'orthorhombic'
loop_
_space_group_symop_operation_xyz
x,y,z
-x,1/2-y,z
x,-y,1/2-z
1/2-x,y,-z
-x,-y,-z
x,1/2+y,-z
-x,y,1/2+z
1/2+x,-y,z
1/2+x,1/2+y,1/2+z
1/2-x,-y,1/2+z
1/2+x,1/2-y,-z
-x,1/2+y,1/2-z
1/2-x,1/2-y,1/2-z
1/2+x,y,1/2-z
1/2-x,1/2+y,z
x,1/2-y,1/2+z
loop_
_atom_site_type_symbol
_atom_site_label
_atom_site_fract_x
_atom_site_fract_y
_atom_site_fract_z
Si Si1 0.842003 0.533911 0.177970
Si Si2 0.777508 0.830945 0.374941
Si Si3 0.291172 0.119145 0.780105
Si Si4 0.072850 0.992227 0.907987
Si Si5 0.122308 0.123320 0.942306
Si Si6 0.529872 0.202378 0.007843
Si Si7 0.530544 0.598589 0.092327
O O1 0.810068 0.500000 0.250000
O O2 0.813657 0.578517 0.220938
O O3 0.736145 0.517593 0.102078
O O4 0.001571 0.527091 0.150912
O O5 0.731640 0.839712 0.276920
O O6 0.649229 0.813369 0.427491
O O7 0.907388 0.804521 0.411089
O O8 0.828249 0.876732 0.400814
O O9 0.157827 0.116205 0.843202
O O10 0.419858 0.122145 0.846645
O O11 0.019393 0.947693 0.876137
O O12 0.000000 0.000000 0.000000
O O13 0.093382 0.171021 0.968156
O O14 0.250000 0.107784 0.000000
O O15 0.999058 0.099689 0.989419
O O16 0.500000 0.250000 0.021252
#
# Coordination Sequence:
#
# PCOD9532336 Si02
#       7
#    16  16  16  16  16  16  16
#     4  12  26  44  67 101 142 190 240 313 378 409
#     4  10  23  42  72 103 132 183 238 277 351 427
#     4  11  23  43  73  97 140 181 248 296 348 424
#     4  12  27  43  65  98 142 191 251 305 369 429
#     4   9  22  41  71  96 134 186 228 279 359 425
#     4  10  23  44  71 104 142 177 222 282 362 432
#     4  10  22  45  64  98 139 187 239 294 347 434
#
# _framework density 23.117840000000001
#
# number of rings (size 3 to 8) (size 9 to 14) (size 15 to 20)
#    0.000    1.429    2.857    0.857    6.000    4.571 
#    0.000    1.429    0.000    0.000    0.000    0.000 
#    0.000    0.000    0.000    0.000    0.000    0.000 
#
# Total GULP energy -312064.595963 kJ/mol
# GULP energy per Si atom -5572.582071 kJ/mol
# Density = 2.306522 g / cm^3
# Si number density = 23.117840 Si / 1000 Ang^3
#
#
#
# Elastic Constant Matrix: (Units=GPa)
#
#
# Indices 1 2 3 4 5 6 
#
# 1 83.4803 30.1036 29.1109 0.0000 0.0000 0.0000
# 2 30.1036 112.1832 36.3813 0.0000 0.0000 0.0000
# 3 29.1109 36.3813 97.0242 -0.0001 0.0000 0.0000
# 4 0.0000 0.0000 -0.0001 20.1563 0.0000 0.0000
# 5 0.0000 0.0000 0.0000 0.0000 34.9926 0.0000
# 6 0.0000 0.0000 0.0000 0.0000 0.0000 29.3882
#
#
#
# Elastic Compliance Matrix: (Units=1/GPa)
#
#
# Indices 1 2 3 4 5 6 
#
# 1 0.014083 -0.002742 -0.003197 0.000000 0.000000 0.000000
# 2 -0.002742 0.010682 -0.003183 0.000000 0.000000 0.000000
# 3 -0.003197 -0.003183 0.012459 0.000000 0.000000 0.000000
# 4 0.000000 0.000000 0.000000 0.049612 0.000000 0.000000
# 5 0.000000 0.000000 0.000000 0.000000 0.028577 0.000000
# 6 0.000000 0.000000 0.000000 0.000000 0.000000 0.034027
#
#
# Mechanical properties :
#
#
# Convention : Reuss Voigt Hill
#
# Bulk Modulus (GPa) = 52.68674 53.76436 53.22555
# Shear Modulus (GPa) = 28.73373 30.04688 29.39030
#
# Velocity S-wave (km/s) = 3.52934 3.60908 3.56943
# Velocity P-wave (km/s) = 6.28079 6.37765 6.32941
#
# Compressibility (1/GPa) = 0.01898011
#
# Stress axis : x y z
#
# Youngs Moduli (GPa) = 71.00970 93.61563 80.26089
#
# Poissons Ratio (x) = 0.25671 0.25660
# Poissons Ratio (y) = 0.19472 0.25545
# Poissons Ratio (z) = 0.22702 0.29795
#
# Static dielectric constant tensor:
#      x y z
#    x 2.008570 0.000000 0.000000 
#    y 0.000000 1.816010 0.000000 
#    z 0.000000 0.000000 1.985300 
# 
# From -- ./inp_files/16367.got.cif
#   From: 2010.05.17/outbox.cif.g08.bks.cpg/sg73_9_cif.got.tgz:16367.got - 2010.06.03 17:35:07.
