data_PCOD9532420
_publ_section_title
;
Structure prediction by ZEFSAII (Michael W. Deem and Ramdas Pophale) SiO2 
 PCOD9532420
Probable space group: I B C A 
;
_chemical_formula_sum "Si O2"
_cell_formula_units_Z 96
_cell_length_a 8.362264
_cell_length_b 23.154925
_cell_length_c 22.647998
_cell_angle_alpha 90.000000
_cell_angle_beta 90.000000
_cell_angle_gamma 90.000000
_cell_volume 4385.277401
_symmetry_space_group_name_H-M "I B C A "
_symmetry_group_IT_number 73
_symmetry_cell_setting 'orthorhombic'
loop_
_space_group_symop_operation_xyz
x,y,z
-x,1/2-y,z
x,-y,1/2-z
1/2-x,y,-z
-x,-y,-z
x,1/2+y,-z
-x,y,1/2+z
1/2+x,-y,z
1/2+x,1/2+y,1/2+z
1/2-x,-y,1/2+z
1/2+x,1/2-y,-z
-x,1/2+y,1/2-z
1/2-x,1/2-y,1/2-z
1/2+x,y,1/2-z
1/2-x,1/2+y,z
x,1/2-y,1/2+z
loop_
_atom_site_type_symbol
_atom_site_label
_atom_site_fract_x
_atom_site_fract_y
_atom_site_fract_z
Si Si1 0.484654 0.130021 0.651576
Si Si2 0.367653 0.956771 0.925480
Si Si3 0.506884 0.577621 0.049184
Si Si4 0.164986 0.282264 0.941346
Si Si5 0.607177 0.205073 0.249928
Si Si6 0.336403 0.323226 0.378272
O O1 0.451343 0.064693 0.633711
O O2 0.384239 0.169126 0.605175
O O3 0.408629 0.146813 0.714149
O O4 0.670979 0.146368 0.644017
O O5 0.182506 0.938812 0.926442
O O6 0.388754 0.024483 0.936543
O O7 0.463506 0.924557 0.978816
O O8 0.434325 0.635195 0.077815
O O9 0.280758 0.234874 0.911316
O O10 0.000000 0.250000 0.957840
O O11 0.250000 0.305503 0.000000
O O12 0.500000 0.250000 0.212774
O O13 0.750000 0.250000 0.250000
O O14 0.568745 0.191226 0.317918
#
# Coordination Sequence:
#
# PCOD9532420 Si02
#       6
#    16  16  16  16  16  16
#     4  11  23  41  63  92 132 170 216 271 325 392
#     4  10  23  42  67  96 130 168 216 266 327 390
#     4  10  23  42  67  97 128 171 214 266 327 390
#     4  10  23  37  56  90 130 167 209 264 323 387
#     4  12  23  44  64  91 130 177 223 267 326 396
#     4  11  24  40  65  93 128 174 217 267 331 387
#
# _framework density 21.891431000000001
#
# number of rings (size 3 to 8) (size 9 to 14) (size 15 to 20)
#    0.000    1.333    3.333    1.500    9.333    2.000 
#    0.000    0.833    0.000    4.000    0.000    0.000 
#    0.000    0.000    0.000    0.000    0.000    0.000 
#
# Total GULP energy -268021.423415 kJ/mol
# GULP energy per Si atom -5583.779654 kJ/mol
# Density = 2.184160 g / cm^3
# Si number density = 21.891431 Si / 1000 Ang^3
#
#
#
# Elastic Constant Matrix: (Units=GPa)
#
#
# Indices 1 2 3 4 5 6 
#
# 1 66.0387 20.5798 11.6495 0.0000 0.0000 0.0000
# 2 20.5798 80.0403 26.0504 0.0000 0.0000 0.0000
# 3 11.6495 26.0504 86.8832 0.0000 0.0000 0.0000
# 4 0.0000 0.0000 0.0000 34.6959 0.0000 0.0000
# 5 0.0000 0.0000 0.0000 0.0000 20.9691 0.0000
# 6 0.0000 0.0000 0.0000 0.0000 0.0000 39.7381
#
#
#
# Elastic Compliance Matrix: (Units=1/GPa)
#
#
# Indices 1 2 3 4 5 6 
#
# 1 0.016547 -0.003914 -0.001045 0.000000 0.000000 0.000000
# 2 -0.003914 0.014771 -0.003904 0.000000 0.000000 0.000000
# 3 -0.001045 -0.003904 0.012820 0.000000 0.000000 0.000000
# 4 0.000000 0.000000 0.000000 0.028822 0.000000 0.000000
# 5 0.000000 0.000000 0.000000 0.000000 0.047689 0.000000
# 6 0.000000 0.000000 0.000000 0.000000 0.000000 0.025165
#
#
# Mechanical properties :
#
#
# Convention : Reuss Voigt Hill
#
# Bulk Modulus (GPa) = 37.86248 38.83575 38.34911
# Shear Modulus (GPa) = 29.01174 30.72612 29.86893
#
# Velocity S-wave (km/s) = 3.64436 3.75049 3.69780
# Velocity P-wave (km/s) = 5.91959 6.04430 5.98227
#
# Compressibility (1/GPa) = 0.02641137
#
# Stress axis : x y z
#
# Youngs Moduli (GPa) = 60.43458 67.70130 78.00109
#
# Poissons Ratio (x) = 0.26501 0.08151
# Poissons Ratio (y) = 0.23656 0.30451
# Poissons Ratio (z) = 0.06315 0.26430
#
# Static dielectric constant tensor:
#      x y z
#    x 1.801100 0.000000 0.000000 
#    y 0.000000 2.019900 0.000000 
#    z 0.000000 0.000000 1.799700 
# 
# From -- ./inp_files/28392.got.cif
#   From: 2010.05.17/outbox.cif.g08.bks.cpg/sg73_15_cif.got.tgz:28392.got - 2010.06.03 17:35:07.
