data_PCOD9532199
_publ_section_title
;
Structure prediction by ZEFSAII (Michael W. Deem and Ramdas Pophale) SiO2 
 PCOD9532199
Probable space group: I B C A 
;
_chemical_formula_sum "Si O2"
_cell_formula_units_Z 112
_cell_length_a 11.654636
_cell_length_b 29.991787
_cell_length_c 13.627924
_cell_angle_alpha 90.000000
_cell_angle_beta 90.000000
_cell_angle_gamma 90.000000
_cell_volume 4763.550351
_symmetry_space_group_name_H-M "I B C A "
_symmetry_group_IT_number 73
_symmetry_cell_setting 'orthorhombic'
loop_
_space_group_symop_operation_xyz
x,y,z
-x,1/2-y,z
x,-y,1/2-z
1/2-x,y,-z
-x,-y,-z
x,1/2+y,-z
-x,y,1/2+z
1/2+x,-y,z
1/2+x,1/2+y,1/2+z
1/2-x,-y,1/2+z
1/2+x,1/2-y,-z
-x,1/2+y,1/2-z
1/2-x,1/2-y,1/2-z
1/2+x,y,1/2-z
1/2-x,1/2+y,z
x,1/2-y,1/2+z
loop_
_atom_site_type_symbol
_atom_site_label
_atom_site_fract_x
_atom_site_fract_y
_atom_site_fract_z
Si Si1 0.209273 0.933831 0.330420
Si Si2 0.632941 0.742358 0.685645
Si Si3 0.099385 0.651749 0.935220
Si Si4 0.148941 0.835806 0.871399
Si Si5 0.851772 0.898160 0.624178
Si Si6 0.396373 0.370886 0.653458
Si Si7 0.125028 0.490732 0.954789
O O1 0.152335 0.892461 0.388098
O O2 0.199583 0.925426 0.215657
O O3 0.342522 0.921145 0.352313
O O4 0.141304 0.978056 0.359287
O O5 0.500000 0.750000 0.728408
O O6 0.750000 0.750000 0.750000
O O7 0.630945 0.694848 0.630670
O O8 0.644370 0.783312 0.610586
O O9 0.962742 0.645444 0.924506
O O10 0.130032 0.653892 0.050636
O O11 0.264553 0.859568 0.900558
O O12 0.140013 0.845888 0.753234
O O13 0.872538 0.937321 0.548281
O O14 0.968514 0.876270 0.659127
O O15 0.250000 0.503696 0.000000
O O16 0.000000 0.500000 0.000000
#
# Coordination Sequence:
#
# PCOD9532199 Si02
#       7
#    16  16  16  16  16  16  16
#     4  11  23  44  68 101 134 182 240 291 366 440
#     4  10  22  42  71 103 144 187 239 298 361 434
#     4  11  22  43  71 100 141 187 236 297 365 441
#     4  10  24  43  70 103 140 185 244 299 364 433
#     4  11  24  42  71 100 141 189 238 304 365 437
#     4  11  23  42  73 101 138 193 238 293 371 438
#     4  12  27  43  67 105 142 186 240 303 363 444
#
# _framework density 23.511875
#
# number of rings (size 3 to 8) (size 9 to 14) (size 15 to 20)
#    0.000    1.143    1.429    5.143    6.000    0.000 
#    0.000    9.286   25.143    0.000    0.000    0.000 
#    0.000    0.000    0.000    0.000    0.000    0.000 
#
# Total GULP energy -312492.201333 kJ/mol
# GULP energy per Si atom -5580.217881 kJ/mol
# Density = 2.345836 g / cm^3
# Si number density = 23.511875 Si / 1000 Ang^3
#
#
#
# Elastic Constant Matrix: (Units=GPa)
#
#
# Indices 1 2 3 4 5 6 
#
# 1 176.6146 33.4345 21.4231 0.0001 -0.0002 0.0000
# 2 33.4345 108.3290 3.3924 0.0000 0.0000 0.0000
# 3 21.4231 3.3924 70.2871 -0.0008 0.0003 0.0006
# 4 0.0001 0.0000 -0.0008 17.6653 0.0000 0.0002
# 5 -0.0002 0.0000 0.0003 0.0000 30.3168 -0.0003
# 6 0.0000 0.0000 0.0006 0.0002 -0.0003 36.9948
#
#
#
# Elastic Compliance Matrix: (Units=1/GPa)
#
#
# Indices 1 2 3 4 5 6 
#
# 1 0.006235 -0.001868 -0.001810 0.000000 0.000000 0.000000
# 2 -0.001868 0.009805 0.000096 0.000000 0.000000 0.000000
# 3 -0.001810 0.000096 0.014774 0.000001 0.000000 0.000000
# 4 0.000000 0.000000 0.000001 0.056608 0.000000 0.000000
# 5 0.000000 0.000000 0.000000 0.000000 0.032985 0.000000
# 6 0.000000 0.000000 0.000000 0.000000 0.000000 0.027031
#
#
# Mechanical properties :
#
#
# Convention : Reuss Voigt Hill
#
# Bulk Modulus (GPa) = 42.28274 52.41454 47.34864
# Shear Modulus (GPa) = 30.77193 36.79408 33.78301
#
# Velocity S-wave (km/s) = 3.62163 3.96019 3.79469
# Velocity P-wave (km/s) = 5.95910 6.57663 6.27547
#
# Compressibility (1/GPa) = 0.02365031
#
# Stress axis : x y z
#
# Youngs Moduli (GPa) = 160.37954 101.99312 67.68419
#
# Poissons Ratio (x) = 0.19050 0.12253
# Poissons Ratio (y) = 0.29955 -0.00650
# Poissons Ratio (z) = 0.29034 -0.00980
#
# Static dielectric constant tensor:
#      x y z
#    x 1.960940 0.000000 0.000000 
#    y 0.000000 1.914860 0.000000 
#    z 0.000000 0.000000 1.978890 
# 
# From -- ./inp_files/16339.got.cif
#   From: 2010.05.17/outbox.cif.g08.bks.cpg/sg73_9_cif.got.tgz:16339.got - 2010.06.03 17:35:07.
