data_PCOD9532665
_publ_section_title
;
Structure prediction by ZEFSAII (Michael W. Deem and Ramdas Pophale) SiO2 
 PCOD9532665
Probable space group: I B C A 
;
_chemical_formula_sum "Si O2"
_cell_formula_units_Z 72
_cell_length_a 15.235746
_cell_length_b 10.970449
_cell_length_c 18.466454
_cell_angle_alpha 90.000000
_cell_angle_beta 90.000000
_cell_angle_gamma 90.000000
_cell_volume 3086.538049
_symmetry_space_group_name_H-M "I B C A "
_symmetry_group_IT_number 73
_symmetry_cell_setting 'orthorhombic'
loop_
_space_group_symop_operation_xyz
x,y,z
-x,1/2-y,z
x,-y,1/2-z
1/2-x,y,-z
-x,-y,-z
x,1/2+y,-z
-x,y,1/2+z
1/2+x,-y,z
1/2+x,1/2+y,1/2+z
1/2-x,-y,1/2+z
1/2+x,1/2-y,-z
-x,1/2+y,1/2-z
1/2-x,1/2-y,1/2-z
1/2+x,y,1/2-z
1/2-x,1/2+y,z
x,1/2-y,1/2+z
loop_
_atom_site_type_symbol
_atom_site_label
_atom_site_fract_x
_atom_site_fract_y
_atom_site_fract_z
Si Si1 0.494396 0.886665 0.305913
Si Si2 0.338383 0.387263 0.973321
Si Si3 0.000000 0.250000 0.566063
Si Si4 0.690566 0.034196 0.665752
Si Si5 0.622988 0.041119 0.392970
O O1 0.500000 0.750000 0.275406
O O2 0.398867 0.889861 0.344434
O O3 0.492477 0.000000 0.250000
O O4 0.577565 0.923463 0.355677
O O5 0.424552 0.309526 0.980975
O O6 0.324654 0.422390 0.889733
O O7 0.250000 0.323908 0.000000
O O8 0.352413 0.504401 0.024848
O O9 0.950695 0.144596 0.609674
O O10 0.786634 0.082881 0.644182
O O11 0.695834 0.000000 0.750000
#
# Coordination Sequence:
#
# PCOD9532665 Si02
#       5
#    16  16   8  16  16
#     4  11  26  46  73 108 151 201 251 309 380 456
#     4  10  24  44  70 106 148 197 251 309 380 458
#     4  12  24  42  72 108 152 184 250 322 372 436
#     4  10  23  47  71 106 147 194 248 311 382 449
#     4  11  25  44  73 106 145 195 256 309 378 450
#
# _framework density 23.327106000000001
#
# number of rings (size 3 to 8) (size 9 to 14) (size 15 to 20)
#    0.000    1.333    2.222    1.333    3.111    6.222 
#    0.000    4.444    0.000    0.000    0.000    0.000 
#    0.000    0.000    0.000    0.000    0.000    0.000 
#
# Total GULP energy -201057.687940 kJ/mol
# GULP energy per Si atom -5584.935776 kJ/mol
# Density = 2.327401 g / cm^3
# Si number density = 23.327106 Si / 1000 Ang^3
#
#
#
# Elastic Constant Matrix: (Units=GPa)
#
#
# Indices 1 2 3 4 5 6 
#
# 1 196.1946 27.0273 28.9828 0.0000 0.0000 0.0000
# 2 27.0273 76.8840 18.9651 0.0000 0.0000 0.0000
# 3 28.9828 18.9651 112.6244 0.0000 0.0000 0.0000
# 4 0.0000 0.0000 0.0000 18.0852 0.0000 0.0000
# 5 0.0000 0.0000 0.0000 0.0000 24.6591 0.0000
# 6 0.0000 0.0000 0.0000 0.0000 0.0000 -46.0602
#
#
#
# Elastic Compliance Matrix: (Units=1/GPa)
#
#
# Indices 1 2 3 4 5 6 
#
# 1 0.005492 -0.001651 -0.001135 0.000000 0.000000 0.000000
# 2 -0.001651 0.014066 -0.001944 0.000000 0.000000 0.000000
# 3 -0.001135 -0.001944 0.009499 0.000000 0.000000 0.000000
# 4 0.000000 0.000000 0.000000 0.055294 0.000000 0.000000
# 5 0.000000 0.000000 0.000000 0.000000 0.040553 0.000000
# 6 0.000000 0.000000 0.000000 0.000000 0.000000 -0.021711
#
#
# Mechanical properties :
#
#
# Convention : Reuss Voigt Hill
#
# Bulk Modulus (GPa) = 51.02751 59.51703 55.27227
# Shear Modulus (GPa) = 41.95151 20.05202 31.00177
#
# Velocity S-wave (km/s) = 4.24536 2.93508 3.64950
# Velocity P-wave (km/s) = 6.77886 6.08734 6.44239
#
# Compressibility (1/GPa) = 0.01959727
#
# Stress axis : x y z
#
# Youngs Moduli (GPa) = 182.08021 71.09167 105.27876
#
# Poissons Ratio (x) = 0.11734 0.11953
# Poissons Ratio (y) = 0.30054 0.20465
# Poissons Ratio (z) = 0.20673 0.13820
#
# Static dielectric constant tensor:
#      x y z
#    x 1.903390 0.000000 0.000000 
#    y 0.000000 1.895370 0.000000 
#    z 0.000000 0.000000 1.949480 
# 
# From -- ./inp_files/25844.got.cif
#   From: 2010.05.17/outbox.cif.g08.bks.cpg/sg73_13_cif.got.tgz:25844.got - 2010.06.03 17:35:07.
