data_PCOD9532279
_publ_section_title
;
Structure prediction by ZEFSAII (Michael W. Deem and Ramdas Pophale) SiO2 
 PCOD9532279
Probable space group: I B C A 
;
_chemical_formula_sum "Si O2"
_cell_formula_units_Z 104
_cell_length_a 8.883354
_cell_length_b 21.116719
_cell_length_c 25.289478
_cell_angle_alpha 90.000000
_cell_angle_beta 90.000000
_cell_angle_gamma 90.000000
_cell_volume 4743.984648
_symmetry_space_group_name_H-M "I B C A "
_symmetry_group_IT_number 73
_symmetry_cell_setting 'orthorhombic'
loop_
_space_group_symop_operation_xyz
x,y,z
-x,1/2-y,z
x,-y,1/2-z
1/2-x,y,-z
-x,-y,-z
x,1/2+y,-z
-x,y,1/2+z
1/2+x,-y,z
1/2+x,1/2+y,1/2+z
1/2-x,-y,1/2+z
1/2+x,1/2-y,-z
-x,1/2+y,1/2-z
1/2-x,1/2-y,1/2-z
1/2+x,y,1/2-z
1/2-x,1/2+y,z
x,1/2-y,1/2+z
loop_
_atom_site_type_symbol
_atom_site_label
_atom_site_fract_x
_atom_site_fract_y
_atom_site_fract_z
Si Si1 0.500000 0.250000 0.938793
Si Si2 0.206629 0.593873 0.098204
Si Si3 0.121801 0.800253 0.770782
Si Si4 0.464439 0.370174 0.872064
Si Si5 0.869673 0.029337 0.039150
Si Si6 0.290817 0.500000 0.250000
Si Si7 0.750000 0.820099 0.000000
Si Si8 0.541204 0.586769 0.302886
O O1 0.438432 0.305709 0.903057
O O2 0.375994 0.221763 0.975493
O O3 0.353728 0.617039 0.131951
O O4 0.218623 0.525925 0.070581
O O5 0.189267 0.638648 0.048111
O O6 0.059908 0.593522 0.134780
O O7 0.250000 0.750000 0.750000
O O8 0.124274 0.855366 0.817150
O O9 0.061225 0.843891 0.722806
O O10 0.000000 0.750000 0.790942
O O11 0.421304 0.425191 0.913362
O O12 0.750000 0.061815 0.000000
O O13 0.000000 0.000000 0.000000
O O14 0.397262 0.548213 0.282360
O O15 0.181909 0.457778 0.286046
#
# Coordination Sequence:
#
# PCOD9532279 Si02
#       8
#     8  16  16  16  16   8   8  16
#     4  10  22  44  68  90 138 182 238 276 358 432
#     4  11  23  45  70  98 142 185 228 294 376 437
#     4  12  26  50  73 101 142 190 252 303 359 440
#     4  11  24  44  75  97 137 195 230 294 367 430
#     4  12  24  45  70 108 146 183 235 299 368 450
#     4  10  24  44  66 104 140 172 230 292 356 434
#     4  10  22  44  66  98 132 182 226 294 342 436
#     4  11  25  43  70 100 138 183 230 297 359 427
#
# _framework density 21.922498999999998
#
# number of rings (size 3 to 8) (size 9 to 14) (size 15 to 20)
#    0.000    0.923    3.077    3.692    9.692    0.000 
#    4.154    0.000    0.000    0.000    0.000    0.000 
#    0.000    0.000    0.000    0.000    0.000    0.000 
#
# Total GULP energy -290031.415837 kJ/mol
# GULP energy per Si atom -5577.527228 kJ/mol
# Density = 2.187260 g / cm^3
# Si number density = 21.922499 Si / 1000 Ang^3
#
#
#
# Elastic Constant Matrix: (Units=GPa)
#
#
# Indices 1 2 3 4 5 6 
#
# 1 52.9848 17.1371 30.7086 0.0000 0.0000 0.0000
# 2 17.1371 106.2188 26.2906 0.0000 0.0000 0.0000
# 3 30.7086 26.2906 106.2530 0.0000 0.0000 0.0000
# 4 0.0000 0.0000 0.0000 43.2199 0.0000 0.0000
# 5 0.0000 0.0000 0.0000 0.0000 -51.1702 0.0000
# 6 0.0000 0.0000 0.0000 0.0000 0.0000 35.9332
#
#
#
# Elastic Compliance Matrix: (Units=1/GPa)
#
#
# Indices 1 2 3 4 5 6 
#
# 1 0.023150 -0.002215 -0.006143 0.000000 0.000000 0.000000
# 2 -0.002215 0.010241 -0.001894 0.000000 0.000000 0.000000
# 3 -0.006143 -0.001894 0.011655 0.000000 0.000000 0.000000
# 4 0.000000 0.000000 0.000000 0.023138 0.000000 0.000000
# 5 0.000000 0.000000 0.000000 0.000000 -0.019543 0.000000
# 6 0.000000 0.000000 0.000000 0.000000 0.000000 0.027829
#
#
# Mechanical properties :
#
#
# Convention : Reuss Voigt Hill
#
# Bulk Modulus (GPa) = 40.74368 45.96990 43.35679
# Shear Modulus (GPa) = 47.54965 18.35125 32.95045
#
# Velocity S-wave (km/s) = 4.66229 2.89640 3.88112
# Velocity P-wave (km/s) = 6.89988 5.67453 6.31699
#
# Compressibility (1/GPa) = 0.02454368
#
# Stress axis : x y z
#
# Youngs Moduli (GPa) = 43.19707 97.65081 85.79707
#
# Poissons Ratio (x) = 0.21625 0.52702
# Poissons Ratio (y) = 0.09566 0.16249
# Poissons Ratio (z) = 0.26534 0.18493
#
# Static dielectric constant tensor:
#      x y z
#    x 1.895220 0.000000 0.000000 
#    y 0.000000 1.792840 0.000000 
#    z 0.000000 0.000000 1.852380 
# 
# From -- ./inp_files/31303.got.cif
#   From: 2010.05.17/outbox.cif.g08.bks.cpg/sg73_16_cif.got.tgz:31303.got - 2010.06.03 17:35:07.
