data_PCOD9532059
_publ_section_title
;
Structure prediction by ZEFSAII (Michael W. Deem and Ramdas Pophale) SiO2 
 PCOD9532059
Probable space group: I B C A 
;
_chemical_formula_sum "Si O2"
_cell_formula_units_Z 104
_cell_length_a 19.188223
_cell_length_b 26.051472
_cell_length_c 9.029535
_cell_angle_alpha 90.000000
_cell_angle_beta 90.000000
_cell_angle_gamma 90.000000
_cell_volume 4513.697087
_symmetry_space_group_name_H-M "I B C A "
_symmetry_group_IT_number 73
_symmetry_cell_setting 'orthorhombic'
loop_
_space_group_symop_operation_xyz
x,y,z
-x,1/2-y,z
x,-y,1/2-z
1/2-x,y,-z
-x,-y,-z
x,1/2+y,-z
-x,y,1/2+z
1/2+x,-y,z
1/2+x,1/2+y,1/2+z
1/2-x,-y,1/2+z
1/2+x,1/2-y,-z
-x,1/2+y,1/2-z
1/2-x,1/2-y,1/2-z
1/2+x,y,1/2-z
1/2-x,1/2+y,z
x,1/2-y,1/2+z
loop_
_atom_site_type_symbol
_atom_site_label
_atom_site_fract_x
_atom_site_fract_y
_atom_site_fract_z
Si Si1 0.518227 0.500000 0.750000
Si Si2 0.320718 0.137416 0.577639
Si Si3 0.687938 0.117318 0.399121
Si Si4 0.951176 0.794625 0.284604
Si Si5 0.175828 0.225226 0.211469
Si Si6 0.044960 0.638442 0.010737
Si Si7 0.931948 0.061071 0.010647
O O1 0.465046 0.538348 0.660648
O O2 0.569197 0.481601 0.616965
O O3 0.250000 0.153079 0.500000
O O4 0.301689 0.105894 0.726675
O O5 0.352159 0.189777 0.649969
O O6 0.366591 0.099608 0.477216
O O7 0.750000 0.097120 0.500000
O O8 0.687207 0.180041 0.406780
O O9 0.608350 0.106881 0.440355
O O10 0.881181 0.766372 0.338368
O O11 0.000000 0.750000 0.220662
O O12 0.001455 0.824832 0.398710
O O13 0.928665 0.830966 0.151833
O O14 0.250000 0.250000 0.250000
O O15 0.988384 0.598546 0.063543
#
# Coordination Sequence:
#
# PCOD9532059 Si02
#       7
#     8  16  16  16  16  16  16
#     4  10  24  44  80  98 124 164 210 308 356 464
#     4  10  24  42  65  96 137 183 222 283 325 407
#     4  10  22  41  57  90 131 187 229 279 319 385
#     4  12  23  38  59  90 133 184 235 277 321 374
#     4  10  23  40  58  89 136 189 239 267 318 382
#     4  12  24  39  65  93 132 174 222 289 330 408
#     4  11  23  46  70 104 130 162 226 277 378 413
#
# _framework density 23.040977999999999
#
# number of rings (size 3 to 8) (size 9 to 14) (size 15 to 20)
#    0.923    0.308    1.538    5.077    2.154    3.077 
#    0.000    0.769    0.000    3.692    0.000    0.000 
#    0.000    0.000    0.000    0.000    0.000    0.000 
#
# Total GULP energy -289959.064170 kJ/mol
# GULP energy per Si atom -5576.135849 kJ/mol
# Density = 2.298854 g / cm^3
# Si number density = 23.040978 Si / 1000 Ang^3
#
#
#
# Elastic Constant Matrix: (Units=GPa)
#
#
# Indices 1 2 3 4 5 6 
#
# 1 93.5143 6.8772 5.8294 0.0000 0.0000 0.0000
# 2 6.8772 53.8571 12.4641 0.0000 0.0000 0.0000
# 3 5.8294 12.4641 69.7161 0.0000 0.0000 0.0000
# 4 0.0000 0.0000 0.0000 24.8633 0.0000 0.0000
# 5 0.0000 0.0000 0.0000 0.0000 32.7366 0.0000
# 6 0.0000 0.0000 0.0000 0.0000 0.0000 4.3598
#
#
#
# Elastic Compliance Matrix: (Units=1/GPa)
#
#
# Indices 1 2 3 4 5 6 
#
# 1 0.010826 -0.001224 -0.000687 0.000000 0.000000 0.000000
# 2 -0.001224 0.019507 -0.003385 0.000000 0.000000 0.000000
# 3 -0.000687 -0.003385 0.015007 0.000000 0.000000 0.000000
# 4 0.000000 0.000000 0.000000 0.040220 0.000000 0.000000
# 5 0.000000 0.000000 0.000000 0.000000 0.030547 0.000000
# 6 0.000000 0.000000 0.000000 0.000000 0.000000 0.229366
#
#
# Mechanical properties :
#
#
# Convention : Reuss Voigt Hill
#
# Bulk Modulus (GPa) = 28.77742 29.71433 29.24587
# Shear Modulus (GPa) = 13.60000 25.18641 19.39321
#
# Velocity S-wave (km/s) = 2.43215 3.30981 2.90433
# Velocity P-wave (km/s) = 4.51707 5.24698 4.89565
#
# Compressibility (1/GPa) = 0.03474947
#
# Stress axis : x y z
#
# Youngs Moduli (GPa) = 92.36743 51.26274 66.63769
#
# Poissons Ratio (x) = 0.06272 0.04575
# Poissons Ratio (y) = 0.11302 0.22559
# Poissons Ratio (z) = 0.06341 0.17354
#
# Static dielectric constant tensor:
#      x y z
#    x 1.933340 0.000000 0.000000 
#    y 0.000000 1.964940 0.000000 
#    z 0.000000 0.000000 1.908140 
# 
# From -- ./inp_files/6568.got.cif
#   From: 2010.05.17/outbox.cif.g08.bks.cpg/sg73_4_cif.got.tgz:6568.got - 2010.06.03 17:35:07.
