data_PCOD9532229
_publ_section_title
;
Structure prediction by ZEFSAII (Michael W. Deem and Ramdas Pophale) SiO2 
 PCOD9532229
Probable space group: I B C A 
;
_chemical_formula_sum "Si O2"
_cell_formula_units_Z 72
_cell_length_a 13.015984
_cell_length_b 23.612091
_cell_length_c 10.644440
_cell_angle_alpha 90.000000
_cell_angle_beta 90.000000
_cell_angle_gamma 90.000000
_cell_volume 3271.404695
_symmetry_space_group_name_H-M "I B C A "
_symmetry_group_IT_number 73
_symmetry_cell_setting 'orthorhombic'
loop_
_space_group_symop_operation_xyz
x,y,z
-x,1/2-y,z
x,-y,1/2-z
1/2-x,y,-z
-x,-y,-z
x,1/2+y,-z
-x,y,1/2+z
1/2+x,-y,z
1/2+x,1/2+y,1/2+z
1/2-x,-y,1/2+z
1/2+x,1/2-y,-z
-x,1/2+y,1/2-z
1/2-x,1/2-y,1/2-z
1/2+x,y,1/2-z
1/2-x,1/2+y,z
x,1/2-y,1/2+z
loop_
_atom_site_type_symbol
_atom_site_label
_atom_site_fract_x
_atom_site_fract_y
_atom_site_fract_z
Si Si1 0.128373 0.053228 0.504241
Si Si2 0.829949 0.667464 0.384294
Si Si3 0.000000 0.250000 0.007843
Si Si4 0.559444 0.951842 0.143534
Si Si5 0.662866 0.331981 0.607290
O O1 0.250000 0.051916 0.500000
O O2 0.108873 0.105847 0.409170
O O3 0.060043 0.066105 0.627061
O O4 0.095953 0.989478 0.474150
O O5 0.750000 0.671559 0.500000
O O6 0.925464 0.709046 0.412498
O O7 0.873121 0.603991 0.366499
O O8 0.788559 0.679023 0.243664
O O9 0.924985 0.212574 0.922903
O O10 0.572249 0.000000 0.250000
O O11 0.750000 0.327957 0.500000
#
# Coordination Sequence:
#
# PCOD9532229 Si02
#       5
#    16  16   8  16  16
#     4  10  22  43  66 102 141 187 234 301 366 441
#     4  12  27  48  76 113 149 199 253 311 381 454
#     4  12  26  48  74 104 148 200 258 312 368 442
#     4  11  22  44  73 106 146 188 245 302 379 446
#     4  11  25  48  72 105 146 194 246 308 375 445
#
# _framework density 22.008894000000002
#
# number of rings (size 3 to 8) (size 9 to 14) (size 15 to 20)
#    0.000    0.889    4.444    2.000    0.000    6.222 
#   16.000    0.000    0.000    0.000    0.000    0.000 
#    0.000    0.000    0.000    0.000    0.000    0.000 
#
# Total GULP energy -200576.879666 kJ/mol
# GULP energy per Si atom -5571.579991 kJ/mol
# Density = 2.195880 g / cm^3
# Si number density = 22.008894 Si / 1000 Ang^3
#
#
#
# Elastic Constant Matrix: (Units=GPa)
#
#
# Indices 1 2 3 4 5 6 
#
# 1 109.9788 46.1202 50.7760 0.0001 0.0000 0.0000
# 2 46.1202 138.6489 37.8634 0.0011 0.0000 0.0000
# 3 50.7760 37.8634 138.9890 0.0032 -0.0002 0.0000
# 4 0.0001 0.0011 0.0032 -245.9714 -0.0003 -0.0011
# 5 0.0000 0.0000 -0.0002 -0.0003 24.9243 0.0000
# 6 0.0000 0.0000 0.0000 -0.0011 0.0000 3.7355
#
#
#
# Elastic Compliance Matrix: (Units=1/GPa)
#
#
# Indices 1 2 3 4 5 6 
#
# 1 0.012004 -0.003020 -0.003563 0.000000 0.000000 0.000000
# 2 -0.003020 0.008552 -0.001226 0.000000 0.000000 0.000000
# 3 -0.003563 -0.001226 0.008830 0.000000 0.000000 0.000000
# 4 0.000000 0.000000 0.000000 -0.004066 0.000000 -0.000001
# 5 0.000000 0.000000 0.000000 0.000000 0.040122 0.000000
# 6 0.000000 0.000000 0.000000 -0.000001 0.000000 0.267702
#
#
# Mechanical properties :
#
#
# Convention : Reuss Voigt Hill
#
# Bulk Modulus (GPa) = 72.63146 73.01510 72.82328
# Shear Modulus (GPa) = 14.15020 -26.60519 -6.22750
#
# Velocity S-wave (km/s) = 2.53836 -3.48061 -1.68395
# Velocity P-wave (km/s) = 6.45474 4.13454 5.42024
#
# Compressibility (1/GPa) = 0.01376814
#
# Stress axis : x y z
#
# Youngs Moduli (GPa) = 83.30584 116.93186 113.24494
#
# Poissons Ratio (x) = 0.35315 0.40345
# Poissons Ratio (y) = 0.25159 0.13889
# Poissons Ratio (z) = 0.29679 0.14341
#
# Static dielectric constant tensor:
#      x y z
#    x 1.575610 0.000000 0.000000 
#    y 0.000000 1.852870 0.000000 
#    z 0.000000 0.000000 1.935460 
# 
# From -- ./inp_files/15945.got.cif
#   From: 2010.05.17/outbox.cif.g08.bks.cpg/sg73_8_cif.got.tgz:15945.got - 2010.06.03 17:35:07.
