data_PCOD9532568
_publ_section_title
;
Structure prediction by ZEFSAII (Michael W. Deem and Ramdas Pophale) SiO2 
 PCOD9532568
Probable space group: I B C A 
;
_chemical_formula_sum "Si O2"
_cell_formula_units_Z 80
_cell_length_a 17.045558
_cell_length_b 22.192260
_cell_length_c 8.812766
_cell_angle_alpha 90.000000
_cell_angle_beta 90.000000
_cell_angle_gamma 90.000000
_cell_volume 3333.688319
_symmetry_space_group_name_H-M "I B C A "
_symmetry_group_IT_number 73
_symmetry_cell_setting 'orthorhombic'
loop_
_space_group_symop_operation_xyz
x,y,z
-x,1/2-y,z
x,-y,1/2-z
1/2-x,y,-z
-x,-y,-z
x,1/2+y,-z
-x,y,1/2+z
1/2+x,-y,z
1/2+x,1/2+y,1/2+z
1/2-x,-y,1/2+z
1/2+x,1/2-y,-z
-x,1/2+y,1/2-z
1/2-x,1/2-y,1/2-z
1/2+x,y,1/2-z
1/2-x,1/2+y,z
x,1/2-y,1/2+z
loop_
_atom_site_type_symbol
_atom_site_label
_atom_site_fract_x
_atom_site_fract_y
_atom_site_fract_z
Si Si1 0.017839 0.614559 0.456601
Si Si2 0.750000 0.979097 0.000000
Si Si3 0.881215 0.910426 0.197237
Si Si4 0.863384 0.000000 0.750000
Si Si5 0.598741 0.133238 0.240102
Si Si6 0.260910 0.683414 0.684529
O O1 0.072820 0.570864 0.352711
O O2 0.076939 0.647484 0.569247
O O3 0.950754 0.591302 0.573145
O O4 0.968386 0.658591 0.348032
O O5 0.809500 0.944686 0.114673
O O6 0.692408 0.014954 0.108647
O O7 0.839919 0.848244 0.253036
O O8 0.909839 0.938710 0.771546
O O9 0.688083 0.148621 0.263932
O O10 0.250000 0.680867 0.500000
O O11 0.250000 0.750000 0.750000
#
# Coordination Sequence:
#
# PCOD9532568 Si02
#       6
#    16   8  16   8  16  16
#     4  10  23  43  72  95 151 180 228 297 353 437
#     4  12  26  42  72 100 144 192 240 302 334 442
#     4  11  22  48  68 101 137 184 236 291 356 421
#     4  12  26  40  72 106 140 188 242 292 352 418
#     4  11  24  47  67 106 140 189 236 288 363 418
#     4  12  27  46  75 102 137 186 243 300 353 430
#
# _framework density 23.997444999999999
#
# number of rings (size 3 to 8) (size 9 to 14) (size 15 to 20)
#    0.000    0.800    6.000    0.000    8.400    0.800 
#    0.000    6.000    0.000    0.000    0.000    0.000 
#    0.000    0.000    0.000    0.000    0.000    0.000 
#
# Total GULP energy -222956.631948 kJ/mol
# GULP energy per Si atom -5573.915799 kJ/mol
# Density = 2.394283 g / cm^3
# Si number density = 23.997445 Si / 1000 Ang^3
#
#
#
# Elastic Constant Matrix: (Units=GPa)
#
#
# Indices 1 2 3 4 5 6 
#
# 1 156.1414 31.1132 42.4928 0.0000 0.0000 0.0000
# 2 31.1132 68.7289 6.7483 0.0000 0.0000 0.0000
# 3 42.4928 6.7483 145.9364 0.0000 0.0000 0.0000
# 4 0.0000 0.0000 0.0000 22.2747 0.0000 0.0000
# 5 0.0000 0.0000 0.0000 0.0000 66.9517 0.0000
# 6 0.0000 0.0000 0.0000 0.0000 0.0000 5.6467
#
#
#
# Elastic Compliance Matrix: (Units=1/GPa)
#
#
# Indices 1 2 3 4 5 6 
#
# 1 0.007613 -0.003244 -0.002067 0.000000 0.000000 0.000000
# 2 -0.003244 0.015998 0.000205 0.000000 0.000000 0.000000
# 3 -0.002067 0.000205 0.007445 0.000000 0.000000 0.000000
# 4 0.000000 0.000000 0.000000 0.044894 0.000000 0.000000
# 5 0.000000 0.000000 0.000000 0.000000 0.014936 0.000000
# 6 0.000000 0.000000 0.000000 0.000000 0.000000 0.177093
#
#
# Mechanical properties :
#
#
# Convention : Reuss Voigt Hill
#
# Bulk Modulus (GPa) = 47.97385 59.05723 53.51554
# Shear Modulus (GPa) = 17.53531 38.33814 27.93672
#
# Velocity S-wave (km/s) = 2.70611 4.00133 3.41567
# Velocity P-wave (km/s) = 5.45881 6.78312 6.15668
#
# Compressibility (1/GPa) = 0.02084469
#
# Stress axis : x y z
#
# Youngs Moduli (GPa) = 131.35034 62.50723 134.32501
#
# Poissons Ratio (x) = 0.20274 0.27762
# Poissons Ratio (y) = 0.42604 -0.02749
# Poissons Ratio (z) = 0.27147 -0.01279
#
# Static dielectric constant tensor:
#      x y z
#    x 1.917470 0.000000 0.000000 
#    y 0.000000 1.901060 0.000000 
#    z 0.000000 0.000000 2.315310 
# 
# From -- ./inp_files/5617.got.cif
#   From: 2010.05.17/outbox.cif.g08.bks.cpg/sg73_3_cif.got.tgz:5617.got - 2010.06.03 17:35:07.
