data_PCOD9532731
_publ_section_title
;
Structure prediction by ZEFSAII (Michael W. Deem and Ramdas Pophale) SiO2 
 PCOD9532731
Probable space group: I B C A 
;
_chemical_formula_sum "Si O2"
_cell_formula_units_Z 72
_cell_length_a 9.091851
_cell_length_b 18.023711
_cell_length_c 18.709583
_cell_angle_alpha 90.000000
_cell_angle_beta 90.000000
_cell_angle_gamma 90.000000
_cell_volume 3065.918690
_symmetry_space_group_name_H-M "I B C A "
_symmetry_group_IT_number 73
_symmetry_cell_setting 'orthorhombic'
loop_
_space_group_symop_operation_xyz
x,y,z
-x,1/2-y,z
x,-y,1/2-z
1/2-x,y,-z
-x,-y,-z
x,1/2+y,-z
-x,y,1/2+z
1/2+x,-y,z
1/2+x,1/2+y,1/2+z
1/2-x,-y,1/2+z
1/2+x,1/2-y,-z
-x,1/2+y,1/2-z
1/2-x,1/2-y,1/2-z
1/2+x,y,1/2-z
1/2-x,1/2+y,z
x,1/2-y,1/2+z
loop_
_atom_site_type_symbol
_atom_site_label
_atom_site_fract_x
_atom_site_fract_y
_atom_site_fract_z
Si Si1 0.425066 0.914208 0.634235
Si Si2 0.000000 0.750000 0.505498
Si Si3 0.750000 0.640831 0.000000
Si Si4 0.250000 0.647132 0.000000
Si Si5 0.619920 0.194147 0.237935
Si Si6 0.769272 0.562220 0.138448
O O1 0.342733 0.895358 0.559918
O O2 0.424519 0.843768 0.687036
O O3 0.593351 0.940366 0.631239
O O4 0.332023 0.983874 0.662715
O O5 0.118077 0.693215 0.468771
O O6 0.123547 0.803344 0.539833
O O7 0.819914 0.588821 0.059893
O O8 0.500000 0.250000 0.206043
O O9 0.750000 0.250000 0.250000
O O10 0.672386 0.127107 0.188913
#
# Coordination Sequence:
#
# PCOD9532731 Si02
#       6
#    16   8   8   8  16  16
#     4  12  29  51  74 111 154 199 254 316 380 465
#     4  10  24  40  70 110 148 188 240 312 378 426
#     4  11  25  44  76 108 154 194 258 308 386 448
#     4  11  25  46  78 108 156 196 258 318 386 452
#     4  12  29  50  81 110 152 197 257 315 383 453
#     4  12  29  50  74 111 154 200 255 313 385 459
#
# _framework density 23.483989999999999
#
# number of rings (size 3 to 8) (size 9 to 14) (size 15 to 20)
#    0.000    0.444    4.444    1.333   15.556    3.556 
#    0.000    0.000    0.000    0.000    0.000    0.000 
#    0.000    0.000    0.000    0.000    0.000    0.000 
#
# Total GULP energy -200972.410515 kJ/mol
# GULP energy per Si atom -5582.566959 kJ/mol
# Density = 2.343054 g / cm^3
# Si number density = 23.483990 Si / 1000 Ang^3
#
#
#
# Elastic Constant Matrix: (Units=GPa)
#
#
# Indices 1 2 3 4 5 6 
#
# 1 170.8369 57.8385 13.6438 0.0000 0.0000 0.0000
# 2 57.8385 127.3036 23.2124 0.0000 0.0000 0.0000
# 3 13.6438 23.2124 82.0780 0.0000 0.0000 0.0000
# 4 0.0000 0.0000 0.0000 12.5012 0.0000 0.0000
# 5 0.0000 0.0000 0.0000 0.0000 20.6077 0.0000
# 6 0.0000 0.0000 0.0000 0.0000 0.0000 49.7087
#
#
#
# Elastic Compliance Matrix: (Units=1/GPa)
#
#
# Indices 1 2 3 4 5 6 
#
# 1 0.006924 -0.003095 -0.000275 0.000000 0.000000 0.000000
# 2 -0.003095 0.009666 -0.002219 0.000000 0.000000 0.000000
# 3 -0.000275 -0.002219 0.012857 0.000000 0.000000 0.000000
# 4 0.000000 0.000000 0.000000 0.079993 0.000000 0.000000
# 5 0.000000 0.000000 0.000000 0.000000 0.048526 0.000000
# 6 0.000000 0.000000 0.000000 0.000000 0.000000 0.020117
#
#
# Mechanical properties :
#
#
# Convention : Reuss Voigt Hill
#
# Bulk Modulus (GPa) = 54.74464 63.28976 59.01720
# Shear Modulus (GPa) = 25.59498 35.59843 30.59670
#
# Velocity S-wave (km/s) = 3.30493 3.89763 3.61345
# Velocity P-wave (km/s) = 6.15837 6.87488 6.52647
#
# Compressibility (1/GPa) = 0.01826663
#
# Stress axis : x y z
#
# Youngs Moduli (GPa) = 144.43560 103.45328 77.77910
#
# Poissons Ratio (x) = 0.32022 0.02143
# Poissons Ratio (y) = 0.44708 0.17260
# Poissons Ratio (z) = 0.03979 0.22958
#
# Static dielectric constant tensor:
#      x y z
#    x 1.792260 0.000000 0.000000 
#    y 0.000000 -1.107800 0.000000 
#    z 0.000000 0.000000 1.925690 
# 
# From -- ./inp_files/5376.got.cif
#   From: 2010.05.17/outbox.cif.g08.bks.cpg/sg73_3_cif.got.tgz:5376.got - 2010.06.03 17:35:07.
