data_PCOD9532243
_publ_section_title
;
Structure prediction by ZEFSAII (Michael W. Deem and Ramdas Pophale) SiO2 
 PCOD9532243
Probable space group: I B C A 
;
_chemical_formula_sum "Si O2"
_cell_formula_units_Z 104
_cell_length_a 26.156109
_cell_length_b 21.433850
_cell_length_c 9.854233
_cell_angle_alpha 90.000000
_cell_angle_beta 90.000000
_cell_angle_gamma 90.000000
_cell_volume 5524.540382
_symmetry_space_group_name_H-M "I B C A "
_symmetry_group_IT_number 73
_symmetry_cell_setting 'orthorhombic'
loop_
_space_group_symop_operation_xyz
x,y,z
-x,1/2-y,z
x,-y,1/2-z
1/2-x,y,-z
-x,-y,-z
x,1/2+y,-z
-x,y,1/2+z
1/2+x,-y,z
1/2+x,1/2+y,1/2+z
1/2-x,-y,1/2+z
1/2+x,1/2-y,-z
-x,1/2+y,1/2-z
1/2-x,1/2-y,1/2-z
1/2+x,y,1/2-z
1/2-x,1/2+y,z
x,1/2-y,1/2+z
loop_
_atom_site_type_symbol
_atom_site_label
_atom_site_fract_x
_atom_site_fract_y
_atom_site_fract_z
Si Si1 0.683775 0.909613 0.615023
Si Si2 0.293605 0.930436 0.804174
Si Si3 0.117374 0.656484 0.811369
Si Si4 0.388640 0.699887 0.656680
Si Si5 0.431474 0.617577 0.907135
Si Si6 0.897554 0.000000 0.250000
Si Si7 0.532387 0.687021 0.910236
O O1 0.697420 0.929891 0.464506
O O2 0.733747 0.912244 0.710498
O O3 0.658843 0.841680 0.609932
O O4 0.639790 0.955598 0.665352
O O5 0.334669 0.883073 0.741414
O O6 0.301298 0.000000 0.750000
O O7 0.129494 0.729742 0.823818
O O8 0.069375 0.660430 0.706931
O O9 0.100302 0.628273 0.955710
O O10 0.410320 0.666019 0.792198
O O11 0.432807 0.700146 0.541957
O O12 0.427778 0.548150 0.845649
O O13 0.489323 0.636157 0.939841
O O14 0.500000 0.750000 0.874086
#
# Coordination Sequence:
#
# PCOD9532243 Si02
#       7
#    16  16  16  16  16   8  16
#     4  10  22  43  68  91 129 171 216 280 334 392
#     4  11  23  42  68  94 127 174 224 272 333 397
#     4  12  23  40  67 101 130 171 229 273 324 399
#     4  11  22  41  65  97 134 170 218 274 334 386
#     4  11  24  38  66  95 133 175 222 267 321 397
#     4  10  22  46  62  92 132 178 214 266 336 398
#     4  12  22  41  65  97 131 180 214 268 331 393
#
# _framework density 18.825095000000001
#
# number of rings (size 3 to 8) (size 9 to 14) (size 15 to 20)
#    0.000    0.923    5.385    1.846    0.000    0.615 
#    1.385    3.846    0.000    0.000    0.000    0.000 
#    0.000    0.000    0.000    0.000    0.000    0.000 
#
# Total GULP energy -290316.191844 kJ/mol
# GULP energy per Si atom -5583.003689 kJ/mol
# Density = 1.878225 g / cm^3
# Si number density = 18.825095 Si / 1000 Ang^3
#
#
#
# Elastic Constant Matrix: (Units=GPa)
#
#
# Indices 1 2 3 4 5 6 
#
# 1 112.6348 81.8722 34.6194 0.0000 0.0000 0.0000
# 2 81.8722 152.5176 37.3524 0.0000 0.0000 0.0000
# 3 34.6194 37.3524 92.6212 0.0000 0.0000 0.0000
# 4 0.0000 0.0000 0.0000 20.5436 0.0000 0.0000
# 5 0.0000 0.0000 0.0000 0.0000 41.6260 0.0000
# 6 0.0000 0.0000 0.0000 0.0000 0.0000 28.8204
#
#
#
# Elastic Compliance Matrix: (Units=1/GPa)
#
#
# Indices 1 2 3 4 5 6 
#
# 1 0.015119 -0.007470 -0.002639 0.000000 0.000000 0.000000
# 2 -0.007470 0.010966 -0.001630 0.000000 0.000000 0.000000
# 3 -0.002639 -0.001630 0.012440 0.000000 0.000000 0.000000
# 4 0.000000 0.000000 0.000000 0.048677 0.000000 0.000000
# 5 0.000000 0.000000 0.000000 0.000000 0.024023 0.000000
# 6 0.000000 0.000000 0.000000 0.000000 0.000000 0.034698
#
#
# Mechanical properties :
#
#
# Convention : Reuss Voigt Hill
#
# Bulk Modulus (GPa) = 66.45539 73.94019 70.19779
# Shear Modulus (GPa) = 28.66711 31.79331 30.23021
#
# Velocity S-wave (km/s) = 3.90656 4.11406 4.01165
# Velocity P-wave (km/s) = 7.46501 7.86956 7.66995
#
# Compressibility (1/GPa) = 0.01504769
#
# Stress axis : x y z
#
# Youngs Moduli (GPa) = 66.14275 91.19408 80.38337
#
# Poissons Ratio (x) = 0.68119 0.21210
# Poissons Ratio (y) = 0.49406 0.13105
# Poissons Ratio (z) = 0.17453 0.14867
#
# Static dielectric constant tensor:
#      x y z
#    x 1.669150 0.000000 0.000000 
#    y 0.000000 1.669520 0.000000 
#    z 0.000000 0.000000 1.678340 
# 
# From -- ./inp_files/7895.got.cif
#   From: 2010.05.17/outbox.cif.g08.bks.cpg/sg73_4_cif.got.tgz:7895.got - 2010.06.03 17:35:07.
