data_PCOD9532388
_publ_section_title
;
Structure prediction by ZEFSAII (Michael W. Deem and Ramdas Pophale) SiO2 
 PCOD9532388
Probable space group: I B C A 
;
_chemical_formula_sum "Si O2"
_cell_formula_units_Z 120
_cell_length_a 27.970207
_cell_length_b 9.398716
_cell_length_c 20.743977
_cell_angle_alpha 90.000000
_cell_angle_beta 90.000000
_cell_angle_gamma 90.000000
_cell_volume 5453.260315
_symmetry_space_group_name_H-M "I B C A "
_symmetry_group_IT_number 73
_symmetry_cell_setting 'orthorhombic'
loop_
_space_group_symop_operation_xyz
x,y,z
-x,1/2-y,z
x,-y,1/2-z
1/2-x,y,-z
-x,-y,-z
x,1/2+y,-z
-x,y,1/2+z
1/2+x,-y,z
1/2+x,1/2+y,1/2+z
1/2-x,-y,1/2+z
1/2+x,1/2-y,-z
-x,1/2+y,1/2-z
1/2-x,1/2-y,1/2-z
1/2+x,y,1/2-z
1/2-x,1/2+y,z
x,1/2-y,1/2+z
loop_
_atom_site_type_symbol
_atom_site_label
_atom_site_fract_x
_atom_site_fract_y
_atom_site_fract_z
Si Si1 0.049113 0.478012 0.539065
Si Si2 0.301229 0.084649 0.867590
Si Si3 0.225595 0.115704 0.569714
Si Si4 0.121275 0.360609 0.890782
Si Si5 0.500000 0.250000 0.386927
Si Si6 0.370950 0.558478 0.933398
Si Si7 0.575402 0.085030 0.815394
Si Si8 0.868456 0.654316 0.256444
O O1 0.066913 0.593369 0.592095
O O2 0.041174 0.324707 0.571396
O O3 0.091196 0.480634 0.487699
O O4 0.000000 0.500000 0.500000
O O5 0.287189 0.229272 0.903105
O O6 0.319058 0.124472 0.795239
O O7 0.259285 0.970405 0.879814
O O8 0.347445 0.003657 0.896812
O O9 0.250000 0.127953 0.500000
O O10 0.178293 0.023053 0.560202
O O11 0.135947 0.228380 0.934657
O O12 0.133499 0.305426 0.818501
O O13 0.475075 0.128834 0.345367
O O14 0.395016 0.506383 0.866735
O O15 0.603433 0.229852 0.797396
O O16 0.569364 0.000000 0.750000
O O17 0.893521 0.500000 0.250000
#
# Coordination Sequence:
#
# PCOD9532388 Si02
#       8
#    16  16  16  16   8  16  16  16
#     4  12  26  46  75 109 151 195 250 308 376 448
#     4  11  24  46  71 107 146 191 245 310 378 448
#     4  12  26  44  73 109 148 192 247 311 382 453
#     4  11  25  46  75 105 146 190 245 307 367 446
#     4  12  26  46  70 108 152 194 254 312 374 438
#     4  12  26  48  75 105 148 195 247 310 372 448
#     4  12  25  48  74 108 150 200 246 309 371 443
#     4  10  22  46  74 102 145 189 246 297 371 435
#
# _framework density 22.005184
#
# number of rings (size 3 to 8) (size 9 to 14) (size 15 to 20)
#    0.000    0.533    4.000    4.400    0.000    3.733 
#    0.000   13.333    0.000    0.000    0.000    0.000 
#    0.000    0.000    0.000    0.000    0.000    0.000 
#
# Total GULP energy -335445.169225 kJ/mol
# GULP energy per Si atom -5590.752820 kJ/mol
# Density = 2.195510 g / cm^3
# Si number density = 22.005184 Si / 1000 Ang^3
#
#
#
# Elastic Constant Matrix: (Units=GPa)
#
#
# Indices 1 2 3 4 5 6 
#
# 1 116.3216 38.0220 52.9308 0.0000 0.0000 0.0000
# 2 38.0220 129.8717 30.6419 0.0000 0.0000 0.0000
# 3 52.9308 30.6419 121.1506 0.0000 0.0000 0.0000
# 4 0.0000 0.0000 0.0000 28.1493 0.0000 0.0000
# 5 0.0000 0.0000 0.0000 0.0000 13.9567 0.0000
# 6 0.0000 0.0000 0.0000 0.0000 0.0000 38.2237
#
#
#
# Elastic Compliance Matrix: (Units=1/GPa)
#
#
# Indices 1 2 3 4 5 6 
#
# 1 0.011334 -0.002286 -0.004374 0.000000 0.000000 0.000000
# 2 -0.002286 0.008650 -0.001189 0.000000 0.000000 0.000000
# 3 -0.004374 -0.001189 0.010466 0.000000 0.000000 0.000000
# 4 0.000000 0.000000 0.000000 0.035525 0.000000 0.000000
# 5 0.000000 0.000000 0.000000 0.000000 0.071650 0.000000
# 6 0.000000 0.000000 0.000000 0.000000 0.000000 0.026162
#
#
# Mechanical properties :
#
#
# Convention : Reuss Voigt Hill
#
# Bulk Modulus (GPa) = 67.78707 67.83705 67.81206
# Shear Modulus (GPa) = 27.11464 32.44921 29.78192
#
# Velocity S-wave (km/s) = 3.51407 3.84424 3.68286
# Velocity P-wave (km/s) = 6.88018 7.11329 6.99770
#
# Compressibility (1/GPa) = 0.01475208
#
# Stress axis : x y z
#
# Youngs Moduli (GPa) = 88.22675 115.61002 95.54972
#
# Poissons Ratio (x) = 0.26433 0.41791
# Poissons Ratio (y) = 0.20172 0.11359
# Poissons Ratio (z) = 0.38588 0.13744
#
# Static dielectric constant tensor:
#      x y z
#    x 1.800400 0.000000 0.000000 
#    y 0.000000 1.815890 0.000000 
#    z 0.000000 0.000000 1.891460 
# 
# From -- ./inp_files/30531.got.cif
#   From: 2010.05.17/outbox.cif.g08.bks.cpg/sg73_16_cif.got.tgz:30531.got - 2010.06.03 17:35:07.
