data_PCOD9532812
_publ_section_title
;
Structure prediction by ZEFSAII (Michael W. Deem and Ramdas Pophale) SiO2 
 PCOD9532812
Probable space group: I B C A 
;
_chemical_formula_sum "Si O2"
_cell_formula_units_Z 112
_cell_length_a 15.991419
_cell_length_b 30.071965
_cell_length_c 10.761153
_cell_angle_alpha 90.000000
_cell_angle_beta 90.000000
_cell_angle_gamma 90.000000
_cell_volume 5174.967373
_symmetry_space_group_name_H-M "I B C A "
_symmetry_group_IT_number 73
_symmetry_cell_setting 'orthorhombic'
loop_
_space_group_symop_operation_xyz
x,y,z
-x,1/2-y,z
x,-y,1/2-z
1/2-x,y,-z
-x,-y,-z
x,1/2+y,-z
-x,y,1/2+z
1/2+x,-y,z
1/2+x,1/2+y,1/2+z
1/2-x,-y,1/2+z
1/2+x,1/2-y,-z
-x,1/2+y,1/2-z
1/2-x,1/2-y,1/2-z
1/2+x,y,1/2-z
1/2-x,1/2+y,z
x,1/2-y,1/2+z
loop_
_atom_site_type_symbol
_atom_site_label
_atom_site_fract_x
_atom_site_fract_y
_atom_site_fract_z
Si Si1 0.782146 0.468645 0.359447
Si Si2 0.035601 0.487040 0.630157
Si Si3 0.274990 0.371538 0.260308
Si Si4 0.827387 0.187318 0.402804
Si Si5 0.015303 0.334824 0.942620
Si Si6 0.681310 0.784062 0.393197
Si Si7 0.956212 0.117254 0.675398
O O1 0.743958 0.500000 0.250000
O O2 0.750000 0.474368 0.500000
O O3 0.878341 0.484838 0.364111
O O4 0.773655 0.417366 0.315868
O O5 0.981316 0.500000 0.750000
O O6 0.043479 0.434852 0.648975
O O7 0.000000 0.500000 0.500000
O O8 0.190612 0.358825 0.331104
O O9 0.290249 0.326957 0.182672
O O10 0.357735 0.372305 0.345784
O O11 0.750000 0.188977 0.500000
O O12 0.922860 0.185883 0.445520
O O13 0.822911 0.235121 0.332175
O O14 0.088825 0.298546 0.938435
O O15 0.025027 0.365370 0.816588
O O16 0.017248 0.361367 0.072908
O O17 0.750000 0.780535 0.500000
#
# Coordination Sequence:
#
# PCOD9532812 Si02
#       7
#    16  16  16  16  16  16  16
#     4  11  25  44  70 103 145 189 243 306 363 443
#     4  11  23  42  68  97 142 184 240 300 359 432
#     4  11  22  43  68  99 142 187 244 297 364 436
#     4  11  23  43  68 103 142 191 242 298 369 444
#     4  11  25  43  71 104 142 190 240 299 370 435
#     4  10  24  43  68 101 142 186 242 303 367 445
#     4  11  23  43  68 101 141 188 238 298 361 431
#
# _framework density 21.642648999999999
#
# number of rings (size 3 to 8) (size 9 to 14) (size 15 to 20)
#    0.000    1.143    4.286    2.143    4.000    3.429 
#    0.000    1.429    0.000    0.000    0.000    0.000 
#    0.000    0.000    0.000    0.000    0.000    0.000 
#
# Total GULP energy -311952.000132 kJ/mol
# GULP energy per Si atom -5570.571431 kJ/mol
# Density = 2.159339 g / cm^3
# Si number density = 21.642649 Si / 1000 Ang^3
#
#
#
# Elastic Constant Matrix: (Units=GPa)
#
#
# Indices 1 2 3 4 5 6 
#
# 1 101.0739 28.0047 34.7352 -0.0019 -0.0001 -0.0003
# 2 28.0047 165.0272 61.9135 -0.0018 0.0001 0.0005
# 3 34.7352 61.9135 134.6281 -0.0332 0.0008 0.0005
# 4 -0.0019 -0.0018 -0.0332 99.7895 0.0051 0.0166
# 5 -0.0001 0.0001 0.0008 0.0051 36.0685 0.0008
# 6 -0.0003 0.0005 0.0005 0.0166 0.0008 -22.7432
#
#
#
# Elastic Compliance Matrix: (Units=1/GPa)
#
#
# Indices 1 2 3 4 5 6 
#
# 1 0.010983 -0.000968 -0.002389 -0.000001 0.000000 0.000000
# 2 -0.000968 0.007408 -0.003157 -0.000001 0.000000 0.000000
# 3 -0.002389 -0.003157 0.009496 0.000003 0.000000 0.000000
# 4 -0.000001 -0.000001 0.000003 0.010021 -0.000001 0.000007
# 5 0.000000 0.000000 0.000000 -0.000001 0.027725 0.000001
# 6 0.000000 0.000000 0.000000 0.000007 0.000001 -0.043969
#
#
# Mechanical properties :
#
#
# Convention : Reuss Voigt Hill
#
# Bulk Modulus (GPa) = 67.29439 72.22622 69.76030
# Shear Modulus (GPa) = 126.12042 41.02802 83.57422
#
# Velocity S-wave (km/s) = 7.64202 4.35869 6.22088
# Velocity P-wave (km/s) = 10.44166 7.66652 9.15980
#
# Compressibility (1/GPa) = 0.01486008
#
# Stress axis : x y z
#
# Youngs Moduli (GPa) = 91.05199 134.98276 105.30540
#
# Poissons Ratio (x) = 0.13061 0.25154
# Poissons Ratio (y) = 0.08810 0.33249
# Poissons Ratio (z) = 0.21749 0.42619
#
# Static dielectric constant tensor:
#      x y z
#    x 1.827730 0.000000 0.000000 
#    y 0.000000 1.901220 0.000000 
#    z 0.000000 0.000000 1.911360 
# 
# From -- ./inp_files/11271.got.cif
#   From: 2010.05.17/outbox.cif.g08.bks.cpg/sg73_6_cif.got.tgz:11271.got - 2010.06.03 17:35:07.
