data_PCOD9532453
_publ_section_title
;
Structure prediction by ZEFSAII (Michael W. Deem and Ramdas Pophale) SiO2 
 PCOD9532453
Probable space group: I B C A 
;
_chemical_formula_sum "Si O2"
_cell_formula_units_Z 80
_cell_length_a 13.824619
_cell_length_b 13.701927
_cell_length_c 22.589810
_cell_angle_alpha 90.000000
_cell_angle_beta 90.000000
_cell_angle_gamma 90.000000
_cell_volume 4279.050370
_symmetry_space_group_name_H-M "I B C A "
_symmetry_group_IT_number 73
_symmetry_cell_setting 'orthorhombic'
loop_
_space_group_symop_operation_xyz
x,y,z
-x,1/2-y,z
x,-y,1/2-z
1/2-x,y,-z
-x,-y,-z
x,1/2+y,-z
-x,y,1/2+z
1/2+x,-y,z
1/2+x,1/2+y,1/2+z
1/2-x,-y,1/2+z
1/2+x,1/2-y,-z
-x,1/2+y,1/2-z
1/2-x,1/2-y,1/2-z
1/2+x,y,1/2-z
1/2-x,1/2+y,z
x,1/2-y,1/2+z
loop_
_atom_site_type_symbol
_atom_site_label
_atom_site_fract_x
_atom_site_fract_y
_atom_site_fract_z
Si Si1 0.977851 0.142326 0.954986
Si Si2 0.595038 0.856260 0.319926
Si Si3 0.613762 0.859147 0.772502
Si Si4 0.345568 0.994340 0.034721
Si Si5 0.206796 0.956342 0.832668
O O1 0.000000 0.250000 0.978215
O O2 0.938107 0.152282 0.888201
O O3 0.076324 0.079552 0.954660
O O4 0.900211 0.085891 0.994920
O O5 0.498854 0.883045 0.283725
O O6 0.628431 0.750792 0.295199
O O7 0.682471 0.931736 0.318122
O O8 0.643312 0.879499 0.705064
O O9 0.676386 0.936759 0.809726
O O10 0.313879 0.951752 0.097931
O O11 0.250000 0.028438 0.000000
#
# Coordination Sequence:
#
# PCOD9532453 Si02
#       5
#    16  16  16  16  16
#     4  11  22  42  64  89 126 168 205 257 324 369
#     4  11  20  42  66  86 126 167 203 257 314 378
#     4  10  23  40  64  88 127 165 205 253 323 374
#     4  11  23  41  64  95 126 164 216 264 310 380
#     4  11  22  40  62  95 122 160 215 259 308 381
#
# _framework density 18.695737000000001
#
# number of rings (size 3 to 8) (size 9 to 14) (size 15 to 20)
#    0.000    1.200    6.000    0.600    0.000    4.000 
#    7.200    0.000    0.000    0.000    0.000    0.000 
#    0.000    0.000    0.000    0.000    0.000    0.000 
#
# Total GULP energy -223431.237560 kJ/mol
# GULP energy per Si atom -5585.780939 kJ/mol
# Density = 1.865318 g / cm^3
# Si number density = 18.695737 Si / 1000 Ang^3
#
#
#
# Elastic Constant Matrix: (Units=GPa)
#
#
# Indices 1 2 3 4 5 6 
#
# 1 121.6355 43.3445 28.0344 0.0000 0.0000 0.0000
# 2 43.3445 90.5836 16.1121 0.0000 0.0000 0.0000
# 3 28.0344 16.1121 117.2381 0.0000 0.0000 0.0000
# 4 0.0000 0.0000 0.0000 15.5981 0.0000 0.0000
# 5 0.0000 0.0000 0.0000 0.0000 23.6355 0.0000
# 6 0.0000 0.0000 0.0000 0.0000 0.0000 29.6133
#
#
#
# Elastic Compliance Matrix: (Units=1/GPa)
#
#
# Indices 1 2 3 4 5 6 
#
# 1 0.010279 -0.004594 -0.001827 0.000000 0.000000 0.000000
# 2 -0.004594 0.013369 -0.000739 0.000000 0.000000 0.000000
# 3 -0.001827 -0.000739 0.009068 0.000000 0.000000 0.000000
# 4 0.000000 0.000000 0.000000 0.064110 0.000000 0.000000
# 5 0.000000 0.000000 0.000000 0.000000 0.042309 0.000000
# 6 0.000000 0.000000 0.000000 0.000000 0.000000 0.033769
#
#
# Mechanical properties :
#
#
# Convention : Reuss Voigt Hill
#
# Bulk Modulus (GPa) = 54.35442 56.04878 55.20160
# Shear Modulus (GPa) = 25.85908 29.90047 27.87977
#
# Velocity S-wave (km/s) = 3.72311 4.00349 3.86584
# Velocity P-wave (km/s) = 6.90061 7.17043 7.03681
#
# Compressibility (1/GPa) = 0.01839777
#
# Stress axis : x y z
#
# Youngs Moduli (GPa) = 97.28330 74.79960 110.27794
#
# Poissons Ratio (x) = 0.34361 0.20144
# Poissons Ratio (y) = 0.44689 0.08148
# Poissons Ratio (z) = 0.17771 0.05527
#
# Static dielectric constant tensor:
#      x y z
#    x 1.644090 0.000000 0.000000 
#    y 0.000000 1.634250 0.000000 
#    z 0.000000 0.000000 1.646000 
# 
# From -- ./inp_files/10815.got.cif
#   From: 2010.05.17/outbox.cif.g08.bks.cpg/sg73_6_cif.got.tgz:10815.got - 2010.06.03 17:35:07.
