data_PCOD9532282
_publ_section_title
;
Structure prediction by ZEFSAII (Michael W. Deem and Ramdas Pophale) SiO2 
 PCOD9532282
Probable space group: I B C A 
;
_chemical_formula_sum "Si O2"
_cell_formula_units_Z 88
_cell_length_a 12.454711
_cell_length_b 31.008256
_cell_length_c 9.508378
_cell_angle_alpha 90.000000
_cell_angle_beta 90.000000
_cell_angle_gamma 90.000000
_cell_volume 3672.124812
_symmetry_space_group_name_H-M "I B C A "
_symmetry_group_IT_number 73
_symmetry_cell_setting 'orthorhombic'
loop_
_space_group_symop_operation_xyz
x,y,z
-x,1/2-y,z
x,-y,1/2-z
1/2-x,y,-z
-x,-y,-z
x,1/2+y,-z
-x,y,1/2+z
1/2+x,-y,z
1/2+x,1/2+y,1/2+z
1/2-x,-y,1/2+z
1/2+x,1/2-y,-z
-x,1/2+y,1/2-z
1/2-x,1/2-y,1/2-z
1/2+x,y,1/2-z
1/2-x,1/2+y,z
x,1/2-y,1/2+z
loop_
_atom_site_type_symbol
_atom_site_label
_atom_site_fract_x
_atom_site_fract_y
_atom_site_fract_z
Si Si1 0.692728 0.893253 0.646515
Si Si2 0.856284 0.047850 0.717314
Si Si3 0.373283 0.700597 0.626643
Si Si4 0.994568 0.579756 0.525698
Si Si5 0.750000 0.225064 0.500000
Si Si6 0.538120 0.677798 0.396666
O O1 0.750000 0.903729 0.500000
O O2 0.759157 0.918345 0.763084
O O3 0.696107 0.841858 0.662144
O O4 0.573701 0.907744 0.604807
O O5 0.905613 0.053037 0.560795
O O6 0.815783 0.000000 0.750000
O O7 0.942482 0.057022 0.845256
O O8 0.301743 0.742428 0.613853
O O9 0.434771 0.693824 0.480519
O O10 0.467315 0.696807 0.740608
O O11 0.957992 0.626074 0.587842
O O12 0.650021 0.196775 0.548339
#
# Coordination Sequence:
#
# PCOD9532282 Si02
#       6
#    16  16  16  16   8  16
#     4   9  20  41  68  92 133 187 221 277 358 418
#     4  11  23  42  72 104 138 183 238 293 358 429
#     4  11  24  47  69  99 143 184 234 296 360 422
#     4  10  22  44  67 101 144 184 230 289 359 428
#     4  12  26  42  72 108 136 182 244 306 346 432
#     4  11  26  44  70 103 139 189 238 288 361 433
#
# _framework density 23.964328999999999
#
# number of rings (size 3 to 8) (size 9 to 14) (size 15 to 20)
#    0.000    1.455    0.909    3.818    2.545    5.091 
#    0.000    7.273    0.000    0.000    0.000    0.000 
#    0.000    0.000    0.000    0.000    0.000    0.000 
#
# Total GULP energy -245966.348688 kJ/mol
# GULP energy per Si atom -5590.144288 kJ/mol
# Density = 2.390978 g / cm^3
# Si number density = 23.964329 Si / 1000 Ang^3
#
#
#
# Elastic Constant Matrix: (Units=GPa)
#
#
# Indices 1 2 3 4 5 6 
#
# 1 55.1525 33.3770 17.7127 -0.0002 0.0001 0.0000
# 2 33.3770 80.2408 10.2241 -0.0002 0.0001 0.0001
# 3 17.7127 10.2241 101.4211 0.0013 -0.0007 -0.0003
# 4 -0.0002 -0.0002 0.0013 18.3104 -0.0001 -0.0001
# 5 0.0001 0.0001 -0.0007 -0.0001 27.9374 0.0001
# 6 0.0000 0.0001 -0.0003 -0.0001 0.0001 23.1762
#
#
#
# Elastic Compliance Matrix: (Units=1/GPa)
#
#
# Indices 1 2 3 4 5 6 
#
# 1 0.025342 -0.010107 -0.003407 0.000000 0.000000 0.000000
# 2 -0.010107 0.016656 0.000086 0.000000 0.000000 0.000000
# 3 -0.003407 0.000086 0.010446 -0.000001 0.000000 0.000000
# 4 0.000000 0.000000 -0.000001 0.054614 0.000000 0.000000
# 5 0.000000 0.000000 0.000000 0.000000 0.035794 0.000000
# 6 0.000000 0.000000 0.000000 0.000000 0.000000 0.043148
#
#
# Mechanical properties :
#
#
# Convention : Reuss Voigt Hill
#
# Bulk Modulus (GPa) = 39.08080 39.93799 39.50939
# Shear Modulus (GPa) = 22.58498 25.58483 24.08490
#
# Velocity S-wave (km/s) = 3.07325 3.27099 3.17366
# Velocity P-wave (km/s) = 5.37926 5.56486 5.47285
#
# Compressibility (1/GPa) = 0.02558802
#
# Stress axis : x y z
#
# Youngs Moduli (GPa) = 39.45950 60.03935 95.72841
#
# Poissons Ratio (x) = 0.60684 0.32615
# Poissons Ratio (y) = 0.39883 -0.00825
# Poissons Ratio (z) = 0.13444 -0.00517
#
# Static dielectric constant tensor:
#      x y z
#    x 1.962720 0.000000 0.000000 
#    y 0.000000 1.872070 0.000000 
#    z 0.000000 0.000000 2.002670 
# 
# From -- ./inp_files/9870.got.cif
#   From: 2010.05.17/outbox.cif.g08.bks.cpg/sg73_5_cif.got.tgz:9870.got - 2010.06.03 17:35:07.
