data_PCOD9532923
_publ_section_title
;
Structure prediction by ZEFSAII (Michael W. Deem and Ramdas Pophale) SiO2 
 PCOD9532923
Probable space group: I B C A 
;
_chemical_formula_sum "Si O2"
_cell_formula_units_Z 80
_cell_length_a 10.380804
_cell_length_b 22.981366
_cell_length_c 14.173388
_cell_angle_alpha 90.000000
_cell_angle_beta 90.000000
_cell_angle_gamma 90.000000
_cell_volume 3381.275103
_symmetry_space_group_name_H-M "I B C A "
_symmetry_group_IT_number 73
_symmetry_cell_setting 'orthorhombic'
loop_
_space_group_symop_operation_xyz
x,y,z
-x,1/2-y,z
x,-y,1/2-z
1/2-x,y,-z
-x,-y,-z
x,1/2+y,-z
-x,y,1/2+z
1/2+x,-y,z
1/2+x,1/2+y,1/2+z
1/2-x,-y,1/2+z
1/2+x,1/2-y,-z
-x,1/2+y,1/2-z
1/2-x,1/2-y,1/2-z
1/2+x,y,1/2-z
1/2-x,1/2+y,z
x,1/2-y,1/2+z
loop_
_atom_site_type_symbol
_atom_site_label
_atom_site_fract_x
_atom_site_fract_y
_atom_site_fract_z
Si Si1 0.824632 0.810566 0.749871
Si Si2 0.180430 0.426115 0.236854
Si Si3 0.773790 0.509093 0.398201
Si Si4 0.102109 0.197733 0.463169
Si Si5 0.467954 0.385581 0.396933
O O1 0.750000 0.750000 0.750000
O O2 0.718321 0.860508 0.754845
O O3 0.893624 0.813080 0.648836
O O4 0.914385 0.830209 0.836905
O O5 0.163230 0.459651 0.334799
O O6 0.296889 0.456461 0.176132
O O7 0.059462 0.422255 0.170931
O O8 0.750000 0.482403 0.500000
O O9 0.863226 0.564998 0.420150
O O10 0.250000 0.209495 0.500000
O O11 0.046587 0.141709 0.517386
O O12 0.000000 0.250000 0.480323
#
# Coordination Sequence:
#
# PCOD9532923 Si02
#       5
#    16  16  16  16  16
#     4  11  26  46  75 106 152 197 251 323 391 465
#     4  10  24  46  70 106 149 190 253 312 388 452
#     4  10  25  45  73 106 145 194 258 316 380 461
#     4  12  27  46  76 112 156 203 261 319 401 479
#     4  11  26  46  73 105 151 199 259 318 394 471
#
# _framework density 23.659714000000001
#
# number of rings (size 3 to 8) (size 9 to 14) (size 15 to 20)
#    0.000    1.200    2.000    1.200    8.400    9.600 
#    0.000    0.000    0.000    0.000    0.000    0.000 
#    0.000    0.000    0.000    0.000    0.000    0.000 
#
# Total GULP energy -223149.498325 kJ/mol
# GULP energy per Si atom -5578.737458 kJ/mol
# Density = 2.360586 g / cm^3
# Si number density = 23.659714 Si / 1000 Ang^3
#
#
#
# Elastic Constant Matrix: (Units=GPa)
#
#
# Indices 1 2 3 4 5 6 
#
# 1 59.0939 16.7020 15.5199 0.0000 0.0000 0.0000
# 2 16.7020 132.3583 13.5773 0.0000 0.0000 0.0000
# 3 15.5199 13.5773 105.1890 0.0001 0.0000 0.0000
# 4 0.0000 0.0000 0.0001 30.8698 0.0000 0.0000
# 5 0.0000 0.0000 0.0000 0.0000 23.4705 0.0000
# 6 0.0000 0.0000 0.0000 0.0000 0.0000 21.5235
#
#
#
# Elastic Compliance Matrix: (Units=1/GPa)
#
#
# Indices 1 2 3 4 5 6 
#
# 1 0.018132 -0.002041 -0.002412 0.000000 0.000000 0.000000
# 2 -0.002041 0.007886 -0.000717 0.000000 0.000000 0.000000
# 3 -0.002412 -0.000717 0.009955 0.000000 0.000000 0.000000
# 4 0.000000 0.000000 0.000000 0.032394 0.000000 0.000000
# 5 0.000000 0.000000 0.000000 0.000000 0.042607 0.000000
# 6 0.000000 0.000000 0.000000 0.000000 0.000000 0.046461
#
#
# Mechanical properties :
#
#
# Convention : Reuss Voigt Hill
#
# Bulk Modulus (GPa) = 39.00925 43.13773 41.07349
# Shear Modulus (GPa) = 28.35764 31.89556 30.12660
#
# Velocity S-wave (km/s) = 3.46578 3.67563 3.57224
# Velocity P-wave (km/s) = 5.70429 6.02377 5.86620
#
# Compressibility (1/GPa) = 0.02563495
#
# Stress axis : x y z
#
# Youngs Moduli (GPa) = 55.14981 126.80230 100.45122
#
# Poissons Ratio (x) = 0.25876 0.24228
# Poissons Ratio (y) = 0.11254 0.07201
# Poissons Ratio (z) = 0.13302 0.09090
#
# Static dielectric constant tensor:
#      x y z
#    x 1.787390 0.000000 0.000000 
#    y 0.000000 1.927980 0.000000 
#    z 0.000000 0.000000 1.903370 
# 
# From -- ./inp_files/16026.got.cif
#   From: 2010.05.17/outbox.cif.g08.bks.cpg/sg73_9_cif.got.tgz:16026.got - 2010.06.03 17:35:07.
