data_PCOD9532129
_publ_section_title
;
Structure prediction by ZEFSAII (Michael W. Deem and Ramdas Pophale) SiO2 
 PCOD9532129
Probable space group: I B C A 
;
_chemical_formula_sum "Si O2"
_cell_formula_units_Z 96
_cell_length_a 16.360764
_cell_length_b 14.004294
_cell_length_c 17.869403
_cell_angle_alpha 90.000000
_cell_angle_beta 90.000000
_cell_angle_gamma 90.000000
_cell_volume 4094.254576
_symmetry_space_group_name_H-M "I B C A "
_symmetry_group_IT_number 73
_symmetry_cell_setting 'orthorhombic'
loop_
_space_group_symop_operation_xyz
x,y,z
-x,1/2-y,z
x,-y,1/2-z
1/2-x,y,-z
-x,-y,-z
x,1/2+y,-z
-x,y,1/2+z
1/2+x,-y,z
1/2+x,1/2+y,1/2+z
1/2-x,-y,1/2+z
1/2+x,1/2-y,-z
-x,1/2+y,1/2-z
1/2-x,1/2-y,1/2-z
1/2+x,y,1/2-z
1/2-x,1/2+y,z
x,1/2-y,1/2+z
loop_
_atom_site_type_symbol
_atom_site_label
_atom_site_fract_x
_atom_site_fract_y
_atom_site_fract_z
Si Si1 0.258479 0.172828 0.342929
Si Si2 0.114153 0.879075 0.954849
Si Si3 0.592017 0.230315 0.107167
Si Si4 0.000000 0.250000 0.651764
Si Si5 0.652403 0.908254 0.986872
Si Si6 0.858704 0.638373 0.342962
Si Si7 0.259433 0.000000 0.750000
O O1 0.294742 0.145919 0.424445
O O2 0.161000 0.182655 0.341228
O O3 0.294761 0.276698 0.328687
O O4 0.287362 0.088205 0.287885
O O5 0.057517 0.820822 0.896791
O O6 0.089087 0.838445 0.034927
O O7 0.112254 0.993075 0.960498
O O8 0.500000 0.250000 0.133892
O O9 0.631641 0.327727 0.073894
O O10 0.058943 0.322659 0.694163
O O11 0.622285 0.874654 0.068797
O O12 0.750000 0.919149 0.000000
O O13 0.817421 0.543587 0.313541
#
# Coordination Sequence:
#
# PCOD9532129 Si02
#       7
#    16  16  16   8  16  16   8
#     4  11  24  44  67  95 137 177 227 281 332 401
#     4  11  21  40  66 100 137 170 220 268 346 412
#     4  12  22  39  65 103 140 167 209 283 352 411
#     4  10  22  42  62  94 136 182 204 290 342 392
#     4  12  21  37  70 100 132 175 215 277 352 408
#     4  11  23  44  67  93 137 172 227 275 339 390
#     4  12  26  44  70  94 124 190 238 278 314 414
#
# _framework density 23.447489999999998
#
# number of rings (size 3 to 8) (size 9 to 14) (size 15 to 20)
#    0.000    0.667    5.833    4.000    0.000    4.000 
#    1.500    3.333    0.000    0.000    0.000    0.000 
#    0.000    0.000    0.000    0.000    0.000    0.000 
#
# Total GULP energy -268348.023451 kJ/mol
# GULP energy per Si atom -5590.583822 kJ/mol
# Density = 2.339412 g / cm^3
# Si number density = 23.447490 Si / 1000 Ang^3
#
#
#
# Elastic Constant Matrix: (Units=GPa)
#
#
# Indices 1 2 3 4 5 6 
#
# 1 106.3943 8.6237 11.7917 0.0000 0.0000 0.0000
# 2 8.6237 162.3496 11.3005 0.0000 0.0000 0.0000
# 3 11.7917 11.3005 54.8770 0.0000 0.0000 0.0000
# 4 0.0000 0.0000 0.0000 31.1592 0.0000 0.0000
# 5 0.0000 0.0000 0.0000 0.0000 20.9395 0.0000
# 6 0.0000 0.0000 0.0000 0.0000 0.0000 18.1201
#
#
#
# Elastic Compliance Matrix: (Units=1/GPa)
#
#
# Indices 1 2 3 4 5 6 
#
# 1 0.009651 -0.000374 -0.001997 0.000000 0.000000 0.000000
# 2 -0.000374 0.006264 -0.001210 0.000000 0.000000 0.000000
# 3 -0.001997 -0.001210 0.018901 0.000000 0.000000 0.000000
# 4 0.000000 0.000000 0.000000 0.032093 0.000000 0.000000
# 5 0.000000 0.000000 0.000000 0.000000 0.047757 0.000000
# 6 0.000000 0.000000 0.000000 0.000000 0.000000 0.055187
#
#
# Mechanical properties :
#
#
# Convention : Reuss Voigt Hill
#
# Bulk Modulus (GPa) = 36.15977 43.00586 39.58282
# Shear Modulus (GPa) = 26.84848 33.50408 30.17628
#
# Velocity S-wave (km/s) = 3.38753 3.78418 3.59133
# Velocity P-wave (km/s) = 5.54577 6.12164 5.84081
#
# Compressibility (1/GPa) = 0.02765504
#
# Stress axis : x y z
#
# Youngs Moduli (GPa) = 103.62068 159.65292 52.90813
#
# Poissons Ratio (x) = 0.05965 0.10564
# Poissons Ratio (y) = 0.03872 0.06399
# Poissons Ratio (z) = 0.20690 0.19311
#
# Static dielectric constant tensor:
#      x y z
#    x 1.948460 0.000000 0.000000 
#    y 0.000000 1.862540 0.000000 
#    z 0.000000 0.000000 1.969580 
# 
# From -- ./inp_files/26031.got.cif
#   From: 2010.05.17/outbox.cif.g08.bks.cpg/sg73_14_cif.got.tgz:26031.got - 2010.06.03 17:35:07.
