data_PCOD9532993
_publ_section_title
;
Structure prediction by ZEFSAII (Michael W. Deem and Ramdas Pophale) SiO2 
 PCOD9532993
Probable space group: I B C A 
;
_chemical_formula_sum "Si O2"
_cell_formula_units_Z 80
_cell_length_a 21.487785
_cell_length_b 9.189771
_cell_length_c 17.921984
_cell_angle_alpha 90.000000
_cell_angle_beta 90.000000
_cell_angle_gamma 90.000000
_cell_volume 3539.015172
_symmetry_space_group_name_H-M "I B C A "
_symmetry_group_IT_number 73
_symmetry_cell_setting 'orthorhombic'
loop_
_space_group_symop_operation_xyz
x,y,z
-x,1/2-y,z
x,-y,1/2-z
1/2-x,y,-z
-x,-y,-z
x,1/2+y,-z
-x,y,1/2+z
1/2+x,-y,z
1/2+x,1/2+y,1/2+z
1/2-x,-y,1/2+z
1/2+x,1/2-y,-z
-x,1/2+y,1/2-z
1/2-x,1/2-y,1/2-z
1/2+x,y,1/2-z
1/2-x,1/2+y,z
x,1/2-y,1/2+z
loop_
_atom_site_type_symbol
_atom_site_label
_atom_site_fract_x
_atom_site_fract_y
_atom_site_fract_z
Si Si1 0.000000 0.250000 0.709950
Si Si2 0.300643 0.030041 0.167020
Si Si3 0.418790 0.000000 0.250000
Si Si4 0.100312 0.143456 0.092833
Si Si5 0.545121 0.130913 0.030505
Si Si6 0.236471 0.741522 0.413579
O O1 0.961246 0.362128 0.757120
O O2 0.949862 0.167696 0.658108
O O3 0.289439 0.191224 0.138958
O O4 0.273932 0.000000 0.250000
O O5 0.372882 0.990935 0.179422
O O6 0.271735 0.926556 0.105452
O O7 0.171410 0.182747 0.109911
O O8 0.095019 0.973118 0.070398
O O9 0.078449 0.264365 0.030644
O O10 0.500000 0.250000 0.070121
O O11 0.500000 0.000000 0.000000
O O12 0.250000 0.765736 0.500000
#
# Coordination Sequence:
#
# PCOD9532993 Si02
#       6
#     8  16   8  16  16  16
#     4  12  22  50  68 104 134 194 244 310 354 448
#     4  10  24  50  72  99 147 201 243 303 367 445
#     4  10  26  48  76  94 144 190 258 294 364 448
#     4  11  22  40  68 100 152 176 233 304 369 444
#     4   9  18  36  61  94 137 183 211 270 380 434
#     4  12  26  44  74 110 147 190 251 310 373 435
#
# _framework density 22.605159
#
# number of rings (size 3 to 8) (size 9 to 14) (size 15 to 20)
#    0.600    0.800    5.000    1.200    5.600    0.000 
#    7.200    0.000    0.000    0.000    0.000    0.000 
#    0.000    0.000    0.000    0.000    0.000    0.000 
#
# Total GULP energy -223204.654919 kJ/mol
# GULP energy per Si atom -5580.116373 kJ/mol
# Density = 2.255371 g / cm^3
# Si number density = 22.605159 Si / 1000 Ang^3
#
#
#
# Elastic Constant Matrix: (Units=GPa)
#
#
# Indices 1 2 3 4 5 6 
#
# 1 67.9064 21.0887 2.8711 0.0000 0.0000 0.0000
# 2 21.0887 131.7126 12.1104 0.0000 0.0000 0.0000
# 3 2.8711 12.1104 64.7349 0.0000 0.0000 0.0000
# 4 0.0000 0.0000 0.0000 0.9387 0.0000 0.0000
# 5 0.0000 0.0000 0.0000 0.0000 19.0930 0.0000
# 6 0.0000 0.0000 0.0000 0.0000 0.0000 51.5637
#
#
#
# Elastic Compliance Matrix: (Units=1/GPa)
#
#
# Indices 1 2 3 4 5 6 
#
# 1 0.015500 -0.002461 -0.000227 0.000000 0.000000 0.000000
# 2 -0.002461 0.008116 -0.001409 0.000000 0.000000 0.000000
# 3 -0.000227 -0.001409 0.015721 0.000000 0.000000 0.000000
# 4 0.000000 0.000000 0.000000 1.065251 0.000000 0.000000
# 5 0.000000 0.000000 0.000000 0.000000 0.052375 0.000000
# 6 0.000000 0.000000 0.000000 0.000000 0.000000 0.019393
#
#
# Mechanical properties :
#
#
# Convention : Reuss Voigt Hill
#
# Bulk Modulus (GPa) = 32.10995 37.38826 34.74910
# Shear Modulus (GPa) = 4.18434 29.53802 16.86118
#
# Velocity S-wave (km/s) = 1.36201 3.61874 2.73408
# Velocity P-wave (km/s) = 4.08766 5.83404 5.03711
#
# Compressibility (1/GPa) = 0.03114300
#
# Stress axis : x y z
#
# Youngs Moduli (GPa) = 64.51625 123.21551 63.60796
#
# Poissons Ratio (x) = 0.30321 0.01444
# Poissons Ratio (y) = 0.15876 0.08963
# Poissons Ratio (z) = 0.01465 0.17363
#
# Static dielectric constant tensor:
#      x y z
#    x 1.889090 0.000000 0.000000 
#    y 0.000000 1.750650 0.000000 
#    z 0.000000 0.000000 1.844310 
# 
# From -- ./inp_files/27175.got.cif
#   From: 2010.05.17/outbox.cif.g08.bks.cpg/sg73_14_cif.got.tgz:27175.got - 2010.06.03 17:35:07.
