data_PCOD9532461
_publ_section_title
;
Structure prediction by ZEFSAII (Michael W. Deem and Ramdas Pophale) SiO2 
 PCOD9532461
Probable space group: I B C A 
;
_chemical_formula_sum "Si O2"
_cell_formula_units_Z 120
_cell_length_a 18.335190
_cell_length_b 11.760546
_cell_length_c 28.005583
_cell_angle_alpha 90.000000
_cell_angle_beta 90.000000
_cell_angle_gamma 90.000000
_cell_volume 6038.895544
_symmetry_space_group_name_H-M "I B C A "
_symmetry_group_IT_number 73
_symmetry_cell_setting 'orthorhombic'
loop_
_space_group_symop_operation_xyz
x,y,z
-x,1/2-y,z
x,-y,1/2-z
1/2-x,y,-z
-x,-y,-z
x,1/2+y,-z
-x,y,1/2+z
1/2+x,-y,z
1/2+x,1/2+y,1/2+z
1/2-x,-y,1/2+z
1/2+x,1/2-y,-z
-x,1/2+y,1/2-z
1/2-x,1/2-y,1/2-z
1/2+x,y,1/2-z
1/2-x,1/2+y,z
x,1/2-y,1/2+z
loop_
_atom_site_type_symbol
_atom_site_label
_atom_site_fract_x
_atom_site_fract_y
_atom_site_fract_z
Si Si1 0.580814 0.699491 0.887666
Si Si2 0.007564 0.519100 0.917016
Si Si3 0.531609 0.368222 0.825920
Si Si4 0.102720 0.461949 0.490184
Si Si5 0.443511 0.500000 0.750000
Si Si6 0.842949 0.807878 0.204418
Si Si7 0.667128 0.287320 0.515466
Si Si8 0.814159 0.613684 0.282255
O O1 0.500000 0.750000 0.898156
O O2 0.559840 0.566705 0.888033
O O3 0.614803 0.752979 0.840248
O O4 0.639635 0.710888 0.929862
O O5 0.000094 0.618660 0.879280
O O6 0.934226 0.461649 0.937522
O O7 0.046091 0.552800 0.966177
O O8 0.500000 0.250000 0.806426
O O9 0.494831 0.462384 0.792970
O O10 0.618353 0.378409 0.818929
O O11 0.131403 0.593182 0.495425
O O12 0.148571 0.345509 0.497188
O O13 0.392712 0.401487 0.729551
O O14 0.828153 0.711722 0.243522
O O15 0.764053 0.863706 0.193060
O O16 0.750000 0.301309 0.500000
O O17 0.812680 0.500000 0.250000
#
# Coordination Sequence:
#
# PCOD9532461 Si02
#       8
#    16  16  16  16   8  16  16  16
#     4  11  22  42  70  99 126 181 238 274 339 425
#     4  10  23  40  66  98 132 172 232 283 343 412
#     4  12  25  39  66 102 132 180 238 287 348 416
#     4  10  23  43  70  97 138 184 221 290 353 414
#     4  12  24  42  64 100 134 180 228 292 338 412
#     4  11  25  42  66  94 138 179 225 288 342 416
#     4  11  24  44  69 102 139 179 230 287 355 420
#     4  11  23  44  63  92 137 183 223 283 357 407
#
# _framework density 19.871184
#
# number of rings (size 3 to 8) (size 9 to 14) (size 15 to 20)
#    0.000    1.067    4.000    2.000    3.733    1.067 
#    0.000    1.333    0.000    0.000    0.000    0.000 
#    0.000    0.000    0.000    0.000    0.000    0.000 
#
# Total GULP energy -334104.959395 kJ/mol
# GULP energy per Si atom -5568.415990 kJ/mol
# Density = 1.982596 g / cm^3
# Si number density = 19.871184 Si / 1000 Ang^3
#
#
#
# Elastic Constant Matrix: (Units=GPa)
#
#
# Indices 1 2 3 4 5 6 
#
# 1 105.9726 19.0560 48.4299 0.0000 0.0000 0.0000
# 2 19.0560 90.0273 30.5066 0.0000 0.0000 0.0000
# 3 48.4299 30.5066 100.0919 0.0000 0.0000 0.0000
# 4 0.0000 0.0000 0.0000 25.1168 0.0000 0.0000
# 5 0.0000 0.0000 0.0000 0.0000 29.2939 0.0000
# 6 0.0000 0.0000 0.0000 0.0000 0.0000 29.7880
#
#
#
# Elastic Compliance Matrix: (Units=1/GPa)
#
#
# Indices 1 2 3 4 5 6 
#
# 1 0.012149 -0.000646 -0.005681 0.000000 0.000000 0.000000
# 2 -0.000646 0.012421 -0.003473 0.000000 0.000000 0.000000
# 3 -0.005681 -0.003473 0.013798 0.000000 0.000000 0.000000
# 4 0.000000 0.000000 0.000000 0.039814 0.000000 0.000000
# 5 0.000000 0.000000 0.000000 0.000000 0.034137 0.000000
# 6 0.000000 0.000000 0.000000 0.000000 0.000000 0.033571
#
#
# Mechanical properties :
#
#
# Convention : Reuss Voigt Hill
#
# Bulk Modulus (GPa) = 53.28478 54.67519 53.97999
# Shear Modulus (GPa) = 29.11249 30.04637 29.57943
#
# Velocity S-wave (km/s) = 3.83176 3.89274 3.86237
# Velocity P-wave (km/s) = 6.81541 6.91224 6.86400
#
# Compressibility (1/GPa) = 0.01876708
#
# Stress axis : x y z
#
# Youngs Moduli (GPa) = 82.31112 80.50576 72.47259
#
# Poissons Ratio (x) = 0.05204 0.41174
# Poissons Ratio (y) = 0.05321 0.25171
# Poissons Ratio (z) = 0.46764 0.27961
#
# Static dielectric constant tensor:
#      x y z
#    x 1.852010 0.000000 0.000000 
#    y 0.000000 1.763360 0.000000 
#    z 0.000000 0.000000 1.598560 
# 
# From -- ./inp_files/32451.got.cif
#   From: 2010.05.17/outbox.cif.g08.bks.cpg/sg73_17_cif.got.tgz:32451.got - 2010.06.03 17:35:07.
