data_PCOD9532310
_publ_section_title
;
Structure prediction by ZEFSAII (Michael W. Deem and Ramdas Pophale) SiO2 
 PCOD9532310
Probable space group: I B C A 
;
_chemical_formula_sum "Si O2"
_cell_formula_units_Z 104
_cell_length_a 19.076265
_cell_length_b 27.639587
_cell_length_c 9.107945
_cell_angle_alpha 90.000000
_cell_angle_beta 90.000000
_cell_angle_gamma 90.000000
_cell_volume 4802.255865
_symmetry_space_group_name_H-M "I B C A "
_symmetry_group_IT_number 73
_symmetry_cell_setting 'orthorhombic'
loop_
_space_group_symop_operation_xyz
x,y,z
-x,1/2-y,z
x,-y,1/2-z
1/2-x,y,-z
-x,-y,-z
x,1/2+y,-z
-x,y,1/2+z
1/2+x,-y,z
1/2+x,1/2+y,1/2+z
1/2-x,-y,1/2+z
1/2+x,1/2-y,-z
-x,1/2+y,1/2-z
1/2-x,1/2-y,1/2-z
1/2+x,y,1/2-z
1/2-x,1/2+y,z
x,1/2-y,1/2+z
loop_
_atom_site_type_symbol
_atom_site_label
_atom_site_fract_x
_atom_site_fract_y
_atom_site_fract_z
Si Si1 0.080145 0.950377 0.840826
Si Si2 0.471058 0.695956 0.916036
Si Si3 0.732117 0.093474 0.833844
Si Si4 0.961144 0.868971 0.800004
Si Si5 0.250000 0.260101 0.000000
Si Si6 0.877334 0.048919 0.823903
Si Si7 0.677688 0.808135 0.762026
O O1 0.159089 0.933633 0.808319
O O2 0.026495 0.906680 0.806640
O O3 0.065368 0.000000 0.750000
O O4 0.084790 0.953011 0.018164
O O5 0.500000 0.750000 0.941100
O O6 0.531968 0.665423 0.839436
O O7 0.404539 0.691557 0.804938
O O8 0.453376 0.666372 0.062539
O O9 0.793800 0.054417 0.822523
O O10 0.720363 0.141196 0.735105
O O11 0.750000 0.111714 0.000000
O O12 0.897871 0.904805 0.771843
O O13 0.210368 0.227546 0.881471
O O14 0.307066 0.288876 0.902408
O O15 0.899547 0.000000 0.750000
#
# Coordination Sequence:
#
# PCOD9532310 Si02
#       7
#    16  16  16  16   8  16  16
#     4  11  24  45  72 100 143 192 239 293 371 443
#     4  12  29  46  73 104 146 195 249 302 370 436
#     4  10  22  44  71 101 142 185 230 296 372 431
#     4  12  26  47  70 106 144 193 241 305 363 448
#     4  10  26  42  70 102 136 182 244 296 366 432
#     4  11  26  44  72 107 142 184 242 303 367 443
#     4  11  24  45  70 101 139 189 235 305 360 435
#
# _framework density 21.656486999999998
#
# number of rings (size 3 to 8) (size 9 to 14) (size 15 to 20)
#    0.000    0.923    3.846    1.385    8.615    2.462 
#    0.000    0.000    0.000    0.000    0.000    0.000 
#    0.000    0.000    0.000    0.000    0.000    0.000 
#
# Total GULP energy -290107.806075 kJ/mol
# GULP energy per Si atom -5578.996271 kJ/mol
# Density = 2.160720 g / cm^3
# Si number density = 21.656487 Si / 1000 Ang^3
#
#
#
# Elastic Constant Matrix: (Units=GPa)
#
#
# Indices 1 2 3 4 5 6 
#
# 1 44.3841 -5.0782 -10.9112 0.0000 0.0000 0.0000
# 2 -5.0782 126.3278 46.3347 0.0000 0.0000 0.0000
# 3 -10.9112 46.3347 77.2123 0.0000 0.0000 0.0000
# 4 0.0000 0.0000 0.0000 -0.3025 0.0000 0.0000
# 5 0.0000 0.0000 0.0000 0.0000 21.9189 0.0000
# 6 0.0000 0.0000 0.0000 0.0000 0.0000 51.7265
#
#
#
# Elastic Compliance Matrix: (Units=1/GPa)
#
#
# Indices 1 2 3 4 5 6 
#
# 1 0.023353 -0.000348 0.003509 -0.000001 0.000000 0.000000
# 2 -0.000348 0.010155 -0.006143 0.000001 0.000000 0.000000
# 3 0.003509 -0.006143 0.017134 -0.000003 0.000000 0.000000
# 4 -0.000001 0.000001 -0.000003 -3.305250 -0.000002 0.000001
# 5 0.000000 0.000000 0.000000 -0.000002 0.045623 0.000000
# 6 0.000000 0.000000 0.000000 0.000001 0.000000 0.019332
#
#
# Mechanical properties :
#
#
# Convention : Reuss Voigt Hill
#
# Bulk Modulus (GPa) = 22.38260 34.29052 28.33656
# Shear Modulus (GPa) = -1.57789 29.17382 13.79797
#
# Velocity S-wave (km/s) = -0.85451 3.67429 2.52688
# Velocity P-wave (km/s) = 3.06336 5.81969 4.65043
#
# Compressibility (1/GPa) = 0.04467756
#
# Stress axis : x y z
#
# Youngs Moduli (GPa) = 42.82023 98.47214 58.36426
#
# Poissons Ratio (x) = 0.03430 -0.20481
# Poissons Ratio (y) = 0.01492 0.35855
# Poissons Ratio (z) = -0.15027 0.60494
#
# Static dielectric constant tensor:
#      x y z
#    x 1.981680 0.000000 0.000000 
#    y 0.000000 1.796060 0.000000 
#    z 0.000000 0.000000 1.627430 
# 
# From -- ./inp_files/6556.got.cif
#   From: 2010.05.17/outbox.cif.g08.bks.cpg/sg73_4_cif.got.tgz:6556.got - 2010.06.03 17:35:07.
