data_PCOD9532925
_publ_section_title
;
Structure prediction by ZEFSAII (Michael W. Deem and Ramdas Pophale) SiO2 
 PCOD9532925
Probable space group: I B C A 
;
_chemical_formula_sum "Si O2"
_cell_formula_units_Z 96
_cell_length_a 22.420626
_cell_length_b 15.148266
_cell_length_c 12.061263
_cell_angle_alpha 90.000000
_cell_angle_beta 90.000000
_cell_angle_gamma 90.000000
_cell_volume 4096.410252
_symmetry_space_group_name_H-M "I B C A "
_symmetry_group_IT_number 73
_symmetry_cell_setting 'orthorhombic'
loop_
_space_group_symop_operation_xyz
x,y,z
-x,1/2-y,z
x,-y,1/2-z
1/2-x,y,-z
-x,-y,-z
x,1/2+y,-z
-x,y,1/2+z
1/2+x,-y,z
1/2+x,1/2+y,1/2+z
1/2-x,-y,1/2+z
1/2+x,1/2-y,-z
-x,1/2+y,1/2-z
1/2-x,1/2-y,1/2-z
1/2+x,y,1/2-z
1/2-x,1/2+y,z
x,1/2-y,1/2+z
loop_
_atom_site_type_symbol
_atom_site_label
_atom_site_fract_x
_atom_site_fract_y
_atom_site_fract_z
Si Si1 0.144921 0.343052 0.637572
Si Si2 0.250000 0.660193 0.000000
Si Si3 0.928983 0.252719 0.946488
Si Si4 0.577422 0.571818 0.043318
Si Si5 0.153625 0.000000 0.750000
Si Si6 0.328129 0.806107 0.303868
Si Si7 0.460649 0.441401 0.347510
O O1 0.198178 0.389105 0.569185
O O2 0.095649 0.308091 0.550292
O O3 0.175102 0.264170 0.705747
O O4 0.099025 0.400773 0.707449
O O5 0.211514 0.715668 0.088474
O O6 0.897036 0.298136 0.842001
O O7 0.000000 0.250000 0.931413
O O8 0.901816 0.156226 0.973217
O O9 0.617520 0.528043 0.138692
O O10 0.518255 0.609264 0.105699
O O11 0.560772 0.498503 0.952889
O O12 0.186698 0.092421 0.775887
O O13 0.487877 0.500000 0.250000
#
# Coordination Sequence:
#
# PCOD9532925 Si02
#       7
#    16   8  16  16   8  16  16
#     4  11  22  44  65  93 125 173 222 271 329 397
#     4  10  24  46  70  90 120 172 228 286 332 386
#     4  11  22  38  64 100 133 178 218 261 322 407
#     4  11  22  38  62 101 144 177 215 263 330 413
#     4  12  24  42  66 102 136 178 212 278 342 406
#     4  11  25  43  70  94 133 173 226 276 338 399
#     4  11  23  38  64  97 141 179 216 269 335 401
#
# _framework density 23.435151999999999
#
# number of rings (size 3 to 8) (size 9 to 14) (size 15 to 20)
#    0.000    1.000    4.167    3.500    2.333    2.000 
#    1.500    0.833    0.000    0.000    0.000    0.000 
#    0.000    0.000    0.000    0.000    0.000    0.000 
#
# Total GULP energy -267560.181503 kJ/mol
# GULP energy per Si atom -5574.170448 kJ/mol
# Density = 2.338181 g / cm^3
# Si number density = 23.435152 Si / 1000 Ang^3
#
#
#
# Elastic Constant Matrix: (Units=GPa)
#
#
# Indices 1 2 3 4 5 6 
#
# 1 94.8355 0.6676 20.0527 0.0000 0.0000 0.0000
# 2 0.6676 80.1338 3.3488 0.0000 0.0000 0.0000
# 3 20.0527 3.3488 84.8442 0.0000 0.0000 0.0000
# 4 0.0000 0.0000 0.0000 21.7056 0.0000 0.0000
# 5 0.0000 0.0000 0.0000 0.0000 29.9786 0.0000
# 6 0.0000 0.0000 0.0000 0.0000 0.0000 11.7873
#
#
#
# Elastic Compliance Matrix: (Units=1/GPa)
#
#
# Indices 1 2 3 4 5 6 
#
# 1 0.011099 0.000017 -0.002624 0.000000 0.000000 0.000000
# 2 0.000017 0.012500 -0.000497 0.000000 0.000000 0.000000
# 3 -0.002624 -0.000497 0.012426 0.000000 0.000000 0.000000
# 4 0.000000 0.000000 0.000000 0.046071 0.000000 0.000000
# 5 0.000000 0.000000 0.000000 0.000000 0.033357 0.000000
# 6 0.000000 0.000000 0.000000 0.000000 0.000000 0.084837
#
#
# Mechanical properties :
#
#
# Convention : Reuss Voigt Hill
#
# Bulk Modulus (GPa) = 33.53819 34.21686 33.87752
# Shear Modulus (GPa) = 23.10131 28.41057 25.75594
#
# Velocity S-wave (km/s) = 3.14308 3.48560 3.31876
# Velocity P-wave (km/s) = 5.24538 5.55261 5.40118
#
# Compressibility (1/GPa) = 0.02981676
#
# Stress axis : x y z
#
# Youngs Moduli (GPa) = 90.09588 80.00144 80.47568
#
# Poissons Ratio (x) = -0.00138 0.21117
# Poissons Ratio (y) = -0.00155 0.04003
# Poissons Ratio (z) = 0.23641 0.03980
#
# Static dielectric constant tensor:
#      x y z
#    x 1.944970 0.000000 0.000000 
#    y 0.000000 2.028020 0.000000 
#    z 0.000000 0.000000 1.966440 
# 
# From -- ./inp_files/13690.got.cif
#   From: 2010.05.17/outbox.cif.g08.bks.cpg/sg73_7_cif.got.tgz:13690.got - 2010.06.03 17:35:07.
