data_PCOD9532225
_publ_section_title
;
Structure prediction by ZEFSAII (Michael W. Deem and Ramdas Pophale) SiO2 
 PCOD9532225
Probable space group: I B C A 
;
_chemical_formula_sum "Si O2"
_cell_formula_units_Z 80
_cell_length_a 15.414606
_cell_length_b 13.375453
_cell_length_c 20.174492
_cell_angle_alpha 90.000000
_cell_angle_beta 90.000000
_cell_angle_gamma 90.000000
_cell_volume 4159.523057
_symmetry_space_group_name_H-M "I B C A "
_symmetry_group_IT_number 73
_symmetry_cell_setting 'orthorhombic'
loop_
_space_group_symop_operation_xyz
x,y,z
-x,1/2-y,z
x,-y,1/2-z
1/2-x,y,-z
-x,-y,-z
x,1/2+y,-z
-x,y,1/2+z
1/2+x,-y,z
1/2+x,1/2+y,1/2+z
1/2-x,-y,1/2+z
1/2+x,1/2-y,-z
-x,1/2+y,1/2-z
1/2-x,1/2-y,1/2-z
1/2+x,y,1/2-z
1/2-x,1/2+y,z
x,1/2-y,1/2+z
loop_
_atom_site_type_symbol
_atom_site_label
_atom_site_fract_x
_atom_site_fract_y
_atom_site_fract_z
Si Si1 0.565950 0.613302 0.228068
Si Si2 0.294703 0.725570 0.643566
Si Si3 0.250000 0.189268 0.500000
Si Si4 0.864320 0.606432 0.105017
Si Si5 0.000000 0.250000 0.338156
Si Si6 0.366478 0.423832 0.308533
O O1 0.588357 0.500000 0.250000
O O2 0.627169 0.656888 0.170801
O O3 0.565308 0.688016 0.290825
O O4 0.464602 0.611821 0.206564
O O5 0.290793 0.745104 0.563711
O O6 0.207139 0.662020 0.651676
O O7 0.303998 0.830393 0.680774
O O8 0.325518 0.122791 0.532520
O O9 0.870852 0.492852 0.126537
O O10 0.951119 0.667744 0.118359
O O11 0.341915 0.500000 0.250000
#
# Coordination Sequence:
#
# PCOD9532225 Si02
#       6
#    16  16   8  16   8  16
#     4  11  21  38  63  98 129 162 208 267 338 383
#     4  10  22  43  65  90 132 174 212 265 309 388
#     4   8  24  48  56  92 128 176 224 248 300 394
#     4  10  23  42  64  92 132 169 215 262 314 386
#     4  12  20  40  62  94 136 158 204 272 338 360
#     4  11  20  39  66  99 131 158 208 280 329 375
#
# _framework density 19.232973999999999
#
# number of rings (size 3 to 8) (size 9 to 14) (size 15 to 20)
#    1.200    0.400    6.000    0.000    0.000    6.400 
#    3.600    1.000    0.000    0.000    0.000    0.000 
#    0.000    0.000    0.000    0.000    0.000    0.000 
#
# Total GULP energy -222771.086570 kJ/mol
# GULP energy per Si atom -5569.277164 kJ/mol
# Density = 1.918920 g / cm^3
# Si number density = 19.232974 Si / 1000 Ang^3
#
#
#
# Elastic Constant Matrix: (Units=GPa)
#
#
# Indices 1 2 3 4 5 6 
#
# 1 37.7918 11.3198 14.5774 0.0000 0.0000 0.0000
# 2 11.3198 82.1027 8.1385 0.0000 0.0000 0.0000
# 3 14.5774 8.1385 81.6510 0.0000 0.0000 0.0000
# 4 0.0000 0.0000 0.0000 17.7234 0.0000 0.0000
# 5 0.0000 0.0000 0.0000 0.0000 31.2129 0.0000
# 6 0.0000 0.0000 0.0000 0.0000 0.0000 66.8657
#
#
#
# Elastic Compliance Matrix: (Units=1/GPa)
#
#
# Indices 1 2 3 4 5 6 
#
# 1 0.029419 -0.003571 -0.004896 0.000000 0.000000 0.000000
# 2 -0.003571 0.012735 -0.000632 0.000000 0.000000 0.000000
# 3 -0.004896 -0.000632 0.013184 0.000000 0.000000 0.000000
# 4 0.000000 0.000000 0.000000 0.056423 0.000000 0.000000
# 5 0.000000 0.000000 0.000000 0.000000 0.032038 0.000000
# 6 0.000000 0.000000 0.000000 0.000000 0.000000 0.014955
#
#
# Mechanical properties :
#
#
# Convention : Reuss Voigt Hill
#
# Bulk Modulus (GPa) = 26.92493 29.95744 28.44118
# Shear Modulus (GPa) = 26.40860 34.32771 30.36816
#
# Velocity S-wave (km/s) = 3.70954 4.22932 3.97793
# Velocity P-wave (km/s) = 5.69011 6.28167 5.99319
#
# Compressibility (1/GPa) = 0.03714031
#
# Stress axis : x y z
#
# Youngs Moduli (GPa) = 33.99163 78.52487 75.84726
#
# Poissons Ratio (x) = 0.28039 0.37138
# Poissons Ratio (y) = 0.12138 0.04792
# Poissons Ratio (z) = 0.16644 0.04961
#
# Static dielectric constant tensor:
#      x y z
#    x 1.674430 0.000000 0.000000 
#    y 0.000000 1.658790 0.000000 
#    z 0.000000 0.000000 1.709770 
# 
# From -- ./inp_files/12692.got.cif
#   From: 2010.05.17/outbox.cif.g08.bks.cpg/sg73_7_cif.got.tgz:12692.got - 2010.06.03 17:35:07.
