data_PCOD9532766
_publ_section_title
;
Structure prediction by ZEFSAII (Michael W. Deem and Ramdas Pophale) SiO2 
 PCOD9532766
Probable space group: I B C A 
;
_chemical_formula_sum "Si O2"
_cell_formula_units_Z 96
_cell_length_a 20.100681
_cell_length_b 18.315058
_cell_length_c 12.614881
_cell_angle_alpha 90.000000
_cell_angle_beta 90.000000
_cell_angle_gamma 90.000000
_cell_volume 4644.107111
_symmetry_space_group_name_H-M "I B C A "
_symmetry_group_IT_number 73
_symmetry_cell_setting 'orthorhombic'
loop_
_space_group_symop_operation_xyz
x,y,z
-x,1/2-y,z
x,-y,1/2-z
1/2-x,y,-z
-x,-y,-z
x,1/2+y,-z
-x,y,1/2+z
1/2+x,-y,z
1/2+x,1/2+y,1/2+z
1/2-x,-y,1/2+z
1/2+x,1/2-y,-z
-x,1/2+y,1/2-z
1/2-x,1/2-y,1/2-z
1/2+x,y,1/2-z
1/2-x,1/2+y,z
x,1/2-y,1/2+z
loop_
_atom_site_type_symbol
_atom_site_label
_atom_site_fract_x
_atom_site_fract_y
_atom_site_fract_z
Si Si1 0.576984 0.357670 0.159077
Si Si2 0.107164 0.794739 0.271729
Si Si3 0.823410 0.632232 0.461842
Si Si4 0.864149 0.500000 0.750000
Si Si5 0.929386 0.143156 0.940076
Si Si6 0.500000 0.750000 0.091854
Si Si7 0.822241 0.468183 0.519070
O O1 0.595519 0.288420 0.232663
O O2 0.592379 0.429158 0.226321
O O3 0.502973 0.366086 0.110842
O O4 0.624758 0.352558 0.056435
O O5 0.160428 0.822127 0.356385
O O6 0.114311 0.836268 0.161782
O O7 0.037979 0.808432 0.335176
O O8 0.750000 0.651290 0.500000
O O9 0.825618 0.543624 0.451524
O O10 0.822984 0.488573 0.643086
O O11 0.888167 0.079168 0.995848
O O12 0.944943 0.209256 0.020957
O O13 0.750000 0.432124 0.500000
#
# Coordination Sequence:
#
# PCOD9532766 Si02
#       7
#    16  16  16   8  16   8  16
#     4  11  22  41  63 102 130 177 231 284 354 419
#     4  12  22  40  69  94 140 178 221 294 357 404
#     4  10  24  44  66  97 141 180 227 290 344 422
#     4  10  24  42  68  90 142 180 226 294 356 410
#     4  12  23  39  70 101 130 182 235 286 353 423
#     4  12  20  42  62  96 140 170 222 294 346 410
#     4  10  25  46  68  99 140 184 235 290 347 429
#
# _framework density 20.671358999999999
#
# number of rings (size 3 to 8) (size 9 to 14) (size 15 to 20)
#    0.000    1.000    5.000    1.000    0.000    9.333 
#    0.000    5.833    0.000    0.000    0.000    0.000 
#    0.000    0.000    0.000    0.000    0.000    0.000 
#
# Total GULP energy -267644.173769 kJ/mol
# GULP energy per Si atom -5575.920287 kJ/mol
# Density = 2.062431 g / cm^3
# Si number density = 20.671359 Si / 1000 Ang^3
#
#
#
# Elastic Constant Matrix: (Units=GPa)
#
#
# Indices 1 2 3 4 5 6 
#
# 1 98.4309 48.2078 34.7894 0.0000 0.0000 0.0000
# 2 48.2078 73.2203 46.7614 0.0000 0.0000 0.0000
# 3 34.7894 46.7614 115.5956 0.0000 0.0000 0.0000
# 4 0.0000 0.0000 0.0000 33.3144 0.0000 0.0000
# 5 0.0000 0.0000 0.0000 0.0000 23.4340 0.0000
# 6 0.0000 0.0000 0.0000 0.0000 0.0000-8305.7337
#
#
#
# Elastic Compliance Matrix: (Units=1/GPa)
#
#
# Indices 1 2 3 4 5 6 
#
# 1 0.015037 -0.009452 -0.000702 0.000000 0.000000 0.000000
# 2 -0.009452 0.024356 -0.007008 0.000000 0.000000 0.000000
# 3 -0.000702 -0.007008 0.011697 0.000000 0.000000 0.000000
# 4 0.000000 0.000000 0.000000 0.030017 0.000000 0.000000
# 5 0.000000 0.000000 0.000000 0.000000 0.042673 0.000000
# 6 0.000000 0.000000 0.000000 0.000000 0.000000 -0.000120
#
#
# Mechanical properties :
#
#
# Convention : Reuss Voigt Hill
#
# Bulk Modulus (GPa) = 59.64371 60.75156 60.19764
# Shear Modulus (GPa) = 30.56767 -1639.29784 -804.36509
#
# Velocity S-wave (km/s) = 3.84962 -28.19131 -19.74754
# Velocity P-wave (km/s) = 6.97677 32.09694 22.15331
#
# Compressibility (1/GPa) = 0.01676623
#
# Stress axis : x y z
#
# Youngs Moduli (GPa) = 66.50433 41.05761 85.49180
#
# Poissons Ratio (x) = 0.38807 0.06001
# Poissons Ratio (y) = 0.62858 0.59913
# Poissons Ratio (z) = 0.04668 0.28773
#
# Static dielectric constant tensor:
#      x y z
#    x 1.751300 0.000000 0.000000 
#    y 0.000000 1.779310 0.000000 
#    z 0.000000 0.000000 1.937540 
# 
# From -- ./inp_files/12900.got.cif
#   From: 2010.05.17/outbox.cif.g08.bks.cpg/sg73_7_cif.got.tgz:12900.got - 2010.06.03 17:35:07.
