data_PCOD9532821
_publ_section_title
;
Structure prediction by ZEFSAII (Michael W. Deem and Ramdas Pophale) SiO2 
 PCOD9532821
Probable space group: I B C A 
;
_chemical_formula_sum "Si O2"
_cell_formula_units_Z 104
_cell_length_a 27.220309
_cell_length_b 20.032711
_cell_length_c 9.640034
_cell_angle_alpha 90.000000
_cell_angle_beta 90.000000
_cell_angle_gamma 90.000000
_cell_volume 5256.677605
_symmetry_space_group_name_H-M "I B C A "
_symmetry_group_IT_number 73
_symmetry_cell_setting 'orthorhombic'
loop_
_space_group_symop_operation_xyz
x,y,z
-x,1/2-y,z
x,-y,1/2-z
1/2-x,y,-z
-x,-y,-z
x,1/2+y,-z
-x,y,1/2+z
1/2+x,-y,z
1/2+x,1/2+y,1/2+z
1/2-x,-y,1/2+z
1/2+x,1/2-y,-z
-x,1/2+y,1/2-z
1/2-x,1/2-y,1/2-z
1/2+x,y,1/2-z
1/2-x,1/2+y,z
x,1/2-y,1/2+z
loop_
_atom_site_type_symbol
_atom_site_label
_atom_site_fract_x
_atom_site_fract_y
_atom_site_fract_z
Si Si1 0.256623 0.184136 0.339811
Si Si2 0.037494 0.333839 0.196073
Si Si3 0.968687 0.457818 0.109926
Si Si4 0.500000 0.250000 0.046021
Si Si5 0.863322 0.478832 0.981542
Si Si6 0.144295 0.105214 0.723968
Si Si7 0.779774 0.046844 0.857801
O O1 0.250000 0.202403 0.500000
O O2 0.250000 0.250000 0.250000
O O3 0.310278 0.150773 0.321617
O O4 0.218476 0.123104 0.306546
O O5 0.092286 0.358294 0.221496
O O6 0.998823 0.391095 0.149056
O O7 0.020234 0.303837 0.343791
O O8 0.037404 0.282808 0.065105
O O9 0.964036 0.500000 0.250000
O O10 0.914755 0.452961 0.042729
O O11 0.000000 0.500000 0.000000
O O12 0.844210 0.422096 0.877716
O O13 0.865636 0.543901 0.881911
O O14 0.827860 0.504682 0.102709
O O15 0.751397 0.000000 0.750000
O O16 0.750000 0.051190 0.000000
#
# Coordination Sequence:
#
# PCOD9532821 Si02
#       7
#    16  16  16   8  16  16  16
#     4  11  25  44  65  95 132 176 227 285 344 415
#     4  11  23  42  65  93 134 176 228 273 338 408
#     4  12  23  38  65 102 138 170 216 285 346 398
#     4  10  24  44  62  88 128 192 226 264 324 420
#     4  11  22  39  67 102 128 167 218 278 356 408
#     4  11  22  41  69  97 129 173 220 286 347 413
#     4  11  22  42  67  94 131 172 221 283 346 415
#
# _framework density 19.78436
#
# number of rings (size 3 to 8) (size 9 to 14) (size 15 to 20)
#    0.000    0.923    4.615    4.154    0.000    3.077 
#    0.000    1.538    0.000    0.000    0.000    0.000 
#    0.000    0.000    0.000    0.000    0.000    0.000 
#
# Total GULP energy -290126.866964 kJ/mol
# GULP energy per Si atom -5579.362826 kJ/mol
# Density = 1.973933 g / cm^3
# Si number density = 19.784360 Si / 1000 Ang^3
#
#
#
# Elastic Constant Matrix: (Units=GPa)
#
#
# Indices 1 2 3 4 5 6 
#
# 1 120.5430 44.0528 30.3858 0.0000 0.0000 0.0000
# 2 44.0528 117.0917 66.4647 0.0000 0.0000 0.0000
# 3 30.3858 66.4647 141.1872 0.0000 0.0000 0.0000
# 4 0.0000 0.0000 0.0000 47.6282 0.0000 0.0000
# 5 0.0000 0.0000 0.0000 0.0000 25.9482 0.0000
# 6 0.0000 0.0000 0.0000 0.0000 0.0000 7.0892
#
#
#
# Elastic Compliance Matrix: (Units=1/GPa)
#
#
# Indices 1 2 3 4 5 6 
#
# 1 0.009644 -0.003344 -0.000502 0.000000 0.000000 0.000000
# 2 -0.003344 0.012814 -0.005313 0.000000 0.000000 0.000000
# 3 -0.000502 -0.005313 0.009692 0.000000 0.000000 0.000000
# 4 0.000000 0.000000 0.000000 0.020996 0.000000 0.000000
# 5 0.000000 0.000000 0.000000 0.000000 0.038538 0.000000
# 6 0.000000 0.000000 0.000000 0.000000 0.000000 0.141059
#
#
# Mechanical properties :
#
#
# Convention : Reuss Voigt Hill
#
# Bulk Modulus (GPa) = 72.28514 73.40316 72.84415
# Shear Modulus (GPa) = 19.55645 31.99436 25.77541
#
# Velocity S-wave (km/s) = 3.14742 4.02575 3.61337
# Velocity P-wave (km/s) = 7.05862 7.66753 7.36937
#
# Compressibility (1/GPa) = 0.01383410
#
# Stress axis : x y z
#
# Youngs Moduli (GPa) = 103.68946 78.04030 103.18146
#
# Poissons Ratio (x) = 0.26094 0.05175
# Poissons Ratio (y) = 0.34671 0.54816
# Poissons Ratio (z) = 0.05200 0.41460
#
# Static dielectric constant tensor:
#      x y z
#    x 1.775410 0.000000 0.000000 
#    y 0.000000 1.735980 0.000000 
#    z 0.000000 0.000000 3.939300 
# 
# From -- ./inp_files/7898.got.cif
#   From: 2010.05.17/outbox.cif.g08.bks.cpg/sg73_4_cif.got.tgz:7898.got - 2010.06.03 17:35:07.
