data_PCOD9532071
_publ_section_title
;
Structure prediction by ZEFSAII (Michael W. Deem and Ramdas Pophale) SiO2 
 PCOD9532071
Probable space group: I B C A 
;
_chemical_formula_sum "Si O2"
_cell_formula_units_Z 72
_cell_length_a 9.165157
_cell_length_b 15.221450
_cell_length_c 22.575466
_cell_angle_alpha 90.000000
_cell_angle_beta 90.000000
_cell_angle_gamma 90.000000
_cell_volume 3149.435062
_symmetry_space_group_name_H-M "I B C A "
_symmetry_group_IT_number 73
_symmetry_cell_setting 'orthorhombic'
loop_
_space_group_symop_operation_xyz
x,y,z
-x,1/2-y,z
x,-y,1/2-z
1/2-x,y,-z
-x,-y,-z
x,1/2+y,-z
-x,y,1/2+z
1/2+x,-y,z
1/2+x,1/2+y,1/2+z
1/2-x,-y,1/2+z
1/2+x,1/2-y,-z
-x,1/2+y,1/2-z
1/2-x,1/2-y,1/2-z
1/2+x,y,1/2-z
1/2-x,1/2+y,z
x,1/2-y,1/2+z
loop_
_atom_site_type_symbol
_atom_site_label
_atom_site_fract_x
_atom_site_fract_y
_atom_site_fract_z
Si Si1 0.750000 0.714682 0.000000
Si Si2 0.674392 0.120379 0.115066
Si Si3 0.162288 0.624046 0.927361
Si Si4 0.081378 0.512491 0.093789
Si Si5 0.827014 0.230303 0.687224
O O1 0.668736 0.651050 0.953730
O O2 0.845786 0.782900 0.960942
O O3 0.728277 0.204769 0.148289
O O4 0.800671 0.049077 0.124933
O O5 0.522357 0.076196 0.131474
O O6 0.315074 0.577091 0.943235
O O7 0.029380 0.556617 0.936430
O O8 0.171788 0.644299 0.855978
O O9 0.750000 0.250000 0.750000
O O10 0.000000 0.250000 0.692711
#
# Coordination Sequence:
#
# PCOD9532071 Si02
#       5
#     8  16  16  16  16
#     4  10  24  38  66  94 128 172 208 262 306 382
#     4  10  23  42  64  93 129 166 212 257 316 375
#     4  10  23  42  64  93 129 166 212 257 316 375
#     4  10  22  41  63  92 132 166 209 259 314 378
#     4  11  24  44  68  92 125 166 213 265 316 381
#
# _framework density 22.861243999999999
#
# number of rings (size 3 to 8) (size 9 to 14) (size 15 to 20)
#    0.000    1.778    2.222    0.000    3.111   11.556 
#    0.000    6.667    0.000    0.000    0.000    0.000 
#    0.000    0.000    0.000    0.000    0.000    0.000 
#
# Total GULP energy -200662.104220 kJ/mol
# GULP energy per Si atom -5573.947339 kJ/mol
# Density = 2.280921 g / cm^3
# Si number density = 22.861244 Si / 1000 Ang^3
#
#
#
# Elastic Constant Matrix: (Units=GPa)
#
#
# Indices 1 2 3 4 5 6 
#
# 1 161.6959 35.4944 23.7399 0.0000 0.0000 0.0000
# 2 35.4944 94.6703 21.6525 0.0000 0.0000 0.0000
# 3 23.7399 21.6525 111.1599 0.0000 0.0000 0.0000
# 4 0.0000 0.0000 0.0000 5.4720 0.0000 0.0000
# 5 0.0000 0.0000 0.0000 0.0000 15.1845 0.0000
# 6 0.0000 0.0000 0.0000 0.0000 0.0000 26.1908
#
#
#
# Elastic Compliance Matrix: (Units=1/GPa)
#
#
# Indices 1 2 3 4 5 6 
#
# 1 0.006845 -0.002336 -0.001007 0.000000 0.000000 0.000000
# 2 -0.002336 0.011853 -0.001810 0.000000 0.000000 0.000000
# 3 -0.001007 -0.001810 0.009564 0.000000 0.000000 0.000000
# 4 0.000000 0.000000 0.000000 0.182748 0.000000 0.000000
# 5 0.000000 0.000000 0.000000 0.000000 0.065857 0.000000
# 6 0.000000 0.000000 0.000000 0.000000 0.000000 0.038181
#
#
# Mechanical properties :
#
#
# Convention : Reuss Voigt Hill
#
# Bulk Modulus (GPa) = 55.69208 58.81107 57.25158
# Shear Modulus (GPa) = 15.09033 28.47875 21.78454
#
# Velocity S-wave (km/s) = 2.57200 3.53331 3.09026
# Velocity P-wave (km/s) = 5.76490 6.51358 6.15064
#
# Compressibility (1/GPa) = 0.01795587
#
# Stress axis : x y z
#
# Youngs Moduli (GPa) = 146.09037 84.36833 104.56302
#
# Poissons Ratio (x) = 0.19710 0.10528
# Poissons Ratio (y) = 0.34129 0.18924
# Poissons Ratio (z) = 0.14709 0.15269
#
# Static dielectric constant tensor:
#      x y z
#    x 1.873700 0.000000 0.000000 
#    y 0.000000 1.896120 0.000000 
#    z 0.000000 0.000000 2.003540 
# 
# From -- ./inp_files/5362.got.cif
#   From: 2010.05.17/outbox.cif.g08.bks.cpg/sg73_3_cif.got.tgz:5362.got - 2010.06.03 17:35:07.
