data_PCOD9532547
_publ_section_title
;
Structure prediction by ZEFSAII (Michael W. Deem and Ramdas Pophale) SiO2 
 PCOD9532547
Probable space group: I B C A 
;
_chemical_formula_sum "Si O2"
_cell_formula_units_Z 120
_cell_length_a 16.454282
_cell_length_b 25.687532
_cell_length_c 14.008283
_cell_angle_alpha 90.000000
_cell_angle_beta 90.000000
_cell_angle_gamma 90.000000
_cell_volume 5920.879511
_symmetry_space_group_name_H-M "I B C A "
_symmetry_group_IT_number 73
_symmetry_cell_setting 'orthorhombic'
loop_
_space_group_symop_operation_xyz
x,y,z
-x,1/2-y,z
x,-y,1/2-z
1/2-x,y,-z
-x,-y,-z
x,1/2+y,-z
-x,y,1/2+z
1/2+x,-y,z
1/2+x,1/2+y,1/2+z
1/2-x,-y,1/2+z
1/2+x,1/2-y,-z
-x,1/2+y,1/2-z
1/2-x,1/2-y,1/2-z
1/2+x,y,1/2-z
1/2-x,1/2+y,z
x,1/2-y,1/2+z
loop_
_atom_site_type_symbol
_atom_site_label
_atom_site_fract_x
_atom_site_fract_y
_atom_site_fract_z
Si Si1 0.250000 0.519421 0.000000
Si Si2 0.010553 0.447517 0.194870
Si Si3 0.321323 0.948035 0.687602
Si Si4 0.191756 0.330650 0.659692
Si Si5 0.921267 0.962079 0.496116
Si Si6 0.135066 0.322838 0.441058
Si Si7 0.584735 0.271303 0.692642
Si Si8 0.984891 0.878289 0.631541
O O1 0.236754 0.551535 0.904220
O O2 0.333193 0.487391 0.994994
O O3 0.037609 0.500000 0.250000
O O4 0.916706 0.457035 0.164654
O O5 0.010374 0.399921 0.266404
O O6 0.065795 0.435116 0.105493
O O7 0.320362 0.886559 0.713907
O O8 0.299205 0.000000 0.750000
O O9 0.149040 0.323628 0.555208
O O10 0.284682 0.330657 0.623633
O O11 0.154675 0.286097 0.729993
O O12 0.931527 0.922373 0.582065
O O13 0.000000 0.000000 0.500000
O O14 0.104036 0.269489 0.391765
O O15 0.067654 0.367122 0.424703
O O16 0.500000 0.250000 0.739072
O O17 0.562988 0.325347 0.642362
#
# Coordination Sequence:
#
# PCOD9532547 Si02
#       8
#     8  16  16  16  16  16  16  16
#     4  12  26  40  60 100 138 182 230 266 340 406
#     4  11  21  39  64  91 128 179 218 268 337 406
#     4  11  23  40  68 100 137 178 225 276 331 420
#     4  11  22  41  73  95 132 176 223 278 354 407
#     4  12  24  41  65  90 139 177 220 283 332 420
#     4  10  24  42  67 100 126 175 230 285 340 416
#     4  10  23  43  66  93 130 169 228 287 340 411
#     4  11  23  43  64  95 129 175 224 281 350 400
#
# _framework density 20.267258999999999
#
# number of rings (size 3 to 8) (size 9 to 14) (size 15 to 20)
#    0.000    1.067    4.000    2.800    1.867    3.200 
#    2.400    1.333    0.000    0.000    0.000    0.000 
#    0.000    0.000    0.000    0.000    0.000    0.000 
#
# Total GULP energy -334407.289801 kJ/mol
# GULP energy per Si atom -5573.454830 kJ/mol
# Density = 2.022113 g / cm^3
# Si number density = 20.267259 Si / 1000 Ang^3
#
#
#
# Elastic Constant Matrix: (Units=GPa)
#
#
# Indices 1 2 3 4 5 6 
#
# 1 71.0817 16.8711 4.9278 0.0000 0.0000 0.0000
# 2 16.8711 96.0568 19.6595 0.0000 0.0000 -0.0001
# 3 4.9278 19.6595 52.4705 -0.0001 0.0000 -0.0003
# 4 0.0000 0.0000 -0.0001 24.1189 0.0000 -0.0003
# 5 0.0000 0.0000 0.0000 0.0000 9.0430 0.0001
# 6 0.0000 -0.0001 -0.0003 -0.0003 0.0001 -308.7486
#
#
#
# Elastic Compliance Matrix: (Units=1/GPa)
#
#
# Indices 1 2 3 4 5 6 
#
# 1 0.014690 -0.002489 -0.000447 0.000000 0.000000 0.000000
# 2 -0.002489 0.011697 -0.004149 0.000000 0.000000 0.000000
# 3 -0.000447 -0.004149 0.020655 0.000000 0.000000 0.000000
# 4 0.000000 0.000000 0.000000 0.041461 0.000000 0.000000
# 5 0.000000 0.000000 0.000000 0.000000 0.110583 0.000000
# 6 0.000000 0.000000 0.000000 0.000000 0.000000 -0.003239
#
#
# Mechanical properties :
#
#
# Convention : Reuss Voigt Hill
#
# Bulk Modulus (GPa) = 30.42070 33.61398 32.01734
# Shear Modulus (GPa) = 22.62720 -43.24064 -10.30672
#
# Velocity S-wave (km/s) = 3.34494 -4.62402 -2.25753
# Velocity P-wave (km/s) = 5.47362 3.44780 3.00609
#
# Compressibility (1/GPa) = 0.03287235
#
# Stress axis : x y z
#
# Youngs Moduli (GPa) = 68.07363 85.49420 48.41492
#
# Poissons Ratio (x) = 0.21276 0.02165
# Poissons Ratio (y) = 0.16941 0.20086
# Poissons Ratio (z) = 0.03044 0.35470
#
# Static dielectric constant tensor:
#      x y z
#    x 1.771170 0.000000 0.000000 
#    y 0.000000 2.183700 0.000000 
#    z 0.000000 0.000000 1.872180 
# 
# From -- ./inp_files/18250.got.cif
#   From: 2010.05.17/outbox.cif.g08.bks.cpg/sg73_10_cif.got.tgz:18250.got - 2010.06.03 17:35:07.
