data_PCOD9532848
_publ_section_title
;
Structure prediction by ZEFSAII (Michael W. Deem and Ramdas Pophale) SiO2 
 PCOD9532848
Probable space group: I B C A 
;
_chemical_formula_sum "Si O2"
_cell_formula_units_Z 88
_cell_length_a 11.212748
_cell_length_b 21.726171
_cell_length_c 16.584732
_cell_angle_alpha 90.000000
_cell_angle_beta 90.000000
_cell_angle_gamma 90.000000
_cell_volume 4040.207896
_symmetry_space_group_name_H-M "I B C A "
_symmetry_group_IT_number 73
_symmetry_cell_setting 'orthorhombic'
loop_
_space_group_symop_operation_xyz
x,y,z
-x,1/2-y,z
x,-y,1/2-z
1/2-x,y,-z
-x,-y,-z
x,1/2+y,-z
-x,y,1/2+z
1/2+x,-y,z
1/2+x,1/2+y,1/2+z
1/2-x,-y,1/2+z
1/2+x,1/2-y,-z
-x,1/2+y,1/2-z
1/2-x,1/2-y,1/2-z
1/2+x,y,1/2-z
1/2-x,1/2+y,z
x,1/2-y,1/2+z
loop_
_atom_site_type_symbol
_atom_site_label
_atom_site_fract_x
_atom_site_fract_y
_atom_site_fract_z
Si Si1 0.628824 0.492979 0.952808
Si Si2 0.347931 0.122930 0.628486
Si Si3 0.267462 0.754265 0.092726
Si Si4 0.283031 0.064406 0.793827
Si Si5 0.087271 0.165110 0.823191
Si Si6 0.000000 0.750000 0.316795
O O1 0.659232 0.561656 0.922913
O O2 0.632860 0.451530 0.870601
O O3 0.750000 0.472204 0.000000
O O4 0.500000 0.500000 0.000000
O O5 0.249056 0.172957 0.607302
O O6 0.342485 0.103755 0.722397
O O7 0.476867 0.153395 0.617945
O O8 0.168653 0.719270 0.143444
O O9 0.391599 0.731634 0.126911
O O10 0.250000 0.740379 0.000000
O O11 0.165993 0.103364 0.817440
O O12 0.249877 0.000000 0.750000
O O13 0.040060 0.193418 0.739568
#
# Coordination Sequence:
#
# PCOD9532848 Si02
#       6
#    16  16  16  16  16   8
#     4  11  25  47  70 104 147 190 246 310 384 442
#     4  11  23  44  70  97 142 187 240 302 364 461
#     4  12  27  45  68 110 144 189 245 311 393 448
#     4  10  24  44  70 103 139 195 243 299 367 457
#     4  12  23  45  72 104 144 185 255 298 371 462
#     4  12  24  44  76  98 146 200 242 310 376 468
#
# _framework density 21.781057000000001
#
# number of rings (size 3 to 8) (size 9 to 14) (size 15 to 20)
#    0.000    0.727    3.636    3.273    2.545    7.273 
#    6.545    0.000    0.000    0.000    0.000    0.000 
#    0.000    0.000    0.000    0.000    0.000    0.000 
#
# Total GULP energy -245850.620425 kJ/mol
# GULP energy per Si atom -5587.514101 kJ/mol
# Density = 2.173148 g / cm^3
# Si number density = 21.781057 Si / 1000 Ang^3
#
#
#
# Elastic Constant Matrix: (Units=GPa)
#
#
# Indices 1 2 3 4 5 6 
#
# 1 91.0802 19.4000 51.3652 0.0000 0.0000 0.0000
# 2 19.4000 40.6207 21.7347 0.0000 0.0000 0.0000
# 3 51.3652 21.7347 125.2640 0.0000 0.0000 0.0000
# 4 0.0000 0.0000 0.0000 68.4453 0.0000 0.0000
# 5 0.0000 0.0000 0.0000 0.0000 32.6080 0.0000
# 6 0.0000 0.0000 0.0000 0.0000 0.0000 47.3121
#
#
#
# Elastic Compliance Matrix: (Units=1/GPa)
#
#
# Indices 1 2 3 4 5 6 
#
# 1 0.014918 -0.004246 -0.005381 0.000000 0.000000 0.000000
# 2 -0.004246 0.028346 -0.003177 0.000000 0.000000 0.000000
# 3 -0.005381 -0.003177 0.010741 0.000000 0.000000 0.000000
# 4 0.000000 0.000000 0.000000 0.014610 0.000000 0.000000
# 5 0.000000 0.000000 0.000000 0.000000 0.030667 0.000000
# 6 0.000000 0.000000 0.000000 0.000000 0.000000 0.021136
#
#
# Mechanical properties :
#
#
# Convention : Reuss Voigt Hill
#
# Bulk Modulus (GPa) = 35.21453 49.10720 42.16087
# Shear Modulus (GPa) = 32.15611 40.63742 36.39676
#
# Velocity S-wave (km/s) = 3.84648 4.32409 4.09226
# Velocity P-wave (km/s) = 5.99415 6.89384 6.45968
#
# Compressibility (1/GPa) = 0.02839737
#
# Stress axis : x y z
#
# Youngs Moduli (GPa) = 67.03276 35.27859 93.10325
#
# Poissons Ratio (x) = 0.14978 0.50095
# Poissons Ratio (y) = 0.28461 0.29582
# Poissons Ratio (z) = 0.36067 0.11209
#
# Static dielectric constant tensor:
#      x y z
#    x 1.859410 0.000000 0.000000 
#    y 0.000000 1.781600 0.000000 
#    z 0.000000 0.000000 1.836770 
# 
# From -- ./inp_files/16114.got.cif
#   From: 2010.05.17/outbox.cif.g08.bks.cpg/sg73_9_cif.got.tgz:16114.got - 2010.06.03 17:35:07.
