data_PCOD9532746
_publ_section_title
;
Structure prediction by ZEFSAII (Michael W. Deem and Ramdas Pophale) SiO2 
 PCOD9532746
Probable space group: I B C A 
;
_chemical_formula_sum "Si O2"
_cell_formula_units_Z 72
_cell_length_a 16.037512
_cell_length_b 8.746042
_cell_length_c 23.663472
_cell_angle_alpha 90.000000
_cell_angle_beta 90.000000
_cell_angle_gamma 90.000000
_cell_volume 3319.151068
_symmetry_space_group_name_H-M "I B C A "
_symmetry_group_IT_number 73
_symmetry_cell_setting 'orthorhombic'
loop_
_space_group_symop_operation_xyz
x,y,z
-x,1/2-y,z
x,-y,1/2-z
1/2-x,y,-z
-x,-y,-z
x,1/2+y,-z
-x,y,1/2+z
1/2+x,-y,z
1/2+x,1/2+y,1/2+z
1/2-x,-y,1/2+z
1/2+x,1/2-y,-z
-x,1/2+y,1/2-z
1/2-x,1/2-y,1/2-z
1/2+x,y,1/2-z
1/2-x,1/2+y,z
x,1/2-y,1/2+z
loop_
_atom_site_type_symbol
_atom_site_label
_atom_site_fract_x
_atom_site_fract_y
_atom_site_fract_z
Si Si1 0.833663 0.168756 0.275074
Si Si2 0.138929 0.680927 0.455903
Si Si3 0.000000 0.750000 0.548908
Si Si4 0.250000 0.915973 0.500000
Si Si5 0.561889 0.994807 0.864099
Si Si6 0.000000 0.750000 0.285054
O O1 0.750000 0.250000 0.250000
O O2 0.866995 0.119447 0.338399
O O3 0.914879 0.254034 0.250653
O O4 0.827088 0.000000 0.250000
O O5 0.076616 0.728815 0.505781
O O6 0.209963 0.807751 0.453079
O O7 0.180416 0.523910 0.475051
O O8 0.098981 0.641593 0.396773
O O9 0.011677 0.895852 0.589737
O O10 0.507553 0.086206 0.817871
#
# Coordination Sequence:
#
# PCOD9532746 Si02
#       6
#    16  16   8   8  16   8
#     4  10  24  46  68 100 131 174 233 300 351 420
#     4  11  23  43  63 100 138 188 229 283 338 429
#     4  12  24  42  66 102 140 182 238 276 342 440
#     4  10  24  42  62  90 154 172 226 290 328 396
#     4  11  24  42  70  97 134 190 232 289 371 412
#     4  10  24  46  68  96 138 176 238 296 352 422
#
# _framework density 21.692292999999999
#
# number of rings (size 3 to 8) (size 9 to 14) (size 15 to 20)
#    0.000    1.333    2.222    2.000    3.111    8.000 
#    4.000    0.000    0.000    0.000    0.000    0.000 
#    0.000    0.000    0.000    0.000    0.000    0.000 
#
# Total GULP energy -200574.864793 kJ/mol
# GULP energy per Si atom -5571.524022 kJ/mol
# Density = 2.164292 g / cm^3
# Si number density = 21.692293 Si / 1000 Ang^3
#
#
#
# Elastic Constant Matrix: (Units=GPa)
#
#
# Indices 1 2 3 4 5 6 
#
# 1 118.5425 47.8876 30.7155 0.0000 0.0000 0.0000
# 2 47.8876 98.2974 19.5749 0.0000 0.0000 0.0000
# 3 30.7155 19.5749 73.4487 0.0000 0.0000 0.0000
# 4 0.0000 0.0000 0.0000 36.7707 0.0000 0.0000
# 5 0.0000 0.0000 0.0000 0.0000 -13.2710 0.0000
# 6 0.0000 0.0000 0.0000 0.0000 0.0000 13.2184
#
#
#
# Elastic Compliance Matrix: (Units=1/GPa)
#
#
# Indices 1 2 3 4 5 6 
#
# 1 0.011266 -0.004805 -0.003431 0.000000 0.000000 0.000000
# 2 -0.004805 0.012793 -0.001400 0.000000 0.000000 0.000000
# 3 -0.003431 -0.001400 0.015423 0.000000 0.000000 0.000000
# 4 0.000000 0.000000 0.000000 0.027196 0.000000 0.000000
# 5 0.000000 0.000000 0.000000 0.000000 -0.075353 0.000000
# 6 0.000000 0.000000 0.000000 0.000000 0.000000 0.075652
#
#
# Mechanical properties :
#
#
# Convention : Reuss Voigt Hill
#
# Bulk Modulus (GPa) = 49.48071 54.07161 51.77616
# Shear Modulus (GPa) = 53.77202 20.15100 36.96151
#
# Velocity S-wave (km/s) = 4.98421 3.05117 4.13231
# Velocity P-wave (km/s) = 7.48217 6.11503 6.83288
#
# Compressibility (1/GPa) = 0.02020990
#
# Stress axis : x y z
#
# Youngs Moduli (GPa) = 88.76372 78.16797 64.83948
#
# Poissons Ratio (x) = 0.37561 0.22244
# Poissons Ratio (y) = 0.42653 0.09077
# Poissons Ratio (z) = 0.30452 0.10943
#
# Static dielectric constant tensor:
#      x y z
#    x 1.413320 0.000000 0.000000 
#    y 0.000000 1.772060 0.000000 
#    z 0.000000 0.000000 1.994460 
# 
# From -- ./inp_files/4859.got.cif
#   From: 2010.05.17/outbox.cif.g08.bks.cpg/sg73_3_cif.got.tgz:4859.got - 2010.06.03 17:35:07.
