data_PCOD9532327
_publ_section_title
;
Structure prediction by ZEFSAII (Michael W. Deem and Ramdas Pophale) SiO2 
 PCOD9532327
Probable space group: I B C A 
;
_chemical_formula_sum "Si O2"
_cell_formula_units_Z 88
_cell_length_a 12.692240
_cell_length_b 14.032764
_cell_length_c 19.537053
_cell_angle_alpha 90.000000
_cell_angle_beta 90.000000
_cell_angle_gamma 90.000000
_cell_volume 3479.689973
_symmetry_space_group_name_H-M "I B C A "
_symmetry_group_IT_number 73
_symmetry_cell_setting 'orthorhombic'
loop_
_space_group_symop_operation_xyz
x,y,z
-x,1/2-y,z
x,-y,1/2-z
1/2-x,y,-z
-x,-y,-z
x,1/2+y,-z
-x,y,1/2+z
1/2+x,-y,z
1/2+x,1/2+y,1/2+z
1/2-x,-y,1/2+z
1/2+x,1/2-y,-z
-x,1/2+y,1/2-z
1/2-x,1/2-y,1/2-z
1/2+x,y,1/2-z
1/2-x,1/2+y,z
x,1/2-y,1/2+z
loop_
_atom_site_type_symbol
_atom_site_label
_atom_site_fract_x
_atom_site_fract_y
_atom_site_fract_z
Si Si1 0.571218 0.873869 0.871249
Si Si2 0.466467 0.111093 0.496189
Si Si3 0.440663 0.650800 0.249093
Si Si4 0.599532 0.413597 0.352108
Si Si5 0.750000 0.715232 0.000000
Si Si6 0.729408 0.768988 0.150893
O O1 0.545535 0.844921 0.948808
O O2 0.462250 0.876407 0.828274
O O3 0.349543 0.700860 0.837383
O O4 0.626691 0.977675 0.870567
O O5 0.465533 0.132096 0.415725
O O6 0.348501 0.144615 0.516292
O O7 0.500000 0.000000 0.500000
O O8 0.500000 0.750000 0.237144
O O9 0.518008 0.581142 0.208563
O O10 0.335974 0.665028 0.203674
O O11 0.694335 0.340722 0.337166
O O12 0.780119 0.776313 0.932284
#
# Coordination Sequence:
#
# PCOD9532327 Si02
#       6
#    16  16  16  16   8  16
#     4  11  23  44  73 108 144 195 244 306 379 445
#     4   9  21  43  69 104 142 184 244 303 360 447
#     4  10  23  43  65 100 144 189 244 303 364 441
#     4   9  21  47  67 102 152 185 241 312 367 441
#     4  10  22  44  74 104 144 194 236 310 382 434
#     4  10  24  44  72 105 141 197 250 299 380 454
#
# _framework density 25.289611000000001
#
# number of rings (size 3 to 8) (size 9 to 14) (size 15 to 20)
#    0.000    2.182    0.000    0.545    5.091    2.909 
#   22.909    6.364    0.000    0.000    0.000    0.000 
#    0.000    0.000    0.000    0.000    0.000    0.000 
#
# Total GULP energy -245371.546948 kJ/mol
# GULP energy per Si atom -5576.626067 kJ/mol
# Density = 2.523205 g / cm^3
# Si number density = 25.289611 Si / 1000 Ang^3
#
#
#
# Elastic Constant Matrix: (Units=GPa)
#
#
# Indices 1 2 3 4 5 6 
#
# 1 124.6138 44.5056 48.4875 0.0000 0.0000 0.0000
# 2 44.5056 124.3433 13.2365 0.0000 0.0000 0.0000
# 3 48.4875 13.2365 164.4966 0.0000 0.0000 0.0000
# 4 0.0000 0.0000 0.0000 28.8731 0.0000 0.0000
# 5 0.0000 0.0000 0.0000 0.0000 41.0634 0.0000
# 6 0.0000 0.0000 0.0000 0.0000 0.0000 22.4039
#
#
#
# Elastic Compliance Matrix: (Units=1/GPa)
#
#
# Indices 1 2 3 4 5 6 
#
# 1 0.010315 -0.003397 -0.002767 0.000000 0.000000 0.000000
# 2 -0.003397 0.009231 0.000259 0.000000 0.000000 0.000000
# 3 -0.002767 0.000259 0.006874 0.000000 0.000000 0.000000
# 4 0.000000 0.000000 0.000000 0.034634 0.000000 0.000000
# 5 0.000000 0.000000 0.000000 0.000000 0.024353 0.000000
# 6 0.000000 0.000000 0.000000 0.000000 0.000000 0.044635
#
#
# Mechanical properties :
#
#
# Convention : Reuss Voigt Hill
#
# Bulk Modulus (GPa) = 68.45580 69.54586 69.00083
# Shear Modulus (GPa) = 34.07797 38.94969 36.51383
#
# Velocity S-wave (km/s) = 3.67482 3.92873 3.80389
# Velocity P-wave (km/s) = 6.71813 6.93825 6.82908
#
# Compressibility (1/GPa) = 0.01460797
#
# Stress axis : x y z
#
# Youngs Moduli (GPa) = 96.94781 108.33388 145.47639
#
# Poissons Ratio (x) = 0.36805 0.40254
# Poissons Ratio (y) = 0.32937 -0.03763
# Poissons Ratio (z) = 0.26826 -0.02802
#
# Static dielectric constant tensor:
#      x y z
#    x 2.071560 0.000000 0.000000 
#    y 0.000000 2.038550 0.000000 
#    z 0.000000 0.000000 2.079680 
# 
# From -- ./inp_files/26093.got.cif
#   From: 2010.05.17/outbox.cif.g08.bks.cpg/sg73_14_cif.got.tgz:26093.got - 2010.06.03 17:35:07.
