data_PCOD9532684
_publ_section_title
;
Structure prediction by ZEFSAII (Michael W. Deem and Ramdas Pophale) SiO2 
 PCOD9532684
Probable space group: I B C A 
;
_chemical_formula_sum "Si O2"
_cell_formula_units_Z 120
_cell_length_a 19.255173
_cell_length_b 9.953996
_cell_length_c 23.785897
_cell_angle_alpha 90.000000
_cell_angle_beta 90.000000
_cell_angle_gamma 90.000000
_cell_volume 4558.945713
_symmetry_space_group_name_H-M "I B C A "
_symmetry_group_IT_number 73
_symmetry_cell_setting 'orthorhombic'
loop_
_space_group_symop_operation_xyz
x,y,z
-x,1/2-y,z
x,-y,1/2-z
1/2-x,y,-z
-x,-y,-z
x,1/2+y,-z
-x,y,1/2+z
1/2+x,-y,z
1/2+x,1/2+y,1/2+z
1/2-x,-y,1/2+z
1/2+x,1/2-y,-z
-x,1/2+y,1/2-z
1/2-x,1/2-y,1/2-z
1/2+x,y,1/2-z
1/2-x,1/2+y,z
x,1/2-y,1/2+z
loop_
_atom_site_type_symbol
_atom_site_label
_atom_site_fract_x
_atom_site_fract_y
_atom_site_fract_z
Si Si1 0.712466 0.861862 0.057066
Si Si2 0.400827 0.673133 0.787656
Si Si3 0.913081 0.498149 0.471622
Si Si4 0.029554 0.589290 0.329839
Si Si5 0.500000 0.750000 0.493723
Si Si6 0.730500 0.559128 0.334161
Si Si7 0.862784 0.107002 0.084669
Si Si8 0.111317 0.975903 0.185930
O O1 0.654461 0.976852 0.066395
O O2 0.759111 0.844657 0.111869
O O3 0.673696 0.722672 0.049624
O O4 0.750000 0.897884 0.000000
O O5 0.439571 0.661709 0.726935
O O6 0.440937 0.562373 0.823903
O O7 0.320009 0.623685 0.787514
O O8 0.399201 0.816134 0.817967
O O9 0.948887 0.353766 0.460523
O O10 0.887238 0.495740 0.537007
O O11 0.959702 0.632529 0.472118
O O12 0.069917 0.652123 0.381552
O O13 0.051427 0.934360 0.342409
O O14 0.689113 0.440883 0.366141
O O15 0.808200 0.520433 0.316430
O O16 0.088811 0.000000 0.250000
#
# Coordination Sequence:
#
# PCOD9532684 Si02
#       8
#    16  16  16  16   8  16  16  16
#     4  12  26  47  76 108 153 201 252 323 386 457
#     4  10  23  51  71 107 155 191 247 314 379 459
#     4  11  23  48  72 106 150 193 255 314 387 451
#     4  10  24  48  76 106 154 198 245 313 383 463
#     4  10  24  44  74 104 140 204 240 314 380 452
#     4  11  27  46  72 114 145 201 255 307 384 459
#     4  11  25  47  73 112 147 203 249 319 385 462
#     4  12  26  44  77 114 146 199 247 309 386 461
#
# _framework density 26.321874999999999
#
# number of rings (size 3 to 8) (size 9 to 14) (size 15 to 20)
#    0.000    1.067    4.000    1.200    7.467    2.667 
#    9.600    0.000    0.000    0.000    0.000    0.000 
#    0.000    0.000    0.000    0.000    0.000    0.000 
#
# Total GULP energy -335231.471020 kJ/mol
# GULP energy per Si atom -5587.191184 kJ/mol
# Density = 2.626197 g / cm^3
# Si number density = 26.321875 Si / 1000 Ang^3
#
#
#
# Elastic Constant Matrix: (Units=GPa)
#
#
# Indices 1 2 3 4 5 6 
#
# 1 196.9264 62.3133 39.1516 0.0000 0.0000 0.0000
# 2 62.3133 136.7264 16.1331 0.0000 0.0000 0.0000
# 3 39.1516 16.1331 70.7199 0.0000 0.0000 0.0000
# 4 0.0000 0.0000 0.0000 -17.2459 0.0000 0.0000
# 5 0.0000 0.0000 0.0000 0.0000 42.7491 0.0000
# 6 0.0000 0.0000 0.0000 0.0000 0.0000 32.8575
#
#
#
# Elastic Compliance Matrix: (Units=1/GPa)
#
#
# Indices 1 2 3 4 5 6 
#
# 1 0.006501 -0.002608 -0.003004 0.000000 0.000000 0.000000
# 2 -0.002608 0.008563 -0.000509 0.000000 0.000000 0.000000
# 3 -0.003004 -0.000509 0.015919 0.000000 0.000000 0.000000
# 4 0.000000 0.000000 0.000000 -0.057985 0.000000 0.000000
# 5 0.000000 0.000000 0.000000 0.000000 0.023392 0.000000
# 6 0.000000 0.000000 0.000000 0.000000 0.000000 0.030434
#
#
# Mechanical properties :
#
#
# Convention : Reuss Voigt Hill
#
# Bulk Modulus (GPa) = 53.36236 71.06320 62.21278
# Shear Modulus (GPa) = 110.34104 30.79047 70.56576
#
# Velocity S-wave (km/s) = 6.48158 3.42390 5.18334
# Velocity P-wave (km/s) = 8.73679 6.53354 7.71423
#
# Compressibility (1/GPa) = 0.01873980
#
# Stress axis : x y z
#
# Youngs Moduli (GPa) = 153.83325 116.78587 62.81623
#
# Poissons Ratio (x) = 0.30460 0.18869
# Poissons Ratio (y) = 0.40123 0.03200
# Poissons Ratio (z) = 0.46208 0.05950
#
# Static dielectric constant tensor:
#      x y z
#    x 2.170340 0.000000 0.000000 
#    y 0.000000 2.141620 0.000000 
#    z 0.000000 0.000000 2.017620 
# 
# From -- ./inp_files/32895.got.cif
#   From: 2010.05.17/outbox.cif.g08.bks.cpg/sg73_17_cif.got.tgz:32895.got - 2010.06.03 17:35:07.
