data_PCOD9532136
_publ_section_title
;
Structure prediction by ZEFSAII (Michael W. Deem and Ramdas Pophale) SiO2 
 PCOD9532136
Probable space group: I B C A 
;
_chemical_formula_sum "Si O2"
_cell_formula_units_Z 112
_cell_length_a 12.814273
_cell_length_b 11.523325
_cell_length_c 28.258412
_cell_angle_alpha 90.000000
_cell_angle_beta 90.000000
_cell_angle_gamma 90.000000
_cell_volume 4172.722807
_symmetry_space_group_name_H-M "I B C A "
_symmetry_group_IT_number 73
_symmetry_cell_setting 'orthorhombic'
loop_
_space_group_symop_operation_xyz
x,y,z
-x,1/2-y,z
x,-y,1/2-z
1/2-x,y,-z
-x,-y,-z
x,1/2+y,-z
-x,y,1/2+z
1/2+x,-y,z
1/2+x,1/2+y,1/2+z
1/2-x,-y,1/2+z
1/2+x,1/2-y,-z
-x,1/2+y,1/2-z
1/2-x,1/2-y,1/2-z
1/2+x,y,1/2-z
1/2-x,1/2+y,z
x,1/2-y,1/2+z
loop_
_atom_site_type_symbol
_atom_site_label
_atom_site_fract_x
_atom_site_fract_y
_atom_site_fract_z
Si Si1 0.403124 0.363826 0.739696
Si Si2 0.025128 0.956995 0.603151
Si Si3 0.000000 0.750000 0.029538
Si Si4 0.784546 0.241978 0.185637
Si Si5 0.239343 0.825857 0.593983
Si Si6 0.750000 0.535961 0.500000
Si Si7 0.608896 0.938971 0.302427
Si Si8 0.132625 0.650504 0.454267
O O1 0.392932 0.500000 0.750000
O O2 0.298657 0.322200 0.713087
O O3 0.387853 0.294672 0.788093
O O4 0.515035 0.357267 0.715477
O O5 0.987841 0.862889 0.563094
O O6 0.132098 0.881776 0.614433
O O7 0.949252 0.976229 0.648108
O O8 0.057514 0.084348 0.583038
O O9 0.907534 0.749712 0.990583
O O10 0.811235 0.312486 0.139111
O O11 0.713429 0.126099 0.180386
O O12 0.265559 0.904342 0.550021
O O13 0.262286 0.698081 0.570941
O O14 0.846590 0.454667 0.510674
O O15 0.631436 0.000000 0.250000
#
# Coordination Sequence:
#
# PCOD9532136 Si02
#       8
#    16  16   8  16  16   8  16  16
#     4  10  23  41  67  96 134 173 231 295 354 422
#     4  11  24  43  72 100 135 194 233 292 364 436
#     4  12  24  46  72 104 142 190 240 284 376 438
#     4  11  23  43  69 101 133 185 229 295 359 434
#     4  11  23  40  70 100 136 184 242 281 361 431
#     4  10  22  42  64 104 138 188 228 294 350 426
#     4  11  24  44  71 101 140 180 242 297 361 437
#     4  11  24  43  69 103 148 183 234 310 351 430
#
# _framework density 26.840986999999998
#
# number of rings (size 3 to 8) (size 9 to 14) (size 15 to 20)
#    0.000    1.143    1.429    5.143    4.000    0.000 
#    0.000    8.571    0.000    0.000    0.000    0.000 
#    0.000    0.000    0.000    0.000    0.000    0.000 
#
# Total GULP energy -311768.369944 kJ/mol
# GULP energy per Si atom -5567.292320 kJ/mol
# Density = 2.677990 g / cm^3
# Si number density = 26.840987 Si / 1000 Ang^3
#
#
#
# Elastic Constant Matrix: (Units=GPa)
#
#
# Indices 1 2 3 4 5 6 
#
# 1 88.3503 18.0745 52.5936 0.0000 0.0000 0.0000
# 2 18.0745 64.7527 41.2124 0.0000 0.0000 0.0000
# 3 52.5936 41.2124 162.5168 0.0000 0.0000 0.0000
# 4 0.0000 0.0000 0.0000 -9.2056 0.0000 0.0000
# 5 0.0000 0.0000 0.0000 0.0000 43.9665 0.0000
# 6 0.0000 0.0000 0.0000 0.0000 0.0000 48.0902
#
#
#
# Elastic Compliance Matrix: (Units=1/GPa)
#
#
# Indices 1 2 3 4 5 6 
#
# 1 0.014101 -0.001230 -0.004251 0.000000 0.000000 0.000000
# 2 -0.001230 0.018523 -0.004299 0.000000 0.000000 0.000000
# 3 -0.004251 -0.004299 0.008619 0.000000 0.000000 0.000000
# 4 0.000000 0.000000 0.000000 -0.108630 0.000000 0.000000
# 5 0.000000 0.000000 0.000000 0.000000 0.022745 0.000000
# 6 0.000000 0.000000 0.000000 0.000000 0.000000 0.020794
#
#
# Mechanical properties :
#
#
# Convention : Reuss Voigt Hill
#
# Bulk Modulus (GPa) = 46.12153 59.93119 53.02636
# Shear Modulus (GPa) = 1700.13139 30.15283 865.14211
#
# Velocity S-wave (km/s) = 25.19492 3.35533 17.97279
# Velocity P-wave (km/s) = 29.38705 6.11455 21.22483
#
# Compressibility (1/GPa) = 0.02168185
#
# Stress axis : x y z
#
# Youngs Moduli (GPa) = 70.91662 53.98714 116.01937
#
# Poissons Ratio (x) = 0.06642 0.49325
# Poissons Ratio (y) = 0.08724 0.49878
# Poissons Ratio (z) = 0.30150 0.23210
#
# Static dielectric constant tensor:
#      x y z
#    x 2.133000 0.000000 0.000000 
#    y 0.000000 2.277410 0.000000 
#    z 0.000000 0.000000 2.296620 
# 
# From -- ./inp_files/34357.got.cif
#   From: 2010.05.17/outbox.cif.g08.bks.cpg/sg73_18_cif.got.tgz:34357.got - 2010.06.03 17:35:07.
