data_PCOD9532354
_publ_section_title
;
Structure prediction by ZEFSAII (Michael W. Deem and Ramdas Pophale) SiO2 
 PCOD9532354
Probable space group: I B C A 
;
_chemical_formula_sum "Si O2"
_cell_formula_units_Z 112
_cell_length_a 10.791279
_cell_length_b 14.451786
_cell_length_c 31.613552
_cell_angle_alpha 90.000000
_cell_angle_beta 90.000000
_cell_angle_gamma 90.000000
_cell_volume 4930.236329
_symmetry_space_group_name_H-M "I B C A "
_symmetry_group_IT_number 73
_symmetry_cell_setting 'orthorhombic'
loop_
_space_group_symop_operation_xyz
x,y,z
-x,1/2-y,z
x,-y,1/2-z
1/2-x,y,-z
-x,-y,-z
x,1/2+y,-z
-x,y,1/2+z
1/2+x,-y,z
1/2+x,1/2+y,1/2+z
1/2-x,-y,1/2+z
1/2+x,1/2-y,-z
-x,1/2+y,1/2-z
1/2-x,1/2-y,1/2-z
1/2+x,y,1/2-z
1/2-x,1/2+y,z
x,1/2-y,1/2+z
loop_
_atom_site_type_symbol
_atom_site_label
_atom_site_fract_x
_atom_site_fract_y
_atom_site_fract_z
Si Si1 0.335797 0.689131 0.129464
Si Si2 0.809029 0.287227 0.708210
Si Si3 0.083090 0.100119 0.612935
Si Si4 0.053753 0.855621 0.175629
Si Si5 0.125321 0.994682 0.527174
Si Si6 0.569549 0.159936 0.590256
Si Si7 0.399256 0.973101 0.204871
O O1 0.340238 0.699421 0.179755
O O2 0.433241 0.612402 0.114802
O O3 0.373350 0.793370 0.116188
O O4 0.195951 0.675198 0.115802
O O5 0.750000 0.250000 0.750000
O O6 0.696918 0.344381 0.686339
O O7 0.916867 0.362657 0.713153
O O8 0.128264 0.038616 0.653296
O O9 0.123584 0.062276 0.567743
O O10 0.000000 0.750000 0.183050
O O11 0.025842 0.877065 0.126127
O O12 0.995608 0.941158 0.201641
O O13 0.250000 0.004945 0.500000
O O14 0.112483 0.897183 0.550382
O O15 0.000000 0.000000 0.500000
O O16 0.500000 0.250000 0.574397
O O17 0.329450 0.000000 0.250000
#
# Coordination Sequence:
#
# PCOD9532354 Si02
#       7
#    16  16  16  16  16  16  16
#     4  10  22  45  72 102 138 200 239 302 380 442
#     4  11  24  41  67 102 152 198 263 324 374 462
#     4  10  24  47  73 103 147 185 244 311 372 457
#     4  11  22  43  68 100 141 193 253 307 380 454
#     4  12  28  49  74 113 146 189 242 317 389 467
#     4  11  23  46  74 101 139 192 244 294 377 456
#     4  11  25  41  66 105 141 196 247 306 387 447
#
# _framework density 22.716963
#
# number of rings (size 3 to 8) (size 9 to 14) (size 15 to 20)
#    0.000    1.143    4.286    1.714    4.000    1.714 
#    5.143    0.000    0.000    0.000    0.000    0.000 
#    0.000    0.000    0.000    0.000    0.000    0.000 
#
# Total GULP energy -311823.040153 kJ/mol
# GULP energy per Si atom -5568.268574 kJ/mol
# Density = 2.266526 g / cm^3
# Si number density = 22.716963 Si / 1000 Ang^3
#
#
#
# Elastic Constant Matrix: (Units=GPa)
#
#
# Indices 1 2 3 4 5 6 
#
# 1 127.4535 47.3241 77.3853 0.0000 0.0000 0.0000
# 2 47.3241 80.6105 46.4473 0.0000 0.0000 0.0000
# 3 77.3853 46.4473 175.1574 0.0000 0.0000 0.0000
# 4 0.0000 0.0000 0.0000 31.2300 0.0000 0.0000
# 5 0.0000 0.0000 0.0000 0.0000 20.9717 0.0000
# 6 0.0000 0.0000 0.0000 0.0000 0.0000 28.5031
#
#
#
# Elastic Compliance Matrix: (Units=1/GPa)
#
#
# Indices 1 2 3 4 5 6 
#
# 1 0.012085 -0.004743 -0.004082 0.000000 0.000000 0.000000
# 2 -0.004743 0.016504 -0.002281 0.000000 0.000000 0.000000
# 3 -0.004082 -0.002281 0.008117 0.000000 0.000000 0.000000
# 4 0.000000 0.000000 0.000000 0.032021 0.000000 0.000000
# 5 0.000000 0.000000 0.000000 0.000000 0.047683 0.000000
# 6 0.000000 0.000000 0.000000 0.000000 0.000000 0.035084
#
#
# Mechanical properties :
#
#
# Convention : Reuss Voigt Hill
#
# Bulk Modulus (GPa) = 68.98745 80.61498 74.80122
# Shear Modulus (GPa) = 28.00530 30.27861 29.14195
#
# Velocity S-wave (km/s) = 3.51492 3.65480 3.58554
# Velocity P-wave (km/s) = 6.84888 7.30574 7.08099
#
# Compressibility (1/GPa) = 0.01449539
#
# Stress axis : x y z
#
# Youngs Moduli (GPa) = 82.74469 60.59073 123.19419
#
# Poissons Ratio (x) = 0.28739 0.50283
# Poissons Ratio (y) = 0.39247 0.28100
# Poissons Ratio (z) = 0.33773 0.13820
#
# Static dielectric constant tensor:
#      x y z
#    x 1.861060 0.000000 0.000000 
#    y 0.000000 1.930850 0.000000 
#    z 0.000000 0.000000 1.787370 
# 
# From -- ./inp_files/11264.got.cif
#   From: 2010.05.17/outbox.cif.g08.bks.cpg/sg73_6_cif.got.tgz:11264.got - 2010.06.03 17:35:07.
