data_PCOD9532854
_publ_section_title
;
Structure prediction by ZEFSAII (Michael W. Deem and Ramdas Pophale) SiO2 
 PCOD9532854
Probable space group: I B C A 
;
_chemical_formula_sum "Si O2"
_cell_formula_units_Z 120
_cell_length_a 24.286159
_cell_length_b 9.055340
_cell_length_c 24.442525
_cell_angle_alpha 90.000000
_cell_angle_beta 90.000000
_cell_angle_gamma 90.000000
_cell_volume 5375.386093
_symmetry_space_group_name_H-M "I B C A "
_symmetry_group_IT_number 73
_symmetry_cell_setting 'orthorhombic'
loop_
_space_group_symop_operation_xyz
x,y,z
-x,1/2-y,z
x,-y,1/2-z
1/2-x,y,-z
-x,-y,-z
x,1/2+y,-z
-x,y,1/2+z
1/2+x,-y,z
1/2+x,1/2+y,1/2+z
1/2-x,-y,1/2+z
1/2+x,1/2-y,-z
-x,1/2+y,1/2-z
1/2-x,1/2-y,1/2-z
1/2+x,y,1/2-z
1/2-x,1/2+y,z
x,1/2-y,1/2+z
loop_
_atom_site_type_symbol
_atom_site_label
_atom_site_fract_x
_atom_site_fract_y
_atom_site_fract_z
Si Si1 0.023945 0.022634 0.421754
Si Si2 0.485473 0.077923 0.305185
Si Si3 0.693764 0.369393 0.967657
Si Si4 0.365184 0.649657 0.732573
Si Si5 0.359885 0.825747 0.950622
Si Si6 0.321747 0.209865 0.667720
Si Si7 0.707192 0.862028 0.160039
Si Si8 0.500000 0.750000 0.004020
O O1 0.082117 0.097991 0.437404
O O2 0.983485 0.127410 0.456052
O O3 0.022493 0.862613 0.448546
O O4 0.007720 0.006547 0.358522
O O5 0.500000 0.250000 0.308024
O O6 0.419498 0.087083 0.297156
O O7 0.507309 0.000000 0.250000
O O8 0.681045 0.542570 0.967248
O O9 0.700341 0.328541 0.904423
O O10 0.750000 0.339160 0.000000
O O11 0.644540 0.286626 0.999295
O O12 0.334052 0.500000 0.750000
O O13 0.368316 0.744674 0.788613
O O14 0.334919 0.759117 0.692019
O O15 0.340509 0.755869 0.893851
O O16 0.267259 0.306553 0.677995
O O17 0.305933 0.035428 0.670001
#
# Coordination Sequence:
#
# PCOD9532854 Si02
#       8
#    16  16  16  16  16  16  16   8
#     4  11  24  46  71 105 140 184 249 296 382 434
#     4  11  28  46  74 101 143 185 240 315 371 445
#     4  11  23  42  65 102 145 185 236 284 354 424
#     4  11  26  46  68  99 134 180 235 291 363 423
#     4  11  25  39  70  99 140 191 230 292 350 436
#     4  11  24  42  67 103 137 185 232 288 353 425
#     4  11  24  41  71 100 143 185 234 292 348 428
#     4  10  24  44  72 100 142 180 232 314 358 448
#
# _framework density 22.323979000000001
#
# number of rings (size 3 to 8) (size 9 to 14) (size 15 to 20)
#    0.000    1.067    2.000    2.800    8.400    4.267 
#    0.000    0.000    0.000    0.000    0.000    0.000 
#    0.000    0.000    0.000    0.000    0.000    0.000 
#
# Total GULP energy -334236.106535 kJ/mol
# GULP energy per Si atom -5570.601776 kJ/mol
# Density = 2.227317 g / cm^3
# Si number density = 22.323979 Si / 1000 Ang^3
#
#
#
# Elastic Constant Matrix: (Units=GPa)
#
#
# Indices 1 2 3 4 5 6 
#
# 1 85.8634 9.6803 30.5989 0.0000 0.0000 0.0000
# 2 9.6803 99.5376 75.0325 0.0000 0.0000 0.0000
# 3 30.5989 75.0325 181.3292 0.0000 0.0000 0.0000
# 4 0.0000 0.0000 0.0000 17.6952 0.0000 0.0000
# 5 0.0000 0.0000 0.0000 0.0000 30.7542 0.0000
# 6 0.0000 0.0000 0.0000 0.0000 0.0000 27.9829
#
#
#
# Elastic Compliance Matrix: (Units=1/GPa)
#
#
# Indices 1 2 3 4 5 6 
#
# 1 0.012412 0.000540 -0.002318 0.000000 0.000000 0.000000
# 2 0.000540 0.014624 -0.006143 0.000000 0.000000 0.000000
# 3 -0.002318 -0.006143 0.008448 0.000000 0.000000 0.000000
# 4 0.000000 0.000000 0.000000 0.056512 0.000000 0.000000
# 5 0.000000 0.000000 0.000000 0.000000 0.032516 0.000000
# 6 0.000000 0.000000 0.000000 0.000000 0.000000 0.035736
#
#
# Mechanical properties :
#
#
# Convention : Reuss Voigt Hill
#
# Bulk Modulus (GPa) = 50.90881 66.37262 58.64072
# Shear Modulus (GPa) = 27.37684 32.04770 29.71227
#
# Velocity S-wave (km/s) = 3.50572 3.79301 3.65219
# Velocity P-wave (km/s) = 6.26425 6.99847 6.64151
#
# Compressibility (1/GPa) = 0.01964296
#
# Stress axis : x y z
#
# Youngs Moduli (GPa) = 80.57016 68.37964 118.37508
#
# Poissons Ratio (x) = -0.03694 0.27439
# Poissons Ratio (y) = -0.04353 0.72713
# Poissons Ratio (z) = 0.18676 0.42003
#
# Static dielectric constant tensor:
#      x y z
#    x 2.134260 0.000000 0.000000 
#    y 0.000000 1.807940 0.000000 
#    z 0.000000 0.000000 1.820970 
# 
# From -- ./inp_files/30523.got.cif
#   From: 2010.05.17/outbox.cif.g08.bks.cpg/sg73_16_cif.got.tgz:30523.got - 2010.06.03 17:35:07.
