data_PCOD9532778
_publ_section_title
;
Structure prediction by ZEFSAII (Michael W. Deem and Ramdas Pophale) SiO2 
 PCOD9532778
Probable space group: I B C A 
;
_chemical_formula_sum "Si O2"
_cell_formula_units_Z 104
_cell_length_a 24.679811
_cell_length_b 21.039081
_cell_length_c 8.610447
_cell_angle_alpha 90.000000
_cell_angle_beta 90.000000
_cell_angle_gamma 90.000000
_cell_volume 4470.893173
_symmetry_space_group_name_H-M "I B C A "
_symmetry_group_IT_number 73
_symmetry_cell_setting 'orthorhombic'
loop_
_space_group_symop_operation_xyz
x,y,z
-x,1/2-y,z
x,-y,1/2-z
1/2-x,y,-z
-x,-y,-z
x,1/2+y,-z
-x,y,1/2+z
1/2+x,-y,z
1/2+x,1/2+y,1/2+z
1/2-x,-y,1/2+z
1/2+x,1/2-y,-z
-x,1/2+y,1/2-z
1/2-x,1/2-y,1/2-z
1/2+x,y,1/2-z
1/2-x,1/2+y,z
x,1/2-y,1/2+z
loop_
_atom_site_type_symbol
_atom_site_label
_atom_site_fract_x
_atom_site_fract_y
_atom_site_fract_z
Si Si1 0.750000 0.411502 0.500000
Si Si2 0.631363 0.597731 0.397310
Si Si3 0.187881 0.784848 0.459332
Si Si4 0.932603 0.924278 0.785269
Si Si5 0.294224 0.500000 0.750000
Si Si6 0.000000 0.250000 0.963629
Si Si7 0.847750 0.668251 0.120735
Si Si8 0.542065 0.344784 0.283667
O O1 0.742196 0.452559 0.346459
O O2 0.803351 0.371595 0.471262
O O3 0.672241 0.653707 0.440916
O O4 0.590921 0.587008 0.541644
O O5 0.666824 0.536144 0.368381
O O6 0.597185 0.617564 0.245610
O O7 0.250000 0.767315 0.500000
O O8 0.177798 0.803616 0.280886
O O9 0.146608 0.729771 0.511630
O O10 0.895919 0.879060 0.673186
O O11 0.992880 0.895278 0.776345
O O12 0.930747 0.000000 0.750000
O O13 0.031888 0.300558 0.068354
O O14 0.037288 0.206420 0.855425
#
# Coordination Sequence:
#
# PCOD9532778 Si02
#       8
#     8  16  16  16   8   8  16  16
#     4  12  28  50  74 108 144 206 240 322 376 460
#     4  11  27  46  72 110 141 205 245 311 376 459
#     4  11  24  44  70 104 149 185 245 312 372 446
#     4  11  26  47  71 104 152 200 248 311 372 447
#     4  12  30  48  78 104 154 192 266 300 380 464
#     4  10  24  42  70 106 144 186 236 310 370 430
#     4  11  26  43  73 107 143 190 247 302 386 435
#     4  11  24  45  73 105 146 192 246 305 376 445
#
# _framework density 23.261569999999999
#
# number of rings (size 3 to 8) (size 9 to 14) (size 15 to 20)
#    0.000    0.923    2.308    2.308   14.000    3.077 
#    0.000    0.000    0.000    0.000    0.000    0.000 
#    0.000    0.000    0.000    0.000    0.000    0.000 
#
# Total GULP energy -291254.574178 kJ/mol
# GULP energy per Si atom -5601.049503 kJ/mol
# Density = 2.320863 g / cm^3
# Si number density = 23.261570 Si / 1000 Ang^3
#
#
#
# Elastic Constant Matrix: (Units=GPa)
#
#
# Indices 1 2 3 4 5 6 
#
# 1 74.7222 20.8882 5.0972 0.0000 0.0000 0.0000
# 2 20.8882 128.3168 19.9048 0.0000 0.0000 0.0000
# 3 5.0972 19.9048 61.0725 0.0000 0.0000 0.0000
# 4 0.0000 0.0000 0.0000 44.6081 0.0000 0.0000
# 5 0.0000 0.0000 0.0000 0.0000 23.8950 0.0000
# 6 0.0000 0.0000 0.0000 0.0000 0.0000 6.5355
#
#
#
# Elastic Compliance Matrix: (Units=1/GPa)
#
#
# Indices 1 2 3 4 5 6 
#
# 1 0.014033 -0.002215 -0.000449 0.000000 0.000000 0.000000
# 2 -0.002215 0.008558 -0.002604 0.000000 0.000000 0.000000
# 3 -0.000449 -0.002604 0.017260 0.000000 0.000000 0.000000
# 4 0.000000 0.000000 0.000000 0.022417 0.000000 0.000000
# 5 0.000000 0.000000 0.000000 0.000000 0.041850 0.000000
# 6 0.000000 0.000000 0.000000 0.000000 0.000000 0.153010
#
#
# Mechanical properties :
#
#
# Convention : Reuss Voigt Hill
#
# Bulk Modulus (GPa) = 34.11338 39.54354 36.82846
# Shear Modulus (GPa) = 18.02221 29.55584 23.78902
#
# Velocity S-wave (km/s) = 2.78648 3.56840 3.20140
# Velocity P-wave (km/s) = 5.00495 5.83218 5.43433
#
# Compressibility (1/GPa) = 0.02931401
#
# Stress axis : x y z
#
# Youngs Moduli (GPa) = 71.26246 116.85378 57.93650
#
# Poissons Ratio (x) = 0.25878 0.02604
# Poissons Ratio (y) = 0.15782 0.15088
# Poissons Ratio (z) = 0.03203 0.30432
#
# Static dielectric constant tensor:
#      x y z
#    x 1.802550 0.000000 0.000000 
#    y 0.000000 1.852450 0.000000 
#    z 0.000000 0.000000 1.901300 
# 
# From -- ./inp_files/7921.got.cif
#   From: 2010.05.17/outbox.cif.g08.bks.cpg/sg73_4_cif.got.tgz:7921.got - 2010.06.03 17:35:07.
