data_PCOD9532115
_publ_section_title
;
Structure prediction by ZEFSAII (Michael W. Deem and Ramdas Pophale) SiO2 
 PCOD9532115
Probable space group: I B C A 
;
_chemical_formula_sum "Si O2"
_cell_formula_units_Z 112
_cell_length_a 33.909841
_cell_length_b 9.709372
_cell_length_c 14.482642
_cell_angle_alpha 90.000000
_cell_angle_beta 90.000000
_cell_angle_gamma 90.000000
_cell_volume 4768.312276
_symmetry_space_group_name_H-M "I B C A "
_symmetry_group_IT_number 73
_symmetry_cell_setting 'orthorhombic'
loop_
_space_group_symop_operation_xyz
x,y,z
-x,1/2-y,z
x,-y,1/2-z
1/2-x,y,-z
-x,-y,-z
x,1/2+y,-z
-x,y,1/2+z
1/2+x,-y,z
1/2+x,1/2+y,1/2+z
1/2-x,-y,1/2+z
1/2+x,1/2-y,-z
-x,1/2+y,1/2-z
1/2-x,1/2-y,1/2-z
1/2+x,y,1/2-z
1/2-x,1/2+y,z
x,1/2-y,1/2+z
loop_
_atom_site_type_symbol
_atom_site_label
_atom_site_fract_x
_atom_site_fract_y
_atom_site_fract_z
Si Si1 0.328494 0.751428 0.395026
Si Si2 0.521789 0.954948 0.594172
Si Si3 0.795406 0.534245 0.972916
Si Si4 0.535469 0.140668 0.177611
Si Si5 0.582928 0.824188 0.944007
Si Si6 0.420533 0.280442 0.353429
Si Si7 0.337865 0.852268 0.201860
O O1 0.319534 0.606281 0.443701
O O2 0.373978 0.793098 0.408192
O O3 0.321576 0.756834 0.284789
O O4 0.305424 0.875761 0.447240
O O5 0.486510 0.996986 0.661591
O O6 0.559306 0.055482 0.606461
O O7 0.500000 0.000000 0.500000
O O8 0.541410 0.810861 0.617374
O O9 0.807931 0.621433 0.882136
O O10 0.750000 0.546245 0.000000
O O11 0.500000 0.250000 0.192608
O O12 0.556511 0.191089 0.082089
O O13 0.568802 0.155636 0.254933
O O14 0.585690 0.863351 0.051743
O O15 0.379516 0.199992 0.337914
O O16 0.344433 0.000000 0.250000
#
# Coordination Sequence:
#
# PCOD9532115 Si02
#       7
#    16  16  16  16  16  16  16
#     4  11  23  45  74 103 140 184 236 282 348 431
#     4  11  24  41  61  88 131 182 228 296 359 395
#     4  11  24  44  73 108 141 179 226 285 356 429
#     4  10  24  38  60  96 124 169 237 285 331 404
#     4  11  23  41  63  95 128 173 238 284 342 418
#     4  12  23  42  67  88 133 180 231 289 346 424
#     4  10  22  41  70  99 129 189 233 270 350 435
#
# _framework density 23.488394
#
# number of rings (size 3 to 8) (size 9 to 14) (size 15 to 20)
#    0.000    1.143    4.286    2.143    4.000    0.571 
#    0.000    2.143    0.000    0.000    0.000    0.000 
#    0.000    0.000    0.000    0.000    0.000    0.000 
#
# Total GULP energy -313024.530822 kJ/mol
# GULP energy per Si atom -5589.723765 kJ/mol
# Density = 2.343493 g / cm^3
# Si number density = 23.488394 Si / 1000 Ang^3
#
#
#
# Elastic Constant Matrix: (Units=GPa)
#
#
# Indices 1 2 3 4 5 6 
#
# 1 143.0203 13.4020 22.6400 0.0000 0.0000 0.0000
# 2 13.4020 43.4527 -1.5668 0.0000 0.0000 0.0000
# 3 22.6400 -1.5668 124.7459 0.0000 0.0000 0.0000
# 4 0.0000 0.0000 0.0000 25.1673 0.0000 0.0000
# 5 0.0000 0.0000 0.0000 0.0000 40.5084 0.0000
# 6 0.0000 0.0000 0.0000 0.0000 0.0000 25.3819
#
#
#
# Elastic Compliance Matrix: (Units=1/GPa)
#
#
# Indices 1 2 3 4 5 6 
#
# 1 0.007429 -0.002341 -0.001378 0.000000 0.000000 0.000000
# 2 -0.002341 0.023762 0.000723 0.000000 0.000000 0.000000
# 3 -0.001378 0.000723 0.008275 0.000000 0.000000 0.000000
# 4 0.000000 0.000000 0.000000 0.039734 0.000000 0.000000
# 5 0.000000 0.000000 0.000000 0.000000 0.024686 0.000000
# 6 0.000000 0.000000 0.000000 0.000000 0.000000 0.039398
#
#
# Mechanical properties :
#
#
# Convention : Reuss Voigt Hill
#
# Bulk Modulus (GPa) = 29.87261 42.24102 36.05681
# Shear Modulus (GPa) = 31.16533 36.66111 33.91322
#
# Velocity S-wave (km/s) = 3.64653 3.95500 3.80390
# Velocity P-wave (km/s) = 5.52044 6.23530 5.88872
#
# Compressibility (1/GPa) = 0.03347549
#
# Stress axis : x y z
#
# Youngs Moduli (GPa) = 134.59864 42.08452 120.83958
#
# Poissons Ratio (x) = 0.09853 0.16649
# Poissons Ratio (y) = 0.31511 -0.08741
# Poissons Ratio (z) = 0.18545 -0.03044
#
# Static dielectric constant tensor:
#      x y z
#    x 1.819730 0.000000 0.000000 
#    y 0.000000 1.992450 0.000000 
#    z 0.000000 0.000000 1.994220 
# 
# From -- ./inp_files/20027.got.cif
#   From: 2010.05.17/outbox.cif.g08.bks.cpg/sg73_11_cif.got.tgz:20027.got - 2010.06.03 17:35:07.
