data_PCOD9532246
_publ_section_title
;
Structure prediction by ZEFSAII (Michael W. Deem and Ramdas Pophale) SiO2 
 PCOD9532246
Probable space group: I B C A 
;
_chemical_formula_sum "Si O2"
_cell_formula_units_Z 80
_cell_length_a 12.475309
_cell_length_b 14.769352
_cell_length_c 22.986579
_cell_angle_alpha 90.000000
_cell_angle_beta 90.000000
_cell_angle_gamma 90.000000
_cell_volume 4235.328439
_symmetry_space_group_name_H-M "I B C A "
_symmetry_group_IT_number 73
_symmetry_cell_setting 'orthorhombic'
loop_
_space_group_symop_operation_xyz
x,y,z
-x,1/2-y,z
x,-y,1/2-z
1/2-x,y,-z
-x,-y,-z
x,1/2+y,-z
-x,y,1/2+z
1/2+x,-y,z
1/2+x,1/2+y,1/2+z
1/2-x,-y,1/2+z
1/2+x,1/2-y,-z
-x,1/2+y,1/2-z
1/2-x,1/2-y,1/2-z
1/2+x,y,1/2-z
1/2-x,1/2+y,z
x,1/2-y,1/2+z
loop_
_atom_site_type_symbol
_atom_site_label
_atom_site_fract_x
_atom_site_fract_y
_atom_site_fract_z
Si Si1 0.712938 0.155183 0.842915
Si Si2 0.266779 0.047507 0.117263
Si Si3 0.250000 0.363093 0.500000
Si Si4 0.851183 0.900310 0.766189
Si Si5 0.000000 0.250000 0.195503
Si Si6 0.382511 0.212782 0.094360
O O1 0.758537 0.132063 0.778254
O O2 0.596910 0.202210 0.839451
O O3 0.797137 0.222581 0.873560
O O4 0.711737 0.057986 0.874693
O O5 0.217280 0.074525 0.054688
O O6 0.194179 0.085680 0.169127
O O7 0.372307 0.110881 0.119618
O O8 0.157733 0.301108 0.472092
O O9 0.943458 0.826575 0.766217
O O10 0.890900 0.000000 0.750000
O O11 0.500000 0.250000 0.099193
#
# Coordination Sequence:
#
# PCOD9532246 Si02
#       6
#    16  16   8  16   8  16
#     4  11  24  40  68  95 132 171 215 275 329 391
#     4   9  21  44  62  96 133 167 222 263 328 390
#     4   8  20  44  62  96 126 164 220 256 314 386
#     4  10  23  41  62  94 135 173 215 269 328 392
#     4  12  22  38  62 100 130 170 210 274 324 390
#     4  10  22  43  68  96 128 170 217 263 318 388
#
# _framework density 18.888736000000002
#
# number of rings (size 3 to 8) (size 9 to 14) (size 15 to 20)
#    1.200    0.800    2.000    0.600    1.400    6.400 
#    7.200    1.000    0.000    0.000    0.000    0.000 
#    0.000    0.000    0.000    0.000    0.000    0.000 
#
# Total GULP energy -222787.885601 kJ/mol
# GULP energy per Si atom -5569.697140 kJ/mol
# Density = 1.884574 g / cm^3
# Si number density = 18.888736 Si / 1000 Ang^3
#
#
#
# Elastic Constant Matrix: (Units=GPa)
#
#
# Indices 1 2 3 4 5 6 
#
# 1 110.0384 67.2456 31.0489 0.0000 0.0000 0.0000
# 2 67.2456 149.6209 49.7137 0.0000 0.0000 0.0000
# 3 31.0489 49.7137 118.3554 0.0000 0.0000 0.0000
# 4 0.0000 0.0000 0.0000 18.1680 0.0000 0.0000
# 5 0.0000 0.0000 0.0000 0.0000 12.9622 0.0000
# 6 0.0000 0.0000 0.0000 0.0000 0.0000 28.3237
#
#
#
# Elastic Compliance Matrix: (Units=1/GPa)
#
#
# Indices 1 2 3 4 5 6 
#
# 1 0.012647 -0.005325 -0.001081 0.000000 0.000000 0.000000
# 2 -0.005325 0.010010 -0.002808 0.000000 0.000000 0.000000
# 3 -0.001081 -0.002808 0.009912 0.000000 0.000000 0.000000
# 4 0.000000 0.000000 0.000000 0.055042 0.000000 0.000000
# 5 0.000000 0.000000 0.000000 0.000000 0.077147 0.000000
# 6 0.000000 0.000000 0.000000 0.000000 0.000000 0.035306
#
#
# Mechanical properties :
#
#
# Convention : Reuss Voigt Hill
#
# Bulk Modulus (GPa) = 70.71342 74.89235 72.80288
# Shear Modulus (GPa) = 22.40100 27.22455 24.81277
#
# Velocity S-wave (km/s) = 3.44749 3.80058 3.62833
# Velocity P-wave (km/s) = 7.30514 7.68079 7.49532
#
# Compressibility (1/GPa) = 0.01414159
#
# Stress axis : x y z
#
# Youngs Moduli (GPa) = 79.07140 99.90453 100.88779
#
# Poissons Ratio (x) = 0.53197 0.10907
# Poissons Ratio (y) = 0.42104 0.28324
# Poissons Ratio (z) = 0.08548 0.28048
#
# Static dielectric constant tensor:
#      x y z
#    x 1.627400 0.000000 0.000000 
#    y 0.000000 1.666920 0.000000 
#    z 0.000000 0.000000 1.691820 
# 
# From -- ./inp_files/11061.got.cif
#   From: 2010.05.17/outbox.cif.g08.bks.cpg/sg73_6_cif.got.tgz:11061.got - 2010.06.03 17:35:07.
