data_PCOD9532783
_publ_section_title
;
Structure prediction by ZEFSAII (Michael W. Deem and Ramdas Pophale) SiO2 
 PCOD9532783
Probable space group: I B C A 
;
_chemical_formula_sum "Si O2"
_cell_formula_units_Z 104
_cell_length_a 24.226962
_cell_length_b 22.967687
_cell_length_c 8.029699
_cell_angle_alpha 90.000000
_cell_angle_beta 90.000000
_cell_angle_gamma 90.000000
_cell_volume 4468.023872
_symmetry_space_group_name_H-M "I B C A "
_symmetry_group_IT_number 73
_symmetry_cell_setting 'orthorhombic'
loop_
_space_group_symop_operation_xyz
x,y,z
-x,1/2-y,z
x,-y,1/2-z
1/2-x,y,-z
-x,-y,-z
x,1/2+y,-z
-x,y,1/2+z
1/2+x,-y,z
1/2+x,1/2+y,1/2+z
1/2-x,-y,1/2+z
1/2+x,1/2-y,-z
-x,1/2+y,1/2-z
1/2-x,1/2-y,1/2-z
1/2+x,y,1/2-z
1/2-x,1/2+y,z
x,1/2-y,1/2+z
loop_
_atom_site_type_symbol
_atom_site_label
_atom_site_fract_x
_atom_site_fract_y
_atom_site_fract_z
Si Si1 0.750000 0.093406 0.500000
Si Si2 0.562338 0.370519 0.891281
Si Si3 0.831787 0.811265 0.853790
Si Si4 0.246159 0.500000 0.750000
Si Si5 0.168986 0.816380 0.955219
Si Si6 0.935497 0.620951 0.989227
Si Si7 0.435426 0.496175 0.450704
Si Si8 0.250000 0.411635 0.000000
O O1 0.795256 0.136496 0.574956
O O2 0.724672 0.047240 0.632711
O O3 0.606330 0.320087 0.926664
O O4 0.564423 0.375794 0.690443
O O5 0.582629 0.430021 0.982286
O O6 0.497933 0.365937 0.934817
O O7 0.830704 0.816478 0.655351
O O8 0.812564 0.746442 0.895410
O O9 0.216737 0.544757 0.622820
O O10 0.107050 0.834285 0.907870
O O11 0.209766 0.868029 0.903978
O O12 0.914296 0.554436 0.959489
O O13 0.429815 0.500000 0.250000
O O14 0.500000 0.500000 0.500000
#
# Coordination Sequence:
#
# PCOD9532783 Si02
#       8
#     8  16  16   8  16  16  16   8
#     4  11  23  46  68 100 129 161 212 260 332 387
#     4   9  19  37  59  89 123 166 212 260 316 374
#     4  11  25  42  65  92 130 176 217 263 316 376
#     4  10  24  42  72 100 130 158 202 270 328 394
#     4  11  25  42  65  92 130 176 217 263 316 376
#     4   9  19  37  59  89 123 166 212 260 316 374
#     4   8  14  28  53  78 110 148 194 245 303 359
#     4  11  23  46  68 100 129 161 212 260 332 387
#
# _framework density 23.276509000000001
#
# number of rings (size 3 to 8) (size 9 to 14) (size 15 to 20)
#    0.000    2.154    1.538    0.462    2.154    5.538 
#    2.769    3.077   13.538    0.000    0.000    0.000 
#    0.000    0.000    0.000    0.000    0.000    0.000 
#
# Total GULP energy -289819.092127 kJ/mol
# GULP energy per Si atom -5573.444079 kJ/mol
# Density = 2.322353 g / cm^3
# Si number density = 23.276509 Si / 1000 Ang^3
#
#
#
# Elastic Constant Matrix: (Units=GPa)
#
#
# Indices 1 2 3 4 5 6 
#
# 1 80.4085 38.8486 9.3660 0.0000 0.0000 0.0000
# 2 38.8486 155.6715 30.2610 0.0000 0.0000 0.0000
# 3 9.3660 30.2610 26.4869 0.0000 0.0000 0.0000
# 4 0.0000 0.0000 0.0000 37.4789 0.0000 0.0000
# 5 0.0000 0.0000 0.0000 0.0000 20.9754 0.0000
# 6 0.0000 0.0000 0.0000 0.0000 0.0000 13.1078
#
#
#
# Elastic Compliance Matrix: (Units=1/GPa)
#
#
# Indices 1 2 3 4 5 6 
#
# 1 0.014174 -0.003294 -0.001248 0.000000 0.000000 0.000000
# 2 -0.003294 0.009023 -0.009144 0.000000 0.000000 0.000000
# 3 -0.001248 -0.009144 0.048643 0.000000 0.000000 0.000000
# 4 0.000000 0.000000 0.000000 0.026682 0.000000 0.000000
# 5 0.000000 0.000000 0.000000 0.000000 0.047675 0.000000
# 6 0.000000 0.000000 0.000000 0.000000 0.000000 0.076290
#
#
# Mechanical properties :
#
#
# Convention : Reuss Voigt Hill
#
# Bulk Modulus (GPa) = 22.48878 46.61312 34.55095
# Shear Modulus (GPa) = 18.89054 26.58518 22.73786
#
# Velocity S-wave (km/s) = 2.85190 3.38323 3.12886
# Velocity P-wave (km/s) = 4.53067 5.94399 5.28479
#
# Compressibility (1/GPa) = 0.04446661
#
# Stress axis : x y z
#
# Youngs Moduli (GPa) = 70.55392 110.82180 20.55790
#
# Poissons Ratio (x) = 0.36510 0.02566
# Poissons Ratio (y) = 0.23244 0.18799
# Poissons Ratio (z) = 0.08805 1.01339
#
# Static dielectric constant tensor:
#      x y z
#    x 1.887190 0.000000 0.000000 
#    y 0.000000 1.896490 0.000000 
#    z 0.000000 0.000000 1.936160 
# 
# From -- ./inp_files/7929.got.cif
#   From: 2010.05.17/outbox.cif.g08.bks.cpg/sg73_4_cif.got.tgz:7929.got - 2010.06.03 17:35:07.
