data_PCOD9532524
_publ_section_title
;
Structure prediction by ZEFSAII (Michael W. Deem and Ramdas Pophale) SiO2 
 PCOD9532524
Probable space group: I B C A 
;
_chemical_formula_sum "Si O2"
_cell_formula_units_Z 104
_cell_length_a 9.041419
_cell_length_b 19.420868
_cell_length_c 28.478559
_cell_angle_alpha 90.000000
_cell_angle_beta 90.000000
_cell_angle_gamma 90.000000
_cell_volume 5000.612968
_symmetry_space_group_name_H-M "I B C A "
_symmetry_group_IT_number 73
_symmetry_cell_setting 'orthorhombic'
loop_
_space_group_symop_operation_xyz
x,y,z
-x,1/2-y,z
x,-y,1/2-z
1/2-x,y,-z
-x,-y,-z
x,1/2+y,-z
-x,y,1/2+z
1/2+x,-y,z
1/2+x,1/2+y,1/2+z
1/2-x,-y,1/2+z
1/2+x,1/2-y,-z
-x,1/2+y,1/2-z
1/2-x,1/2-y,1/2-z
1/2+x,y,1/2-z
1/2-x,1/2+y,z
x,1/2-y,1/2+z
loop_
_atom_site_type_symbol
_atom_site_label
_atom_site_fract_x
_atom_site_fract_y
_atom_site_fract_z
Si Si1 0.445724 0.326562 0.883147
Si Si2 0.011128 0.450599 0.184609
Si Si3 0.753642 0.500000 0.250000
Si Si4 0.850968 0.715730 0.079867
Si Si5 0.297543 0.643775 0.051694
Si Si6 0.621281 0.976945 0.903838
Si Si7 0.658329 0.068283 0.046531
O O1 0.500000 0.250000 0.872490
O O2 0.493485 0.381194 0.844851
O O3 0.269906 0.316827 0.885898
O O4 0.531208 0.349283 0.931728
O O5 0.143894 0.449736 0.222051
O O6 0.048088 0.511022 0.146773
O O7 0.860736 0.465100 0.212073
O O8 0.768194 0.779213 0.055173
O O9 0.884796 0.649046 0.047955
O O10 0.000000 0.750000 0.099151
O O11 0.217087 0.592053 0.088171
O O12 0.250000 0.618220 0.000000
O O13 0.490504 0.973172 0.942292
O O14 0.728894 0.040937 0.913581
O O15 0.750000 0.053804 0.000000
#
# Coordination Sequence:
#
# PCOD9532524 Si02
#       7
#    16  16   8  16  16  16  16
#     4  10  23  42  68  91 137 178 220 280 329 395
#     4  11  22  45  66 104 126 166 214 274 357 422
#     4  10  24  40  76  96 130 158 204 280 354 442
#     4  11  23  42  61  91 131 189 232 280 317 380
#     4  11  24  40  61  96 136 188 234 271 321 379
#     4  12  24  40  67  93 136 171 226 284 335 399
#     4  12  25  39  61  93 135 183 229 280 328 381
#
# _framework density 20.797449
#
# number of rings (size 3 to 8) (size 9 to 14) (size 15 to 20)
#    0.000    0.923    3.077    4.154    2.154    1.846 
#    0.000    0.769    0.000    0.000    0.000    0.000 
#    0.000    0.000    0.000    0.000    0.000    0.000 
#
# Total GULP energy -290357.681238 kJ/mol
# GULP energy per Si atom -5583.801562 kJ/mol
# Density = 2.075011 g / cm^3
# Si number density = 20.797449 Si / 1000 Ang^3
#
#
#
# Elastic Constant Matrix: (Units=GPa)
#
#
# Indices 1 2 3 4 5 6 
#
# 1 142.4827 31.1945 30.3759 0.0000 0.0000 0.0000
# 2 31.1945 122.7159 30.3145 0.0000 0.0000 0.0000
# 3 30.3759 30.3145 79.0177 0.0000 0.0000 0.0000
# 4 0.0000 0.0000 0.0000 17.5958 0.0000 0.0000
# 5 0.0000 0.0000 0.0000 0.0000 33.1951 0.0000
# 6 0.0000 0.0000 0.0000 0.0000 0.0000 26.7745
#
#
#
# Elastic Compliance Matrix: (Units=1/GPa)
#
#
# Indices 1 2 3 4 5 6 
#
# 1 0.007851 -0.001381 -0.002488 0.000000 0.000000 0.000000
# 2 -0.001381 0.009245 -0.003016 0.000000 0.000000 0.000000
# 3 -0.002488 -0.003016 0.014769 0.000000 0.000000 0.000000
# 4 0.000000 0.000000 0.000000 0.056832 0.000000 0.000000
# 5 0.000000 0.000000 0.000000 0.000000 0.030125 0.000000
# 6 0.000000 0.000000 0.000000 0.000000 0.000000 0.037349
#
#
# Mechanical properties :
#
#
# Convention : Reuss Voigt Hill
#
# Bulk Modulus (GPa) = 55.26493 58.66512 56.96503
# Shear Modulus (GPa) = 28.41345 32.33517 30.37431
#
# Velocity S-wave (km/s) = 3.70022 3.94733 3.82577
# Velocity P-wave (km/s) = 6.69971 7.00316 6.85312
#
# Compressibility (1/GPa) = 0.01809466
#
# Stress axis : x y z
#
# Youngs Moduli (GPa) = 127.36821 108.16680 67.70964
#
# Poissons Ratio (x) = 0.14939 0.16848
# Poissons Ratio (y) = 0.17591 0.20420
# Poissons Ratio (z) = 0.31693 0.32621
#
# Static dielectric constant tensor:
#      x y z
#    x 1.820100 0.000000 0.000000 
#    y 0.000000 1.755260 0.000000 
#    z 0.000000 0.000000 1.748990 
# 
# From -- ./inp_files/7910.got.cif
#   From: 2010.05.17/outbox.cif.g08.bks.cpg/sg73_4_cif.got.tgz:7910.got - 2010.06.03 17:35:07.
