data_PCOD9532584
_publ_section_title
;
Structure prediction by ZEFSAII (Michael W. Deem and Ramdas Pophale) SiO2 
 PCOD9532584
Probable space group: I B C A 
;
_chemical_formula_sum "Si O2"
_cell_formula_units_Z 112
_cell_length_a 13.163908
_cell_length_b 13.044897
_cell_length_c 28.418335
_cell_angle_alpha 90.000000
_cell_angle_beta 90.000000
_cell_angle_gamma 90.000000
_cell_volume 4880.048321
_symmetry_space_group_name_H-M "I B C A "
_symmetry_group_IT_number 73
_symmetry_cell_setting 'orthorhombic'
loop_
_space_group_symop_operation_xyz
x,y,z
-x,1/2-y,z
x,-y,1/2-z
1/2-x,y,-z
-x,-y,-z
x,1/2+y,-z
-x,y,1/2+z
1/2+x,-y,z
1/2+x,1/2+y,1/2+z
1/2-x,-y,1/2+z
1/2+x,1/2-y,-z
-x,1/2+y,1/2-z
1/2-x,1/2-y,1/2-z
1/2+x,y,1/2-z
1/2-x,1/2+y,z
x,1/2-y,1/2+z
loop_
_atom_site_type_symbol
_atom_site_label
_atom_site_fract_x
_atom_site_fract_y
_atom_site_fract_z
Si Si1 0.845792 0.879547 0.627805
Si Si2 0.406877 0.046646 0.800468
Si Si3 0.659421 0.719957 0.440363
Si Si4 0.622366 0.013789 0.698444
Si Si5 0.388554 0.284929 0.953500
Si Si6 0.266699 0.288762 0.697365
Si Si7 0.326892 0.489916 0.910558
O O1 0.896846 0.793632 0.596160
O O2 0.779368 0.808257 0.663458
O O3 0.789845 0.952588 0.589531
O O4 0.905130 0.956312 0.661126
O O5 0.526616 0.062945 0.795241
O O6 0.329681 0.136850 0.813959
O O7 0.378372 0.000000 0.750000
O O8 0.781917 0.740170 0.432963
O O9 0.625220 0.754220 0.491987
O O10 0.647837 0.600808 0.429935
O O11 0.657103 0.985718 0.645844
O O12 0.674027 0.000000 0.750000
O O13 0.633283 0.138254 0.694580
O O14 0.500000 0.250000 0.936820
O O15 0.384420 0.404496 0.940458
O O16 0.250000 0.250000 0.750000
#
# Coordination Sequence:
#
# PCOD9532584 Si02
#       7
#    16  16  16  16  16  16  16
#     4  11  21  39  68  94 133 181 233 280 352 414
#     4  11  23  40  63  98 137 186 233 288 342 410
#     4  10  23  44  69 102 134 179 233 289 361 427
#     4  11  24  42  65 100 140 179 232 284 347 419
#     4  10  25  45  73 102 136 179 233 291 357 423
#     4  12  22  41  68  93 137 190 230 284 347 415
#     4  11  23  44  69  99 140 180 229 291 349 424
#
# _framework density 22.950592
#
# number of rings (size 3 to 8) (size 9 to 14) (size 15 to 20)
#    0.000    1.143    4.286    1.286    0.000   10.286 
#    0.000    1.429    0.000    0.000    0.000    0.000 
#    0.000    0.000    0.000    0.000    0.000    0.000 
#
# Total GULP energy -311815.357163 kJ/mol
# GULP energy per Si atom -5568.131378 kJ/mol
# Density = 2.289836 g / cm^3
# Si number density = 22.950592 Si / 1000 Ang^3
#
#
#
# Elastic Constant Matrix: (Units=GPa)
#
#
# Indices 1 2 3 4 5 6 
#
# 1 72.2469 -2.5533 -10.8413 0.0000 0.0000 0.0000
# 2 -2.5533 122.2425 49.8233 0.0000 0.0000 0.0000
# 3 -10.8413 49.8233 110.4792 0.0000 0.0000 0.0000
# 4 0.0000 0.0000 0.0000 32.9585 0.0000 0.0000
# 5 0.0000 0.0000 0.0000 0.0000 22.5261 0.0000
# 6 0.0000 0.0000 0.0000 0.0000 0.0000 4.0895
#
#
#
# Elastic Compliance Matrix: (Units=1/GPa)
#
#
# Indices 1 2 3 4 5 6 
#
# 1 0.014059 -0.000329 0.001528 0.000000 0.000000 0.000000
# 2 -0.000329 0.010030 -0.004556 0.000000 0.000000 0.000000
# 3 0.001528 -0.004556 0.011256 0.000000 0.000000 0.000000
# 4 0.000000 0.000000 0.000000 0.030341 0.000000 0.000000
# 5 0.000000 0.000000 0.000000 0.000000 0.044393 0.000000
# 6 0.000000 0.000000 0.000000 0.000000 0.000000 0.244530
#
#
# Mechanical properties :
#
#
# Convention : Reuss Voigt Hill
#
# Bulk Modulus (GPa) = 34.92625 41.98066 38.45345
# Shear Modulus (GPa) = 13.48190 29.81749 21.64969
#
# Velocity S-wave (km/s) = 2.42633 3.60836 3.07468
# Velocity P-wave (km/s) = 4.80630 5.97426 5.42182
#
# Compressibility (1/GPa) = 0.02863176
#
# Stress axis : x y z
#
# Youngs Moduli (GPa) = 71.12833 99.69690 88.84191
#
# Poissons Ratio (x) = 0.03281 -0.13575
# Poissons Ratio (y) = 0.02341 0.40474
# Poissons Ratio (z) = -0.10869 0.45419
#
# Static dielectric constant tensor:
#      x y z
#    x 1.999100 0.000000 0.000000 
#    y 0.000000 1.860460 0.000000 
#    z 0.000000 0.000000 1.949550 
# 
# From -- ./inp_files/11263.got.cif
#   From: 2010.05.17/outbox.cif.g08.bks.cpg/sg73_6_cif.got.tgz:11263.got - 2010.06.03 17:35:07.
