data_PCOD9532602
_publ_section_title
;
Structure prediction by ZEFSAII (Michael W. Deem and Ramdas Pophale) SiO2 
 PCOD9532602
Probable space group: I B C A 
;
_chemical_formula_sum "Si O2"
_cell_formula_units_Z 48
_cell_length_a 18.287353
_cell_length_b 18.278199
_cell_length_c 5.551646
_cell_angle_alpha 90.000000
_cell_angle_beta 90.000000
_cell_angle_gamma 90.000000
_cell_volume 1855.692511
_symmetry_space_group_name_H-M "I B C A "
_symmetry_group_IT_number 73
_symmetry_cell_setting 'orthorhombic'
loop_
_space_group_symop_operation_xyz
x,y,z
-x,1/2-y,z
x,-y,1/2-z
1/2-x,y,-z
-x,-y,-z
x,1/2+y,-z
-x,y,1/2+z
1/2+x,-y,z
1/2+x,1/2+y,1/2+z
1/2-x,-y,1/2+z
1/2+x,1/2-y,-z
-x,1/2+y,1/2-z
1/2-x,1/2-y,1/2-z
1/2+x,y,1/2-z
1/2-x,1/2+y,z
x,1/2-y,1/2+z
loop_
_atom_site_type_symbol
_atom_site_label
_atom_site_fract_x
_atom_site_fract_y
_atom_site_fract_z
Si Si1 0.323345 0.417961 0.145024
Si Si2 0.475467 0.089331 0.384536
Si Si3 0.099660 0.206462 0.118893
O O1 0.322819 0.500000 0.250000
O O2 0.341477 0.359195 0.351571
O O3 0.250000 0.403573 0.000000
O O4 0.392232 0.408800 0.965567
O O5 0.517964 0.058423 0.617002
O O6 0.520502 0.166354 0.363239
O O7 0.108930 0.254796 0.361361
#
# Coordination Sequence:
#
# PCOD9532602 Si02
#       3
#    16  16  16
#     4  11  28  50  78 118 169 220 273 335 411 495
#     4  10  23  44  76 109 149 199 261 326 394 466
#     4  11  25  48  79 116 155 202 266 337 403 477
#
# _framework density 25.866354999999999
#
# number of rings (size 3 to 8) (size 9 to 14) (size 15 to 20)
#    0.000    1.333    0.000    4.000    0.000   30.667 
#    0.000    1.667    0.000    2.000    0.000    0.000 
#    0.000    0.000    0.000    0.000    0.000    0.000 
#
# Total GULP energy -134444.447855 kJ/mol
# GULP energy per Si atom -5601.851994 kJ/mol
# Density = 2.580748 g / cm^3
# Si number density = 25.866355 Si / 1000 Ang^3
#
#
#
# Elastic Constant Matrix: (Units=GPa)
#
#
# Indices 1 2 3 4 5 6 
#
# 1 178.6575 15.4166 32.6729 0.0000 0.0000 0.0000
# 2 15.4166 113.3982 71.9002 0.0000 0.0000 0.0000
# 3 32.6729 71.9002 214.3637 0.0000 0.0000 0.0000
# 4 0.0000 0.0000 0.0000 81.8718 0.0000 0.0000
# 5 0.0000 0.0000 0.0000 0.0000 47.6611 0.0000
# 6 0.0000 0.0000 0.0000 0.0000 0.0000 13.6351
#
#
#
# Elastic Compliance Matrix: (Units=1/GPa)
#
#
# Indices 1 2 3 4 5 6 
#
# 1 0.005765 -0.000288 -0.000782 0.000000 0.000000 0.000000
# 2 -0.000288 0.011215 -0.003718 0.000000 0.000000 0.000000
# 3 -0.000782 -0.003718 0.006031 0.000000 0.000000 0.000000
# 4 0.000000 0.000000 0.000000 0.012214 0.000000 0.000000
# 5 0.000000 0.000000 0.000000 0.000000 0.020981 0.000000
# 6 0.000000 0.000000 0.000000 0.000000 0.000000 0.073340
#
#
# Mechanical properties :
#
#
# Convention : Reuss Voigt Hill
#
# Bulk Modulus (GPa) = 74.42857 82.93319 78.68088
# Shear Modulus (GPa) = 34.81863 54.39556 44.60710
#
# Velocity S-wave (km/s) = 3.67290 4.59076 4.15724
# Velocity P-wave (km/s) = 6.84278 7.76092 7.31627
#
# Compressibility (1/GPa) = 0.01343570
#
# Stress axis : x y z
#
# Youngs Moduli (GPa) = 173.45499 89.16760 165.80573
#
# Poissons Ratio (x) = 0.02567 0.12969
# Poissons Ratio (y) = 0.04993 0.61642
# Poissons Ratio (z) = 0.13567 0.33150
#
# Static dielectric constant tensor:
#      x y z
#    x 1.940380 0.000000 0.000000 
#    y 0.000000 2.317160 0.000000 
#    z 0.000000 0.000000 2.016410 
# 
# From -- ./inp_files/953.got.cif
#   From: 2010.05.17/outbox.cif.g08.bks.cpg/sg73_1_cif.got.tgz:953.got - 2010.06.03 17:35:07.
