data_PCOD9532179
_publ_section_title
;
Structure prediction by ZEFSAII (Michael W. Deem and Ramdas Pophale) SiO2 
 PCOD9532179
Probable space group: I B C A 
;
_chemical_formula_sum "Si O2"
_cell_formula_units_Z 72
_cell_length_a 13.581774
_cell_length_b 18.071461
_cell_length_c 13.538156
_cell_angle_alpha 90.000000
_cell_angle_beta 90.000000
_cell_angle_gamma 90.000000
_cell_volume 3322.838843
_symmetry_space_group_name_H-M "I B C A "
_symmetry_group_IT_number 73
_symmetry_cell_setting 'orthorhombic'
loop_
_space_group_symop_operation_xyz
x,y,z
-x,1/2-y,z
x,-y,1/2-z
1/2-x,y,-z
-x,-y,-z
x,1/2+y,-z
-x,y,1/2+z
1/2+x,-y,z
1/2+x,1/2+y,1/2+z
1/2-x,-y,1/2+z
1/2+x,1/2-y,-z
-x,1/2+y,1/2-z
1/2-x,1/2-y,1/2-z
1/2+x,y,1/2-z
1/2-x,1/2+y,z
x,1/2-y,1/2+z
loop_
_atom_site_type_symbol
_atom_site_label
_atom_site_fract_x
_atom_site_fract_y
_atom_site_fract_z
Si Si1 0.250000 0.253393 0.500000
Si Si2 0.449397 0.075431 0.470422
Si Si3 0.631551 0.138688 0.369161
Si Si4 0.638589 0.647568 0.854290
Si Si5 0.231497 0.505964 0.356662
O O1 0.334696 0.303319 0.451670
O O2 0.210333 0.202511 0.411827
O O3 0.521724 0.110300 0.390197
O O4 0.444958 0.130902 0.564050
O O5 0.343642 0.046429 0.431158
O O6 0.500000 0.000000 0.500000
O O7 0.626918 0.171945 0.258560
O O8 0.713676 0.071899 0.378545
O O9 0.682685 0.565384 0.842040
O O10 0.178831 0.500000 0.250000
#
# Coordination Sequence:
#
# PCOD9532179 Si02
#       5
#     8  16  16  16  16
#     4  12  24  48  70  92 146 186 220 276 344 410
#     4  12  23  39  71 102 136 171 231 284 336 400
#     4  11  26  44  70 104 134 181 231 276 341 410
#     4  11  24  47  68  97 140 178 222 286 341 399
#     4  10  22  42  68  98 133 174 224 285 339 387
#
# _framework density 21.668220000000002
#
# number of rings (size 3 to 8) (size 9 to 14) (size 15 to 20)
#    0.000    0.889    4.444    2.000    3.111    0.889 
#    0.000    2.222    0.000    0.000    0.000    0.000 
#    0.000    0.000    0.000    0.000    0.000    0.000 
#
# Total GULP energy -200753.214185 kJ/mol
# GULP energy per Si atom -5576.478172 kJ/mol
# Density = 2.161890 g / cm^3
# Si number density = 21.668220 Si / 1000 Ang^3
#
#
#
# Elastic Constant Matrix: (Units=GPa)
#
#
# Indices 1 2 3 4 5 6 
#
# 1 65.2588 4.6604 29.6148 0.0000 0.0000 0.0000
# 2 4.6604 62.1996 13.6165 0.0000 0.0000 0.0000
# 3 29.6148 13.6165 139.8532 0.0000 0.0000 0.0000
# 4 0.0000 0.0000 0.0000 22.0365 0.0000 0.0000
# 5 0.0000 0.0000 0.0000 0.0000 25.8628 0.0000
# 6 0.0000 0.0000 0.0000 0.0000 0.0000 4.7447
#
#
#
# Elastic Compliance Matrix: (Units=1/GPa)
#
#
# Indices 1 2 3 4 5 6 
#
# 1 0.016968 -0.000495 -0.003545 0.000000 0.000000 0.000000
# 2 -0.000495 0.016442 -0.001496 0.000000 0.000000 0.000000
# 3 -0.003545 -0.001496 0.008047 0.000000 0.000000 0.000000
# 4 0.000000 0.000000 0.000000 0.045379 0.000000 0.000000
# 5 0.000000 0.000000 0.000000 0.000000 0.038666 0.000000
# 6 0.000000 0.000000 0.000000 0.000000 0.000000 0.210761
#
#
# Mechanical properties :
#
#
# Convention : Reuss Voigt Hill
#
# Bulk Modulus (GPa) = 32.91201 40.34391 36.62796
# Shear Modulus (GPa) = 13.98748 25.15680 19.57214
#
# Velocity S-wave (km/s) = 2.54348 3.41104 3.00870
# Velocity P-wave (km/s) = 4.88342 5.84576 5.38613
#
# Compressibility (1/GPa) = 0.03038405
#
# Stress axis : x y z
#
# Youngs Moduli (GPa) = 58.93586 60.82030 124.27564
#
# Poissons Ratio (x) = 0.03013 0.44053
# Poissons Ratio (y) = 0.02919 0.18591
# Poissons Ratio (z) = 0.20891 0.09098
#
# Static dielectric constant tensor:
#      x y z
#    x 1.815890 0.000000 0.000000 
#    y 0.000000 1.793520 0.000000 
#    z 0.000000 0.000000 1.920740 
# 
# From -- ./inp_files/16757.got.cif
#   From: 2010.05.17/outbox.cif.g08.bks.cpg/sg73_9_cif.got.tgz:16757.got - 2010.06.03 17:35:07.
