data_PCOD9532841
_publ_section_title
;
Structure prediction by ZEFSAII (Michael W. Deem and Ramdas Pophale) SiO2 
 PCOD9532841
Probable space group: I B C A 
;
_chemical_formula_sum "Si O2"
_cell_formula_units_Z 72
_cell_length_a 18.035735
_cell_length_b 8.820543
_cell_length_c 21.242112
_cell_angle_alpha 90.000000
_cell_angle_beta 90.000000
_cell_angle_gamma 90.000000
_cell_volume 3379.300880
_symmetry_space_group_name_H-M "I B C A "
_symmetry_group_IT_number 73
_symmetry_cell_setting 'orthorhombic'
loop_
_space_group_symop_operation_xyz
x,y,z
-x,1/2-y,z
x,-y,1/2-z
1/2-x,y,-z
-x,-y,-z
x,1/2+y,-z
-x,y,1/2+z
1/2+x,-y,z
1/2+x,1/2+y,1/2+z
1/2-x,-y,1/2+z
1/2+x,1/2-y,-z
-x,1/2+y,1/2-z
1/2-x,1/2-y,1/2-z
1/2+x,y,1/2-z
1/2-x,1/2+y,z
x,1/2-y,1/2+z
loop_
_atom_site_type_symbol
_atom_site_label
_atom_site_fract_x
_atom_site_fract_y
_atom_site_fract_z
Si Si1 0.203302 0.500000 0.750000
Si Si2 0.559977 0.000000 0.750000
Si Si3 0.929292 0.574398 0.461730
Si Si4 0.823761 0.295073 0.819861
Si Si5 0.500000 0.750000 0.153770
Si Si6 0.174306 0.792201 0.039831
O O1 0.163597 0.375452 0.793241
O O2 0.254234 0.612680 0.791329
O O3 0.608291 0.104662 0.703382
O O4 0.522445 0.116642 0.798109
O O5 0.948544 0.661217 0.396922
O O6 0.888719 0.694951 0.505691
O O7 0.866162 0.450833 0.449076
O O8 0.000000 0.500000 0.500000
O O9 0.810562 0.284441 0.893490
O O10 0.250000 0.805473 0.000000
#
# Coordination Sequence:
#
# PCOD9532841 Si02
#       6
#     8   8  16  16   8  16
#     4   9  22  43  68  98 142 197 227 304 372 457
#     4  11  28  45  74 108 140 207 265 318 376 461
#     4  12  26  51  75 108 152 201 248 319 390 460
#     4  10  24  44  69 102 149 187 251 300 387 450
#     4  12  28  50  76 106 152 196 274 312 388 474
#     4  12  28  44  77 114 149 194 251 318 389 462
#
# _framework density 21.306182
#
# number of rings (size 3 to 8) (size 9 to 14) (size 15 to 20)
#    0.000    0.889    2.222    2.000   12.444    1.778 
#    0.000    0.000    0.000    0.000    0.000    0.000 
#    0.000    0.000    0.000    0.000    0.000    0.000 
#
# Total GULP energy -200890.607772 kJ/mol
# GULP energy per Si atom -5580.294660 kJ/mol
# Density = 2.125769 g / cm^3
# Si number density = 21.306182 Si / 1000 Ang^3
#
#
#
# Elastic Constant Matrix: (Units=GPa)
#
#
# Indices 1 2 3 4 5 6 
#
# 1 87.2271 59.5699 68.4707 0.0000 0.0000 0.0000
# 2 59.5699 173.0274 79.9916 0.0000 0.0000 0.0000
# 3 68.4707 79.9916 190.4115 0.0000 0.0000 0.0000
# 4 0.0000 0.0000 0.0000 40.2077 0.0000 0.0000
# 5 0.0000 0.0000 0.0000 0.0000 39.2629 0.0000
# 6 0.0000 0.0000 0.0000 0.0000 0.0000 10.3533
#
#
#
# Elastic Compliance Matrix: (Units=1/GPa)
#
#
# Indices 1 2 3 4 5 6 
#
# 1 0.017921 -0.003960 -0.004781 0.000000 0.000000 0.000000
# 2 -0.003960 0.008047 -0.001957 0.000000 0.000000 0.000000
# 3 -0.004781 -0.001957 0.007793 0.000000 0.000000 0.000000
# 4 0.000000 0.000000 0.000000 0.024871 0.000000 0.000000
# 5 0.000000 0.000000 0.000000 0.000000 0.025469 0.000000
# 6 0.000000 0.000000 0.000000 0.000000 0.000000 0.096587
#
#
# Mechanical properties :
#
#
# Convention : Reuss Voigt Hill
#
# Bulk Modulus (GPa) = 80.86123 96.30339 88.58231
# Shear Modulus (GPa) = 24.24755 34.14037 29.19396
#
# Velocity S-wave (km/s) = 3.37716 4.00730 3.70565
# Velocity P-wave (km/s) = 7.29667 8.16757 7.74437
#
# Compressibility (1/GPa) = 0.01236687
#
# Stress axis : x y z
#
# Youngs Moduli (GPa) = 55.79901 124.26506 128.31985
#
# Poissons Ratio (x) = 0.49206 0.61349
# Poissons Ratio (y) = 0.22095 0.25109
# Poissons Ratio (z) = 0.26677 0.24316
#
# Static dielectric constant tensor:
#      x y z
#    x 1.800630 0.000000 0.000000 
#    y 0.000000 -2.520620 0.000000 
#    z 0.000000 0.000000 1.760590 
# 
# From -- ./inp_files/5372.got.cif
#   From: 2010.05.17/outbox.cif.g08.bks.cpg/sg73_3_cif.got.tgz:5372.got - 2010.06.03 17:35:07.
