data_PCOD9532920
_publ_section_title
;
Structure prediction by ZEFSAII (Michael W. Deem and Ramdas Pophale) SiO2 
 PCOD9532920
Probable space group: I B C A 
;
_chemical_formula_sum "Si O2"
_cell_formula_units_Z 80
_cell_length_a 20.021916
_cell_length_b 12.959795
_cell_length_c 14.188727
_cell_angle_alpha 90.000000
_cell_angle_beta 90.000000
_cell_angle_gamma 90.000000
_cell_volume 3681.689844
_symmetry_space_group_name_H-M "I B C A "
_symmetry_group_IT_number 73
_symmetry_cell_setting 'orthorhombic'
loop_
_space_group_symop_operation_xyz
x,y,z
-x,1/2-y,z
x,-y,1/2-z
1/2-x,y,-z
-x,-y,-z
x,1/2+y,-z
-x,y,1/2+z
1/2+x,-y,z
1/2+x,1/2+y,1/2+z
1/2-x,-y,1/2+z
1/2+x,1/2-y,-z
-x,1/2+y,1/2-z
1/2-x,1/2-y,1/2-z
1/2+x,y,1/2-z
1/2-x,1/2+y,z
x,1/2-y,1/2+z
loop_
_atom_site_type_symbol
_atom_site_label
_atom_site_fract_x
_atom_site_fract_y
_atom_site_fract_z
Si Si1 0.250000 0.828892 0.000000
Si Si2 0.849817 0.331709 0.054312
Si Si3 0.755393 0.989614 0.142578
Si Si4 0.571630 0.780641 0.230379
Si Si5 0.905803 0.095800 0.376353
Si Si6 0.013142 0.000000 0.250000
O O1 0.313169 0.754381 0.992349
O O2 0.255689 0.901435 0.090175
O O3 0.796058 0.416767 0.086602
O O4 0.874667 0.277118 0.148643
O O5 0.906563 0.381117 0.988020
O O6 0.830793 0.945501 0.141378
O O7 0.733552 0.000000 0.250000
O O8 0.500000 0.750000 0.188178
O O9 0.584039 0.700504 0.314991
O O10 0.560126 0.900111 0.255630
O O11 0.961247 0.015881 0.337374
#
# Coordination Sequence:
#
# PCOD9532920 Si02
#       6
#     8  16  16  16  16   8
#     4  12  24  42  68 108 144 174 244 284 368 444
#     4  12  26  43  69 110 138 181 243 291 366 426
#     4  12  25  43  70 105 139 192 225 295 369 429
#     4  10  26  44  67  99 139 189 240 291 347 423
#     4  11  22  47  69  97 148 176 235 297 353 419
#     4  10  24  46  70 102 134 198 240 276 358 412
#
# _framework density 21.729153
#
# number of rings (size 3 to 8) (size 9 to 14) (size 15 to 20)
#    0.000    0.800    5.000    1.200    7.000    4.800 
#    0.000    0.000    0.000    0.000    0.000    0.000 
#    0.000    0.000    0.000    0.000    0.000    0.000 
#
# Total GULP energy -223521.130901 kJ/mol
# GULP energy per Si atom -5588.028273 kJ/mol
# Density = 2.167970 g / cm^3
# Si number density = 21.729153 Si / 1000 Ang^3
#
#
#
# Elastic Constant Matrix: (Units=GPa)
#
#
# Indices 1 2 3 4 5 6 
#
# 1 56.8177 20.1314 10.9862 0.0000 0.0000 0.0000
# 2 20.1314 96.3232 21.4343 0.0000 0.0000 0.0000
# 3 10.9862 21.4343 98.2214 0.0000 0.0000 0.0000
# 4 0.0000 0.0000 0.0000 15.1463 0.0000 0.0000
# 5 0.0000 0.0000 0.0000 0.0000 21.4388 0.0000
# 6 0.0000 0.0000 0.0000 0.0000 0.0000 21.5505
#
#
#
# Elastic Compliance Matrix: (Units=1/GPa)
#
#
# Indices 1 2 3 4 5 6 
#
# 1 0.019173 -0.003710 -0.001335 0.000000 0.000000 0.000000
# 2 -0.003710 0.011629 -0.002123 0.000000 0.000000 0.000000
# 3 -0.001335 -0.002123 0.010794 0.000000 0.000000 0.000000
# 4 0.000000 0.000000 0.000000 0.066023 0.000000 0.000000
# 5 0.000000 0.000000 0.000000 0.000000 0.046644 0.000000
# 6 0.000000 0.000000 0.000000 0.000000 0.000000 0.046403
#
#
# Mechanical properties :
#
#
# Convention : Reuss Voigt Hill
#
# Bulk Modulus (GPa) = 36.68329 39.60735 38.14532
# Shear Modulus (GPa) = 22.31265 24.88115 23.59690
#
# Velocity S-wave (km/s) = 3.20793 3.38754 3.29896
# Velocity P-wave (km/s) = 5.53532 5.79378 5.66603
#
# Compressibility (1/GPa) = 0.02726037
#
# Stress axis : x y z
#
# Youngs Moduli (GPa) = 52.15729 85.98827 92.64708
#
# Poissons Ratio (x) = 0.31902 0.12367
# Poissons Ratio (y) = 0.19351 0.19668
# Poissons Ratio (z) = 0.06962 0.18254
#
# Static dielectric constant tensor:
#      x y z
#    x 1.773880 0.000000 0.000000 
#    y 0.000000 1.838660 0.000000 
#    z 0.000000 0.000000 1.791120 
# 
# From -- ./inp_files/19206.got.cif
#   From: 2010.05.17/outbox.cif.g08.bks.cpg/sg73_10_cif.got.tgz:19206.got - 2010.06.03 17:35:07.
