data_PCOD9532109
_publ_section_title
;
Structure prediction by ZEFSAII (Michael W. Deem and Ramdas Pophale) SiO2 
 PCOD9532109
Probable space group: I B C A 
;
_chemical_formula_sum "Si O2"
_cell_formula_units_Z 120
_cell_length_a 17.099801
_cell_length_b 24.412354
_cell_length_c 13.031184
_cell_angle_alpha 90.000000
_cell_angle_beta 90.000000
_cell_angle_gamma 90.000000
_cell_volume 5439.820788
_symmetry_space_group_name_H-M "I B C A "
_symmetry_group_IT_number 73
_symmetry_cell_setting 'orthorhombic'
loop_
_space_group_symop_operation_xyz
x,y,z
-x,1/2-y,z
x,-y,1/2-z
1/2-x,y,-z
-x,-y,-z
x,1/2+y,-z
-x,y,1/2+z
1/2+x,-y,z
1/2+x,1/2+y,1/2+z
1/2-x,-y,1/2+z
1/2+x,1/2-y,-z
-x,1/2+y,1/2-z
1/2-x,1/2-y,1/2-z
1/2+x,y,1/2-z
1/2-x,1/2+y,z
x,1/2-y,1/2+z
loop_
_atom_site_type_symbol
_atom_site_label
_atom_site_fract_x
_atom_site_fract_y
_atom_site_fract_z
Si Si1 0.168729 0.310582 0.522600
Si Si2 0.409721 0.234000 0.784859
Si Si3 0.616645 0.846245 0.800879
Si Si4 0.250000 0.007189 0.500000
Si Si5 0.657111 0.054230 0.818238
Si Si6 0.362422 0.919261 0.604368
Si Si7 0.065835 0.880416 0.193851
Si Si8 0.024916 0.563175 0.484299
O O1 0.250000 0.280267 0.500000
O O2 0.110368 0.280236 0.598388
O O3 0.130594 0.328900 0.417081
O O4 0.189833 0.365841 0.585480
O O5 0.500000 0.250000 0.772986
O O6 0.366122 0.289876 0.757889
O O7 0.396580 0.180034 0.713921
O O8 0.669258 0.895356 0.757858
O O9 0.527073 0.868206 0.787774
O O10 0.318098 0.969156 0.549545
O O11 0.278596 0.042724 0.404348
O O12 0.647547 0.000000 0.750000
O O13 0.580978 0.065129 0.886940
O O14 0.392081 0.919947 0.722236
O O15 0.443422 0.908501 0.543918
O O16 0.065637 0.908988 0.082609
O O17 0.000000 0.500000 0.500000
#
# Coordination Sequence:
#
# PCOD9532109 Si02
#       8
#    16  16  16   8  16  16  16  16
#     4  11  23  42  69  99 136 191 227 280 365 432
#     4   9  23  43  70 105 136 178 240 297 353 421
#     4  11  22  44  70  96 141 179 228 299 350 415
#     4  12  26  46  64  98 138 192 228 290 358 444
#     4  12  27  45  67  99 139 181 232 292 357 417
#     4  11  22  41  69  97 139 182 235 280 354 421
#     4  10  22  41  69 106 132 180 235 295 347 428
#     4  12  23  40  69  99 135 180 234 289 348 417
#
# _framework density 22.059549000000001
#
# number of rings (size 3 to 8) (size 9 to 14) (size 15 to 20)
#    0.000    1.067    4.667    1.600    0.000    4.267 
#    3.600    0.000    0.000    0.000    0.000    0.000 
#    0.000    0.000    0.000    0.000    0.000    0.000 
#
# Total GULP energy -334984.871600 kJ/mol
# GULP energy per Si atom -5583.081193 kJ/mol
# Density = 2.200934 g / cm^3
# Si number density = 22.059549 Si / 1000 Ang^3
#
#
#
# Elastic Constant Matrix: (Units=GPa)
#
#
# Indices 1 2 3 4 5 6 
#
# 1 41.2636 10.4694 23.9160 0.0000 0.0000 0.0000
# 2 10.4694 122.3202 88.4299 0.0000 0.0000 0.0000
# 3 23.9160 88.4299 169.9306 0.0000 0.0000 0.0000
# 4 0.0000 0.0000 0.0000 50.0466 0.0000 0.0000
# 5 0.0000 0.0000 0.0000 0.0000 25.0256 0.0000
# 6 0.0000 0.0000 0.0000 0.0000 0.0000 -0.2179
#
#
#
# Elastic Compliance Matrix: (Units=1/GPa)
#
#
# Indices 1 2 3 4 5 6 
#
# 1 0.026423 0.000684 -0.004075 0.000000 0.000000 0.000000
# 2 0.000684 0.013124 -0.006926 0.000000 0.000000 0.000001
# 3 -0.004075 -0.006926 0.010062 0.000000 0.000000 -0.000001
# 4 0.000000 0.000000 0.000000 0.019981 0.000000 0.000000
# 5 0.000000 0.000000 0.000000 0.000000 0.039959 -0.000001
# 6 0.000000 0.000001 -0.000001 0.000000 -0.000001 -4.590030
#
#
# Mechanical properties :
#
#
# Convention : Reuss Voigt Hill
#
# Bulk Modulus (GPa) = 34.51127 64.34946 49.43036
# Shear Modulus (GPa) = -1.12355 29.01748 13.94697
#
# Velocity S-wave (km/s) = -0.71444 3.63080 2.51717
# Velocity P-wave (km/s) = 3.87272 6.84186 5.55918
#
# Compressibility (1/GPa) = 0.02897604
#
# Stress axis : x y z
#
# Youngs Moduli (GPa) = 37.84652 76.19918 99.38118
#
# Poissons Ratio (x) = -0.05215 0.40496
# Poissons Ratio (y) = -0.02590 0.68828
# Poissons Ratio (z) = 0.15422 0.52773
#
# Static dielectric constant tensor:
#      x y z
#    x 1.855940 0.000000 0.000000 
#    y 0.000000 1.840140 0.000000 
#    z 0.000000 0.000000 1.933110 
# 
# From -- ./inp_files/12253.got.cif
#   From: 2010.05.17/outbox.cif.g08.bks.cpg/sg73_7_cif.got.tgz:12253.got - 2010.06.03 17:35:07.
