data_PCOD9532853
_publ_section_title
;
Structure prediction by ZEFSAII (Michael W. Deem and Ramdas Pophale) SiO2 
 PCOD9532853
Probable space group: I B C A 
;
_chemical_formula_sum "Si O2"
_cell_formula_units_Z 112
_cell_length_a 14.185300
_cell_length_b 23.932869
_cell_length_c 14.754921
_cell_angle_alpha 90.000000
_cell_angle_beta 90.000000
_cell_angle_gamma 90.000000
_cell_volume 5009.220822
_symmetry_space_group_name_H-M "I B C A "
_symmetry_group_IT_number 73
_symmetry_cell_setting 'orthorhombic'
loop_
_space_group_symop_operation_xyz
x,y,z
-x,1/2-y,z
x,-y,1/2-z
1/2-x,y,-z
-x,-y,-z
x,1/2+y,-z
-x,y,1/2+z
1/2+x,-y,z
1/2+x,1/2+y,1/2+z
1/2-x,-y,1/2+z
1/2+x,1/2-y,-z
-x,1/2+y,1/2-z
1/2-x,1/2-y,1/2-z
1/2+x,y,1/2-z
1/2-x,1/2+y,z
x,1/2-y,1/2+z
loop_
_atom_site_type_symbol
_atom_site_label
_atom_site_fract_x
_atom_site_fract_y
_atom_site_fract_z
Si Si1 0.092375 0.500000 0.250000
Si Si2 0.262158 0.800453 0.618243
Si Si3 0.436737 0.373437 0.802921
Si Si4 0.576177 0.537972 0.447889
Si Si5 0.535789 0.194435 0.445159
Si Si6 0.529566 0.853605 0.377274
Si Si7 0.728576 0.822509 0.327789
Si Si8 0.250000 0.900577 0.500000
O O1 0.052118 0.438372 0.224065
O O2 0.125889 0.485806 0.354815
O O3 0.353316 0.799276 0.554272
O O4 0.289834 0.809630 0.722357
O O5 0.223659 0.737210 0.620143
O O6 0.220987 0.859995 0.584482
O O7 0.502561 0.357881 0.886800
O O8 0.474781 0.339631 0.715489
O O9 0.330769 0.352942 0.829094
O O10 0.500000 0.500000 0.500000
O O11 0.514131 0.589673 0.414137
O O12 0.659116 0.560553 0.512792
O O13 0.500000 0.250000 0.396370
O O14 0.491604 0.189947 0.543611
O O15 0.640944 0.858459 0.361857
#
# Coordination Sequence:
#
# PCOD9532853 Si02
#       8
#     8  16  16  16  16  16  16   8
#     4  10  24  44  72 100 138 190 248 304 366 440
#     4  11  24  43  66 106 139 190 232 294 372 449
#     4  11  24  47  65 104 142 187 248 308 367 434
#     4  11  25  47  73 105 140 190 245 312 373 441
#     4  12  24  41  70  99 142 188 236 298 362 448
#     4  11  25  44  68 103 140 191 239 294 365 443
#     4  11  25  42  70 101 148 185 240 298 363 445
#     4  12  26  46  74 104 144 190 250 306 380 466
#
# _framework density 22.358765999999999
#
# number of rings (size 3 to 8) (size 9 to 14) (size 15 to 20)
#    0.000    0.857    4.286    2.571    2.000    3.429 
#    0.000    3.571    0.000    0.000    0.000    0.000 
#    0.000    0.000    0.000    0.000    0.000    0.000 
#
# Total GULP energy -311982.460610 kJ/mol
# GULP energy per Si atom -5571.115368 kJ/mol
# Density = 2.230788 g / cm^3
# Si number density = 22.358766 Si / 1000 Ang^3
#
#
#
# Elastic Constant Matrix: (Units=GPa)
#
#
# Indices 1 2 3 4 5 6 
#
# 1 117.0295 36.5591 19.7167 0.0000 0.0000 0.0000
# 2 36.5591 102.8956 33.7687 -0.0001 0.0000 0.0000
# 3 19.7167 33.7687 106.6138 -0.0001 0.0000 0.0000
# 4 0.0000 -0.0001 -0.0001 19.4237 0.0000 0.0000
# 5 0.0000 0.0000 0.0000 0.0000 19.8047 0.0000
# 6 0.0000 0.0000 0.0000 0.0000 0.0000 28.6992
#
#
#
# Elastic Compliance Matrix: (Units=1/GPa)
#
#
# Indices 1 2 3 4 5 6 
#
# 1 0.009670 -0.003179 -0.000781 0.000000 0.000000 0.000000
# 2 -0.003179 0.011891 -0.003178 0.000000 0.000000 0.000000
# 3 -0.000781 -0.003178 0.010531 0.000000 0.000000 0.000000
# 4 0.000000 0.000000 0.000000 0.051484 0.000000 0.000000
# 5 0.000000 0.000000 0.000000 0.000000 0.050493 0.000000
# 6 0.000000 0.000000 0.000000 0.000000 0.000000 0.034844
#
#
# Mechanical properties :
#
#
# Convention : Reuss Voigt Hill
#
# Bulk Modulus (GPa) = 56.13614 56.29199 56.21407
# Shear Modulus (GPa) = 26.43705 29.35182 27.89443
#
# Velocity S-wave (km/s) = 3.44234 3.62714 3.53595
# Velocity P-wave (km/s) = 6.40008 6.54010 6.47047
#
# Compressibility (1/GPa) = 0.01781384
#
# Stress axis : x y z
#
# Youngs Moduli (GPa) = 103.41629 84.09502 94.95881
#
# Poissons Ratio (x) = 0.26736 0.07419
# Poissons Ratio (y) = 0.32879 0.30182
# Poissons Ratio (z) = 0.08080 0.26729
#
# Static dielectric constant tensor:
#      x y z
#    x 4.451100 0.000000 0.000000 
#    y 0.000000 1.898740 0.000000 
#    z 0.000000 0.000000 1.888700 
# 
# From -- ./inp_files/17294.got.cif
#   From: 2010.05.17/outbox.cif.g08.bks.cpg/sg73_9_cif.got.tgz:17294.got - 2010.06.03 17:35:07.
