data_PCOD9532574
_publ_section_title
;
Structure prediction by ZEFSAII (Michael W. Deem and Ramdas Pophale) SiO2 
 PCOD9532574
Probable space group: I B C A 
;
_chemical_formula_sum "Si O2"
_cell_formula_units_Z 56
_cell_length_a 9.704686
_cell_length_b 21.561030
_cell_length_c 10.375398
_cell_angle_alpha 90.000000
_cell_angle_beta 90.000000
_cell_angle_gamma 90.000000
_cell_volume 2170.979673
_symmetry_space_group_name_H-M "I B C A "
_symmetry_group_IT_number 73
_symmetry_cell_setting 'orthorhombic'
loop_
_space_group_symop_operation_xyz
x,y,z
-x,1/2-y,z
x,-y,1/2-z
1/2-x,y,-z
-x,-y,-z
x,1/2+y,-z
-x,y,1/2+z
1/2+x,-y,z
1/2+x,1/2+y,1/2+z
1/2-x,-y,1/2+z
1/2+x,1/2-y,-z
-x,1/2+y,1/2-z
1/2-x,1/2-y,1/2-z
1/2+x,y,1/2-z
1/2-x,1/2+y,z
x,1/2-y,1/2+z
loop_
_atom_site_type_symbol
_atom_site_label
_atom_site_fract_x
_atom_site_fract_y
_atom_site_fract_z
Si Si1 0.854821 0.108021 0.753223
Si Si2 0.250000 0.532009 0.500000
Si Si3 0.094557 0.080453 0.900410
Si Si4 0.093491 0.808553 0.050542
O O1 0.745366 0.104798 0.641069
O O2 0.884604 0.178366 0.796619
O O3 0.004073 0.076278 0.768027
O O4 0.781617 0.072551 0.874564
O O5 0.371647 0.484632 0.535773
O O6 0.003038 0.130556 0.981221
O O7 0.000000 0.750000 0.022597
O O8 0.250000 0.804642 0.000000
#
# Coordination Sequence:
#
# PCOD9532574 Si02
#       4
#    16   8  16  16
#     4  10  23  44  66 105 141 180 230 282 347 410
#     4  12  22  42  74 102 144 184 228 286 344 414
#     4  10  25  42  69 103 140 183 229 286 342 415
#     4  10  24  47  70 100 134 184 235 287 343 414
#
# _framework density 25.794806999999999
#
# number of rings (size 3 to 8) (size 9 to 14) (size 15 to 20)
#    1.714    0.000    1.429    1.714    2.000   10.286 
#    0.000    0.000    0.000    0.000    0.000    0.000 
#    0.000    0.000    0.000    0.000    0.000    0.000 
#
# Total GULP energy -155892.961319 kJ/mol
# GULP energy per Si atom -5567.605761 kJ/mol
# Density = 2.573610 g / cm^3
# Si number density = 25.794807 Si / 1000 Ang^3
#
#
#
# Elastic Constant Matrix: (Units=GPa)
#
#
# Indices 1 2 3 4 5 6 
#
# 1 237.1209 67.6725 43.7080 -0.0002 -0.0001 0.0000
# 2 67.6725 123.0454 19.5513 -0.0004 0.0001 0.0001
# 3 43.7080 19.5513 69.8002 -0.0007 -0.0001 0.0002
# 4 -0.0002 -0.0004 -0.0007 14.7506 0.0001 0.0001
# 5 -0.0001 0.0001 -0.0001 0.0001 49.5513 -0.0001
# 6 0.0000 0.0001 0.0002 0.0001 -0.0001 49.3779
#
#
#
# Elastic Compliance Matrix: (Units=1/GPa)
#
#
# Indices 1 2 3 4 5 6 
#
# 1 0.005446 -0.002568 -0.002691 0.000000 0.000000 0.000000
# 2 -0.002568 0.009716 -0.001114 0.000000 0.000000 0.000000
# 3 -0.002691 -0.001114 0.016324 0.000001 0.000000 0.000000
# 4 0.000000 0.000000 0.000001 0.067794 0.000000 0.000000
# 5 0.000000 0.000000 0.000000 0.000000 0.020181 0.000000
# 6 0.000000 0.000000 0.000000 0.000000 0.000000 0.020252
#
#
# Mechanical properties :
#
#
# Convention : Reuss Voigt Hill
#
# Bulk Modulus (GPa) = 53.35864 76.87001 65.11433
# Shear Modulus (GPa) = 31.50506 42.67160 37.08833
#
# Velocity S-wave (km/s) = 3.49860 4.07169 3.79598
# Velocity P-wave (km/s) = 6.08696 7.20903 6.67162
#
# Compressibility (1/GPa) = 0.01874111
#
# Stress axis : x y z
#
# Youngs Moduli (GPa) = 183.61830 102.92095 61.26072
#
# Poissons Ratio (x) = 0.26426 0.16486
# Poissons Ratio (y) = 0.47147 0.06823
# Poissons Ratio (z) = 0.49413 0.11463
#
# Static dielectric constant tensor:
#      x y z
#    x 2.090750 0.000000 0.000000 
#    y 0.000000 2.032780 0.000000 
#    z 0.000000 0.000000 2.237640 
# 
# From -- ./inp_files/4604.got.cif
#   From: 2010.05.17/outbox.cif.g08.bks.cpg/sg73_3_cif.got.tgz:4604.got - 2010.06.03 17:35:07.
