data_PCOD9532830
_publ_section_title
;
Structure prediction by ZEFSAII (Michael W. Deem and Ramdas Pophale) SiO2 
 PCOD9532830
Probable space group: I B C A 
;
_chemical_formula_sum "Si O2"
_cell_formula_units_Z 88
_cell_length_a 27.188743
_cell_length_b 7.982232
_cell_length_c 17.767162
_cell_angle_alpha 90.000000
_cell_angle_beta 90.000000
_cell_angle_gamma 90.000000
_cell_volume 3855.951281
_symmetry_space_group_name_H-M "I B C A "
_symmetry_group_IT_number 73
_symmetry_cell_setting 'orthorhombic'
loop_
_space_group_symop_operation_xyz
x,y,z
-x,1/2-y,z
x,-y,1/2-z
1/2-x,y,-z
-x,-y,-z
x,1/2+y,-z
-x,y,1/2+z
1/2+x,-y,z
1/2+x,1/2+y,1/2+z
1/2-x,-y,1/2+z
1/2+x,1/2-y,-z
-x,1/2+y,1/2-z
1/2-x,1/2-y,1/2-z
1/2+x,y,1/2-z
1/2-x,1/2+y,z
x,1/2-y,1/2+z
loop_
_atom_site_type_symbol
_atom_site_label
_atom_site_fract_x
_atom_site_fract_y
_atom_site_fract_z
Si Si1 0.877655 0.147896 0.691206
Si Si2 0.945227 0.225853 0.563542
Si Si3 0.421545 0.500000 0.750000
Si Si4 0.686649 0.864258 0.928939
Si Si5 0.577479 0.591196 0.407841
Si Si6 0.709743 0.750793 0.097644
O O1 0.913282 0.112967 0.619405
O O2 0.892209 0.334123 0.722171
O O3 0.822188 0.163143 0.661838
O O4 0.884100 0.000000 0.750000
O O5 0.916175 0.400350 0.564160
O O6 0.950235 0.170136 0.477742
O O7 0.000000 0.250000 0.594821
O O8 0.447031 0.429976 0.674047
O O9 0.631345 0.825220 0.903026
O O10 0.731756 0.764300 0.892662
O O11 0.696187 0.057033 0.909608
O O12 0.693590 0.835431 0.018310
#
# Coordination Sequence:
#
# PCOD9532830 Si02
#       6
#    16  16   8  16  16  16
#     4  11  25  47  71 102 148 188 232 301 372 428
#     4  11  24  45  73 106 132 183 249 290 363 450
#     4  10  24  44  68 100 144 186 226 292 370 426
#     4  11  20  38  66  94 135 174 242 288 342 433
#     4  11  22  44  68  95 142 178 227 308 357 419
#     4  11  22  39  64 104 128 188 237 283 360 429
#
# _framework density 22.821864000000001
#
# number of rings (size 3 to 8) (size 9 to 14) (size 15 to 20)
#    0.000    1.091    5.455    2.727    2.545    2.909 
#    8.182    2.727    0.000    0.000    0.000    0.000 
#    0.000    0.000    0.000    0.000    0.000    0.000 
#
# Total GULP energy -245719.100803 kJ/mol
# GULP energy per Si atom -5584.525018 kJ/mol
# Density = 2.276992 g / cm^3
# Si number density = 22.821864 Si / 1000 Ang^3
#
#
#
# Elastic Constant Matrix: (Units=GPa)
#
#
# Indices 1 2 3 4 5 6 
#
# 1 72.9891 17.4771 -1.3575 0.0000 0.0000 0.0000
# 2 17.4771 47.9669 28.3156 0.0000 0.0000 0.0000
# 3 -1.3575 28.3156 118.3654 0.0000 0.0000 0.0000
# 4 0.0000 0.0000 0.0000 -148.1401 0.0000 0.0000
# 5 0.0000 0.0000 0.0000 0.0000 25.7000 0.0000
# 6 0.0000 0.0000 0.0000 0.0000 0.0000 17.5629
#
#
#
# Elastic Compliance Matrix: (Units=1/GPa)
#
#
# Indices 1 2 3 4 5 6 
#
# 1 0.015319 -0.006620 0.001759 0.000000 0.000000 0.000000
# 2 -0.006620 0.027137 -0.006568 0.000000 0.000000 0.000000
# 3 0.001759 -0.006568 0.010040 0.000000 0.000000 0.000000
# 4 0.000000 0.000000 0.000000 -0.006750 0.000000 0.000000
# 5 0.000000 0.000000 0.000000 0.000000 0.038911 0.000000
# 6 0.000000 0.000000 0.000000 0.000000 0.000000 0.056938
#
#
# Mechanical properties :
#
#
# Convention : Reuss Voigt Hill
#
# Bulk Modulus (GPa) = 33.74000 36.46577 35.10289
# Shear Modulus (GPa) = 28.68133 -7.98304 10.34914
#
# Velocity S-wave (km/s) = 3.54891 -1.87232 2.13181
# Velocity P-wave (km/s) = 5.62220 3.36735 4.63402
#
# Compressibility (1/GPa) = 0.02963841
#
# Stress axis : x y z
#
# Youngs Moduli (GPa) = 65.28035 36.85035 99.60437
#
# Poissons Ratio (x) = 0.24395 -0.17524
# Poissons Ratio (y) = 0.43216 0.65417
# Poissons Ratio (z) = -0.11485 0.24202
#
# Static dielectric constant tensor:
#      x y z
#    x 1.860370 0.000000 0.000000 
#    y 0.000000 1.872550 0.000000 
#    z 0.000000 0.000000 1.889000 
# 
# From -- ./inp_files/20855.got.cif
#   From: 2010.05.17/outbox.cif.g08.bks.cpg/sg73_11_cif.got.tgz:20855.got - 2010.06.03 17:35:07.
