data_PCOD9532916
_publ_section_title
;
Structure prediction by ZEFSAII (Michael W. Deem and Ramdas Pophale) SiO2 
 PCOD9532916
Probable space group: I B C A 
;
_chemical_formula_sum "Si O2"
_cell_formula_units_Z 48
_cell_length_a 18.911589
_cell_length_b 8.418880
_cell_length_c 11.512947
_cell_angle_alpha 90.000000
_cell_angle_beta 90.000000
_cell_angle_gamma 90.000000
_cell_volume 1833.026930
_symmetry_space_group_name_H-M "I B C A "
_symmetry_group_IT_number 73
_symmetry_cell_setting 'orthorhombic'
loop_
_space_group_symop_operation_xyz
x,y,z
-x,1/2-y,z
x,-y,1/2-z
1/2-x,y,-z
-x,-y,-z
x,1/2+y,-z
-x,y,1/2+z
1/2+x,-y,z
1/2+x,1/2+y,1/2+z
1/2-x,-y,1/2+z
1/2+x,1/2-y,-z
-x,1/2+y,1/2-z
1/2-x,1/2-y,1/2-z
1/2+x,y,1/2-z
1/2-x,1/2+y,z
x,1/2-y,1/2+z
loop_
_atom_site_type_symbol
_atom_site_label
_atom_site_fract_x
_atom_site_fract_y
_atom_site_fract_z
Si Si1 0.668945 0.530305 0.494386
Si Si2 0.323873 0.299853 0.815607
Si Si3 0.557904 0.129744 0.161563
O O1 0.750000 0.471353 0.500000
O O2 0.660110 0.478801 0.360881
O O3 0.674155 0.697503 0.562323
O O4 0.603812 0.451820 0.562109
O O5 0.250000 0.250000 0.750000
O O6 0.385404 0.224217 0.738898
O O7 0.500000 0.250000 0.114311
O O8 0.525902 0.000000 0.250000
#
# Coordination Sequence:
#
# PCOD9532916 Si02
#       3
#    16  16  16
#     4  11  23  43  72 104 142 186 245 300 356 428
#     4  11  24  45  72 106 143 188 245 303 361 429
#     4  10  24  46  69 104 149 194 240 294 369 438
#
# _framework density 26.186195000000001
#
# number of rings (size 3 to 8) (size 9 to 14) (size 15 to 20)
#    0.000    1.333    3.333    1.000    0.000    4.000 
#    0.000    6.667    0.000    0.000    0.000    0.000 
#    0.000    0.000    0.000    0.000    0.000    0.000 
#
# Total GULP energy -133954.652847 kJ/mol
# GULP energy per Si atom -5581.443869 kJ/mol
# Density = 2.612659 g / cm^3
# Si number density = 26.186195 Si / 1000 Ang^3
#
#
#
# Elastic Constant Matrix: (Units=GPa)
#
#
# Indices 1 2 3 4 5 6 
#
# 1 101.4983 30.9016 -6.1663 0.0000 0.0000 0.0000
# 2 30.9016 73.1302 7.3968 0.0000 0.0000 0.0000
# 3 -6.1663 7.3968 128.1559 0.0000 0.0000 0.0000
# 4 0.0000 0.0000 0.0000 25.7899 0.0000 0.0000
# 5 0.0000 0.0000 0.0000 0.0000 23.5406 0.0000
# 6 0.0000 0.0000 0.0000 0.0000 0.0000 694.6401
#
#
#
# Elastic Compliance Matrix: (Units=1/GPa)
#
#
# Indices 1 2 3 4 5 6 
#
# 1 0.011394 -0.004899 0.000831 0.000000 0.000000 0.000000
# 2 -0.004899 0.015861 -0.001151 0.000000 0.000000 0.000000
# 3 0.000831 -0.001151 0.007909 0.000000 0.000000 0.000000
# 4 0.000000 0.000000 0.000000 0.038775 0.000000 0.000000
# 5 0.000000 0.000000 0.000000 0.000000 0.042480 0.000000
# 6 0.000000 0.000000 0.000000 0.000000 0.000000 0.001440
#
#
# Mechanical properties :
#
#
# Convention : Reuss Voigt Hill
#
# Bulk Modulus (GPa) = 40.44236 40.78317 40.61276
# Shear Modulus (GPa) = 36.61965 166.83762 101.72864
#
# Velocity S-wave (km/s) = 3.74362 7.99064 6.23959
# Velocity P-wave (km/s) = 5.84499 10.03703 8.21297
#
# Compressibility (1/GPa) = 0.02472655
#
# Stress axis : x y z
#
# Youngs Moduli (GPa) = 87.76303 63.04899 126.43152
#
# Poissons Ratio (x) = 0.30886 -0.10506
# Poissons Ratio (y) = 0.42993 0.14554
# Poissons Ratio (z) = -0.07293 0.07258
#
# Static dielectric constant tensor:
#      x y z
#    x 2.054660 0.000000 0.000000 
#    y 0.000000 2.292880 0.000000 
#    z 0.000000 0.000000 4.579920 
# 
# From -- ./inp_files/11394.got.cif
#   From: 2010.05.17/outbox.cif.g08.bks.cpg/sg73_6_cif.got.tgz:11394.got - 2010.06.03 17:35:07.
