data_PCOD9532486
_publ_section_title
;
Structure prediction by ZEFSAII (Michael W. Deem and Ramdas Pophale) SiO2 
 PCOD9532486
Probable space group: I B C A 
;
_chemical_formula_sum "Si O2"
_cell_formula_units_Z 112
_cell_length_a 14.087123
_cell_length_b 13.845240
_cell_length_c 25.182624
_cell_angle_alpha 90.000000
_cell_angle_beta 90.000000
_cell_angle_gamma 90.000000
_cell_volume 4911.608883
_symmetry_space_group_name_H-M "I B C A "
_symmetry_group_IT_number 73
_symmetry_cell_setting 'orthorhombic'
loop_
_space_group_symop_operation_xyz
x,y,z
-x,1/2-y,z
x,-y,1/2-z
1/2-x,y,-z
-x,-y,-z
x,1/2+y,-z
-x,y,1/2+z
1/2+x,-y,z
1/2+x,1/2+y,1/2+z
1/2-x,-y,1/2+z
1/2+x,1/2-y,-z
-x,1/2+y,1/2-z
1/2-x,1/2-y,1/2-z
1/2+x,y,1/2-z
1/2-x,1/2+y,z
x,1/2-y,1/2+z
loop_
_atom_site_type_symbol
_atom_site_label
_atom_site_fract_x
_atom_site_fract_y
_atom_site_fract_z
Si Si1 0.628895 0.950818 0.842123
Si Si2 0.552272 0.355659 0.703875
Si Si3 0.806829 0.840214 0.801253
Si Si4 0.441348 0.334951 0.392661
Si Si5 0.248442 0.646553 0.342914
Si Si6 0.180252 0.203742 0.543262
Si Si7 0.069638 0.483077 0.050132
O O1 0.528940 0.931805 0.812588
O O2 0.702387 0.882856 0.809957
O O3 0.683326 0.052808 0.837015
O O4 0.613729 0.939371 0.907282
O O5 0.500000 0.250000 0.704428
O O6 0.616668 0.370328 0.756857
O O7 0.638928 0.363899 0.662158
O O8 0.857634 0.869534 0.856139
O O9 0.790962 0.725069 0.801408
O O10 0.500000 0.250000 0.363135
O O11 0.401863 0.280445 0.444619
O O12 0.508547 0.420335 0.408375
O O13 0.229605 0.690386 0.400387
O O14 0.250000 0.243176 0.500000
O O15 0.145046 0.096003 0.528960
O O16 0.000000 0.500000 0.000000
#
# Coordination Sequence:
#
# PCOD9532486 Si02
#       7
#    16  16  16  16  16  16  16
#     4  11  27  47  69 113 140 189 250 295 371 445
#     4  12  26  49  74 103 143 195 245 310 366 436
#     4  11  24  49  71 100 149 186 239 304 363 435
#     4   9  20  42  64  93 129 183 230 282 357 427
#     4  10  24  48  69 103 152 179 243 308 363 442
#     4   9  20  39  68  98 133 184 234 299 362 433
#     4  10  23  41  66  99 142 181 233 298 364 435
#
# _framework density 22.803118999999999
#
# number of rings (size 3 to 8) (size 9 to 14) (size 15 to 20)
#    0.000    1.714    1.429    1.714    4.000    4.000 
#    5.143    0.000    0.000    0.000    0.000    0.000 
#    0.000    0.000    0.000    0.000    0.000    0.000 
#
# Total GULP energy -312222.634911 kJ/mol
# GULP energy per Si atom -5575.404195 kJ/mol
# Density = 2.275122 g / cm^3
# Si number density = 22.803119 Si / 1000 Ang^3
#
#
#
# Elastic Constant Matrix: (Units=GPa)
#
#
# Indices 1 2 3 4 5 6 
#
# 1 163.7996 29.2068 37.1107 0.0000 0.0000 0.0000
# 2 29.2068 54.4685 25.8455 0.0000 0.0000 0.0000
# 3 37.1107 25.8455 70.7586 0.0000 0.0000 0.0000
# 4 0.0000 0.0000 0.0000 -2.9367 0.0000 0.0000
# 5 0.0000 0.0000 0.0000 0.0000 48.7985 0.0000
# 6 0.0000 0.0000 0.0000 0.0000 0.0000 32.2241
#
#
#
# Elastic Compliance Matrix: (Units=1/GPa)
#
#
# Indices 1 2 3 4 5 6 
#
# 1 0.007200 -0.002503 -0.002862 0.000000 0.000000 0.000000
# 2 -0.002503 0.023078 -0.007117 0.000000 0.000000 0.000000
# 3 -0.002862 -0.007117 0.018233 0.000000 0.000000 0.000000
# 4 0.000000 0.000000 0.000000 -0.340521 0.000000 0.000000
# 5 0.000000 0.000000 0.000000 0.000000 0.020492 0.000000
# 6 0.000000 0.000000 0.000000 0.000000 0.000000 0.031033
#
#
# Mechanical properties :
#
#
# Convention : Reuss Voigt Hill
#
# Bulk Modulus (GPa) = 42.46664 52.59474 47.53069
# Shear Modulus (GPa) = -24.07643 28.74144 2.33250
#
# Velocity S-wave (km/s) = -3.25289 3.55409 1.01248
# Velocity P-wave (km/s) = 2.13429 6.32114 4.71763
#
# Compressibility (1/GPa) = 0.02354790
#
# Stress axis : x y z
#
# Youngs Moduli (GPa) = 138.89565 43.33086 54.84516
#
# Poissons Ratio (x) = 0.10844 0.15696
# Poissons Ratio (y) = 0.34760 0.39034
# Poissons Ratio (z) = 0.39750 0.30839
#
# Static dielectric constant tensor:
#      x y z
#    x 2.874930 0.000000 0.000000 
#    y 0.000000 1.915240 0.000000 
#    z 0.000000 0.000000 1.910880 
# 
# From -- ./inp_files/32160.got.cif
#   From: 2010.05.17/outbox.cif.g08.bks.cpg/sg73_17_cif.got.tgz:32160.got - 2010.06.03 17:35:07.
