data_PCOD9532844
_publ_section_title
;
Structure prediction by ZEFSAII (Michael W. Deem and Ramdas Pophale) SiO2 
 PCOD9532844
Probable space group: I B C A 
;
_chemical_formula_sum "Si O2"
_cell_formula_units_Z 104
_cell_length_a 19.556996
_cell_length_b 9.228676
_cell_length_c 27.631346
_cell_angle_alpha 90.000000
_cell_angle_beta 90.000000
_cell_angle_gamma 90.000000
_cell_volume 4987.048446
_symmetry_space_group_name_H-M "I B C A "
_symmetry_group_IT_number 73
_symmetry_cell_setting 'orthorhombic'
loop_
_space_group_symop_operation_xyz
x,y,z
-x,1/2-y,z
x,-y,1/2-z
1/2-x,y,-z
-x,-y,-z
x,1/2+y,-z
-x,y,1/2+z
1/2+x,-y,z
1/2+x,1/2+y,1/2+z
1/2-x,-y,1/2+z
1/2+x,1/2-y,-z
-x,1/2+y,1/2-z
1/2-x,1/2-y,1/2-z
1/2+x,y,1/2-z
1/2-x,1/2+y,z
x,1/2-y,1/2+z
loop_
_atom_site_type_symbol
_atom_site_label
_atom_site_fract_x
_atom_site_fract_y
_atom_site_fract_z
Si Si1 0.306750 0.750000 0.042904
Si Si2 0.624119 0.519067 0.100520
Si Si3 0.676466 0.422158 0.703438
Si Si4 0.500000 0.750000 0.105856
Si Si5 0.676466 0.422159 0.203438
Si Si6 0.919239 0.250000 0.464848
Si Si7 0.624119 0.480933 0.899480
O O1 0.312407 0.889766 0.077535
O O2 0.312406 0.610235 0.077535
O O3 0.250000 0.750000 0.000000
O O4 0.378582 0.750000 0.014539
O O5 0.560150 0.624944 0.106016
O O6 0.640532 0.453483 0.152793
O O7 0.603917 0.390904 0.064342
O O8 0.642305 0.500000 0.750000
O O9 0.750000 0.500000 0.699592
O O10 0.682795 0.250000 0.711367
O O11 0.640532 0.453483 0.652793
O O12 0.439850 0.624944 0.106016
O O13 0.642305 0.500000 0.250000
O O14 0.896083 0.390904 0.435658
O O15 0.000000 0.250000 0.473720
#
# Coordination Sequence:
#
# PCOD9532844 Si02
#       7
#    16  16  16   8  16  16  16
#     4  11  29  44  69 106 143 187 243 285 348 407
#     4  11  25  45  72  98 145 181 234 294 345 410
#     4  11  25  44  74 107 138 179 227 285 362 424
#     4  10  24  44  70 100 132 198 228 274 356 414
#     4  11  25  44  74 107 138 179 227 285 362 424
#     4  12  25  45  69 101 140 188 242 285 349 414
#     4  11  25  45  72  98 145 181 234 294 345 410
#
# _framework density 20.854019000000001
#
# number of rings (size 3 to 8) (size 9 to 14) (size 15 to 20)
#    0.000    0.923    3.077    2.769   17.231    2.462 
#    0.000    0.769    3.385    0.000    0.000    0.000 
#    0.000    0.000    0.000    0.000    0.000    0.000 
#
# Total GULP energy -289808.126686 kJ/mol
# GULP energy per Si atom -5573.233206 kJ/mol
# Density = 2.080655 g / cm^3
# Si number density = 20.854019 Si / 1000 Ang^3
#
#
#
# Elastic Constant Matrix: (Units=GPa)
#
#
# Indices 1 2 3 4 5 6 
#
# 1 65.3897 36.7694 31.2642 0.0000 0.0000 0.0000
# 2 36.7694 189.9401 46.3354 0.0000 0.0000 0.0000
# 3 31.2642 46.3354 132.6188 0.0000 0.0000 0.0000
# 4 0.0000 0.0000 0.0000 37.0246 0.0000 0.0000
# 5 0.0000 0.0000 0.0000 0.0000 9.1713 0.0000
# 6 0.0000 0.0000 0.0000 0.0000 0.0000 34.2149
#
#
#
# Elastic Compliance Matrix: (Units=1/GPa)
#
#
# Indices 1 2 3 4 5 6 
#
# 1 0.018459 -0.002746 -0.003392 0.000000 0.000000 0.000000
# 2 -0.002746 0.006164 -0.001506 0.000000 0.000000 0.000000
# 3 -0.003392 -0.001506 0.008866 0.000000 0.000000 0.000000
# 4 0.000000 0.000000 0.000000 0.027009 0.000000 0.000000
# 5 0.000000 0.000000 0.000000 0.000000 0.109036 0.000000
# 6 0.000000 0.000000 0.000000 0.000000 0.000000 0.029227
#
#
# Mechanical properties :
#
#
# Convention : Reuss Voigt Hill
#
# Bulk Modulus (GPa) = 54.94370 68.52071 61.73221
# Shear Modulus (GPa) = 22.71523 34.32079 28.51801
#
# Velocity S-wave (km/s) = 3.30396 4.06120 3.70199
# Velocity P-wave (km/s) = 6.39991 7.41079 6.92382
#
# Compressibility (1/GPa) = 0.01820045
#
# Stress axis : x y z
#
# Youngs Moduli (GPa) = 54.17462 162.23734 112.78568
#
# Poissons Ratio (x) = 0.44547 0.38259
# Poissons Ratio (y) = 0.14875 0.16988
# Poissons Ratio (z) = 0.18377 0.24437
#
# Static dielectric constant tensor:
#      x y z
#    x 1.737950 0.000000 0.000000 
#    y 0.000000 1.694990 0.000000 
#    z 0.000000 0.000000 1.791790 
# 
# From -- ./inp_files/32650.got.cif
#   From: 2010.05.17/outbox.cif.g08.bks.cpg/sg73_17_cif.got.tgz:32650.got - 2010.06.03 17:35:07.
