data_PCOD9532321
_publ_section_title
;
Structure prediction by ZEFSAII (Michael W. Deem and Ramdas Pophale) SiO2 
 PCOD9532321
Probable space group: I B C A 
;
_chemical_formula_sum "Si O2"
_cell_formula_units_Z 112
_cell_length_a 10.337491
_cell_length_b 33.693246
_cell_length_c 15.198072
_cell_angle_alpha 90.000000
_cell_angle_beta 90.000000
_cell_angle_gamma 90.000000
_cell_volume 5293.543605
_symmetry_space_group_name_H-M "I B C A "
_symmetry_group_IT_number 73
_symmetry_cell_setting 'orthorhombic'
loop_
_space_group_symop_operation_xyz
x,y,z
-x,1/2-y,z
x,-y,1/2-z
1/2-x,y,-z
-x,-y,-z
x,1/2+y,-z
-x,y,1/2+z
1/2+x,-y,z
1/2+x,1/2+y,1/2+z
1/2-x,-y,1/2+z
1/2+x,1/2-y,-z
-x,1/2+y,1/2-z
1/2-x,1/2-y,1/2-z
1/2+x,y,1/2-z
1/2-x,1/2+y,z
x,1/2-y,1/2+z
loop_
_atom_site_type_symbol
_atom_site_label
_atom_site_fract_x
_atom_site_fract_y
_atom_site_fract_z
Si Si1 0.453872 0.203576 0.095256
Si Si2 0.238180 0.961900 0.189379
Si Si3 0.127808 0.483009 0.548331
Si Si4 0.481377 0.573971 0.198506
Si Si5 0.867754 0.188885 0.062324
Si Si6 0.194827 0.768940 0.341686
Si Si7 0.998530 0.164137 0.720468
O O1 0.500000 0.250000 0.108110
O O2 0.302107 0.206763 0.106416
O O3 0.491713 0.175161 0.177004
O O4 0.510376 0.188173 0.003637
O O5 0.363678 0.933864 0.198730
O O6 0.102071 0.944167 0.221870
O O7 0.270567 0.000000 0.250000
O O8 0.203314 0.980599 0.095752
O O9 0.250000 0.462904 0.500000
O O10 0.072660 0.450799 0.616410
O O11 0.000000 0.500000 0.500000
O O12 0.448353 0.620372 0.202056
O O13 0.845556 0.233814 0.093911
O O14 0.877112 0.166210 0.155211
O O15 0.750000 0.176179 0.000000
O O16 0.250000 0.750000 0.250000
O O17 0.083674 0.799049 0.315836
#
# Coordination Sequence:
#
# PCOD9532321 Si02
#       7
#    16  16  16  16  16  16  16
#     4  12  23  42  69  96 126 186 237 294 353 418
#     4  10  22  44  73 100 132 180 235 271 341 436
#     4  11  22  45  76 105 137 181 236 287 346 436
#     4  11  26  44  69 104 144 184 225 293 363 427
#     4  12  25  43  70  95 129 182 245 291 349 428
#     4  12  23  43  71  93 131 183 244 294 342 424
#     4  12  27  45  64 103 145 176 235 298 370 423
#
# _framework density 21.157848999999999
#
# number of rings (size 3 to 8) (size 9 to 14) (size 15 to 20)
#    0.000    0.571    5.714    2.571    4.000    0.000 
#    7.714    0.000    0.000    0.000    0.000    0.000 
#    0.000    0.000    0.000    0.000    0.000    0.000 
#
# Total GULP energy -312425.161082 kJ/mol
# GULP energy per Si atom -5579.020734 kJ/mol
# Density = 2.110969 g / cm^3
# Si number density = 21.157849 Si / 1000 Ang^3
#
#
#
# Elastic Constant Matrix: (Units=GPa)
#
#
# Indices 1 2 3 4 5 6 
#
# 1 76.0764 -19.4879 16.9709 -0.0001 0.0000 0.0000
# 2 -19.4879 46.9546 8.7866 -0.0002 0.0001 0.0001
# 3 16.9709 8.7866 110.5423 -0.0008 0.0002 0.0001
# 4 -0.0001 -0.0002 -0.0008 3.5339 0.0001 0.0000
# 5 0.0000 0.0001 0.0002 0.0001 30.9236 0.0000
# 6 0.0000 0.0001 0.0001 0.0000 0.0000 13.9226
#
#
#
# Elastic Compliance Matrix: (Units=1/GPa)
#
#
# Indices 1 2 3 4 5 6 
#
# 1 0.015604 0.007029 -0.002954 0.000000 0.000000 0.000000
# 2 0.007029 0.024785 -0.003049 0.000001 0.000000 0.000000
# 3 -0.002954 -0.003049 0.009742 0.000002 0.000000 0.000000
# 4 0.000000 0.000001 0.000002 0.282977 -0.000001 0.000000
# 5 0.000000 0.000000 0.000000 -0.000001 0.032338 0.000000
# 6 0.000000 0.000000 0.000000 0.000000 0.000000 0.071826
#
#
# Mechanical properties :
#
#
# Convention : Reuss Voigt Hill
#
# Bulk Modulus (GPa) = 19.16334 27.34583 23.25458
# Shear Modulus (GPa) = 11.04690 24.82959 17.93824
#
# Velocity S-wave (km/s) = 2.28747 3.42941 2.91491
# Velocity P-wave (km/s) = 4.00670 5.35107 4.72692
#
# Compressibility (1/GPa) = 0.05218298
#
# Stress axis : x y z
#
# Youngs Moduli (GPa) = 64.08466 40.34676 102.64568
#
# Poissons Ratio (x) = -0.28361 0.30325
# Poissons Ratio (y) = -0.45047 0.31299
# Poissons Ratio (z) = 0.18933 0.12303
#
# Static dielectric constant tensor:
#      x y z
#    x 1.876180 0.000000 0.000000 
#    y 0.000000 1.758020 0.000000 
#    z 0.000000 0.000000 1.850940 
# 
# From -- ./inp_files/16366.got.cif
#   From: 2010.05.17/outbox.cif.g08.bks.cpg/sg73_9_cif.got.tgz:16366.got - 2010.06.03 17:35:07.
