data_PCOD9532904
_publ_section_title
;
Structure prediction by ZEFSAII (Michael W. Deem and Ramdas Pophale) SiO2 
 PCOD9532904
Probable space group: I B C A 
;
_chemical_formula_sum "Si O2"
_cell_formula_units_Z 64
_cell_length_a 9.268182
_cell_length_b 10.992513
_cell_length_c 25.242142
_cell_angle_alpha 90.000000
_cell_angle_beta 90.000000
_cell_angle_gamma 90.000000
_cell_volume 2571.684853
_symmetry_space_group_name_H-M "I B C A "
_symmetry_group_IT_number 73
_symmetry_cell_setting 'orthorhombic'
loop_
_space_group_symop_operation_xyz
x,y,z
-x,1/2-y,z
x,-y,1/2-z
1/2-x,y,-z
-x,-y,-z
x,1/2+y,-z
-x,y,1/2+z
1/2+x,-y,z
1/2+x,1/2+y,1/2+z
1/2-x,-y,1/2+z
1/2+x,1/2-y,-z
-x,1/2+y,1/2-z
1/2-x,1/2-y,1/2-z
1/2+x,y,1/2-z
1/2-x,1/2+y,z
x,1/2-y,1/2+z
loop_
_atom_site_type_symbol
_atom_site_label
_atom_site_fract_x
_atom_site_fract_y
_atom_site_fract_z
Si Si1 0.000000 0.250000 0.490173
Si Si2 0.314759 0.611373 0.904493
Si Si3 0.805608 0.344418 0.793103
Si Si4 0.565487 0.000000 0.250000
Si Si5 0.487096 0.879584 0.090299
O O1 0.895450 0.173665 0.452992
O O2 0.075929 0.160012 0.532799
O O3 0.319449 0.698882 0.853245
O O4 0.395148 0.487999 0.887068
O O5 0.151129 0.581141 0.918877
O O6 0.750000 0.250000 0.750000
O O7 0.676695 0.445110 0.792836
O O8 0.956646 0.400282 0.773587
O O9 0.500000 0.750000 0.120652
#
# Coordination Sequence:
#
# PCOD9532904 Si02
#       5
#     8  16  16   8  16
#     4  10  26  44  74 108 156 196 254 320 388 462
#     4  12  25  46  78 109 152 205 254 317 398 459
#     4  11  25  44  75 105 150 189 252 304 378 454
#     4  10  24  46  66 104 148 188 242 312 362 444
#     4  10  27  46  74 110 152 198 261 317 386 471
#
# _framework density 24.886409
#
# number of rings (size 3 to 8) (size 9 to 14) (size 15 to 20)
#    0.750    0.500    0.000    3.750    7.000    6.000 
#    0.000    0.000    0.000    0.000    0.000    0.000 
#    0.000    0.000    0.000    0.000    0.000    0.000 
#
# Total GULP energy -179036.462785 kJ/mol
# GULP energy per Si atom -5594.889462 kJ/mol
# Density = 2.482977 g / cm^3
# Si number density = 24.886409 Si / 1000 Ang^3
#
#
#
# Elastic Constant Matrix: (Units=GPa)
#
#
# Indices 1 2 3 4 5 6 
#
# 1 131.5089 43.9748 -24.3011 0.0000 0.0000 0.0000
# 2 43.9748 80.2287 6.9706 0.0000 0.0000 0.0000
# 3 -24.3011 6.9706 98.2500 0.0000 0.0000 0.0000
# 4 0.0000 0.0000 0.0000 20.9437 0.0000 0.0000
# 5 0.0000 0.0000 0.0000 0.0000 23.4416 0.0000
# 6 0.0000 0.0000 0.0000 0.0000 0.0000 47.4399
#
#
#
# Elastic Compliance Matrix: (Units=1/GPa)
#
#
# Indices 1 2 3 4 5 6 
#
# 1 0.010070 -0.005771 0.002900 0.000000 0.000000 0.000000
# 2 -0.005771 0.015850 -0.002552 0.000000 0.000000 0.000000
# 3 0.002900 -0.002552 0.011076 0.000000 0.000000 0.000000
# 4 0.000000 0.000000 0.000000 0.047747 0.000000 0.000000
# 5 0.000000 0.000000 0.000000 0.000000 0.042659 0.000000
# 6 0.000000 0.000000 0.000000 0.000000 0.000000 0.021079
#
#
# Mechanical properties :
#
#
# Convention : Reuss Voigt Hill
#
# Bulk Modulus (GPa) = 38.24199 40.36404 39.30302
# Shear Modulus (GPa) = 29.75403 37.25458 33.50430
#
# Velocity S-wave (km/s) = 3.46149 3.87329 3.67316
# Velocity P-wave (km/s) = 5.60141 6.02143 5.81522
#
# Compressibility (1/GPa) = 0.02614927
#
# Stress axis : x y z
#
# Youngs Moduli (GPa) = 99.30636 63.09338 90.28127
#
# Poissons Ratio (x) = 0.36414 -0.26183
# Poissons Ratio (y) = 0.57314 0.23040
# Poissons Ratio (z) = -0.28800 0.16101
#
# Static dielectric constant tensor:
#      x y z
#    x 1.960750 0.000000 0.000000 
#    y 0.000000 2.066300 0.000000 
#    z 0.000000 0.000000 1.986070 
# 
# From -- ./inp_files/8248.got.cif
#   From: 2010.05.17/outbox.cif.g08.bks.cpg/sg73_5_cif.got.tgz:8248.got - 2010.06.03 17:35:07.
