data_PCOD9532160
_publ_section_title
;
Structure prediction by ZEFSAII (Michael W. Deem and Ramdas Pophale) SiO2 
 PCOD9532160
Probable space group: I B C A 
;
_chemical_formula_sum "Si O2"
_cell_formula_units_Z 88
_cell_length_a 24.896087
_cell_length_b 13.829493
_cell_length_c 10.773532
_cell_angle_alpha 90.000000
_cell_angle_beta 90.000000
_cell_angle_gamma 90.000000
_cell_volume 3709.329878
_symmetry_space_group_name_H-M "I B C A "
_symmetry_group_IT_number 73
_symmetry_cell_setting 'orthorhombic'
loop_
_space_group_symop_operation_xyz
x,y,z
-x,1/2-y,z
x,-y,1/2-z
1/2-x,y,-z
-x,-y,-z
x,1/2+y,-z
-x,y,1/2+z
1/2+x,-y,z
1/2+x,1/2+y,1/2+z
1/2-x,-y,1/2+z
1/2+x,1/2-y,-z
-x,1/2+y,1/2-z
1/2-x,1/2-y,1/2-z
1/2+x,y,1/2-z
1/2-x,1/2+y,z
x,1/2-y,1/2+z
loop_
_atom_site_type_symbol
_atom_site_label
_atom_site_fract_x
_atom_site_fract_y
_atom_site_fract_z
Si Si1 0.750000 0.621481 0.500000
Si Si2 0.684291 0.269524 0.390519
Si Si3 0.572438 0.464414 0.573253
Si Si4 0.117783 0.227216 0.353429
Si Si5 0.667617 0.024689 0.890868
Si Si6 0.970154 0.842409 0.998166
O O1 0.730749 0.690632 0.611184
O O2 0.800185 0.556565 0.536719
O O3 0.655073 0.258938 0.524401
O O4 0.644364 0.259417 0.274667
O O5 0.703342 0.379102 0.392607
O O6 0.604917 0.387792 0.657650
O O7 0.609366 0.459764 0.450539
O O8 0.516058 0.409492 0.557830
O O9 0.561109 0.579234 0.587559
O O10 0.067063 0.293024 0.396273
O O11 0.659425 0.000000 0.750000
O O12 0.000000 0.750000 0.935103
#
# Coordination Sequence:
#
# PCOD9532160 Si02
#       6
#     8  16  16  16  16  16
#     4  12  26  42  68 100 136 186 248 306 370 440
#     4  11  24  44  68  98 137 181 235 299 364 434
#     4   9  19  37  62  96 133 177 233 288 351 432
#     4  10  22  42  67  95 136 181 230 294 360 431
#     4  11  24  42  66  96 136 186 239 301 373 446
#     4   9  17  36  64  96 137 183 228 282 356 436
#
# _framework density 23.723960999999999
#
# number of rings (size 3 to 8) (size 9 to 14) (size 15 to 20)
#    0.000    1.818    0.000    3.818    0.000    5.818 
#    0.000   23.636    0.000   10.909    0.000    0.000 
#    0.000    0.000    0.000    0.000    0.000    0.000 
#
# Total GULP energy -245650.420547 kJ/mol
# GULP energy per Si atom -5582.964103 kJ/mol
# Density = 2.366996 g / cm^3
# Si number density = 23.723961 Si / 1000 Ang^3
#
#
#
# Elastic Constant Matrix: (Units=GPa)
#
#
# Indices 1 2 3 4 5 6 
#
# 1 66.5546 24.6924 38.8917 0.0000 0.0000 0.0000
# 2 24.6924 206.7803 37.2048 0.0000 0.0000 0.0000
# 3 38.8917 37.2048 112.2209 0.0000 0.0000 0.0000
# 4 0.0000 0.0000 0.0000 15.5085 0.0000 0.0000
# 5 0.0000 0.0000 0.0000 0.0000 -2.5687 0.0000
# 6 0.0000 0.0000 0.0000 0.0000 0.0000 55.1051
#
#
#
# Elastic Compliance Matrix: (Units=1/GPa)
#
#
# Indices 1 2 3 4 5 6 
#
# 1 0.019098 -0.001159 -0.006235 0.000000 0.000000 0.000000
# 2 -0.001159 0.005213 -0.001327 0.000000 0.000000 0.000000
# 3 -0.006235 -0.001327 0.011512 0.000000 0.000000 0.000000
# 4 0.000000 0.000000 0.000000 0.064481 0.000000 0.000000
# 5 0.000000 0.000000 0.000000 0.000000 -0.389305 0.000000
# 6 0.000000 0.000000 0.000000 0.000000 0.000000 0.018147
#
#
# Mechanical properties :
#
#
# Convention : Reuss Voigt Hill
#
# Bulk Modulus (GPa) = 54.39880 65.23705 59.81793
# Shear Modulus (GPa) = -20.21949 32.59345 6.18698
#
# Velocity S-wave (km/s) = -2.92255 3.71059 1.61665
# Velocity P-wave (km/s) = 3.40459 6.77613 5.36224
#
# Compressibility (1/GPa) = 0.01838276
#
# Stress axis : x y z
#
# Youngs Moduli (GPa) = 52.36023 191.82299 86.86942
#
# Poissons Ratio (x) = 0.22230 0.54160
# Poissons Ratio (y) = 0.06068 0.11525
# Poissons Ratio (z) = 0.32645 0.25449
#
# Static dielectric constant tensor:
#      x y z
#    x 1.970500 0.000000 0.000000 
#    y 0.000000 1.993170 0.000000 
#    z 0.000000 0.000000 1.832120 
# 
# From -- ./inp_files/14234.got.cif
#   From: 2010.05.17/outbox.cif.g08.bks.cpg/sg73_8_cif.got.tgz:14234.got - 2010.06.03 17:35:07.
