data_PCOD9532222
_publ_section_title
;
Structure prediction by ZEFSAII (Michael W. Deem and Ramdas Pophale) SiO2 
 PCOD9532222
Probable space group: I B C A 
;
_chemical_formula_sum "Si O2"
_cell_formula_units_Z 64
_cell_length_a 15.786432
_cell_length_b 11.115378
_cell_length_c 13.613026
_cell_angle_alpha 90.000000
_cell_angle_beta 90.000000
_cell_angle_gamma 90.000000
_cell_volume 2388.707062
_symmetry_space_group_name_H-M "I B C A "
_symmetry_group_IT_number 73
_symmetry_cell_setting 'orthorhombic'
loop_
_space_group_symop_operation_xyz
x,y,z
-x,1/2-y,z
x,-y,1/2-z
1/2-x,y,-z
-x,-y,-z
x,1/2+y,-z
-x,y,1/2+z
1/2+x,-y,z
1/2+x,1/2+y,1/2+z
1/2-x,-y,1/2+z
1/2+x,1/2-y,-z
-x,1/2+y,1/2-z
1/2-x,1/2-y,1/2-z
1/2+x,y,1/2-z
1/2-x,1/2+y,z
x,1/2-y,1/2+z
loop_
_atom_site_type_symbol
_atom_site_label
_atom_site_fract_x
_atom_site_fract_y
_atom_site_fract_z
Si Si1 0.163793 0.770773 0.442095
Si Si2 0.370517 0.173492 0.726038
Si Si3 0.953084 0.094007 0.315427
Si Si4 0.400380 0.037848 0.545909
O O1 0.250000 0.757345 0.500000
O O2 0.175442 0.787037 0.324351
O O3 0.114064 0.646391 0.468121
O O4 0.126554 0.901424 0.472392
O O5 0.466390 0.129569 0.755186
O O6 0.395559 0.292301 0.665388
O O7 0.343496 0.077235 0.644330
O O8 0.902935 0.000000 0.250000
O O9 0.004990 0.050200 0.409302
#
# Coordination Sequence:
#
# PCOD9532222 Si02
#       4
#    16  16  16  16
#     4  12  24  42  66  96 137 185 233 284 341 418
#     4   9  20  42  63  94 130 183 220 281 349 409
#     4   9  17  41  68  91 133 175 226 281 351 405
#     4  10  22  43  64  97 131 179 234 282 348 402
#
# _framework density 26.792738
#
# number of rings (size 3 to 8) (size 9 to 14) (size 15 to 20)
#    1.500    0.500    2.500    1.500    0.000    3.000 
#    9.000    8.750    0.000    0.000    0.000    0.000 
#    0.000    0.000    0.000    0.000    0.000    0.000 
#
# Total GULP energy -178566.405391 kJ/mol
# GULP energy per Si atom -5580.200168 kJ/mol
# Density = 2.673176 g / cm^3
# Si number density = 26.792738 Si / 1000 Ang^3
#
#
#
# Elastic Constant Matrix: (Units=GPa)
#
#
# Indices 1 2 3 4 5 6 
#
# 1 67.0139 37.2377 27.9386 0.0000 0.0000 0.0000
# 2 37.2377 212.3304 60.2335 0.0000 0.0000 0.0000
# 3 27.9386 60.2335 153.2613 0.0000 0.0000 0.0000
# 4 0.0000 0.0000 0.0000 66.5958 0.0000 0.0000
# 5 0.0000 0.0000 0.0000 0.0000 39.0613 0.0000
# 6 0.0000 0.0000 0.0000 0.0000 0.0000 25.3884
#
#
#
# Elastic Compliance Matrix: (Units=1/GPa)
#
#
# Indices 1 2 3 4 5 6 
#
# 1 0.017163 -0.002389 -0.002190 0.000000 0.000000 0.000000
# 2 -0.002389 0.005633 -0.001778 0.000000 0.000000 0.000000
# 3 -0.002190 -0.001778 0.007623 0.000000 0.000000 0.000000
# 4 0.000000 0.000000 0.000000 0.015016 0.000000 0.000000
# 5 0.000000 0.000000 0.000000 0.000000 0.025601 0.000000
# 6 0.000000 0.000000 0.000000 0.000000 0.000000 0.039388
#
#
# Mechanical properties :
#
#
# Convention : Reuss Voigt Hill
#
# Bulk Modulus (GPa) = 56.48235 75.93614 66.20924
# Shear Modulus (GPa) = 38.74803 46.68883 42.71843
#
# Velocity S-wave (km/s) = 3.80704 4.17897 3.99733
# Velocity P-wave (km/s) = 6.36016 7.18948 6.78750
#
# Compressibility (1/GPa) = 0.01770465
#
# Stress axis : x y z
#
# Youngs Moduli (GPa) = 58.26636 177.52346 131.18295
#
# Poissons Ratio (x) = 0.42405 0.28727
# Poissons Ratio (y) = 0.13918 0.23330
# Poissons Ratio (z) = 0.12759 0.31571
#
# Static dielectric constant tensor:
#      x y z
#    x 2.187030 0.000000 0.000000 
#    y 0.000000 2.198200 0.000000 
#    z 0.000000 0.000000 2.254630 
# 
# From -- ./inp_files/9575.got.cif
#   From: 2010.05.17/outbox.cif.g08.bks.cpg/sg73_5_cif.got.tgz:9575.got - 2010.06.03 17:35:07.
