data_PCOD9532719
_publ_section_title
;
Structure prediction by ZEFSAII (Michael W. Deem and Ramdas Pophale) SiO2 
 PCOD9532719
Probable space group: I B C A 
;
_chemical_formula_sum "Si O2"
_cell_formula_units_Z 72
_cell_length_a 17.568021
_cell_length_b 17.427072
_cell_length_c 9.025088
_cell_angle_alpha 90.000000
_cell_angle_beta 90.000000
_cell_angle_gamma 90.000000
_cell_volume 2763.113423
_symmetry_space_group_name_H-M "I B C A "
_symmetry_group_IT_number 73
_symmetry_cell_setting 'orthorhombic'
loop_
_space_group_symop_operation_xyz
x,y,z
-x,1/2-y,z
x,-y,1/2-z
1/2-x,y,-z
-x,-y,-z
x,1/2+y,-z
-x,y,1/2+z
1/2+x,-y,z
1/2+x,1/2+y,1/2+z
1/2-x,-y,1/2+z
1/2+x,1/2-y,-z
-x,1/2+y,1/2-z
1/2-x,1/2-y,1/2-z
1/2+x,y,1/2-z
1/2-x,1/2+y,z
x,1/2-y,1/2+z
loop_
_atom_site_type_symbol
_atom_site_label
_atom_site_fract_x
_atom_site_fract_y
_atom_site_fract_z
Si Si1 0.330770 0.818151 0.805730
Si Si2 0.207970 0.921605 0.657562
Si Si3 0.562438 0.098874 0.012640
Si Si4 0.477023 0.000000 0.250000
Si Si5 0.407815 0.177874 0.015111
O O1 0.249427 0.850069 0.746452
O O2 0.355738 0.878713 0.929347
O O3 0.381409 0.818798 0.655830
O O4 0.360489 0.742631 0.894750
O O5 0.250000 0.930913 0.500000
O O6 0.125204 0.898310 0.593769
O O7 0.213077 0.000000 0.750000
O O8 0.532128 0.040634 0.133643
O O9 0.499316 0.167399 0.015971
O O10 0.564169 0.062033 0.852938
#
# Coordination Sequence:
#
# PCOD9532719 Si02
#       5
#    16  16  16   8  16
#     4  11  25  44  71 102 146 191 242 304 362 446
#     4  10  25  47  71 102 139 188 246 311 377 439
#     4  11  23  42  69 105 144 185 238 292 369 434
#     4  10  24  40  66 104 146 180 228 296 360 428
#     4  11  25  44  68 104 141 191 247 298 369 443
#
# _framework density 26.057562000000001
#
# number of rings (size 3 to 8) (size 9 to 14) (size 15 to 20)
#    0.000    1.333    2.222    1.333    6.222    5.333 
#    0.000    0.000    0.000    0.000    0.000    0.000 
#    0.000    0.000    0.000    0.000    0.000    0.000 
#
# Total GULP energy -201064.334745 kJ/mol
# GULP energy per Si atom -5585.120410 kJ/mol
# Density = 2.599825 g / cm^3
# Si number density = 26.057562 Si / 1000 Ang^3
#
#
#
# Elastic Constant Matrix: (Units=GPa)
#
#
# Indices 1 2 3 4 5 6 
#
# 1 84.3570 6.2811 15.7581 0.0000 0.0000 0.0000
# 2 6.2811 66.2247 58.6102 0.0000 0.0000 0.0000
# 3 15.7581 58.6102 200.6574 0.0000 0.0000 0.0000
# 4 0.0000 0.0000 0.0000 39.1592 0.0000 0.0000
# 5 0.0000 0.0000 0.0000 0.0000 94.2034 0.0000
# 6 0.0000 0.0000 0.0000 0.0000 0.0000 9.5558
#
#
#
# Elastic Compliance Matrix: (Units=1/GPa)
#
#
# Indices 1 2 3 4 5 6 
#
# 1 0.012039 -0.000411 -0.000825 0.000000 0.000000 0.000000
# 2 -0.000411 0.020378 -0.005920 0.000000 0.000000 0.000000
# 3 -0.000825 -0.005920 0.006778 0.000000 0.000000 0.000000
# 4 0.000000 0.000000 0.000000 0.025537 0.000000 0.000000
# 5 0.000000 0.000000 0.000000 0.000000 0.010615 0.000000
# 6 0.000000 0.000000 0.000000 0.000000 0.000000 0.104649
#
#
# Mechanical properties :
#
#
# Convention : Reuss Voigt Hill
#
# Bulk Modulus (GPa) = 40.19020 56.94865 48.56942
# Shear Modulus (GPa) = 24.67873 46.62300 35.65086
#
# Velocity S-wave (km/s) = 3.08081 4.23452 3.70287
# Velocity P-wave (km/s) = 5.30211 6.76835 6.07959
#
# Compressibility (1/GPa) = 0.02488169
#
# Stress axis : x y z
#
# Youngs Moduli (GPa) = 83.06212 49.07136 147.54434
#
# Poissons Ratio (x) = 0.02019 0.12177
# Poissons Ratio (y) = 0.03418 0.87347
# Poissons Ratio (z) = 0.06855 0.29051
#
# Static dielectric constant tensor:
#      x y z
#    x 2.038620 0.000000 0.000000 
#    y 0.000000 2.189000 0.000000 
#    z 0.000000 0.000000 1.928920 
# 
# From -- ./inp_files/6006.got.cif
#   From: 2010.05.17/outbox.cif.g08.bks.cpg/sg73_4_cif.got.tgz:6006.got - 2010.06.03 17:35:07.
