data_PCOD9532881
_publ_section_title
;
Structure prediction by ZEFSAII (Michael W. Deem and Ramdas Pophale) SiO2 
 PCOD9532881
Probable space group: I B C A 
;
_chemical_formula_sum "Si O2"
_cell_formula_units_Z 120
_cell_length_a 25.587130
_cell_length_b 19.997722
_cell_length_c 11.371927
_cell_angle_alpha 90.000000
_cell_angle_beta 90.000000
_cell_angle_gamma 90.000000
_cell_volume 5818.836649
_symmetry_space_group_name_H-M "I B C A "
_symmetry_group_IT_number 73
_symmetry_cell_setting 'orthorhombic'
loop_
_space_group_symop_operation_xyz
x,y,z
-x,1/2-y,z
x,-y,1/2-z
1/2-x,y,-z
-x,-y,-z
x,1/2+y,-z
-x,y,1/2+z
1/2+x,-y,z
1/2+x,1/2+y,1/2+z
1/2-x,-y,1/2+z
1/2+x,1/2-y,-z
-x,1/2+y,1/2-z
1/2-x,1/2-y,1/2-z
1/2+x,y,1/2-z
1/2-x,1/2+y,z
x,1/2-y,1/2+z
loop_
_atom_site_type_symbol
_atom_site_label
_atom_site_fract_x
_atom_site_fract_y
_atom_site_fract_z
Si Si1 0.885158 0.356048 0.694951
Si Si2 0.886701 0.930137 0.687513
Si Si3 0.354444 0.500000 0.750000
Si Si4 0.306754 0.510113 0.497119
Si Si5 0.427758 0.309770 0.569734
Si Si6 0.047010 0.342542 0.970807
Si Si7 0.719704 0.771027 0.624599
Si Si8 0.337148 0.632829 0.088783
O O1 0.881894 0.428600 0.755726
O O2 0.912539 0.310863 0.793343
O O3 0.925129 0.367261 0.588526
O O4 0.828747 0.322836 0.656592
O O5 0.934491 0.890456 0.633280
O O6 0.858557 0.883223 0.781876
O O7 0.901015 0.000000 0.750000
O O8 0.846663 0.949195 0.583478
O O9 0.322908 0.506311 0.630957
O O10 0.250000 0.541201 0.500000
O O11 0.306953 0.434283 0.448335
O O12 0.429345 0.231850 0.538210
O O13 0.484850 0.337135 0.536326
O O14 0.385268 0.351781 0.497634
O O15 0.750000 0.792165 0.500000
O O16 0.750000 0.750000 0.750000
O O17 0.695886 0.699750 0.588246
#
# Coordination Sequence:
#
# PCOD9532881 Si02
#       8
#    16  16   8  16  16  16  16  16
#     4  12  26  48  70 103 148 179 242 298 347 435
#     4  10  24  45  67  99 142 187 229 295 341 433
#     4  12  26  44  66  94 144 182 228 290 346 414
#     4  11  25  43  67  98 139 192 240 281 357 420
#     4  11  25  45  76 105 137 187 232 302 364 416
#     4  11  25  45  73 105 137 183 238 286 367 413
#     4  12  28  45  76 107 142 190 237 298 366 424
#     4  11  23  45  68 101 146 176 237 297 352 421
#
# _framework density 20.622679000000002
#
# number of rings (size 3 to 8) (size 9 to 14) (size 15 to 20)
#    0.000    0.800    4.000    2.000    8.400    1.600 
#    1.200    3.333    0.000    0.000    0.000    0.000 
#    0.000    0.000    0.000    0.000    0.000    0.000 
#
# Total GULP energy -334785.859323 kJ/mol
# GULP energy per Si atom -5579.764322 kJ/mol
# Density = 2.057574 g / cm^3
# Si number density = 20.622679 Si / 1000 Ang^3
#
#
#
# Elastic Constant Matrix: (Units=GPa)
#
#
# Indices 1 2 3 4 5 6 
#
# 1 58.4850 23.3283 38.5486 0.0000 0.0000 0.0000
# 2 23.3283 64.7804 -1.9668 0.0000 0.0000 0.0000
# 3 38.5486 -1.9668 124.9212 0.0000 0.0000 0.0000
# 4 0.0000 0.0000 0.0000 -119.4269 0.0000 0.0000
# 5 0.0000 0.0000 0.0000 0.0000 29.9585 0.0000
# 6 0.0000 0.0000 0.0000 0.0000 0.0000 20.0953
#
#
#
# Elastic Compliance Matrix: (Units=1/GPa)
#
#
# Indices 1 2 3 4 5 6 
#
# 1 0.026496 -0.009794 -0.008330 0.000000 0.000000 0.000000
# 2 -0.009794 0.019065 0.003323 0.000000 0.000000 0.000000
# 3 -0.008330 0.003323 0.010628 0.000000 0.000000 0.000000
# 4 0.000000 0.000000 0.000000 -0.008373 0.000000 0.000000
# 5 0.000000 0.000000 0.000000 0.000000 0.033380 0.000000
# 6 0.000000 0.000000 0.000000 0.000000 0.000000 0.049763
#
#
# Mechanical properties :
#
#
# Convention : Reuss Voigt Hill
#
# Bulk Modulus (GPa) = 37.61653 40.88966 39.25310
# Shear Modulus (GPa) = 29.51181 -1.32287 14.09447
#
# Velocity S-wave (km/s) = 3.78701 -0.80178 2.61711
# Velocity P-wave (km/s) = 6.11571 4.36044 5.31109
#
# Compressibility (1/GPa) = 0.02658406
#
# Stress axis : x y z
#
# Youngs Moduli (GPa) = 37.74169 52.45282 94.09120
#
# Poissons Ratio (x) = 0.51375 0.78382
# Poissons Ratio (y) = 0.36966 -0.31262
# Poissons Ratio (z) = 0.31440 -0.17428
#
# Static dielectric constant tensor:
#      x y z
#    x 1.745420 0.000000 0.000000 
#    y 0.000000 2.777600 0.000000 
#    z 0.000000 0.000000 1.685610 
# 
# From -- ./inp_files/13862.got.cif
#   From: 2010.05.17/outbox.cif.g08.bks.cpg/sg73_7_cif.got.tgz:13862.got - 2010.06.03 17:35:07.
