data_PCOD9532097
_publ_section_title
;
Structure prediction by ZEFSAII (Michael W. Deem and Ramdas Pophale) SiO2 
 PCOD9532097
Probable space group: I B C A 
;
_chemical_formula_sum "Si O2"
_cell_formula_units_Z 112
_cell_length_a 11.611459
_cell_length_b 30.126806
_cell_length_c 15.923199
_cell_angle_alpha 90.000000
_cell_angle_beta 90.000000
_cell_angle_gamma 90.000000
_cell_volume 5570.192531
_symmetry_space_group_name_H-M "I B C A "
_symmetry_group_IT_number 73
_symmetry_cell_setting 'orthorhombic'
loop_
_space_group_symop_operation_xyz
x,y,z
-x,1/2-y,z
x,-y,1/2-z
1/2-x,y,-z
-x,-y,-z
x,1/2+y,-z
-x,y,1/2+z
1/2+x,-y,z
1/2+x,1/2+y,1/2+z
1/2-x,-y,1/2+z
1/2+x,1/2-y,-z
-x,1/2+y,1/2-z
1/2-x,1/2-y,1/2-z
1/2+x,y,1/2-z
1/2-x,1/2+y,z
x,1/2-y,1/2+z
loop_
_atom_site_type_symbol
_atom_site_label
_atom_site_fract_x
_atom_site_fract_y
_atom_site_fract_z
Si Si1 0.742314 0.235962 0.845873
Si Si2 0.785448 0.861290 0.596566
Si Si3 0.000000 0.250000 0.562718
Si Si4 0.829591 0.000000 0.750000
Si Si5 0.516298 0.993186 0.901223
Si Si6 0.033518 0.896993 0.641959
Si Si7 0.137637 0.686669 0.052373
Si Si8 0.145693 0.930911 0.801619
O O1 0.750000 0.250000 0.750000
O O2 0.789220 0.186951 0.861868
O O3 0.612439 0.238929 0.882152
O O4 0.819518 0.270708 0.896536
O O5 0.750000 0.856489 0.500000
O O6 0.904981 0.886362 0.612173
O O7 0.692952 0.891361 0.643010
O O8 0.036857 0.292977 0.506793
O O9 0.908087 0.995224 0.665344
O O10 0.747144 0.956508 0.749501
O O11 0.568696 0.943873 0.897650
O O12 0.596235 0.031028 0.861751
O O13 0.500000 0.000000 0.000000
O O14 0.102160 0.853872 0.611449
O O15 0.052314 0.908928 0.739509
O O16 0.250000 0.672241 0.000000
#
# Coordination Sequence:
#
# PCOD9532097 Si02
#       8
#    16  16   8   8  16  16  16  16
#     4  11  24  43  66  99 133 180 223 284 349 410
#     4  12  25  43  71 102 134 179 233 286 350 423
#     4  10  22  44  68  90 138 176 224 280 344 420
#     4  12  22  48  66  94 142 180 224 286 344 410
#     4  12  25  43  68  97 133 185 231 283 348 412
#     4  12  23  43  66  99 135 177 229 284 349 420
#     4  10  22  41  66  96 133 173 222 280 343 413
#     4  12  24  44  69  97 139 177 226 285 346 414
#
# _framework density 20.107025
#
# number of rings (size 3 to 8) (size 9 to 14) (size 15 to 20)
#    0.000    0.571    4.286    4.714    0.000    4.000 
#    0.000    4.286    0.000    0.000    0.000    0.000 
#    0.000    0.000    0.000    0.000    0.000    0.000 
#
# Total GULP energy -312787.347202 kJ/mol
# GULP energy per Si atom -5585.488343 kJ/mol
# Density = 2.006126 g / cm^3
# Si number density = 20.107025 Si / 1000 Ang^3
#
#
#
# Elastic Constant Matrix: (Units=GPa)
#
#
# Indices 1 2 3 4 5 6 
#
# 1 57.3358 26.5042 51.2096 0.0000 0.0000 0.0000
# 2 26.5042 145.9068 60.4092 0.0000 0.0000 0.0000
# 3 51.2096 60.4092 130.7421 0.0000 0.0000 0.0000
# 4 0.0000 0.0000 0.0000 37.6276 0.0000 0.0000
# 5 0.0000 0.0000 0.0000 0.0000 24.4166 0.0000
# 6 0.0000 0.0000 0.0000 0.0000 0.0000 29.4867
#
#
#
# Elastic Compliance Matrix: (Units=1/GPa)
#
#
# Indices 1 2 3 4 5 6 
#
# 1 0.026875 -0.000648 -0.010227 0.000000 0.000000 0.000000
# 2 -0.000648 0.008491 -0.003669 0.000000 0.000000 0.000000
# 3 -0.010227 -0.003669 0.013350 0.000000 0.000000 0.000000
# 4 0.000000 0.000000 0.000000 0.026576 0.000000 0.000000
# 5 0.000000 0.000000 0.000000 0.000000 0.040956 0.000000
# 6 0.000000 0.000000 0.000000 0.000000 0.000000 0.033914
#
#
# Mechanical properties :
#
#
# Convention : Reuss Voigt Hill
#
# Bulk Modulus (GPa) = 50.95024 67.80341 59.37682
# Shear Modulus (GPa) = 26.91185 31.36364 29.13775
#
# Velocity S-wave (km/s) = 3.66243 3.95376 3.81088
# Velocity P-wave (km/s) = 6.57868 7.39171 6.99701
#
# Compressibility (1/GPa) = 0.01962699
#
# Stress axis : x y z
#
# Youngs Moduli (GPa) = 37.20937 117.77806 74.90656
#
# Poissons Ratio (x) = 0.07626 0.76609
# Poissons Ratio (y) = 0.02409 0.27486
# Poissons Ratio (z) = 0.38055 0.43218
#
# Static dielectric constant tensor:
#      x y z
#    x 1.758970 0.000000 0.000000 
#    y 0.000000 1.826600 0.000000 
#    z 0.000000 0.000000 1.731780 
# 
# From -- ./inp_files/16389.got.cif
#   From: 2010.05.17/outbox.cif.g08.bks.cpg/sg73_9_cif.got.tgz:16389.got - 2010.06.03 17:35:07.
