data_PCOD9532506
_publ_section_title
;
Structure prediction by ZEFSAII (Michael W. Deem and Ramdas Pophale) SiO2 
 PCOD9532506
Probable space group: I B C A 
;
_chemical_formula_sum "Si O2"
_cell_formula_units_Z 120
_cell_length_a 23.246857
_cell_length_b 25.499805
_cell_length_c 8.186577
_cell_angle_alpha 90.000000
_cell_angle_beta 90.000000
_cell_angle_gamma 90.000000
_cell_volume 4852.923603
_symmetry_space_group_name_H-M "I B C A "
_symmetry_group_IT_number 73
_symmetry_cell_setting 'orthorhombic'
loop_
_space_group_symop_operation_xyz
x,y,z
-x,1/2-y,z
x,-y,1/2-z
1/2-x,y,-z
-x,-y,-z
x,1/2+y,-z
-x,y,1/2+z
1/2+x,-y,z
1/2+x,1/2+y,1/2+z
1/2-x,-y,1/2+z
1/2+x,1/2-y,-z
-x,1/2+y,1/2-z
1/2-x,1/2-y,1/2-z
1/2+x,y,1/2-z
1/2-x,1/2+y,z
x,1/2-y,1/2+z
loop_
_atom_site_type_symbol
_atom_site_label
_atom_site_fract_x
_atom_site_fract_y
_atom_site_fract_z
Si Si1 0.865313 0.433626 0.884446
Si Si2 0.080590 0.472864 0.913908
Si Si3 0.927815 0.339316 0.053927
Si Si4 0.547816 0.859685 0.438061
Si Si5 0.818612 0.210773 0.675811
Si Si6 0.750000 0.379701 0.000000
Si Si7 0.835331 0.183184 0.045300
Si Si8 0.812137 0.066885 0.035658
O O1 0.847929 0.446326 0.698895
O O2 0.902674 0.479120 0.968879
O O3 0.901618 0.382228 0.930363
O O4 0.802632 0.417973 0.956003
O O5 0.057805 0.500000 0.750000
O O6 0.043664 0.422790 0.973578
O O7 0.143892 0.445526 0.888398
O O8 0.937612 0.357293 0.243690
O O9 0.878058 0.296240 0.072417
O O10 0.990045 0.328665 0.979817
O O11 0.597694 0.834639 0.551416
O O12 0.777557 0.162952 0.624135
O O13 0.805842 0.271891 0.651411
O O14 0.830391 0.203026 0.862953
O O15 0.804107 0.128232 0.064063
O O16 0.750000 0.042708 0.000000
#
# Coordination Sequence:
#
# PCOD9532506 Si02
#       8
#    16  16  16  16  16   8  16  16
#     4  11  24  44  68  97 135 181 231 274 347 416
#     4  11  24  44  66  95 137 175 229 281 345 414
#     4  10  23  42  68  97 137 176 226 279 348 407
#     4  10  23  44  66  99 136 180 220 299 336 407
#     4  10  23  42  65 101 132 180 220 273 347 411
#     4  10  24  40  70  96 136 174 220 282 332 408
#     4  10  24  42  65  97 139 168 227 281 337 411
#     4  11  26  42  66 100 138 181 229 289 332 405
#
# _framework density 24.727361999999999
#
# number of rings (size 3 to 8) (size 9 to 14) (size 15 to 20)
#    0.000    1.600    1.333    1.200   13.067    1.600 
#    0.000    2.667    0.000    0.000    0.000    0.000 
#    0.000    0.000    0.000    0.000    0.000    0.000 
#
# Total GULP energy -334870.098084 kJ/mol
# GULP energy per Si atom -5581.168301 kJ/mol
# Density = 2.467108 g / cm^3
# Si number density = 24.727362 Si / 1000 Ang^3
#
#
#
# Elastic Constant Matrix: (Units=GPa)
#
#
# Indices 1 2 3 4 5 6 
#
# 1 78.7233 -37.2137 -0.4866 0.0000 0.0000 0.0000
# 2 -37.2137 88.9599 15.9776 0.0000 0.0000 0.0000
# 3 -0.4866 15.9776 79.8634 0.0000 0.0000 0.0000
# 4 0.0000 0.0000 0.0000 6.4823 0.0000 0.0000
# 5 0.0000 0.0000 0.0000 0.0000 23.8673 0.0000
# 6 0.0000 0.0000 0.0000 0.0000 0.0000 24.9322
#
#
#
# Elastic Compliance Matrix: (Units=1/GPa)
#
#
# Indices 1 2 3 4 5 6 
#
# 1 0.015960 0.006907 -0.001285 0.000000 0.000000 0.000000
# 2 0.006907 0.014649 -0.002889 0.000000 0.000000 0.000000
# 3 -0.001285 -0.002889 0.013091 0.000000 0.000000 0.000000
# 4 0.000000 0.000000 0.000000 0.154267 0.000000 0.000000
# 5 0.000000 0.000000 0.000000 0.000000 0.041898 0.000000
# 6 0.000000 0.000000 0.000000 0.000000 0.000000 0.040109
#
#
# Mechanical properties :
#
#
# Convention : Reuss Voigt Hill
#
# Bulk Modulus (GPa) = 20.33838 22.67789 21.50813
# Shear Modulus (GPa) = 17.18824 29.00763 23.09794
#
# Velocity S-wave (km/s) = 2.63935 3.42877 3.05963
# Velocity P-wave (km/s) = 4.18702 4.98662 4.60421
#
# Compressibility (1/GPa) = 0.04916812
#
# Stress axis : x y z
#
# Youngs Moduli (GPa) = 62.65724 68.26316 76.38567
#
# Poissons Ratio (x) = -0.47150 0.09812
# Poissons Ratio (y) = -0.43278 0.22065
# Poissons Ratio (z) = 0.08049 0.19719
#
# Static dielectric constant tensor:
#      x y z
#    x 2.031300 0.000000 0.000000 
#    y 0.000000 2.006440 0.000000 
#    z 0.000000 0.000000 1.528420 
# 
# From -- ./inp_files/7387.got.cif
#   From: 2010.05.17/outbox.cif.g08.bks.cpg/sg73_4_cif.got.tgz:7387.got - 2010.06.03 17:35:07.
