data_PCOD9532457
_publ_section_title
;
Structure prediction by ZEFSAII (Michael W. Deem and Ramdas Pophale) SiO2 
 PCOD9532457
Probable space group: I B C A 
;
_chemical_formula_sum "Si O2"
_cell_formula_units_Z 88
_cell_length_a 24.677736
_cell_length_b 5.455190
_cell_length_c 29.156920
_cell_angle_alpha 90.000000
_cell_angle_beta 90.000000
_cell_angle_gamma 90.000000
_cell_volume 3925.155264
_symmetry_space_group_name_H-M "I B C A "
_symmetry_group_IT_number 73
_symmetry_cell_setting 'orthorhombic'
loop_
_space_group_symop_operation_xyz
x,y,z
-x,1/2-y,z
x,-y,1/2-z
1/2-x,y,-z
-x,-y,-z
x,1/2+y,-z
-x,y,1/2+z
1/2+x,-y,z
1/2+x,1/2+y,1/2+z
1/2-x,-y,1/2+z
1/2+x,1/2-y,-z
-x,1/2+y,1/2-z
1/2-x,1/2-y,1/2-z
1/2+x,y,1/2-z
1/2-x,1/2+y,z
x,1/2-y,1/2+z
loop_
_atom_site_type_symbol
_atom_site_label
_atom_site_fract_x
_atom_site_fract_y
_atom_site_fract_z
Si Si1 0.883976 0.249999 0.854365
Si Si2 0.500000 0.750000 0.530075
Si Si3 0.061789 0.750000 0.232010
Si Si4 0.227331 0.749988 0.948312
Si Si5 0.611358 0.250001 0.413048
Si Si6 0.772991 0.750000 0.697163
O O1 0.936904 0.250001 0.822522
O O2 0.882993 0.499857 0.883500
O O3 0.835835 0.249999 0.816474
O O4 0.882993 0.000140 0.883500
O O5 0.500000 0.500000 0.500000
O O6 0.445781 0.749999 0.560904
O O7 0.087747 0.500000 0.250000
O O8 0.000000 0.750000 0.250114
O O9 0.087747 0.000000 0.250000
O O10 0.249999 0.499985 0.926775
O O11 0.162684 0.749997 0.947154
O O12 0.250000 0.749985 0.000000
O O13 0.750000 0.750000 0.750000
O O14 0.750000 0.500000 0.677106
#
# Coordination Sequence:
#
# PCOD9532457 Si02
#       6
#    16   8  16  16  16  16
#     4  12  26  43  73 103 148 180 237 305 362 408
#     4  12  30  52  84 106 152 196 246 292 374 480
#     4  10  23  41  67  96 131 185 240 279 339 415
#     4  10  23  42  73  99 139 181 226 291 355 443
#     4  12  28  46  74 115 141 187 241 303 377 423
#     4  10  23  40  65  96 141 196 240 286 350 431
#
# _framework density 22.419495000000001
#
# number of rings (size 3 to 8) (size 9 to 14) (size 15 to 20)
#    0.000    1.091    0.000    4.364   12.727    4.364 
#    0.000    0.000    0.000    0.000    0.000    0.000 
#    0.000    0.000    0.000    0.000    0.000    0.000 
#
# Total GULP energy -245696.549239 kJ/mol
# GULP energy per Si atom -5584.012483 kJ/mol
# Density = 2.236847 g / cm^3
# Si number density = 22.419495 Si / 1000 Ang^3
#
#
#
# Elastic Constant Matrix: (Units=GPa)
#
#
# Indices 1 2 3 4 5 6 
#
# 1 170.6167 56.7488 61.9351 0.0000 0.0000 0.0000
# 2 56.7488 261.5426 67.8167 0.0000 0.0000 0.0000
# 3 61.9351 67.8167 133.1977 0.0000 0.0000 0.0000
# 4 0.0000 0.0000 0.0000 1.8613 0.0000 0.0000
# 5 0.0000 0.0000 0.0000 0.0000 36.4133 0.0000
# 6 0.0000 0.0000 0.0000 0.0000 0.0000 3.3372
#
#
#
# Elastic Compliance Matrix: (Units=1/GPa)
#
#
# Indices 1 2 3 4 5 6 
#
# 1 0.007193 -0.000799 -0.002938 0.000000 0.000000 0.000000
# 2 -0.000799 0.004494 -0.001916 0.000000 0.000000 0.000000
# 3 -0.002938 -0.001916 0.009850 0.000000 0.000000 0.000000
# 4 0.000000 0.000000 0.000000 0.537272 0.000000 0.000000
# 5 0.000000 0.000000 0.000000 0.000000 0.027463 0.000000
# 6 0.000000 0.000000 0.000000 0.000000 0.000000 0.299654
#
#
# Mechanical properties :
#
#
# Convention : Reuss Voigt Hill
#
# Bulk Modulus (GPa) = 97.75421 104.26204 101.00813
# Shear Modulus (GPa) = 5.55160 33.57943 19.56551
#
# Velocity S-wave (km/s) = 1.57531 3.87431 2.95736
# Velocity P-wave (km/s) = 6.85608 8.16209 7.53743
#
# Compressibility (1/GPa) = 0.01022974
#
# Stress axis : x y z
#
# Youngs Moduli (GPa) = 139.01705 222.53096 101.52772
#
# Poissons Ratio (x) = 0.17780 0.29829
# Poissons Ratio (y) = 0.11107 0.19457
# Poissons Ratio (z) = 0.40843 0.42647
#
# Static dielectric constant tensor:
#      x y z
#    x 1.873400 0.000000 0.000000 
#    y 0.000000 1.846770 0.000000 
#    z 0.000000 0.000000 1.791100 
# 
# From -- ./inp_files/30631.got.cif
#   From: 2010.05.17/outbox.cif.g08.bks.cpg/sg73_16_cif.got.tgz:30631.got - 2010.06.03 17:35:07.
