data_PCOD9532450
_publ_section_title
;
Structure prediction by ZEFSAII (Michael W. Deem and Ramdas Pophale) SiO2 
 PCOD9532450
Probable space group: I B C A 
;
_chemical_formula_sum "Si O2"
_cell_formula_units_Z 88
_cell_length_a 14.538428
_cell_length_b 9.341492
_cell_length_c 31.341270
_cell_angle_alpha 90.000000
_cell_angle_beta 90.000000
_cell_angle_gamma 90.000000
_cell_volume 4256.476961
_symmetry_space_group_name_H-M "I B C A "
_symmetry_group_IT_number 73
_symmetry_cell_setting 'orthorhombic'
loop_
_space_group_symop_operation_xyz
x,y,z
-x,1/2-y,z
x,-y,1/2-z
1/2-x,y,-z
-x,-y,-z
x,1/2+y,-z
-x,y,1/2+z
1/2+x,-y,z
1/2+x,1/2+y,1/2+z
1/2-x,-y,1/2+z
1/2+x,1/2-y,-z
-x,1/2+y,1/2-z
1/2-x,1/2-y,1/2-z
1/2+x,y,1/2-z
1/2-x,1/2+y,z
x,1/2-y,1/2+z
loop_
_atom_site_type_symbol
_atom_site_label
_atom_site_fract_x
_atom_site_fract_y
_atom_site_fract_z
Si Si1 0.669428 0.862995 0.943577
Si Si2 0.526977 0.500000 0.250000
Si Si3 0.263129 0.159147 0.852214
Si Si4 0.250000 0.887676 0.000000
Si Si5 0.636406 0.928496 0.677355
Si Si6 0.000000 0.250000 0.400666
Si Si7 0.554277 0.978994 0.338138
O O1 0.732459 0.859898 0.901127
O O2 0.691703 0.720592 0.970750
O O3 0.564770 0.849592 0.928656
O O4 0.691167 0.004722 0.970516
O O5 0.595401 0.394559 0.275911
O O6 0.465683 0.560851 0.288593
O O7 0.288232 0.320586 0.840015
O O8 0.183553 0.084167 0.824392
O O9 0.358477 0.078090 0.842909
O O10 0.541941 0.939704 0.650323
O O11 0.062236 0.154839 0.369306
#
# Coordination Sequence:
#
# PCOD9532450 Si02
#       7
#    16   8  16   8  16   8  16
#     4  11  23  42  67  96 126 168 209 270 321 408
#     4   8  22  42  54  94 138 162 230 270 316 376
#     4  12  22  41  71  90 130 177 223 263 335 389
#     4  10  24  44  66  94 130 162 208 260 342 388
#     4  10  23  41  59  98 125 175 225 268 326 381
#     4  12  22  40  68  94 134 166 222 270 322 386
#     4  10  23  40  60  96 130 176 218 276 316 380
#
# _framework density 20.674375000000001
#
# number of rings (size 3 to 8) (size 9 to 14) (size 15 to 20)
#    1.091    0.364    1.818    3.818    0.000    3.636 
#    0.000    0.000    0.000    0.000    0.000    0.000 
#    0.000    0.000    0.000    0.000    0.000    0.000 
#
# Total GULP energy -245347.019034 kJ/mol
# GULP energy per Si atom -5576.068614 kJ/mol
# Density = 2.062732 g / cm^3
# Si number density = 20.674375 Si / 1000 Ang^3
#
#
#
# Elastic Constant Matrix: (Units=GPa)
#
#
# Indices 1 2 3 4 5 6 
#
# 1 94.5553 13.2816 24.3880 0.0000 0.0000 0.0000
# 2 13.2816 73.9540 27.1393 0.0000 0.0000 0.0000
# 3 24.3880 27.1393 102.0844 0.0000 0.0000 0.0000
# 4 0.0000 0.0000 0.0000 20.7850 0.0000 0.0000
# 5 0.0000 0.0000 0.0000 0.0000 21.1350 0.0000
# 6 0.0000 0.0000 0.0000 0.0000 0.0000 30.1916
#
#
#
# Elastic Compliance Matrix: (Units=1/GPa)
#
#
# Indices 1 2 3 4 5 6 
#
# 1 0.011359 -0.001157 -0.002406 0.000000 0.000000 0.000000
# 2 -0.001157 0.015102 -0.003738 0.000000 0.000000 0.000000
# 3 -0.002406 -0.003738 0.011364 0.000000 0.000000 0.000000
# 4 0.000000 0.000000 0.000000 0.048112 0.000000 0.000000
# 5 0.000000 0.000000 0.000000 0.000000 0.047315 0.000000
# 6 0.000000 0.000000 0.000000 0.000000 0.000000 0.033122
#
#
# Mechanical properties :
#
#
# Convention : Reuss Voigt Hill
#
# Bulk Modulus (GPa) = 43.06240 44.46793 43.76516
# Shear Modulus (GPa) = 26.49471 28.14130 27.31801
#
# Velocity S-wave (km/s) = 3.58372 3.69340 3.63898
# Velocity P-wave (km/s) = 6.16427 6.30426 6.23466
#
# Compressibility (1/GPa) = 0.02322212
#
# Stress axis : x y z
#
# Youngs Moduli (GPa) = 88.03652 66.21814 87.99345
#
# Poissons Ratio (x) = 0.07661 0.21172
# Poissons Ratio (y) = 0.10186 0.32895
# Poissons Ratio (z) = 0.21182 0.24755
#
# Static dielectric constant tensor:
#      x y z
#    x 1.720640 0.000000 0.000000 
#    y 0.000000 1.785240 0.000000 
#    z 0.000000 0.000000 1.748970 
# 
# From -- ./inp_files/34529.got.cif
#   From: 2010.05.17/outbox.cif.g08.bks.cpg/sg73_18_cif.got.tgz:34529.got - 2010.06.03 17:35:07.
