data_PCOD9532906
_publ_section_title
;
Structure prediction by ZEFSAII (Michael W. Deem and Ramdas Pophale) SiO2 
 PCOD9532906
Probable space group: I B C A 
;
_chemical_formula_sum "Si O2"
_cell_formula_units_Z 120
_cell_length_a 11.347485
_cell_length_b 18.404290
_cell_length_c 26.962684
_cell_angle_alpha 90.000000
_cell_angle_beta 90.000000
_cell_angle_gamma 90.000000
_cell_volume 5630.951764
_symmetry_space_group_name_H-M "I B C A "
_symmetry_group_IT_number 73
_symmetry_cell_setting 'orthorhombic'
loop_
_space_group_symop_operation_xyz
x,y,z
-x,1/2-y,z
x,-y,1/2-z
1/2-x,y,-z
-x,-y,-z
x,1/2+y,-z
-x,y,1/2+z
1/2+x,-y,z
1/2+x,1/2+y,1/2+z
1/2-x,-y,1/2+z
1/2+x,1/2-y,-z
-x,1/2+y,1/2-z
1/2-x,1/2-y,1/2-z
1/2+x,y,1/2-z
1/2-x,1/2+y,z
x,1/2-y,1/2+z
loop_
_atom_site_type_symbol
_atom_site_label
_atom_site_fract_x
_atom_site_fract_y
_atom_site_fract_z
Si Si1 0.885404 0.541582 0.521217
Si Si2 0.255097 0.849109 0.920787
Si Si3 0.046272 0.329588 0.001704
Si Si4 0.697320 0.907022 0.193779
Si Si5 0.035677 0.500000 0.750000
Si Si6 0.321481 0.513703 0.626459
Si Si7 0.368052 0.613634 0.719994
Si Si8 0.127486 0.749858 0.344542
O O1 0.750000 0.529587 0.500000
O O2 0.886310 0.516476 0.578222
O O3 0.000000 0.500000 0.500000
O O4 0.929874 0.622809 0.509288
O O5 0.366775 0.830171 0.954129
O O6 0.272067 0.928204 0.895982
O O7 0.223845 0.787856 0.879886
O O8 0.136107 0.855549 0.954699
O O9 0.000000 0.250000 0.012837
O O10 0.749319 0.892470 0.248497
O O11 0.651474 0.831396 0.172768
O O12 0.612241 0.975530 0.203445
O O13 0.783257 0.941048 0.153947
O O14 0.959105 0.427123 0.756371
O O15 0.374818 0.564654 0.670146
O O16 0.385788 0.695521 0.702544
O O17 0.000000 0.750000 0.370220
#
# Coordination Sequence:
#
# PCOD9532906 Si02
#       8
#    16  16  16  16   8  16  16  16
#     4  12  27  47  75 112 145 192 249 307 370 439
#     4  10  24  46  68 100 140 191 237 306 370 432
#     4  11  25  46  70  96 150 188 241 302 367 439
#     4  12  24  43  68 103 140 179 240 299 357 443
#     4  12  20  40  72  94 136 182 232 286 346 434
#     4  11  23  43  72  99 140 183 238 296 365 432
#     4  11  23  45  64 101 139 187 230 292 367 427
#     4  11  24  41  70 100 136 183 243 293 368 442
#
# _framework density 21.310784999999999
#
# number of rings (size 3 to 8) (size 9 to 14) (size 15 to 20)
#    0.000    0.800    5.333    1.600    3.733    3.200 
#    0.000    0.000    0.000    0.000    0.000    0.000 
#    0.000    0.000    0.000    0.000    0.000    0.000 
#
# Total GULP energy -334203.671568 kJ/mol
# GULP energy per Si atom -5570.061193 kJ/mol
# Density = 2.126228 g / cm^3
# Si number density = 21.310785 Si / 1000 Ang^3
#
#
#
# Elastic Constant Matrix: (Units=GPa)
#
#
# Indices 1 2 3 4 5 6 
#
# 1 87.6108 25.8511 46.0092 0.0000 0.0000 0.0000
# 2 25.8511 145.9754 53.4061 0.0000 0.0000 0.0000
# 3 46.0092 53.4061 109.5346 0.0000 0.0000 0.0000
# 4 0.0000 0.0000 0.0000 39.6135 0.0000 0.0000
# 5 0.0000 0.0000 0.0000 0.0000 18.0445 0.0000
# 6 0.0000 0.0000 0.0000 0.0000 0.0000 28.5628
#
#
#
# Elastic Compliance Matrix: (Units=1/GPa)
#
#
# Indices 1 2 3 4 5 6 
#
# 1 0.014665 -0.000418 -0.005956 0.000000 0.000000 0.000000
# 2 -0.000418 0.008350 -0.003896 0.000000 0.000000 0.000000
# 3 -0.005956 -0.003896 0.013531 0.000000 0.000000 0.000000
# 4 0.000000 0.000000 0.000000 0.025244 0.000000 0.000000
# 5 0.000000 0.000000 0.000000 0.000000 0.055419 0.000000
# 6 0.000000 0.000000 0.000000 0.000000 0.000000 0.035011
#
#
# Mechanical properties :
#
#
# Convention : Reuss Voigt Hill
#
# Bulk Modulus (GPa) = 62.47539 65.96152 64.21845
# Shear Modulus (GPa) = 28.07505 31.76778 29.92142
#
# Velocity S-wave (km/s) = 3.63355 3.86513 3.75113
# Velocity P-wave (km/s) = 6.85446 7.13711 6.99721
#
# Compressibility (1/GPa) = 0.01600630
#
# Stress axis : x y z
#
# Youngs Moduli (GPa) = 68.18753 119.76491 73.90551
#
# Poissons Ratio (x) = 0.05006 0.44020
# Poissons Ratio (y) = 0.02850 0.28790
# Poissons Ratio (z) = 0.40615 0.46655
#
# Static dielectric constant tensor:
#      x y z
#    x 1.917330 0.000000 0.000000 
#    y 0.000000 1.811520 0.000000 
#    z 0.000000 0.000000 1.801960 
# 
# From -- ./inp_files/31842.got.cif
#   From: 2010.05.17/outbox.cif.g08.bks.cpg/sg73_16_cif.got.tgz:31842.got - 2010.06.03 17:35:07.
