data_PCOD9532533
_publ_section_title
;
Structure prediction by ZEFSAII (Michael W. Deem and Ramdas Pophale) SiO2 
 PCOD9532533
Probable space group: I B C A 
;
_chemical_formula_sum "Si O2"
_cell_formula_units_Z 64
_cell_length_a 5.396861
_cell_length_b 21.191329
_cell_length_c 22.049039
_cell_angle_alpha 90.000000
_cell_angle_beta 90.000000
_cell_angle_gamma 90.000000
_cell_volume 2521.674881
_symmetry_space_group_name_H-M "I B C A "
_symmetry_group_IT_number 73
_symmetry_cell_setting 'orthorhombic'
loop_
_space_group_symop_operation_xyz
x,y,z
-x,1/2-y,z
x,-y,1/2-z
1/2-x,y,-z
-x,-y,-z
x,1/2+y,-z
-x,y,1/2+z
1/2+x,-y,z
1/2+x,1/2+y,1/2+z
1/2-x,-y,1/2+z
1/2+x,1/2-y,-z
-x,1/2+y,1/2-z
1/2-x,1/2-y,1/2-z
1/2+x,y,1/2-z
1/2-x,1/2+y,z
x,1/2-y,1/2+z
loop_
_atom_site_type_symbol
_atom_site_label
_atom_site_fract_x
_atom_site_fract_y
_atom_site_fract_z
Si Si1 0.375291 0.141600 0.396431
Si Si2 0.250000 0.652967 0.000000
Si Si3 0.380385 0.848550 0.730103
Si Si4 0.500000 0.250000 0.590371
Si Si5 0.627426 0.959535 0.328268
O O1 0.524195 0.126640 0.458292
O O2 0.567242 0.138319 0.339970
O O3 0.233966 0.208766 0.385351
O O4 0.170201 0.087872 0.384310
O O5 0.378958 0.697568 0.951540
O O6 0.619391 0.816071 0.759188
O O7 0.362345 0.913007 0.770151
O O8 0.368149 0.995610 0.329059
#
# Coordination Sequence:
#
# PCOD9532533 Si02
#       5
#    16   8  16   8  16
#     4  11  26  44  82 116 160 209 277 340 404 490
#     4  12  24  50  78 112 150 214 276 336 414 490
#     4  10  23  42  70 112 151 201 257 315 391 471
#     4  12  24  50  78 112 150 214 274 338 414 492
#     4  11  25  47  77 114 159 213 262 316 401 490
#
# _framework density 25.379957999999998
#
# number of rings (size 3 to 8) (size 9 to 14) (size 15 to 20)
#    0.000    1.000    2.500    3.000   10.500   12.000 
#    0.000    6.250    0.000    0.000    0.000    0.000 
#    0.000    0.000    0.000    0.000    0.000    0.000 
#
# Total GULP energy -178782.851452 kJ/mol
# GULP energy per Si atom -5586.964108 kJ/mol
# Density = 2.532219 g / cm^3
# Si number density = 25.379958 Si / 1000 Ang^3
#
#
#
# Elastic Constant Matrix: (Units=GPa)
#
#
# Indices 1 2 3 4 5 6 
#
# 1 209.9020 70.1866 53.7706 0.0000 0.0000 0.0000
# 2 70.1866 112.9508 59.5382 0.0000 0.0000 0.0000
# 3 53.7706 59.5382 106.9496 0.0000 0.0000 0.0000
# 4 0.0000 0.0000 0.0000 185.8267 0.0000 0.0000
# 5 0.0000 0.0000 0.0000 0.0000 -86.7131 0.0000
# 6 0.0000 0.0000 0.0000 0.0000 0.0000 43.7619
#
#
#
# Elastic Compliance Matrix: (Units=1/GPa)
#
#
# Indices 1 2 3 4 5 6 
#
# 1 0.006151 -0.003103 -0.001365 0.000000 0.000000 0.000000
# 2 -0.003103 0.014095 -0.006287 0.000000 0.000000 0.000000
# 3 -0.001365 -0.006287 0.013537 0.000000 0.000000 0.000000
# 4 0.000000 0.000000 0.000000 0.005381 0.000000 0.000000
# 5 0.000000 0.000000 0.000000 0.000000 -0.011532 0.000000
# 6 0.000000 0.000000 0.000000 0.000000 0.000000 0.022851
#
#
# Mechanical properties :
#
#
# Convention : Reuss Voigt Hill
#
# Bulk Modulus (GPa) = 81.47790 88.53259 85.00525
# Shear Modulus (GPa) = 65.71662 44.99557 55.35610
#
# Velocity S-wave (km/s) = 5.09405 4.21512 4.67529
# Velocity P-wave (km/s) = 8.17142 7.65822 7.91898
#
# Compressibility (1/GPa) = 0.01227327
#
# Stress axis : x y z
#
# Youngs Moduli (GPa) = 162.56514 70.94578 73.87403
#
# Poissons Ratio (x) = 0.22012 0.10087
# Poissons Ratio (y) = 0.50438 0.46443
# Poissons Ratio (z) = 0.22198 0.44603
#
# Static dielectric constant tensor:
#      x y z
#    x 2.819730 0.000000 0.000000 
#    y 0.000000 2.033100 0.000000 
#    z 0.000000 0.000000 2.003080 
# 
# From -- ./inp_files/27964.got.cif
#   From: 2010.05.17/outbox.cif.g08.bks.cpg/sg73_14_cif.got.tgz:27964.got - 2010.06.03 17:35:07.
