data_PCOD9532549
_publ_section_title
;
Structure prediction by ZEFSAII (Michael W. Deem and Ramdas Pophale) SiO2 
 PCOD9532549
Probable space group: I B C A 
;
_chemical_formula_sum "Si O2"
_cell_formula_units_Z 64
_cell_length_a 9.814284
_cell_length_b 10.323083
_cell_length_c 24.191106
_cell_angle_alpha 90.000000
_cell_angle_beta 90.000000
_cell_angle_gamma 90.000000
_cell_volume 2450.889690
_symmetry_space_group_name_H-M "I B C A "
_symmetry_group_IT_number 73
_symmetry_cell_setting 'orthorhombic'
loop_
_space_group_symop_operation_xyz
x,y,z
-x,1/2-y,z
x,-y,1/2-z
1/2-x,y,-z
-x,-y,-z
x,1/2+y,-z
-x,y,1/2+z
1/2+x,-y,z
1/2+x,1/2+y,1/2+z
1/2-x,-y,1/2+z
1/2+x,1/2-y,-z
-x,1/2+y,1/2-z
1/2-x,1/2-y,1/2-z
1/2+x,y,1/2-z
1/2-x,1/2+y,z
x,1/2-y,1/2+z
loop_
_atom_site_type_symbol
_atom_site_label
_atom_site_fract_x
_atom_site_fract_y
_atom_site_fract_z
Si Si1 0.873499 0.021300 0.190343
Si Si2 0.885814 0.660440 0.487671
Si Si3 0.444736 0.451858 0.089293
Si Si4 0.341866 0.261155 0.175870
O O1 0.977497 0.026244 0.139159
O O2 0.793955 0.887004 0.176190
O O3 0.943041 0.000000 0.250000
O O4 0.771603 0.141685 0.199355
O O5 0.750000 0.737973 0.500000
O O6 0.952107 0.600558 0.542726
O O7 0.000000 0.750000 0.461600
O O8 0.850188 0.548034 0.444809
O O9 0.368794 0.331487 0.117238
O O10 0.500000 0.250000 0.198104
#
# Coordination Sequence:
#
# PCOD9532549 Si02
#       4
#    16  16  16  16
#     4  11  23  43  70 101 141 191 245 307 375 451
#     4  11  24  43  70 104 144 193 250 312 383 461
#     4  10  24  43  68 100 142 190 244 310 378 452
#     4  10  23  43  66  97 139 184 239 303 371 449
#
# _framework density 26.112964999999999
#
# number of rings (size 3 to 8) (size 9 to 14) (size 15 to 20)
#    0.000    1.500    0.000    4.500    0.000   16.000 
#    0.000    7.500    0.000    0.000    0.000    0.000 
#    0.000    0.000    0.000    0.000    0.000    0.000 
#
# Total GULP energy -178835.280835 kJ/mol
# GULP energy per Si atom -5588.602526 kJ/mol
# Density = 2.605353 g / cm^3
# Si number density = 26.112965 Si / 1000 Ang^3
#
#
#
# Elastic Constant Matrix: (Units=GPa)
#
#
# Indices 1 2 3 4 5 6 
#
# 1 28.6449 21.9930 -10.5378 0.0000 0.0000 0.0000
# 2 21.9930 77.0103 -7.4309 0.0000 0.0000 0.0000
# 3 -10.5378 -7.4309 137.2131 0.0000 0.0000 0.0000
# 4 0.0000 0.0000 0.0000 34.2433 0.0000 0.0000
# 5 0.0000 0.0000 0.0000 0.0000 22.3728 0.0000
# 6 0.0000 0.0000 0.0000 0.0000 0.0000 28.6241
#
#
#
# Elastic Compliance Matrix: (Units=1/GPa)
#
#
# Indices 1 2 3 4 5 6 
#
# 1 0.045777 -0.012801 0.002822 0.000000 0.000000 0.000000
# 2 -0.012801 0.016633 -0.000082 0.000000 0.000000 0.000000
# 3 0.002822 -0.000082 0.007500 0.000000 0.000000 0.000000
# 4 0.000000 0.000000 0.000000 0.029203 0.000000 0.000000
# 5 0.000000 0.000000 0.000000 0.000000 0.044697 0.000000
# 6 0.000000 0.000000 0.000000 0.000000 0.000000 0.034936
#
#
# Mechanical properties :
#
#
# Convention : Reuss Voigt Hill
#
# Bulk Modulus (GPa) = 20.08497 27.87966 23.98231
# Shear Modulus (GPa) = 23.20583 32.97097 28.08840
#
# Velocity S-wave (km/s) = 2.98429 3.55720 3.28327
# Velocity P-wave (km/s) = 4.42526 5.25084 4.85563
#
# Compressibility (1/GPa) = 0.04978848
#
# Stress axis : x y z
#
# Youngs Moduli (GPa) = 21.84518 60.12130 133.32925
#
# Poissons Ratio (x) = 0.76960 -0.37630
# Poissons Ratio (y) = 0.27964 0.01097
# Poissons Ratio (z) = -0.06165 0.00495
#
# Static dielectric constant tensor:
#      x y z
#    x 2.109170 0.000000 0.000000 
#    y 0.000000 2.112600 0.000000 
#    z 0.000000 0.000000 2.077480 
# 
# From -- ./inp_files/12467.got.cif
#   From: 2010.05.17/outbox.cif.g08.bks.cpg/sg73_7_cif.got.tgz:12467.got - 2010.06.03 17:35:07.
