data_PCOD9532529
_publ_section_title
;
Structure prediction by ZEFSAII (Michael W. Deem and Ramdas Pophale) SiO2 
 PCOD9532529
Probable space group: I B C A 
;
_chemical_formula_sum "Si O2"
_cell_formula_units_Z 64
_cell_length_a 17.752664
_cell_length_b 9.619662
_cell_length_c 14.804020
_cell_angle_alpha 90.000000
_cell_angle_beta 90.000000
_cell_angle_gamma 90.000000
_cell_volume 2528.150998
_symmetry_space_group_name_H-M "I B C A "
_symmetry_group_IT_number 73
_symmetry_cell_setting 'orthorhombic'
loop_
_space_group_symop_operation_xyz
x,y,z
-x,1/2-y,z
x,-y,1/2-z
1/2-x,y,-z
-x,-y,-z
x,1/2+y,-z
-x,y,1/2+z
1/2+x,-y,z
1/2+x,1/2+y,1/2+z
1/2-x,-y,1/2+z
1/2+x,1/2-y,-z
-x,1/2+y,1/2-z
1/2-x,1/2-y,1/2-z
1/2+x,y,1/2-z
1/2-x,1/2+y,z
x,1/2-y,1/2+z
loop_
_atom_site_type_symbol
_atom_site_label
_atom_site_fract_x
_atom_site_fract_y
_atom_site_fract_z
Si Si1 0.587203 0.583074 0.163923
Si Si2 0.062969 0.629492 0.022210
Si Si3 0.213090 0.908400 0.597065
Si Si4 0.130154 0.885742 0.326699
O O1 0.560887 0.500000 0.250000
O O2 0.546256 0.512233 0.078385
O O3 0.673686 0.543440 0.140124
O O4 0.586457 0.742356 0.189318
O O5 0.099340 0.583914 0.927231
O O6 0.000000 0.750000 0.021860
O O7 0.138645 0.685701 0.077439
O O8 0.250000 0.938227 0.500000
O O9 0.280379 0.860196 0.660599
O O10 0.118264 0.000000 0.250000
#
# Coordination Sequence:
#
# PCOD9532529 Si02
#       4
#    16  16  16  16
#     4  10  23  42  69 112 149 200 264 329 399 476
#     4   9  22  47  71 105 156 215 267 327 394 484
#     4   8  19  39  66 113 149 207 261 334 400 473
#     4  11  23  42  73 117 159 204 263 336 413 478
#
# _framework density 25.314941999999999
#
# number of rings (size 3 to 8) (size 9 to 14) (size 15 to 20)
#    1.500    1.000    0.000    0.750    0.000   10.000 
#    0.000    2.500    0.000    1.500    0.000    1.750 
#    0.000    0.000    0.000    2.500    0.000    0.000 
#
# Total GULP energy -178462.613746 kJ/mol
# GULP energy per Si atom -5576.956680 kJ/mol
# Density = 2.525732 g / cm^3
# Si number density = 25.314942 Si / 1000 Ang^3
#
#
#
# Elastic Constant Matrix: (Units=GPa)
#
#
# Indices 1 2 3 4 5 6 
#
# 1 203.0399 56.8945 25.6324 0.0000 0.0000 0.0000
# 2 56.8945 161.2389 99.4940 0.0000 0.0000 0.0000
# 3 25.6324 99.4940 163.2804 0.0000 0.0000 0.0000
# 4 0.0000 0.0000 0.0000 36.3444 0.0000 0.0000
# 5 0.0000 0.0000 0.0000 0.0000 -24.5651 0.0000
# 6 0.0000 0.0000 0.0000 0.0000 0.0000 39.1155
#
#
#
# Elastic Compliance Matrix: (Units=1/GPa)
#
#
# Indices 1 2 3 4 5 6 
#
# 1 0.005492 -0.002253 0.000511 0.000000 0.000000 0.000000
# 2 -0.002253 0.010863 -0.006266 0.000000 0.000000 0.000000
# 3 0.000511 -0.006266 0.009862 0.000000 0.000000 0.000000
# 4 0.000000 0.000000 0.000000 0.027515 0.000000 0.000000
# 5 0.000000 0.000000 0.000000 0.000000 -0.040708 0.000000
# 6 0.000000 0.000000 0.000000 0.000000 0.000000 0.025565
#
#
# Mechanical properties :
#
#
# Convention : Reuss Voigt Hill
#
# Bulk Modulus (GPa) = 98.02613 99.06677 98.54645
# Shear Modulus (GPa) = 86.19769 33.21485 59.70627
#
# Velocity S-wave (km/s) = 5.84158 3.62617 4.86175
# Velocity P-wave (km/s) = 9.18180 7.53332 8.39810
#
# Compressibility (1/GPa) = 0.01020136
#
# Stress axis : x y z
#
# Youngs Moduli (GPa) = 182.08301 92.05224 101.39601
#
# Poissons Ratio (x) = 0.20740 -0.05179
# Poissons Ratio (y) = 0.41024 0.63533
# Poissons Ratio (z) = -0.09300 0.57679
#
# Static dielectric constant tensor:
#      x y z
#    x 2.098530 0.000000 0.000000 
#    y 0.000000 1.978290 0.000000 
#    z 0.000000 0.000000 2.230940 
# 
# From -- ./inp_files/17622.got.cif
#   From: 2010.05.17/outbox.cif.g08.bks.cpg/sg73_9_cif.got.tgz:17622.got - 2010.06.03 17:35:07.
