data_PCOD9532664
_publ_section_title
;
Structure prediction by ZEFSAII (Michael W. Deem and Ramdas Pophale) SiO2 
 PCOD9532664
Probable space group: I B C A 
;
_chemical_formula_sum "Si O2"
_cell_formula_units_Z 72
_cell_length_a 9.957977
_cell_length_b 13.082324
_cell_length_c 24.437504
_cell_angle_alpha 90.000000
_cell_angle_beta 90.000000
_cell_angle_gamma 90.000000
_cell_volume 3183.558725
_symmetry_space_group_name_H-M "I B C A "
_symmetry_group_IT_number 73
_symmetry_cell_setting 'orthorhombic'
loop_
_space_group_symop_operation_xyz
x,y,z
-x,1/2-y,z
x,-y,1/2-z
1/2-x,y,-z
-x,-y,-z
x,1/2+y,-z
-x,y,1/2+z
1/2+x,-y,z
1/2+x,1/2+y,1/2+z
1/2-x,-y,1/2+z
1/2+x,1/2-y,-z
-x,1/2+y,1/2-z
1/2-x,1/2-y,1/2-z
1/2+x,y,1/2-z
1/2-x,1/2+y,z
x,1/2-y,1/2+z
loop_
_atom_site_type_symbol
_atom_site_label
_atom_site_fract_x
_atom_site_fract_y
_atom_site_fract_z
Si Si1 0.819058 0.351328 0.639395
Si Si2 0.620717 0.670213 0.381978
Si Si3 0.126681 0.984527 0.961387
Si Si4 0.000000 0.250000 0.224157
Si Si5 0.077186 0.915701 0.203360
O O1 0.747975 0.241779 0.629392
O O2 0.884651 0.398623 0.585491
O O3 0.926926 0.332095 0.686378
O O4 0.699537 0.425351 0.660951
O O5 0.500000 0.750000 0.395817
O O6 0.649687 0.590963 0.429807
O O7 0.558750 0.604750 0.331165
O O8 0.250000 0.956718 0.000000
O O9 0.000000 0.000000 0.000000
O O10 0.100573 0.189989 0.263775
O O11 0.071361 0.000000 0.250000
#
# Coordination Sequence:
#
# PCOD9532664 Si02
#       5
#    16  16  16   8  16
#     4  11  26  44  67 106 146 180 245 298 356 444
#     4  10  23  47  71 102 148 181 237 302 354 442
#     4  12  28  48  74 103 138 192 249 308 373 425
#     4  12  24  42  70 104 144 190 232 278 372 438
#     4  11  23  42  72 104 147 192 227 289 362 439
#
# _framework density 22.616199999999999
#
# number of rings (size 3 to 8) (size 9 to 14) (size 15 to 20)
#    0.000    0.889    3.333    4.667    6.222    3.556 
#    0.000    0.000    0.000    0.000    0.000    0.000 
#    0.000    0.000    0.000    0.000    0.000    0.000 
#
# Total GULP energy -201422.786977 kJ/mol
# GULP energy per Si atom -5595.077416 kJ/mol
# Density = 2.256472 g / cm^3
# Si number density = 22.616200 Si / 1000 Ang^3
#
#
#
# Elastic Constant Matrix: (Units=GPa)
#
#
# Indices 1 2 3 4 5 6 
#
# 1 71.2166 4.1065 30.9636 0.0000 0.0000 0.0000
# 2 4.1065 65.2647 36.2516 0.0000 0.0000 0.0000
# 3 30.9636 36.2516 123.9141 0.0000 0.0000 0.0000
# 4 0.0000 0.0000 0.0000 57.7246 0.0000 0.0000
# 5 0.0000 0.0000 0.0000 0.0000 36.6924 0.0000
# 6 0.0000 0.0000 0.0000 0.0000 0.0000 25.8638
#
#
#
# Elastic Compliance Matrix: (Units=1/GPa)
#
#
# Indices 1 2 3 4 5 6 
#
# 1 0.015865 0.001437 -0.004385 0.000000 0.000000 0.000000
# 2 0.001437 0.018425 -0.005750 0.000000 0.000000 0.000000
# 3 -0.004385 -0.005750 0.010848 0.000000 0.000000 0.000000
# 4 0.000000 0.000000 0.000000 0.017324 0.000000 0.000000
# 5 0.000000 0.000000 0.000000 0.000000 0.027254 0.000000
# 6 0.000000 0.000000 0.000000 0.000000 0.000000 0.038664
#
#
# Mechanical properties :
#
#
# Convention : Reuss Voigt Hill
#
# Bulk Modulus (GPa) = 36.04348 44.78208 40.41278
# Shear Modulus (GPa) = 32.25344 36.66108 34.45726
#
# Velocity S-wave (km/s) = 3.78050 4.03054 3.90752
# Velocity P-wave (km/s) = 5.91843 6.44238 6.18596
#
# Compressibility (1/GPa) = 0.02774427
#
# Stress axis : x y z
#
# Youngs Moduli (GPa) = 63.03081 54.27281 92.18389
#
# Poissons Ratio (x) = -0.07801 0.40422
# Poissons Ratio (y) = -0.09060 0.53002
# Poissons Ratio (z) = 0.27638 0.31205
#
# Static dielectric constant tensor:
#      x y z
#    x 1.860490 0.000000 0.000000 
#    y 0.000000 1.895000 0.000000 
#    z 0.000000 0.000000 1.803980 
# 
# From -- ./inp_files/25259.got.cif
#   From: 2010.05.17/outbox.cif.g08.bks.cpg/sg73_13_cif.got.tgz:25259.got - 2010.06.03 17:35:07.
