data_PCOD9532125
_publ_section_title
;
Structure prediction by ZEFSAII (Michael W. Deem and Ramdas Pophale) SiO2 
 PCOD9532125
Probable space group: I B C A 
;
_chemical_formula_sum "Si O2"
_cell_formula_units_Z 104
_cell_length_a 9.213047
_cell_length_b 23.892877
_cell_length_c 23.912476
_cell_angle_alpha 90.000000
_cell_angle_beta 90.000000
_cell_angle_gamma 90.000000
_cell_volume 5263.762445
_symmetry_space_group_name_H-M "I B C A "
_symmetry_group_IT_number 73
_symmetry_cell_setting 'orthorhombic'
loop_
_space_group_symop_operation_xyz
x,y,z
-x,1/2-y,z
x,-y,1/2-z
1/2-x,y,-z
-x,-y,-z
x,1/2+y,-z
-x,y,1/2+z
1/2+x,-y,z
1/2+x,1/2+y,1/2+z
1/2-x,-y,1/2+z
1/2+x,1/2-y,-z
-x,1/2+y,1/2-z
1/2-x,1/2-y,1/2-z
1/2+x,y,1/2-z
1/2-x,1/2+y,z
x,1/2-y,1/2+z
loop_
_atom_site_type_symbol
_atom_site_label
_atom_site_fract_x
_atom_site_fract_y
_atom_site_fract_z
Si Si1 0.154839 0.281304 0.915995
Si Si2 0.750000 0.870453 0.500000
Si Si3 0.192640 0.677250 0.888199
Si Si4 0.780055 0.944542 0.934568
Si Si5 0.389310 0.050083 0.405640
Si Si6 0.865747 0.290412 0.778030
Si Si7 0.122930 0.845221 0.837591
O O1 0.149034 0.328174 0.964308
O O2 0.268594 0.230709 0.925934
O O3 0.235368 0.313758 0.863848
O O4 0.000000 0.250000 0.909849
O O5 0.671671 0.910998 0.543918
O O6 0.237527 0.619682 0.917100
O O7 0.291887 0.683810 0.832644
O O8 0.023579 0.675576 0.869758
O O9 0.944118 0.959045 0.919593
O O10 0.683803 0.990056 0.903097
O O11 0.750000 0.950972 0.000000
O O12 0.366729 0.089327 0.351887
O O13 0.750000 0.250000 0.750000
O O14 0.899868 0.333171 0.727756
O O15 0.000000 0.250000 0.790579
#
# Coordination Sequence:
#
# PCOD9532125 Si02
#       7
#    16   8  16  16  16  16  16
#     4  11  23  35  58  90 123 159 208 248 308 379
#     4  10  24  38  58  84 128 160 202 258 318 360
#     4  11  24  38  61  95 125 165 207 252 315 378
#     4  11  24  41  66  87 123 163 210 261 309 376
#     4  10  23  43  63  87 116 166 208 258 312 369
#     4  12  21  39  64  91 128 166 201 247 313 380
#     4  10  22  42  62  86 129 162 202 259 316 366
#
# _framework density 19.757731
#
# number of rings (size 3 to 8) (size 9 to 14) (size 15 to 20)
#    0.000    1.231    3.846    1.385    3.231    3.692 
#    0.000    0.769    0.000    3.692    0.000    0.000 
#    0.000    0.000    0.000    0.000    0.000    0.000 
#
# Total GULP energy -290276.872219 kJ/mol
# GULP energy per Si atom -5582.247543 kJ/mol
# Density = 1.971276 g / cm^3
# Si number density = 19.757731 Si / 1000 Ang^3
#
#
#
# Elastic Constant Matrix: (Units=GPa)
#
#
# Indices 1 2 3 4 5 6 
#
# 1 51.8119 8.7897 -10.5159 0.0000 0.0000 0.0000
# 2 8.7897 70.0154 -1.8956 0.0000 0.0000 0.0000
# 3 -10.5159 -1.8956 39.3479 0.0000 0.0000 0.0000
# 4 0.0000 0.0000 0.0000 47.2896 0.0000 0.0000
# 5 0.0000 0.0000 0.0000 0.0000 12.3706 0.0000
# 6 0.0000 0.0000 0.0000 0.0000 0.0000 36.2401
#
#
#
# Elastic Compliance Matrix: (Units=1/GPa)
#
#
# Indices 1 2 3 4 5 6 
#
# 1 0.020825 -0.002467 0.005447 0.000000 0.000000 0.000000
# 2 -0.002467 0.014593 0.000044 0.000000 0.000000 0.000000
# 3 0.005447 0.000044 0.026872 0.000000 0.000000 0.000000
# 4 0.000000 0.000000 0.000000 0.021146 0.000000 0.000000
# 5 0.000000 0.000000 0.000000 0.000000 0.080837 0.000000
# 6 0.000000 0.000000 0.000000 0.000000 0.000000 0.027594
#
#
# Mechanical properties :
#
#
# Convention : Reuss Voigt Hill
#
# Bulk Modulus (GPa) = 14.63333 17.10350 15.86841
# Shear Modulus (GPa) = 23.96943 30.16652 27.06797
#
# Velocity S-wave (km/s) = 3.48683 3.91169 3.70536
# Velocity P-wave (km/s) = 4.86139 5.39233 5.13373
#
# Compressibility (1/GPa) = 0.06833716
#
# Stress axis : x y z
#
# Youngs Moduli (GPa) = 48.02027 68.52392 37.21338
#
# Poissons Ratio (x) = 0.16904 -0.20269
# Poissons Ratio (y) = 0.11846 -0.00163
# Poissons Ratio (z) = -0.26155 -0.00300
#
# Static dielectric constant tensor:
#      x y z
#    x 1.506760 0.000000 0.000000 
#    y 0.000000 1.684710 0.000000 
#    z 0.000000 0.000000 1.778260 
# 
# From -- ./inp_files/6692.got.cif
#   From: 2010.05.17/outbox.cif.g08.bks.cpg/sg73_4_cif.got.tgz:6692.got - 2010.06.03 17:35:07.
