data_PCOD9532803
_publ_section_title
;
Structure prediction by ZEFSAII (Michael W. Deem and Ramdas Pophale) SiO2 
 PCOD9532803
Probable space group: I B C A 
;
_chemical_formula_sum "Si O2"
_cell_formula_units_Z 112
_cell_length_a 12.620267
_cell_length_b 18.676638
_cell_length_c 21.614934
_cell_angle_alpha 90.000000
_cell_angle_beta 90.000000
_cell_angle_gamma 90.000000
_cell_volume 5094.729824
_symmetry_space_group_name_H-M "I B C A "
_symmetry_group_IT_number 73
_symmetry_cell_setting 'orthorhombic'
loop_
_space_group_symop_operation_xyz
x,y,z
-x,1/2-y,z
x,-y,1/2-z
1/2-x,y,-z
-x,-y,-z
x,1/2+y,-z
-x,y,1/2+z
1/2+x,-y,z
1/2+x,1/2+y,1/2+z
1/2-x,-y,1/2+z
1/2+x,1/2-y,-z
-x,1/2+y,1/2-z
1/2-x,1/2-y,1/2-z
1/2+x,y,1/2-z
1/2-x,1/2+y,z
x,1/2-y,1/2+z
loop_
_atom_site_type_symbol
_atom_site_label
_atom_site_fract_x
_atom_site_fract_y
_atom_site_fract_z
Si Si1 0.726314 0.507674 0.644036
Si Si2 0.395675 0.881705 0.139070
Si Si3 0.750487 0.721424 0.071829
Si Si4 0.944144 0.076275 0.736455
Si Si5 0.063466 0.952449 0.453115
Si Si6 0.545595 0.325427 0.646503
Si Si7 0.653395 0.125857 0.567469
O O1 0.799057 0.437478 0.654207
O O2 0.661347 0.549716 0.698725
O O3 0.635916 0.498997 0.591504
O O4 0.803929 0.563433 0.610972
O O5 0.347871 0.809572 0.110184
O O6 0.473639 0.876615 0.197374
O O7 0.475931 0.913484 0.088121
O O8 0.851753 0.690307 0.106467
O O9 0.768864 0.806329 0.072652
O O10 0.750000 0.698323 0.000000
O O11 0.926487 0.118232 0.799872
O O12 0.999651 0.000000 0.750000
O O13 0.131660 0.900788 0.497684
O O14 0.000000 0.000000 0.500000
O O15 0.500000 0.250000 0.672922
O O16 0.457064 0.351956 0.598751
#
# Coordination Sequence:
#
# PCOD9532803 Si02
#       7
#    16  16  16  16  16  16  16
#     4  11  24  40  65  97 128 172 224 275 335 399
#     4  11  25  40  66  99 128 178 225 274 335 406
#     4  11  24  41  67  99 134 171 220 274 340 410
#     4  11  25  44  62  92 133 170 227 284 334 388
#     4  11  23  39  67  98 135 169 211 278 339 403
#     4  10  24  43  66  93 130 177 224 273 335 403
#     4  11  23  43  65  96 135 173 213 271 338 402
#
# _framework density 21.983501
#
# number of rings (size 3 to 8) (size 9 to 14) (size 15 to 20)
#    0.000    1.143    1.429    3.857    6.000    5.143 
#    0.000    7.857    0.000    0.000    0.000    0.000 
#    0.000    0.000    0.000    0.000    0.000    0.000 
#
# Total GULP energy -312942.270634 kJ/mol
# GULP energy per Si atom -5588.254833 kJ/mol
# Density = 2.193347 g / cm^3
# Si number density = 21.983501 Si / 1000 Ang^3
#
#
#
# Elastic Constant Matrix: (Units=GPa)
#
#
# Indices 1 2 3 4 5 6 
#
# 1 74.6734 24.5595 19.0210 0.0000 0.0000 0.0000
# 2 24.5595 76.8799 39.3977 0.0000 0.0000 0.0000
# 3 19.0210 39.3977 115.3284 0.0000 0.0000 0.0000
# 4 0.0000 0.0000 0.0000 36.2113 0.0000 0.0000
# 5 0.0000 0.0000 0.0000 0.0000 21.2351 0.0000
# 6 0.0000 0.0000 0.0000 0.0000 0.0000 12.1857
#
#
#
# Elastic Compliance Matrix: (Units=1/GPa)
#
#
# Indices 1 2 3 4 5 6 
#
# 1 0.015062 -0.004289 -0.001019 0.000000 0.000000 0.000000
# 2 -0.004289 0.016989 -0.005096 0.000000 0.000000 0.000000
# 3 -0.001019 -0.005096 0.010580 0.000000 0.000000 0.000000
# 4 0.000000 0.000000 0.000000 0.027616 0.000000 0.000000
# 5 0.000000 0.000000 0.000000 0.000000 0.047092 0.000000
# 6 0.000000 0.000000 0.000000 0.000000 0.000000 0.082063
#
#
# Mechanical properties :
#
#
# Convention : Reuss Voigt Hill
#
# Bulk Modulus (GPa) = 45.82555 48.09314 46.95935
# Shear Modulus (GPa) = 21.97950 26.18668 24.08309
#
# Velocity S-wave (km/s) = 3.16542 3.45512 3.31344
# Velocity P-wave (km/s) = 5.85240 6.15155 6.00383
#
# Compressibility (1/GPa) = 0.02182189
#
# Stress axis : x y z
#
# Youngs Moduli (GPa) = 66.39246 58.86089 94.51910
#
# Poissons Ratio (x) = 0.25248 0.09630
# Poissons Ratio (y) = 0.28479 0.48170
# Poissons Ratio (z) = 0.06764 0.29997
#
# Static dielectric constant tensor:
#      x y z
#    x 1.774580 0.000000 0.000000 
#    y 0.000000 1.803750 0.000000 
#    z 0.000000 0.000000 2.009510 
# 
# From -- ./inp_files/29043.got.cif
#   From: 2010.05.17/outbox.cif.g08.bks.cpg/sg73_15_cif.got.tgz:29043.got - 2010.06.03 17:35:07.
