data_PCOD9532020
_publ_section_title
;
Structure prediction by ZEFSAII (Michael W. Deem and Ramdas Pophale) SiO2 
 PCOD9532020
Probable space group: I B C A 
;
_chemical_formula_sum "Si O2"
_cell_formula_units_Z 88
_cell_length_a 21.347478
_cell_length_b 8.311419
_cell_length_c 24.808938
_cell_angle_alpha 90.000000
_cell_angle_beta 90.000000
_cell_angle_gamma 90.000000
_cell_volume 4401.796139
_symmetry_space_group_name_H-M "I B C A "
_symmetry_group_IT_number 73
_symmetry_cell_setting 'orthorhombic'
loop_
_space_group_symop_operation_xyz
x,y,z
-x,1/2-y,z
x,-y,1/2-z
1/2-x,y,-z
-x,-y,-z
x,1/2+y,-z
-x,y,1/2+z
1/2+x,-y,z
1/2+x,1/2+y,1/2+z
1/2-x,-y,1/2+z
1/2+x,1/2-y,-z
-x,1/2+y,1/2-z
1/2-x,1/2-y,1/2-z
1/2+x,y,1/2-z
1/2-x,1/2+y,z
x,1/2-y,1/2+z
loop_
_atom_site_type_symbol
_atom_site_label
_atom_site_fract_x
_atom_site_fract_y
_atom_site_fract_z
Si Si1 0.677457 0.925622 0.690843
Si Si2 0.688569 0.370291 0.972791
Si Si3 0.760958 0.713506 0.632734
Si Si4 0.870043 0.165203 0.930950
Si Si5 0.000000 0.750000 0.619720
Si Si6 0.029219 0.430509 0.189560
O O1 0.717701 0.765822 0.682268
O O2 0.603762 0.909066 0.680639
O O3 0.684644 0.000000 0.750000
O O4 0.708332 0.043086 0.646613
O O5 0.717486 0.286257 0.920189
O O6 0.634034 0.484376 0.951475
O O7 0.750000 0.455300 0.000000
O O8 0.659983 0.263935 0.019852
O O9 0.821536 0.821567 0.619004
O O10 0.937036 0.230237 0.914689
O O11 0.994119 0.581290 0.652987
O O12 0.019382 0.500000 0.250000
O O13 0.000000 0.250000 0.183079
#
# Coordination Sequence:
#
# PCOD9532020 Si02
#       6
#    16  16  16  16   8  16
#     4  11  24  41  66 106 137 175 231 285 348 423
#     4  10  22  40  66  93 126 175 227 279 351 419
#     4  11  21  41  66  96 136 170 221 287 351 407
#     4  11  24  41  65  95 130 176 229 289 345 415
#     4  12  26  46  66 104 144 180 238 298 338 420
#     4  11  25  46  72 100 140 196 240 276 342 420
#
# _framework density 19.991838000000001
#
# number of rings (size 3 to 8) (size 9 to 14) (size 15 to 20)
#    0.000    1.091    4.545    2.182    5.091    0.727 
#    0.000    1.818    0.000    0.000    0.000    0.000 
#    0.000    0.000    0.000    0.000    0.000    0.000 
#
# Total GULP energy -245376.065243 kJ/mol
# GULP energy per Si atom -5576.728756 kJ/mol
# Density = 1.994634 g / cm^3
# Si number density = 19.991838 Si / 1000 Ang^3
#
#
#
# Elastic Constant Matrix: (Units=GPa)
#
#
# Indices 1 2 3 4 5 6 
#
# 1 147.1123 59.7700 68.4987 0.0000 0.0000 0.0000
# 2 59.7700 97.8458 30.7329 0.0000 0.0000 0.0000
# 3 68.4987 30.7329 72.9776 0.0000 0.0000 0.0000
# 4 0.0000 0.0000 0.0000 33.8683 0.0000 0.0000
# 5 0.0000 0.0000 0.0000 0.0000 15.6124 0.0000
# 6 0.0000 0.0000 0.0000 0.0000 0.0000 29.0895
#
#
#
# Elastic Compliance Matrix: (Units=1/GPa)
#
#
# Indices 1 2 3 4 5 6 
#
# 1 0.013975 -0.005090 -0.010974 0.000000 0.000000 0.000000
# 2 -0.005090 0.013632 -0.000963 0.000000 0.000000 0.000000
# 3 -0.010974 -0.000963 0.024409 0.000000 0.000000 0.000000
# 4 0.000000 0.000000 0.000000 0.029526 0.000000 0.000000
# 5 0.000000 0.000000 0.000000 0.000000 0.064052 0.000000
# 6 0.000000 0.000000 0.000000 0.000000 0.000000 0.034377
#
#
# Mechanical properties :
#
#
# Convention : Reuss Voigt Hill
#
# Bulk Modulus (GPa) = 55.67376 70.65988 63.16682
# Shear Modulus (GPa) = 22.72600 26.30966 24.51783
#
# Velocity S-wave (km/s) = 3.37525 3.63163 3.50579
# Velocity P-wave (km/s) = 6.56494 7.28053 6.93198
#
# Compressibility (1/GPa) = 0.01796178
#
# Stress axis : x y z
#
# Youngs Moduli (GPa) = 71.55477 73.35687 40.96856
#
# Poissons Ratio (x) = 0.37339 0.44959
# Poissons Ratio (y) = 0.36422 0.03946
# Poissons Ratio (z) = 0.78524 0.07065
#
# Static dielectric constant tensor:
#      x y z
#    x 1.673750 0.000000 0.000000 
#    y 0.000000 1.823930 0.000000 
#    z 0.000000 0.000000 1.709860 
# 
# From -- ./inp_files/6295.got.cif
#   From: 2010.05.17/outbox.cif.g08.bks.cpg/sg73_4_cif.got.tgz:6295.got - 2010.06.03 17:35:07.
