data_PCOD9532675
_publ_section_title
;
Structure prediction by ZEFSAII (Michael W. Deem and Ramdas Pophale) SiO2 
 PCOD9532675
Probable space group: I B C A 
;
_chemical_formula_sum "Si O2"
_cell_formula_units_Z 56
_cell_length_a 15.401319
_cell_length_b 10.853093
_cell_length_c 14.202101
_cell_angle_alpha 90.000000
_cell_angle_beta 90.000000
_cell_angle_gamma 90.000000
_cell_volume 2373.908840
_symmetry_space_group_name_H-M "I B C A "
_symmetry_group_IT_number 73
_symmetry_cell_setting 'orthorhombic'
loop_
_space_group_symop_operation_xyz
x,y,z
-x,1/2-y,z
x,-y,1/2-z
1/2-x,y,-z
-x,-y,-z
x,1/2+y,-z
-x,y,1/2+z
1/2+x,-y,z
1/2+x,1/2+y,1/2+z
1/2-x,-y,1/2+z
1/2+x,1/2-y,-z
-x,1/2+y,1/2-z
1/2-x,1/2-y,1/2-z
1/2+x,y,1/2-z
1/2-x,1/2+y,z
x,1/2-y,1/2+z
loop_
_atom_site_type_symbol
_atom_site_label
_atom_site_fract_x
_atom_site_fract_y
_atom_site_fract_z
Si Si1 0.750000 0.700680 0.000000
Si Si2 0.479718 0.938608 0.157974
Si Si3 0.204646 0.631551 0.298428
Si Si4 0.426226 0.346127 0.521847
O O1 0.763847 0.624185 0.905799
O O2 0.833757 0.783792 0.018223
O O3 0.400680 0.854509 0.196414
O O4 0.546703 0.883102 0.084181
O O5 0.521132 0.000000 0.250000
O O6 0.431640 0.040441 0.092807
O O7 0.222222 0.500000 0.250000
O O8 0.250000 0.750000 0.250000
O O9 0.500000 0.250000 0.553499
#
# Coordination Sequence:
#
# PCOD9532675 Si02
#       4
#     8  16  16  16
#     4  12  24  48  80 106 164 196 264 326 390 474
#     4  10  23  48  74 110 156 199 264 321 391 471
#     4  11  25  48  79 116 153 205 262 320 394 471
#     4  11  24  48  73 111 152 211 257 324 397 458
#
# _framework density 23.589784999999999
#
# number of rings (size 3 to 8) (size 9 to 14) (size 15 to 20)
#    0.000    1.143    2.857    3.429    0.000    5.714 
#    5.143    1.429    0.000    0.000    0.000    0.000 
#    0.000    0.000    0.000    0.000    0.000    0.000 
#
# Total GULP energy -156829.943189 kJ/mol
# GULP energy per Si atom -5601.069400 kJ/mol
# Density = 2.353609 g / cm^3
# Si number density = 23.589785 Si / 1000 Ang^3
#
#
#
# Elastic Constant Matrix: (Units=GPa)
#
#
# Indices 1 2 3 4 5 6 
#
# 1 97.0064 4.1806 -37.3639 0.0000 0.0000 0.0000
# 2 4.1806 68.9410 -6.2296 0.0000 0.0000 0.0000
# 3 -37.3639 -6.2296 57.4797 0.0000 0.0000 0.0000
# 4 0.0000 0.0000 0.0000 60.0043 0.0000 0.0000
# 5 0.0000 0.0000 0.0000 0.0000 36.9214 0.0000
# 6 0.0000 0.0000 0.0000 0.0000 0.0000 20.8142
#
#
#
# Elastic Compliance Matrix: (Units=1/GPa)
#
#
# Indices 1 2 3 4 5 6 
#
# 1 0.013752 -0.000026 0.008936 0.000000 0.000000 0.000000
# 2 -0.000026 0.014649 0.001570 0.000000 0.000000 0.000000
# 3 0.008936 0.001570 0.023377 0.000000 0.000000 0.000000
# 4 0.000000 0.000000 0.000000 0.016665 0.000000 0.000000
# 5 0.000000 0.000000 0.000000 0.000000 0.027085 0.000000
# 6 0.000000 0.000000 0.000000 0.000000 0.000000 0.048044
#
#
# Mechanical properties :
#
#
# Convention : Reuss Voigt Hill
#
# Bulk Modulus (GPa) = 13.74806 16.06680 14.90743
# Shear Modulus (GPa) = 34.04688 41.07065 37.55876
#
# Velocity S-wave (km/s) = 3.80319 4.17710 3.99452
# Velocity P-wave (km/s) = 5.01261 5.48543 5.25434
#
# Compressibility (1/GPa) = 0.07273753
#
# Stress axis : x y z
#
# Youngs Moduli (GPa) = 72.71821 68.26557 42.77788
#
# Poissons Ratio (x) = 0.00180 -0.38227
# Poissons Ratio (y) = 0.00192 -0.06718
# Poissons Ratio (z) = -0.64983 -0.10721
#
# Static dielectric constant tensor:
#      x y z
#    x 1.832310 0.000000 0.000000 
#    y 0.000000 1.943670 0.000000 
#    z 0.000000 0.000000 1.885040 
# 
# From -- ./inp_files/10211.got.cif
#   From: 2010.05.17/outbox.cif.g08.bks.cpg/sg73_6_cif.got.tgz:10211.got - 2010.06.03 17:35:07.
