data_PCOD9532590
_publ_section_title
;
Structure prediction by ZEFSAII (Michael W. Deem and Ramdas Pophale) SiO2 
 PCOD9532590
Probable space group: I B C A 
;
_chemical_formula_sum "Si O2"
_cell_formula_units_Z 88
_cell_length_a 10.638400
_cell_length_b 13.741427
_cell_length_c 24.822862
_cell_angle_alpha 90.000000
_cell_angle_beta 90.000000
_cell_angle_gamma 90.000000
_cell_volume 3628.774688
_symmetry_space_group_name_H-M "I B C A "
_symmetry_group_IT_number 73
_symmetry_cell_setting 'orthorhombic'
loop_
_space_group_symop_operation_xyz
x,y,z
-x,1/2-y,z
x,-y,1/2-z
1/2-x,y,-z
-x,-y,-z
x,1/2+y,-z
-x,y,1/2+z
1/2+x,-y,z
1/2+x,1/2+y,1/2+z
1/2-x,-y,1/2+z
1/2+x,1/2-y,-z
-x,1/2+y,1/2-z
1/2-x,1/2-y,1/2-z
1/2+x,y,1/2-z
1/2-x,1/2+y,z
x,1/2-y,1/2+z
loop_
_atom_site_type_symbol
_atom_site_label
_atom_site_fract_x
_atom_site_fract_y
_atom_site_fract_z
Si Si1 0.763477 0.325679 0.184048
Si Si2 0.000000 0.750000 0.495788
Si Si3 0.373478 0.624765 0.656063
Si Si4 0.882527 0.397577 0.087006
Si Si5 0.500000 0.750000 0.831766
Si Si6 0.736108 0.000000 0.750000
Si Si7 0.361775 0.879211 0.918595
O O1 0.846308 0.229226 0.182176
O O2 0.761674 0.367255 0.122447
O O3 0.621050 0.293714 0.197896
O O4 0.808687 0.408304 0.225112
O O5 0.918386 0.677353 0.459197
O O6 0.904215 0.812039 0.532332
O O7 0.509571 0.611489 0.632036
O O8 0.340255 0.542587 0.699462
O O9 0.278968 0.624292 0.604774
O O10 0.882453 0.508058 0.067801
O O11 0.444306 0.836964 0.868946
#
# Coordination Sequence:
#
# PCOD9532590 Si02
#       7
#    16   8  16  16   8   8  16
#     4  11  23  46  71 105 148 189 244 308 365 445
#     4  11  24  46  73 106 142 203 244 314 393 426
#     4  11  24  45  69 105 151 185 249 314 363 445
#     4  12  23  46  73 106 147 192 246 313 369 455
#     4   9  22  46  69 100 146 187 234 306 369 434
#     4  12  24  44  74 104 142 212 238 298 386 438
#     4  10  23  44  71 102 145 187 245 304 368 454
#
# _framework density 24.250610999999999
#
# number of rings (size 3 to 8) (size 9 to 14) (size 15 to 20)
#    0.000    1.091    3.636    2.182    0.000    1.455 
#   13.091    0.000    0.000    0.000    0.000    0.000 
#    0.000    0.000    0.000    0.000    0.000    0.000 
#
# Total GULP energy -246410.158010 kJ/mol
# GULP energy per Si atom -5600.230864 kJ/mol
# Density = 2.419542 g / cm^3
# Si number density = 24.250611 Si / 1000 Ang^3
#
#
#
# Elastic Constant Matrix: (Units=GPa)
#
#
# Indices 1 2 3 4 5 6 
#
# 1 79.8056 21.4852 22.6662 0.0000 0.0000 0.0000
# 2 21.4852 191.9493 65.9900 0.0000 0.0000 0.0000
# 3 22.6662 65.9900 132.9428 0.0000 0.0000 0.0000
# 4 0.0000 0.0000 0.0000 -11.5936 0.0000 0.0000
# 5 0.0000 0.0000 0.0000 0.0000 7.1126 0.0000
# 6 0.0000 0.0000 0.0000 0.0000 0.0000 14.5548
#
#
#
# Elastic Compliance Matrix: (Units=1/GPa)
#
#
# Indices 1 2 3 4 5 6 
#
# 1 0.013283 -0.000854 -0.001841 0.000000 0.000000 0.000000
# 2 -0.000854 0.006337 -0.003000 0.000000 0.000000 0.000000
# 3 -0.001841 -0.003000 0.009325 0.000000 0.000000 0.000000
# 4 0.000000 0.000000 0.000000 -0.086254 0.000000 0.000000
# 5 0.000000 0.000000 0.000000 0.000000 0.140596 0.000000
# 6 0.000000 0.000000 0.000000 0.000000 0.000000 0.068706
#
#
# Mechanical properties :
#
#
# Convention : Reuss Voigt Hill
#
# Bulk Modulus (GPa) = 56.96197 69.44228 63.20213
# Shear Modulus (GPa) = 29.54502 21.65184 25.59843
#
# Velocity S-wave (km/s) = 3.49423 2.99128 3.25249
# Velocity P-wave (km/s) = 6.31026 6.37399 6.34221
#
# Compressibility (1/GPa) = 0.01755557
#
# Stress axis : x y z
#
# Youngs Moduli (GPa) = 75.28321 157.81401 107.23973
#
# Poissons Ratio (x) = 0.13476 0.19741
# Poissons Ratio (y) = 0.06429 0.32169
# Poissons Ratio (z) = 0.13858 0.47340
#
# Static dielectric constant tensor:
#      x y z
#    x 1.941720 0.000000 0.000000 
#    y 0.000000 1.928720 0.000000 
#    z 0.000000 0.000000 1.927620 
# 
# From -- ./inp_files/28863.got.cif
#   From: 2010.05.17/outbox.cif.g08.bks.cpg/sg73_15_cif.got.tgz:28863.got - 2010.06.03 17:35:07.
