data_PCOD9532817
_publ_section_title
;
Structure prediction by ZEFSAII (Michael W. Deem and Ramdas Pophale) SiO2 
 PCOD9532817
Probable space group: I B C A 
;
_chemical_formula_sum "Si O2"
_cell_formula_units_Z 88
_cell_length_a 18.377094
_cell_length_b 14.508467
_cell_length_c 15.809926
_cell_angle_alpha 90.000000
_cell_angle_beta 90.000000
_cell_angle_gamma 90.000000
_cell_volume 4215.297202
_symmetry_space_group_name_H-M "I B C A "
_symmetry_group_IT_number 73
_symmetry_cell_setting 'orthorhombic'
loop_
_space_group_symop_operation_xyz
x,y,z
-x,1/2-y,z
x,-y,1/2-z
1/2-x,y,-z
-x,-y,-z
x,1/2+y,-z
-x,y,1/2+z
1/2+x,-y,z
1/2+x,1/2+y,1/2+z
1/2-x,-y,1/2+z
1/2+x,1/2-y,-z
-x,1/2+y,1/2-z
1/2-x,1/2-y,1/2-z
1/2+x,y,1/2-z
1/2-x,1/2+y,z
x,1/2-y,1/2+z
loop_
_atom_site_type_symbol
_atom_site_label
_atom_site_fract_x
_atom_site_fract_y
_atom_site_fract_z
Si Si1 0.416652 0.523251 0.505784
Si Si2 0.500000 0.250000 0.749895
Si Si3 0.219456 0.700994 0.668672
Si Si4 0.120574 0.798300 0.890890
Si Si5 0.167049 0.341304 0.471010
Si Si6 0.412174 0.080722 0.685266
O O1 0.500000 0.500000 0.500000
O O2 0.410539 0.615385 0.559458
O O3 0.371547 0.438438 0.544703
O O4 0.397679 0.543237 0.408554
O O5 0.568765 0.222799 0.810571
O O6 0.471627 0.162848 0.695040
O O7 0.250000 0.750000 0.750000
O O8 0.294528 0.674018 0.623023
O O9 0.174218 0.769598 0.607034
O O10 0.166301 0.623984 0.704746
O O11 0.124825 0.709687 0.952475
O O12 0.250000 0.358455 0.500000
O O13 0.431957 0.000000 0.750000
#
# Coordination Sequence:
#
# PCOD9532817 Si02
#       6
#    16   8  16  16  16  16
#     4  12  27  42  71 104 139 188 243 289 357 433
#     4  12  26  48  70 100 156 184 234 310 368 434
#     4  11  24  45  71 104 141 190 238 298 365 422
#     4  11  23  45  70 100 138 188 238 291 360 431
#     4  10  24  43  69  99 139 183 236 293 352 423
#     4  12  27  46  71 106 145 188 240 300 368 429
#
# _framework density 20.876344
#
# number of rings (size 3 to 8) (size 9 to 14) (size 15 to 20)
#    0.000    0.727    3.636    3.273    7.636    0.727 
#    0.000    0.909    0.000    0.000    0.000    0.000 
#    0.000    0.000    0.000    0.000    0.000    0.000 
#
# Total GULP energy -245777.492556 kJ/mol
# GULP energy per Si atom -5585.852104 kJ/mol
# Density = 2.082883 g / cm^3
# Si number density = 20.876344 Si / 1000 Ang^3
#
#
#
# Elastic Constant Matrix: (Units=GPa)
#
#
# Indices 1 2 3 4 5 6 
#
# 1 78.2044 36.3285 -0.0688 0.0000 0.0000 0.0000
# 2 36.3285 82.5262 -2.2463 0.0000 0.0000 0.0000
# 3 -0.0688 -2.2463 32.0039 0.0000 0.0000 0.0000
# 4 0.0000 0.0000 0.0000 -69.3978 0.0000 0.0000
# 5 0.0000 0.0000 0.0000 0.0000 43.7130 0.0000
# 6 0.0000 0.0000 0.0000 0.0000 0.0000 46.5389
#
#
#
# Elastic Compliance Matrix: (Units=1/GPa)
#
#
# Indices 1 2 3 4 5 6 
#
# 1 0.016081 -0.007091 -0.000463 0.000000 0.000000 0.000000
# 2 -0.007091 0.015268 0.001056 0.000000 0.000000 0.000000
# 3 -0.000463 0.001056 0.031319 0.000000 0.000000 0.000000
# 4 0.000000 0.000000 0.000000 -0.014410 0.000000 0.000000
# 5 0.000000 0.000000 0.000000 0.000000 0.022876 0.000000
# 6 0.000000 0.000000 0.000000 0.000000 0.000000 0.021487
#
#
# Mechanical properties :
#
#
# Convention : Reuss Voigt Hill
#
# Bulk Modulus (GPa) = 20.13230 28.97348 24.55289
# Shear Modulus (GPa) = 40.92463 14.75223 27.83843
#
# Velocity S-wave (km/s) = 4.43237 2.66117 3.65566
# Velocity P-wave (km/s) = 5.98824 4.83231 5.44106
#
# Compressibility (1/GPa) = 0.04967143
#
# Stress axis : x y z
#
# Youngs Moduli (GPa) = 62.18588 65.49720 31.92919
#
# Poissons Ratio (x) = 0.46447 0.01479
# Poissons Ratio (y) = 0.44099 -0.03373
# Poissons Ratio (z) = 0.02880 -0.06919
#
# Static dielectric constant tensor:
#      x y z
#    x 1.680890 0.000000 0.000000 
#    y 0.000000 1.677940 0.000000 
#    z 0.000000 0.000000 1.840380 
# 
# From -- ./inp_files/22463.got.cif
#   From: 2010.05.17/outbox.cif.g08.bks.cpg/sg73_12_cif.got.tgz:22463.got - 2010.06.03 17:35:07.
