data_PCOD9532497
_publ_section_title
;
Structure prediction by ZEFSAII (Michael W. Deem and Ramdas Pophale) SiO2 
 PCOD9532497
Probable space group: I B C A 
;
_chemical_formula_sum "Si O2"
_cell_formula_units_Z 72
_cell_length_a 25.876654
_cell_length_b 21.910246
_cell_length_c 5.276898
_cell_angle_alpha 90.000000
_cell_angle_beta 90.000000
_cell_angle_gamma 90.000000
_cell_volume 2991.810431
_symmetry_space_group_name_H-M "I B C A "
_symmetry_group_IT_number 73
_symmetry_cell_setting 'orthorhombic'
loop_
_space_group_symop_operation_xyz
x,y,z
-x,1/2-y,z
x,-y,1/2-z
1/2-x,y,-z
-x,-y,-z
x,1/2+y,-z
-x,y,1/2+z
1/2+x,-y,z
1/2+x,1/2+y,1/2+z
1/2-x,-y,1/2+z
1/2+x,1/2-y,-z
-x,1/2+y,1/2-z
1/2-x,1/2-y,1/2-z
1/2+x,y,1/2-z
1/2-x,1/2+y,z
x,1/2-y,1/2+z
loop_
_atom_site_type_symbol
_atom_site_label
_atom_site_fract_x
_atom_site_fract_y
_atom_site_fract_z
Si Si1 0.250000 0.892923 0.000000
Si Si2 0.805184 0.500000 0.750000
Si Si3 0.964825 0.399443 0.281662
Si Si4 0.376458 0.500000 0.250000
Si Si5 0.316390 0.279061 0.953343
Si Si6 0.067383 0.732125 0.876544
O O1 0.202313 0.845651 0.043312
O O2 0.230223 0.939852 0.786435
O O3 0.840811 0.504284 0.499941
O O4 0.915872 0.443877 0.271798
O O5 0.939282 0.332946 0.252379
O O6 0.996932 0.408525 0.541102
O O7 0.297599 0.268038 0.667641
O O8 0.376598 0.261435 0.933180
O O9 0.045450 0.776747 0.660088
#
# Coordination Sequence:
#
# PCOD9532497 Si02
#       6
#     8   8  16   8  16  16
#     4  12  28  52  76 116 152 204 270 308 396 466
#     4  12  31  47  80 110 156 206 256 339 371 478
#     4  12  26  47  80 109 152 199 263 322 384 484
#     4  12  29  51  78 108 154 204 260 325 407 442
#     4  10  24  43  76 109 152 196 249 315 385 480
#     4  10  23  41  70 110 150 194 242 314 390 461
#
# _framework density 24.065695999999999
#
# number of rings (size 3 to 8) (size 9 to 14) (size 15 to 20)
#    0.000    0.889    0.000    4.667   12.444    6.222 
#    0.000    0.000    0.000    0.000    0.000    0.000 
#    0.000    0.000    0.000    0.000    0.000    0.000 
#
# Total GULP energy -200902.776644 kJ/mol
# GULP energy per Si atom -5580.632685 kJ/mol
# Density = 2.401092 g / cm^3
# Si number density = 24.065696 Si / 1000 Ang^3
#
#
#
# Elastic Constant Matrix: (Units=GPa)
#
#
# Indices 1 2 3 4 5 6 
#
# 1 168.0486 55.0327 59.7552 0.0000 0.0000 0.0000
# 2 55.0327 134.8950 38.4803 0.0000 0.0000 0.0000
# 3 59.7552 38.4803 232.7003 0.0000 0.0000 0.0000
# 4 0.0000 0.0000 0.0000 31.3921 0.0000 0.0000
# 5 0.0000 0.0000 0.0000 0.0000 56.2218 0.0000
# 6 0.0000 0.0000 0.0000 0.0000 0.0000 49.7463
#
#
#
# Elastic Compliance Matrix: (Units=1/GPa)
#
#
# Indices 1 2 3 4 5 6 
#
# 1 0.007308 -0.002567 -0.001452 0.000000 0.000000 0.000000
# 2 -0.002567 0.008682 -0.000776 0.000000 0.000000 0.000000
# 3 -0.001452 -0.000776 0.004799 0.000000 0.000000 0.000000
# 4 0.000000 0.000000 0.000000 0.031855 0.000000 0.000000
# 5 0.000000 0.000000 0.000000 0.000000 0.017787 0.000000
# 6 0.000000 0.000000 0.000000 0.000000 0.000000 0.020102
#
#
# Mechanical properties :
#
#
# Convention : Reuss Voigt Hill
#
# Bulk Modulus (GPa) = 89.30909 93.57560 91.44234
# Shear Modulus (GPa) = 48.14378 52.96376 50.55377
#
# Velocity S-wave (km/s) = 4.47756 4.69636 4.58826
# Velocity P-wave (km/s) = 7.99516 8.26895 8.13320
#
# Compressibility (1/GPa) = 0.01119707
#
# Stress axis : x y z
#
# Youngs Moduli (GPa) = 136.84301 115.18144 208.39222
#
# Poissons Ratio (x) = 0.29568 0.30259
# Poissons Ratio (y) = 0.35129 0.16181
# Poissons Ratio (z) = 0.19870 0.08944
#
# Static dielectric constant tensor:
#      x y z
#    x 2.111470 0.000000 0.000000 
#    y 0.000000 1.913120 0.000000 
#    z 0.000000 0.000000 2.091650 
# 
# From -- ./inp_files/2550.got.cif
#   From: 2010.05.17/outbox.cif.g08.bks.cpg/sg73_2_cif.got.tgz:2550.got - 2010.06.03 17:35:07.
