data_PCOD9532668
_publ_section_title
;
Structure prediction by ZEFSAII (Michael W. Deem and Ramdas Pophale) SiO2 
 PCOD9532668
Probable space group: I B C A 
;
_chemical_formula_sum "Si O2"
_cell_formula_units_Z 112
_cell_length_a 14.628242
_cell_length_b 25.445444
_cell_length_c 14.396886
_cell_angle_alpha 90.000000
_cell_angle_beta 90.000000
_cell_angle_gamma 90.000000
_cell_volume 5358.839322
_symmetry_space_group_name_H-M "I B C A "
_symmetry_group_IT_number 73
_symmetry_cell_setting 'orthorhombic'
loop_
_space_group_symop_operation_xyz
x,y,z
-x,1/2-y,z
x,-y,1/2-z
1/2-x,y,-z
-x,-y,-z
x,1/2+y,-z
-x,y,1/2+z
1/2+x,-y,z
1/2+x,1/2+y,1/2+z
1/2-x,-y,1/2+z
1/2+x,1/2-y,-z
-x,1/2+y,1/2-z
1/2-x,1/2-y,1/2-z
1/2+x,y,1/2-z
1/2-x,1/2+y,z
x,1/2-y,1/2+z
loop_
_atom_site_type_symbol
_atom_site_label
_atom_site_fract_x
_atom_site_fract_y
_atom_site_fract_z
Si Si1 0.266033 0.777419 0.150825
Si Si2 0.772578 0.612528 0.215584
Si Si3 0.661580 0.968163 0.610254
Si Si4 0.714189 0.070439 0.409803
Si Si5 0.405952 0.781661 0.990440
Si Si6 0.958933 0.495570 0.142472
Si Si7 0.090612 0.598777 0.554345
O O1 0.250000 0.750000 0.250000
O O2 0.282319 0.837855 0.179493
O O3 0.172740 0.773960 0.089034
O O4 0.352154 0.764285 0.084558
O O5 0.720012 0.560217 0.188218
O O6 0.789323 0.609766 0.323838
O O7 0.861995 0.612072 0.152240
O O8 0.557653 0.970096 0.642838
O O9 0.656141 0.931639 0.518372
O O10 0.709568 0.024131 0.596925
O O11 0.750000 0.100506 0.500000
O O12 0.617530 0.039560 0.408680
O O13 0.500000 0.750000 0.976360
O O14 0.431509 0.844413 0.989034
O O15 0.927655 0.500000 0.250000
O O16 0.973428 0.550655 0.087601
#
# Coordination Sequence:
#
# PCOD9532668 Si02
#       7
#    16  16  16  16  16  16  16
#     4  10  23  47  73  99 131 175 227 288 350 413
#     4  11  21  43  68  90 128 180 219 266 335 397
#     4  12  22  38  64  96 130 177 222 264 322 401
#     4  12  23  39  59  92 138 176 219 270 319 389
#     4  10  23  47  75 101 129 173 233 289 346 407
#     4  12  23  39  59  95 139 175 217 271 321 390
#     4  11  21  41  69  92 129 177 222 267 329 400
#
# _framework density 20.900048999999999
#
# number of rings (size 3 to 8) (size 9 to 14) (size 15 to 20)
#    0.000    0.857    5.714    2.143    0.000    0.571 
#   10.286    0.000    0.000    0.000    0.000    0.000 
#    0.000    0.000    0.000    0.000    0.000    0.000 
#
# Total GULP energy -312263.398454 kJ/mol
# GULP energy per Si atom -5576.132115 kJ/mol
# Density = 2.085248 g / cm^3
# Si number density = 20.900049 Si / 1000 Ang^3
#
#
#
# Elastic Constant Matrix: (Units=GPa)
#
#
# Indices 1 2 3 4 5 6 
#
# 1 71.9746 5.8967 15.9393 0.0000 0.0000 0.0000
# 2 5.8967 31.0629 19.3916 0.0001 0.0000 0.0000
# 3 15.9393 19.3916 123.8500 0.0001 0.0000 0.0000
# 4 0.0000 0.0001 0.0001 9.4105 0.0000 0.0000
# 5 0.0000 0.0000 0.0000 0.0000 17.7436 0.0000
# 6 0.0000 0.0000 0.0000 0.0000 0.0000 13.1485
#
#
#
# Elastic Compliance Matrix: (Units=1/GPa)
#
#
# Indices 1 2 3 4 5 6 
#
# 1 0.014386 -0.001746 -0.001578 0.000000 0.000000 0.000000
# 2 -0.001746 0.035892 -0.005395 0.000000 0.000000 0.000000
# 3 -0.001578 -0.005395 0.009122 0.000000 0.000000 0.000000
# 4 0.000000 0.000000 0.000000 0.106265 0.000000 0.000000
# 5 0.000000 0.000000 0.000000 0.000000 0.056358 0.000000
# 6 0.000000 0.000000 0.000000 0.000000 0.000000 0.076054
#
#
# Mechanical properties :
#
#
# Convention : Reuss Voigt Hill
#
# Bulk Modulus (GPa) = 23.83075 34.37139 29.10107
# Shear Modulus (GPa) = 15.17435 20.43785 17.80610
#
# Velocity S-wave (km/s) = 2.69744 3.13051 2.92201
# Velocity P-wave (km/s) = 4.59659 5.43581 5.03372
#
# Compressibility (1/GPa) = 0.04196259
#
# Stress axis : x y z
#
# Youngs Moduli (GPa) = 69.51049 27.86123 109.62381
#
# Poissons Ratio (x) = 0.04864 0.17300
# Poissons Ratio (y) = 0.12135 0.59143
# Poissons Ratio (z) = 0.10970 0.15031
#
# Static dielectric constant tensor:
#      x y z
#    x 1.736960 0.000000 0.000000 
#    y 0.000000 1.801070 0.000000 
#    z 0.000000 0.000000 1.898820 
# 
# From -- ./inp_files/17234.got.cif
#   From: 2010.05.17/outbox.cif.g08.bks.cpg/sg73_9_cif.got.tgz:17234.got - 2010.06.03 17:35:07.
