data_PCOD9532725
_publ_section_title
;
Structure prediction by ZEFSAII (Michael W. Deem and Ramdas Pophale) SiO2 
 PCOD9532725
Probable space group: I B C A 
;
_chemical_formula_sum "Si O2"
_cell_formula_units_Z 120
_cell_length_a 18.690045
_cell_length_b 23.073561
_cell_length_c 13.873541
_cell_angle_alpha 90.000000
_cell_angle_beta 90.000000
_cell_angle_gamma 90.000000
_cell_volume 5982.907583
_symmetry_space_group_name_H-M "I B C A "
_symmetry_group_IT_number 73
_symmetry_cell_setting 'orthorhombic'
loop_
_space_group_symop_operation_xyz
x,y,z
-x,1/2-y,z
x,-y,1/2-z
1/2-x,y,-z
-x,-y,-z
x,1/2+y,-z
-x,y,1/2+z
1/2+x,-y,z
1/2+x,1/2+y,1/2+z
1/2-x,-y,1/2+z
1/2+x,1/2-y,-z
-x,1/2+y,1/2-z
1/2-x,1/2-y,1/2-z
1/2+x,y,1/2-z
1/2-x,1/2+y,z
x,1/2-y,1/2+z
loop_
_atom_site_type_symbol
_atom_site_label
_atom_site_fract_x
_atom_site_fract_y
_atom_site_fract_z
Si Si1 0.510447 0.068329 0.019592
Si Si2 0.069538 0.093750 0.274006
Si Si3 0.626998 0.351758 0.990418
Si Si4 0.927527 0.415133 0.671115
Si Si5 0.782421 0.097329 0.676360
Si Si6 0.159067 0.320928 0.292030
Si Si7 0.818566 0.000000 0.250000
Si Si8 0.923008 0.780403 0.806913
O O1 0.549809 0.075571 0.120045
O O2 0.435108 0.102077 0.015588
O O3 0.559456 0.099503 0.939165
O O4 0.500000 0.000000 0.000000
O O5 0.148135 0.079088 0.237251
O O6 0.066396 0.163021 0.259138
O O7 0.006516 0.068441 0.207517
O O8 0.688084 0.385088 0.928753
O O9 0.599490 0.304731 0.911955
O O10 0.648289 0.323283 0.092193
O O11 0.895337 0.366005 0.740124
O O12 0.871270 0.466375 0.678886
O O13 0.738762 0.152412 0.720207
O O14 0.727697 0.044600 0.687439
O O15 0.136385 0.261113 0.241655
O O16 0.000000 0.750000 0.813576
#
# Coordination Sequence:
#
# PCOD9532725 Si02
#       8
#    16  16  16  16  16  16   8  16
#     4  12  24  38  67  97 134 172 227 285 333 401
#     4  11  23  42  67  98 134 172 231 281 338 413
#     4  11  23  42  65 104 132 179 231 279 338 422
#     4  11  21  43  61  95 128 170 227 270 339 400
#     4  10  24  43  66  98 140 174 233 275 347 417
#     4  11  23  43  68  98 139 178 221 284 346 402
#     4  10  24  40  68  88 134 190 210 290 342 404
#     4  11  21  41  69  98 135 179 228 289 335 404
#
# _framework density 20.057137999999998
#
# number of rings (size 3 to 8) (size 9 to 14) (size 15 to 20)
#    0.000    1.067    5.333    1.200    3.733    5.333 
#    0.000    2.667    0.000    0.000    0.000    0.000 
#    0.000    0.000    0.000    0.000    0.000    0.000 
#
# Total GULP energy -334992.624013 kJ/mol
# GULP energy per Si atom -5583.210400 kJ/mol
# Density = 2.001149 g / cm^3
# Si number density = 20.057138 Si / 1000 Ang^3
#
#
#
# Elastic Constant Matrix: (Units=GPa)
#
#
# Indices 1 2 3 4 5 6 
#
# 1 136.2644 49.8137 37.3852 0.0000 0.0000 0.0000
# 2 49.8137 92.6762 34.9353 0.0000 0.0000 0.0000
# 3 37.3852 34.9353 132.7740 0.0000 0.0000 0.0000
# 4 0.0000 0.0000 0.0000 25.1657 0.0000 0.0000
# 5 0.0000 0.0000 0.0000 0.0000 22.5118 0.0000
# 6 0.0000 0.0000 0.0000 0.0000 0.0000 34.7681
#
#
#
# Elastic Compliance Matrix: (Units=1/GPa)
#
#
# Indices 1 2 3 4 5 6 
#
# 1 0.009381 -0.004492 -0.001459 0.000000 0.000000 0.000000
# 2 -0.004492 0.014130 -0.002453 0.000000 0.000000 0.000000
# 3 -0.001459 -0.002453 0.008588 0.000000 0.000000 0.000000
# 4 0.000000 0.000000 0.000000 0.039737 0.000000 0.000000
# 5 0.000000 0.000000 0.000000 0.000000 0.044421 0.000000
# 6 0.000000 0.000000 0.000000 0.000000 0.000000 0.028762
#
#
# Mechanical properties :
#
#
# Convention : Reuss Voigt Hill
#
# Bulk Modulus (GPa) = 65.40443 67.33146 66.36794
# Shear Modulus (GPa) = 29.95370 32.46115 31.20743
#
# Velocity S-wave (km/s) = 3.86867 4.02734 3.94880
# Velocity P-wave (km/s) = 7.25502 7.43429 7.34520
#
# Compressibility (1/GPa) = 0.01528949
#
# Stress axis : x y z
#
# Youngs Moduli (GPa) = 106.59451 70.77376 116.44246
#
# Poissons Ratio (x) = 0.31794 0.16995
# Poissons Ratio (y) = 0.47886 0.28561
# Poissons Ratio (z) = 0.15557 0.17360
#
# Static dielectric constant tensor:
#      x y z
#    x 1.724760 0.000000 0.000000 
#    y 0.000000 1.739290 0.000000 
#    z 0.000000 0.000000 1.753190 
# 
# From -- ./inp_files/18278.got.cif
#   From: 2010.05.17/outbox.cif.g08.bks.cpg/sg73_10_cif.got.tgz:18278.got - 2010.06.03 17:35:07.
