data_PCOD9532583
_publ_section_title
;
Structure prediction by ZEFSAII (Michael W. Deem and Ramdas Pophale) SiO2 
 PCOD9532583
Probable space group: I B C A 
;
_chemical_formula_sum "Si O2"
_cell_formula_units_Z 72
_cell_length_a 14.642010
_cell_length_b 10.964595
_cell_length_c 17.637447
_cell_angle_alpha 90.000000
_cell_angle_beta 90.000000
_cell_angle_gamma 90.000000
_cell_volume 2831.581170
_symmetry_space_group_name_H-M "I B C A "
_symmetry_group_IT_number 73
_symmetry_cell_setting 'orthorhombic'
loop_
_space_group_symop_operation_xyz
x,y,z
-x,1/2-y,z
x,-y,1/2-z
1/2-x,y,-z
-x,-y,-z
x,1/2+y,-z
-x,y,1/2+z
1/2+x,-y,z
1/2+x,1/2+y,1/2+z
1/2-x,-y,1/2+z
1/2+x,1/2-y,-z
-x,1/2+y,1/2-z
1/2-x,1/2-y,1/2-z
1/2+x,y,1/2-z
1/2-x,1/2+y,z
x,1/2-y,1/2+z
loop_
_atom_site_type_symbol
_atom_site_label
_atom_site_fract_x
_atom_site_fract_y
_atom_site_fract_z
Si Si1 0.098885 0.000000 0.250000
Si Si2 0.320347 0.333330 0.845337
Si Si3 0.884805 0.247641 0.311645
Si Si4 0.904655 0.539448 0.577847
Si Si5 0.900091 0.904440 0.907515
O O1 0.061411 0.868259 0.219296
O O2 0.142248 0.954163 0.328731
O O3 0.216510 0.292347 0.835271
O O4 0.367427 0.332344 0.763131
O O5 0.326981 0.466180 0.879516
O O6 0.376063 0.237987 0.898549
O O7 0.917649 0.170461 0.383425
O O8 0.874330 0.552446 0.491079
O O9 0.995462 0.456792 0.592529
#
# Coordination Sequence:
#
# PCOD9532583 Si02
#       5
#     8  16  16  16  16
#     4  10  24  46  66 104 146 186 242 306 350 442
#     4  10  23  44  69 101 141 184 240 297 359 437
#     4  10  24  42  73 102 138 188 238 294 367 429
#     4  11  24  44  72 102 142 190 238 303 361 436
#     4  10  25  44  68 104 141 187 243 295 363 431
#
# _framework density 25.427489000000001
#
# number of rings (size 3 to 8) (size 9 to 14) (size 15 to 20)
#    0.000    1.778    0.000    1.333   15.556    1.778 
#    0.000    0.000    0.000    0.000    0.000    0.000 
#    0.000    0.000    0.000    0.000    0.000    0.000 
#
# Total GULP energy -200858.740850 kJ/mol
# GULP energy per Si atom -5579.409468 kJ/mol
# Density = 2.536961 g / cm^3
# Si number density = 25.427489 Si / 1000 Ang^3
#
#
#
# Elastic Constant Matrix: (Units=GPa)
#
#
# Indices 1 2 3 4 5 6 
#
# 1 108.3211 22.7457 47.5851 0.0000 0.0000 0.0000
# 2 22.7457 114.2019 64.2834 0.0000 0.0000 0.0000
# 3 47.5851 64.2834 164.6209 0.0000 0.0000 0.0000
# 4 0.0000 0.0000 0.0000 31.4369 0.0000 0.0000
# 5 0.0000 0.0000 0.0000 0.0000 14.6713 0.0000
# 6 0.0000 0.0000 0.0000 0.0000 0.0000 19.3064
#
#
#
# Elastic Compliance Matrix: (Units=1/GPa)
#
#
# Indices 1 2 3 4 5 6 
#
# 1 0.010596 -0.000495 -0.002870 0.000000 0.000000 0.000000
# 2 -0.000495 0.011247 -0.004249 0.000000 0.000000 0.000000
# 3 -0.002870 -0.004249 0.008563 0.000000 0.000000 0.000000
# 4 0.000000 0.000000 0.000000 0.031810 0.000000 0.000000
# 5 0.000000 0.000000 0.000000 0.000000 0.068161 0.000000
# 6 0.000000 0.000000 0.000000 0.000000 0.000000 0.051796
#
#
# Mechanical properties :
#
#
# Convention : Reuss Voigt Hill
#
# Bulk Modulus (GPa) = 65.87929 72.93023 69.40476
# Shear Modulus (GPa) = 24.69636 29.91824 27.30730
#
# Velocity S-wave (km/s) = 3.11986 3.43390 3.28064
# Velocity P-wave (km/s) = 6.24043 6.66829 6.45791
#
# Compressibility (1/GPa) = 0.01517928
#
# Stress axis : x y z
#
# Youngs Moduli (GPa) = 94.37162 88.91630 116.78050
#
# Poissons Ratio (x) = 0.04403 0.33511
# Poissons Ratio (y) = 0.04673 0.49615
# Poissons Ratio (z) = 0.27081 0.37777
#
# Static dielectric constant tensor:
#      x y z
#    x 2.130280 0.000000 0.000000 
#    y 0.000000 2.030140 0.000000 
#    z 0.000000 0.000000 1.913050 
# 
# From -- ./inp_files/22354.got.cif
#   From: 2010.05.17/outbox.cif.g08.bks.cpg/sg73_12_cif.got.tgz:22354.got - 2010.06.03 17:35:07.
