data_PCOD9532992
_publ_section_title
;
Structure prediction by ZEFSAII (Michael W. Deem and Ramdas Pophale) SiO2 
 PCOD9532992
Probable space group: I B C A 
;
_chemical_formula_sum "Si O2"
_cell_formula_units_Z 88
_cell_length_a 9.164013
_cell_length_b 22.119618
_cell_length_c 21.211672
_cell_angle_alpha 90.000000
_cell_angle_beta 90.000000
_cell_angle_gamma 90.000000
_cell_volume 4299.700665
_symmetry_space_group_name_H-M "I B C A "
_symmetry_group_IT_number 73
_symmetry_cell_setting 'orthorhombic'
loop_
_space_group_symop_operation_xyz
x,y,z
-x,1/2-y,z
x,-y,1/2-z
1/2-x,y,-z
-x,-y,-z
x,1/2+y,-z
-x,y,1/2+z
1/2+x,-y,z
1/2+x,1/2+y,1/2+z
1/2-x,-y,1/2+z
1/2+x,1/2-y,-z
-x,1/2+y,1/2-z
1/2-x,1/2-y,1/2-z
1/2+x,y,1/2-z
1/2-x,1/2+y,z
x,1/2-y,1/2+z
loop_
_atom_site_type_symbol
_atom_site_label
_atom_site_fract_x
_atom_site_fract_y
_atom_site_fract_z
Si Si1 0.136149 0.925398 0.817974
Si Si2 0.963752 0.180078 0.392892
Si Si3 0.281245 0.857158 0.074811
Si Si4 0.118868 0.203742 0.748593
Si Si5 0.250000 0.327432 0.500000
Si Si6 0.386102 0.000000 0.750000
Si Si7 0.500000 0.750000 0.567870
O O1 0.143920 0.915022 0.893028
O O2 0.139246 0.858465 0.787734
O O3 0.992833 0.959147 0.792729
O O4 0.277987 0.960433 0.792910
O O5 0.914803 0.184911 0.320690
O O6 0.842414 0.149048 0.438511
O O7 0.000000 0.250000 0.412363
O O8 0.120189 0.148519 0.396133
O O9 0.386104 0.800737 0.092931
O O10 0.250000 0.857687 0.000000
O O11 0.250000 0.250000 0.750000
O O12 0.000000 0.250000 0.720973
O O13 0.381366 0.290621 0.468334
#
# Coordination Sequence:
#
# PCOD9532992 Si02
#       7
#    16  16  16  16   8   8   8
#     4  11  24  45  72  95 129 180 228 289 335 405
#     4  11  20  36  52  84 137 181 214 256 312 414
#     4  12  23  39  63  97 136 179 222 269 345 410
#     4  11  24  39  62 101 141 169 210 282 353 415
#     4  12  18  32  52  82 128 196 210 238 310 406
#     4  10  24  50  72  92 122 182 248 286 338 380
#     4  12  20  32  56  90 140 186 210 248 332 432
#
# _framework density 20.466542
#
# number of rings (size 3 to 8) (size 9 to 14) (size 15 to 20)
#    0.000    0.727    5.455    4.364    1.273    1.455 
#    0.000    0.909    0.000    0.000    0.000    0.000 
#    0.000    0.000    0.000    0.000    0.000    0.000 
#
# Total GULP energy -245119.262819 kJ/mol
# GULP energy per Si atom -5570.892337 kJ/mol
# Density = 2.041996 g / cm^3
# Si number density = 20.466542 Si / 1000 Ang^3
#
#
#
# Elastic Constant Matrix: (Units=GPa)
#
#
# Indices 1 2 3 4 5 6 
#
# 1 135.4637 35.4589 35.5863 0.0000 0.0000 0.0000
# 2 35.4589 87.2388 41.1894 0.0000 0.0000 0.0000
# 3 35.5863 41.1894 117.8159 0.0000 0.0000 0.0000
# 4 0.0000 0.0000 0.0000 17.5377 0.0000 0.0000
# 5 0.0000 0.0000 0.0000 0.0000 15.3605 0.0000
# 6 0.0000 0.0000 0.0000 0.0000 0.0000 14.4309
#
#
#
# Elastic Compliance Matrix: (Units=1/GPa)
#
#
# Indices 1 2 3 4 5 6 
#
# 1 0.008515 -0.002691 -0.001631 0.000000 0.000000 0.000000
# 2 -0.002691 0.014579 -0.004284 0.000000 0.000000 0.000000
# 3 -0.001631 -0.004284 0.010478 0.000000 0.000000 0.000000
# 4 0.000000 0.000000 0.000000 0.057020 0.000000 0.000000
# 5 0.000000 0.000000 0.000000 0.000000 0.065102 0.000000
# 6 0.000000 0.000000 0.000000 0.000000 0.000000 0.069296
#
#
# Mechanical properties :
#
#
# Convention : Reuss Voigt Hill
#
# Bulk Modulus (GPa) = 61.12475 62.77639 61.95057
# Shear Modulus (GPa) = 20.18926 24.68474 22.43700
#
# Velocity S-wave (km/s) = 3.14419 3.47667 3.31460
# Velocity P-wave (km/s) = 6.56596 6.84511 6.70699
#
# Compressibility (1/GPa) = 0.01635998
#
# Stress axis : x y z
#
# Youngs Moduli (GPa) = 117.44112 68.59048 95.43493
#
# Poissons Ratio (x) = 0.18456 0.15567
# Poissons Ratio (y) = 0.31601 0.40887
# Poissons Ratio (z) = 0.19157 0.29386
#
# Static dielectric constant tensor:
#      x y z
#    x 1.694420 0.000000 0.000000 
#    y 0.000000 1.639260 0.000000 
#    z 0.000000 0.000000 1.842790 
# 
# From -- ./inp_files/7090.got.cif
#   From: 2010.05.17/outbox.cif.g08.bks.cpg/sg73_4_cif.got.tgz:7090.got - 2010.06.03 17:35:07.
