data_PCOD9532591
_publ_section_title
;
Structure prediction by ZEFSAII (Michael W. Deem and Ramdas Pophale) SiO2 
 PCOD9532591
Probable space group: I B C A 
;
_chemical_formula_sum "Si O2"
_cell_formula_units_Z 64
_cell_length_a 25.503825
_cell_length_b 8.212189
_cell_length_c 13.290573
_cell_angle_alpha 90.000000
_cell_angle_beta 90.000000
_cell_angle_gamma 90.000000
_cell_volume 2783.607262
_symmetry_space_group_name_H-M "I B C A "
_symmetry_group_IT_number 73
_symmetry_cell_setting 'orthorhombic'
loop_
_space_group_symop_operation_xyz
x,y,z
-x,1/2-y,z
x,-y,1/2-z
1/2-x,y,-z
-x,-y,-z
x,1/2+y,-z
-x,y,1/2+z
1/2+x,-y,z
1/2+x,1/2+y,1/2+z
1/2-x,-y,1/2+z
1/2+x,1/2-y,-z
-x,1/2+y,1/2-z
1/2-x,1/2-y,1/2-z
1/2+x,y,1/2-z
1/2-x,1/2+y,z
x,1/2-y,1/2+z
loop_
_atom_site_type_symbol
_atom_site_label
_atom_site_fract_x
_atom_site_fract_y
_atom_site_fract_z
Si Si1 0.817807 0.518872 0.026918
Si Si2 0.929471 0.141545 0.549801
Si Si3 0.538245 0.019542 0.866711
Si Si4 0.260879 0.782080 0.132911
O O1 0.876142 0.460114 0.050014
O O2 0.796438 0.675128 0.088058
O O3 0.785129 0.377297 0.082698
O O4 0.800521 0.576112 0.913219
O O5 0.929434 0.323705 0.592398
O O6 0.977383 0.056703 0.608826
O O7 0.945766 0.135613 0.432633
O O8 0.546790 0.000000 0.750000
O O9 0.250000 0.750000 0.250000
#
# Coordination Sequence:
#
# PCOD9532591 Si02
#       4
#    16  16  16  16
#     4  11  23  45  69  98 137 180 228 282 339 411
#     4  10  23  45  70 100 140 182 233 288 351 422
#     4  10  23  44  71 105 142 180 230 294 352 418
#     4  11  24  43  67  98 137 178 229 286 341 408
#
# _framework density 22.991748999999999
#
# number of rings (size 3 to 8) (size 9 to 14) (size 15 to 20)
#    0.000    1.500    0.000    5.250    0.000   10.000 
#    0.000   30.000    0.000    0.000    0.000    0.000 
#    0.000    0.000    0.000    0.000    0.000    0.000 
#
# Total GULP energy -178329.345458 kJ/mol
# GULP energy per Si atom -5572.792046 kJ/mol
# Density = 2.293942 g / cm^3
# Si number density = 22.991749 Si / 1000 Ang^3
#
#
#
# Elastic Constant Matrix: (Units=GPa)
#
#
# Indices 1 2 3 4 5 6 
#
# 1 133.5382 39.4011 58.5164 0.0000 0.0000 0.0000
# 2 39.4011 105.5229 87.7331 0.0000 0.0000 0.0000
# 3 58.5164 87.7331 239.3101 0.0000 0.0000 0.0000
# 4 0.0000 0.0000 0.0000 24.9983 0.0000 0.0000
# 5 0.0000 0.0000 0.0000 0.0000 4.4373 0.0000
# 6 0.0000 0.0000 0.0000 0.0000 0.0000 37.1987
#
#
#
# Elastic Compliance Matrix: (Units=1/GPa)
#
#
# Indices 1 2 3 4 5 6 
#
# 1 0.008708 -0.002131 -0.001348 0.000000 0.000000 0.000000
# 2 -0.002131 0.014153 -0.004668 0.000000 0.000000 0.000000
# 3 -0.001348 -0.004668 0.006220 0.000000 0.000000 0.000000
# 4 0.000000 0.000000 0.000000 0.040003 0.000000 0.000000
# 5 0.000000 0.000000 0.000000 0.000000 0.225362 0.000000
# 6 0.000000 0.000000 0.000000 0.000000 0.000000 0.026883
#
#
# Mechanical properties :
#
#
# Convention : Reuss Voigt Hill
#
# Bulk Modulus (GPa) = 78.20065 94.40805 86.30435
# Shear Modulus (GPa) = 14.62491 32.84157 23.73324
#
# Velocity S-wave (km/s) = 2.52483 3.78353 3.21635
# Velocity P-wave (km/s) = 6.52579 7.76129 7.17020
#
# Compressibility (1/GPa) = 0.01278762
#
# Stress axis : x y z
#
# Youngs Moduli (GPa) = 114.83825 70.65731 160.78420
#
# Poissons Ratio (x) = 0.15054 0.21677
# Poissons Ratio (y) = 0.24467 0.75047
# Poissons Ratio (z) = 0.15482 0.32980
#
# Static dielectric constant tensor:
#      x y z
#    x 1.974150 0.000000 0.000000 
#    y 0.000000 2.007150 0.000000 
#    z 0.000000 0.000000 1.850980 
# 
# From -- ./inp_files/19938.got.cif
#   From: 2010.05.17/outbox.cif.g08.bks.cpg/sg73_10_cif.got.tgz:19938.got - 2010.06.03 17:35:07.
