data_PCOD9532819
_publ_section_title
;
Structure prediction by ZEFSAII (Michael W. Deem and Ramdas Pophale) SiO2 
 PCOD9532819
Probable space group: I B C A 
;
_chemical_formula_sum "Si O2"
_cell_formula_units_Z 104
_cell_length_a 13.663928
_cell_length_b 15.645637
_cell_length_c 21.472003
_cell_angle_alpha 90.000000
_cell_angle_beta 90.000000
_cell_angle_gamma 90.000000
_cell_volume 4590.303213
_symmetry_space_group_name_H-M "I B C A "
_symmetry_group_IT_number 73
_symmetry_cell_setting 'orthorhombic'
loop_
_space_group_symop_operation_xyz
x,y,z
-x,1/2-y,z
x,-y,1/2-z
1/2-x,y,-z
-x,-y,-z
x,1/2+y,-z
-x,y,1/2+z
1/2+x,-y,z
1/2+x,1/2+y,1/2+z
1/2-x,-y,1/2+z
1/2+x,1/2-y,-z
-x,1/2+y,1/2-z
1/2-x,1/2-y,1/2-z
1/2+x,y,1/2-z
1/2-x,1/2+y,z
x,1/2-y,1/2+z
loop_
_atom_site_type_symbol
_atom_site_label
_atom_site_fract_x
_atom_site_fract_y
_atom_site_fract_z
Si Si1 0.937027 0.516895 0.345271
Si Si2 0.122881 0.572509 0.406166
Si Si3 0.274457 0.945637 0.310959
Si Si4 0.862744 0.019571 0.522063
Si Si5 0.750000 0.186299 0.000000
Si Si6 0.957328 0.342978 0.832172
Si Si7 0.583917 0.194032 0.525748
O O1 0.843210 0.562567 0.314317
O O2 0.890456 0.485737 0.411050
O O3 0.028043 0.580491 0.361025
O O4 0.980625 0.429213 0.315020
O O5 0.189240 0.504786 0.368408
O O6 0.079651 0.525799 0.466769
O O7 0.188327 0.642223 0.442848
O O8 0.345312 0.863299 0.311875
O O9 0.296805 0.000000 0.250000
O O10 0.750000 0.007146 0.500000
O O11 0.881034 0.119656 0.518771
O O12 0.826874 0.243256 0.963052
O O13 0.953175 0.339885 0.907841
O O14 0.000000 0.250000 0.812510
O O15 0.500000 0.250000 0.494952
#
# Coordination Sequence:
#
# PCOD9532819 Si02
#       7
#    16  16  16  16   8  16  16
#     4  11  22  38  66  98 134 180 228 286 342 422
#     4  11  23  38  64  97 132 177 228 274 349 415
#     4  11  24  45  70  99 130 183 246 296 342 410
#     4  12  19  36  61  92 131 172 218 268 336 421
#     4  12  24  38  62 100 146 180 214 290 348 436
#     4  10  24  43  70 101 135 178 233 286 357 430
#     4  11  23  34  58  97 135 179 217 264 352 423
#
# _framework density 22.656454
#
# number of rings (size 3 to 8) (size 9 to 14) (size 15 to 20)
#    0.000    0.923    6.154    1.385    8.615    2.462 
#    0.000    0.769    0.000    4.615    0.000    0.000 
#    0.000    0.000    0.000    0.000    0.000    0.000 
#
# Total GULP energy -289775.598714 kJ/mol
# GULP energy per Si atom -5572.607668 kJ/mol
# Density = 2.260489 g / cm^3
# Si number density = 22.656454 Si / 1000 Ang^3
#
#
#
# Elastic Constant Matrix: (Units=GPa)
#
#
# Indices 1 2 3 4 5 6 
#
# 1 171.7675 67.7075 -1.1430 0.0000 0.0000 0.0000
# 2 67.7075 96.5473 -0.9548 0.0000 0.0000 0.0000
# 3 -1.1430 -0.9548 32.6724 0.0000 0.0000 0.0000
# 4 0.0000 0.0000 0.0000 -30.0790 0.0000 0.0000
# 5 0.0000 0.0000 0.0000 0.0000 26.8364 0.0000
# 6 0.0000 0.0000 0.0000 0.0000 0.0000 19.0634
#
#
#
# Elastic Compliance Matrix: (Units=1/GPa)
#
#
# Indices 1 2 3 4 5 6 
#
# 1 0.008046 -0.005642 0.000117 0.000000 0.000000 0.000000
# 2 -0.005642 0.014316 0.000221 0.000000 0.000000 0.000000
# 3 0.000117 0.000221 0.030617 0.000000 0.000000 0.000000
# 4 0.000000 0.000000 0.000000 -0.033246 0.000000 0.000000
# 5 0.000000 0.000000 0.000000 0.000000 0.037263 0.000000
# 6 0.000000 0.000000 0.000000 0.000000 0.000000 0.052457
#
#
# Mechanical properties :
#
#
# Convention : Reuss Voigt Hill
#
# Bulk Modulus (GPa) = 23.60050 48.02295 35.81173
# Shear Modulus (GPa) = 37.26169 18.85598 28.05884
#
# Velocity S-wave (km/s) = 4.05981 2.88802 3.52298
# Velocity P-wave (km/s) = 5.69345 5.68885 5.69115
#
# Compressibility (1/GPa) = 0.04237198
#
# Stress axis : x y z
#
# Youngs Moduli (GPa) = 124.27810 69.85051 32.66111
#
# Poissons Ratio (x) = 0.39408 -0.00381
# Poissons Ratio (y) = 0.70115 -0.00722
# Poissons Ratio (z) = -0.01449 -0.01544
#
# Static dielectric constant tensor:
#      x y z
#    x 2.191080 0.000000 0.000000 
#    y 0.000000 1.952780 0.000000 
#    z 0.000000 0.000000 -3.735790 
# 
# From -- ./inp_files/26137.got.cif
#   From: 2010.05.17/outbox.cif.g08.bks.cpg/sg73_14_cif.got.tgz:26137.got - 2010.06.03 17:35:07.
