data_PCOD9532829
_publ_section_title
;
Structure prediction by ZEFSAII (Michael W. Deem and Ramdas Pophale) SiO2 
 PCOD9532829
Probable space group: I B C A 
;
_chemical_formula_sum "Si O2"
_cell_formula_units_Z 72
_cell_length_a 15.630828
_cell_length_b 13.951578
_cell_length_c 15.924088
_cell_angle_alpha 90.000000
_cell_angle_beta 90.000000
_cell_angle_gamma 90.000000
_cell_volume 3472.640969
_symmetry_space_group_name_H-M "I B C A "
_symmetry_group_IT_number 73
_symmetry_cell_setting 'orthorhombic'
loop_
_space_group_symop_operation_xyz
x,y,z
-x,1/2-y,z
x,-y,1/2-z
1/2-x,y,-z
-x,-y,-z
x,1/2+y,-z
-x,y,1/2+z
1/2+x,-y,z
1/2+x,1/2+y,1/2+z
1/2-x,-y,1/2+z
1/2+x,1/2-y,-z
-x,1/2+y,1/2-z
1/2-x,1/2-y,1/2-z
1/2+x,y,1/2-z
1/2-x,1/2+y,z
x,1/2-y,1/2+z
loop_
_atom_site_type_symbol
_atom_site_label
_atom_site_fract_x
_atom_site_fract_y
_atom_site_fract_z
Si Si1 0.500000 0.250000 0.672745
Si Si2 0.838674 0.227798 0.204317
Si Si3 0.317943 0.630768 0.061133
Si Si4 0.803371 0.981161 0.347313
Si Si5 0.539800 0.077244 0.563770
O O1 0.582149 0.225210 0.730955
O O2 0.394609 0.471737 0.629406
O O3 0.750000 0.250000 0.250000
O O4 0.849705 0.315745 0.142434
O O5 0.821264 0.131971 0.150238
O O6 0.984582 0.655943 0.114118
O O7 0.250000 0.682121 0.000000
O O8 0.397991 0.628456 0.000795
O O9 0.780744 0.000000 0.250000
O O10 0.731999 0.033741 0.406139
O O11 0.500000 0.000000 0.500000
#
# Coordination Sequence:
#
# PCOD9532829 Si02
#       5
#     8  16  16  16  16
#     4  12  28  46  68 110 140 184 248 290 358 440
#     4  12  25  45  76  99 140 187 235 301 354 433
#     4  10  24  44  67 101 134 184 234 283 360 417
#     4  11  22  46  66 101 138 178 242 291 350 435
#     4  11  27  43  66  99 146 182 232 296 352 428
#
# _framework density 20.733499999999999
#
# number of rings (size 3 to 8) (size 9 to 14) (size 15 to 20)
#    0.000    0.889    4.444    1.333    9.333    2.667 
#    0.000    0.000    0.000    0.000    0.000    0.000 
#    0.000    0.000    0.000    0.000    0.000    0.000 
#
# Total GULP energy -200485.262441 kJ/mol
# GULP energy per Si atom -5569.035068 kJ/mol
# Density = 2.068631 g / cm^3
# Si number density = 20.733500 Si / 1000 Ang^3
#
#
#
# Elastic Constant Matrix: (Units=GPa)
#
#
# Indices 1 2 3 4 5 6 
#
# 1 44.3919 15.2701 19.0952 0.0000 0.0000 0.0000
# 2 15.2701 103.6911 25.8238 0.0000 0.0000 0.0000
# 3 19.0952 25.8238 104.9150 0.0000 0.0000 0.0000
# 4 0.0000 0.0000 0.0000 34.6817 0.0000 0.0000
# 5 0.0000 0.0000 0.0000 0.0000 18.5672 0.0000
# 6 0.0000 0.0000 0.0000 0.0000 0.0000 10.4501
#
#
#
# Elastic Compliance Matrix: (Units=1/GPa)
#
#
# Indices 1 2 3 4 5 6 
#
# 1 0.025145 -0.002731 -0.003904 0.000000 0.000000 0.000000
# 2 -0.002731 0.010570 -0.002105 0.000000 0.000000 0.000000
# 3 -0.003904 -0.002105 0.010760 0.000000 0.000000 0.000000
# 4 0.000000 0.000000 0.000000 0.028834 0.000000 0.000000
# 5 0.000000 0.000000 0.000000 0.000000 0.053858 0.000000
# 6 0.000000 0.000000 0.000000 0.000000 0.000000 0.095693
#
#
# Mechanical properties :
#
#
# Convention : Reuss Voigt Hill
#
# Bulk Modulus (GPa) = 34.48735 41.48624 37.98679
# Shear Modulus (GPa) = 19.84081 25.59374 22.71727
#
# Velocity S-wave (km/s) = 3.09681 3.51724 3.31370
# Velocity P-wave (km/s) = 5.42740 6.04544 5.74474
#
# Compressibility (1/GPa) = 0.02899614
#
# Stress axis : x y z
#
# Youngs Moduli (GPa) = 39.76867 94.60422 92.93474
#
# Poissons Ratio (x) = 0.25833 0.36286
# Poissons Ratio (y) = 0.10859 0.19561
# Poissons Ratio (z) = 0.15528 0.19912
#
# Static dielectric constant tensor:
#      x y z
#    x 1.710370 0.000000 0.000000 
#    y 0.000000 1.710760 0.000000 
#    z 0.000000 0.000000 1.703870 
# 
# From -- ./inp_files/21161.got.cif
#   From: 2010.05.17/outbox.cif.g08.bks.cpg/sg73_11_cif.got.tgz:21161.got - 2010.06.03 17:35:07.
