data_PCOD9532753
_publ_section_title
;
Structure prediction by ZEFSAII (Michael W. Deem and Ramdas Pophale) SiO2 
 PCOD9532753
Probable space group: I B C A 
;
_chemical_formula_sum "Si O2"
_cell_formula_units_Z 48
_cell_length_a 9.578992
_cell_length_b 21.100013
_cell_length_c 9.089569
_cell_angle_alpha 90.000000
_cell_angle_beta 90.000000
_cell_angle_gamma 90.000000
_cell_volume 1837.155106
_symmetry_space_group_name_H-M "I B C A "
_symmetry_group_IT_number 73
_symmetry_cell_setting 'orthorhombic'
loop_
_space_group_symop_operation_xyz
x,y,z
-x,1/2-y,z
x,-y,1/2-z
1/2-x,y,-z
-x,-y,-z
x,1/2+y,-z
-x,y,1/2+z
1/2+x,-y,z
1/2+x,1/2+y,1/2+z
1/2-x,-y,1/2+z
1/2+x,1/2-y,-z
-x,1/2+y,1/2-z
1/2-x,1/2-y,1/2-z
1/2+x,y,1/2-z
1/2-x,1/2+y,z
x,1/2-y,1/2+z
loop_
_atom_site_type_symbol
_atom_site_label
_atom_site_fract_x
_atom_site_fract_y
_atom_site_fract_z
Si Si1 0.476094 0.500000 0.250000
Si Si2 0.500000 0.250000 0.408541
Si Si3 0.732772 0.583623 0.345142
Si Si4 0.163489 0.806723 0.176539
O O1 0.583992 0.549707 0.323364
O O2 0.363025 0.465233 0.354115
O O3 0.537917 0.193857 0.295287
O O4 0.606734 0.283711 0.521119
O O5 0.750000 0.621123 0.500000
O O6 0.762341 0.627003 0.203118
O O7 0.250000 0.750000 0.250000
#
# Coordination Sequence:
#
# PCOD9532753 Si02
#       4
#     8   8  16  16
#     4  10  26  46  66 102 134 188 238 284 348 404
#     4  10  24  42  66 104 140 174 232 278 368 410
#     4  11  24  45  72  97 143 179 240 285 349 418
#     4  11  24  43  69 104 137 182 227 289 354 419
#
# _framework density 26.127352999999999
#
# number of rings (size 3 to 8) (size 9 to 14) (size 15 to 20)
#    0.000    1.333    0.000    4.000   14.000    0.000 
#    0.000    0.000    0.000    0.000    0.000    0.000 
#    0.000    0.000    0.000    0.000    0.000    0.000 
#
# Total GULP energy -134039.219627 kJ/mol
# GULP energy per Si atom -5584.967484 kJ/mol
# Density = 2.606789 g / cm^3
# Si number density = 26.127353 Si / 1000 Ang^3
#
#
#
# Elastic Constant Matrix: (Units=GPa)
#
#
# Indices 1 2 3 4 5 6 
#
# 1 151.9115 15.6987 -4.3626 0.0001 0.0000 0.0000
# 2 15.6987 59.7104 -13.9072 0.0000 0.0000 0.0000
# 3 -4.3626 -13.9072 99.2034 0.0001 0.0001 -0.0001
# 4 0.0001 0.0000 0.0001 30.8133 0.0000 0.0000
# 5 0.0000 0.0000 0.0001 0.0000 25.7993 0.0000
# 6 0.0000 0.0000 -0.0001 0.0000 0.0000 45.7501
#
#
#
# Elastic Compliance Matrix: (Units=1/GPa)
#
#
# Indices 1 2 3 4 5 6 
#
# 1 0.006767 -0.001768 0.000050 0.000000 0.000000 0.000000
# 2 -0.001768 0.017774 0.002414 0.000000 0.000000 0.000000
# 3 0.000050 0.002414 0.010421 0.000000 0.000000 0.000000
# 4 0.000000 0.000000 0.000000 0.032454 0.000000 0.000000
# 5 0.000000 0.000000 0.000000 0.000000 0.038761 0.000000
# 6 0.000000 0.000000 0.000000 0.000000 0.000000 0.021858
#
#
# Mechanical properties :
#
#
# Convention : Reuss Voigt Hill
#
# Bulk Modulus (GPa) = 27.50658 33.96477 30.73568
# Shear Modulus (GPa) = 36.03345 41.36564 38.69955
#
# Velocity S-wave (km/s) = 3.71772 3.98330 3.85280
# Velocity P-wave (km/s) = 5.38324 5.84667 5.61973
#
# Compressibility (1/GPa) = 0.03635493
#
# Stress axis : x y z
#
# Youngs Moduli (GPa) = 147.77889 56.26049 95.96090
#
# Poissons Ratio (x) = 0.09944 -0.00478
# Poissons Ratio (y) = 0.26120 -0.23165
# Poissons Ratio (z) = -0.00736 -0.13582
#
# Static dielectric constant tensor:
#      x y z
#    x 2.735780 0.000000 0.000000 
#    y 0.000000 2.030890 0.000000 
#    z 0.000000 0.000000 2.083200 
# 
# From -- ./inp_files/3777.got.cif
#   From: 2010.05.17/outbox.cif.g08.bks.cpg/sg73_2_cif.got.tgz:3777.got - 2010.06.03 17:35:07.
