data_PCOD9532159
_publ_section_title
;
Structure prediction by ZEFSAII (Michael W. Deem and Ramdas Pophale) SiO2 
 PCOD9532159
Probable space group: I B C A 
;
_chemical_formula_sum "Si O2"
_cell_formula_units_Z 96
_cell_length_a 23.082669
_cell_length_b 11.405408
_cell_length_c 17.439341
_cell_angle_alpha 90.000000
_cell_angle_beta 90.000000
_cell_angle_gamma 90.000000
_cell_volume 4591.207481
_symmetry_space_group_name_H-M "I B C A "
_symmetry_group_IT_number 73
_symmetry_cell_setting 'orthorhombic'
loop_
_space_group_symop_operation_xyz
x,y,z
-x,1/2-y,z
x,-y,1/2-z
1/2-x,y,-z
-x,-y,-z
x,1/2+y,-z
-x,y,1/2+z
1/2+x,-y,z
1/2+x,1/2+y,1/2+z
1/2-x,-y,1/2+z
1/2+x,1/2-y,-z
-x,1/2+y,1/2-z
1/2-x,1/2-y,1/2-z
1/2+x,y,1/2-z
1/2-x,1/2+y,z
x,1/2-y,1/2+z
loop_
_atom_site_type_symbol
_atom_site_label
_atom_site_fract_x
_atom_site_fract_y
_atom_site_fract_z
Si Si1 0.131094 0.648280 0.710642
Si Si2 0.250000 0.210306 0.500000
Si Si3 0.235642 0.500000 0.750000
Si Si4 0.809435 0.853980 0.131899
Si Si5 0.484125 0.125719 0.462200
Si Si6 0.359640 0.541251 0.518544
Si Si7 0.412293 0.066177 0.866135
O O1 0.191844 0.578400 0.699931
O O2 0.142835 0.768055 0.668509
O O3 0.083656 0.563628 0.671980
O O4 0.118531 0.645957 0.801554
O O5 0.264855 0.289575 0.573989
O O6 0.305962 0.127523 0.493277
O O7 0.273637 0.414632 0.699207
O O8 0.842359 0.951578 0.083915
O O9 0.500000 0.250000 0.501874
O O10 0.415291 0.117419 0.456750
O O11 0.500000 0.000000 0.500000
O O12 0.473682 0.878736 0.611331
O O13 0.376221 0.463273 0.443395
#
# Coordination Sequence:
#
# PCOD9532159 Si02
#       7
#    16   8   8  16  16  16  16
#     4  10  22  42  67  92 144 191 235 292 375 441
#     4  12  26  40  72 104 148 184 238 312 368 442
#     4  10  24  42  58  96 138 192 236 288 364 454
#     4  12  25  41  68 100 144 190 237 304 365 441
#     4  10  24  43  72 101 139 185 237 305 360 429
#     4  11  25  42  68 111 137 179 251 300 367 431
#     4   9  21  43  68  98 131 185 237 287 362 436
#
# _framework density 20.909531999999999
#
# number of rings (size 3 to 8) (size 9 to 14) (size 15 to 20)
#    0.000    1.667    1.667    2.000   11.667    1.333 
#    0.000    5.000    0.000    1.000    0.000    0.000 
#    0.000    0.000    0.000    0.000    0.000    0.000 
#
# Total GULP energy -267895.233531 kJ/mol
# GULP energy per Si atom -5581.150699 kJ/mol
# Density = 2.086194 g / cm^3
# Si number density = 20.909532 Si / 1000 Ang^3
#
#
#
# Elastic Constant Matrix: (Units=GPa)
#
#
# Indices 1 2 3 4 5 6 
#
# 1 123.9414 41.0924 22.1152 0.0000 0.0000 0.0000
# 2 41.0924 110.5225 31.7461 0.0000 0.0000 0.0000
# 3 22.1152 31.7461 57.7285 0.0000 0.0000 0.0000
# 4 0.0000 0.0000 0.0000 47.8322 0.0000 0.0000
# 5 0.0000 0.0000 0.0000 0.0000 25.0125 0.0000
# 6 0.0000 0.0000 0.0000 0.0000 0.0000 51.4131
#
#
#
# Elastic Compliance Matrix: (Units=1/GPa)
#
#
# Indices 1 2 3 4 5 6 
#
# 1 0.009392 -0.002920 -0.001992 0.000000 0.000000 0.000000
# 2 -0.002920 0.011653 -0.005290 0.000000 0.000000 0.000000
# 3 -0.001992 -0.005290 0.020995 0.000000 0.000000 0.000000
# 4 0.000000 0.000000 0.000000 0.020906 0.000000 0.000000
# 5 0.000000 0.000000 0.000000 0.000000 0.039980 0.000000
# 6 0.000000 0.000000 0.000000 0.000000 0.000000 0.019450
#
#
# Mechanical properties :
#
#
# Convention : Reuss Voigt Hill
#
# Bulk Modulus (GPa) = 46.21925 53.56665 49.89295
# Shear Modulus (GPa) = 33.33528 38.00080 35.66804
#
# Velocity S-wave (km/s) = 3.99715 4.26771 4.13465
# Velocity P-wave (km/s) = 6.59207 7.06813 6.83424
#
# Compressibility (1/GPa) = 0.02163601
#
# Stress axis : x y z
#
# Youngs Moduli (GPa) = 106.47565 85.81606 47.63130
#
# Poissons Ratio (x) = 0.25055 0.09490
# Poissons Ratio (y) = 0.31087 0.25195
# Poissons Ratio (z) = 0.21214 0.45394
#
# Static dielectric constant tensor:
#      x y z
#    x 1.756280 0.000000 0.000000 
#    y 0.000000 2.022620 0.000000 
#    z 0.000000 0.000000 1.780020 
# 
# From -- ./inp_files/23872.got.cif
#   From: 2010.05.17/outbox.cif.g08.bks.cpg/sg73_12_cif.got.tgz:23872.got - 2010.06.03 17:35:07.
