data_PCOD9532245
_publ_section_title
;
Structure prediction by ZEFSAII (Michael W. Deem and Ramdas Pophale) SiO2 
 PCOD9532245
Probable space group: I B C A 
;
_chemical_formula_sum "Si O2"
_cell_formula_units_Z 120
_cell_length_a 25.282441
_cell_length_b 25.250475
_cell_length_c 8.759160
_cell_angle_alpha 90.000000
_cell_angle_beta 90.000000
_cell_angle_gamma 90.000000
_cell_volume 5591.792074
_symmetry_space_group_name_H-M "I B C A "
_symmetry_group_IT_number 73
_symmetry_cell_setting 'orthorhombic'
loop_
_space_group_symop_operation_xyz
x,y,z
-x,1/2-y,z
x,-y,1/2-z
1/2-x,y,-z
-x,-y,-z
x,1/2+y,-z
-x,y,1/2+z
1/2+x,-y,z
1/2+x,1/2+y,1/2+z
1/2-x,-y,1/2+z
1/2+x,1/2-y,-z
-x,1/2+y,1/2-z
1/2-x,1/2-y,1/2-z
1/2+x,y,1/2-z
1/2-x,1/2+y,z
x,1/2-y,1/2+z
loop_
_atom_site_type_symbol
_atom_site_label
_atom_site_fract_x
_atom_site_fract_y
_atom_site_fract_z
Si Si1 0.508950 0.834985 0.741286
Si Si2 0.417837 0.755524 0.840269
Si Si3 0.750000 0.671818 0.500000
Si Si4 0.715223 0.853489 0.657228
Si Si5 0.844495 0.755513 0.895117
Si Si6 0.695942 0.531229 0.094709
Si Si7 0.082236 0.002992 0.563684
Si Si8 0.495183 0.911975 0.489350
O O1 0.462636 0.797937 0.805682
O O2 0.561276 0.800590 0.773669
O O3 0.496577 0.854584 0.571189
O O4 0.509675 0.892747 0.816406
O O5 0.363685 0.777526 0.766710
O O6 0.399355 0.746686 0.011979
O O7 0.758389 0.645391 0.670480
O O8 0.698394 0.708181 0.524003
O O9 0.750000 0.851428 0.500000
O O10 0.680307 0.801076 0.642755
O O11 0.683768 0.908084 0.639202
O O12 0.705310 0.500000 0.250000
O O13 0.643392 0.507927 0.017454
O O14 0.750000 0.529126 0.000000
O O15 0.047808 0.053948 0.515922
O O16 0.080861 0.000000 0.750000
O O17 0.053591 0.952156 0.488073
#
# Coordination Sequence:
#
# PCOD9532245 Si02
#       8
#    16  16   8  16  16  16  16  16
#     4  11  24  43  62  99 135 175 222 279 340 430
#     4  11  25  39  63  97 141 177 222 273 348 415
#     4  12  24  44  70 104 146 182 244 294 336 432
#     4  11  24  43  70  99 138 188 236 289 354 419
#     4  12  22  42  66  98 138 184 226 282 338 415
#     4  10  25  48  69  97 137 179 231 298 359 430
#     4  10  22  43  68  96 127 169 226 288 347 410
#     4  11  22  41  70  95 128 173 227 279 347 413
#
# _framework density 21.460025000000002
#
# number of rings (size 3 to 8) (size 9 to 14) (size 15 to 20)
#    0.000    1.067    3.333    2.800    4.667    2.133 
#    7.200    0.000    0.000    0.000    0.000    0.000 
#    0.000    0.000    0.000    0.000    0.000    0.000 
#
# Total GULP energy -334424.338574 kJ/mol
# GULP energy per Si atom -5573.738976 kJ/mol
# Density = 2.141118 g / cm^3
# Si number density = 21.460025 Si / 1000 Ang^3
#
#
#
# Elastic Constant Matrix: (Units=GPa)
#
#
# Indices 1 2 3 4 5 6 
#
# 1 99.2694 22.2215 22.8568 0.0000 0.0000 0.0000
# 2 22.2215 63.7732 14.1058 0.0000 0.0000 0.0000
# 3 22.8568 14.1058 66.1339 0.0000 0.0000 0.0000
# 4 0.0000 0.0000 0.0000 34.7355 0.0000 0.0000
# 5 0.0000 0.0000 0.0000 0.0000 34.6086 0.0000
# 6 0.0000 0.0000 0.0000 0.0000 0.0000 -156.7572
#
#
#
# Elastic Compliance Matrix: (Units=1/GPa)
#
#
# Indices 1 2 3 4 5 6 
#
# 1 0.011572 -0.003303 -0.003295 0.000000 0.000000 0.000000
# 2 -0.003303 0.017400 -0.002570 0.000000 0.000000 0.000000
# 3 -0.003295 -0.002570 0.016808 0.000000 0.000000 0.000000
# 4 0.000000 0.000000 0.000000 0.028789 0.000000 0.000000
# 5 0.000000 0.000000 0.000000 0.000000 0.028895 0.000000
# 6 0.000000 0.000000 0.000000 0.000000 0.000000 -0.006379
#
#
# Mechanical properties :
#
#
# Convention : Reuss Voigt Hill
#
# Bulk Modulus (GPa) = 36.43799 38.61609 37.52704
# Shear Modulus (GPa) = 40.13909 -6.14980 16.99465
#
# Velocity S-wave (km/s) = 4.32952 -1.69467 2.81716
# Velocity P-wave (km/s) = 6.48146 3.76885 5.30158
#
# Compressibility (1/GPa) = 0.02744389
#
# Stress axis : x y z
#
# Youngs Moduli (GPa) = 86.41791 57.47141 59.49686
#
# Poissons Ratio (x) = 0.18985 0.19603
# Poissons Ratio (y) = 0.28547 0.15288
# Poissons Ratio (z) = 0.28473 0.14768
#
# Static dielectric constant tensor:
#      x y z
#    x 1.764960 0.000000 0.000000 
#    y 0.000000 1.745430 0.000000 
#    z 0.000000 0.000000 1.818760 
# 
# From -- ./inp_files/7377.got.cif
#   From: 2010.05.17/outbox.cif.g08.bks.cpg/sg73_4_cif.got.tgz:7377.got - 2010.06.03 17:35:07.
