data_PCOD9532413
_publ_section_title
;
Structure prediction by ZEFSAII (Michael W. Deem and Ramdas Pophale) SiO2 
 PCOD9532413
Probable space group: I B C A 
;
_chemical_formula_sum "Si O2"
_cell_formula_units_Z 88
_cell_length_a 17.390506
_cell_length_b 9.332218
_cell_length_c 25.108843
_cell_angle_alpha 90.000000
_cell_angle_beta 90.000000
_cell_angle_gamma 90.000000
_cell_volume 4074.964175
_symmetry_space_group_name_H-M "I B C A "
_symmetry_group_IT_number 73
_symmetry_cell_setting 'orthorhombic'
loop_
_space_group_symop_operation_xyz
x,y,z
-x,1/2-y,z
x,-y,1/2-z
1/2-x,y,-z
-x,-y,-z
x,1/2+y,-z
-x,y,1/2+z
1/2+x,-y,z
1/2+x,1/2+y,1/2+z
1/2-x,-y,1/2+z
1/2+x,1/2-y,-z
-x,1/2+y,1/2-z
1/2-x,1/2-y,1/2-z
1/2+x,y,1/2-z
1/2-x,1/2+y,z
x,1/2-y,1/2+z
loop_
_atom_site_type_symbol
_atom_site_label
_atom_site_fract_x
_atom_site_fract_y
_atom_site_fract_z
Si Si1 0.863018 0.658044 0.228404
Si Si2 0.643663 0.103714 0.486052
Si Si3 0.500000 0.250000 0.936753
Si Si4 0.804339 0.893637 0.300342
Si Si5 0.500000 0.250000 0.152822
Si Si6 0.250000 0.139933 0.500000
Si Si7 0.899853 0.494231 0.897143
O O1 0.873678 0.500000 0.250000
O O2 0.855614 0.762413 0.279213
O O3 0.782729 0.663089 0.195673
O O4 0.931894 0.697541 0.190446
O O5 0.557441 0.142743 0.468595
O O6 0.692866 0.245790 0.472499
O O7 0.692825 0.965042 0.466589
O O8 0.638600 0.065487 0.548877
O O9 0.444375 0.356545 0.905505
O O10 0.838124 0.974936 0.350910
O O11 0.803616 0.000000 0.250000
O O12 0.536537 0.377803 0.119141
#
# Coordination Sequence:
#
# PCOD9532413 Si02
#       7
#    16  16   8  16   8   8  16
#     4  10  24  44  72  94 145 187 224 300 350 417
#     4  11  24  50  70 106 141 187 235 305 352 433
#     4  12  27  49  74 104 146 190 239 309 364 428
#     4  10  22  49  67 100 140 186 236 287 353 425
#     4  12  27  41  66 108 136 186 235 291 352 422
#     4  10  24  46  76 100 140 188 238 290 364 420
#     4  12  27  44  73 103 141 192 241 293 365 436
#
# _framework density 21.595281
#
# number of rings (size 3 to 8) (size 9 to 14) (size 15 to 20)
#    0.000    1.091    3.636    1.091    7.636    1.455 
#    3.273    0.000    0.000    0.000    0.000    0.000 
#    0.000    0.000    0.000    0.000    0.000    0.000 
#
# Total GULP energy -245669.611858 kJ/mol
# GULP energy per Si atom -5583.400270 kJ/mol
# Density = 2.154613 g / cm^3
# Si number density = 21.595281 Si / 1000 Ang^3
#
#
#
# Elastic Constant Matrix: (Units=GPa)
#
#
# Indices 1 2 3 4 5 6 
#
# 1 104.0771 22.1801 52.5817 0.0000 0.0000 0.0000
# 2 22.1801 125.0342 22.8531 0.0000 0.0000 0.0000
# 3 52.5817 22.8531 88.2163 0.0000 0.0000 0.0000
# 4 0.0000 0.0000 0.0000 29.1543 0.0000 0.0000
# 5 0.0000 0.0000 0.0000 0.0000 18.8463 0.0000
# 6 0.0000 0.0000 0.0000 0.0000 0.0000 25.0250
#
#
#
# Elastic Compliance Matrix: (Units=1/GPa)
#
#
# Indices 1 2 3 4 5 6 
#
# 1 0.013866 -0.000996 -0.008007 0.000000 0.000000 0.000000
# 2 -0.000996 0.008467 -0.001600 0.000000 0.000000 0.000000
# 3 -0.008007 -0.001600 0.016523 0.000000 0.000000 0.000000
# 4 0.000000 0.000000 0.000000 0.034300 0.000000 0.000000
# 5 0.000000 0.000000 0.000000 0.000000 0.053061 0.000000
# 6 0.000000 0.000000 0.000000 0.000000 0.000000 0.039960
#
#
# Mechanical properties :
#
#
# Convention : Reuss Voigt Hill
#
# Bulk Modulus (GPa) = 56.65660 56.95083 56.80371
# Shear Modulus (GPa) = 25.87127 29.25262 27.56195
#
# Velocity S-wave (km/s) = 3.46498 3.68446 3.57640
# Velocity P-wave (km/s) = 6.50390 6.67304 6.58901
#
# Compressibility (1/GPa) = 0.01765020
#
# Stress axis : x y z
#
# Youngs Moduli (GPa) = 72.12063 118.10692 60.52345
#
# Poissons Ratio (x) = 0.11767 0.48459
# Poissons Ratio (y) = 0.07185 0.09681
# Poissons Ratio (z) = 0.57744 0.18892
#
# Static dielectric constant tensor:
#      x y z
#    x 1.805440 0.000000 0.000000 
#    y 0.000000 1.823100 0.000000 
#    z 0.000000 0.000000 1.760890 
# 
# From -- ./inp_files/34522.got.cif
#   From: 2010.05.17/outbox.cif.g08.bks.cpg/sg73_18_cif.got.tgz:34522.got - 2010.06.03 17:35:07.
