data_PCOD9532391
_publ_section_title
;
Structure prediction by ZEFSAII (Michael W. Deem and Ramdas Pophale) SiO2 
 PCOD9532391
Probable space group: I B C A 
;
_chemical_formula_sum "Si O2"
_cell_formula_units_Z 104
_cell_length_a 7.963611
_cell_length_b 24.760228
_cell_length_c 21.265309
_cell_angle_alpha 90.000000
_cell_angle_beta 90.000000
_cell_angle_gamma 90.000000
_cell_volume 4193.111153
_symmetry_space_group_name_H-M "I B C A "
_symmetry_group_IT_number 73
_symmetry_cell_setting 'orthorhombic'
loop_
_space_group_symop_operation_xyz
x,y,z
-x,1/2-y,z
x,-y,1/2-z
1/2-x,y,-z
-x,-y,-z
x,1/2+y,-z
-x,y,1/2+z
1/2+x,-y,z
1/2+x,1/2+y,1/2+z
1/2-x,-y,1/2+z
1/2+x,1/2-y,-z
-x,1/2+y,1/2-z
1/2-x,1/2-y,1/2-z
1/2+x,y,1/2-z
1/2-x,1/2+y,z
x,1/2-y,1/2+z
loop_
_atom_site_type_symbol
_atom_site_label
_atom_site_fract_x
_atom_site_fract_y
_atom_site_fract_z
Si Si1 0.250000 0.257293 0.000000
Si Si2 0.933985 0.444415 0.473350
Si Si3 0.528786 0.311475 0.664524
Si Si4 0.926440 0.189772 0.192886
Si Si5 0.522165 0.667923 0.466116
Si Si6 0.348321 0.037766 0.669243
Si Si7 0.027269 0.575217 0.801720
O O1 0.110899 0.210814 0.011761
O O2 0.158108 0.301400 0.956582
O O3 0.750000 0.436182 0.500000
O O4 0.918875 0.447036 0.398361
O O5 0.000000 0.500000 0.500000
O O6 0.029555 0.390849 0.494964
O O7 0.500000 0.250000 0.646267
O O8 0.437277 0.315445 0.731503
O O9 0.730423 0.319010 0.674599
O O10 0.433157 0.340044 0.606955
O O11 0.036184 0.136885 0.174310
O O12 0.000000 0.250000 0.176230
O O13 0.158109 0.056204 0.678628
O O14 0.449118 0.066889 0.726155
O O15 0.353713 0.972559 0.673442
#
# Coordination Sequence:
#
# PCOD9532391 Si02
#       7
#     8  16  16  16  16  16  16
#     4  10  22  46  76  96 126 176 238 282 338 394
#     4  12  27  46  69 101 145 183 227 287 349 411
#     4  11  22  42  66  98 144 177 215 272 339 409
#     4  11  23  40  66 105 144 176 213 272 348 420
#     4  11  23  48  73  98 134 178 233 288 331 404
#     4  11  24  44  72  99 132 183 229 286 337 394
#     4  11  22  43  71  99 133 175 238 281 331 408
#
# _framework density 24.802588
#
# number of rings (size 3 to 8) (size 9 to 14) (size 15 to 20)
#    0.000    0.923    2.308    7.385    1.077    0.000 
#    2.769    6.154    3.385    0.000    0.000    0.000 
#    0.000    0.000    0.000    0.000    0.000    0.000 
#
# Total GULP energy -289836.472758 kJ/mol
# GULP energy per Si atom -5573.778322 kJ/mol
# Density = 2.474614 g / cm^3
# Si number density = 24.802588 Si / 1000 Ang^3
#
#
#
# Elastic Constant Matrix: (Units=GPa)
#
#
# Indices 1 2 3 4 5 6 
#
# 1 52.7270 27.1861 -2.4761 0.0000 0.0000 0.0000
# 2 27.1861 209.7718 3.7320 0.0000 0.0000 0.0000
# 3 -2.4761 3.7320 27.7555 0.0000 0.0000 0.0000
# 4 0.0000 0.0000 0.0000 10.5162 0.0000 0.0000
# 5 0.0000 0.0000 0.0000 0.0000 17.3591 0.0000
# 6 0.0000 0.0000 0.0000 0.0000 0.0000 32.1010
#
#
#
# Elastic Compliance Matrix: (Units=1/GPa)
#
#
# Indices 1 2 3 4 5 6 
#
# 1 0.020455 -0.002690 0.002186 0.000000 0.000000 0.000000
# 2 -0.002690 0.005132 -0.000930 0.000000 0.000000 0.000000
# 3 0.002186 -0.000930 0.036349 0.000000 0.000000 0.000000
# 4 0.000000 0.000000 0.000000 0.095091 0.000000 0.000000
# 5 0.000000 0.000000 0.000000 0.000000 0.057607 0.000000
# 6 0.000000 0.000000 0.000000 0.000000 0.000000 0.031152
#
#
# Mechanical properties :
#
#
# Convention : Reuss Voigt Hill
#
# Bulk Modulus (GPa) = 16.92919 38.57094 27.75007
# Shear Modulus (GPa) = 18.63287 29.44939 24.04113
#
# Velocity S-wave (km/s) = 2.74386 3.44953 3.11673
# Velocity P-wave (km/s) = 4.10838 5.60809 4.91576
#
# Compressibility (1/GPa) = 0.05906956
#
# Stress axis : x y z
#
# Youngs Moduli (GPa) = 48.88731 194.84692 27.51109
#
# Poissons Ratio (x) = 0.52411 -0.06015
# Poissons Ratio (y) = 0.13150 0.02559
# Poissons Ratio (z) = -0.10689 0.18122
#
# Static dielectric constant tensor:
#      x y z
#    x 1.895800 0.000000 0.000000 
#    y 0.000000 2.029340 0.000000 
#    z 0.000000 0.000000 1.838020 
# 
# From -- ./inp_files/28499.got.cif
#   From: 2010.05.17/outbox.cif.g08.bks.cpg/sg73_15_cif.got.tgz:28499.got - 2010.06.03 17:35:07.
