data_PCOD9532364
_publ_section_title
;
Structure prediction by ZEFSAII (Michael W. Deem and Ramdas Pophale) SiO2 
 PCOD9532364
Probable space group: I B C A 
;
_chemical_formula_sum "Si O2"
_cell_formula_units_Z 64
_cell_length_a 16.850694
_cell_length_b 9.516492
_cell_length_c 14.023338
_cell_angle_alpha 90.000000
_cell_angle_beta 90.000000
_cell_angle_gamma 90.000000
_cell_volume 2248.775395
_symmetry_space_group_name_H-M "I B C A "
_symmetry_group_IT_number 73
_symmetry_cell_setting 'orthorhombic'
loop_
_space_group_symop_operation_xyz
x,y,z
-x,1/2-y,z
x,-y,1/2-z
1/2-x,y,-z
-x,-y,-z
x,1/2+y,-z
-x,y,1/2+z
1/2+x,-y,z
1/2+x,1/2+y,1/2+z
1/2-x,-y,1/2+z
1/2+x,1/2-y,-z
-x,1/2+y,1/2-z
1/2-x,1/2-y,1/2-z
1/2+x,y,1/2-z
1/2-x,1/2+y,z
x,1/2-y,1/2+z
loop_
_atom_site_type_symbol
_atom_site_label
_atom_site_fract_x
_atom_site_fract_y
_atom_site_fract_z
Si Si1 0.909026 0.032755 0.136767
Si Si2 0.671077 0.310912 0.798478
Si Si3 0.339563 0.804321 0.509346
Si Si4 0.560583 0.123790 0.125064
O O1 0.861305 0.920640 0.073416
O O2 0.002905 0.011112 0.114532
O O3 0.901992 0.000000 0.250000
O O4 0.871168 0.186969 0.140956
O O5 0.750000 0.250000 0.750000
O O6 0.619421 0.368027 0.713602
O O7 0.672940 0.403539 0.894396
O O8 0.250000 0.746189 0.500000
O O9 0.399562 0.681409 0.470584
O O10 0.500000 0.250000 0.151727
#
# Coordination Sequence:
#
# PCOD9532364 Si02
#       4
#    16  16  16  16
#     4  11  23  48  76 109 165 216 274 340 432 495
#     4  12  24  48  84 111 166 216 274 362 417 506
#     4  11  23  45  75 118 157 208 282 340 413 507
#     4  10  22  45  74 110 162 209 265 343 420 499
#
# _framework density 28.459935999999999
#
# number of rings (size 3 to 8) (size 9 to 14) (size 15 to 20)
#    0.000    1.000    7.500    0.000    0.000    5.000 
#    4.500    1.250    0.000    0.000    0.000    0.000 
#    0.000    0.000    0.000    0.000    0.000    0.000 
#
# Total GULP energy -178880.601242 kJ/mol
# GULP energy per Si atom -5590.018789 kJ/mol
# Density = 2.839516 g / cm^3
# Si number density = 28.459936 Si / 1000 Ang^3
#
#
#
# Elastic Constant Matrix: (Units=GPa)
#
#
# Indices 1 2 3 4 5 6 
#
# 1 195.2788 24.3681 76.8434 0.0000 0.0000 0.0000
# 2 24.3681 64.5311 -21.1969 0.0000 0.0000 0.0000
# 3 76.8434 -21.1969 254.1143 0.0000 0.0000 0.0000
# 4 0.0000 0.0000 0.0000 -56.7076 0.0000 0.0000
# 5 0.0000 0.0000 0.0000 0.0000 71.1726 0.0000
# 6 0.0000 0.0000 0.0000 0.0000 0.0000 46.0923
#
#
#
# Elastic Compliance Matrix: (Units=1/GPa)
#
#
# Indices 1 2 3 4 5 6 
#
# 1 0.006372 -0.003124 -0.002187 0.000000 0.000000 0.000000
# 2 -0.003124 0.017465 0.002402 0.000000 0.000000 0.000000
# 3 -0.002187 0.002402 0.004797 0.000000 0.000000 0.000000
# 4 0.000000 0.000000 0.000000 -0.017634 0.000000 0.000000
# 5 0.000000 0.000000 0.000000 0.000000 0.014050 0.000000
# 6 0.000000 0.000000 0.000000 0.000000 0.000000 0.021696
#
#
# Mechanical properties :
#
#
# Convention : Reuss Voigt Hill
#
# Bulk Modulus (GPa) = 43.83394 74.88373 59.35883
# Shear Modulus (GPa) = 83.09775 41.03877 62.06826
#
# Velocity S-wave (km/s) = 5.40939 3.80147 4.67508
# Velocity P-wave (km/s) = 7.37908 6.75554 7.07418
#
# Compressibility (1/GPa) = 0.02281337
#
# Stress axis : x y z
#
# Youngs Moduli (GPa) = 156.94849 57.25686 208.46265
#
# Poissons Ratio (x) = 0.17890 0.45598
# Poissons Ratio (y) = 0.49038 -0.50066
# Poissons Ratio (z) = 0.34330 -0.13751
#
# Static dielectric constant tensor:
#      x y z
#    x 2.406640 0.000000 0.000000 
#    y 0.000000 2.256830 0.000000 
#    z 0.000000 0.000000 1.948370 
# 
# From -- ./inp_files/17617.got.cif
#   From: 2010.05.17/outbox.cif.g08.bks.cpg/sg73_9_cif.got.tgz:17617.got - 2010.06.03 17:35:07.
