data_PCOD9532460
_publ_section_title
;
Structure prediction by ZEFSAII (Michael W. Deem and Ramdas Pophale) SiO2 
 PCOD9532460
Probable space group: I B C A 
;
_chemical_formula_sum "Si O2"
_cell_formula_units_Z 120
_cell_length_a 16.173097
_cell_length_b 11.669733
_cell_length_c 27.671003
_cell_angle_alpha 90.000000
_cell_angle_beta 90.000000
_cell_angle_gamma 90.000000
_cell_volume 5222.506779
_symmetry_space_group_name_H-M "I B C A "
_symmetry_group_IT_number 73
_symmetry_cell_setting 'orthorhombic'
loop_
_space_group_symop_operation_xyz
x,y,z
-x,1/2-y,z
x,-y,1/2-z
1/2-x,y,-z
-x,-y,-z
x,1/2+y,-z
-x,y,1/2+z
1/2+x,-y,z
1/2+x,1/2+y,1/2+z
1/2-x,-y,1/2+z
1/2+x,1/2-y,-z
-x,1/2+y,1/2-z
1/2-x,1/2-y,1/2-z
1/2+x,y,1/2-z
1/2-x,1/2+y,z
x,1/2-y,1/2+z
loop_
_atom_site_type_symbol
_atom_site_label
_atom_site_fract_x
_atom_site_fract_y
_atom_site_fract_z
Si Si1 0.376383 0.160548 0.250380
Si Si2 0.060346 0.019979 0.562551
Si Si3 0.000000 0.250000 0.176164
Si Si4 0.576264 0.341452 0.146046
Si Si5 0.694070 0.402352 0.715832
Si Si6 0.878991 0.741723 0.406010
Si Si7 0.371766 0.485689 0.464693
Si Si8 0.702810 0.652265 0.888744
O O1 0.449311 0.166037 0.289005
O O2 0.404327 0.109862 0.199267
O O3 0.353147 0.288620 0.232166
O O4 0.291145 0.114620 0.272233
O O5 0.068540 0.156427 0.569081
O O6 0.968102 0.988022 0.546039
O O7 0.068197 0.950416 0.611698
O O8 0.129075 0.985102 0.522733
O O9 0.930720 0.301825 0.140289
O O10 0.500000 0.250000 0.148366
O O11 0.648335 0.264655 0.121896
O O12 0.660831 0.500000 0.750000
O O13 0.686217 0.424464 0.658943
O O14 0.856240 0.638363 0.441460
O O15 0.796541 0.805949 0.389186
O O16 0.320382 0.582649 0.436744
#
# Coordination Sequence:
#
# PCOD9532460 Si02
#       8
#    16  16   8  16  16  16  16  16
#     4  10  23  41  66 100 139 187 235 292 357 430
#     4  11  26  47  76 105 139 190 243 301 372 433
#     4  12  22  44  68 102 142 186 234 296 356 434
#     4  11  23  45  72 103 146 186 243 300 358 438
#     4  10  23  40  66  97 139 186 231 294 359 425
#     4  12  27  47  72 105 144 190 237 302 364 434
#     4  11  26  48  75 101 144 185 242 303 366 440
#     4  11  26  44  70 107 142 190 240 295 366 432
#
# _framework density 22.977471000000001
#
# number of rings (size 3 to 8) (size 9 to 14) (size 15 to 20)
#    0.000    1.067    4.667    0.000    7.467    0.533 
#    0.000    0.667    0.000    0.000    0.000    0.000 
#    0.000    0.000    0.000    0.000    0.000    0.000 
#
# Total GULP energy -335532.001219 kJ/mol
# GULP energy per Si atom -5592.200020 kJ/mol
# Density = 2.292517 g / cm^3
# Si number density = 22.977471 Si / 1000 Ang^3
#
#
#
# Elastic Constant Matrix: (Units=GPa)
#
#
# Indices 1 2 3 4 5 6 
#
# 1 81.8163 4.0141 14.8226 0.0000 0.0000 0.0000
# 2 4.0141 61.1668 26.9734 0.0000 0.0000 0.0000
# 3 14.8226 26.9734 110.4465 0.0000 0.0000 0.0000
# 4 0.0000 0.0000 0.0000 27.1770 0.0000 0.0000
# 5 0.0000 0.0000 0.0000 0.0000 21.7450 0.0000
# 6 0.0000 0.0000 0.0000 0.0000 0.0000 21.4812
#
#
#
# Elastic Compliance Matrix: (Units=1/GPa)
#
#
# Indices 1 2 3 4 5 6 
#
# 1 0.012528 -0.000090 -0.001659 0.000000 0.000000 0.000000
# 2 -0.000090 0.018323 -0.004463 0.000000 0.000000 0.000000
# 3 -0.001659 -0.004463 0.010367 0.000000 0.000000 0.000000
# 4 0.000000 0.000000 0.000000 0.036796 0.000000 0.000000
# 5 0.000000 0.000000 0.000000 0.000000 0.045988 0.000000
# 6 0.000000 0.000000 0.000000 0.000000 0.000000 0.046552
#
#
# Mechanical properties :
#
#
# Convention : Reuss Voigt Hill
#
# Bulk Modulus (GPa) = 34.73149 38.33885 36.53517
# Shear Modulus (GPa) = 25.96396 27.92193 26.94295
#
# Velocity S-wave (km/s) = 3.36516 3.48974 3.42801
# Velocity P-wave (km/s) = 5.49975 5.74102 5.62168
#
# Compressibility (1/GPa) = 0.02879232
#
# Stress axis : x y z
#
# Youngs Moduli (GPa) = 79.82417 54.57738 96.46273
#
# Poissons Ratio (x) = 0.00494 0.16005
# Poissons Ratio (y) = 0.00722 0.43048
# Poissons Ratio (z) = 0.13244 0.24356
#
# Static dielectric constant tensor:
#      x y z
#    x 1.889090 0.000000 0.000000 
#    y 0.000000 1.829560 0.000000 
#    z 0.000000 0.000000 1.885020 
# 
# From -- ./inp_files/32461.got.cif
#   From: 2010.05.17/outbox.cif.g08.bks.cpg/sg73_17_cif.got.tgz:32461.got - 2010.06.03 17:35:07.
