data_PCOD9532482
_publ_section_title
;
Structure prediction by ZEFSAII (Michael W. Deem and Ramdas Pophale) SiO2 
 PCOD9532482
Probable space group: I B C A 
;
_chemical_formula_sum "Si O2"
_cell_formula_units_Z 112
_cell_length_a 5.286580
_cell_length_b 26.053081
_cell_length_c 35.033245
_cell_angle_alpha 90.000000
_cell_angle_beta 90.000000
_cell_angle_gamma 90.000000
_cell_volume 4825.188284
_symmetry_space_group_name_H-M "I B C A "
_symmetry_group_IT_number 73
_symmetry_cell_setting 'orthorhombic'
loop_
_space_group_symop_operation_xyz
x,y,z
-x,1/2-y,z
x,-y,1/2-z
1/2-x,y,-z
-x,-y,-z
x,1/2+y,-z
-x,y,1/2+z
1/2+x,-y,z
1/2+x,1/2+y,1/2+z
1/2-x,-y,1/2+z
1/2+x,1/2-y,-z
-x,1/2+y,1/2-z
1/2-x,1/2-y,1/2-z
1/2+x,y,1/2-z
1/2-x,1/2+y,z
x,1/2-y,1/2+z
loop_
_atom_site_type_symbol
_atom_site_label
_atom_site_fract_x
_atom_site_fract_y
_atom_site_fract_z
Si Si1 0.656877 0.379570 0.901289
Si Si2 0.140270 0.803864 0.460284
Si Si3 0.000000 0.750000 0.224457
Si Si4 0.217516 0.565397 0.347565
Si Si5 0.487389 0.471230 0.586796
Si Si6 0.500000 0.750000 0.401998
Si Si7 0.013394 0.057258 0.234222
Si Si8 0.012653 0.827590 0.156643
O O1 0.514909 0.348273 0.934729
O O2 0.479104 0.421178 0.881176
O O3 0.892606 0.412324 0.918755
O O4 0.759581 0.344042 0.866542
O O5 0.250000 0.823201 0.500000
O O6 0.354779 0.786613 0.430751
O O7 0.000000 0.750000 0.468245
O O8 0.750000 0.750000 0.250000
O O9 0.980599 0.798387 0.195934
O O10 0.438997 0.531340 0.367215
O O11 0.076482 0.550774 0.308994
O O12 0.340142 0.620232 0.338001
O O13 0.750150 0.495103 0.572114
O O14 0.352342 0.712651 0.372758
O O15 0.785988 0.082578 0.258511
O O16 0.058242 0.000000 0.250000
#
# Coordination Sequence:
#
# PCOD9532482 Si02
#       8
#    16  16   8  16  16   8  16  16
#     4  10  23  41  66 103 136 183 231 288 348 434
#     4  11  21  38  68 106 147 183 220 279 355 429
#     4  11  26  44  64  85 124 174 236 285 340 402
#     4  11  23  39  66  90 129 171 229 280 351 419
#     4  11  23  40  67  97 130 174 232 284 335 401
#     4   9  18  40  60  93 134 170 218 259 334 412
#     4  10  25  39  55  82 122 161 206 271 349 403
#     4   9  22  40  62  90 124 173 221 282 336 411
#
# _framework density 23.21153
#
# number of rings (size 3 to 8) (size 9 to 14) (size 15 to 20)
#    0.000    1.714    2.143    0.857   10.000    1.143 
#    2.571    0.000    0.000    0.857    0.000    0.000 
#    0.000    0.000    0.000    0.000    0.000    0.000 
#
# Total GULP energy -312244.588118 kJ/mol
# GULP energy per Si atom -5575.796216 kJ/mol
# Density = 2.315870 g / cm^3
# Si number density = 23.211530 Si / 1000 Ang^3
#
#
#
# Elastic Constant Matrix: (Units=GPa)
#
#
# Indices 1 2 3 4 5 6 
#
# 1 109.7906 19.8014 25.8029 0.0000 0.0000 0.0000
# 2 19.8014 71.6190 28.9076 0.0000 0.0000 0.0000
# 3 25.8029 28.9076 104.2310 0.0000 0.0000 0.0000
# 4 0.0000 0.0000 0.0000 -56.0848 0.0000 0.0000
# 5 0.0000 0.0000 0.0000 0.0000 5.9906 0.0000
# 6 0.0000 0.0000 0.0000 0.0000 0.0000 16.3897
#
#
#
# Elastic Compliance Matrix: (Units=1/GPa)
#
#
# Indices 1 2 3 4 5 6 
#
# 1 0.009912 -0.001971 -0.001907 0.000000 0.000000 0.000000
# 2 -0.001971 0.016115 -0.003981 0.000000 0.000000 0.000000
# 3 -0.001907 -0.003981 0.011170 0.000000 0.000000 0.000000
# 4 0.000000 0.000000 0.000000 -0.017830 0.000000 0.000000
# 5 0.000000 0.000000 0.000000 0.000000 0.166928 0.000000
# 6 0.000000 0.000000 0.000000 0.000000 0.000000 0.061014
#
#
# Mechanical properties :
#
#
# Convention : Reuss Voigt Hill
#
# Bulk Modulus (GPa) = 46.55836 48.29605 47.42721
# Shear Modulus (GPa) = 18.50569 7.33433 12.92001
#
# Velocity S-wave (km/s) = 2.82665 1.77951 2.36184
# Velocity P-wave (km/s) = 5.54573 5.00742 5.28343
#
# Compressibility (1/GPa) = 0.02147842
#
# Stress axis : x y z
#
# Youngs Moduli (GPa) = 100.88889 62.05527 89.52214
#
# Poissons Ratio (x) = 0.12229 0.17074
# Poissons Ratio (y) = 0.19882 0.35643
# Poissons Ratio (z) = 0.19241 0.24707
#
# Static dielectric constant tensor:
#      x y z
#    x 1.990620 0.000000 0.000000 
#    y 0.000000 2.051250 0.000000 
#    z 0.000000 0.000000 1.836560 
# 
# From -- ./inp_files/33396.got.cif
#   From: 2010.05.17/outbox.cif.g08.bks.cpg/sg73_17_cif.got.tgz:33396.got - 2010.06.03 17:35:07.
