data_PCOD9532641
_publ_section_title
;
Structure prediction by ZEFSAII (Michael W. Deem and Ramdas Pophale) SiO2 
 PCOD9532641
Probable space group: I B C A 
;
_chemical_formula_sum "Si O2"
_cell_formula_units_Z 96
_cell_length_a 10.849292
_cell_length_b 14.269243
_cell_length_c 28.354708
_cell_angle_alpha 90.000000
_cell_angle_beta 90.000000
_cell_angle_gamma 90.000000
_cell_volume 4389.625915
_symmetry_space_group_name_H-M "I B C A "
_symmetry_group_IT_number 73
_symmetry_cell_setting 'orthorhombic'
loop_
_space_group_symop_operation_xyz
x,y,z
-x,1/2-y,z
x,-y,1/2-z
1/2-x,y,-z
-x,-y,-z
x,1/2+y,-z
-x,y,1/2+z
1/2+x,-y,z
1/2+x,1/2+y,1/2+z
1/2-x,-y,1/2+z
1/2+x,1/2-y,-z
-x,1/2+y,1/2-z
1/2-x,1/2-y,1/2-z
1/2+x,y,1/2-z
1/2-x,1/2+y,z
x,1/2-y,1/2+z
loop_
_atom_site_type_symbol
_atom_site_label
_atom_site_fract_x
_atom_site_fract_y
_atom_site_fract_z
Si Si1 0.740970 0.167098 0.183619
Si Si2 0.000000 0.750000 0.644877
Si Si3 0.367290 0.640542 0.176063
Si Si4 0.913371 0.886450 0.394164
Si Si5 0.500000 0.750000 0.525609
Si Si6 0.750000 0.843601 0.000000
Si Si7 0.690973 0.500000 0.750000
Si Si8 0.335375 0.593665 0.901081
O O1 0.598432 0.195832 0.177840
O O2 0.817862 0.260912 0.196438
O O3 0.785572 0.142985 0.130384
O O4 0.761114 0.077799 0.217696
O O5 0.072764 0.822014 0.611498
O O6 0.485849 0.645602 0.143725
O O7 0.388536 0.564730 0.216053
O O8 0.261070 0.599946 0.141892
O O9 0.947076 0.832419 0.441287
O O10 0.909241 0.997014 0.401014
O O11 0.378168 0.786522 0.499788
O O12 0.739233 0.897730 0.950224
#
# Coordination Sequence:
#
# PCOD9532641 Si02
#       8
#    16   8  16  16   8   8   8  16
#     4  11  23  44  71 102 142 186 242 297 365 437
#     4  10  23  46  67 100 142 190 222 307 367 436
#     4  11  23  46  65 101 145 190 230 302 361 431
#     4  12  23  46  76  97 144 195 232 296 375 432
#     4  12  25  48  75 108 148 196 248 305 381 450
#     4  12  26  46  72 112 142 192 252 308 366 466
#     4  12  24  42  70 106 136 186 252 288 362 440
#     4  11  24  44  73 100 144 181 245 293 369 432
#
# _framework density 21.869744000000001
#
# number of rings (size 3 to 8) (size 9 to 14) (size 15 to 20)
#    0.000    0.667    5.000    3.000    0.000    2.000 
#    9.000    0.000    0.000    0.000    0.000    0.000 
#    0.000    0.000    0.000    0.000    0.000    0.000 
#
# Total GULP energy -268232.869530 kJ/mol
# GULP energy per Si atom -5588.184782 kJ/mol
# Density = 2.181997 g / cm^3
# Si number density = 21.869744 Si / 1000 Ang^3
#
#
#
# Elastic Constant Matrix: (Units=GPa)
#
#
# Indices 1 2 3 4 5 6 
#
# 1 86.7409 16.2891 12.5696 0.0000 0.0000 0.0000
# 2 16.2891 133.9132 36.5620 0.0000 0.0000 0.0000
# 3 12.5696 36.5620 65.8394 0.0000 0.0000 0.0000
# 4 0.0000 0.0000 0.0000 -18.9096 0.0000 0.0000
# 5 0.0000 0.0000 0.0000 0.0000 36.0039 0.0000
# 6 0.0000 0.0000 0.0000 0.0000 0.0000 19.0854
#
#
#
# Elastic Compliance Matrix: (Units=1/GPa)
#
#
# Indices 1 2 3 4 5 6 
#
# 1 0.011965 -0.000980 -0.001740 0.000000 0.000000 0.000000
# 2 -0.000980 0.008882 -0.004745 0.000000 0.000000 0.000000
# 3 -0.001740 -0.004745 0.018156 0.000000 0.000000 0.000000
# 4 0.000000 0.000000 0.000000 -0.052883 0.000000 0.000000
# 5 0.000000 0.000000 0.000000 0.000000 0.027775 0.000000
# 6 0.000000 0.000000 0.000000 0.000000 0.000000 0.052396
#
#
# Mechanical properties :
#
#
# Convention : Reuss Voigt Hill
#
# Bulk Modulus (GPa) = 41.54231 46.37057 43.95644
# Shear Modulus (GPa) = 56.02501 21.97413 38.99957
#
# Velocity S-wave (km/s) = 5.06687 3.17325 4.22745
# Velocity P-wave (km/s) = 7.29846 5.88856 6.63109
#
# Compressibility (1/GPa) = 0.02407184
#
# Stress axis : x y z
#
# Youngs Moduli (GPa) = 83.57847 112.58209 55.07858
#
# Poissons Ratio (x) = 0.11037 0.09583
# Poissons Ratio (y) = 0.08194 0.26137
# Poissons Ratio (z) = 0.14541 0.53425
#
# Static dielectric constant tensor:
#      x y z
#    x 1.892200 0.000000 0.000000 
#    y 0.000000 1.816850 0.000000 
#    z 0.000000 0.000000 1.824810 
# 
# From -- ./inp_files/33997.got.cif
#   From: 2010.05.17/outbox.cif.g08.bks.cpg/sg73_17_cif.got.tgz:33997.got - 2010.06.03 17:35:07.
