data_PCOD9532522
_publ_section_title
;
Structure prediction by ZEFSAII (Michael W. Deem and Ramdas Pophale) SiO2 
 PCOD9532522
Probable space group: I B C A 
;
_chemical_formula_sum "Si O2"
_cell_formula_units_Z 96
_cell_length_a 13.727957
_cell_length_b 14.581084
_cell_length_c 19.060189
_cell_angle_alpha 90.000000
_cell_angle_beta 90.000000
_cell_angle_gamma 90.000000
_cell_volume 3815.249331
_symmetry_space_group_name_H-M "I B C A "
_symmetry_group_IT_number 73
_symmetry_cell_setting 'orthorhombic'
loop_
_space_group_symop_operation_xyz
x,y,z
-x,1/2-y,z
x,-y,1/2-z
1/2-x,y,-z
-x,-y,-z
x,1/2+y,-z
-x,y,1/2+z
1/2+x,-y,z
1/2+x,1/2+y,1/2+z
1/2-x,-y,1/2+z
1/2+x,1/2-y,-z
-x,1/2+y,1/2-z
1/2-x,1/2-y,1/2-z
1/2+x,y,1/2-z
1/2-x,1/2+y,z
x,1/2-y,1/2+z
loop_
_atom_site_type_symbol
_atom_site_label
_atom_site_fract_x
_atom_site_fract_y
_atom_site_fract_z
Si Si1 0.785653 0.962921 0.346033
Si Si2 0.000000 0.250000 0.339682
Si Si3 0.745415 0.727292 0.919046
Si Si4 0.588017 0.112984 0.571335
Si Si5 0.117965 0.000000 0.250000
Si Si6 0.058198 0.668185 0.923979
Si Si7 0.048099 0.635696 0.276317
O O1 0.747027 0.868578 0.379904
O O2 0.690336 0.012616 0.315587
O O3 0.855779 0.922591 0.286092
O O4 0.855507 0.027459 0.393640
O O5 0.995257 0.341752 0.388678
O O6 0.924209 0.217020 0.277463
O O7 0.657936 0.799087 0.916319
O O8 0.840053 0.788328 0.900383
O O9 0.750000 0.700974 0.000000
O O10 0.573731 0.097236 0.487778
O O11 0.042991 0.083060 0.257556
O O12 0.992558 0.648491 0.855883
O O13 0.000000 0.750000 0.962015
#
# Coordination Sequence:
#
# PCOD9532522 Si02
#       7
#    16   8  16  16   8  16  16
#     4  12  25  45  68 103 141 185 248 298 366 447
#     4  12  22  42  68  96 136 182 238 292 372 430
#     4  10  23  42  67  97 138 177 231 297 363 431
#     4  11  25  42  72 102 139 191 244 304 370 443
#     4  12  26  42  62  98 142 174 240 296 360 442
#     4  11  21  45  67  98 138 184 242 297 367 444
#     4  12  25  43  70  98 142 193 236 307 373 445
#
# _framework density 25.162182999999999
#
# number of rings (size 3 to 8) (size 9 to 14) (size 15 to 20)
#    0.000    0.667    3.333    4.500    0.000    4.000 
#    0.000    5.000    0.000    0.000    0.000    0.000 
#    0.000    0.000    0.000    0.000    0.000    0.000 
#
# Total GULP energy -267638.656447 kJ/mol
# GULP energy per Si atom -5575.805343 kJ/mol
# Density = 2.510491 g / cm^3
# Si number density = 25.162183 Si / 1000 Ang^3
#
#
#
# Elastic Constant Matrix: (Units=GPa)
#
#
# Indices 1 2 3 4 5 6 
#
# 1 89.5628 9.4092 -1.6192 0.0000 0.0000 0.0000
# 2 9.4092 72.7023 16.1003 0.0000 0.0000 0.0000
# 3 -1.6192 16.1003 114.3855 0.0000 0.0000 0.0000
# 4 0.0000 0.0000 0.0000 38.5528 0.0000 0.0000
# 5 0.0000 0.0000 0.0000 0.0000 20.5250 0.0000
# 6 0.0000 0.0000 0.0000 0.0000 0.0000 29.4982
#
#
#
# Elastic Compliance Matrix: (Units=1/GPa)
#
#
# Indices 1 2 3 4 5 6 
#
# 1 0.011335 -0.001551 0.000379 0.000000 0.000000 0.000000
# 2 -0.001551 0.014409 -0.002050 0.000000 0.000000 0.000000
# 3 0.000379 -0.002050 0.009036 0.000000 0.000000 0.000000
# 4 0.000000 0.000000 0.000000 0.025938 0.000000 0.000000
# 5 0.000000 0.000000 0.000000 0.000000 0.048721 0.000000
# 6 0.000000 0.000000 0.000000 0.000000 0.000000 0.033900
#
#
# Mechanical properties :
#
#
# Convention : Reuss Voigt Hill
#
# Bulk Modulus (GPa) = 35.29039 36.04791 35.66915
# Shear Modulus (GPa) = 31.40096 34.56588 32.98342
#
# Velocity S-wave (km/s) = 3.53646 3.71040 3.62447
# Velocity P-wave (km/s) = 5.54355 5.71956 5.63225
#
# Compressibility (1/GPa) = 0.02833632
#
# Stress axis : x y z
#
# Youngs Moduli (GPa) = 88.22128 69.39882 110.66481
#
# Poissons Ratio (x) = 0.10763 -0.04191
# Poissons Ratio (y) = 0.13682 0.22688
# Poissons Ratio (z) = -0.03341 0.14228
#
# Static dielectric constant tensor:
#      x y z
#    x 2.307530 0.000000 0.000000 
#    y 0.000000 2.040900 0.000000 
#    z 0.000000 0.000000 2.322900 
# 
# From -- ./inp_files/17099.got.cif
#   From: 2010.05.17/outbox.cif.g08.bks.cpg/sg73_9_cif.got.tgz:17099.got - 2010.06.03 17:35:07.
