data_PCOD9532899
_publ_section_title
;
Structure prediction by ZEFSAII (Michael W. Deem and Ramdas Pophale) SiO2 
 PCOD9532899
Probable space group: I B C A 
;
_chemical_formula_sum "Si O2"
_cell_formula_units_Z 112
_cell_length_a 22.452285
_cell_length_b 12.854703
_cell_length_c 18.622953
_cell_angle_alpha 90.000000
_cell_angle_beta 90.000000
_cell_angle_gamma 90.000000
_cell_volume 5374.909306
_symmetry_space_group_name_H-M "I B C A "
_symmetry_group_IT_number 73
_symmetry_cell_setting 'orthorhombic'
loop_
_space_group_symop_operation_xyz
x,y,z
-x,1/2-y,z
x,-y,1/2-z
1/2-x,y,-z
-x,-y,-z
x,1/2+y,-z
-x,y,1/2+z
1/2+x,-y,z
1/2+x,1/2+y,1/2+z
1/2-x,-y,1/2+z
1/2+x,1/2-y,-z
-x,1/2+y,1/2-z
1/2-x,1/2-y,1/2-z
1/2+x,y,1/2-z
1/2-x,1/2+y,z
x,1/2-y,1/2+z
loop_
_atom_site_type_symbol
_atom_site_label
_atom_site_fract_x
_atom_site_fract_y
_atom_site_fract_z
Si Si1 0.775570 0.597812 0.287978
Si Si2 0.190288 0.260416 0.845927
Si Si3 0.386708 0.064710 0.884527
Si Si4 0.514733 0.019311 0.916036
Si Si5 0.562180 0.201962 0.607281
Si Si6 0.593041 0.211883 0.947427
Si Si7 0.187168 0.916061 0.021313
O O1 0.744188 0.500000 0.250000
O O2 0.795336 0.675814 0.225519
O O3 0.732950 0.659603 0.342716
O O4 0.835356 0.555970 0.325708
O O5 0.120848 0.231467 0.849215
O O6 0.200212 0.334485 0.914475
O O7 0.452422 0.018645 0.872968
O O8 0.396068 0.185316 0.902202
O O9 0.359116 0.002175 0.951747
O O10 0.546323 0.131140 0.913871
O O11 0.554891 0.922031 0.894422
O O12 0.500000 0.000000 0.000000
O O13 0.500000 0.250000 0.634086
O O14 0.571665 0.249455 0.526669
O O15 0.654125 0.149007 0.959814
O O16 0.250000 0.963711 0.000000
#
# Coordination Sequence:
#
# PCOD9532899 Si02
#       7
#    16  16  16  16  16  16  16
#     4  11  24  46  70  85 122 176 226 263 317 379
#     4  10  24  46  65  90 123 173 214 271 318 379
#     4  12  23  38  64  93 124 173 215 261 318 387
#     4  12  20  37  61  96 131 168 199 255 332 398
#     4  11  20  37  67  94 128 165 205 254 331 394
#     4  11  21  37  59  94 135 164 202 255 333 395
#     4  11  22  37  62  97 129 159 210 267 328 391
#
# _framework density 20.83756
#
# number of rings (size 3 to 8) (size 9 to 14) (size 15 to 20)
#    0.000    0.857    5.714    2.143    0.000    4.000 
#    5.143    1.429    0.000    0.000    0.000    0.000 
#    0.000    0.000    0.000    0.000    0.000    0.000 
#
# Total GULP energy -313015.167174 kJ/mol
# GULP energy per Si atom -5589.556557 kJ/mol
# Density = 2.079013 g / cm^3
# Si number density = 20.837560 Si / 1000 Ang^3
#
#
#
# Elastic Constant Matrix: (Units=GPa)
#
#
# Indices 1 2 3 4 5 6 
#
# 1 113.4896 28.2229 8.3033 0.0000 0.0000 0.0000
# 2 28.2229 117.8496 -0.9512 0.0000 0.0000 0.0000
# 3 8.3033 -0.9512 9.5202 0.0000 0.0000 0.0000
# 4 0.0000 0.0000 0.0000 22.7225 0.0000 0.0000
# 5 0.0000 0.0000 0.0000 0.0000 14.0549 0.0000
# 6 0.0000 0.0000 0.0000 0.0000 0.0000 24.4728
#
#
#
# Elastic Compliance Matrix: (Units=1/GPa)
#
#
# Indices 1 2 3 4 5 6 
#
# 1 0.010093 -0.002490 -0.009052 0.000000 0.000000 0.000000
# 2 -0.002490 0.009107 0.003082 0.000000 0.000000 0.000000
# 3 -0.009052 0.003082 0.113242 0.000000 0.000000 0.000000
# 4 0.000000 0.000000 0.000000 0.044009 0.000000 0.000000
# 5 0.000000 0.000000 0.000000 0.000000 0.071150 0.000000
# 6 0.000000 0.000000 0.000000 0.000000 0.000000 0.040862
#
#
# Mechanical properties :
#
#
# Convention : Reuss Voigt Hill
#
# Bulk Modulus (GPa) = 8.65638 34.66772 21.66205
# Shear Modulus (GPa) = 14.53955 25.93568 20.23761
#
# Velocity S-wave (km/s) = 2.64437 3.53180 3.11980
# Velocity P-wave (km/s) = 3.67245 5.77103 4.83692
#
# Compressibility (1/GPa) = 0.11552179
#
# Stress axis : x y z
#
# Youngs Moduli (GPa) = 99.07977 109.81045 8.83062
#
# Poissons Ratio (x) = 0.27344 0.07993
# Poissons Ratio (y) = 0.24672 -0.02721
# Poissons Ratio (z) = 0.89683 -0.33840
#
# Static dielectric constant tensor:
#      x y z
#    x 1.769830 0.000000 0.000000 
#    y 0.000000 1.775290 0.000000 
#    z 0.000000 0.000000 1.748850 
# 
# From -- ./inp_files/30152.got.cif
#   From: 2010.05.17/outbox.cif.g08.bks.cpg/sg73_16_cif.got.tgz:30152.got - 2010.06.03 17:35:07.
