data_PCOD9532322
_publ_section_title
;
Structure prediction by ZEFSAII (Michael W. Deem and Ramdas Pophale) SiO2 
 PCOD9532322
Probable space group: I B C A 
;
_chemical_formula_sum "Si O2"
_cell_formula_units_Z 112
_cell_length_a 13.875791
_cell_length_b 23.000316
_cell_length_c 15.092450
_cell_angle_alpha 90.000000
_cell_angle_beta 90.000000
_cell_angle_gamma 90.000000
_cell_volume 4816.718860
_symmetry_space_group_name_H-M "I B C A "
_symmetry_group_IT_number 73
_symmetry_cell_setting 'orthorhombic'
loop_
_space_group_symop_operation_xyz
x,y,z
-x,1/2-y,z
x,-y,1/2-z
1/2-x,y,-z
-x,-y,-z
x,1/2+y,-z
-x,y,1/2+z
1/2+x,-y,z
1/2+x,1/2+y,1/2+z
1/2-x,-y,1/2+z
1/2+x,1/2-y,-z
-x,1/2+y,1/2-z
1/2-x,1/2-y,1/2-z
1/2+x,y,1/2-z
1/2-x,1/2+y,z
x,1/2-y,1/2+z
loop_
_atom_site_type_symbol
_atom_site_label
_atom_site_fract_x
_atom_site_fract_y
_atom_site_fract_z
Si Si1 0.717602 0.243325 0.406590
Si Si2 0.000000 0.250000 0.632470
Si Si3 0.952721 0.946150 0.200855
Si Si4 0.750000 0.480544 0.000000
Si Si5 0.585210 0.930109 0.461565
Si Si6 0.231643 0.360275 0.840324
Si Si7 0.235657 0.886120 0.648403
Si Si8 0.958795 0.121747 0.138772
O O1 0.750000 0.267500 0.500000
O O2 0.602543 0.244111 0.413821
O O3 0.760833 0.290073 0.338041
O O4 0.751177 0.177765 0.391918
O O5 0.988558 0.314207 0.672381
O O6 0.876054 0.898844 0.168856
O O7 0.003092 0.920357 0.288127
O O8 0.019864 0.957314 0.116708
O O9 0.899924 0.000000 0.250000
O O10 0.655512 0.521402 0.004475
O O11 0.735856 0.437999 0.916626
O O12 0.655894 0.884790 0.410803
O O13 0.521775 0.897961 0.537578
O O14 0.212020 0.384649 0.742910
O O15 0.341521 0.379362 0.861908
#
# Coordination Sequence:
#
# PCOD9532322 Si02
#       8
#    16   8  16   8  16  16  16  16
#     4  11  23  45  71 108 145 189 245 305 388 446
#     4  10  24  40  78 104 146 186 238 316 362 464
#     4  11  28  46  68 106 147 197 247 311 371 455
#     4  12  26  44  74 104 140 198 246 312 366 452
#     4  12  25  45  75 103 140 199 252 302 381 454
#     4  10  22  44  73 101 138 189 238 305 377 454
#     4  11  26  45  69 105 146 186 247 310 376 443
#     4  10  22  47  68 104 144 182 243 304 380 439
#
# _framework density 23.252344000000001
#
# number of rings (size 3 to 8) (size 9 to 14) (size 15 to 20)
#    0.000    1.143    2.143    3.000    8.000    2.286 
#    0.000    0.000    0.000    0.000    0.000    0.000 
#    0.000    0.000    0.000    0.000    0.000    0.000 
#
# Total GULP energy -312548.510797 kJ/mol
# GULP energy per Si atom -5581.223407 kJ/mol
# Density = 2.319942 g / cm^3
# Si number density = 23.252344 Si / 1000 Ang^3
#
#
#
# Elastic Constant Matrix: (Units=GPa)
#
#
# Indices 1 2 3 4 5 6 
#
# 1 68.6026 17.7428 -6.6380 -0.0002 0.0000 0.0000
# 2 17.7428 130.9728 46.2150 -0.0004 0.0001 0.0000
# 3 -6.6380 46.2150 98.7184 -0.0007 0.0001 0.0000
# 4 -0.0002 -0.0004 -0.0007 52.5889 0.0001 0.0001
# 5 0.0000 0.0001 0.0001 0.0001 19.8335 0.0000
# 6 0.0000 0.0000 0.0000 0.0001 0.0000 31.2933
#
#
#
# Elastic Compliance Matrix: (Units=1/GPa)
#
#
# Indices 1 2 3 4 5 6 
#
# 1 0.015581 -0.002971 0.002439 0.000000 0.000000 0.000000
# 2 -0.002971 0.009713 -0.004747 0.000000 0.000000 0.000000
# 3 0.002439 -0.004747 0.012516 0.000000 0.000000 0.000000
# 4 0.000000 0.000000 0.000000 0.019015 0.000000 0.000000
# 5 0.000000 0.000000 0.000000 0.000000 0.050420 0.000000
# 6 0.000000 0.000000 0.000000 0.000000 0.000000 0.031956
#
#
# Mechanical properties :
#
#
# Convention : Reuss Voigt Hill
#
# Bulk Modulus (GPa) = 36.69578 45.88149 41.28864
# Shear Modulus (GPa) = 31.47759 36.80806 34.14282
#
# Velocity S-wave (km/s) = 3.68331 3.98299 3.83608
# Velocity P-wave (km/s) = 5.82279 6.39743 6.11686
#
# Compressibility (1/GPa) = 0.02725109
#
# Stress axis : x y z
#
# Youngs Moduli (GPa) = 64.18018 102.95867 79.89768
#
# Poissons Ratio (x) = 0.30592 -0.19485
# Poissons Ratio (y) = 0.19070 0.37926
# Poissons Ratio (z) = -0.15652 0.48872
#
# Static dielectric constant tensor:
#      x y z
#    x 1.193640 0.000000 0.000000 
#    y 0.000000 1.882060 0.000000 
#    z 0.000000 0.000000 2.059280 
# 
# From -- ./inp_files/17305.got.cif
#   From: 2010.05.17/outbox.cif.g08.bks.cpg/sg73_9_cif.got.tgz:17305.got - 2010.06.03 17:35:07.
