data_PCOD9532154
_publ_section_title
;
Structure prediction by ZEFSAII (Michael W. Deem and Ramdas Pophale) SiO2 
 PCOD9532154
Probable space group: I B C A 
;
_chemical_formula_sum "Si O2"
_cell_formula_units_Z 56
_cell_length_a 9.238679
_cell_length_b 9.162160
_cell_length_c 29.891078
_cell_angle_alpha 90.000000
_cell_angle_beta 90.000000
_cell_angle_gamma 90.000000
_cell_volume 2530.167816
_symmetry_space_group_name_H-M "I B C A "
_symmetry_group_IT_number 73
_symmetry_cell_setting 'orthorhombic'
loop_
_space_group_symop_operation_xyz
x,y,z
-x,1/2-y,z
x,-y,1/2-z
1/2-x,y,-z
-x,-y,-z
x,1/2+y,-z
-x,y,1/2+z
1/2+x,-y,z
1/2+x,1/2+y,1/2+z
1/2-x,-y,1/2+z
1/2+x,1/2-y,-z
-x,1/2+y,1/2-z
1/2-x,1/2-y,1/2-z
1/2+x,y,1/2-z
1/2-x,1/2+y,z
x,1/2-y,1/2+z
loop_
_atom_site_type_symbol
_atom_site_label
_atom_site_fract_x
_atom_site_fract_y
_atom_site_fract_z
Si Si1 0.250000 0.392775 0.000000
Si Si2 0.111560 0.115152 0.157337
Si Si3 0.413092 0.893420 0.291744
Si Si4 0.858905 0.150301 0.554428
O O1 0.254970 0.273680 0.040155
O O2 0.357927 0.513618 0.021336
O O3 0.257692 0.137737 0.185838
O O4 0.154731 0.100766 0.105382
O O5 0.000000 0.250000 0.160979
O O6 0.021043 0.976362 0.174266
O O7 0.500000 0.750000 0.276902
O O8 0.389167 0.000000 0.250000
O O9 0.000000 0.250000 0.549040
#
# Coordination Sequence:
#
# PCOD9532154 Si02
#       4
#     8  16  16  16
#     4  10  22  42  66  96 140 184 232 290 346 410
#     4  11  26  46  73 106 143 185 239 289 350 421
#     4  12  27  48  75 105 142 186 232 291 354 421
#     4  10  23  41  66 100 139 183 235 286 346 413
#
# _framework density 22.132919999999999
#
# number of rings (size 3 to 8) (size 9 to 14) (size 15 to 20)
#    0.000    1.143    0.000    4.286   12.000    3.429 
#    0.000    1.429    0.000    0.000    0.000    0.000 
#    0.000    0.000    0.000    0.000    0.000    0.000 
#
# Total GULP energy -156101.397809 kJ/mol
# GULP energy per Si atom -5575.049922 kJ/mol
# Density = 2.208254 g / cm^3
# Si number density = 22.132920 Si / 1000 Ang^3
#
#
#
# Elastic Constant Matrix: (Units=GPa)
#
#
# Indices 1 2 3 4 5 6 
#
# 1 105.1359 34.1162 56.6567 0.0000 0.0000 0.0000
# 2 34.1162 104.6655 47.6552 0.0000 0.0000 0.0000
# 3 56.6567 47.6552 150.3130 0.0000 0.0000 0.0000
# 4 0.0000 0.0000 0.0000 33.8357 0.0000 0.0000
# 5 0.0000 0.0000 0.0000 0.0000 27.0886 0.0000
# 6 0.0000 0.0000 0.0000 0.0000 0.0000 27.1340
#
#
#
# Elastic Compliance Matrix: (Units=1/GPa)
#
#
# Indices 1 2 3 4 5 6 
#
# 1 0.012366 -0.002231 -0.003954 0.000000 0.000000 0.000000
# 2 -0.002231 0.011568 -0.002827 0.000000 0.000000 0.000000
# 3 -0.003954 -0.002827 0.009039 0.000000 0.000000 0.000000
# 4 0.000000 0.000000 0.000000 0.029555 0.000000 0.000000
# 5 0.000000 0.000000 0.000000 0.000000 0.036916 0.000000
# 6 0.000000 0.000000 0.000000 0.000000 0.000000 0.036854
#
#
# Mechanical properties :
#
#
# Convention : Reuss Voigt Hill
#
# Bulk Modulus (GPa) = 66.88455 70.77450 68.82952
# Shear Modulus (GPa) = 31.38641 32.39076 31.88858
#
# Velocity S-wave (km/s) = 3.76983 3.82968 3.79987
# Velocity P-wave (km/s) = 7.01669 7.18343 7.10055
#
# Compressibility (1/GPa) = 0.01495114
#
# Stress axis : x y z
#
# Youngs Moduli (GPa) = 80.86688 86.44224 110.62740
#
# Poissons Ratio (x) = 0.19281 0.43741
# Poissons Ratio (y) = 0.18037 0.31273
# Poissons Ratio (z) = 0.31974 0.24437
#
# Static dielectric constant tensor:
#      x y z
#    x 1.005330 0.000000 0.000000 
#    y 0.000000 1.757610 0.000000 
#    z 0.000000 0.000000 1.847890 
# 
# From -- ./inp_files/33758.got.cif
#   From: 2010.05.17/outbox.cif.g08.bks.cpg/sg73_17_cif.got.tgz:33758.got - 2010.06.03 17:35:07.
