data_PCOD9532557
_publ_section_title
;
Structure prediction by ZEFSAII (Michael W. Deem and Ramdas Pophale) SiO2 
 PCOD9532557
Probable space group: I B C A 
;
_chemical_formula_sum "Si O2"
_cell_formula_units_Z 88
_cell_length_a 5.116619
_cell_length_b 29.098251
_cell_length_c 26.239839
_cell_angle_alpha 90.000000
_cell_angle_beta 90.000000
_cell_angle_gamma 90.000000
_cell_volume 3906.709611
_symmetry_space_group_name_H-M "I B C A "
_symmetry_group_IT_number 73
_symmetry_cell_setting 'orthorhombic'
loop_
_space_group_symop_operation_xyz
x,y,z
-x,1/2-y,z
x,-y,1/2-z
1/2-x,y,-z
-x,-y,-z
x,1/2+y,-z
-x,y,1/2+z
1/2+x,-y,z
1/2+x,1/2+y,1/2+z
1/2-x,-y,1/2+z
1/2+x,1/2-y,-z
-x,1/2+y,1/2-z
1/2-x,1/2-y,1/2-z
1/2+x,y,1/2-z
1/2-x,1/2+y,z
x,1/2-y,1/2+z
loop_
_atom_site_type_symbol
_atom_site_label
_atom_site_fract_x
_atom_site_fract_y
_atom_site_fract_z
Si Si1 0.180665 0.808224 0.283989
Si Si2 0.995563 0.891389 0.964478
Si Si3 0.332861 0.029451 0.887348
Si Si4 0.290628 0.584162 0.216066
Si Si5 0.831819 0.704015 0.940584
Si Si6 0.500000 0.750000 0.362258
O O1 0.391106 0.801492 0.238199
O O2 0.198177 0.861886 0.299075
O O3 0.281359 0.774587 0.327826
O O4 0.919269 0.933801 0.929365
O O5 0.041413 0.845296 0.931924
O O6 0.750000 0.880946 0.000000
O O7 0.250000 0.900184 0.000000
O O8 0.352912 0.052610 0.831938
O O9 0.535946 0.987579 0.892849
O O10 0.506151 0.576019 0.259849
O O11 0.604683 0.710793 0.899979
O O12 0.000000 0.750000 0.934304
O O13 0.750000 0.703688 0.000000
#
# Coordination Sequence:
#
# PCOD9532557 Si02
#       6
#    16  16  16  16  16   8
#     4  10  24  44  65  98 138 182 237 281 336 419
#     4  11  27  48  74 100 143 190 229 289 351 412
#     4  12  27  45  73 109 139 176 239 292 349 430
#     4  10  23  43  68  97 138 183 226 285 350 412
#     4  11  25  43  67 101 142 183 240 287 342 424
#     4  12  26  38  70 100 140 194 228 300 350 396
#
# _framework density 22.525347
#
# number of rings (size 3 to 8) (size 9 to 14) (size 15 to 20)
#    0.000    1.091    0.909    3.273    7.636    8.727 
#    0.000    0.000    0.000    0.000    0.000    0.000 
#    0.000    0.000    0.000    0.000    0.000    0.000 
#
# Total GULP energy -246427.510053 kJ/mol
# GULP energy per Si atom -5600.625228 kJ/mol
# Density = 2.247408 g / cm^3
# Si number density = 22.525347 Si / 1000 Ang^3
#
#
#
# Elastic Constant Matrix: (Units=GPa)
#
#
# Indices 1 2 3 4 5 6 
#
# 1 89.5876 7.4446 7.4735 0.0000 0.0000 0.0000
# 2 7.4446 79.9744 29.3803 0.0000 0.0000 0.0000
# 3 7.4735 29.3803 58.4886 0.0000 0.0000 0.0000
# 4 0.0000 0.0000 0.0000 256.7247 0.0000 0.0000
# 5 0.0000 0.0000 0.0000 0.0000 27.6574 0.0000
# 6 0.0000 0.0000 0.0000 0.0000 0.0000 40.8078
#
#
#
# Elastic Compliance Matrix: (Units=1/GPa)
#
#
# Indices 1 2 3 4 5 6 
#
# 1 0.011309 -0.000640 -0.001124 0.000000 0.000000 0.000000
# 2 -0.000640 0.015370 -0.007639 0.000000 0.000000 0.000000
# 3 -0.001124 -0.007639 0.021078 0.000000 0.000000 0.000000
# 4 0.000000 0.000000 0.000000 0.003895 0.000000 0.000000
# 5 0.000000 0.000000 0.000000 0.000000 0.036157 0.000000
# 6 0.000000 0.000000 0.000000 0.000000 0.000000 0.024505
#
#
# Mechanical properties :
#
#
# Convention : Reuss Voigt Hill
#
# Bulk Modulus (GPa) = 34.53961 35.18305 34.86133
# Shear Modulus (GPa) = 35.51892 77.28811 56.40351
#
# Velocity S-wave (km/s) = 3.97526 5.86397 5.00943
# Velocity P-wave (km/s) = 6.03632 7.84228 6.99780
#
# Compressibility (1/GPa) = 0.02895227
#
# Stress axis : x y z
#
# Youngs Moduli (GPa) = 88.42376 65.06222 47.44252
#
# Poissons Ratio (x) = 0.04164 0.05331
# Poissons Ratio (y) = 0.05659 0.36241
# Poissons Ratio (z) = 0.09935 0.49700
#
# Static dielectric constant tensor:
#      x y z
#    x 1.824190 0.000000 0.000000 
#    y 0.000000 1.834700 0.000000 
#    z 0.000000 0.000000 1.835540 
# 
# From -- ./inp_files/28072.got.cif
#   From: 2010.05.17/outbox.cif.g08.bks.cpg/sg73_15_cif.got.tgz:28072.got - 2010.06.03 17:35:07.
