data_PCOD9532373
_publ_section_title
;
Structure prediction by ZEFSAII (Michael W. Deem and Ramdas Pophale) SiO2 
 PCOD9532373
Probable space group: I B C A 
;
_chemical_formula_sum "Si O2"
_cell_formula_units_Z 104
_cell_length_a 9.884131
_cell_length_b 18.225325
_cell_length_c 27.523845
_cell_angle_alpha 90.000000
_cell_angle_beta 90.000000
_cell_angle_gamma 90.000000
_cell_volume 4958.186719
_symmetry_space_group_name_H-M "I B C A "
_symmetry_group_IT_number 73
_symmetry_cell_setting 'orthorhombic'
loop_
_space_group_symop_operation_xyz
x,y,z
-x,1/2-y,z
x,-y,1/2-z
1/2-x,y,-z
-x,-y,-z
x,1/2+y,-z
-x,y,1/2+z
1/2+x,-y,z
1/2+x,1/2+y,1/2+z
1/2-x,-y,1/2+z
1/2+x,1/2-y,-z
-x,1/2+y,1/2-z
1/2-x,1/2-y,1/2-z
1/2+x,y,1/2-z
1/2-x,1/2+y,z
x,1/2-y,1/2+z
loop_
_atom_site_type_symbol
_atom_site_label
_atom_site_fract_x
_atom_site_fract_y
_atom_site_fract_z
Si Si1 0.044370 0.866985 0.028067
Si Si2 0.731418 0.763152 0.404164
Si Si3 0.500000 0.750000 0.545509
Si Si4 0.802548 0.933068 0.191803
Si Si5 0.157233 0.737680 0.203071
Si Si6 0.800863 0.586663 0.584531
Si Si7 0.053763 0.000000 0.250000
Si Si8 0.250000 0.983782 0.000000
O O1 0.135664 0.810185 0.059894
O O2 0.127090 0.926307 0.997294
O O3 0.954370 0.911489 0.065737
O O4 0.960227 0.816006 0.990950
O O5 0.882432 0.780923 0.420730
O O6 0.696491 0.778331 0.347586
O O7 0.726641 0.674476 0.412056
O O8 0.823621 0.846954 0.191727
O O9 0.783953 0.953053 0.135814
O O10 0.664215 0.950356 0.221289
O O11 0.943521 0.964614 0.213305
O O12 0.250000 0.750000 0.250000
O O13 0.000000 0.750000 0.214214
O O14 0.725356 0.538140 0.544774
#
# Coordination Sequence:
#
# PCOD9532373 Si02
#       8
#    16  16   8  16  16  16   8   8
#     4  12  23  43  66  96 130 179 223 271 337 398
#     4  11  23  43  68  95 131 180 226 269 339 405
#     4  12  22  40  68  92 130 180 226 272 318 418
#     4  10  23  43  70  95 131 176 220 267 339 396
#     4  11  24  44  71 103 132 170 221 287 339 390
#     4  11  24  42  67  93 137 172 216 278 336 393
#     4  10  22  46  66  96 130 176 220 268 326 414
#     4  12  26  40  60 104 134 170 220 276 330 400
#
# _framework density 20.975411000000001
#
# number of rings (size 3 to 8) (size 9 to 14) (size 15 to 20)
#    0.000    0.923    3.077    4.154    3.231    0.000 
#    5.538    0.000    0.000    0.000    0.000    0.000 
#    0.000    0.000    0.000    0.000    0.000    0.000 
#
# Total GULP energy -289903.615101 kJ/mol
# GULP energy per Si atom -5575.069521 kJ/mol
# Density = 2.092767 g / cm^3
# Si number density = 20.975411 Si / 1000 Ang^3
#
#
#
# Elastic Constant Matrix: (Units=GPa)
#
#
# Indices 1 2 3 4 5 6 
#
# 1 91.8257 1.4289 48.6097 0.0000 0.0000 0.0000
# 2 1.4289 59.2051 18.4833 0.0000 0.0000 0.0000
# 3 48.6097 18.4833 122.6097 0.0000 0.0000 0.0000
# 4 0.0000 0.0000 0.0000 24.3478 0.0000 0.0000
# 5 0.0000 0.0000 0.0000 0.0000 210.9458 0.0000
# 6 0.0000 0.0000 0.0000 0.0000 0.0000 24.9228
#
#
#
# Elastic Compliance Matrix: (Units=1/GPa)
#
#
# Indices 1 2 3 4 5 6 
#
# 1 0.013901 0.001453 -0.005730 0.000000 0.000000 0.000000
# 2 0.001453 0.017877 -0.003271 0.000000 0.000000 0.000000
# 3 -0.005730 -0.003271 0.010921 0.000000 0.000000 0.000000
# 4 0.000000 0.000000 0.000000 0.041071 0.000000 0.000000
# 5 0.000000 0.000000 0.000000 0.000000 0.004741 0.000000
# 6 0.000000 0.000000 0.000000 0.000000 0.000000 0.040124
#
#
# Mechanical properties :
#
#
# Convention : Reuss Voigt Hill
#
# Bulk Modulus (GPa) = 36.22852 45.63161 40.93006
# Shear Modulus (GPa) = 32.69447 65.71786 49.20616
#
# Velocity S-wave (km/s) = 3.95233 5.60347 4.84870
# Velocity P-wave (km/s) = 6.17554 7.97918 7.13458
#
# Compressibility (1/GPa) = 0.02760256
#
# Stress axis : x y z
#
# Youngs Moduli (GPa) = 71.93726 55.93918 91.56761
#
# Poissons Ratio (x) = -0.08130 0.52471
# Poissons Ratio (y) = -0.10456 0.29953
# Poissons Ratio (z) = 0.41222 0.18298
#
# Static dielectric constant tensor:
#      x y z
#    x 1.772720 0.000000 0.000000 
#    y 0.000000 1.784870 0.000000 
#    z 0.000000 0.000000 1.763140 
# 
# From -- ./inp_files/31294.got.cif
#   From: 2010.05.17/outbox.cif.g08.bks.cpg/sg73_16_cif.got.tgz:31294.got - 2010.06.03 17:35:07.
