data_PCOD9532928
_publ_section_title
;
Structure prediction by ZEFSAII (Michael W. Deem and Ramdas Pophale) SiO2 
 PCOD9532928
Probable space group: I B C A 
;
_chemical_formula_sum "Si O2"
_cell_formula_units_Z 112
_cell_length_a 20.978677
_cell_length_b 11.366908
_cell_length_c 23.036997
_cell_angle_alpha 90.000000
_cell_angle_beta 90.000000
_cell_angle_gamma 90.000000
_cell_volume 5493.464307
_symmetry_space_group_name_H-M "I B C A "
_symmetry_group_IT_number 73
_symmetry_cell_setting 'orthorhombic'
loop_
_space_group_symop_operation_xyz
x,y,z
-x,1/2-y,z
x,-y,1/2-z
1/2-x,y,-z
-x,-y,-z
x,1/2+y,-z
-x,y,1/2+z
1/2+x,-y,z
1/2+x,1/2+y,1/2+z
1/2-x,-y,1/2+z
1/2+x,1/2-y,-z
-x,1/2+y,1/2-z
1/2-x,1/2-y,1/2-z
1/2+x,y,1/2-z
1/2-x,1/2+y,z
x,1/2-y,1/2+z
loop_
_atom_site_type_symbol
_atom_site_label
_atom_site_fract_x
_atom_site_fract_y
_atom_site_fract_z
Si Si1 0.252692 0.432224 0.571433
Si Si2 0.939396 0.593153 0.116778
Si Si3 0.953831 0.363781 0.252551
Si Si4 0.448845 0.057994 0.041979
Si Si5 0.344676 0.870319 0.079143
Si Si6 0.648846 0.748262 0.962084
Si Si7 0.124906 0.138310 0.140074
O O1 0.250000 0.447739 0.500000
O O2 0.286420 0.547593 0.597423
O O3 0.300608 0.321184 0.575290
O O4 0.189551 0.409260 0.608948
O O5 0.931744 0.643826 0.180904
O O6 0.887756 0.650795 0.074561
O O7 0.928221 0.452355 0.116422
O O8 0.010512 0.613473 0.093997
O O9 0.482075 0.500000 0.250000
O O10 0.893821 0.363983 0.208232
O O11 0.000000 0.250000 0.239973
O O12 0.401223 0.958289 0.062829
O O13 0.404947 0.159821 0.016037
O O14 0.500000 0.000000 0.000000
O O15 0.372876 0.773508 0.121614
O O16 0.322994 0.806052 0.020119
#
# Coordination Sequence:
#
# PCOD9532928 Si02
#       7
#    16  16  16  16  16  16  16
#     4  11  24  40  61  91 129 176 222 268 337 402
#     4  11  23  41  68  92 135 173 215 271 341 409
#     4  10  24  46  71  99 132 180 228 279 340 407
#     4  11  22  35  59 100 137 169 205 268 343 413
#     4  11  24  37  61  95 133 169 215 273 333 406
#     4  11  22  38  60  96 133 176 214 268 338 409
#     4  11  25  41  66  92 124 173 227 277 324 397
#
# _framework density 20.387861999999998
#
# number of rings (size 3 to 8) (size 9 to 14) (size 15 to 20)
#    0.000    1.143    2.857    3.000    8.000    1.143 
#    0.000    0.714    3.143    0.000    0.000    0.000 
#    0.000    0.000    0.000    0.000    0.000    0.000 
#
# Total GULP energy -312432.201911 kJ/mol
# GULP energy per Si atom -5579.146463 kJ/mol
# Density = 2.034146 g / cm^3
# Si number density = 20.387862 Si / 1000 Ang^3
#
#
#
# Elastic Constant Matrix: (Units=GPa)
#
#
# Indices 1 2 3 4 5 6 
#
# 1 67.6018 16.6362 28.3981 0.0000 0.0000 0.0000
# 2 16.6362 109.7795 22.7752 0.0000 0.0000 0.0000
# 3 28.3981 22.7752 96.1543 0.0000 0.0000 0.0000
# 4 0.0000 0.0000 0.0000 16.6344 0.0000 0.0000
# 5 0.0000 0.0000 0.0000 0.0000 25.1436 0.0000
# 6 0.0000 0.0000 0.0000 0.0000 0.0000 31.7882
#
#
#
# Elastic Compliance Matrix: (Units=1/GPa)
#
#
# Indices 1 2 3 4 5 6 
#
# 1 0.017160 -0.001629 -0.004682 0.000000 0.000000 0.000000
# 2 -0.001629 0.009735 -0.001825 0.000000 0.000000 0.000000
# 3 -0.004682 -0.001825 0.012215 0.000000 0.000000 0.000000
# 4 0.000000 0.000000 0.000000 0.060117 0.000000 0.000000
# 5 0.000000 0.000000 0.000000 0.000000 0.039771 0.000000
# 6 0.000000 0.000000 0.000000 0.000000 0.000000 0.031458
#
#
# Mechanical properties :
#
#
# Convention : Reuss Voigt Hill
#
# Bulk Modulus (GPa) = 43.78672 45.46163 44.62418
# Shear Modulus (GPa) = 25.72802 28.42831 27.07816
#
# Velocity S-wave (km/s) = 3.55622 3.73818 3.64833
# Velocity P-wave (km/s) = 6.19562 6.40147 6.29939
#
# Compressibility (1/GPa) = 0.02283797
#
# Stress axis : x y z
#
# Youngs Moduli (GPa) = 58.27395 102.72655 81.86664
#
# Poissons Ratio (x) = 0.16735 0.38332
# Poissons Ratio (y) = 0.09493 0.14937
# Poissons Ratio (z) = 0.27285 0.18744
#
# Static dielectric constant tensor:
#      x y z
#    x 1.736150 0.000000 0.000000 
#    y 0.000000 1.798620 0.000000 
#    z 0.000000 0.000000 1.731350 
# 
# From -- ./inp_files/30125.got.cif
#   From: 2010.05.17/outbox.cif.g08.bks.cpg/sg73_16_cif.got.tgz:30125.got - 2010.06.03 17:35:07.
