data_PCOD9532845
_publ_section_title
;
Structure prediction by ZEFSAII (Michael W. Deem and Ramdas Pophale) SiO2 
 PCOD9532845
Probable space group: I B C A 
;
_chemical_formula_sum "Si O2"
_cell_formula_units_Z 88
_cell_length_a 13.183847
_cell_length_b 22.112554
_cell_length_c 14.474705
_cell_angle_alpha 90.000000
_cell_angle_beta 90.000000
_cell_angle_gamma 90.000000
_cell_volume 4219.789452
_symmetry_space_group_name_H-M "I B C A "
_symmetry_group_IT_number 73
_symmetry_cell_setting 'orthorhombic'
loop_
_space_group_symop_operation_xyz
x,y,z
-x,1/2-y,z
x,-y,1/2-z
1/2-x,y,-z
-x,-y,-z
x,1/2+y,-z
-x,y,1/2+z
1/2+x,-y,z
1/2+x,1/2+y,1/2+z
1/2-x,-y,1/2+z
1/2+x,1/2-y,-z
-x,1/2+y,1/2-z
1/2-x,1/2-y,1/2-z
1/2+x,y,1/2-z
1/2-x,1/2+y,z
x,1/2-y,1/2+z
loop_
_atom_site_type_symbol
_atom_site_label
_atom_site_fract_x
_atom_site_fract_y
_atom_site_fract_z
Si Si1 0.000000 0.750000 0.566045
Si Si2 0.434134 0.523207 0.584424
Si Si3 0.840292 0.205269 0.279124
Si Si4 0.474252 0.664420 0.607667
Si Si5 0.071265 0.500000 0.750000
Si Si6 0.823276 0.112469 0.664407
Si Si7 0.750000 0.537165 0.500000
O O1 0.909010 0.729488 0.635245
O O2 0.971229 0.802750 0.491968
O O3 0.500000 0.500000 0.500000
O O4 0.440719 0.594903 0.596475
O O5 0.492978 0.491529 0.667234
O O6 0.320208 0.502481 0.566196
O O7 0.750000 0.250000 0.250000
O O8 0.906901 0.193896 0.187822
O O9 0.781858 0.143651 0.308740
O O10 0.588115 0.661318 0.649238
O O11 0.138538 0.440314 0.733011
O O12 0.814965 0.079572 0.565984
#
# Coordination Sequence:
#
# PCOD9532845 Si02
#       7
#     8  16  16  16   8  16   8
#     4  12  26  50  76  94 150 188 240 316 354 416
#     4  11  25  45  68 108 146 186 239 295 357 444
#     4  12  28  47  73 106 142 189 250 297 364 431
#     4  11  26  47  72 106 144 189 246 297 364 430
#     4  10  24  44  70 100 154 186 230 294 368 420
#     4  11  25  45  71 106 142 190 236 293 360 436
#     4  12  24  42  72 108 144 190 240 280 370 436
#
# _framework density 20.854120000000002
#
# number of rings (size 3 to 8) (size 9 to 14) (size 15 to 20)
#    0.000    0.727    3.636    3.818    7.636    5.091 
#    0.000    0.000    0.000    0.000    0.000    0.000 
#    0.000    0.000    0.000    0.000    0.000    0.000 
#
# Total GULP energy -245868.122936 kJ/mol
# GULP energy per Si atom -5587.911885 kJ/mol
# Density = 2.080666 g / cm^3
# Si number density = 20.854120 Si / 1000 Ang^3
#
#
#
# Elastic Constant Matrix: (Units=GPa)
#
#
# Indices 1 2 3 4 5 6 
#
# 1 141.0614 58.8581 73.0503 0.0000 0.0000 0.0000
# 2 58.8581 97.1428 52.7424 -0.0001 0.0000 0.0001
# 3 73.0503 52.7424 171.0302 -0.0002 0.0000 0.0001
# 4 0.0000 -0.0001 -0.0002 39.5900 0.0000 0.0001
# 5 0.0000 0.0000 0.0000 0.0000 45.3632 0.0000
# 6 0.0000 0.0001 0.0001 0.0001 0.0000 73.9000
#
#
#
# Elastic Compliance Matrix: (Units=1/GPa)
#
#
# Indices 1 2 3 4 5 6 
#
# 1 0.010691 -0.004802 -0.003085 0.000000 0.000000 0.000000
# 2 -0.004802 0.014521 -0.002427 0.000000 0.000000 0.000000
# 3 -0.003085 -0.002427 0.007913 0.000000 0.000000 0.000000
# 4 0.000000 0.000000 0.000000 0.025259 0.000000 0.000000
# 5 0.000000 0.000000 0.000000 0.000000 0.022044 0.000000
# 6 0.000000 0.000000 0.000000 0.000000 0.000000 0.013532
#
#
# Mechanical properties :
#
#
# Convention : Reuss Voigt Hill
#
# Bulk Modulus (GPa) = 80.02433 86.50399 83.26416
# Shear Modulus (GPa) = 42.10362 46.74287 44.42324
#
# Velocity S-wave (km/s) = 4.49816 4.73950 4.62041
# Velocity P-wave (km/s) = 8.08917 8.45701 8.27513
#
# Compressibility (1/GPa) = 0.01249620
#
# Stress axis : x y z
#
# Youngs Moduli (GPa) = 93.54025 68.86347 126.37233
#
# Poissons Ratio (x) = 0.33070 0.38989
# Poissons Ratio (y) = 0.44920 0.30671
# Poissons Ratio (z) = 0.28859 0.16713
#
# Static dielectric constant tensor:
#      x y z
#    x 2.928380 0.000000 0.000000 
#    y 0.000000 1.798940 0.000000 
#    z 0.000000 0.000000 1.703680 
# 
# From -- ./inp_files/16164.got.cif
#   From: 2010.05.17/outbox.cif.g08.bks.cpg/sg73_9_cif.got.tgz:16164.got - 2010.06.03 17:35:07.
