data_PCOD9532521
_publ_section_title
;
Structure prediction by ZEFSAII (Michael W. Deem and Ramdas Pophale) SiO2 
 PCOD9532521
Probable space group: I B C A 
;
_chemical_formula_sum "Si O2"
_cell_formula_units_Z 120
_cell_length_a 25.932332
_cell_length_b 25.408448
_cell_length_c 8.438881
_cell_angle_alpha 90.000000
_cell_angle_beta 90.000000
_cell_angle_gamma 90.000000
_cell_volume 5560.381300
_symmetry_space_group_name_H-M "I B C A "
_symmetry_group_IT_number 73
_symmetry_cell_setting 'orthorhombic'
loop_
_space_group_symop_operation_xyz
x,y,z
-x,1/2-y,z
x,-y,1/2-z
1/2-x,y,-z
-x,-y,-z
x,1/2+y,-z
-x,y,1/2+z
1/2+x,-y,z
1/2+x,1/2+y,1/2+z
1/2-x,-y,1/2+z
1/2+x,1/2-y,-z
-x,1/2+y,1/2-z
1/2-x,1/2-y,1/2-z
1/2+x,y,1/2-z
1/2-x,1/2+y,z
x,1/2-y,1/2+z
loop_
_atom_site_type_symbol
_atom_site_label
_atom_site_fract_x
_atom_site_fract_y
_atom_site_fract_z
Si Si1 0.252686 0.846952 0.686563
Si Si2 0.067285 0.642606 0.594183
Si Si3 0.223388 0.547956 0.659777
Si Si4 0.892376 0.975907 0.586012
Si Si5 0.561502 0.500000 0.250000
Si Si6 0.850094 0.288707 0.219948
Si Si7 0.539931 0.378510 0.249395
Si Si8 0.860174 0.824765 0.146534
O O1 0.250000 0.836608 0.500000
O O2 0.279726 0.902405 0.724667
O O3 0.290377 0.803285 0.763253
O O4 0.191744 0.850461 0.722004
O O5 0.089578 0.583876 0.589105
O O6 0.110483 0.678517 0.672324
O O7 0.052284 0.650982 0.412894
O O8 0.013618 0.643396 0.686590
O O9 0.251356 0.500000 0.750000
O O10 0.250000 0.566815 0.500000
O O11 0.169042 0.524755 0.603365
O O12 0.908672 0.001385 0.419141
O O13 0.913670 0.000000 0.750000
O O14 0.534414 0.442354 0.259952
O O15 0.864016 0.228483 0.251182
O O16 0.855125 0.306127 0.036573
O O17 0.591016 0.363572 0.150525
#
# Coordination Sequence:
#
# PCOD9532521 Si02
#       8
#    16  16  16  16   8  16  16  16
#     4  10  23  42  67  97 133 176 223 276 339 412
#     4  11  24  44  67  98 136 170 233 273 353 398
#     4  11  24  38  60  95 134 181 224 276 340 403
#     4  10  24  41  67  96 136 185 227 289 338 408
#     4  10  26  42  68 100 138 176 246 276 350 410
#     4  11  23  45  69  99 135 175 223 286 336 415
#     4  11  26  43  67 102 132 184 220 295 333 419
#     4  11  25  42  70  98 134 176 225 278 345 406
#
# _framework density 21.581254000000001
#
# number of rings (size 3 to 8) (size 9 to 14) (size 15 to 20)
#    0.000    1.333    1.333    2.400    9.333    3.733 
#    0.000    2.667    0.000    0.000    0.000    0.000 
#    0.000    0.000    0.000    0.000    0.000    0.000 
#
# Total GULP energy -334714.057495 kJ/mol
# GULP energy per Si atom -5578.567625 kJ/mol
# Density = 2.153213 g / cm^3
# Si number density = 21.581254 Si / 1000 Ang^3
#
#
#
# Elastic Constant Matrix: (Units=GPa)
#
#
# Indices 1 2 3 4 5 6 
#
# 1 64.6469 6.9868 18.5163 0.0000 0.0000 0.0000
# 2 6.9868 59.9017 -0.4950 0.0000 0.0000 0.0000
# 3 18.5163 -0.4950 84.5720 0.0000 0.0000 0.0000
# 4 0.0000 0.0000 0.0000 21.8846 0.0000 0.0000
# 5 0.0000 0.0000 0.0000 0.0000 23.8793 0.0000
# 6 0.0000 0.0000 0.0000 0.0000 0.0000 7.6525
#
#
#
# Elastic Compliance Matrix: (Units=1/GPa)
#
#
# Indices 1 2 3 4 5 6 
#
# 1 0.016736 -0.001982 -0.003676 0.000000 0.000000 0.000000
# 2 -0.001982 0.016930 0.000533 0.000000 0.000000 0.000000
# 3 -0.003676 0.000533 0.012632 0.000000 0.000000 0.000000
# 4 0.000000 0.000000 0.000000 0.045694 0.000000 0.000000
# 5 0.000000 0.000000 0.000000 0.000000 0.041877 0.000000
# 6 0.000000 0.000000 0.000000 0.000000 0.000000 0.130676
#
#
# Mechanical properties :
#
#
# Convention : Reuss Voigt Hill
#
# Bulk Modulus (GPa) = 27.74122 28.79300 28.26711
# Shear Modulus (GPa) = 17.43312 22.95746 20.19529
#
# Velocity S-wave (km/s) = 2.84525 3.26509 3.06237
# Velocity P-wave (km/s) = 4.86581 5.25214 5.06266
#
# Compressibility (1/GPa) = 0.03604744
#
# Stress axis : x y z
#
# Youngs Moduli (GPa) = 59.75248 59.06802 79.16320
#
# Poissons Ratio (x) = 0.11710 0.29098
# Poissons Ratio (y) = 0.11845 -0.04220
# Poissons Ratio (z) = 0.21963 -0.03149
#
# Static dielectric constant tensor:
#      x y z
#    x 1.884410 0.000000 0.000000 
#    y 0.000000 1.739900 0.000000 
#    z 0.000000 0.000000 1.847530 
# 
# From -- ./inp_files/7392.got.cif
#   From: 2010.05.17/outbox.cif.g08.bks.cpg/sg73_4_cif.got.tgz:7392.got - 2010.06.03 17:35:07.
