data_PCOD9532238
_publ_section_title
;
Structure prediction by ZEFSAII (Michael W. Deem and Ramdas Pophale) SiO2 
 PCOD9532238
Probable space group: I B C A 
;
_chemical_formula_sum "Si O2"
_cell_formula_units_Z 88
_cell_length_a 18.547479
_cell_length_b 14.701157
_cell_length_c 16.043810
_cell_angle_alpha 90.000000
_cell_angle_beta 90.000000
_cell_angle_gamma 90.000000
_cell_volume 4374.656058
_symmetry_space_group_name_H-M "I B C A "
_symmetry_group_IT_number 73
_symmetry_cell_setting 'orthorhombic'
loop_
_space_group_symop_operation_xyz
x,y,z
-x,1/2-y,z
x,-y,1/2-z
1/2-x,y,-z
-x,-y,-z
x,1/2+y,-z
-x,y,1/2+z
1/2+x,-y,z
1/2+x,1/2+y,1/2+z
1/2-x,-y,1/2+z
1/2+x,1/2-y,-z
-x,1/2+y,1/2-z
1/2-x,1/2-y,1/2-z
1/2+x,y,1/2-z
1/2-x,1/2+y,z
x,1/2-y,1/2+z
loop_
_atom_site_type_symbol
_atom_site_label
_atom_site_fract_x
_atom_site_fract_y
_atom_site_fract_z
Si Si1 0.081095 0.761868 0.279734
Si Si2 0.819665 0.065336 0.958219
Si Si3 0.931819 0.457292 0.156786
Si Si4 0.402618 0.072996 0.375592
Si Si5 0.206273 0.000000 0.750000
Si Si6 0.211499 0.826327 0.194396
O O1 0.083883 0.849058 0.340622
O O2 0.102323 0.667224 0.323022
O O3 0.129832 0.794377 0.204421
O O4 0.000000 0.750000 0.251087
O O5 0.783514 0.145859 0.902512
O O6 0.870283 0.006421 0.897015
O O7 0.750000 0.017176 0.000000
O O8 0.872770 0.092274 0.032874
O O9 0.930992 0.500000 0.250000
O O10 0.015194 0.463175 0.125814
O O11 0.348097 0.004198 0.328539
O O12 0.259467 0.915463 0.758725
O O13 0.250000 0.750000 0.250000
#
# Coordination Sequence:
#
# PCOD9532238 Si02
#       6
#    16  16  16  16   8  16
#     4  10  22  43  67  96 129 175 231 281 343 414
#     4  12  24  42  65 103 144 170 231 293 343 408
#     4  11  22  42  74  95 131 187 230 281 352 426
#     4  11  24  44  66 101 136 177 229 297 342 419
#     4  12  22  40  72  94 134 180 234 278 356 430
#     4  12  23  42  68  96 133 182 228 276 347 422
#
# _framework density 20.115867999999999
#
# number of rings (size 3 to 8) (size 9 to 14) (size 15 to 20)
#    0.000    0.727    6.364    1.636    0.000    0.000 
#    3.273    3.636    0.000    0.000    0.000    0.000 
#    0.000    0.000    0.000    0.000    0.000    0.000 
#
# Total GULP energy -245167.382341 kJ/mol
# GULP energy per Si atom -5571.985962 kJ/mol
# Density = 2.007008 g / cm^3
# Si number density = 20.115868 Si / 1000 Ang^3
#
#
#
# Elastic Constant Matrix: (Units=GPa)
#
#
# Indices 1 2 3 4 5 6 
#
# 1 119.4111 34.6824 64.0185 0.0000 0.0000 0.0000
# 2 34.6824 65.9437 37.0276 0.0000 0.0000 0.0000
# 3 64.0185 37.0276 108.0690 0.0000 0.0000 0.0000
# 4 0.0000 0.0000 0.0000 15.1725 0.0000 0.0000
# 5 0.0000 0.0000 0.0000 0.0000 42.0067 0.0000
# 6 0.0000 0.0000 0.0000 0.0000 0.0000 38.5034
#
#
#
# Elastic Compliance Matrix: (Units=1/GPa)
#
#
# Indices 1 2 3 4 5 6 
#
# 1 0.012749 -0.003052 -0.006507 0.000000 0.000000 0.000000
# 2 -0.003052 0.019507 -0.004876 0.000000 0.000000 0.000000
# 3 -0.006507 -0.004876 0.014779 0.000000 0.000000 0.000000
# 4 0.000000 0.000000 0.000000 0.065909 0.000000 0.000000
# 5 0.000000 0.000000 0.000000 0.000000 0.023806 0.000000
# 6 0.000000 0.000000 0.000000 0.000000 0.000000 0.025972
#
#
# Mechanical properties :
#
#
# Convention : Reuss Voigt Hill
#
# Bulk Modulus (GPa) = 55.04780 62.76453 58.90617
# Shear Modulus (GPa) = 25.29779 29.64956 27.47367
#
# Velocity S-wave (km/s) = 3.55012 3.84336 3.69964
# Velocity P-wave (km/s) = 6.65050 7.13894 6.89904
#
# Compressibility (1/GPa) = 0.01816603
#
# Stress axis : x y z
#
# Youngs Moduli (GPa) = 78.43622 51.26271 67.66555
#
# Poissons Ratio (x) = 0.15644 0.44029
# Poissons Ratio (y) = 0.23936 0.32994
# Poissons Ratio (z) = 0.51037 0.24996
#
# Static dielectric constant tensor:
#      x y z
#    x 1.809160 0.000000 0.000000 
#    y 0.000000 1.749410 0.000000 
#    z 0.000000 0.000000 1.748250 
# 
# From -- ./inp_files/18567.got.cif
#   From: 2010.05.17/outbox.cif.g08.bks.cpg/sg73_10_cif.got.tgz:18567.got - 2010.06.03 17:35:07.
