data_PCOD9532050
_publ_section_title
;
Structure prediction by ZEFSAII (Michael W. Deem and Ramdas Pophale) SiO2 
 PCOD9532050
Probable space group: I B C A 
;
_chemical_formula_sum "Si O2"
_cell_formula_units_Z 72
_cell_length_a 15.592639
_cell_length_b 21.276451
_cell_length_c 9.274711
_cell_angle_alpha 90.000000
_cell_angle_beta 90.000000
_cell_angle_gamma 90.000000
_cell_volume 3076.941205
_symmetry_space_group_name_H-M "I B C A "
_symmetry_group_IT_number 73
_symmetry_cell_setting 'orthorhombic'
loop_
_space_group_symop_operation_xyz
x,y,z
-x,1/2-y,z
x,-y,1/2-z
1/2-x,y,-z
-x,-y,-z
x,1/2+y,-z
-x,y,1/2+z
1/2+x,-y,z
1/2+x,1/2+y,1/2+z
1/2-x,-y,1/2+z
1/2+x,1/2-y,-z
-x,1/2+y,1/2-z
1/2-x,1/2-y,1/2-z
1/2+x,y,1/2-z
1/2-x,1/2+y,z
x,1/2-y,1/2+z
loop_
_atom_site_type_symbol
_atom_site_label
_atom_site_fract_x
_atom_site_fract_y
_atom_site_fract_z
Si Si1 0.918445 0.477004 0.409318
Si Si2 0.377787 0.749313 0.129116
Si Si3 0.840379 0.837407 0.133768
Si Si4 0.250000 0.448527 0.500000
Si Si5 0.044308 0.835397 0.114507
O O1 0.937039 0.500000 0.250000
O O2 0.830660 0.509826 0.456851
O O3 0.910818 0.401992 0.406468
O O4 0.000000 0.500000 0.500000
O O5 0.320530 0.796641 0.224783
O O6 0.422302 0.705304 0.250100
O O7 0.335059 0.702960 0.013926
O O8 0.435658 0.794418 0.027558
O O9 0.786118 0.900694 0.121676
O O10 0.943535 0.849296 0.138009
#
# Coordination Sequence:
#
# PCOD9532050 Si02
#       5
#    16  16  16   8  16
#     4  12  29  51  78 109 155 208 258 311 380 451
#     4  10  22  40  72 111 138 196 240 311 377 445
#     4  11  21  40  69 103 152 184 249 305 377 445
#     4  12  28  48  70 112 150 200 254 314 372 458
#     4  11  21  42  75 105 147 187 254 302 376 443
#
# _framework density 23.399863
#
# number of rings (size 3 to 8) (size 9 to 14) (size 15 to 20)
#    0.000    0.889    2.222    6.667    3.111    3.556 
#    0.000    4.444    0.000    0.000    0.000    0.000 
#    0.000    0.000    0.000    0.000    0.000    0.000 
#
# Total GULP energy -201565.165800 kJ/mol
# GULP energy per Si atom -5599.032383 kJ/mol
# Density = 2.334660 g / cm^3
# Si number density = 23.399863 Si / 1000 Ang^3
#
#
#
# Elastic Constant Matrix: (Units=GPa)
#
#
# Indices 1 2 3 4 5 6 
#
# 1 131.2474 54.6479 32.3798 0.0000 0.0000 0.0000
# 2 54.6479 190.4266 52.4350 0.0000 0.0000 0.0000
# 3 32.3798 52.4350 148.1259 0.0000 0.0000 0.0000
# 4 0.0000 0.0000 0.0000 21.5687 0.0000 0.0000
# 5 0.0000 0.0000 0.0000 0.0000 334.4263 0.0000
# 6 0.0000 0.0000 0.0000 0.0000 0.0000 49.1993
#
#
#
# Elastic Compliance Matrix: (Units=1/GPa)
#
#
# Indices 1 2 3 4 5 6 
#
# 1 0.008825 -0.002217 -0.001144 0.000000 0.000000 0.000000
# 2 -0.002217 0.006376 -0.001772 0.000000 0.000000 0.000000
# 3 -0.001144 -0.001772 0.007628 0.000000 0.000000 0.000000
# 4 0.000000 0.000000 0.000000 0.046363 0.000000 0.000000
# 5 0.000000 0.000000 0.000000 0.000000 0.002990 0.000000
# 6 0.000000 0.000000 0.000000 0.000000 0.000000 0.020326
#
#
# Mechanical properties :
#
#
# Convention : Reuss Voigt Hill
#
# Bulk Modulus (GPa) = 79.60909 83.19170 81.40039
# Shear Modulus (GPa) = 46.74528 103.06134 74.90331
#
# Velocity S-wave (km/s) = 4.47438 6.64373 5.66389
# Velocity P-wave (km/s) = 7.79670 9.72017 8.81108
#
# Compressibility (1/GPa) = 0.01256138
#
# Stress axis : x y z
#
# Youngs Moduli (GPa) = 113.31772 156.84522 131.08821
#
# Poissons Ratio (x) = 0.34780 0.14998
# Poissons Ratio (y) = 0.25128 0.23232
# Poissons Ratio (z) = 0.12965 0.27796
#
# Static dielectric constant tensor:
#      x y z
#    x 1.980950 0.000000 0.000000 
#    y 0.000000 7.176950 0.000000 
#    z 0.000000 0.000000 1.856790 
# 
# From -- ./inp_files/5331.got.cif
#   From: 2010.05.17/outbox.cif.g08.bks.cpg/sg73_3_cif.got.tgz:5331.got - 2010.06.03 17:35:07.
