data_PCOD9532581
_publ_section_title
;
Structure prediction by ZEFSAII (Michael W. Deem and Ramdas Pophale) SiO2 
 PCOD9532581
Probable space group: I B C A 
;
_chemical_formula_sum "Si O2"
_cell_formula_units_Z 64
_cell_length_a 8.813110
_cell_length_b 21.338258
_cell_length_c 16.276518
_cell_angle_alpha 90.000000
_cell_angle_beta 90.000000
_cell_angle_gamma 90.000000
_cell_volume 3060.903623
_symmetry_space_group_name_H-M "I B C A "
_symmetry_group_IT_number 73
_symmetry_cell_setting 'orthorhombic'
loop_
_space_group_symop_operation_xyz
x,y,z
-x,1/2-y,z
x,-y,1/2-z
1/2-x,y,-z
-x,-y,-z
x,1/2+y,-z
-x,y,1/2+z
1/2+x,-y,z
1/2+x,1/2+y,1/2+z
1/2-x,-y,1/2+z
1/2+x,1/2-y,-z
-x,1/2+y,1/2-z
1/2-x,1/2-y,1/2-z
1/2+x,y,1/2-z
1/2-x,1/2+y,z
x,1/2-y,1/2+z
loop_
_atom_site_type_symbol
_atom_site_label
_atom_site_fract_x
_atom_site_fract_y
_atom_site_fract_z
Si Si1 0.077148 0.084496 0.470487
Si Si2 0.467177 0.964223 0.636085
Si Si3 0.719068 0.598320 0.249152
Si Si4 0.030563 0.823070 0.155710
O O1 0.250000 0.074021 0.500000
O O2 0.050651 0.153764 0.437442
O O3 0.972394 0.070751 0.548547
O O4 0.042336 0.035943 0.395445
O O5 0.328799 0.942588 0.692893
O O6 0.615772 0.943312 0.687504
O O7 0.820888 0.648513 0.199900
O O8 0.608292 0.639438 0.304642
O O9 0.000000 0.750000 0.164501
#
# Coordination Sequence:
#
# PCOD9532581 Si02
#       4
#    16  16  16  16
#     4  11  24  44  66 100 138 171 218 282 336 404
#     4  10  24  43  69  97 134 166 218 278 344 396
#     4  10  23  44  68  98 128 176 222 276 334 401
#     4  11  24  43  65  95 134 178 226 270 327 397
#
# _framework density 20.908859
#
# number of rings (size 3 to 8) (size 9 to 14) (size 15 to 20)
#    0.000    1.500    2.500    0.750    7.000    6.000 
#    4.500    1.250    0.000    0.000    0.000    0.000 
#    0.000    0.000    0.000    0.000    0.000    0.000 
#
# Total GULP energy -178971.801335 kJ/mol
# GULP energy per Si atom -5592.868792 kJ/mol
# Density = 2.086127 g / cm^3
# Si number density = 20.908859 Si / 1000 Ang^3
#
#
#
# Elastic Constant Matrix: (Units=GPa)
#
#
# Indices 1 2 3 4 5 6 
#
# 1 127.8166 79.2851 53.7332 0.0000 0.0000 0.0000
# 2 79.2851 145.4499 87.2052 0.0000 0.0000 0.0000
# 3 53.7332 87.2052 117.2986 0.0000 0.0000 0.0000
# 4 0.0000 0.0000 0.0000 26.9051 0.0000 0.0000
# 5 0.0000 0.0000 0.0000 0.0000 24.0565 0.0000
# 6 0.0000 0.0000 0.0000 0.0000 0.0000 -9.6261
#
#
#
# Elastic Compliance Matrix: (Units=1/GPa)
#
#
# Indices 1 2 3 4 5 6 
#
# 1 0.011904 -0.005808 -0.001135 0.000000 0.000000 0.000000
# 2 -0.005808 0.015238 -0.008668 0.000000 0.000000 0.000000
# 3 -0.001135 -0.008668 0.015489 0.000000 0.000000 0.000000
# 4 0.000000 0.000000 0.000000 0.037168 0.000000 0.000000
# 5 0.000000 0.000000 0.000000 0.000000 0.041569 0.000000
# 6 0.000000 0.000000 0.000000 0.000000 0.000000 -0.103884
#
#
# Mechanical properties :
#
#
# Convention : Reuss Voigt Hill
#
# Bulk Modulus (GPa) = 87.65085 92.33466 89.99275
# Shear Modulus (GPa) = 95.22068 19.62320 57.42194
#
# Velocity S-wave (km/s) = 6.75572 3.06684 5.24620
# Velocity P-wave (km/s) = 10.14221 7.53638 8.93480
#
# Compressibility (1/GPa) = 0.01140890
#
# Stress axis : x y z
#
# Youngs Moduli (GPa) = 84.00724 65.62330 64.56029
#
# Poissons Ratio (x) = 0.38117 0.07326
# Poissons Ratio (y) = 0.48795 0.55962
# Poissons Ratio (z) = 0.09532 0.56884
#
# Static dielectric constant tensor:
#      x y z
#    x 1.781650 0.000000 0.000000 
#    y 0.000000 1.722010 0.000000 
#    z 0.000000 0.000000 1.773440 
# 
# From -- ./inp_files/5965.got.cif
#   From: 2010.05.17/outbox.cif.g08.bks.cpg/sg73_3_cif.got.tgz:5965.got - 2010.06.03 17:35:07.
