data_PCOD9532751
_publ_section_title
;
Structure prediction by ZEFSAII (Michael W. Deem and Ramdas Pophale) SiO2 
 PCOD9532751
Probable space group: I B C A 
;
_chemical_formula_sum "Si O2"
_cell_formula_units_Z 72
_cell_length_a 8.220863
_cell_length_b 14.732453
_cell_length_c 24.529193
_cell_angle_alpha 90.000000
_cell_angle_beta 90.000000
_cell_angle_gamma 90.000000
_cell_volume 2970.815871
_symmetry_space_group_name_H-M "I B C A "
_symmetry_group_IT_number 73
_symmetry_cell_setting 'orthorhombic'
loop_
_space_group_symop_operation_xyz
x,y,z
-x,1/2-y,z
x,-y,1/2-z
1/2-x,y,-z
-x,-y,-z
x,1/2+y,-z
-x,y,1/2+z
1/2+x,-y,z
1/2+x,1/2+y,1/2+z
1/2-x,-y,1/2+z
1/2+x,1/2-y,-z
-x,1/2+y,1/2-z
1/2-x,1/2-y,1/2-z
1/2+x,y,1/2-z
1/2-x,1/2+y,z
x,1/2-y,1/2+z
loop_
_atom_site_type_symbol
_atom_site_label
_atom_site_fract_x
_atom_site_fract_y
_atom_site_fract_z
Si Si1 0.852299 0.810487 0.291558
Si Si2 0.820038 0.211524 0.554097
Si Si3 0.345905 0.124202 0.606030
Si Si4 0.786695 0.059790 0.371810
Si Si5 0.166444 0.500000 0.250000
O O1 0.750000 0.750000 0.250000
O O2 0.729320 0.836370 0.338665
O O3 0.917583 0.905236 0.266340
O O4 0.000000 0.750000 0.310701
O O5 0.750000 0.164120 0.500000
O O6 0.695323 0.295324 0.564594
O O7 0.820550 0.140314 0.603771
O O8 0.000000 0.250000 0.547376
O O9 0.530451 0.095321 0.618088
O O10 0.248347 0.031761 0.594687
O O11 0.755353 0.031825 0.308343
#
# Coordination Sequence:
#
# PCOD9532751 Si02
#       5
#    16  16  16  16   8
#     4  11  23  39  63  95 135 187 243 304 376 453
#     4  12  26  48  76 107 144 193 251 317 384 454
#     4  11  24  42  67 101 142 186 241 303 369 446
#     4  11  24  44  70 106 146 193 247 309 376 451
#     4  10  24  42  66 100 144 192 246 308 374 454
#
# _framework density 24.235768
#
# number of rings (size 3 to 8) (size 9 to 14) (size 15 to 20)
#    0.000    0.889    0.000    6.667    0.000   14.222 
#    0.000    4.444    0.000    1.333    0.000    0.000 
#    0.000    0.000    0.000    0.000    0.000    0.000 
#
# Total GULP energy -201361.735306 kJ/mol
# GULP energy per Si atom -5593.381536 kJ/mol
# Density = 2.418061 g / cm^3
# Si number density = 24.235768 Si / 1000 Ang^3
#
#
#
# Elastic Constant Matrix: (Units=GPa)
#
#
# Indices 1 2 3 4 5 6 
#
# 1 107.0502 35.1401 29.0996 0.0000 0.0000 0.0000
# 2 35.1401 167.8295 53.5351 0.0000 0.0000 0.0000
# 3 29.0996 53.5351 96.8633 0.0000 0.0000 0.0000
# 4 0.0000 0.0000 0.0000 36.7921 0.0000 0.0000
# 5 0.0000 0.0000 0.0000 0.0000 24.2983 0.0000
# 6 0.0000 0.0000 0.0000 0.0000 0.0000 32.7864
#
#
#
# Elastic Compliance Matrix: (Units=1/GPa)
#
#
# Indices 1 2 3 4 5 6 
#
# 1 0.010451 -0.001441 -0.002344 0.000000 0.000000 0.000000
# 2 -0.001441 0.007432 -0.003675 0.000000 0.000000 0.000000
# 3 -0.002344 -0.003675 0.013059 0.000000 0.000000 0.000000
# 4 0.000000 0.000000 0.000000 0.027180 0.000000 0.000000
# 5 0.000000 0.000000 0.000000 0.000000 0.041155 0.000000
# 6 0.000000 0.000000 0.000000 0.000000 0.000000 0.030500
#
#
# Mechanical properties :
#
#
# Convention : Reuss Voigt Hill
#
# Bulk Modulus (GPa) = 62.40528 67.47697 64.94112
# Shear Modulus (GPa) = 33.32490 35.70656 34.51573
#
# Velocity S-wave (km/s) = 3.71216 3.84252 3.77791
# Velocity P-wave (km/s) = 6.64670 6.89848 6.77376
#
# Compressibility (1/GPa) = 0.01602429
#
# Stress axis : x y z
#
# Youngs Moduli (GPa) = 95.68097 134.54704 76.57580
#
# Poissons Ratio (x) = 0.19385 0.17946
# Poissons Ratio (y) = 0.13785 0.28141
# Poissons Ratio (z) = 0.22423 0.49445
#
# Static dielectric constant tensor:
#      x y z
#    x 1.937980 0.000000 0.000000 
#    y 0.000000 1.915060 0.000000 
#    z 0.000000 0.000000 1.969600 
# 
# From -- ./inp_files/31069.got.cif
#   From: 2010.05.17/outbox.cif.g08.bks.cpg/sg73_16_cif.got.tgz:31069.got - 2010.06.03 17:35:07.
