data_PCOD9532534
_publ_section_title
;
Structure prediction by ZEFSAII (Michael W. Deem and Ramdas Pophale) SiO2 
 PCOD9532534
Probable space group: I B C A 
;
_chemical_formula_sum "Si O2"
_cell_formula_units_Z 104
_cell_length_a 19.210978
_cell_length_b 25.792753
_cell_length_c 8.800550
_cell_angle_alpha 90.000000
_cell_angle_beta 90.000000
_cell_angle_gamma 90.000000
_cell_volume 4360.707819
_symmetry_space_group_name_H-M "I B C A "
_symmetry_group_IT_number 73
_symmetry_cell_setting 'orthorhombic'
loop_
_space_group_symop_operation_xyz
x,y,z
-x,1/2-y,z
x,-y,1/2-z
1/2-x,y,-z
-x,-y,-z
x,1/2+y,-z
-x,y,1/2+z
1/2+x,-y,z
1/2+x,1/2+y,1/2+z
1/2-x,-y,1/2+z
1/2+x,1/2-y,-z
-x,1/2+y,1/2-z
1/2-x,1/2-y,1/2-z
1/2+x,y,1/2-z
1/2-x,1/2+y,z
x,1/2-y,1/2+z
loop_
_atom_site_type_symbol
_atom_site_label
_atom_site_fract_x
_atom_site_fract_y
_atom_site_fract_z
Si Si1 0.125244 0.603978 0.030700
Si Si2 0.323767 0.754493 0.955255
Si Si3 0.386474 0.986854 0.081090
Si Si4 0.663366 0.645036 0.785215
Si Si5 0.250000 0.569804 0.500000
Si Si6 0.881778 0.177145 0.233772
Si Si7 0.462672 0.883138 0.989304
O O1 0.161646 0.630646 0.889216
O O2 0.043927 0.619265 0.039273
O O3 0.122344 0.542573 0.003078
O O4 0.155052 0.626523 0.189584
O O5 0.347975 0.788196 0.100410
O O6 0.250000 0.729784 0.000000
O O7 0.311038 0.797974 0.826282
O O8 0.380055 0.715815 0.879685
O O9 0.411782 0.000000 0.250000
O O10 0.436787 0.942713 0.012886
O O11 0.308996 0.963763 0.081103
O O12 0.708945 0.605467 0.882259
O O13 0.585155 0.639078 0.853873
O O14 0.944092 0.150562 0.138974
#
# Coordination Sequence:
#
# PCOD9532534 Si02
#       7
#    16  16  16  16   8  16  16
#     4  12  24  43  71 103 137 190 239 285 356 431
#     4  11  23  46  71 100 142 183 234 289 357 429
#     4  11  24  42  68 102 143 183 232 288 356 419
#     4  10  23  42  70  98 140 188 231 291 361 414
#     4  10  24  44  62  98 152 178 230 300 352 420
#     4  11  24  44  68 106 135 176 241 286 354 414
#     4  10  23  46  67  99 144 182 232 296 344 422
#
# _framework density 23.849339000000001
#
# number of rings (size 3 to 8) (size 9 to 14) (size 15 to 20)
#    0.000    1.231    2.308    2.769    2.154    1.846 
#    1.385   13.077    0.000    0.000    0.000    0.000 
#    0.000    0.000    0.000    0.000    0.000    0.000 
#
# Total GULP energy -290574.116088 kJ/mol
# GULP energy per Si atom -5587.963771 kJ/mol
# Density = 2.379506 g / cm^3
# Si number density = 23.849339 Si / 1000 Ang^3
#
#
#
# Elastic Constant Matrix: (Units=GPa)
#
#
# Indices 1 2 3 4 5 6 
#
# 1 71.5844 41.5022 24.5425 0.0000 0.0000 0.0000
# 2 41.5022 132.2387 42.3444 0.0000 0.0000 0.0000
# 3 24.5425 42.3444 109.6060 0.0000 0.0000 0.0000
# 4 0.0000 0.0000 0.0000 40.6164 0.0000 0.0000
# 5 0.0000 0.0000 0.0000 0.0000 30.7340 0.0000
# 6 0.0000 0.0000 0.0000 0.0000 0.0000 19.2978
#
#
#
# Elastic Compliance Matrix: (Units=1/GPa)
#
#
# Indices 1 2 3 4 5 6 
#
# 1 0.017470 -0.004827 -0.002047 0.000000 0.000000 0.000000
# 2 -0.004827 0.009964 -0.002768 0.000000 0.000000 0.000000
# 3 -0.002047 -0.002768 0.010651 0.000000 0.000000 0.000000
# 4 0.000000 0.000000 0.000000 0.024621 0.000000 0.000000
# 5 0.000000 0.000000 0.000000 0.000000 0.032537 0.000000
# 6 0.000000 0.000000 0.000000 0.000000 0.000000 0.051819
#
#
# Mechanical properties :
#
#
# Convention : Reuss Voigt Hill
#
# Bulk Modulus (GPa) = 53.19182 58.91191 56.05186
# Shear Modulus (GPa) = 28.96633 31.79896 30.38264
#
# Velocity S-wave (km/s) = 3.48883 3.65544 3.57310
# Velocity P-wave (km/s) = 6.21135 6.52469 6.36995
#
# Compressibility (1/GPa) = 0.01879988
#
# Stress axis : x y z
#
# Youngs Moduli (GPa) = 57.24077 100.36533 93.88441
#
# Poissons Ratio (x) = 0.48451 0.19216
# Poissons Ratio (y) = 0.27633 0.25990
# Poissons Ratio (z) = 0.11716 0.27784
#
# Static dielectric constant tensor:
#      x y z
#    x 1.887350 0.000000 0.000000 
#    y 0.000000 1.981630 0.000000 
#    z 0.000000 0.000000 1.942040 
# 
# From -- ./inp_files/6566.got.cif
#   From: 2010.05.17/outbox.cif.g08.bks.cpg/sg73_4_cif.got.tgz:6566.got - 2010.06.03 17:35:07.
