data_PCOD9532061
_publ_section_title
;
Structure prediction by ZEFSAII (Michael W. Deem and Ramdas Pophale) SiO2 
 PCOD9532061
Probable space group: I B C A 
;
_chemical_formula_sum "Si O2"
_cell_formula_units_Z 72
_cell_length_a 9.724184
_cell_length_b 15.012885
_cell_length_c 22.657044
_cell_angle_alpha 90.000000
_cell_angle_beta 90.000000
_cell_angle_gamma 90.000000
_cell_volume 3307.657811
_symmetry_space_group_name_H-M "I B C A "
_symmetry_group_IT_number 73
_symmetry_cell_setting 'orthorhombic'
loop_
_space_group_symop_operation_xyz
x,y,z
-x,1/2-y,z
x,-y,1/2-z
1/2-x,y,-z
-x,-y,-z
x,1/2+y,-z
-x,y,1/2+z
1/2+x,-y,z
1/2+x,1/2+y,1/2+z
1/2-x,-y,1/2+z
1/2+x,1/2-y,-z
-x,1/2+y,1/2-z
1/2-x,1/2-y,1/2-z
1/2+x,y,1/2-z
1/2-x,1/2+y,z
x,1/2-y,1/2+z
loop_
_atom_site_type_symbol
_atom_site_label
_atom_site_fract_x
_atom_site_fract_y
_atom_site_fract_z
Si Si1 0.336885 0.083175 0.134809
Si Si2 0.935056 0.656938 0.048172
Si Si3 0.650765 0.405314 0.426569
Si Si4 0.563217 0.656549 0.672400
Si Si5 0.528440 0.500000 0.250000
O O1 0.466939 0.121673 0.099713
O O2 0.216987 0.153828 0.146907
O O3 0.383317 0.041377 0.196913
O O4 0.288461 0.000115 0.094243
O O5 0.778701 0.662371 0.070853
O O6 0.000000 0.750000 0.027932
O O7 0.918869 0.594538 0.990782
O O8 0.538508 0.375414 0.379459
O O9 0.500000 0.750000 0.693512
O O10 0.557644 0.581011 0.722563
#
# Coordination Sequence:
#
# PCOD9532061 Si02
#       5
#    16  16  16  16   8
#     4  11  23  41  65  91 126 169 213 264 321 383
#     4  11  23  39  63  95 128 162 205 258 315 385
#     4  10  22  41  61  92 130 166 205 254 322 387
#     4  11  23  41  67  94 125 168 217 270 323 383
#     4  10  24  42  62  92 130 170 218 270 326 386
#
# _framework density 21.767669000000001
#
# number of rings (size 3 to 8) (size 9 to 14) (size 15 to 20)
#    0.000    1.333    0.000    6.000    0.000    8.000 
#    0.000    0.000    0.000    0.000    0.000    0.000 
#    0.000    0.000    0.000    0.000    0.000    0.000 
#
# Total GULP energy -201181.843565 kJ/mol
# GULP energy per Si atom -5588.384543 kJ/mol
# Density = 2.171813 g / cm^3
# Si number density = 21.767669 Si / 1000 Ang^3
#
#
#
# Elastic Constant Matrix: (Units=GPa)
#
#
# Indices 1 2 3 4 5 6 
#
# 1 121.3986 37.6485 48.7401 0.0000 0.0000 0.0000
# 2 37.6485 86.2720 50.6379 0.0000 0.0000 0.0000
# 3 48.7401 50.6379 123.7527 0.0000 0.0000 0.0000
# 4 0.0000 0.0000 0.0000 23.4595 0.0000 0.0000
# 5 0.0000 0.0000 0.0000 0.0000 16.6134 0.0000
# 6 0.0000 0.0000 0.0000 0.0000 0.0000 39.4606
#
#
#
# Elastic Compliance Matrix: (Units=1/GPa)
#
#
# Indices 1 2 3 4 5 6 
#
# 1 0.010265 -0.002772 -0.002908 0.000000 0.000000 0.000000
# 2 -0.002772 0.016004 -0.005457 0.000000 0.000000 0.000000
# 3 -0.002908 -0.005457 0.011459 0.000000 0.000000 0.000000
# 4 0.000000 0.000000 0.000000 0.042627 0.000000 0.000000
# 5 0.000000 0.000000 0.000000 0.000000 0.060192 0.000000
# 6 0.000000 0.000000 0.000000 0.000000 0.000000 0.025342
#
#
# Mechanical properties :
#
#
# Convention : Reuss Voigt Hill
#
# Bulk Modulus (GPa) = 64.71348 67.27513 65.99431
# Shear Modulus (GPa) = 25.86462 28.86648 27.36555
#
# Velocity S-wave (km/s) = 3.45079 3.64554 3.54950
# Velocity P-wave (km/s) = 6.75803 6.97804 6.86891
#
# Compressibility (1/GPa) = 0.01545273
#
# Stress axis : x y z
#
# Youngs Moduli (GPa) = 97.42046 62.48462 87.26847
#
# Poissons Ratio (x) = 0.17323 0.25381
# Poissons Ratio (y) = 0.27009 0.47620
# Poissons Ratio (z) = 0.28333 0.34096
#
# Static dielectric constant tensor:
#      x y z
#    x 1.773380 0.000000 0.000000 
#    y 0.000000 1.842900 0.000000 
#    z 0.000000 0.000000 1.772200 
# 
# From -- ./inp_files/24642.got.cif
#   From: 2010.05.17/outbox.cif.g08.bks.cpg/sg73_13_cif.got.tgz:24642.got - 2010.06.03 17:35:07.
