data_PCOD9532880
_publ_section_title
;
Structure prediction by ZEFSAII (Michael W. Deem and Ramdas Pophale) SiO2 
 PCOD9532880
Probable space group: I B C A 
;
_chemical_formula_sum "Si O2"
_cell_formula_units_Z 96
_cell_length_a 18.820586
_cell_length_b 13.356302
_cell_length_c 17.484486
_cell_angle_alpha 90.000000
_cell_angle_beta 90.000000
_cell_angle_gamma 90.000000
_cell_volume 4395.135225
_symmetry_space_group_name_H-M "I B C A "
_symmetry_group_IT_number 73
_symmetry_cell_setting 'orthorhombic'
loop_
_space_group_symop_operation_xyz
x,y,z
-x,1/2-y,z
x,-y,1/2-z
1/2-x,y,-z
-x,-y,-z
x,1/2+y,-z
-x,y,1/2+z
1/2+x,-y,z
1/2+x,1/2+y,1/2+z
1/2-x,-y,1/2+z
1/2+x,1/2-y,-z
-x,1/2+y,1/2-z
1/2-x,1/2-y,1/2-z
1/2+x,y,1/2-z
1/2-x,1/2+y,z
x,1/2-y,1/2+z
loop_
_atom_site_type_symbol
_atom_site_label
_atom_site_fract_x
_atom_site_fract_y
_atom_site_fract_z
Si Si1 0.643925 0.014897 0.164074
Si Si2 0.763369 0.337888 0.090276
Si Si3 0.000000 0.250000 0.476069
Si Si4 0.273854 0.664052 0.689823
Si Si5 0.892733 0.597100 0.603957
Si Si6 0.572454 0.438546 0.507629
Si Si7 0.384680 0.500000 0.750000
O O1 0.707094 0.092900 0.177057
O O2 0.595877 0.058533 0.095839
O O3 0.612790 0.000000 0.250000
O O4 0.681231 0.915478 0.128226
O O5 0.788742 0.227315 0.113352
O O6 0.684090 0.357287 0.122871
O O7 0.750000 0.347601 0.000000
O O8 0.945762 0.180162 0.428746
O O9 0.948309 0.327506 0.519108
O O10 0.250000 0.750000 0.750000
O O11 0.336179 0.589604 0.715613
O O12 0.877149 0.505993 0.544891
O O13 0.925730 0.547553 0.679364
O O14 0.500000 0.500000 0.500000
#
# Coordination Sequence:
#
# PCOD9532880 Si02
#       7
#    16  16   8  16  16  16   8
#     4  12  22  42  70 103 140 179 232 303 368 427
#     4  12  24  39  67 108 142 179 235 287 372 437
#     4  10  24  46  72  88 132 200 234 282 348 436
#     4  12  21  38  63 101 145 182 217 286 366 435
#     4  11  22  45  67  99 139 184 231 301 354 414
#     4  10  24  45  67  92 137 178 239 295 346 427
#     4  12  24  40  66 102 150 174 236 308 350 428
#
# _framework density 21.842331999999999
#
# number of rings (size 3 to 8) (size 9 to 14) (size 15 to 20)
#    0.000    0.667    7.500    1.000    0.000    3.333 
#    6.000    0.833    0.000    0.000    0.000    0.000 
#    0.000    0.000    0.000    0.000    0.000    0.000 
#
# Total GULP energy -267884.861765 kJ/mol
# GULP energy per Si atom -5580.934620 kJ/mol
# Density = 2.179262 g / cm^3
# Si number density = 21.842332 Si / 1000 Ang^3
#
#
#
# Elastic Constant Matrix: (Units=GPa)
#
#
# Indices 1 2 3 4 5 6 
#
# 1 23.3863 3.7910 -9.1208 0.0000 0.0000 0.0000
# 2 3.7910 136.2402 23.9050 0.0000 0.0000 0.0000
# 3 -9.1208 23.9050 104.1104 0.0000 0.0000 0.0000
# 4 0.0000 0.0000 0.0000 40.2335 0.0000 0.0000
# 5 0.0000 0.0000 0.0000 0.0000 19.8795 0.0000
# 6 0.0000 0.0000 0.0000 0.0000 0.0000 16.9434
#
#
#
# Elastic Compliance Matrix: (Units=1/GPa)
#
#
# Indices 1 2 3 4 5 6 
#
# 1 0.044798 -0.002016 0.004388 0.000000 0.000000 0.000000
# 2 -0.002016 0.007739 -0.001954 0.000000 0.000000 0.000000
# 3 0.004388 -0.001954 0.010438 0.000000 0.000000 0.000000
# 4 0.000000 0.000000 0.000000 0.024855 0.000000 0.000000
# 5 0.000000 0.000000 0.000000 0.000000 0.050303 0.000000
# 6 0.000000 0.000000 0.000000 0.000000 0.000000 0.059020
#
#
# Mechanical properties :
#
#
# Convention : Reuss Voigt Hill
#
# Bulk Modulus (GPa) = 15.67144 33.43194 24.55169
# Shear Modulus (GPa) = 22.97921 31.75538 27.36730
#
# Velocity S-wave (km/s) = 3.24705 3.81707 3.54354
# Velocity P-wave (km/s) = 4.60957 5.89627 5.29217
#
# Compressibility (1/GPa) = 0.06381034
#
# Stress axis : x y z
#
# Youngs Moduli (GPa) = 22.32236 129.21786 95.80256
#
# Poissons Ratio (x) = 0.26056 -0.42034
# Poissons Ratio (y) = 0.04501 0.18716
# Poissons Ratio (z) = -0.09794 0.25244
#
# Static dielectric constant tensor:
#      x y z
#    x 1.952350 0.000000 0.000000 
#    y 0.000000 1.834310 0.000000 
#    z 0.000000 0.000000 1.876400 
# 
# From -- ./inp_files/13685.got.cif
#   From: 2010.05.17/outbox.cif.g08.bks.cpg/sg73_7_cif.got.tgz:13685.got - 2010.06.03 17:35:07.
