data_PCOD9532276
_publ_section_title
;
Structure prediction by ZEFSAII (Michael W. Deem and Ramdas Pophale) SiO2 
 PCOD9532276
Probable space group: I B C A 
;
_chemical_formula_sum "Si O2"
_cell_formula_units_Z 96
_cell_length_a 22.340661
_cell_length_b 13.661215
_cell_length_c 13.622276
_cell_angle_alpha 90.000000
_cell_angle_beta 90.000000
_cell_angle_gamma 90.000000
_cell_volume 4157.526443
_symmetry_space_group_name_H-M "I B C A "
_symmetry_group_IT_number 73
_symmetry_cell_setting 'orthorhombic'
loop_
_space_group_symop_operation_xyz
x,y,z
-x,1/2-y,z
x,-y,1/2-z
1/2-x,y,-z
-x,-y,-z
x,1/2+y,-z
-x,y,1/2+z
1/2+x,-y,z
1/2+x,1/2+y,1/2+z
1/2-x,-y,1/2+z
1/2+x,1/2-y,-z
-x,1/2+y,1/2-z
1/2-x,1/2-y,1/2-z
1/2+x,y,1/2-z
1/2-x,1/2+y,z
x,1/2-y,1/2+z
loop_
_atom_site_type_symbol
_atom_site_label
_atom_site_fract_x
_atom_site_fract_y
_atom_site_fract_z
Si Si1 0.572148 0.407015 0.551502
Si Si2 0.750000 0.978136 0.000000
Si Si3 0.152786 0.147386 0.886239
Si Si4 0.419529 0.000000 0.250000
Si Si5 0.051978 0.136473 0.029571
Si Si6 0.299313 0.838320 0.926179
Si Si7 0.975244 0.146218 0.740167
O O1 0.565823 0.520311 0.522819
O O2 0.516953 0.352472 0.500612
O O3 0.637893 0.370520 0.525279
O O4 0.560534 0.399878 0.669095
O O5 0.802088 0.911799 0.043945
O O6 0.729551 0.053403 0.087918
O O7 0.123785 0.070841 0.811211
O O8 0.184020 0.249645 0.852541
O O9 0.096489 0.181685 0.951478
O O10 0.468680 0.077474 0.292160
O O11 0.062164 0.164849 0.141923
O O12 0.250000 0.794129 0.000000
O O13 0.000000 0.250000 0.774767
#
# Coordination Sequence:
#
# PCOD9532276 Si02
#       7
#    16   8  16   8  16  16  16
#     4  11  21  42  63  97 138 175 230 296 345 421
#     4  10  22  44  66  94 130 180 240 286 338 426
#     4  12  23  44  70  98 135 182 236 293 352 426
#     4  12  24  44  66 100 142 180 228 300 362 418
#     4  11  22  39  68  94 133 183 220 289 364 410
#     4  10  23  40  70  97 130 186 236 280 349 423
#     4  12  25  38  62 105 143 178 229 282 361 438
#
# _framework density 23.090651999999999
#
# number of rings (size 3 to 8) (size 9 to 14) (size 15 to 20)
#    0.500    0.333    5.833    2.000    2.333    0.000 
#    0.000    2.500    0.000    0.000    0.000    0.000 
#    0.000    0.000    0.000    0.000    0.000    0.000 
#
# Total GULP energy -267636.050776 kJ/mol
# GULP energy per Si atom -5575.751058 kJ/mol
# Density = 2.303810 g / cm^3
# Si number density = 23.090652 Si / 1000 Ang^3
#
#
#
# Elastic Constant Matrix: (Units=GPa)
#
#
# Indices 1 2 3 4 5 6 
#
# 1 130.8627 33.6188 22.8975 0.0000 0.0000 0.0000
# 2 33.6188 102.9089 -12.9042 0.0000 0.0000 0.0000
# 3 22.8975 -12.9042 57.8101 0.0000 0.0000 0.0000
# 4 0.0000 0.0000 0.0000 17.5070 0.0000 0.0000
# 5 0.0000 0.0000 0.0000 0.0000 13.3254 0.0000
# 6 0.0000 0.0000 0.0000 0.0000 0.0000 4.9033
#
#
#
# Elastic Compliance Matrix: (Units=1/GPa)
#
#
# Indices 1 2 3 4 5 6 
#
# 1 0.009364 -0.003625 -0.004518 0.000000 0.000000 0.000000
# 2 -0.003625 0.011401 0.003981 0.000000 0.000000 0.000000
# 3 -0.004518 0.003981 0.019976 0.000000 0.000000 0.000000
# 4 0.000000 0.000000 0.000000 0.057120 0.000000 0.000000
# 5 0.000000 0.000000 0.000000 0.000000 0.075045 0.000000
# 6 0.000000 0.000000 0.000000 0.000000 0.000000 0.203943
#
#
# Mechanical properties :
#
#
# Convention : Reuss Voigt Hill
#
# Bulk Modulus (GPa) = 30.84959 42.08955 36.46957
# Shear Modulus (GPa) = 12.62697 23.67846 18.15271
#
# Velocity S-wave (km/s) = 2.34101 3.20575 2.80688
# Velocity P-wave (km/s) = 4.54932 5.65420 5.13158
#
# Compressibility (1/GPa) = 0.03241534
#
# Stress axis : x y z
#
# Youngs Moduli (GPa) = 106.79757 87.71248 50.05983
#
# Poissons Ratio (x) = 0.31800 0.22617
# Poissons Ratio (y) = 0.38719 -0.19928
# Poissons Ratio (z) = 0.48251 -0.34917
#
# Static dielectric constant tensor:
#      x y z
#    x 1.845520 0.000000 0.000000 
#    y 0.000000 2.018840 0.000000 
#    z 0.000000 0.000000 1.887770 
# 
# From -- ./inp_files/18677.got.cif
#   From: 2010.05.17/outbox.cif.g08.bks.cpg/sg73_10_cif.got.tgz:18677.got - 2010.06.03 17:35:07.
