data_PCOD9532465
_publ_section_title
;
Structure prediction by ZEFSAII (Michael W. Deem and Ramdas Pophale) SiO2 
 PCOD9532465
Probable space group: I B C A 
;
_chemical_formula_sum "Si O2"
_cell_formula_units_Z 72
_cell_length_a 23.676711
_cell_length_b 25.665147
_cell_length_c 5.147222
_cell_angle_alpha 90.000000
_cell_angle_beta 90.000000
_cell_angle_gamma 90.000000
_cell_volume 3127.793185
_symmetry_space_group_name_H-M "I B C A "
_symmetry_group_IT_number 73
_symmetry_cell_setting 'orthorhombic'
loop_
_space_group_symop_operation_xyz
x,y,z
-x,1/2-y,z
x,-y,1/2-z
1/2-x,y,-z
-x,-y,-z
x,1/2+y,-z
-x,y,1/2+z
1/2+x,-y,z
1/2+x,1/2+y,1/2+z
1/2-x,-y,1/2+z
1/2+x,1/2-y,-z
-x,1/2+y,1/2-z
1/2-x,1/2-y,1/2-z
1/2+x,y,1/2-z
1/2-x,1/2+y,z
x,1/2-y,1/2+z
loop_
_atom_site_type_symbol
_atom_site_label
_atom_site_fract_x
_atom_site_fract_y
_atom_site_fract_z
Si Si1 0.629823 0.587739 0.943386
Si Si2 0.250000 0.534715 0.500000
Si Si3 0.976265 0.192119 0.270993
Si Si4 0.750000 0.212815 0.500000
Si Si5 0.958275 0.000000 0.750000
Si Si6 0.634344 0.152795 0.548464
O O1 0.585247 0.546161 0.832756
O O2 0.624049 0.635665 0.745499
O O3 0.694265 0.566896 0.922842
O O4 0.624682 0.606132 0.243265
O O5 0.265432 0.500000 0.750000
O O6 0.911974 0.194199 0.356959
O O7 0.000000 0.250000 0.227004
O O8 0.010527 0.164599 0.500930
O O9 0.750000 0.250000 0.250000
O O10 0.696273 0.176182 0.547728
O O11 0.000000 0.000000 0.500000
#
# Coordination Sequence:
#
# PCOD9532465 Si02
#       6
#    16   8  16   8   8  16
#     4  12  26  47  74 110 146 192 242 307 371 435
#     4  12  24  44  78 104 140 186 248 294 368 434
#     4  10  23  40  67  95 131 180 238 289 347 409
#     4  12  28  46  76 104 148 198 238 310 398 442
#     4  12  28  48  74 108 158 200 240 302 382 460
#     4  12  26  45  73 106 148 185 249 303 362 449
#
# _framework density 23.019425999999999
#
# number of rings (size 3 to 8) (size 9 to 14) (size 15 to 20)
#    0.000    0.444    1.111    6.667    7.778    5.333 
#    0.000    0.000    0.000    0.000    0.000    0.000 
#    0.000    0.000    0.000    0.000    0.000    0.000 
#
# Total GULP energy -201195.076793 kJ/mol
# GULP energy per Si atom -5588.752133 kJ/mol
# Density = 2.296703 g / cm^3
# Si number density = 23.019426 Si / 1000 Ang^3
#
#
#
# Elastic Constant Matrix: (Units=GPa)
#
#
# Indices 1 2 3 4 5 6 
#
# 1 187.2391 44.4226 33.2274 0.0000 0.0000 0.0000
# 2 44.4226 43.8478 9.7433 0.0000 0.0000 0.0000
# 3 33.2274 9.7433 172.7381 0.0000 0.0000 0.0000
# 4 0.0000 0.0000 0.0000 30.1992 0.0000 0.0000
# 5 0.0000 0.0000 0.0000 0.0000 41.4875 0.0000
# 6 0.0000 0.0000 0.0000 0.0000 0.0000 20.5412
#
#
#
# Elastic Compliance Matrix: (Units=1/GPa)
#
#
# Indices 1 2 3 4 5 6 
#
# 1 0.007192 -0.007068 -0.000985 0.000000 0.000000 0.000000
# 2 -0.007068 0.030041 -0.000335 0.000000 0.000000 0.000000
# 3 -0.000985 -0.000335 0.005997 0.000000 0.000000 0.000000
# 4 0.000000 0.000000 0.000000 0.033113 0.000000 0.000000
# 5 0.000000 0.000000 0.000000 0.000000 0.024104 0.000000
# 6 0.000000 0.000000 0.000000 0.000000 0.000000 0.048683
#
#
# Mechanical properties :
#
#
# Convention : Reuss Voigt Hill
#
# Bulk Modulus (GPa) = 37.79905 64.29018 51.04462
# Shear Modulus (GPa) = 28.61650 39.54103 34.07876
#
# Velocity S-wave (km/s) = 3.52965 4.14904 3.85182
# Velocity P-wave (km/s) = 5.75043 7.13737 6.48110
#
# Compressibility (1/GPa) = 0.02645569
#
# Stress axis : x y z
#
# Youngs Moduli (GPa) = 139.03607 33.28780 166.73771
#
# Poissons Ratio (x) = 0.23527 0.16421
# Poissons Ratio (y) = 0.98268 0.05584
# Poissons Ratio (z) = 0.13693 0.01115
#
# Static dielectric constant tensor:
#      x y z
#    x 1.935610 0.000000 0.000000 
#    y 0.000000 1.830940 0.000000 
#    z 0.000000 0.000000 1.726230 
# 
# From -- ./inp_files/1722.got.cif
#   From: 2010.05.17/outbox.cif.g08.bks.cpg/sg73_1_cif.got.tgz:1722.got - 2010.06.03 17:35:07.
