data_PCOD9532790
_publ_section_title
;
Structure prediction by ZEFSAII (Michael W. Deem and Ramdas Pophale) SiO2 
 PCOD9532790
Probable space group: I B C A 
;
_chemical_formula_sum "Si O2"
_cell_formula_units_Z 64
_cell_length_a 8.716410
_cell_length_b 22.907742
_cell_length_c 12.503962
_cell_angle_alpha 90.000000
_cell_angle_beta 90.000000
_cell_angle_gamma 90.000000
_cell_volume 2496.706999
_symmetry_space_group_name_H-M "I B C A "
_symmetry_group_IT_number 73
_symmetry_cell_setting 'orthorhombic'
loop_
_space_group_symop_operation_xyz
x,y,z
-x,1/2-y,z
x,-y,1/2-z
1/2-x,y,-z
-x,-y,-z
x,1/2+y,-z
-x,y,1/2+z
1/2+x,-y,z
1/2+x,1/2+y,1/2+z
1/2-x,-y,1/2+z
1/2+x,1/2-y,-z
-x,1/2+y,1/2-z
1/2-x,1/2-y,1/2-z
1/2+x,y,1/2-z
1/2-x,1/2+y,z
x,1/2-y,1/2+z
loop_
_atom_site_type_symbol
_atom_site_label
_atom_site_fract_x
_atom_site_fract_y
_atom_site_fract_z
Si Si1 0.206966 0.500000 0.750000
Si Si2 0.750000 0.821304 0.000000
Si Si3 0.128020 0.796104 0.708551
Si Si4 0.036538 0.453185 0.091985
Si Si5 0.916914 0.175522 0.054410
O O1 0.312868 0.468390 0.838505
O O2 0.098804 0.542957 0.819507
O O3 0.808750 0.839480 0.118304
O O4 0.584866 0.795078 0.034684
O O5 0.250000 0.750000 0.750000
O O6 0.088470 0.827607 0.817187
O O7 0.000000 0.750000 0.668943
O O8 0.052586 0.392495 0.028749
O O9 0.000000 0.500000 0.000000
O O10 0.750000 0.191199 0.000000
#
# Coordination Sequence:
#
# PCOD9532790 Si02
#       5
#     8   8  16  16  16
#     4  10  24  42  74 100 152 196 250 314 398 450
#     4  12  30  48  82 110 154 208 262 320 406 470
#     4  12  27  49  76 109 156 202 260 325 399 473
#     4  11  25  46  73 110 148 201 255 321 390 471
#     4  12  29  48  77 115 158 203 268 327 396 481
#
# _framework density 25.633763999999999
#
# number of rings (size 3 to 8) (size 9 to 14) (size 15 to 20)
#    0.000    0.500    2.500    3.750   12.250    2.000 
#    0.000    0.000    0.000    0.000    0.000    0.000 
#    0.000    0.000    0.000    0.000    0.000    0.000 
#
# Total GULP energy -178193.541869 kJ/mol
# GULP energy per Si atom -5568.548183 kJ/mol
# Density = 2.557542 g / cm^3
# Si number density = 25.633764 Si / 1000 Ang^3
#
#
#
# Elastic Constant Matrix: (Units=GPa)
#
#
# Indices 1 2 3 4 5 6 
#
# 1 216.8497 43.7585 66.4180 0.0000 0.0000 0.0000
# 2 43.7585 46.5958 3.9088 0.0000 0.0000 0.0000
# 3 66.4180 3.9088 191.2379 -0.0003 0.0001 0.0000
# 4 0.0000 0.0000 -0.0003 20.2647 0.0000 0.0000
# 5 0.0000 0.0000 0.0001 0.0000 62.1307 0.0000
# 6 0.0000 0.0000 0.0000 0.0000 0.0000 34.5394
#
#
#
# Elastic Compliance Matrix: (Units=1/GPa)
#
#
# Indices 1 2 3 4 5 6 
#
# 1 0.006446 -0.005876 -0.002119 0.000000 0.000000 0.000000
# 2 -0.005876 0.026854 0.001492 0.000000 0.000000 0.000000
# 3 -0.002119 0.001492 0.005934 0.000000 0.000000 0.000000
# 4 0.000000 0.000000 0.000000 0.049347 0.000000 0.000000
# 5 0.000000 0.000000 0.000000 0.000000 0.016095 0.000000
# 6 0.000000 0.000000 0.000000 0.000000 0.000000 0.028952
#
#
# Mechanical properties :
#
#
# Convention : Reuss Voigt Hill
#
# Bulk Modulus (GPa) = 38.12542 75.87265 56.99903
# Shear Modulus (GPa) = 32.17970 46.09350 39.13660
#
# Velocity S-wave (km/s) = 3.54696 4.24507 3.91162
# Velocity P-wave (km/s) = 5.62849 7.32738 6.53339
#
# Compressibility (1/GPa) = 0.02622922
#
# Stress axis : x y z
#
# Youngs Moduli (GPa) = 155.13230 37.23829 168.50841
#
# Poissons Ratio (x) = 0.21881 0.35701
# Poissons Ratio (y) = 0.91154 -0.25139
# Poissons Ratio (z) = 0.32867 -0.05555
#
# Static dielectric constant tensor:
#      x y z
#    x 2.264730 0.000000 0.000000 
#    y 0.000000 2.655680 0.000000 
#    z 0.000000 0.000000 1.252010 
# 
# From -- ./inp_files/8257.got.cif
#   From: 2010.05.17/outbox.cif.g08.bks.cpg/sg73_5_cif.got.tgz:8257.got - 2010.06.03 17:35:07.
