data_PCOD9532476
_publ_section_title
;
Structure prediction by ZEFSAII (Michael W. Deem and Ramdas Pophale) SiO2 
 PCOD9532476
Probable space group: I B C A 
;
_chemical_formula_sum "Si O2"
_cell_formula_units_Z 112
_cell_length_a 10.599967
_cell_length_b 14.210457
_cell_length_c 29.885822
_cell_angle_alpha 90.000000
_cell_angle_beta 90.000000
_cell_angle_gamma 90.000000
_cell_volume 4501.712583
_symmetry_space_group_name_H-M "I B C A "
_symmetry_group_IT_number 73
_symmetry_cell_setting 'orthorhombic'
loop_
_space_group_symop_operation_xyz
x,y,z
-x,1/2-y,z
x,-y,1/2-z
1/2-x,y,-z
-x,-y,-z
x,1/2+y,-z
-x,y,1/2+z
1/2+x,-y,z
1/2+x,1/2+y,1/2+z
1/2-x,-y,1/2+z
1/2+x,1/2-y,-z
-x,1/2+y,1/2-z
1/2-x,1/2-y,1/2-z
1/2+x,y,1/2-z
1/2-x,1/2+y,z
x,1/2-y,1/2+z
loop_
_atom_site_type_symbol
_atom_site_label
_atom_site_fract_x
_atom_site_fract_y
_atom_site_fract_z
Si Si1 0.983365 0.087368 0.224540
Si Si2 0.814164 0.167982 0.862359
Si Si3 0.846872 0.330889 0.146112
Si Si4 0.000000 0.250000 0.289298
Si Si5 0.336990 0.510233 0.851201
Si Si6 0.614825 0.896059 0.491691
Si Si7 0.500000 0.250000 0.564149
Si Si8 0.466362 0.459116 0.424486
O O1 0.072228 0.137143 0.188273
O O2 0.939628 0.169534 0.257785
O O3 0.877585 0.033502 0.195952
O O4 0.049900 0.000000 0.250000
O O5 0.681120 0.221346 0.856240
O O6 0.901540 0.192666 0.820042
O O7 0.776426 0.059022 0.866948
O O8 0.885265 0.217144 0.904070
O O9 0.714613 0.385215 0.151820
O O10 0.904062 0.371137 0.100436
O O11 0.454738 0.510953 0.885129
O O12 0.750000 0.847460 0.500000
O O13 0.500082 0.837004 0.469964
O O14 0.570521 0.928293 0.539877
O O15 0.627418 0.981039 0.456076
#
# Coordination Sequence:
#
# PCOD9532476 Si02
#       8
#    16  16  16   8  16  16   8  16
#     4  11  24  39  61  93 123 158 209 258 305 369
#     4  11  24  41  64  88 123 168 205 254 319 368
#     4  11  23  40  63  89 123 165 206 253 313 373
#     4  11  24  42  59  90 128 158 207 260 306 375
#     4  11  23  42  64  89 125 165 207 257 311 372
#     4  11  23  41  65  92 125 164 204 257 317 373
#     4  11  24  40  61  92 122 156 209 258 300 369
#     4  10  23  41  63  90 123 160 206 254 308 375
#
# _framework density 24.87942
#
# number of rings (size 3 to 8) (size 9 to 14) (size 15 to 20)
#    0.000    1.143    0.000    6.000    0.000   14.857 
#    0.000    0.714    0.000    0.000    0.000    0.000 
#    0.000    0.000    0.000    0.000    0.000    0.000 
#
# Total GULP energy -313393.993181 kJ/mol
# GULP energy per Si atom -5596.321307 kJ/mol
# Density = 2.482279 g / cm^3
# Si number density = 24.879420 Si / 1000 Ang^3
#
#
#
# Elastic Constant Matrix: (Units=GPa)
#
#
# Indices 1 2 3 4 5 6 
#
# 1 61.4236 -0.2803 22.3973 0.0000 0.0000 0.0000
# 2 -0.2803 75.5230 16.2155 0.0000 0.0000 0.0000
# 3 22.3973 16.2155 120.7525 0.0000 0.0000 0.0000
# 4 0.0000 0.0000 0.0000 20.2287 0.0000 0.0000
# 5 0.0000 0.0000 0.0000 0.0000 21.7352 0.0000
# 6 0.0000 0.0000 0.0000 0.0000 0.0000 43.9902
#
#
#
# Elastic Compliance Matrix: (Units=1/GPa)
#
#
# Indices 1 2 3 4 5 6 
#
# 1 0.017506 0.000785 -0.003352 0.000000 0.000000 0.000000
# 2 0.000785 0.013669 -0.001981 0.000000 0.000000 0.000000
# 3 -0.003352 -0.001981 0.009169 0.000000 0.000000 0.000000
# 4 0.000000 0.000000 0.000000 0.049435 0.000000 0.000000
# 5 0.000000 0.000000 0.000000 0.000000 0.046008 0.000000
# 6 0.000000 0.000000 0.000000 0.000000 0.000000 0.022732
#
#
# Mechanical properties :
#
#
# Convention : Reuss Voigt Hill
#
# Bulk Modulus (GPa) = 32.00288 37.15158 34.57723
# Shear Modulus (GPa) = 28.08456 31.81526 29.94991
#
# Velocity S-wave (km/s) = 3.36345 3.57988 3.47335
# Velocity P-wave (km/s) = 5.28912 5.66149 5.47847
#
# Compressibility (1/GPa) = 0.03124719
#
# Stress axis : x y z
#
# Youngs Moduli (GPa) = 57.12197 73.15672 109.05990
#
# Poissons Ratio (x) = -0.05741 0.36562
# Poissons Ratio (y) = -0.04483 0.21607
# Poissons Ratio (z) = 0.19150 0.14494
#
# Static dielectric constant tensor:
#      x y z
#    x 1.972610 0.000000 0.000000 
#    y 0.000000 1.969730 0.000000 
#    z 0.000000 0.000000 1.959870 
# 
# From -- ./inp_files/11307.got.cif
#   From: 2010.05.17/outbox.cif.g08.bks.cpg/sg73_6_cif.got.tgz:11307.got - 2010.06.03 17:35:07.
