data_PCOD9532687
_publ_section_title
;
Structure prediction by ZEFSAII (Michael W. Deem and Ramdas Pophale) SiO2 
 PCOD9532687
Probable space group: I B C A 
;
_chemical_formula_sum "Si O2"
_cell_formula_units_Z 120
_cell_length_a 26.948210
_cell_length_b 9.370540
_cell_length_c 23.335372
_cell_angle_alpha 90.000000
_cell_angle_beta 90.000000
_cell_angle_gamma 90.000000
_cell_volume 5892.631330
_symmetry_space_group_name_H-M "I B C A "
_symmetry_group_IT_number 73
_symmetry_cell_setting 'orthorhombic'
loop_
_space_group_symop_operation_xyz
x,y,z
-x,1/2-y,z
x,-y,1/2-z
1/2-x,y,-z
-x,-y,-z
x,1/2+y,-z
-x,y,1/2+z
1/2+x,-y,z
1/2+x,1/2+y,1/2+z
1/2-x,-y,1/2+z
1/2+x,1/2-y,-z
-x,1/2+y,1/2-z
1/2-x,1/2-y,1/2-z
1/2+x,y,1/2-z
1/2-x,1/2+y,z
x,1/2-y,1/2+z
loop_
_atom_site_type_symbol
_atom_site_label
_atom_site_fract_x
_atom_site_fract_y
_atom_site_fract_z
Si Si1 0.750000 0.283950 0.500000
Si Si2 0.944230 0.298049 0.907579
Si Si3 0.317098 0.523365 0.978409
Si Si4 0.298071 0.592130 0.691624
Si Si5 0.390887 0.444483 0.888479
Si Si6 0.200584 0.932016 0.312618
Si Si7 0.122752 0.965873 0.094364
Si Si8 0.054759 0.303514 0.546444
O O1 0.719227 0.393433 0.461041
O O2 0.789154 0.172480 0.475693
O O3 0.935873 0.449869 0.876402
O O4 0.900105 0.188135 0.890881
O O5 0.000000 0.250000 0.893353
O O6 0.942876 0.306956 0.977536
O O7 0.339232 0.481056 0.040433
O O8 0.361151 0.533891 0.935311
O O9 0.302760 0.500000 0.750000
O O10 0.350971 0.582264 0.660241
O O11 0.288855 0.762860 0.694973
O O12 0.249884 0.513669 0.663945
O O13 0.407832 0.306419 0.923381
O O14 0.191134 0.000000 0.250000
O O15 0.153802 0.964064 0.353777
O O16 0.073354 0.048034 0.072194
O O17 0.000000 0.250000 0.561664
#
# Coordination Sequence:
#
# PCOD9532687 Si02
#       8
#     8  16  16  16  16  16  16  16
#     4  10  24  34  48  78 132 170 196 246 304 376
#     4  11  23  39  64  98 134 171 209 262 322 386
#     4  11  22  36  53  88 126 164 209 246 309 376
#     4  11  26  45  68  95 126 170 216 263 318 378
#     4  12  23  39  64  93 129 166 217 261 314 382
#     4  11  26  45  68  95 126 170 216 263 318 378
#     4  12  23  39  64  93 129 166 217 261 314 382
#     4  11  21  41  64  94 132 169 211 262 320 384
#
# _framework density 20.364417
#
# number of rings (size 3 to 8) (size 9 to 14) (size 15 to 20)
#    0.000    0.800    4.000    4.000    7.467    2.133 
#    0.000    0.000    0.000    4.800    0.000    0.000 
#    0.000    0.000    0.000    0.000    0.000    0.000 
#
# Total GULP energy -334720.301363 kJ/mol
# GULP energy per Si atom -5578.671689 kJ/mol
# Density = 2.031807 g / cm^3
# Si number density = 20.364417 Si / 1000 Ang^3
#
#
#
# Elastic Constant Matrix: (Units=GPa)
#
#
# Indices 1 2 3 4 5 6 
#
# 1 76.2009 12.0335 23.8788 0.0000 0.0000 0.0000
# 2 12.0335 125.3963 12.4048 0.0000 0.0000 0.0000
# 3 23.8788 12.4048 51.2170 0.0000 0.0000 0.0000
# 4 0.0000 0.0000 0.0000 19.1286 0.0000 0.0000
# 5 0.0000 0.0000 0.0000 0.0000 26.7944 0.0000
# 6 0.0000 0.0000 0.0000 0.0000 0.0000 46.3586
#
#
#
# Elastic Compliance Matrix: (Units=1/GPa)
#
#
# Indices 1 2 3 4 5 6 
#
# 1 0.015444 -0.000789 -0.007010 0.000000 0.000000 0.000000
# 2 -0.000789 0.008211 -0.001621 0.000000 0.000000 0.000000
# 3 -0.007010 -0.001621 0.023185 0.000000 0.000000 0.000000
# 4 0.000000 0.000000 0.000000 0.052278 0.000000 0.000000
# 5 0.000000 0.000000 0.000000 0.000000 0.037321 0.000000
# 6 0.000000 0.000000 0.000000 0.000000 0.000000 0.021571
#
#
# Mechanical properties :
#
#
# Convention : Reuss Voigt Hill
#
# Bulk Modulus (GPa) = 35.71161 38.82762 37.26961
# Shear Modulus (GPa) = 26.85531 32.08945 29.47238
#
# Velocity S-wave (km/s) = 3.63538 3.97389 3.80840
# Velocity P-wave (km/s) = 5.93259 6.33747 6.13837
#
# Compressibility (1/GPa) = 0.02800210
#
# Stress axis : x y z
#
# Youngs Moduli (GPa) = 64.74876 121.79148 43.13059
#
# Poissons Ratio (x) = 0.09605 0.30233
# Poissons Ratio (y) = 0.05107 0.06991
# Poissons Ratio (z) = 0.45386 0.19742
#
# Static dielectric constant tensor:
#      x y z
#    x 1.796400 0.000000 0.000000 
#    y 0.000000 0.260920 0.000000 
#    z 0.000000 0.000000 1.791800 
# 
# From -- ./inp_files/30516.got.cif
#   From: 2010.05.17/outbox.cif.g08.bks.cpg/sg73_16_cif.got.tgz:30516.got - 2010.06.03 17:35:07.
