data_PCOD9532570
_publ_section_title
;
Structure prediction by ZEFSAII (Michael W. Deem and Ramdas Pophale) SiO2 
 PCOD9532570
Probable space group: I B C A 
;
_chemical_formula_sum "Si O2"
_cell_formula_units_Z 88
_cell_length_a 15.749931
_cell_length_b 21.842772
_cell_length_c 9.611217
_cell_angle_alpha 90.000000
_cell_angle_beta 90.000000
_cell_angle_gamma 90.000000
_cell_volume 3306.471554
_symmetry_space_group_name_H-M "I B C A "
_symmetry_group_IT_number 73
_symmetry_cell_setting 'orthorhombic'
loop_
_space_group_symop_operation_xyz
x,y,z
-x,1/2-y,z
x,-y,1/2-z
1/2-x,y,-z
-x,-y,-z
x,1/2+y,-z
-x,y,1/2+z
1/2+x,-y,z
1/2+x,1/2+y,1/2+z
1/2-x,-y,1/2+z
1/2+x,1/2-y,-z
-x,1/2+y,1/2-z
1/2-x,1/2-y,1/2-z
1/2+x,y,1/2-z
1/2-x,1/2+y,z
x,1/2-y,1/2+z
loop_
_atom_site_type_symbol
_atom_site_label
_atom_site_fract_x
_atom_site_fract_y
_atom_site_fract_z
Si Si1 0.885219 0.047457 0.457612
Si Si2 0.423650 0.126298 0.788381
Si Si3 0.500000 0.250000 0.374068
Si Si4 0.898392 0.939377 0.523394
Si Si5 0.336160 0.190804 0.422705
Si Si6 0.269699 0.147744 0.158455
O O1 0.930785 0.095645 0.559665
O O2 0.825546 0.086226 0.359342
O O3 0.935188 0.986860 0.407990
O O4 0.839017 0.998030 0.563960
O O5 0.475336 0.189108 0.789996
O O6 0.447387 0.084538 0.658220
O O7 0.322393 0.137744 0.772931
O O8 0.416065 0.232455 0.459751
O O9 0.858607 0.879684 0.456395
O O10 0.250000 0.205452 0.500000
O O11 0.320016 0.193787 0.257146
O O12 0.250000 0.165973 0.000000
#
# Coordination Sequence:
#
# PCOD9532570 Si02
#       6
#    16  16   8  16  16  16
#     4  10  23  43  75 106 153 200 251 328 393 469
#     4  11  23  47  69 108 151 201 262 318 393 467
#     4  12  28  48  78 112 158 218 262 332 388 470
#     4  11  23  45  74 109 147 200 262 319 392 475
#     4  12  26  50  77 115 157 204 266 322 391 474
#     4  10  24  48  72 112 152 196 251 317 399 468
#
# _framework density 26.614474999999999
#
# number of rings (size 3 to 8) (size 9 to 14) (size 15 to 20)
#    0.000    1.091    3.636    1.636    0.000    6.545 
#   13.091    0.000    0.000    0.000    0.000    0.000 
#    0.000    0.000    0.000    0.000    0.000    0.000 
#
# Total GULP energy -245162.627102 kJ/mol
# GULP energy per Si atom -5571.877889 kJ/mol
# Density = 2.655390 g / cm^3
# Si number density = 26.614475 Si / 1000 Ang^3
#
#
#
# Elastic Constant Matrix: (Units=GPa)
#
#
# Indices 1 2 3 4 5 6 
#
# 1 148.3390 66.0921 44.8614 0.0000 0.0000 0.0000
# 2 66.0921 152.0356 27.2638 0.0000 0.0000 0.0000
# 3 44.8614 27.2638 118.8955 0.0000 0.0000 0.0000
# 4 0.0000 0.0000 0.0000 -14.5424 0.0000 0.0000
# 5 0.0000 0.0000 0.0000 0.0000 24.8375 0.0000
# 6 0.0000 0.0000 0.0000 0.0000 0.0000 33.7697
#
#
#
# Elastic Compliance Matrix: (Units=1/GPa)
#
#
# Indices 1 2 3 4 5 6 
#
# 1 0.009087 -0.003478 -0.002631 0.000000 0.000000 0.000000
# 2 -0.003478 0.008191 -0.000566 0.000000 0.000000 0.000000
# 3 -0.002631 -0.000566 0.009533 0.000000 0.000000 0.000000
# 4 0.000000 0.000000 0.000000 -0.068764 0.000000 0.000000
# 5 0.000000 0.000000 0.000000 0.000000 0.040262 0.000000
# 6 0.000000 0.000000 0.000000 0.000000 0.000000 0.029612
#
#
# Mechanical properties :
#
#
# Convention : Reuss Voigt Hill
#
# Bulk Modulus (GPa) = 74.29069 77.30054 75.79562
# Shear Modulus (GPa) = 109.27125 27.54981 68.41053
#
# Velocity S-wave (km/s) = 6.41453 3.22086 5.07544
# Velocity P-wave (km/s) = 9.10142 6.55282 7.93017
#
# Compressibility (1/GPa) = 0.01346064
#
# Stress axis : x y z
#
# Youngs Moduli (GPa) = 110.05025 122.08583 104.89646
#
# Poissons Ratio (x) = 0.42466 0.27598
# Poissons Ratio (y) = 0.38279 0.05935
# Poissons Ratio (z) = 0.28954 0.06908
#
# Static dielectric constant tensor:
#      x y z
#    x 2.288980 0.000000 0.000000 
#    y 0.000000 1.938880 0.000000 
#    z 0.000000 0.000000 2.160790 
# 
# From -- ./inp_files/11902.got.cif
#   From: 2010.05.17/outbox.cif.g08.bks.cpg/sg73_6_cif.got.tgz:11902.got - 2010.06.03 17:35:07.
