data_PCOD9532022
_publ_section_title
;
Structure prediction by ZEFSAII (Michael W. Deem and Ramdas Pophale) SiO2 
 PCOD9532022
Probable space group: I B C A 
;
_chemical_formula_sum "Si O2"
_cell_formula_units_Z 120
_cell_length_a 8.615003
_cell_length_b 23.919789
_cell_length_c 27.477969
_cell_angle_alpha 90.000000
_cell_angle_beta 90.000000
_cell_angle_gamma 90.000000
_cell_volume 5662.359078
_symmetry_space_group_name_H-M "I B C A "
_symmetry_group_IT_number 73
_symmetry_cell_setting 'orthorhombic'
loop_
_space_group_symop_operation_xyz
x,y,z
-x,1/2-y,z
x,-y,1/2-z
1/2-x,y,-z
-x,-y,-z
x,1/2+y,-z
-x,y,1/2+z
1/2+x,-y,z
1/2+x,1/2+y,1/2+z
1/2-x,-y,1/2+z
1/2+x,1/2-y,-z
-x,1/2+y,1/2-z
1/2-x,1/2-y,1/2-z
1/2+x,y,1/2-z
1/2-x,1/2+y,z
x,1/2-y,1/2+z
loop_
_atom_site_type_symbol
_atom_site_label
_atom_site_fract_x
_atom_site_fract_y
_atom_site_fract_z
Si Si1 0.427024 0.058710 0.478074
Si Si2 0.945567 0.630433 0.221157
Si Si3 0.415209 0.195949 0.133776
Si Si4 0.657915 0.281306 0.793330
Si Si5 0.250000 0.083473 0.000000
Si Si6 0.522659 0.529949 0.629125
Si Si7 0.825149 0.445068 0.723575
Si Si8 0.653971 0.928095 0.895605
O O1 0.250000 0.066656 0.500000
O O2 0.566809 0.103241 0.492417
O O3 0.437168 0.056622 0.418859
O O4 0.500000 0.000000 0.500000
O O5 0.887311 0.659456 0.270423
O O6 0.810437 0.591927 0.201954
O O7 0.988388 0.676749 0.181699
O O8 0.087857 0.591619 0.235744
O O9 0.500000 0.250000 0.110926
O O10 0.254585 0.214987 0.157749
O O11 0.383220 0.137812 0.105849
O O12 0.500000 0.250000 0.802525
O O13 0.750000 0.250000 0.750000
O O14 0.277177 0.055289 0.051874
O O15 0.438565 0.540736 0.679762
O O16 0.496295 0.464269 0.617504
O O17 0.697239 0.552602 0.635597
O O18 0.763309 0.500000 0.750000
#
# Coordination Sequence:
#
# PCOD9532022 Si02
#       8
#    16  16  16  16   8  16  16  16
#     4  11  18  35  61  93 129 169 216 267 329 395
#     4  12  23  41  61  84 123 175 222 264 323 379
#     4  12  25  43  66  96 125 173 233 281 322 392
#     4  12  20  39  64  88 113 158 215 282 323 356
#     4  10  22  40  66  98 134 176 206 278 336 406
#     4  11  25  39  63  98 140 175 213 276 338 413
#     4  12  27  39  55  87 139 180 212 255 329 405
#     4  11  25  42  67 101 135 169 222 269 349 406
#
# _framework density 21.192578999999999
#
# number of rings (size 3 to 8) (size 9 to 14) (size 15 to 20)
#    0.000    0.533    6.000    2.800    5.600    0.000 
#    0.000    0.000    0.000    0.800    0.000    0.000 
#    0.000    0.000    0.000    0.000    0.000    0.000 
#
# Total GULP energy -334444.179209 kJ/mol
# GULP energy per Si atom -5574.069653 kJ/mol
# Density = 2.114434 g / cm^3
# Si number density = 21.192579 Si / 1000 Ang^3
#
#
#
# Elastic Constant Matrix: (Units=GPa)
#
#
# Indices 1 2 3 4 5 6 
#
# 1 112.8640 42.4449 9.9957 0.0000 0.0000 0.0000
# 2 42.4449 102.7104 9.1905 0.0000 0.0000 0.0000
# 3 9.9957 9.1905 52.6059 0.0000 0.0000 0.0000
# 4 0.0000 0.0000 0.0000 10.3255 0.0000 0.0000
# 5 0.0000 0.0000 0.0000 0.0000 24.2692 0.0000
# 6 0.0000 0.0000 0.0000 0.0000 0.0000 29.1983
#
#
#
# Elastic Compliance Matrix: (Units=1/GPa)
#
#
# Indices 1 2 3 4 5 6 
#
# 1 0.010573 -0.004256 -0.001265 0.000000 0.000000 0.000000
# 2 -0.004256 0.011604 -0.001219 0.000000 0.000000 0.000000
# 3 -0.001265 -0.001219 0.019463 0.000000 0.000000 0.000000
# 4 0.000000 0.000000 0.000000 0.096847 0.000000 0.000000
# 5 0.000000 0.000000 0.000000 0.000000 0.041204 0.000000
# 6 0.000000 0.000000 0.000000 0.000000 0.000000 0.034249
#
#
# Mechanical properties :
#
#
# Convention : Reuss Voigt Hill
#
# Bulk Modulus (GPa) = 35.51210 43.49360 39.50285
# Shear Modulus (GPa) = 21.11433 26.52857 23.82145
#
# Velocity S-wave (km/s) = 3.15986 3.54190 3.35632
# Velocity P-wave (km/s) = 5.48691 6.10691 5.80519
#
# Compressibility (1/GPa) = 0.02815942
#
# Stress axis : x y z
#
# Youngs Moduli (GPa) = 94.58192 86.17775 51.38061
#
# Poissons Ratio (x) = 0.36677 0.06502
# Poissons Ratio (y) = 0.40254 0.06261
# Poissons Ratio (z) = 0.11969 0.10501
#
# Static dielectric constant tensor:
#      x y z
#    x 1.854240 0.000000 0.000000 
#    y 0.000000 1.795040 0.000000 
#    z 0.000000 0.000000 1.779390 
# 
# From -- ./inp_files/33657.got.cif
#   From: 2010.05.17/outbox.cif.g08.bks.cpg/sg73_17_cif.got.tgz:33657.got - 2010.06.03 17:35:07.
