data_PCOD9532176
_publ_section_title
;
Structure prediction by ZEFSAII (Michael W. Deem and Ramdas Pophale) SiO2 
 PCOD9532176
Probable space group: I B C A 
;
_chemical_formula_sum "Si O2"
_cell_formula_units_Z 112
_cell_length_a 30.505461
_cell_length_b 15.086138
_cell_length_c 10.866329
_cell_angle_alpha 90.000000
_cell_angle_beta 90.000000
_cell_angle_gamma 90.000000
_cell_volume 5000.788862
_symmetry_space_group_name_H-M "I B C A "
_symmetry_group_IT_number 73
_symmetry_cell_setting 'orthorhombic'
loop_
_space_group_symop_operation_xyz
x,y,z
-x,1/2-y,z
x,-y,1/2-z
1/2-x,y,-z
-x,-y,-z
x,1/2+y,-z
-x,y,1/2+z
1/2+x,-y,z
1/2+x,1/2+y,1/2+z
1/2-x,-y,1/2+z
1/2+x,1/2-y,-z
-x,1/2+y,1/2-z
1/2-x,1/2-y,1/2-z
1/2+x,y,1/2-z
1/2-x,1/2+y,z
x,1/2-y,1/2+z
loop_
_atom_site_type_symbol
_atom_site_label
_atom_site_fract_x
_atom_site_fract_y
_atom_site_fract_z
Si Si1 0.323104 0.725020 0.402686
Si Si2 0.900882 0.579292 0.451655
Si Si3 0.533038 0.000000 0.250000
Si Si4 0.817116 0.092997 0.690990
Si Si5 0.389272 0.610094 0.549896
Si Si6 0.031387 0.824647 0.123533
Si Si7 0.250000 0.858132 0.500000
Si Si8 0.408884 0.818008 0.306322
O O1 0.304864 0.657098 0.302132
O O2 0.347762 0.669777 0.510291
O O3 0.286560 0.792967 0.444768
O O4 0.361629 0.777082 0.333984
O O5 0.936573 0.546148 0.353600
O O6 0.860523 0.625998 0.381610
O O7 0.880683 0.490704 0.512365
O O8 0.920132 0.635430 0.563874
O O9 0.510972 0.086012 0.184341
O O10 0.776158 0.085210 0.600231
O O11 0.830506 0.000000 0.750000
O O12 0.430845 0.642799 0.468802
O O13 0.403502 0.619221 0.690298
O O14 0.057534 0.762289 0.221132
O O15 0.000000 0.750000 0.065854
#
# Coordination Sequence:
#
# PCOD9532176 Si02
#       8
#    16  16   8  16  16  16   8  16
#     4  11  23  41  67  90 129 175 220 276 338 410
#     4  11  20  43  68  97 131 175 229 275 334 409
#     4  10  22  44  74 100 136 184 230 272 344 424
#     4  12  23  44  64  91 132 174 219 278 345 411
#     4  10  22  42  68  96 131 178 227 276 340 406
#     4  10  24  44  69 103 138 183 223 283 343 409
#     4  12  26  42  60 102 128 166 228 280 342 412
#     4  11  23  39  69  99 132 174 229 278 333 405
#
# _framework density 22.396467000000001
#
# number of rings (size 3 to 8) (size 9 to 14) (size 15 to 20)
#    0.000    1.143    3.571    3.429    6.000    1.143 
#    5.143    1.429    0.000    0.000    0.000    0.000 
#    0.000    0.000    0.000    0.000    0.000    0.000 
#
# Total GULP energy -312970.718130 kJ/mol
# GULP energy per Si atom -5588.762824 kJ/mol
# Density = 2.234549 g / cm^3
# Si number density = 22.396467 Si / 1000 Ang^3
#
#
#
# Elastic Constant Matrix: (Units=GPa)
#
#
# Indices 1 2 3 4 5 6 
#
# 1 57.6312 5.9180 4.7071 0.0000 0.0000 0.0000
# 2 5.9180 80.2649 24.2363 0.0000 0.0000 0.0000
# 3 4.7071 24.2363 103.4977 0.0000 0.0000 0.0000
# 4 0.0000 0.0000 0.0000 38.4125 0.0000 0.0000
# 5 0.0000 0.0000 0.0000 0.0000 7.8089 0.0000
# 6 0.0000 0.0000 0.0000 0.0000 0.0000 92.2799
#
#
#
# Elastic Compliance Matrix: (Units=1/GPa)
#
#
# Indices 1 2 3 4 5 6 
#
# 1 0.017511 -0.001131 -0.000532 0.000000 0.000000 0.000000
# 2 -0.001131 0.013480 -0.003105 0.000000 0.000000 0.000000
# 3 -0.000532 -0.003105 0.010413 0.000000 0.000000 0.000000
# 4 0.000000 0.000000 0.000000 0.026033 0.000000 0.000000
# 5 0.000000 0.000000 0.000000 0.000000 0.128060 0.000000
# 6 0.000000 0.000000 0.000000 0.000000 0.000000 0.010837
#
#
# Mechanical properties :
#
#
# Convention : Reuss Voigt Hill
#
# Bulk Modulus (GPa) = 31.37795 34.56852 32.97323
# Shear Modulus (GPa) = 22.07584 41.46907 31.77246
#
# Velocity S-wave (km/s) = 3.14297 4.30768 3.77057
# Velocity P-wave (km/s) = 5.21648 6.34112 5.80609
#
# Compressibility (1/GPa) = 0.03186952
#
# Stress axis : x y z
#
# Youngs Moduli (GPa) = 57.10618 74.18550 96.03038
#
# Poissons Ratio (x) = 0.08387 0.05106
# Poissons Ratio (y) = 0.06456 0.29819
# Poissons Ratio (z) = 0.03036 0.23036
#
# Static dielectric constant tensor:
#      x y z
#    x 1.827140 0.000000 0.000000 
#    y 0.000000 1.834050 0.000000 
#    z 0.000000 0.000000 1.828170 
# 
# From -- ./inp_files/14860.got.cif
#   From: 2010.05.17/outbox.cif.g08.bks.cpg/sg73_8_cif.got.tgz:14860.got - 2010.06.03 17:35:07.
