data_PCOD9532011
_publ_section_title
;
Structure prediction by ZEFSAII (Michael W. Deem and Ramdas Pophale) SiO2 
 PCOD9532011
Probable space group: I B C A 
;
_chemical_formula_sum "Si O2"
_cell_formula_units_Z 88
_cell_length_a 10.071336
_cell_length_b 12.788176
_cell_length_c 28.501521
_cell_angle_alpha 90.000000
_cell_angle_beta 90.000000
_cell_angle_gamma 90.000000
_cell_volume 3670.825389
_symmetry_space_group_name_H-M "I B C A "
_symmetry_group_IT_number 73
_symmetry_cell_setting 'orthorhombic'
loop_
_space_group_symop_operation_xyz
x,y,z
-x,1/2-y,z
x,-y,1/2-z
1/2-x,y,-z
-x,-y,-z
x,1/2+y,-z
-x,y,1/2+z
1/2+x,-y,z
1/2+x,1/2+y,1/2+z
1/2-x,-y,1/2+z
1/2+x,1/2-y,-z
-x,1/2+y,1/2-z
1/2-x,1/2-y,1/2-z
1/2+x,y,1/2-z
1/2-x,1/2+y,z
x,1/2-y,1/2+z
loop_
_atom_site_type_symbol
_atom_site_label
_atom_site_fract_x
_atom_site_fract_y
_atom_site_fract_z
Si Si1 0.613475 0.556999 0.438609
Si Si2 0.693024 0.195985 0.818340
Si Si3 0.000000 0.250000 0.109899
Si Si4 0.107625 0.395526 0.541980
Si Si5 0.023020 0.871482 0.156698
Si Si6 0.196930 0.597623 0.221771
O O1 0.530246 0.453794 0.449220
O O2 0.770740 0.534979 0.438433
O O3 0.609532 0.625829 0.486566
O O4 0.541816 0.607827 0.394131
O O5 0.576826 0.174917 0.854885
O O6 0.818825 0.126840 0.835861
O O7 0.725066 0.322061 0.813130
O O8 0.653051 0.167904 0.765761
O O9 0.109361 0.203353 0.075465
O O10 0.000000 0.750000 0.168814
O O11 0.933219 0.936847 0.192960
O O12 0.261316 0.500000 0.250000
#
# Coordination Sequence:
#
# PCOD9532011 Si02
#       6
#    16  16   8  16  16  16
#     4  10  23  46  69 100 143 179 238 287 350 436
#     4  10  25  42  63 100 142 172 236 296 343 418
#     4  12  26  44  68 102 140 186 230 296 346 424
#     4  10  24  44  69 104 138 184 232 294 351 418
#     4  10  22  40  65  96 129 179 224 282 347 413
#     4  10  23  42  66  93 130 183 227 284 346 417
#
# _framework density 23.972809999999999
#
# number of rings (size 3 to 8) (size 9 to 14) (size 15 to 20)
#    0.000    1.818    0.000    2.182   12.727    2.182 
#    0.000    0.000    0.000    0.000    0.000    0.000 
#    0.000    0.000    0.000    0.000    0.000    0.000 
#
# Total GULP energy -245214.229819 kJ/mol
# GULP energy per Si atom -5573.050678 kJ/mol
# Density = 2.391825 g / cm^3
# Si number density = 23.972810 Si / 1000 Ang^3
#
#
#
# Elastic Constant Matrix: (Units=GPa)
#
#
# Indices 1 2 3 4 5 6 
#
# 1 109.4803 -6.0034 51.6782 0.0000 0.0000 0.0000
# 2 -6.0034 39.0068 13.1666 0.0000 0.0000 0.0000
# 3 51.6782 13.1666 157.7488 0.0000 0.0000 0.0000
# 4 0.0000 0.0000 0.0000 27.2849 0.0000 0.0000
# 5 0.0000 0.0000 0.0000 0.0000 30.0407 0.0000
# 6 0.0000 0.0000 0.0000 0.0000 0.0000 18.0614
#
#
#
# Elastic Compliance Matrix: (Units=1/GPa)
#
#
# Indices 1 2 3 4 5 6 
#
# 1 0.011143 0.003033 -0.003904 0.000000 0.000000 0.000000
# 2 0.003033 0.027205 -0.003264 0.000000 0.000000 0.000000
# 3 -0.003904 -0.003264 0.007890 0.000000 0.000000 0.000000
# 4 0.000000 0.000000 0.000000 0.036650 0.000000 0.000000
# 5 0.000000 0.000000 0.000000 0.000000 0.033288 0.000000
# 6 0.000000 0.000000 0.000000 0.000000 0.000000 0.055367
#
#
# Mechanical properties :
#
#
# Convention : Reuss Voigt Hill
#
# Bulk Modulus (GPa) = 26.33777 47.10207 36.71992
# Shear Modulus (GPa) = 25.97808 31.57037 28.77423
#
# Velocity S-wave (km/s) = 3.29545 3.63288 3.46827
# Velocity P-wave (km/s) = 5.04880 6.10638 5.60260
#
# Compressibility (1/GPa) = 0.03796829
#
# Stress axis : x y z
#
# Youngs Moduli (GPa) = 89.74287 36.75782 126.73593
#
# Poissons Ratio (x) = -0.11147 0.49472
# Poissons Ratio (y) = -0.27215 0.41369
# Poissons Ratio (z) = 0.35031 0.11998
#
# Static dielectric constant tensor:
#      x y z
#    x 2.018160 0.000000 0.000000 
#    y 0.000000 1.996910 0.000000 
#    z 0.000000 0.000000 1.884370 
# 
# From -- ./inp_files/33959.got.cif
#   From: 2010.05.17/outbox.cif.g08.bks.cpg/sg73_17_cif.got.tgz:33959.got - 2010.06.03 17:35:07.
