data_PCOD9532629
_publ_section_title
;
Structure prediction by ZEFSAII (Michael W. Deem and Ramdas Pophale) SiO2 
 PCOD9532629
Probable space group: I B C A 
;
_chemical_formula_sum "Si O2"
_cell_formula_units_Z 104
_cell_length_a 8.554466
_cell_length_b 25.386135
_cell_length_c 22.881187
_cell_angle_alpha 90.000000
_cell_angle_beta 90.000000
_cell_angle_gamma 90.000000
_cell_volume 4968.989056
_symmetry_space_group_name_H-M "I B C A "
_symmetry_group_IT_number 73
_symmetry_cell_setting 'orthorhombic'
loop_
_space_group_symop_operation_xyz
x,y,z
-x,1/2-y,z
x,-y,1/2-z
1/2-x,y,-z
-x,-y,-z
x,1/2+y,-z
-x,y,1/2+z
1/2+x,-y,z
1/2+x,1/2+y,1/2+z
1/2-x,-y,1/2+z
1/2+x,1/2-y,-z
-x,1/2+y,1/2-z
1/2-x,1/2-y,1/2-z
1/2+x,y,1/2-z
1/2-x,1/2+y,z
x,1/2-y,1/2+z
loop_
_atom_site_type_symbol
_atom_site_label
_atom_site_fract_x
_atom_site_fract_y
_atom_site_fract_z
Si Si1 0.340532 0.388172 0.412048
Si Si2 0.217018 0.202148 0.831274
Si Si3 0.000000 0.250000 0.416808
Si Si4 0.567445 0.644390 0.984817
Si Si5 0.445222 0.962220 0.444458
Si Si6 0.500000 0.250000 0.761207
Si Si7 0.015347 0.960251 0.835639
Si Si8 0.740869 0.000000 0.250000
O O1 0.240130 0.350353 0.369727
O O2 0.434154 0.361748 0.465094
O O3 0.229471 0.435774 0.436503
O O4 0.482504 0.408989 0.372474
O O5 0.153597 0.245049 0.876965
O O6 0.375920 0.220065 0.801158
O O7 0.087790 0.206956 0.779889
O O8 0.982717 0.303046 0.452329
O O9 0.750000 0.649377 0.000000
O O10 0.551857 0.589640 0.949315
O O11 0.500000 0.000000 0.500000
O O12 0.467853 0.994524 0.384764
O O13 0.154814 0.962003 0.789773
O O14 0.864480 0.969398 0.795773
#
# Coordination Sequence:
#
# PCOD9532629 Si02
#       8
#    16  16   8  16  16   8  16   8
#     4  12  26  46  72 103 143 190 236 303 363 432
#     4  10  23  45  73 105 139 190 235 304 364 431
#     4  11  26  47  70 102 154 175 240 287 374 448
#     4  12  30  43  71 109 140 191 231 298 369 440
#     4  12  26  46  75 105 146 187 241 298 369 438
#     4   9  22  47  74 102 140 185 250 305 356 428
#     4  11  24  44  69  98 141 186 233 296 347 426
#     4  10  24  44  64  96 138 188 236 288 350 410
#
# _framework density 20.929811000000001
#
# number of rings (size 3 to 8) (size 9 to 14) (size 15 to 20)
#    0.000    0.923    4.615    0.462    8.615    1.231 
#    0.000    0.000    0.000    0.000    0.000    0.000 
#    0.000    0.000    0.000    0.000    0.000    0.000 
#
# Total GULP energy -290019.602807 kJ/mol
# GULP energy per Si atom -5577.300054 kJ/mol
# Density = 2.088217 g / cm^3
# Si number density = 20.929811 Si / 1000 Ang^3
#
#
#
# Elastic Constant Matrix: (Units=GPa)
#
#
# Indices 1 2 3 4 5 6 
#
# 1 124.6161 35.7323 65.5464 0.0000 0.0000 0.0000
# 2 35.7323 105.3105 67.3340 0.0000 0.0000 0.0000
# 3 65.5464 67.3340 146.1506 0.0000 0.0000 0.0000
# 4 0.0000 0.0000 0.0000 -103.3319 0.0000 0.0000
# 5 0.0000 0.0000 0.0000 0.0000 112.7582 0.0000
# 6 0.0000 0.0000 0.0000 0.0000 0.0000 63.9394
#
#
#
# Elastic Compliance Matrix: (Units=1/GPa)
#
#
# Indices 1 2 3 4 5 6 
#
# 1 0.010548 -0.000786 -0.004368 0.000000 0.000000 0.000000
# 2 -0.000786 0.013520 -0.005876 0.000000 0.000000 0.000000
# 3 -0.004368 -0.005876 0.011509 0.000000 0.000000 0.000000
# 4 0.000000 0.000000 0.000000 -0.009678 0.000000 0.000000
# 5 0.000000 0.000000 0.000000 0.000000 0.008869 0.000000
# 6 0.000000 0.000000 0.000000 0.000000 0.000000 0.015640
#
#
# Mechanical properties :
#
#
# Convention : Reuss Voigt Hill
#
# Bulk Modulus (GPa) = 73.99192 79.25585 76.62388
# Shear Modulus (GPa) = 64.95797 28.50410 46.73103
#
# Velocity S-wave (km/s) = 5.57705 3.69438 4.73032
# Velocity P-wave (km/s) = 8.76929 7.49317 8.15623
#
# Compressibility (1/GPa) = 0.01351499
#
# Stress axis : x y z
#
# Youngs Moduli (GPa) = 94.80731 73.96698 86.89029
#
# Poissons Ratio (x) = 0.05812 0.37958
# Poissons Ratio (y) = 0.07449 0.51059
# Poissons Ratio (z) = 0.41416 0.43465
#
# Static dielectric constant tensor:
#      x y z
#    x 1.816380 0.000000 0.000000 
#    y 0.000000 1.718550 0.000000 
#    z 0.000000 0.000000 1.741330 
# 
# From -- ./inp_files/25008.got.cif
#   From: 2010.05.17/outbox.cif.g08.bks.cpg/sg73_13_cif.got.tgz:25008.got - 2010.06.03 17:35:07.
