data_PCOD9532021
_publ_section_title
;
Structure prediction by ZEFSAII (Michael W. Deem and Ramdas Pophale) SiO2 
 PCOD9532021
Probable space group: I B C A 
;
_chemical_formula_sum "Si O2"
_cell_formula_units_Z 72
_cell_length_a 18.399166
_cell_length_b 15.676934
_cell_length_c 10.492470
_cell_angle_alpha 90.000000
_cell_angle_beta 90.000000
_cell_angle_gamma 90.000000
_cell_volume 3026.474394
_symmetry_space_group_name_H-M "I B C A "
_symmetry_group_IT_number 73
_symmetry_cell_setting 'orthorhombic'
loop_
_space_group_symop_operation_xyz
x,y,z
-x,1/2-y,z
x,-y,1/2-z
1/2-x,y,-z
-x,-y,-z
x,1/2+y,-z
-x,y,1/2+z
1/2+x,-y,z
1/2+x,1/2+y,1/2+z
1/2-x,-y,1/2+z
1/2+x,1/2-y,-z
-x,1/2+y,1/2-z
1/2-x,1/2-y,1/2-z
1/2+x,y,1/2-z
1/2-x,1/2+y,z
x,1/2-y,1/2+z
loop_
_atom_site_type_symbol
_atom_site_label
_atom_site_fract_x
_atom_site_fract_y
_atom_site_fract_z
Si Si1 0.750000 0.808647 0.000000
Si Si2 0.657213 0.671946 0.089440
Si Si3 0.972552 0.444831 0.618500
Si Si4 0.065356 0.302263 0.753349
Si Si5 0.793347 0.899450 0.738418
O O1 0.680186 0.745965 0.989870
O O2 0.731863 0.862311 0.124667
O O3 0.604097 0.592986 0.072791
O O4 0.614554 0.728061 0.194065
O O5 0.731552 0.633474 0.143737
O O6 0.966846 0.500000 0.750000
O O7 0.000000 0.500000 0.500000
O O8 0.023667 0.363287 0.651449
O O9 0.126912 0.366896 0.803150
O O10 0.000000 0.250000 0.824777
O O11 0.794826 0.000000 0.750000
#
# Coordination Sequence:
#
# PCOD9532021 Si02
#       5
#     8  16  16  16  16
#     4  10  22  40  66  94 136 186 228 286 370 436
#     4  10  23  42  66 101 136 180 235 293 353 436
#     4  11  25  44  68 102 144 189 241 301 362 424
#     4   9  20  41  64  92 133 184 231 282 355 435
#     4  11  23  40  66 102 135 173 234 300 353 419
#
# _framework density 23.790058999999999
#
# number of rings (size 3 to 8) (size 9 to 14) (size 15 to 20)
#    0.000    1.778    0.000    4.000    0.000   13.333 
#    0.000    7.778    0.000    0.000    0.000    0.000 
#    0.000    0.000    0.000    0.000    0.000    0.000 
#
# Total GULP energy -200901.246249 kJ/mol
# GULP energy per Si atom -5580.590174 kJ/mol
# Density = 2.373591 g / cm^3
# Si number density = 23.790059 Si / 1000 Ang^3
#
#
#
# Elastic Constant Matrix: (Units=GPa)
#
#
# Indices 1 2 3 4 5 6 
#
# 1 186.2852 79.0394 43.3367 0.0000 0.0000 0.0000
# 2 79.0394 173.4723 68.0659 0.0000 0.0000 0.0000
# 3 43.3367 68.0659 135.1943 0.0000 0.0000 0.0000
# 4 0.0000 0.0000 0.0000 37.4495 0.0000 0.0000
# 5 0.0000 0.0000 0.0000 0.0000 11.3529 0.0000
# 6 0.0000 0.0000 0.0000 0.0000 0.0000 57.8462
#
#
#
# Elastic Compliance Matrix: (Units=1/GPa)
#
#
# Indices 1 2 3 4 5 6 
#
# 1 0.006717 -0.002761 -0.000763 0.000000 0.000000 0.000000
# 2 -0.002761 0.008319 -0.003303 0.000000 0.000000 0.000000
# 3 -0.000763 -0.003303 0.009304 0.000000 0.000000 0.000000
# 4 0.000000 0.000000 0.000000 0.026703 0.000000 0.000000
# 5 0.000000 0.000000 0.000000 0.000000 0.088083 0.000000
# 6 0.000000 0.000000 0.000000 0.000000 0.000000 0.017287
#
#
# Mechanical properties :
#
#
# Convention : Reuss Voigt Hill
#
# Bulk Modulus (GPa) = 93.58361 97.31510 95.44935
# Shear Modulus (GPa) = 28.79696 41.63039 35.21368
#
# Velocity S-wave (km/s) = 3.48294 4.18773 3.85149
# Velocity P-wave (km/s) = 7.45635 8.02355 7.74514
#
# Compressibility (1/GPa) = 0.01068563
#
# Stress axis : x y z
#
# Youngs Moduli (GPa) = 148.87246 120.21070 107.47639
#
# Poissons Ratio (x) = 0.33192 0.08201
# Poissons Ratio (y) = 0.41106 0.35501
# Poissons Ratio (z) = 0.11360 0.39707
#
# Static dielectric constant tensor:
#      x y z
#    x 1.868530 0.000000 0.000000 
#    y 0.000000 1.876030 0.000000 
#    z 0.000000 0.000000 1.968640 
# 
# From -- ./inp_files/11655.got.cif
#   From: 2010.05.17/outbox.cif.g08.bks.cpg/sg73_6_cif.got.tgz:11655.got - 2010.06.03 17:35:07.
