data_PCOD9532342
_publ_section_title
;
Structure prediction by ZEFSAII (Michael W. Deem and Ramdas Pophale) SiO2 
 PCOD9532342
Probable space group: I B C A 
;
_chemical_formula_sum "Si O2"
_cell_formula_units_Z 112
_cell_length_a 31.526154
_cell_length_b 13.236565
_cell_length_c 12.301002
_cell_angle_alpha 90.000000
_cell_angle_beta 90.000000
_cell_angle_gamma 90.000000
_cell_volume 5133.183368
_symmetry_space_group_name_H-M "I B C A "
_symmetry_group_IT_number 73
_symmetry_cell_setting 'orthorhombic'
loop_
_space_group_symop_operation_xyz
x,y,z
-x,1/2-y,z
x,-y,1/2-z
1/2-x,y,-z
-x,-y,-z
x,1/2+y,-z
-x,y,1/2+z
1/2+x,-y,z
1/2+x,1/2+y,1/2+z
1/2-x,-y,1/2+z
1/2+x,1/2-y,-z
-x,1/2+y,1/2-z
1/2-x,1/2-y,1/2-z
1/2+x,y,1/2-z
1/2-x,1/2+y,z
x,1/2-y,1/2+z
loop_
_atom_site_type_symbol
_atom_site_label
_atom_site_fract_x
_atom_site_fract_y
_atom_site_fract_z
Si Si1 0.594744 0.717506 0.798070
Si Si2 0.812624 0.252991 0.721648
Si Si3 0.178163 0.462708 0.129916
Si Si4 0.046241 0.613074 0.295985
Si Si5 0.546649 0.422160 0.851369
Si Si6 0.251655 0.628029 0.877454
Si Si7 0.402758 0.063332 0.500396
O O1 0.641876 0.752301 0.775983
O O2 0.560519 0.808379 0.797184
O O3 0.580999 0.656378 0.690533
O O4 0.596637 0.644804 0.902326
O O5 0.813732 0.342750 0.632770
O O6 0.781355 0.295751 0.812490
O O7 0.794407 0.147169 0.676314
O O8 0.161772 0.500000 0.250000
O O9 0.222999 0.521884 0.121109
O O10 0.143016 0.481478 0.036490
O O11 0.047713 0.500000 0.250000
O O12 0.080069 0.616688 0.392510
O O13 0.999897 0.626859 0.349799
O O14 0.544525 0.500000 0.750000
O O15 0.563858 0.478424 0.957786
O O16 0.250000 0.661796 0.000000
#
# Coordination Sequence:
#
# PCOD9532342 Si02
#       7
#    16  16  16  16  16  16  16
#     4  11  24  42  68 100 138 179 229 287 341 405
#     4  10  23  44  64  98 138 169 228 280 349 408
#     4  10  22  45  68  98 138 176 232 282 353 414
#     4  11  23  43  70  98 142 187 226 286 342 408
#     4   9  22  43  64 100 141 176 226 280 335 400
#     4  10  24  42  68  96 128 179 221 284 343 415
#     4  11  23  41  70 103 132 182 234 283 345 415
#
# _framework density 21.818819999999999
#
# number of rings (size 3 to 8) (size 9 to 14) (size 15 to 20)
#    0.000    1.714    1.429    1.286    6.000    1.714 
#    7.714    4.286    0.000    0.000    0.000    0.000 
#    0.000    0.000    0.000    0.000    0.000    0.000 
#
# Total GULP energy -312286.966506 kJ/mol
# GULP energy per Si atom -5576.552973 kJ/mol
# Density = 2.176916 g / cm^3
# Si number density = 21.818820 Si / 1000 Ang^3
#
#
#
# Elastic Constant Matrix: (Units=GPa)
#
#
# Indices 1 2 3 4 5 6 
#
# 1 92.2626 35.8135 21.3247 0.0000 0.0000 0.0000
# 2 35.8135 77.2942 15.0148 0.0000 0.0000 0.0000
# 3 21.3247 15.0148 57.8442 0.0000 0.0000 0.0000
# 4 0.0000 0.0000 0.0000 -50.0053 0.0000 0.0000
# 5 0.0000 0.0000 0.0000 0.0000 14.2814 0.0000
# 6 0.0000 0.0000 0.0000 0.0000 0.0000 -852.4702
#
#
#
# Elastic Compliance Matrix: (Units=1/GPa)
#
#
# Indices 1 2 3 4 5 6 
#
# 1 0.013906 -0.005737 -0.003638 0.000000 0.000000 0.000000
# 2 -0.005737 0.015991 -0.002036 0.000000 0.000000 0.000000
# 3 -0.003638 -0.002036 0.019157 0.000000 0.000000 0.000000
# 4 0.000000 0.000000 0.000000 -0.019998 0.000000 0.000000
# 5 0.000000 0.000000 0.000000 0.000000 0.070021 0.000000
# 6 0.000000 0.000000 0.000000 0.000000 0.000000 -0.001173
#
#
# Mechanical properties :
#
#
# Convention : Reuss Voigt Hill
#
# Bulk Modulus (GPa) = 38.11819 41.30077 39.70948
# Shear Modulus (GPa) = 38.61900 -167.28893 -64.33497
#
# Velocity S-wave (km/s) = 4.21168 -8.76575 -5.43599
# Velocity P-wave (km/s) = 6.41555 9.13679 4.60009
#
# Compressibility (1/GPa) = 0.02623420
#
# Stress axis : x y z
#
# Youngs Moduli (GPa) = 71.91052 62.53477 52.19944
#
# Poissons Ratio (x) = 0.35874 0.18988
# Poissons Ratio (y) = 0.41253 0.10628
# Poissons Ratio (z) = 0.26158 0.12732
#
# Static dielectric constant tensor:
#      x y z
#    x 1.879520 0.000000 0.000000 
#    y 0.000000 1.904070 0.000000 
#    z 0.000000 0.000000 1.834480 
# 
# From -- ./inp_files/14799.got.cif
#   From: 2010.05.17/outbox.cif.g08.bks.cpg/sg73_8_cif.got.tgz:14799.got - 2010.06.03 17:35:07.
