data_PCOD9532702
_publ_section_title
;
Structure prediction by ZEFSAII (Michael W. Deem and Ramdas Pophale) SiO2 
 PCOD9532702
Probable space group: I B C A 
;
_chemical_formula_sum "Si O2"
_cell_formula_units_Z 88
_cell_length_a 14.491010
_cell_length_b 13.209438
_cell_length_c 23.779275
_cell_angle_alpha 90.000000
_cell_angle_beta 90.000000
_cell_angle_gamma 90.000000
_cell_volume 4551.783596
_symmetry_space_group_name_H-M "I B C A "
_symmetry_group_IT_number 73
_symmetry_cell_setting 'orthorhombic'
loop_
_space_group_symop_operation_xyz
x,y,z
-x,1/2-y,z
x,-y,1/2-z
1/2-x,y,-z
-x,-y,-z
x,1/2+y,-z
-x,y,1/2+z
1/2+x,-y,z
1/2+x,1/2+y,1/2+z
1/2-x,-y,1/2+z
1/2+x,1/2-y,-z
-x,1/2+y,1/2-z
1/2-x,1/2-y,1/2-z
1/2+x,y,1/2-z
1/2-x,1/2+y,z
x,1/2-y,1/2+z
loop_
_atom_site_type_symbol
_atom_site_label
_atom_site_fract_x
_atom_site_fract_y
_atom_site_fract_z
Si Si1 0.831512 0.879021 0.114925
Si Si2 0.585316 0.075947 0.013459
Si Si3 0.500000 0.750000 0.673974
Si Si4 0.750000 0.932526 0.000000
Si Si5 0.200107 0.268464 0.691991
Si Si6 0.124264 0.612175 0.389387
Si Si7 0.000000 0.750000 0.592454
O O1 0.797494 0.869855 0.050003
O O2 0.749089 0.856944 0.157626
O O3 0.916723 0.803799 0.125390
O O4 0.864478 0.994029 0.120297
O O5 0.547547 0.161067 0.055260
O O6 0.672175 0.004227 0.029132
O O7 0.620854 0.128473 0.955949
O O8 0.500000 0.000000 0.000000
O O9 0.592013 0.719049 0.705715
O O10 0.470809 0.656311 0.634914
O O11 0.250000 0.250000 0.750000
O O12 0.198561 0.175682 0.646639
#
# Coordination Sequence:
#
# PCOD9532702 Si02
#       7
#    16  16   8   8  16  16   8
#     4  11  25  40  65 102 138 176 221 286 338 408
#     4  11  22  39  61  97 137 173 223 272 333 419
#     4   8  21  41  74  88 126 178 218 278 340 408
#     4  10  24  38  62  94 138 174 218 264 352 412
#     4  10  24  44  71  95 128 176 238 280 336 405
#     4   9  21  43  63  97 130 173 222 273 338 410
#     4  12  25  37  64  98 140 178 222 284 330 416
#
# _framework density 19.333079999999999
#
# number of rings (size 3 to 8) (size 9 to 14) (size 15 to 20)
#    1.091    0.727    3.636    0.545   10.182    1.455 
#    0.000    0.000    4.000    0.000    0.000    0.000 
#    0.000    0.000    0.000    0.000    0.000    0.000 
#
# Total GULP energy -245065.329590 kJ/mol
# GULP energy per Si atom -5569.666582 kJ/mol
# Density = 1.928908 g / cm^3
# Si number density = 19.333080 Si / 1000 Ang^3
#
#
#
# Elastic Constant Matrix: (Units=GPa)
#
#
# Indices 1 2 3 4 5 6 
#
# 1 111.0528 16.4435 16.4685 0.0000 0.0000 0.0000
# 2 16.4435 42.3140 -1.4959 0.0000 0.0000 0.0000
# 3 16.4685 -1.4959 59.5246 0.0000 0.0000 0.0000
# 4 0.0000 0.0000 0.0000 -0.2804 0.0000 0.0000
# 5 0.0000 0.0000 0.0000 0.0000 9.5262 0.0000
# 6 0.0000 0.0000 0.0000 0.0000 0.0000 43.9691
#
#
#
# Elastic Compliance Matrix: (Units=1/GPa)
#
#
# Indices 1 2 3 4 5 6 
#
# 1 0.010023 -0.003996 -0.002873 0.000000 0.000000 0.000000
# 2 -0.003996 0.025247 0.001740 0.000000 0.000000 0.000000
# 3 -0.002873 0.001740 0.017638 0.000000 0.000000 0.000000
# 4 0.000000 0.000000 0.000000 -3.566199 0.000000 0.000000
# 5 0.000000 0.000000 0.000000 0.000000 0.104974 0.000000
# 6 0.000000 0.000000 0.000000 0.000000 0.000000 0.022743
#
#
# Mechanical properties :
#
#
# Convention : Reuss Voigt Hill
#
# Bulk Modulus (GPa) = 23.44710 30.63596 27.04153
# Shear Modulus (GPa) = -1.48761 22.74132 10.62686
#
# Velocity S-wave (km/s) = -0.87814 3.43343 2.34705
# Velocity P-wave (km/s) = 3.33558 5.62127 4.62195
#
# Compressibility (1/GPa) = 0.04264921
#
# Stress axis : x y z
#
# Youngs Moduli (GPa) = 99.77480 39.60805 56.69427
#
# Poissons Ratio (x) = 0.15829 0.16290
# Poissons Ratio (y) = 0.39874 -0.09866
# Poissons Ratio (z) = 0.28669 -0.06892
#
# Static dielectric constant tensor:
#      x y z
#    x 1.874310 0.000000 0.000000 
#    y 0.000000 1.674890 0.000000 
#    z 0.000000 0.000000 1.664490 
# 
# From -- ./inp_files/29475.got.cif
#   From: 2010.05.17/outbox.cif.g08.bks.cpg/sg73_15_cif.got.tgz:29475.got - 2010.06.03 17:35:07.
