data_PCOD9532190
_publ_section_title
;
Structure prediction by ZEFSAII (Michael W. Deem and Ramdas Pophale) SiO2 
 PCOD9532190
Probable space group: I B C A 
;
_chemical_formula_sum "Si O2"
_cell_formula_units_Z 96
_cell_length_a 23.044151
_cell_length_b 13.197729
_cell_length_c 14.134667
_cell_angle_alpha 90.000000
_cell_angle_beta 90.000000
_cell_angle_gamma 90.000000
_cell_volume 4298.782776
_symmetry_space_group_name_H-M "I B C A "
_symmetry_group_IT_number 73
_symmetry_cell_setting 'orthorhombic'
loop_
_space_group_symop_operation_xyz
x,y,z
-x,1/2-y,z
x,-y,1/2-z
1/2-x,y,-z
-x,-y,-z
x,1/2+y,-z
-x,y,1/2+z
1/2+x,-y,z
1/2+x,1/2+y,1/2+z
1/2-x,-y,1/2+z
1/2+x,1/2-y,-z
-x,1/2+y,1/2-z
1/2-x,1/2-y,1/2-z
1/2+x,y,1/2-z
1/2-x,1/2+y,z
x,1/2-y,1/2+z
loop_
_atom_site_type_symbol
_atom_site_label
_atom_site_fract_x
_atom_site_fract_y
_atom_site_fract_z
Si Si1 0.381189 0.986182 0.142717
Si Si2 0.500000 0.250000 0.551034
Si Si3 0.178361 0.311089 0.828371
Si Si4 0.491224 0.024597 0.610017
Si Si5 0.890412 0.000000 0.750000
Si Si6 0.121446 0.815416 0.513189
Si Si7 0.190727 0.293877 0.132139
O O1 0.450431 0.976891 0.152538
O O2 0.373493 0.078369 0.068789
O O3 0.357852 0.000000 0.250000
O O4 0.349710 0.887362 0.103864
O O5 0.444545 0.284044 0.488766
O O6 0.489789 0.148185 0.613880
O O7 0.151126 0.410550 0.783513
O O8 0.137086 0.266608 0.907289
O O9 0.241696 0.320594 0.875574
O O10 0.182392 0.232113 0.742170
O O11 0.434596 0.981296 0.662021
O O12 0.500000 0.000000 0.500000
O O13 0.167496 0.800240 0.429659
#
# Coordination Sequence:
#
# PCOD9532190 Si02
#       7
#    16   8  16  16   8  16  16
#     4  11  23  43  74 101 139 189 241 308 368 437
#     4  10  22  42  70 102 148 176 232 302 354 450
#     4  11  26  45  69 101 146 188 239 304 361 442
#     4  11  24  44  68 104 142 181 239 296 370 453
#     4  12  26  44  68 106 148 188 240 306 372 440
#     4  11  23  45  70 105 143 190 239 300 371 439
#     4  11  26  46  71 102 140 191 248 296 368 447
#
# _framework density 22.331903000000001
#
# number of rings (size 3 to 8) (size 9 to 14) (size 15 to 20)
#    0.000    1.000    4.167    1.500    5.833    0.000 
#    0.000    1.667    0.000    0.000    0.000    0.000 
#    0.000    0.000    0.000    0.000    0.000    0.000 
#
# Total GULP energy -268164.333295 kJ/mol
# GULP energy per Si atom -5586.756944 kJ/mol
# Density = 2.228107 g / cm^3
# Si number density = 22.331903 Si / 1000 Ang^3
#
#
#
# Elastic Constant Matrix: (Units=GPa)
#
#
# Indices 1 2 3 4 5 6 
#
# 1 150.9507 66.1568 30.9715 0.0000 0.0000 0.0000
# 2 66.1568 80.9318 9.4892 0.0000 0.0000 0.0000
# 3 30.9715 9.4892 88.9924 0.0000 0.0000 0.0000
# 4 0.0000 0.0000 0.0000 31.6041 0.0000 0.0000
# 5 0.0000 0.0000 0.0000 0.0000 36.2554 0.0000
# 6 0.0000 0.0000 0.0000 0.0000 0.0000 30.5732
#
#
#
# Elastic Compliance Matrix: (Units=1/GPa)
#
#
# Indices 1 2 3 4 5 6 
#
# 1 0.011021 -0.008667 -0.002911 0.000000 0.000000 0.000000
# 2 -0.008667 0.019329 0.000955 0.000000 0.000000 0.000000
# 3 -0.002911 0.000955 0.012148 0.000000 0.000000 0.000000
# 4 0.000000 0.000000 0.000000 0.031641 0.000000 0.000000
# 5 0.000000 0.000000 0.000000 0.000000 0.027582 0.000000
# 6 0.000000 0.000000 0.000000 0.000000 0.000000 0.032708
#
#
# Mechanical properties :
#
#
# Convention : Reuss Voigt Hill
#
# Bulk Modulus (GPa) = 47.05539 59.34554 53.20047
# Shear Modulus (GPa) = 30.72005 33.97036 32.34521
#
# Velocity S-wave (km/s) = 3.71295 3.90443 3.80989
# Velocity P-wave (km/s) = 6.28474 6.85260 6.57481
#
# Compressibility (1/GPa) = 0.02125155
#
# Stress axis : x y z
#
# Youngs Moduli (GPa) = 90.73904 51.73549 82.31653
#
# Poissons Ratio (x) = 0.44841 0.23964
# Poissons Ratio (y) = 0.78647 -0.07864
# Poissons Ratio (z) = 0.26416 -0.04943
#
# Static dielectric constant tensor:
#      x y z
#    x 1.868740 0.000000 0.000000 
#    y 0.000000 2.068930 0.000000 
#    z 0.000000 0.000000 1.890980 
# 
# From -- ./inp_files/18694.got.cif
#   From: 2010.05.17/outbox.cif.g08.bks.cpg/sg73_10_cif.got.tgz:18694.got - 2010.06.03 17:35:07.
