data_PCOD9532962
_publ_section_title
;
Structure prediction by ZEFSAII (Michael W. Deem and Ramdas Pophale) SiO2 
 PCOD9532962
Probable space group: I B C A 
;
_chemical_formula_sum "Si O2"
_cell_formula_units_Z 96
_cell_length_a 17.281613
_cell_length_b 9.274354
_cell_length_c 23.912127
_cell_angle_alpha 90.000000
_cell_angle_beta 90.000000
_cell_angle_gamma 90.000000
_cell_volume 3832.535205
_symmetry_space_group_name_H-M "I B C A "
_symmetry_group_IT_number 73
_symmetry_cell_setting 'orthorhombic'
loop_
_space_group_symop_operation_xyz
x,y,z
-x,1/2-y,z
x,-y,1/2-z
1/2-x,y,-z
-x,-y,-z
x,1/2+y,-z
-x,y,1/2+z
1/2+x,-y,z
1/2+x,1/2+y,1/2+z
1/2-x,-y,1/2+z
1/2+x,1/2-y,-z
-x,1/2+y,1/2-z
1/2-x,1/2-y,1/2-z
1/2+x,y,1/2-z
1/2-x,1/2+y,z
x,1/2-y,1/2+z
loop_
_atom_site_type_symbol
_atom_site_label
_atom_site_fract_x
_atom_site_fract_y
_atom_site_fract_z
Si Si1 0.417375 0.666376 0.457293
Si Si2 0.370855 0.000000 0.750000
Si Si3 0.081908 0.038783 0.685230
Si Si4 0.795081 0.706524 0.340783
Si Si5 0.500000 0.250000 0.880894
Si Si6 0.117679 0.223088 0.334451
Si Si7 0.636678 0.146533 0.455384
O O1 0.500000 0.750000 0.463846
O O2 0.401158 0.647912 0.392012
O O3 0.402190 0.502310 0.476195
O O4 0.352027 0.760795 0.488845
O O5 0.321736 0.080802 0.798318
O O6 0.413466 0.130785 0.717760
O O7 0.149553 0.154412 0.670853
O O8 0.006755 0.115660 0.660284
O O9 0.083487 0.000000 0.750000
O O10 0.088300 0.884600 0.656939
O O11 0.709190 0.756532 0.326333
O O12 0.800301 0.646559 0.405119
O O13 0.428825 0.234794 0.921830
#
# Coordination Sequence:
#
# PCOD9532962 Si02
#       7
#    16   8  16  16   8  16  16
#     4  12  26  46  74 101 140 192 242 292 367 431
#     4  12  22  46  70 104 152 184 240 284 366 438
#     4  11  24  44  69 103 142 192 236 295 363 429
#     4  11  25  44  72 106 150 183 240 298 365 428
#     4  10  24  48  70  98 144 184 246 302 356 430
#     4  12  26  43  72 108 142 195 238 301 362 438
#     4  11  25  47  71 103 138 187 239 306 356 434
#
# _framework density 25.048691999999999
#
# number of rings (size 3 to 8) (size 9 to 14) (size 15 to 20)
#    0.000    0.667    4.167    3.000    7.000    0.667 
#   10.500    1.667    0.000    0.000    0.000    0.000 
#    0.000    0.000    0.000    0.000    0.000    0.000 
#
# Total GULP energy -268417.201897 kJ/mol
# GULP energy per Si atom -5592.025040 kJ/mol
# Density = 2.499168 g / cm^3
# Si number density = 25.048692 Si / 1000 Ang^3
#
#
#
# Elastic Constant Matrix: (Units=GPa)
#
#
# Indices 1 2 3 4 5 6 
#
# 1 46.3965 4.4316 19.9076 0.0000 0.0000 0.0000
# 2 4.4316 141.0385 51.9648 0.0000 0.0000 0.0000
# 3 19.9076 51.9648 97.5499 0.0000 0.0000 0.0000
# 4 0.0000 0.0000 0.0000 49.0600 0.0000 0.0000
# 5 0.0000 0.0000 0.0000 0.0000 21.5890 0.0000
# 6 0.0000 0.0000 0.0000 0.0000 0.0000 25.9899
#
#
#
# Elastic Compliance Matrix: (Units=1/GPa)
#
#
# Indices 1 2 3 4 5 6 
#
# 1 0.023811 0.001297 -0.005550 0.000000 0.000000 0.000000
# 2 0.001297 0.008892 -0.005002 0.000000 0.000000 0.000000
# 3 -0.005550 -0.005002 0.014048 0.000000 0.000000 0.000000
# 4 0.000000 0.000000 0.000000 0.020383 0.000000 0.000000
# 5 0.000000 0.000000 0.000000 0.000000 0.046320 0.000000
# 6 0.000000 0.000000 0.000000 0.000000 0.000000 0.038476
#
#
# Mechanical properties :
#
#
# Convention : Reuss Voigt Hill
#
# Bulk Modulus (GPa) = 35.40877 48.62143 42.01510
# Shear Modulus (GPa) = 27.80029 33.23986 30.52007
#
# Velocity S-wave (km/s) = 3.33506 3.64677 3.49439
# Velocity P-wave (km/s) = 5.38487 6.09793 5.75246
#
# Compressibility (1/GPa) = 0.02824159
#
# Stress axis : x y z
#
# Youngs Moduli (GPa) = 41.99771 112.45668 71.18400
#
# Poissons Ratio (x) = -0.14582 0.39507
# Poissons Ratio (y) = -0.05446 0.35603
# Poissons Ratio (z) = 0.23309 0.56246
#
# Static dielectric constant tensor:
#      x y z
#    x 2.063820 0.000000 0.000000 
#    y 0.000000 1.066580 0.000000 
#    z 0.000000 0.000000 2.029550 
# 
# From -- ./inp_files/30319.got.cif
#   From: 2010.05.17/outbox.cif.g08.bks.cpg/sg73_16_cif.got.tgz:30319.got - 2010.06.03 17:35:07.
