data_PCOD9532614
_publ_section_title
;
Structure prediction by ZEFSAII (Michael W. Deem and Ramdas Pophale) SiO2 
 PCOD9532614
Probable space group: I B C A 
;
_chemical_formula_sum "Si O2"
_cell_formula_units_Z 104
_cell_length_a 22.943505
_cell_length_b 7.614227
_cell_length_c 27.937519
_cell_angle_alpha 90.000000
_cell_angle_beta 90.000000
_cell_angle_gamma 90.000000
_cell_volume 4880.602300
_symmetry_space_group_name_H-M "I B C A "
_symmetry_group_IT_number 73
_symmetry_cell_setting 'orthorhombic'
loop_
_space_group_symop_operation_xyz
x,y,z
-x,1/2-y,z
x,-y,1/2-z
1/2-x,y,-z
-x,-y,-z
x,1/2+y,-z
-x,y,1/2+z
1/2+x,-y,z
1/2+x,1/2+y,1/2+z
1/2-x,-y,1/2+z
1/2+x,1/2-y,-z
-x,1/2+y,1/2-z
1/2-x,1/2-y,1/2-z
1/2+x,y,1/2-z
1/2-x,1/2+y,z
x,1/2-y,1/2+z
loop_
_atom_site_type_symbol
_atom_site_label
_atom_site_fract_x
_atom_site_fract_y
_atom_site_fract_z
Si Si1 0.340031 0.000000 0.250000
Si Si2 0.434910 0.791900 0.756793
Si Si3 0.333803 0.033617 0.874684
Si Si4 0.434506 0.229682 0.630757
Si Si5 0.687063 0.439432 0.523197
Si Si6 0.656047 0.071718 0.569123
Si Si7 0.279970 0.606914 0.655247
O O1 0.383031 0.165143 0.259870
O O2 0.299440 0.001071 0.297384
O O3 0.500000 0.750000 0.736606
O O4 0.436716 0.740468 0.812695
O O5 0.423494 0.000000 0.750000
O O6 0.313578 0.207907 0.847343
O O7 0.398891 0.954646 0.872840
O O8 0.322681 0.064006 0.931299
O O9 0.290057 0.888103 0.851299
O O10 0.500000 0.250000 0.612663
O O11 0.397796 0.371720 0.601576
O O12 0.750000 0.462952 0.500000
O O13 0.681445 0.249523 0.546555
O O14 0.643774 0.459039 0.478333
O O15 0.700381 0.986654 0.606224
#
# Coordination Sequence:
#
# PCOD9532614 Si02
#       7
#     8  16  16  16  16  16  16
#     4  12  26  44  68 104 138 194 230 286 354 416
#     4  11  22  42  70 101 135 183 247 291 334 408
#     4  11  24  43  66  99 137 178 222 284 346 416
#     4  10  23  45  68  94 135 182 225 288 342 400
#     4  11  21  35  67 100 125 172 221 277 346 404
#     4  11  22  39  63  99 135 168 225 280 339 406
#     4  12  25  43  65 101 143 174 226 280 351 413
#
# _framework density 21.308845000000002
#
# number of rings (size 3 to 8) (size 9 to 14) (size 15 to 20)
#    0.000    0.923    3.846    4.154    0.000    0.615 
#    1.385    3.846    0.000    0.000    0.000    0.000 
#    0.000    0.000    0.000    0.000    0.000    0.000 
#
# Total GULP energy -290192.048074 kJ/mol
# GULP energy per Si atom -5580.616309 kJ/mol
# Density = 2.126035 g / cm^3
# Si number density = 21.308845 Si / 1000 Ang^3
#
#
#
# Elastic Constant Matrix: (Units=GPa)
#
#
# Indices 1 2 3 4 5 6 
#
# 1 102.7066 24.0764 34.9197 0.0000 0.0000 0.0000
# 2 24.0764 95.6138 14.5933 0.0000 0.0000 0.0000
# 3 34.9197 14.5933 111.9301 0.0000 0.0000 0.0000
# 4 0.0000 0.0000 0.0000 29.1054 0.0000 0.0000
# 5 0.0000 0.0000 0.0000 0.0000 25.7880 0.0000
# 6 0.0000 0.0000 0.0000 0.0000 0.0000 14.7357
#
#
#
# Elastic Compliance Matrix: (Units=1/GPa)
#
#
# Indices 1 2 3 4 5 6 
#
# 1 0.011397 -0.002374 -0.003246 0.000000 0.000000 0.000000
# 2 -0.002374 0.011166 -0.000715 0.000000 0.000000 0.000000
# 3 -0.003246 -0.000715 0.010040 0.000000 0.000000 0.000000
# 4 0.000000 0.000000 0.000000 0.034358 0.000000 0.000000
# 5 0.000000 0.000000 0.000000 0.000000 0.038778 0.000000
# 6 0.000000 0.000000 0.000000 0.000000 0.000000 0.067862
#
#
# Mechanical properties :
#
#
# Convention : Reuss Voigt Hill
#
# Bulk Modulus (GPa) = 50.17109 50.82548 50.49828
# Shear Modulus (GPa) = 25.91814 29.70323 27.81069
#
# Velocity S-wave (km/s) = 3.49135 3.73760 3.61657
# Velocity P-wave (km/s) = 6.31257 6.52149 6.41788
#
# Compressibility (1/GPa) = 0.01993180
#
# Stress axis : x y z
#
# Youngs Moduli (GPa) = 87.74492 89.55949 99.60129
#
# Poissons Ratio (x) = 0.21265 0.32330
# Poissons Ratio (y) = 0.20834 0.07122
# Poissons Ratio (z) = 0.28481 0.06404
#
# Static dielectric constant tensor:
#      x y z
#    x 1.829800 0.000000 0.000000 
#    y 0.000000 1.865760 0.000000 
#    z 0.000000 0.000000 1.800510 
# 
# From -- ./inp_files/34670.got.cif
#   From: 2010.05.17/outbox.cif.g08.bks.cpg/sg73_18_cif.got.tgz:34670.got - 2010.06.03 17:35:07.
