data_PCOD9532158
_publ_section_title
;
Structure prediction by ZEFSAII (Michael W. Deem and Ramdas Pophale) SiO2 
 PCOD9532158
Probable space group: I B C A 
;
_chemical_formula_sum "Si O2"
_cell_formula_units_Z 72
_cell_length_a 9.392147
_cell_length_b 25.721501
_cell_length_c 12.226235
_cell_angle_alpha 90.000000
_cell_angle_beta 90.000000
_cell_angle_gamma 90.000000
_cell_volume 2953.615300
_symmetry_space_group_name_H-M "I B C A "
_symmetry_group_IT_number 73
_symmetry_cell_setting 'orthorhombic'
loop_
_space_group_symop_operation_xyz
x,y,z
-x,1/2-y,z
x,-y,1/2-z
1/2-x,y,-z
-x,-y,-z
x,1/2+y,-z
-x,y,1/2+z
1/2+x,-y,z
1/2+x,1/2+y,1/2+z
1/2-x,-y,1/2+z
1/2+x,1/2-y,-z
-x,1/2+y,1/2-z
1/2-x,1/2-y,1/2-z
1/2+x,y,1/2-z
1/2-x,1/2+y,z
x,1/2-y,1/2+z
loop_
_atom_site_type_symbol
_atom_site_label
_atom_site_fract_x
_atom_site_fract_y
_atom_site_fract_z
Si Si1 0.644905 0.722432 0.908013
Si Si2 0.698779 0.551837 0.202879
Si Si3 0.083144 0.593879 0.886115
Si Si4 0.250000 0.986007 0.500000
Si Si5 0.616249 0.795966 0.174798
O O1 0.500000 0.750000 0.946312
O O2 0.736344 0.769872 0.858214
O O3 0.617633 0.686389 0.802557
O O4 0.750000 0.699544 0.000000
O O5 0.622206 0.500000 0.250000
O O6 0.574814 0.587762 0.159575
O O7 0.802102 0.576382 0.293057
O O8 0.775210 0.525307 0.099996
O O9 0.119300 0.555473 0.987267
O O10 0.096991 0.655145 0.903847
O O11 0.500000 0.750000 0.172569
#
# Coordination Sequence:
#
# PCOD9532158 Si02
#       5
#    16  16  16   8  16
#     4  10  22  42  67  91 137 173 225 275 329 379
#     4  10  22  43  67  97 134 168 222 284 341 409
#     4  11  24  41  71  99 132 182 221 277 357 403
#     4  10  22  44  70 102 130 172 228 288 342 410
#     4  10  24  44  65  97 138 182 228 278 326 408
#
# _framework density 24.376906000000002
#
# number of rings (size 3 to 8) (size 9 to 14) (size 15 to 20)
#    0.000    1.778    0.000    3.333   10.889    2.667 
#    2.000    2.222    0.000    0.000    0.000    0.000 
#    0.000    0.000    0.000    0.000    0.000    0.000 
#
# Total GULP energy -200902.029529 kJ/mol
# GULP energy per Si atom -5580.611931 kJ/mol
# Density = 2.432142 g / cm^3
# Si number density = 24.376906 Si / 1000 Ang^3
#
#
#
# Elastic Constant Matrix: (Units=GPa)
#
#
# Indices 1 2 3 4 5 6 
#
# 1 119.1306 28.7049 8.9481 0.0001 0.0000 0.0001
# 2 28.7049 98.0891 2.3814 0.0001 0.0000 0.0001
# 3 8.9481 2.3814 79.7134 0.0003 0.0000 0.0004
# 4 0.0001 0.0001 0.0003 28.7658 0.0000 0.0002
# 5 0.0000 0.0000 0.0000 0.0000 15.1884 0.0001
# 6 0.0001 0.0001 0.0004 0.0002 0.0001 12.3892
#
#
#
# Elastic Compliance Matrix: (Units=1/GPa)
#
#
# Indices 1 2 3 4 5 6 
#
# 1 0.009101 -0.002641 -0.000943 0.000000 0.000000 0.000000
# 2 -0.002641 0.010968 -0.000031 0.000000 0.000000 0.000000
# 3 -0.000943 -0.000031 0.012652 0.000000 0.000000 0.000000
# 4 0.000000 0.000000 0.000000 0.034763 0.000000 -0.000001
# 5 0.000000 0.000000 0.000000 0.000000 0.065840 0.000000
# 6 0.000000 0.000000 0.000000 -0.000001 0.000000 0.080715
#
#
# Mechanical properties :
#
#
# Convention : Reuss Voigt Hill
#
# Bulk Modulus (GPa) = 39.22775 41.88909 40.55842
# Shear Modulus (GPa) = 21.76128 28.39528 25.07828
#
# Velocity S-wave (km/s) = 2.99105 3.41668 3.21093
# Velocity P-wave (km/s) = 5.29676 5.72592 5.51552
#
# Compressibility (1/GPa) = 0.02549216
#
# Stress axis : x y z
#
# Youngs Moduli (GPa) = 109.87562 91.17190 79.04074
#
# Poissons Ratio (x) = 0.24074 0.07452
# Poissons Ratio (y) = 0.29013 0.00247
# Poissons Ratio (z) = 0.10359 0.00285
#
# Static dielectric constant tensor:
#      x y z
#    x 1.940510 0.000000 0.000000 
#    y 0.000000 1.929760 0.000000 
#    z 0.000000 0.000000 2.154440 
# 
# From -- ./inp_files/15509.got.cif
#   From: 2010.05.17/outbox.cif.g08.bks.cpg/sg73_8_cif.got.tgz:15509.got - 2010.06.03 17:35:07.
