data_PCOD9532212
_publ_section_title
;
Structure prediction by ZEFSAII (Michael W. Deem and Ramdas Pophale) SiO2 
 PCOD9532212
Probable space group: I B C A 
;
_chemical_formula_sum "Si O2"
_cell_formula_units_Z 64
_cell_length_a 11.524112
_cell_length_b 31.008598
_cell_length_c 8.322190
_cell_angle_alpha 90.000000
_cell_angle_beta 90.000000
_cell_angle_gamma 90.000000
_cell_volume 2973.905937
_symmetry_space_group_name_H-M "I B C A "
_symmetry_group_IT_number 73
_symmetry_cell_setting 'orthorhombic'
loop_
_space_group_symop_operation_xyz
x,y,z
-x,1/2-y,z
x,-y,1/2-z
1/2-x,y,-z
-x,-y,-z
x,1/2+y,-z
-x,y,1/2+z
1/2+x,-y,z
1/2+x,1/2+y,1/2+z
1/2-x,-y,1/2+z
1/2+x,1/2-y,-z
-x,1/2+y,1/2-z
1/2-x,1/2-y,1/2-z
1/2+x,y,1/2-z
1/2-x,1/2+y,z
x,1/2-y,1/2+z
loop_
_atom_site_type_symbol
_atom_site_label
_atom_site_fract_x
_atom_site_fract_y
_atom_site_fract_z
Si Si1 0.842113 0.602184 0.349510
Si Si2 0.000000 0.750000 0.707121
Si Si3 0.250000 0.906756 0.000000
Si Si4 0.955196 0.966038 0.374494
Si Si5 0.882734 0.692984 0.452166
O O1 0.750000 0.593638 0.500000
O O2 0.914178 0.644704 0.400650
O O3 0.933080 0.563006 0.324808
O O4 0.783608 0.613691 0.175615
O O5 0.955185 0.710907 0.600170
O O6 0.901761 0.771006 0.816992
O O7 0.140412 0.935267 0.948630
O O8 0.899769 0.000000 0.250000
O O9 0.000000 0.000000 0.500000
O O10 0.750000 0.690897 0.500000
#
# Coordination Sequence:
#
# PCOD9532212 Si02
#       5
#    16   8   8  16  16
#     4  11  27  47  70 105 142 185 240 290 352 420
#     4  10  22  42  74  98 142 182 226 288 352 416
#     4  12  28  46  74 102 138 198 222 302 354 404
#     4  12  26  44  70  99 141 182 239 290 345 417
#     4  10  23  44  68 105 139 180 233 284 350 423
#
# _framework density 21.520520000000001
#
# number of rings (size 3 to 8) (size 9 to 14) (size 15 to 20)
#    0.000    1.000    2.500    2.250    8.750    2.000 
#   11.250    0.000    0.000    0.000    0.000    0.000 
#    0.000    0.000    0.000    0.000    0.000    0.000 
#
# Total GULP energy -178357.809010 kJ/mol
# GULP energy per Si atom -5573.681532 kJ/mol
# Density = 2.147154 g / cm^3
# Si number density = 21.520520 Si / 1000 Ang^3
#
#
#
# Elastic Constant Matrix: (Units=GPa)
#
#
# Indices 1 2 3 4 5 6 
#
# 1 46.5617 12.1256 8.8798 0.0021 0.0022 -0.0009
# 2 12.1256 104.2122 20.5903 -0.0009 -0.0008 -0.0006
# 3 8.8798 20.5903 104.4885 0.0064 0.0026 -0.0051
# 4 0.0021 -0.0009 0.0064 31.4779 0.0012 0.0001
# 5 0.0022 -0.0008 0.0026 0.0012 14.9422 0.0023
# 6 -0.0009 -0.0006 -0.0051 0.0001 0.0023 11.8959
#
#
#
# Elastic Compliance Matrix: (Units=1/GPa)
#
#
# Indices 1 2 3 4 5 6 
#
# 1 0.022355 -0.002316 -0.001443 -0.000001 -0.000003 0.000001
# 2 -0.002316 0.010224 -0.001818 0.000001 0.000001 0.000000
# 3 -0.001443 -0.001818 0.010051 -0.000002 -0.000002 0.000004
# 4 -0.000001 0.000001 -0.000002 0.031768 -0.000002 0.000000
# 5 -0.000003 0.000001 -0.000002 -0.000002 0.066925 -0.000013
# 6 0.000001 0.000000 0.000004 0.000000 -0.000013 0.084062
#
#
# Mechanical properties :
#
#
# Convention : Reuss Voigt Hill
#
# Bulk Modulus (GPa) = 31.76992 37.60597 34.68795
# Shear Modulus (GPa) = 20.24016 25.90764 23.07390
#
# Velocity S-wave (km/s) = 3.07009 3.47343 3.27797
# Velocity P-wave (km/s) = 5.23087 5.79644 5.52090
#
# Compressibility (1/GPa) = 0.03147631
#
# Stress axis : x y z
#
# Youngs Moduli (GPa) = 44.73216 97.80450 99.48905
#
# Poissons Ratio (x) = 0.22651 0.14361
# Poissons Ratio (y) = 0.10360 0.18087
# Poissons Ratio (z) = 0.06457 0.17781
#
# Static dielectric constant tensor:
#      x y z
#    x 1.725950 0.000000 0.000000 
#    y 0.000000 1.738320 0.000000 
#    z 0.000000 0.000000 1.794650 
# 
# From -- ./inp_files/3999.got.cif
#   From: 2010.05.17/outbox.cif.g08.bks.cpg/sg73_2_cif.got.tgz:3999.got - 2010.06.03 17:35:07.
