data_PCOD9532333
_publ_section_title
;
Structure prediction by ZEFSAII (Michael W. Deem and Ramdas Pophale) SiO2 
 PCOD9532333
Probable space group: I B C A 
;
_chemical_formula_sum "Si O2"
_cell_formula_units_Z 88
_cell_length_a 14.484394
_cell_length_b 23.284357
_cell_length_c 11.500987
_cell_angle_alpha 90.000000
_cell_angle_beta 90.000000
_cell_angle_gamma 90.000000
_cell_volume 3878.820585
_symmetry_space_group_name_H-M "I B C A "
_symmetry_group_IT_number 73
_symmetry_cell_setting 'orthorhombic'
loop_
_space_group_symop_operation_xyz
x,y,z
-x,1/2-y,z
x,-y,1/2-z
1/2-x,y,-z
-x,-y,-z
x,1/2+y,-z
-x,y,1/2+z
1/2+x,-y,z
1/2+x,1/2+y,1/2+z
1/2-x,-y,1/2+z
1/2+x,1/2-y,-z
-x,1/2+y,1/2-z
1/2-x,1/2-y,1/2-z
1/2+x,y,1/2-z
1/2-x,1/2+y,z
x,1/2-y,1/2+z
loop_
_atom_site_type_symbol
_atom_site_label
_atom_site_fract_x
_atom_site_fract_y
_atom_site_fract_z
Si Si1 0.980774 0.157867 0.355139
Si Si2 0.500000 0.750000 0.674760
Si Si3 0.196511 0.432767 0.745331
Si Si4 0.410126 0.064139 0.285554
Si Si5 0.652147 0.666764 0.557906
Si Si6 0.150171 0.370179 0.980100
O O1 0.987641 0.102228 0.275374
O O2 0.905241 0.143678 0.449570
O O3 0.952137 0.205648 0.263354
O O4 0.072975 0.171791 0.427131
O O5 0.582961 0.716136 0.609546
O O6 0.168883 0.500000 0.750000
O O7 0.307706 0.430964 0.731997
O O8 0.164659 0.385001 0.650851
O O9 0.174519 0.411954 0.874758
O O10 0.393105 0.092154 0.414237
O O11 0.437091 0.000000 0.250000
O O12 0.750000 0.685551 0.500000
O O13 0.250000 0.341197 0.000000
#
# Coordination Sequence:
#
# PCOD9532333 Si02
#       6
#    16   8  16  16  16  16
#     4  12  25  46  74 106 151 197 265 324 385 468
#     4  12  28  52  72 114 150 202 272 328 380 468
#     4  10  22  44  76 111 153 202 249 310 398 477
#     4  10  23  42  70 113 154 196 253 316 395 479
#     4  12  26  50  80 113 153 205 259 326 400 466
#     4  10  23  43  70 105 149 202 245 314 380 470
#
# _framework density 22.687308000000002
#
# number of rings (size 3 to 8) (size 9 to 14) (size 15 to 20)
#    0.000    1.091    3.636    1.636    2.545    2.909 
#    0.000    6.364    0.000    0.000    0.000    0.000 
#    0.000    0.000    0.000    0.000    0.000    0.000 
#
# Total GULP energy -245145.906940 kJ/mol
# GULP energy per Si atom -5571.497885 kJ/mol
# Density = 2.263567 g / cm^3
# Si number density = 22.687308 Si / 1000 Ang^3
#
#
#
# Elastic Constant Matrix: (Units=GPa)
#
#
# Indices 1 2 3 4 5 6 
#
# 1 124.1552 24.6230 52.9417 -0.0001 -0.0001 0.0000
# 2 24.6230 116.3861 61.2873 -0.0001 -0.0001 0.0000
# 3 52.9417 61.2873 124.0942 -0.0005 -0.0003 0.0001
# 4 -0.0001 -0.0001 -0.0005 9.2151 -0.0002 0.0000
# 5 -0.0001 -0.0001 -0.0003 -0.0002 93.6686 0.0000
# 6 0.0000 0.0000 0.0001 0.0000 0.0000 38.5717
#
#
#
# Elastic Compliance Matrix: (Units=1/GPa)
#
#
# Indices 1 2 3 4 5 6 
#
# 1 0.009848 0.000174 -0.004288 0.000000 0.000000 0.000000
# 2 0.000174 0.011615 -0.005811 0.000000 0.000000 0.000000
# 3 -0.004288 -0.005811 0.012757 0.000001 0.000000 0.000000
# 4 0.000000 0.000000 0.000001 0.108517 0.000000 0.000000
# 5 0.000000 0.000000 0.000000 0.000000 0.010676 0.000000
# 6 0.000000 0.000000 0.000000 0.000000 0.000000 0.025926
#
#
# Mechanical properties :
#
#
# Convention : Reuss Voigt Hill
#
# Bulk Modulus (GPa) = 69.57723 71.37104 70.47413
# Shear Modulus (GPa) = 24.51242 43.34331 33.92786
#
# Velocity S-wave (km/s) = 3.29058 4.37563 3.87131
# Velocity P-wave (km/s) = 6.72099 7.55348 7.14936
#
# Compressibility (1/GPa) = 0.01437252
#
# Stress axis : x y z
#
# Youngs Moduli (GPa) = 101.54198 86.09486 78.38606
#
# Poissons Ratio (x) = -0.01500 0.33608
# Poissons Ratio (y) = -0.01769 0.45548
# Poissons Ratio (z) = 0.43536 0.50028
#
# Static dielectric constant tensor:
#      x y z
#    x 1.948320 0.000000 0.000000 
#    y 0.000000 1.967850 0.000000 
#    z 0.000000 0.000000 1.826880 
# 
# From -- ./inp_files/10952.got.cif
#   From: 2010.05.17/outbox.cif.g08.bks.cpg/sg73_6_cif.got.tgz:10952.got - 2010.06.03 17:35:07.
