data_PCOD9532023
_publ_section_title
;
Structure prediction by ZEFSAII (Michael W. Deem and Ramdas Pophale) SiO2 
 PCOD9532023
Probable space group: I B C A 
;
_chemical_formula_sum "Si O2"
_cell_formula_units_Z 80
_cell_length_a 26.756914
_cell_length_b 9.548742
_cell_length_c 14.626212
_cell_angle_alpha 90.000000
_cell_angle_beta 90.000000
_cell_angle_gamma 90.000000
_cell_volume 3736.922112
_symmetry_space_group_name_H-M "I B C A "
_symmetry_group_IT_number 73
_symmetry_cell_setting 'orthorhombic'
loop_
_space_group_symop_operation_xyz
x,y,z
-x,1/2-y,z
x,-y,1/2-z
1/2-x,y,-z
-x,-y,-z
x,1/2+y,-z
-x,y,1/2+z
1/2+x,-y,z
1/2+x,1/2+y,1/2+z
1/2-x,-y,1/2+z
1/2+x,1/2-y,-z
-x,1/2+y,1/2-z
1/2-x,1/2-y,1/2-z
1/2+x,y,1/2-z
1/2-x,1/2+y,z
x,1/2-y,1/2+z
loop_
_atom_site_type_symbol
_atom_site_label
_atom_site_fract_x
_atom_site_fract_y
_atom_site_fract_z
Si Si1 0.847124 0.741511 0.454294
Si Si2 0.202051 0.452278 0.942227
Si Si3 0.723479 0.624313 0.197438
Si Si4 0.544898 0.635720 0.540329
Si Si5 0.012237 0.914749 0.656376
O O1 0.817359 0.599792 0.475512
O O2 0.841516 0.842046 0.541595
O O3 0.817344 0.813121 0.371601
O O4 0.903568 0.706259 0.431430
O O5 0.228513 0.455689 0.846053
O O6 0.250000 0.402417 0.000000
O O7 0.696255 0.500000 0.250000
O O8 0.750000 0.750000 0.250000
O O9 0.500000 0.750000 0.545520
O O10 0.549100 0.590517 0.432838
O O11 0.532018 0.505434 0.606857
O O12 0.000000 0.750000 0.677026
O O13 0.025370 0.000000 0.750000
#
# Coordination Sequence:
#
# PCOD9532023 Si02
#       5
#    16  16  16  16  16
#     4  11  24  41  69 100 132 186 231 280 354 429
#     4  10  22  40  67  93 132 177 228 278 345 427
#     4  11  22  43  66 101 140 173 224 296 354 419
#     4  10  24  46  71 101 142 189 244 297 358 436
#     4  10  22  44  72  98 139 185 235 305 357 415
#
# _framework density 21.407993000000001
#
# number of rings (size 3 to 8) (size 9 to 14) (size 15 to 20)
#    0.000    1.600    2.000    2.400   11.200    0.800 
#    3.600    5.000    0.000    0.000    0.000    0.000 
#    0.000    0.000    0.000    0.000    0.000    0.000 
#
# Total GULP energy -222815.442376 kJ/mol
# GULP energy per Si atom -5570.386059 kJ/mol
# Density = 2.135927 g / cm^3
# Si number density = 21.407993 Si / 1000 Ang^3
#
#
#
# Elastic Constant Matrix: (Units=GPa)
#
#
# Indices 1 2 3 4 5 6 
#
# 1 101.4123 37.7787 27.1474 0.0000 0.0000 0.0000
# 2 37.7787 132.0578 36.0696 0.0000 0.0000 0.0000
# 3 27.1474 36.0696 90.5686 0.0000 0.0000 0.0000
# 4 0.0000 0.0000 0.0000 46.0426 0.0000 0.0000
# 5 0.0000 0.0000 0.0000 0.0000 13.0174 0.0000
# 6 0.0000 0.0000 0.0000 0.0000 0.0000 63.4671
#
#
#
# Elastic Compliance Matrix: (Units=1/GPa)
#
#
# Indices 1 2 3 4 5 6 
#
# 1 0.011482 -0.002631 -0.002394 0.000000 0.000000 0.000000
# 2 -0.002631 0.009099 -0.002835 0.000000 0.000000 0.000000
# 3 -0.002394 -0.002835 0.012888 0.000000 0.000000 0.000000
# 4 0.000000 0.000000 0.000000 0.021719 0.000000 0.000000
# 5 0.000000 0.000000 0.000000 0.000000 0.076820 0.000000
# 6 0.000000 0.000000 0.000000 0.000000 0.000000 0.015756
#
#
# Mechanical properties :
#
#
# Convention : Reuss Voigt Hill
#
# Bulk Modulus (GPa) = 56.34048 58.44779 57.39414
# Shear Modulus (GPa) = 29.51577 39.37494 34.44535
#
# Velocity S-wave (km/s) = 3.71715 4.29332 4.01558
# Velocity P-wave (km/s) = 6.69310 7.20679 6.95469
#
# Compressibility (1/GPa) = 0.01774923
#
# Stress axis : x y z
#
# Youngs Moduli (GPa) = 87.09604 109.89625 77.59093
#
# Poissons Ratio (x) = 0.28911 0.18574
# Poissons Ratio (y) = 0.22913 0.22000
# Poissons Ratio (z) = 0.20849 0.31160
#
# Static dielectric constant tensor:
#      x y z
#    x 1.762790 0.000000 0.000000 
#    y 0.000000 1.787280 0.000000 
#    z 0.000000 0.000000 1.942500 
# 
# From -- ./inp_files/23794.got.cif
#   From: 2010.05.17/outbox.cif.g08.bks.cpg/sg73_12_cif.got.tgz:23794.got - 2010.06.03 17:35:07.
