data_PCOD9532717
_publ_section_title
;
Structure prediction by ZEFSAII (Michael W. Deem and Ramdas Pophale) SiO2 
 PCOD9532717
Probable space group: I B C A 
;
_chemical_formula_sum "Si O2"
_cell_formula_units_Z 88
_cell_length_a 30.160269
_cell_length_b 29.501712
_cell_length_c 5.099420
_cell_angle_alpha 90.000000
_cell_angle_beta 90.000000
_cell_angle_gamma 90.000000
_cell_volume 4537.359734
_symmetry_space_group_name_H-M "I B C A "
_symmetry_group_IT_number 73
_symmetry_cell_setting 'orthorhombic'
loop_
_space_group_symop_operation_xyz
x,y,z
-x,1/2-y,z
x,-y,1/2-z
1/2-x,y,-z
-x,-y,-z
x,1/2+y,-z
-x,y,1/2+z
1/2+x,-y,z
1/2+x,1/2+y,1/2+z
1/2-x,-y,1/2+z
1/2+x,1/2-y,-z
-x,1/2+y,1/2-z
1/2-x,1/2-y,1/2-z
1/2+x,y,1/2-z
1/2-x,1/2+y,z
x,1/2-y,1/2+z
loop_
_atom_site_type_symbol
_atom_site_label
_atom_site_fract_x
_atom_site_fract_y
_atom_site_fract_z
Si Si1 0.818206 0.720591 0.225859
Si Si2 0.418277 0.000000 0.750000
Si Si3 0.623356 0.360758 0.772395
Si Si4 0.750000 0.845469 0.000000
Si Si5 0.145931 0.000000 0.750000
Si Si6 0.172147 0.399769 0.232910
Si Si7 0.469180 0.904947 0.776110
O O1 0.815637 0.762400 0.428573
O O2 0.862724 0.691731 0.274143
O O3 0.779194 0.686799 0.313627
O O4 0.386360 0.996877 0.499670
O O5 0.448175 0.955378 0.776096
O O6 0.654132 0.383263 0.547198
O O7 0.572657 0.371433 0.712770
O O8 0.636608 0.383382 0.048574
O O9 0.717366 0.876065 0.824955
O O10 0.173956 0.954005 0.766081
O O11 0.497893 0.899072 0.516757
#
# Coordination Sequence:
#
# PCOD9532717 Si02
#       7
#    16   8  16   8   8  16  16
#     4  11  23  41  67  93 120 154 199 259 321 376
#     4  12  22  39  59  94 124 164 220 254 303 351
#     4  11  23  42  62  89 127 163 203 250 319 381
#     4  10  24  40  64  96 126 154 210 266 308 368
#     4  12  20  39  63  82 130 178 214 246 291 369
#     4  11  22  40  61  88 124 175 207 250 302 360
#     4  12  23  38  62  94 127 162 205 260 308 358
#
# _framework density 19.394538000000001
#
# number of rings (size 3 to 8) (size 9 to 14) (size 15 to 20)
#    0.000    0.727    3.636    5.455    0.000    5.818 
#    0.000    4.545    0.000    3.273    0.000    0.000 
#    0.000    0.000    0.000    0.000    0.000    0.000 
#
# Total GULP energy -246277.677208 kJ/mol
# GULP energy per Si atom -5597.219937 kJ/mol
# Density = 1.935040 g / cm^3
# Si number density = 19.394538 Si / 1000 Ang^3
#
#
#
# Elastic Constant Matrix: (Units=GPa)
#
#
# Indices 1 2 3 4 5 6 
#
# 1 111.7236 52.6916 4.7953 0.0000 0.0000 0.0000
# 2 52.6916 80.4424 6.9526 0.0000 0.0000 0.0000
# 3 4.7953 6.9526 85.2798 0.0000 0.0000 0.0000
# 4 0.0000 0.0000 0.0000 24.1516 0.0000 0.0000
# 5 0.0000 0.0000 0.0000 0.0000 26.2141 0.0000
# 6 0.0000 0.0000 0.0000 0.0000 0.0000 24.6150
#
#
#
# Elastic Compliance Matrix: (Units=1/GPa)
#
#
# Indices 1 2 3 4 5 6 
#
# 1 0.012952 -0.008481 -0.000037 0.000000 0.000000 0.000000
# 2 -0.008481 0.018072 -0.000997 0.000000 0.000000 0.000000
# 3 -0.000037 -0.000997 0.011809 0.000000 0.000000 0.000000
# 4 0.000000 0.000000 0.000000 0.041405 0.000000 0.000000
# 5 0.000000 0.000000 0.000000 0.000000 0.038147 0.000000
# 6 0.000000 0.000000 0.000000 0.000000 0.000000 0.040626
#
#
# Mechanical properties :
#
#
# Convention : Reuss Voigt Hill
#
# Bulk Modulus (GPa) = 42.00677 45.14718 43.57697
# Shear Modulus (GPa) = 26.31924 29.19656 27.75790
#
# Velocity S-wave (km/s) = 3.68780 3.88416 3.78725
# Velocity P-wave (km/s) = 6.31184 6.59124 6.45305
#
# Compressibility (1/GPa) = 0.02380569
#
# Stress axis : x y z
#
# Youngs Moduli (GPa) = 77.20872 55.33312 84.67810
#
# Poissons Ratio (x) = 0.46926 0.00312
# Poissons Ratio (y) = 0.65478 0.08438
# Poissons Ratio (z) = 0.00285 0.05514
#
# Static dielectric constant tensor:
#      x y z
#    x 1.647470 0.000000 0.000000 
#    y 0.000000 1.688410 0.000000 
#    z 0.000000 0.000000 1.659070 
# 
# From -- ./inp_files/3132.got.cif
#   From: 2010.05.17/outbox.cif.g08.bks.cpg/sg73_2_cif.got.tgz:3132.got - 2010.06.03 17:35:07.
