data_PCOD9532033
_publ_section_title
;
Structure prediction by ZEFSAII (Michael W. Deem and Ramdas Pophale) SiO2 
 PCOD9532033
Probable space group: I B C A 
;
_chemical_formula_sum "Si O2"
_cell_formula_units_Z 96
_cell_length_a 9.831890
_cell_length_b 19.613206
_cell_length_c 24.258223
_cell_angle_alpha 90.000000
_cell_angle_beta 90.000000
_cell_angle_gamma 90.000000
_cell_volume 4677.831617
_symmetry_space_group_name_H-M "I B C A "
_symmetry_group_IT_number 73
_symmetry_cell_setting 'orthorhombic'
loop_
_space_group_symop_operation_xyz
x,y,z
-x,1/2-y,z
x,-y,1/2-z
1/2-x,y,-z
-x,-y,-z
x,1/2+y,-z
-x,y,1/2+z
1/2+x,-y,z
1/2+x,1/2+y,1/2+z
1/2-x,-y,1/2+z
1/2+x,1/2-y,-z
-x,1/2+y,1/2-z
1/2-x,1/2-y,1/2-z
1/2+x,y,1/2-z
1/2-x,1/2+y,z
x,1/2-y,1/2+z
loop_
_atom_site_type_symbol
_atom_site_label
_atom_site_fract_x
_atom_site_fract_y
_atom_site_fract_z
Si Si1 0.500000 0.250000 0.301859
Si Si2 0.169870 0.497639 0.387547
Si Si3 0.186688 0.661782 0.379681
Si Si4 0.250000 0.843446 0.000000
Si Si5 0.654343 0.568751 0.277301
Si Si6 0.082994 0.534723 0.547881
Si Si7 0.618363 0.153771 0.215325
O O1 0.572981 0.303442 0.341988
O O2 0.604903 0.213427 0.260460
O O3 0.159514 0.579935 0.381398
O O4 0.219127 0.458206 0.333836
O O5 0.284427 0.492468 0.434328
O O6 0.023960 0.465967 0.402337
O O7 0.195045 0.689164 0.442886
O O8 0.325677 0.673421 0.344956
O O9 0.366081 0.893012 0.974641
O O10 0.596189 0.500000 0.250000
O O11 0.530459 0.620192 0.286710
O O12 0.769558 0.601693 0.239347
O O13 0.000000 0.500000 0.500000
#
# Coordination Sequence:
#
# PCOD9532033 Si02
#       7
#     8  16  16   8  16  16  16
#     4  12  26  46  68  90 128 186 238 272 328 380
#     4  11  23  36  62  99 133 164 206 268 341 396
#     4  11  23  43  68  91 131 175 226 274 325 398
#     4  10  22  40  68  94 132 174 212 272 340 378
#     4  12  24  37  64 100 134 163 207 269 346 404
#     4  11  19  36  60  93 129 170 203 252 327 413
#     4  12  25  43  65  97 131 179 218 278 328 401
#
# _framework density 20.522328000000002
#
# number of rings (size 3 to 8) (size 9 to 14) (size 15 to 20)
#    0.000    0.667    6.667    3.000    4.667    0.000 
#    0.000    0.833    3.667    1.000    0.000    0.000 
#    0.000    0.000    0.000    0.000    0.000    0.000 
#
# Total GULP energy -267893.707499 kJ/mol
# GULP energy per Si atom -5581.118906 kJ/mol
# Density = 2.047562 g / cm^3
# Si number density = 20.522328 Si / 1000 Ang^3
#
#
#
# Elastic Constant Matrix: (Units=GPa)
#
#
# Indices 1 2 3 4 5 6 
#
# 1 83.5219 20.2169 25.8963 0.0000 0.0000 0.0000
# 2 20.2169 36.3153 28.8642 0.0000 0.0000 0.0000
# 3 25.8963 28.8642 145.7718 0.0000 0.0000 0.0000
# 4 0.0000 0.0000 0.0000 28.2937 0.0000 0.0000
# 5 0.0000 0.0000 0.0000 0.0000 38.6287 0.0000
# 6 0.0000 0.0000 0.0000 0.0000 0.0000 13.5771
#
#
#
# Elastic Compliance Matrix: (Units=1/GPa)
#
#
# Indices 1 2 3 4 5 6 
#
# 1 0.013990 -0.006899 -0.001119 0.000000 0.000000 0.000000
# 2 -0.006899 0.036082 -0.005919 0.000000 0.000000 0.000000
# 3 -0.001119 -0.005919 0.008231 0.000000 0.000000 0.000000
# 4 0.000000 0.000000 0.000000 0.035344 0.000000 0.000000
# 5 0.000000 0.000000 0.000000 0.000000 0.025887 0.000000
# 6 0.000000 0.000000 0.000000 0.000000 0.000000 0.073653
#
#
# Mechanical properties :
#
#
# Convention : Reuss Voigt Hill
#
# Bulk Modulus (GPa) = 32.86378 46.17376 39.51877
# Shear Modulus (GPa) = 21.62601 28.80869 25.21735
#
# Velocity S-wave (km/s) = 3.24972 3.75076 3.50919
# Velocity P-wave (km/s) = 5.48902 6.42695 5.97641
#
# Compressibility (1/GPa) = 0.03042864
#
# Stress axis : x y z
#
# Youngs Moduli (GPa) = 71.48068 27.71494 121.49344
#
# Poissons Ratio (x) = 0.19119 0.13599
# Poissons Ratio (y) = 0.49311 0.71912
# Poissons Ratio (z) = 0.08001 0.16404
#
# Static dielectric constant tensor:
#      x y z
#    x 1.753910 0.000000 0.000000 
#    y 0.000000 1.727720 0.000000 
#    z 0.000000 0.000000 1.851120 
# 
# From -- ./inp_files/31216.got.cif
#   From: 2010.05.17/outbox.cif.g08.bks.cpg/sg73_16_cif.got.tgz:31216.got - 2010.06.03 17:35:07.
