data_PCOD9532843
_publ_section_title
;
Structure prediction by ZEFSAII (Michael W. Deem and Ramdas Pophale) SiO2 
 PCOD9532843
Probable space group: I B C A 
;
_chemical_formula_sum "Si O2"
_cell_formula_units_Z 88
_cell_length_a 10.692960
_cell_length_b 12.609463
_cell_length_c 29.189997
_cell_angle_alpha 90.000000
_cell_angle_beta 90.000000
_cell_angle_gamma 90.000000
_cell_volume 3935.759788
_symmetry_space_group_name_H-M "I B C A "
_symmetry_group_IT_number 73
_symmetry_cell_setting 'orthorhombic'
loop_
_space_group_symop_operation_xyz
x,y,z
-x,1/2-y,z
x,-y,1/2-z
1/2-x,y,-z
-x,-y,-z
x,1/2+y,-z
-x,y,1/2+z
1/2+x,-y,z
1/2+x,1/2+y,1/2+z
1/2-x,-y,1/2+z
1/2+x,1/2-y,-z
-x,1/2+y,1/2-z
1/2-x,1/2-y,1/2-z
1/2+x,y,1/2-z
1/2-x,1/2+y,z
x,1/2-y,1/2+z
loop_
_atom_site_type_symbol
_atom_site_label
_atom_site_fract_x
_atom_site_fract_y
_atom_site_fract_z
Si Si1 0.233233 0.615232 0.051089
Si Si2 0.960803 0.000000 0.750000
Si Si3 0.939010 0.865148 0.332811
Si Si4 0.190513 0.807636 0.206527
Si Si5 0.632009 0.722086 0.882689
Si Si6 0.471244 0.507941 0.415082
O O1 0.231775 0.711042 0.088249
O O2 0.358523 0.543749 0.055883
O O3 0.100777 0.551143 0.060792
O O4 0.250000 0.659838 0.000000
O O5 0.881494 0.907664 0.725965
O O6 0.035837 0.940150 0.789359
O O7 0.792836 0.845037 0.330312
O O8 0.000000 0.750000 0.325649
O O9 0.983350 0.920973 0.378407
O O10 0.250000 0.750000 0.250000
O O11 0.123336 0.732017 0.169724
O O12 0.500000 0.750000 0.907107
O O13 0.607191 0.596730 0.886854
#
# Coordination Sequence:
#
# PCOD9532843 Si02
#       6
#    16   8  16  16  16  16
#     4  11  25  46  74 108 141 192 251 311 382 458
#     4  12  26  42  66 100 144 188 246 292 368 424
#     4  12  25  43  68 104 141 191 247 301 365 449
#     4  12  25  41  68 100 142 192 242 299 360 436
#     4  10  24  44  69  98 144 191 238 302 373 446
#     4  11  24  46  74 105 149 192 242 315 389 447
#
# _framework density 22.359088
#
# number of rings (size 3 to 8) (size 9 to 14) (size 15 to 20)
#    0.000    0.727    3.636    3.273    2.545    2.182 
#    0.000   10.000    0.000    0.000    0.000    0.000 
#    0.000    0.000    0.000    0.000    0.000    0.000 
#
# Total GULP energy -244985.739665 kJ/mol
# GULP energy per Si atom -5567.857720 kJ/mol
# Density = 2.230820 g / cm^3
# Si number density = 22.359088 Si / 1000 Ang^3
#
#
#
# Elastic Constant Matrix: (Units=GPa)
#
#
# Indices 1 2 3 4 5 6 
#
# 1 80.8520 -5.2555 16.7047 0.0000 0.0000 0.0000
# 2 -5.2555 60.6339 24.3448 0.0000 0.0000 0.0000
# 3 16.7047 24.3448 124.6122 0.0000 0.0000 0.0000
# 4 0.0000 0.0000 0.0000 30.9973 0.0000 0.0000
# 5 0.0000 0.0000 0.0000 0.0000 23.7510 0.0000
# 6 0.0000 0.0000 0.0000 0.0000 0.0000 14.2926
#
#
#
# Elastic Compliance Matrix: (Units=1/GPa)
#
#
# Indices 1 2 3 4 5 6 
#
# 1 0.012934 0.001972 -0.002119 0.000000 0.000000 0.000000
# 2 0.001972 0.018197 -0.003819 0.000000 0.000000 0.000000
# 3 -0.002119 -0.003819 0.009055 0.000000 0.000000 0.000000
# 4 0.000000 0.000000 0.000000 0.032261 0.000000 0.000000
# 5 0.000000 0.000000 0.000000 0.000000 0.042103 0.000000
# 6 0.000000 0.000000 0.000000 0.000000 0.000000 0.069966
#
#
# Mechanical properties :
#
#
# Convention : Reuss Voigt Hill
#
# Bulk Modulus (GPa) = 31.00471 37.52066 34.26269
# Shear Modulus (GPa) = 24.60619 29.16181 26.88400
#
# Velocity S-wave (km/s) = 3.32098 3.61536 3.47129
# Velocity P-wave (km/s) = 5.34809 5.85193 5.60567
#
# Compressibility (1/GPa) = 0.03225316
#
# Stress axis : x y z
#
# Youngs Moduli (GPa) = 77.31391 54.95463 110.43457
#
# Poissons Ratio (x) = -0.10837 0.23402
# Poissons Ratio (y) = -0.15246 0.42179
# Poissons Ratio (z) = 0.16384 0.20989
#
# Static dielectric constant tensor:
#      x y z
#    x 2.614530 0.000000 0.000000 
#    y 0.000000 1.834850 0.000000 
#    z 0.000000 0.000000 1.530650 
# 
# From -- ./inp_files/33883.got.cif
#   From: 2010.05.17/outbox.cif.g08.bks.cpg/sg73_17_cif.got.tgz:33883.got - 2010.06.03 17:35:07.
