data_PCOD9532024
_publ_section_title
;
Structure prediction by ZEFSAII (Michael W. Deem and Ramdas Pophale) SiO2 
 PCOD9532024
Probable space group: I B C A 
;
_chemical_formula_sum "Si O2"
_cell_formula_units_Z 104
_cell_length_a 26.426103
_cell_length_b 22.120961
_cell_length_c 9.016293
_cell_angle_alpha 90.000000
_cell_angle_beta 90.000000
_cell_angle_gamma 90.000000
_cell_volume 5270.661557
_symmetry_space_group_name_H-M "I B C A "
_symmetry_group_IT_number 73
_symmetry_cell_setting 'orthorhombic'
loop_
_space_group_symop_operation_xyz
x,y,z
-x,1/2-y,z
x,-y,1/2-z
1/2-x,y,-z
-x,-y,-z
x,1/2+y,-z
-x,y,1/2+z
1/2+x,-y,z
1/2+x,1/2+y,1/2+z
1/2-x,-y,1/2+z
1/2+x,1/2-y,-z
-x,1/2+y,1/2-z
1/2-x,1/2-y,1/2-z
1/2+x,y,1/2-z
1/2-x,1/2+y,z
x,1/2-y,1/2+z
loop_
_atom_site_type_symbol
_atom_site_label
_atom_site_fract_x
_atom_site_fract_y
_atom_site_fract_z
Si Si1 0.617038 0.558004 0.151506
Si Si2 0.500000 0.250000 0.336791
Si Si3 0.529268 0.372369 0.170320
Si Si4 0.659708 0.240109 0.224471
Si Si5 0.545046 0.030854 0.093520
Si Si6 0.696048 0.661853 0.056998
Si Si7 0.406339 0.802746 0.514573
O O1 0.633192 0.500000 0.250000
O O2 0.566496 0.588607 0.224794
O O3 0.658851 0.609349 0.117170
O O4 0.596171 0.532286 0.997599
O O5 0.512301 0.309138 0.241218
O O6 0.549450 0.242371 0.437209
O O7 0.477343 0.403539 0.126900
O O8 0.563298 0.363148 0.022897
O O9 0.696851 0.286240 0.313238
O O10 0.633419 0.200131 0.352488
O O11 0.677215 0.197407 0.090369
O O12 0.619654 0.282856 0.138671
O O13 0.551177 0.000000 0.250000
O O14 0.500000 0.000000 0.000000
O O15 0.750000 0.637884 0.000000
#
# Coordination Sequence:
#
# PCOD9532024 Si02
#       7
#    16   8  16  16  16  16  16
#     4  12  25  46  69  93 135 184 228 287 335 401
#     4  12  24  32  54  96 144 178 218 264 330 402
#     4  12  22  38  61  92 137 178 219 269 324 394
#     4  10  22  40  67  97 136 171 219 275 355 411
#     4  12  24  43  65  92 128 183 234 268 320 398
#     4  11  24  46  73 102 132 173 226 292 358 417
#     4  11  21  36  55  94 137 181 211 262 326 409
#
# _framework density 19.731867000000001
#
# number of rings (size 3 to 8) (size 9 to 14) (size 15 to 20)
#    0.000    0.615    6.154    2.769    2.154    0.000 
#    0.000    0.769    0.000    0.000    0.000    0.000 
#    0.000    0.000    0.000    0.000    0.000    0.000 
#
# Total GULP energy -290186.272702 kJ/mol
# GULP energy per Si atom -5580.505244 kJ/mol
# Density = 1.968696 g / cm^3
# Si number density = 19.731867 Si / 1000 Ang^3
#
#
#
# Elastic Constant Matrix: (Units=GPa)
#
#
# Indices 1 2 3 4 5 6 
#
# 1 67.9362 28.1469 28.2612 0.0000 0.0000 0.0000
# 2 28.1469 85.9893 49.0655 0.0000 0.0000 0.0000
# 3 28.2612 49.0655 122.4634 0.0000 0.0000 0.0000
# 4 0.0000 0.0000 0.0000 25.5738 0.0000 0.0000
# 5 0.0000 0.0000 0.0000 0.0000 17.5011 0.0000
# 6 0.0000 0.0000 0.0000 0.0000 0.0000 22.7823
#
#
#
# Elastic Compliance Matrix: (Units=1/GPa)
#
#
# Indices 1 2 3 4 5 6 
#
# 1 0.017499 -0.004438 -0.002260 0.000000 0.000000 0.000000
# 2 -0.004438 0.016202 -0.005467 0.000000 0.000000 0.000000
# 3 -0.002260 -0.005467 0.010878 0.000000 0.000000 0.000000
# 4 0.000000 0.000000 0.000000 0.039103 0.000000 0.000000
# 5 0.000000 0.000000 0.000000 0.000000 0.057139 0.000000
# 6 0.000000 0.000000 0.000000 0.000000 0.000000 0.043894
#
#
# Mechanical properties :
#
#
# Convention : Reuss Voigt Hill
#
# Bulk Modulus (GPa) = 49.38922 54.14844 51.76883
# Shear Modulus (GPa) = 23.17031 24.56577 23.86804
#
# Velocity S-wave (km/s) = 3.43046 3.53225 3.48173
# Velocity P-wave (km/s) = 6.38555 6.64360 6.51586
#
# Compressibility (1/GPa) = 0.02024733
#
# Stress axis : x y z
#
# Youngs Moduli (GPa) = 57.14710 61.72218 91.93182
#
# Poissons Ratio (x) = 0.27394 0.20776
# Poissons Ratio (y) = 0.25364 0.50259
# Poissons Ratio (z) = 0.12915 0.33744
#
# Static dielectric constant tensor:
#      x y z
#    x 1.716790 0.000000 0.000000 
#    y 0.000000 1.763950 0.000000 
#    z 0.000000 0.000000 1.765200 
# 
# From -- ./inp_files/8009.got.cif
#   From: 2010.05.17/outbox.cif.g08.bks.cpg/sg73_5_cif.got.tgz:8009.got - 2010.06.03 17:35:07.
