data_PCOD9532550
_publ_section_title
;
Structure prediction by ZEFSAII (Michael W. Deem and Ramdas Pophale) SiO2 
 PCOD9532550
Probable space group: I B C A 
;
_chemical_formula_sum "Si O2"
_cell_formula_units_Z 88
_cell_length_a 13.089500
_cell_length_b 12.971819
_cell_length_c 25.906495
_cell_angle_alpha 90.000000
_cell_angle_beta 90.000000
_cell_angle_gamma 90.000000
_cell_volume 4398.783598
_symmetry_space_group_name_H-M "I B C A "
_symmetry_group_IT_number 73
_symmetry_cell_setting 'orthorhombic'
loop_
_space_group_symop_operation_xyz
x,y,z
-x,1/2-y,z
x,-y,1/2-z
1/2-x,y,-z
-x,-y,-z
x,1/2+y,-z
-x,y,1/2+z
1/2+x,-y,z
1/2+x,1/2+y,1/2+z
1/2-x,-y,1/2+z
1/2+x,1/2-y,-z
-x,1/2+y,1/2-z
1/2-x,1/2-y,1/2-z
1/2+x,y,1/2-z
1/2-x,1/2+y,z
x,1/2-y,1/2+z
loop_
_atom_site_type_symbol
_atom_site_label
_atom_site_fract_x
_atom_site_fract_y
_atom_site_fract_z
Si Si1 0.789556 0.438093 0.122715
Si Si2 0.615515 0.288732 0.792258
Si Si3 0.759160 0.591982 0.214033
Si Si4 0.250000 0.764045 0.000000
Si Si5 0.385469 0.599003 0.959631
Si Si6 0.614486 0.573130 0.958580
O O1 0.840078 0.351298 0.158659
O O2 0.769656 0.536626 0.159404
O O3 0.689927 0.401940 0.089944
O O4 0.868444 0.482709 0.081690
O O5 0.500000 0.250000 0.796708
O O6 0.682856 0.186591 0.787090
O O7 0.639511 0.362534 0.742646
O O8 0.718948 0.500000 0.250000
O O9 0.342990 0.682728 0.000785
O O10 0.295228 0.842640 0.957444
O O11 0.503577 0.620464 0.949170
O O12 0.381690 0.485868 0.986217
#
# Coordination Sequence:
#
# PCOD9532550 Si02
#       6
#    16  16  16   8  16  16
#     4  11  22  42  65  97 131 166 225 276 329 405
#     4  10  23  43  66  99 127 174 219 267 343 407
#     4   9  22  43  65  91 131 166 209 278 331 394
#     4  12  20  44  60  86 132 176 216 274 320 404
#     4  11  24  42  62  95 131 175 223 274 335 394
#     4  11  24  42  64  92 132 179 217 275 339 389
#
# _framework density 20.005531000000001
#
# number of rings (size 3 to 8) (size 9 to 14) (size 15 to 20)
#    0.000    1.455    3.636    0.545    5.091    2.182 
#    9.818    0.000    0.000    0.000    0.000    0.000 
#    0.000    0.000    0.000    0.000    0.000    0.000 
#
# Total GULP energy -245003.391916 kJ/mol
# GULP energy per Si atom -5568.258907 kJ/mol
# Density = 1.996000 g / cm^3
# Si number density = 20.005531 Si / 1000 Ang^3
#
#
#
# Elastic Constant Matrix: (Units=GPa)
#
#
# Indices 1 2 3 4 5 6 
#
# 1 137.3851 53.4706 50.5609 0.0000 0.0000 0.0000
# 2 53.4706 124.5705 38.1572 0.0000 0.0000 0.0000
# 3 50.5609 38.1572 88.4697 0.0000 0.0000 0.0000
# 4 0.0000 0.0000 0.0000 14.6964 0.0000 0.0000
# 5 0.0000 0.0000 0.0000 0.0000 15.8567 0.0000
# 6 0.0000 0.0000 0.0000 0.0000 0.0000 22.4676
#
#
#
# Elastic Compliance Matrix: (Units=1/GPa)
#
#
# Indices 1 2 3 4 5 6 
#
# 1 0.010079 -0.002952 -0.004487 0.000000 0.000000 0.000000
# 2 -0.002952 0.010114 -0.002675 0.000000 0.000000 0.000000
# 3 -0.004487 -0.002675 0.015022 0.000000 0.000000 0.000000
# 4 0.000000 0.000000 0.000000 0.068044 0.000000 0.000000
# 5 0.000000 0.000000 0.000000 0.000000 0.063065 0.000000
# 6 0.000000 0.000000 0.000000 0.000000 0.000000 0.044509
#
#
# Mechanical properties :
#
#
# Convention : Reuss Voigt Hill
#
# Bulk Modulus (GPa) = 66.72760 70.53365 68.63063
# Shear Modulus (GPa) = 21.18143 24.48656 22.83399
#
# Velocity S-wave (km/s) = 3.25742 3.50235 3.38210
# Velocity P-wave (km/s) = 6.89744 7.18950 7.04498
#
# Compressibility (1/GPa) = 0.01498630
#
# Stress axis : x y z
#
# Youngs Moduli (GPa) = 99.21576 98.87185 66.57120
#
# Poissons Ratio (x) = 0.29186 0.29871
# Poissons Ratio (y) = 0.29287 0.17809
# Poissons Ratio (z) = 0.44519 0.26450
#
# Static dielectric constant tensor:
#      x y z
#    x 1.710720 0.000000 0.000000 
#    y 0.000000 1.732500 0.000000 
#    z 0.000000 0.000000 1.823240 
# 
# From -- ./inp_files/32091.got.cif
#   From: 2010.05.17/outbox.cif.g08.bks.cpg/sg73_17_cif.got.tgz:32091.got - 2010.06.03 17:35:07.
