data_PCOD9532140
_publ_section_title
;
Structure prediction by ZEFSAII (Michael W. Deem and Ramdas Pophale) SiO2 
 PCOD9532140
Probable space group: I B C A 
;
_chemical_formula_sum "Si O2"
_cell_formula_units_Z 80
_cell_length_a 8.658524
_cell_length_b 15.193910
_cell_length_c 25.001176
_cell_angle_alpha 90.000000
_cell_angle_beta 90.000000
_cell_angle_gamma 90.000000
_cell_volume 3289.075571
_symmetry_space_group_name_H-M "I B C A "
_symmetry_group_IT_number 73
_symmetry_cell_setting 'orthorhombic'
loop_
_space_group_symop_operation_xyz
x,y,z
-x,1/2-y,z
x,-y,1/2-z
1/2-x,y,-z
-x,-y,-z
x,1/2+y,-z
-x,y,1/2+z
1/2+x,-y,z
1/2+x,1/2+y,1/2+z
1/2-x,-y,1/2+z
1/2+x,1/2-y,-z
-x,1/2+y,1/2-z
1/2-x,1/2-y,1/2-z
1/2+x,y,1/2-z
1/2-x,1/2+y,z
x,1/2-y,1/2+z
loop_
_atom_site_type_symbol
_atom_site_label
_atom_site_fract_x
_atom_site_fract_y
_atom_site_fract_z
Si Si1 0.071129 0.561133 0.702863
Si Si2 0.277378 0.130270 0.559860
Si Si3 0.781627 0.658801 0.723808
Si Si4 0.664212 0.298777 0.889956
Si Si5 0.537287 0.972766 0.087338
O O1 0.011515 0.500000 0.750000
O O2 0.952070 0.640959 0.702839
O O3 0.230806 0.594018 0.728043
O O4 0.065565 0.510586 0.647402
O O5 0.250000 0.163205 0.500000
O O6 0.282622 0.219367 0.595734
O O7 0.133594 0.068514 0.579846
O O8 0.420126 0.061884 0.555867
O O9 0.750000 0.750000 0.750000
O O10 0.681556 0.663597 0.669852
O O11 0.500000 0.250000 0.895243
O O12 0.650935 0.389399 0.923671
#
# Coordination Sequence:
#
# PCOD9532140 Si02
#       5
#    16  16  16  16  16
#     4  12  25  40  66 100 139 184 223 274 348 421
#     4  11  25  46  72 101 134 183 238 296 352 408
#     4  12  24  39  63  98 138 182 229 277 340 420
#     4  10  22  42  65  96 137 179 224 288 345 411
#     4  11  24  44  71 100 141 181 232 290 352 422
#
# _framework density 24.322944
#
# number of rings (size 3 to 8) (size 9 to 14) (size 15 to 20)
#    0.000    0.800    2.000    5.400    5.600    0.800 
#    0.000   11.000    0.000    0.000    0.000    0.000 
#    0.000    0.000    0.000    0.000    0.000    0.000 
#
# Total GULP energy -223111.991526 kJ/mol
# GULP energy per Si atom -5577.799788 kJ/mol
# Density = 2.426758 g / cm^3
# Si number density = 24.322944 Si / 1000 Ang^3
#
#
#
# Elastic Constant Matrix: (Units=GPa)
#
#
# Indices 1 2 3 4 5 6 
#
# 1 50.3610 39.3122 -10.4764 0.0000 0.0000 0.0000
# 2 39.3122 267.2915 24.0085 0.0000 0.0000 0.0000
# 3 -10.4764 24.0085 78.2339 0.0000 0.0000 0.0000
# 4 0.0000 0.0000 0.0000 24.0334 0.0000 0.0000
# 5 0.0000 0.0000 0.0000 0.0000 0.3679 0.0000
# 6 0.0000 0.0000 0.0000 0.0000 0.0000 37.7271
#
#
#
# Elastic Compliance Matrix: (Units=1/GPa)
#
#
# Indices 1 2 3 4 5 6 
#
# 1 0.023810 -0.003896 0.004384 0.000000 0.000000 0.000000
# 2 -0.003896 0.004485 -0.001898 0.000000 0.000000 0.000000
# 3 0.004384 -0.001898 0.013952 0.000000 0.000000 0.000000
# 4 0.000000 0.000000 0.000000 0.041609 0.000000 0.000000
# 5 0.000000 0.000000 0.000000 0.000000 2.718419 0.000000
# 6 0.000000 0.000000 0.000000 0.000000 0.000000 0.026506
#
#
# Mechanical properties :
#
#
# Convention : Reuss Voigt Hill
#
# Bulk Modulus (GPa) = 25.36363 55.73056 40.54709
# Shear Modulus (GPa) = 1.75763 35.29514 18.52638
#
# Velocity S-wave (km/s) = 0.85099 3.81347 2.76286
# Velocity P-wave (km/s) = 3.37877 6.50788 5.18501
#
# Compressibility (1/GPa) = 0.03942654
#
# Stress axis : x y z
#
# Youngs Moduli (GPa) = 42.00003 222.98262 71.67603
#
# Poissons Ratio (x) = 0.86865 -0.31422
# Poissons Ratio (y) = 0.16361 0.13604
# Poissons Ratio (z) = -0.18412 0.42320
#
# Static dielectric constant tensor:
#      x y z
#    x 1.974550 0.000000 0.000000 
#    y 0.000000 2.060950 0.000000 
#    z 0.000000 0.000000 2.040500 
# 
# From -- ./inp_files/28776.got.cif
#   From: 2010.05.17/outbox.cif.g08.bks.cpg/sg73_15_cif.got.tgz:28776.got - 2010.06.03 17:35:07.
