data_PCOD9532014
_publ_section_title
;
Structure prediction by ZEFSAII (Michael W. Deem and Ramdas Pophale) SiO2 
 PCOD9532014
Probable space group: I B C A 
;
_chemical_formula_sum "Si O2"
_cell_formula_units_Z 112
_cell_length_a 16.595823
_cell_length_b 25.331596
_cell_length_c 12.149401
_cell_angle_alpha 90.000000
_cell_angle_beta 90.000000
_cell_angle_gamma 90.000000
_cell_volume 5107.592186
_symmetry_space_group_name_H-M "I B C A "
_symmetry_group_IT_number 73
_symmetry_cell_setting 'orthorhombic'
loop_
_space_group_symop_operation_xyz
x,y,z
-x,1/2-y,z
x,-y,1/2-z
1/2-x,y,-z
-x,-y,-z
x,1/2+y,-z
-x,y,1/2+z
1/2+x,-y,z
1/2+x,1/2+y,1/2+z
1/2-x,-y,1/2+z
1/2+x,1/2-y,-z
-x,1/2+y,1/2-z
1/2-x,1/2-y,1/2-z
1/2+x,y,1/2-z
1/2-x,1/2+y,z
x,1/2-y,1/2+z
loop_
_atom_site_type_symbol
_atom_site_label
_atom_site_fract_x
_atom_site_fract_y
_atom_site_fract_z
Si Si1 0.414157 0.408169 0.477660
Si Si2 0.465558 0.353070 0.828354
Si Si3 0.500058 0.450030 0.171826
Si Si4 0.673958 0.941767 0.248144
Si Si5 0.145846 0.697196 0.084801
Si Si6 0.750000 0.775415 0.500000
Si Si7 0.000000 0.250000 0.282625
Si Si8 0.221186 0.159769 0.702926
O O1 0.494053 0.379214 0.433165
O O2 0.447347 0.451983 0.561462
O O3 0.365387 0.429247 0.371992
O O4 0.366966 0.361637 0.539735
O O5 0.474103 0.395978 0.731530
O O6 0.515181 0.300653 0.795186
O O7 0.370908 0.343685 0.840048
O O8 0.516264 0.500000 0.250000
O O9 0.402694 0.445103 0.168261
O O10 0.736154 0.895973 0.276843
O O11 0.711756 0.000000 0.250000
O O12 0.175295 0.735757 0.989504
O O13 0.069830 0.725690 0.141093
O O14 0.211602 0.690684 0.182338
O O15 0.733105 0.809645 0.392845
#
# Coordination Sequence:
#
# PCOD9532014 Si02
#       8
#    16  16  16  16  16   8   8  16
#     4  11  23  44  76  98 136 189 234 281 363 416
#     4  10  24  40  67 103 135 174 231 288 340 411
#     4  10  22  45  71 103 133 176 234 295 335 412
#     4  10  25  45  71  99 141 180 233 296 347 419
#     4  11  25  43  67  99 138 189 228 282 345 427
#     4  12  28  38  68  96 144 188 218 290 358 418
#     4  10  22  40  66 100 140 172 230 298 328 412
#     4  11  25  46  63 104 140 181 234 285 347 423
#
# _framework density 21.928139999999999
#
# number of rings (size 3 to 8) (size 9 to 14) (size 15 to 20)
#    0.000    1.429    2.857    1.286   12.000    5.714 
#    0.000    0.000    0.000    0.000    0.000    0.000 
#    0.000    0.000    0.000    0.000    0.000    0.000 
#
# Total GULP energy -312702.843705 kJ/mol
# GULP energy per Si atom -5583.979352 kJ/mol
# Density = 2.187823 g / cm^3
# Si number density = 21.928140 Si / 1000 Ang^3
#
#
#
# Elastic Constant Matrix: (Units=GPa)
#
#
# Indices 1 2 3 4 5 6 
#
# 1 39.1112 36.2360 29.9479 0.0000 0.0000 0.0000
# 2 36.2360 154.0264 45.8513 0.0000 0.0000 0.0000
# 3 29.9479 45.8513 85.3591 0.0001 0.0001 0.0000
# 4 0.0000 0.0000 0.0001 34.8703 0.0000 0.0000
# 5 0.0000 0.0000 0.0001 0.0000 18.9103 0.0000
# 6 0.0000 0.0000 0.0000 0.0000 0.0000 40.5776
#
#
#
# Elastic Compliance Matrix: (Units=1/GPa)
#
#
# Indices 1 2 3 4 5 6 
#
# 1 0.039267 -0.006115 -0.010492 0.000000 0.000000 0.000000
# 2 -0.006115 0.008680 -0.002517 0.000000 0.000000 0.000000
# 3 -0.010492 -0.002517 0.016749 0.000000 0.000000 0.000000
# 4 0.000000 0.000000 0.000000 0.028678 0.000000 0.000000
# 5 0.000000 0.000000 0.000000 0.000000 0.052881 0.000000
# 6 0.000000 0.000000 0.000000 0.000000 0.000000 0.024644
#
#
# Mechanical properties :
#
#
# Convention : Reuss Voigt Hill
#
# Bulk Modulus (GPa) = 37.81052 55.84080 46.82566
# Shear Modulus (GPa) = 22.93961 29.96908 26.45435
#
# Velocity S-wave (km/s) = 3.23790 3.70089 3.47711
# Velocity P-wave (km/s) = 5.59097 6.61686 6.12543
#
# Compressibility (1/GPa) = 0.02644767
#
# Stress axis : x y z
#
# Youngs Moduli (GPa) = 25.46653 115.20352 59.70637
#
# Poissons Ratio (x) = 0.70442 0.62646
# Poissons Ratio (y) = 0.15572 0.15031
# Poissons Ratio (z) = 0.26720 0.29002
#
# Static dielectric constant tensor:
#      x y z
#    x 1.836030 0.000000 0.000000 
#    y 0.000000 1.788330 0.000000 
#    z 0.000000 0.000000 1.855720 
# 
# From -- ./inp_files/12220.got.cif
#   From: 2010.05.17/outbox.cif.g08.bks.cpg/sg73_7_cif.got.tgz:12220.got - 2010.06.03 17:35:07.
