data_PCOD9532907
_publ_section_title
;
Structure prediction by ZEFSAII (Michael W. Deem and Ramdas Pophale) SiO2 
 PCOD9532907
Probable space group: I B C A 
;
_chemical_formula_sum "Si O2"
_cell_formula_units_Z 72
_cell_length_a 9.079853
_cell_length_b 23.889605
_cell_length_c 15.430578
_cell_angle_alpha 90.000000
_cell_angle_beta 90.000000
_cell_angle_gamma 90.000000
_cell_volume 3347.109964
_symmetry_space_group_name_H-M "I B C A "
_symmetry_group_IT_number 73
_symmetry_cell_setting 'orthorhombic'
loop_
_space_group_symop_operation_xyz
x,y,z
-x,1/2-y,z
x,-y,1/2-z
1/2-x,y,-z
-x,-y,-z
x,1/2+y,-z
-x,y,1/2+z
1/2+x,-y,z
1/2+x,1/2+y,1/2+z
1/2-x,-y,1/2+z
1/2+x,1/2-y,-z
-x,1/2+y,1/2-z
1/2-x,1/2-y,1/2-z
1/2+x,y,1/2-z
1/2-x,1/2+y,z
x,1/2-y,1/2+z
loop_
_atom_site_type_symbol
_atom_site_label
_atom_site_fract_x
_atom_site_fract_y
_atom_site_fract_z
Si Si1 0.802137 0.377201 0.211670
Si Si2 0.328241 0.972206 0.410659
Si Si3 0.867429 0.427373 0.387716
Si Si4 0.750000 0.168436 0.000000
Si Si5 0.426072 0.692130 0.669388
O O1 0.723958 0.426173 0.158562
O O2 0.886221 0.405998 0.291306
O O3 0.685417 0.335007 0.259258
O O4 0.930655 0.347236 0.157321
O O5 0.250000 0.957207 0.500000
O O6 0.502242 0.967515 0.414733
O O7 0.279717 0.035434 0.389687
O O8 0.858777 0.374054 0.449845
O O9 0.663146 0.198941 0.921698
O O10 0.500000 0.750000 0.699406
#
# Coordination Sequence:
#
# PCOD9532907 Si02
#       5
#    16  16  16   8  16
#     4  11  24  43  70  98 139 176 233 281 347 413
#     4  12  24  39  66 100 140 183 224 273 345 415
#     4  11  24  41  64 101 138 185 221 275 339 418
#     4  10  24  46  68 100 144 170 234 288 340 410
#     4  11  24  48  71  99 132 181 233 295 344 409
#
# _framework density 21.511094
#
# number of rings (size 3 to 8) (size 9 to 14) (size 15 to 20)
#    0.000    0.889    3.333    3.333    6.222    1.778 
#    6.000    2.222    0.000    0.000    0.000    0.000 
#    0.000    0.000    0.000    0.000    0.000    0.000 
#
# Total GULP energy -201101.159703 kJ/mol
# GULP energy per Si atom -5586.143325 kJ/mol
# Density = 2.146213 g / cm^3
# Si number density = 21.511094 Si / 1000 Ang^3
#
#
#
# Elastic Constant Matrix: (Units=GPa)
#
#
# Indices 1 2 3 4 5 6 
#
# 1 79.3651 9.9820 -1.2540 0.0000 0.0000 0.0000
# 2 9.9820 45.4847 9.7469 0.0000 0.0000 0.0000
# 3 -1.2540 9.7469 96.3977 0.0001 0.0000 0.0000
# 4 0.0000 0.0000 0.0001 18.3204 0.0000 0.0000
# 5 0.0000 0.0000 0.0000 0.0000 8.9562 0.0000
# 6 0.0000 0.0000 0.0000 0.0000 0.0000 26.1885
#
#
#
# Elastic Compliance Matrix: (Units=1/GPa)
#
#
# Indices 1 2 3 4 5 6 
#
# 1 0.012978 -0.002948 0.000467 0.000000 0.000000 0.000000
# 2 -0.002948 0.023142 -0.002378 0.000000 0.000000 0.000000
# 3 0.000467 -0.002378 0.010620 0.000000 0.000000 0.000000
# 4 0.000000 0.000000 0.000000 0.054584 0.000000 0.000000
# 5 0.000000 0.000000 0.000000 0.000000 0.111654 0.000000
# 6 0.000000 0.000000 0.000000 0.000000 0.000000 0.038185
#
#
# Mechanical properties :
#
#
# Convention : Reuss Voigt Hill
#
# Bulk Modulus (GPa) = 27.01147 28.68860 27.85003
# Shear Modulus (GPa) = 18.30006 24.21118 21.25562
#
# Velocity S-wave (km/s) = 2.91989 3.35852 3.14685
# Velocity P-wave (km/s) = 4.89407 5.32965 5.11649
#
# Compressibility (1/GPa) = 0.03702131
#
# Stress axis : x y z
#
# Youngs Moduli (GPa) = 77.05234 43.21133 94.15987
#
# Poissons Ratio (x) = 0.12740 -0.04397
# Poissons Ratio (y) = 0.22717 0.22394
# Poissons Ratio (z) = -0.03598 0.10277
#
# Static dielectric constant tensor:
#      x y z
#    x 1.888270 0.000000 0.000000 
#    y 0.000000 1.770190 0.000000 
#    z 0.000000 0.000000 1.793360 
# 
# From -- ./inp_files/4770.got.cif
#   From: 2010.05.17/outbox.cif.g08.bks.cpg/sg73_3_cif.got.tgz:4770.got - 2010.06.03 17:35:07.
