data_PCOD9532259
_publ_section_title
;
Structure prediction by ZEFSAII (Michael W. Deem and Ramdas Pophale) SiO2 
 PCOD9532259
Probable space group: I B C A 
;
_chemical_formula_sum "Si O2"
_cell_formula_units_Z 96
_cell_length_a 15.664447
_cell_length_b 24.815066
_cell_length_c 10.870814
_cell_angle_alpha 90.000000
_cell_angle_beta 90.000000
_cell_angle_gamma 90.000000
_cell_volume 4225.640704
_symmetry_space_group_name_H-M "I B C A "
_symmetry_group_IT_number 73
_symmetry_cell_setting 'orthorhombic'
loop_
_space_group_symop_operation_xyz
x,y,z
-x,1/2-y,z
x,-y,1/2-z
1/2-x,y,-z
-x,-y,-z
x,1/2+y,-z
-x,y,1/2+z
1/2+x,-y,z
1/2+x,1/2+y,1/2+z
1/2-x,-y,1/2+z
1/2+x,1/2-y,-z
-x,1/2+y,1/2-z
1/2-x,1/2-y,1/2-z
1/2+x,y,1/2-z
1/2-x,1/2+y,z
x,1/2-y,1/2+z
loop_
_atom_site_type_symbol
_atom_site_label
_atom_site_fract_x
_atom_site_fract_y
_atom_site_fract_z
Si Si1 0.112198 0.953526 0.522366
Si Si2 0.655824 0.865313 0.801226
Si Si3 0.659063 0.890094 0.214187
Si Si4 0.111091 0.199252 0.037537
Si Si5 0.085730 0.181009 0.568106
Si Si6 0.412643 0.070001 0.543331
O O1 0.130517 0.924258 0.650347
O O2 0.162445 0.925646 0.410278
O O3 0.011692 0.938711 0.505238
O O4 0.129453 0.016716 0.512622
O O5 0.747079 0.874924 0.739436
O O6 0.590396 0.835926 0.710916
O O7 0.660001 0.828764 0.924481
O O8 0.624409 0.833098 0.164394
O O9 0.602876 0.923360 0.311013
O O10 0.131611 0.262099 0.049131
O O11 0.009732 0.190518 0.017324
O O12 0.119610 0.127340 0.504196
#
# Coordination Sequence:
#
# PCOD9532259 Si02
#       6
#    16  16  16  16  16  16
#     4  10  22  43  71  92 129 176 219 268 330 393
#     4  11  24  45  65  96 139 176 215 276 344 391
#     4  11  23  45  66  95 134 175 216 269 341 399
#     4  10  23  41  70  92 133 178 227 274 326 395
#     4  11  24  40  67 103 126 176 229 275 325 389
#     4  11  23  41  69  99 126 166 230 273 314 404
#
# _framework density 22.718447999999999
#
# number of rings (size 3 to 8) (size 9 to 14) (size 15 to 20)
#    0.000    1.333    3.333    3.500    2.333    3.333 
#   12.000    0.000    0.000    0.000    0.000    0.000 
#    0.000    0.000    0.000    0.000    0.000    0.000 
#
# Total GULP energy -267886.398070 kJ/mol
# GULP energy per Si atom -5580.966626 kJ/mol
# Density = 2.266674 g / cm^3
# Si number density = 22.718448 Si / 1000 Ang^3
#
#
#
# Elastic Constant Matrix: (Units=GPa)
#
#
# Indices 1 2 3 4 5 6 
#
# 1 48.3229 8.5409 4.2523 0.0000 -0.0001 0.0000
# 2 8.5409 196.4717 26.2550 -0.0007 0.0002 -0.0003
# 3 4.2523 26.2550 67.5402 -0.0028 0.0004 -0.0014
# 4 0.0000 -0.0007 -0.0028 24.2348 0.0001 -0.0004
# 5 -0.0001 0.0002 0.0004 0.0001 18.1936 0.0002
# 6 0.0000 -0.0003 -0.0014 -0.0004 0.0002 1.1678
#
#
#
# Elastic Compliance Matrix: (Units=1/GPa)
#
#
# Indices 1 2 3 4 5 6 
#
# 1 0.020920 -0.000774 -0.001016 0.000000 0.000000 -0.000001
# 2 -0.000774 0.005397 -0.002049 0.000000 0.000000 -0.000001
# 3 -0.001016 -0.002049 0.015667 0.000002 0.000000 0.000018
# 4 0.000000 0.000000 0.000002 0.041263 0.000000 0.000015
# 5 0.000000 0.000000 0.000000 0.000000 0.054964 -0.000008
# 6 -0.000001 -0.000001 0.000018 0.000015 -0.000008 0.856310
#
#
# Mechanical properties :
#
#
# Convention : Reuss Voigt Hill
#
# Bulk Modulus (GPa) = 29.14993 43.38127 36.26560
# Shear Modulus (GPa) = 4.93274 26.93835 15.93555
#
# Velocity S-wave (km/s) = 1.47511 3.44720 2.65134
# Velocity P-wave (km/s) = 3.96990 5.91447 5.03691
#
# Compressibility (1/GPa) = 0.03430540
#
# Stress axis : x y z
#
# Youngs Moduli (GPa) = 47.80049 185.27830 63.82986
#
# Poissons Ratio (x) = 0.14333 0.06488
# Poissons Ratio (y) = 0.03698 0.13081
# Poissons Ratio (z) = 0.04859 0.37971
#
# Static dielectric constant tensor:
#      x y z
#    x 1.888450 0.000000 0.000000 
#    y 0.000000 1.847790 0.000000 
#    z 0.000000 0.000000 1.906500 
# 
# From -- ./inp_files/12000.got.cif
#   From: 2010.05.17/outbox.cif.g08.bks.cpg/sg73_6_cif.got.tgz:12000.got - 2010.06.03 17:35:07.
