data_PCOD9532802
_publ_section_title
;
Structure prediction by ZEFSAII (Michael W. Deem and Ramdas Pophale) SiO2 
 PCOD9532802
Probable space group: I B C A 
;
_chemical_formula_sum "Si O2"
_cell_formula_units_Z 120
_cell_length_a 11.986759
_cell_length_b 25.708832
_cell_length_c 18.181882
_cell_angle_alpha 90.000000
_cell_angle_beta 90.000000
_cell_angle_gamma 90.000000
_cell_volume 5603.030091
_symmetry_space_group_name_H-M "I B C A "
_symmetry_group_IT_number 73
_symmetry_cell_setting 'orthorhombic'
loop_
_space_group_symop_operation_xyz
x,y,z
-x,1/2-y,z
x,-y,1/2-z
1/2-x,y,-z
-x,-y,-z
x,1/2+y,-z
-x,y,1/2+z
1/2+x,-y,z
1/2+x,1/2+y,1/2+z
1/2-x,-y,1/2+z
1/2+x,1/2-y,-z
-x,1/2+y,1/2-z
1/2-x,1/2-y,1/2-z
1/2+x,y,1/2-z
1/2-x,1/2+y,z
x,1/2-y,1/2+z
loop_
_atom_site_type_symbol
_atom_site_label
_atom_site_fract_x
_atom_site_fract_y
_atom_site_fract_z
Si Si1 0.464192 0.664446 0.516007
Si Si2 0.668633 0.450310 0.696943
Si Si3 0.534283 0.147955 0.254993
Si Si4 0.106248 0.410436 0.130672
Si Si5 0.750000 0.765489 0.500000
Si Si6 0.166695 0.809768 0.376927
Si Si7 0.385653 0.874157 0.382853
Si Si8 0.510465 0.016712 0.585536
O O1 0.399954 0.614748 0.550244
O O2 0.365019 0.702554 0.493163
O O3 0.554382 0.686016 0.574312
O O4 0.546314 0.647415 0.451841
O O5 0.683363 0.500000 0.750000
O O6 0.602715 0.404586 0.737989
O O7 0.779634 0.424279 0.668274
O O8 0.603628 0.465325 0.622630
O O9 0.450224 0.132281 0.318836
O O10 0.618822 0.190039 0.292569
O O11 0.453445 0.152726 0.184589
O O12 0.041811 0.464371 0.127682
O O13 0.766069 0.734048 0.422975
O O14 0.255698 0.857701 0.380856
O O15 0.403503 0.936667 0.392459
O O16 0.500000 0.000000 0.500000
#
# Coordination Sequence:
#
# PCOD9532802 Si02
#       8
#    16  16  16  16   8  16  16  16
#     4  11  25  45  74 104 138 181 240 302 369 432
#     4  11  24  39  66  96 145 194 238 279 352 430
#     4  10  24  43  66 101 142 184 238 286 359 427
#     4  11  24  41  65  97 142 187 231 289 345 422
#     4  12  26  46  82  98 136 180 240 308 384 432
#     4  11  24  48  76 105 134 186 243 306 365 447
#     4  11  23  43  73 102 145 184 234 294 364 426
#     4  11  24  41  61 101 142 187 239 284 341 429
#
# _framework density 21.416982999999998
#
# number of rings (size 3 to 8) (size 9 to 14) (size 15 to 20)
#    0.000    1.067    4.000    1.200    9.333    0.533 
#    2.400    0.667    5.867    0.000    0.000    0.000 
#    0.000    0.000    0.000    0.000    0.000    0.000 
#
# Total GULP energy -334289.665783 kJ/mol
# GULP energy per Si atom -5571.494430 kJ/mol
# Density = 2.136824 g / cm^3
# Si number density = 21.416983 Si / 1000 Ang^3
#
#
#
# Elastic Constant Matrix: (Units=GPa)
#
#
# Indices 1 2 3 4 5 6 
#
# 1 119.0056 39.4553 27.1683 0.0000 0.0000 0.0000
# 2 39.4553 63.8757 12.2446 0.0000 0.0000 0.0000
# 3 27.1683 12.2446 93.7828 0.0000 0.0000 0.0000
# 4 0.0000 0.0000 0.0000 -44.2652 0.0000 0.0000
# 5 0.0000 0.0000 0.0000 0.0000 32.3955 0.0000
# 6 0.0000 0.0000 0.0000 0.0000 0.0000 52.1255
#
#
#
# Elastic Compliance Matrix: (Units=1/GPa)
#
#
# Indices 1 2 3 4 5 6 
#
# 1 0.011058 -0.006376 -0.002371 0.000000 0.000000 0.000000
# 2 -0.006376 0.019734 -0.000729 0.000000 0.000000 0.000000
# 3 -0.002371 -0.000729 0.011445 0.000000 0.000000 0.000000
# 4 0.000000 0.000000 0.000000 -0.022591 0.000000 0.000000
# 5 0.000000 0.000000 0.000000 0.000000 0.030868 0.000000
# 6 0.000000 0.000000 0.000000 0.000000 0.000000 0.019184
#
#
# Mechanical properties :
#
#
# Convention : Reuss Voigt Hill
#
# Bulk Modulus (GPa) = 42.94795 48.26672 45.60733
# Shear Modulus (GPa) = 51.86035 21.23755 36.54895
#
# Velocity S-wave (km/s) = 4.92617 3.15242 4.13551
# Velocity P-wave (km/s) = 7.24244 5.98631 6.64413
#
# Compressibility (1/GPa) = 0.02328400
#
# Stress axis : x y z
#
# Youngs Moduli (GPa) = 90.43100 50.67499 87.37416
#
# Poissons Ratio (x) = 0.32310 0.20716
# Poissons Ratio (y) = 0.57659 0.06373
# Poissons Ratio (z) = 0.21441 0.03696
#
# Static dielectric constant tensor:
#      x y z
#    x 1.726250 0.000000 0.000000 
#    y 0.000000 1.766750 0.000000 
#    z 0.000000 0.000000 1.847870 
# 
# From -- ./inp_files/21525.got.cif
#   From: 2010.05.17/outbox.cif.g08.bks.cpg/sg73_11_cif.got.tgz:21525.got - 2010.06.03 17:35:07.
