data_PCOD9532459
_publ_section_title
;
Structure prediction by ZEFSAII (Michael W. Deem and Ramdas Pophale) SiO2 
 PCOD9532459
Probable space group: I B C A 
;
_chemical_formula_sum "Si O2"
_cell_formula_units_Z 72
_cell_length_a 19.269922
_cell_length_b 13.931649
_cell_length_c 11.581637
_cell_angle_alpha 90.000000
_cell_angle_beta 90.000000
_cell_angle_gamma 90.000000
_cell_volume 3109.226995
_symmetry_space_group_name_H-M "I B C A "
_symmetry_group_IT_number 73
_symmetry_cell_setting 'orthorhombic'
loop_
_space_group_symop_operation_xyz
x,y,z
-x,1/2-y,z
x,-y,1/2-z
1/2-x,y,-z
-x,-y,-z
x,1/2+y,-z
-x,y,1/2+z
1/2+x,-y,z
1/2+x,1/2+y,1/2+z
1/2-x,-y,1/2+z
1/2+x,1/2-y,-z
-x,1/2+y,1/2-z
1/2-x,1/2-y,1/2-z
1/2+x,y,1/2-z
1/2-x,1/2+y,z
x,1/2-y,1/2+z
loop_
_atom_site_type_symbol
_atom_site_label
_atom_site_fract_x
_atom_site_fract_y
_atom_site_fract_z
Si Si1 0.437646 0.519918 0.592103
Si Si2 0.968574 0.653109 0.268218
Si Si3 0.750000 0.787479 0.500000
Si Si4 0.632534 0.631828 0.534188
Si Si5 0.651155 0.577849 0.900586
O O1 0.500000 0.500000 0.500000
O O2 0.471456 0.578778 0.695812
O O3 0.337468 0.462819 0.397758
O O4 0.382785 0.589082 0.528087
O O5 0.000000 0.750000 0.218677
O O6 0.930030 0.671970 0.389166
O O7 0.910048 0.608943 0.185212
O O8 0.687878 0.714120 0.523624
O O9 0.780245 0.858084 0.599586
O O10 0.603533 0.582202 0.416449
#
# Coordination Sequence:
#
# PCOD9532459 Si02
#       5
#    16  16   8  16  16
#     4   8  19  38  63  90 127 166 207 271 341 383
#     4  11  21  39  67  98 131 166 225 279 344 403
#     4  12  22  42  66  92 130 184 234 246 340 410
#     4   9  22  41  63  92 135 178 213 283 330 402
#     4  10  23  40  66  96 132 176 217 282 330 402
#
# _framework density 23.156882
#
# number of rings (size 3 to 8) (size 9 to 14) (size 15 to 20)
#    1.333    0.889    0.000    2.667    0.000    5.333 
#    0.000    0.000    0.000    0.000    0.000    0.000 
#    0.000    0.000    0.000    0.000    0.000    0.000 
#
# Total GULP energy -200448.846754 kJ/mol
# GULP energy per Si atom -5568.023521 kJ/mol
# Density = 2.310418 g / cm^3
# Si number density = 23.156882 Si / 1000 Ang^3
#
#
#
# Elastic Constant Matrix: (Units=GPa)
#
#
# Indices 1 2 3 4 5 6 
#
# 1 84.5168 44.8337 20.5095 0.0000 0.0000 0.0000
# 2 44.8337 136.3196 22.2564 0.0000 0.0000 0.0000
# 3 20.5095 22.2564 45.3927 0.0000 0.0000 0.0000
# 4 0.0000 0.0000 0.0000 17.7319 0.0000 0.0000
# 5 0.0000 0.0000 0.0000 0.0000 15.4531 0.0000
# 6 0.0000 0.0000 0.0000 0.0000 0.0000 59.6253
#
#
#
# Elastic Compliance Matrix: (Units=1/GPa)
#
#
# Indices 1 2 3 4 5 6 
#
# 1 0.015243 -0.004227 -0.004814 0.000000 0.000000 0.000000
# 2 -0.004227 0.009146 -0.002575 0.000000 0.000000 0.000000
# 3 -0.004814 -0.002575 0.025468 0.000000 0.000000 0.000000
# 4 0.000000 0.000000 0.000000 0.056395 0.000000 0.000000
# 5 0.000000 0.000000 0.000000 0.000000 0.064712 0.000000
# 6 0.000000 0.000000 0.000000 0.000000 0.000000 0.016771
#
#
# Mechanical properties :
#
#
# Convention : Reuss Voigt Hill
#
# Bulk Modulus (GPa) = 37.55963 49.04758 43.30360
# Shear Modulus (GPa) = 22.74359 30.47070 26.60715
#
# Velocity S-wave (km/s) = 3.13733 3.63138 3.39336
# Velocity P-wave (km/s) = 5.42021 6.22970 5.83900
#
# Compressibility (1/GPa) = 0.02662433
#
# Stress axis : x y z
#
# Youngs Moduli (GPa) = 65.60563 109.33425 39.26558
#
# Poissons Ratio (x) = 0.46216 0.18904
# Poissons Ratio (y) = 0.27732 0.10109
# Poissons Ratio (z) = 0.31585 0.28149
#
# Static dielectric constant tensor:
#      x y z
#    x 1.897790 0.000000 0.000000 
#    y 0.000000 1.917580 0.000000 
#    z 0.000000 0.000000 1.992150 
# 
# From -- ./inp_files/11658.got.cif
#   From: 2010.05.17/outbox.cif.g08.bks.cpg/sg73_6_cif.got.tgz:11658.got - 2010.06.03 17:35:07.
