data_PCOD9532363
_publ_section_title
;
Structure prediction by ZEFSAII (Michael W. Deem and Ramdas Pophale) SiO2 
 PCOD9532363
Probable space group: I B C A 
;
_chemical_formula_sum "Si O2"
_cell_formula_units_Z 72
_cell_length_a 14.686655
_cell_length_b 11.798660
_cell_length_c 19.321194
_cell_angle_alpha 90.000000
_cell_angle_beta 90.000000
_cell_angle_gamma 90.000000
_cell_volume 3348.031540
_symmetry_space_group_name_H-M "I B C A "
_symmetry_group_IT_number 73
_symmetry_cell_setting 'orthorhombic'
loop_
_space_group_symop_operation_xyz
x,y,z
-x,1/2-y,z
x,-y,1/2-z
1/2-x,y,-z
-x,-y,-z
x,1/2+y,-z
-x,y,1/2+z
1/2+x,-y,z
1/2+x,1/2+y,1/2+z
1/2-x,-y,1/2+z
1/2+x,1/2-y,-z
-x,1/2+y,1/2-z
1/2-x,1/2-y,1/2-z
1/2+x,y,1/2-z
1/2-x,1/2+y,z
x,1/2-y,1/2+z
loop_
_atom_site_type_symbol
_atom_site_label
_atom_site_fract_x
_atom_site_fract_y
_atom_site_fract_z
Si Si1 0.205721 0.652206 0.422777
Si Si2 0.178560 0.834660 0.213454
Si Si3 0.500000 0.750000 0.860209
Si Si4 0.582205 0.162282 0.346485
Si Si5 0.539536 0.514118 0.425094
O O1 0.250000 0.666029 0.500000
O O2 0.273539 0.626748 0.358119
O O3 0.147090 0.764056 0.398607
O O4 0.137198 0.545801 0.423564
O O5 0.250000 0.750000 0.250000
O O6 0.086494 0.779315 0.185698
O O7 0.141270 0.890845 0.284186
O O8 0.466663 0.644230 0.904980
O O9 0.500000 0.250000 0.326924
O O10 0.528573 0.057427 0.377818
O O11 0.500000 0.500000 0.500000
#
# Coordination Sequence:
#
# PCOD9532363 Si02
#       5
#    16  16   8  16  16
#     4  10  22  45  74 109 140 184 247 307 364 441
#     4  10  22  46  73 106 144 186 240 303 363 441
#     4  12  26  48  70 106 148 192 248 298 372 440
#     4   9  20  44  72 103 141 187 239 294 368 433
#     4  11  26  45  73 104 144 198 242 299 371 440
#
# _framework density 21.505174
#
# number of rings (size 3 to 8) (size 9 to 14) (size 15 to 20)
#    0.000    1.778    1.111    1.333    7.778    0.889 
#   20.000    0.000    0.000    0.000    0.000    0.000 
#    0.000    0.000    0.000    0.000    0.000    0.000 
#
# Total GULP energy -200636.421898 kJ/mol
# GULP energy per Si atom -5573.233942 kJ/mol
# Density = 2.145623 g / cm^3
# Si number density = 21.505174 Si / 1000 Ang^3
#
#
#
# Elastic Constant Matrix: (Units=GPa)
#
#
# Indices 1 2 3 4 5 6 
#
# 1 151.2719 24.0110 79.3056 0.0000 0.0000 0.0000
# 2 24.0110 77.8433 32.2786 0.0000 0.0000 0.0000
# 3 79.3056 32.2786 173.4518 0.0000 0.0000 0.0000
# 4 0.0000 0.0000 0.0000 -16.5396 0.0000 0.0000
# 5 0.0000 0.0000 0.0000 0.0000 62.1051 0.0000
# 6 0.0000 0.0000 0.0000 0.0000 0.0000 23.8858
#
#
#
# Elastic Compliance Matrix: (Units=1/GPa)
#
#
# Indices 1 2 3 4 5 6 
#
# 1 0.008786 -0.001132 -0.003806 0.000000 0.000000 0.000000
# 2 -0.001132 0.014066 -0.002100 0.000000 0.000000 0.000000
# 3 -0.003806 -0.002100 0.007897 0.000000 0.000000 0.000000
# 4 0.000000 0.000000 0.000000 -0.060461 0.000000 0.000000
# 5 0.000000 0.000000 0.000000 0.000000 0.016102 0.000000
# 6 0.000000 0.000000 0.000000 0.000000 0.000000 0.041866
#
#
# Mechanical properties :
#
#
# Convention : Reuss Voigt Hill
#
# Bulk Modulus (GPa) = 59.98112 74.86193 67.42153
# Shear Modulus (GPa) = 104.40734 31.68838 68.04786
#
# Velocity S-wave (km/s) = 6.97533 3.84281 5.63127
# Velocity P-wave (km/s) = 9.63461 7.38758 8.58493
#
# Compressibility (1/GPa) = 0.01667191
#
# Stress axis : x y z
#
# Youngs Moduli (GPa) = 113.82014 71.09209 126.63802
#
# Poissons Ratio (x) = 0.08045 0.48204
# Poissons Ratio (y) = 0.12880 0.26597
# Poissons Ratio (z) = 0.43325 0.14931
#
# Static dielectric constant tensor:
#      x y z
#    x 1.777840 0.000000 0.000000 
#    y 0.000000 1.772010 0.000000 
#    z 0.000000 0.000000 1.788730 
# 
# From -- ./inp_files/25863.got.cif
#   From: 2010.05.17/outbox.cif.g08.bks.cpg/sg73_13_cif.got.tgz:25863.got - 2010.06.03 17:35:07.
