data_PCOD9532280
_publ_section_title
;
Structure prediction by ZEFSAII (Michael W. Deem and Ramdas Pophale) SiO2 
 PCOD9532280
Probable space group: I B C A 
;
_chemical_formula_sum "Si O2"
_cell_formula_units_Z 112
_cell_length_a 12.894081
_cell_length_b 13.453694
_cell_length_c 29.219093
_cell_angle_alpha 90.000000
_cell_angle_beta 90.000000
_cell_angle_gamma 90.000000
_cell_volume 5068.724310
_symmetry_space_group_name_H-M "I B C A "
_symmetry_group_IT_number 73
_symmetry_cell_setting 'orthorhombic'
loop_
_space_group_symop_operation_xyz
x,y,z
-x,1/2-y,z
x,-y,1/2-z
1/2-x,y,-z
-x,-y,-z
x,1/2+y,-z
-x,y,1/2+z
1/2+x,-y,z
1/2+x,1/2+y,1/2+z
1/2-x,-y,1/2+z
1/2+x,1/2-y,-z
-x,1/2+y,1/2-z
1/2-x,1/2-y,1/2-z
1/2+x,y,1/2-z
1/2-x,1/2+y,z
x,1/2-y,1/2+z
loop_
_atom_site_type_symbol
_atom_site_label
_atom_site_fract_x
_atom_site_fract_y
_atom_site_fract_z
Si Si1 0.235383 0.787763 0.608517
Si Si2 0.553790 0.046009 0.606901
Si Si3 0.467884 0.636205 0.480214
Si Si4 0.301119 0.400927 0.942708
Si Si5 0.172292 0.247998 0.791389
Si Si6 0.328981 0.902585 0.536183
Si Si7 0.003709 0.080300 0.291017
O O1 0.137297 0.862483 0.604432
O O2 0.234452 0.685950 0.580097
O O3 0.236280 0.762838 0.661667
O O4 0.330784 0.844255 0.583968
O O5 0.472505 0.078271 0.567934
O O6 0.508479 0.036907 0.657658
O O7 0.613729 0.946351 0.592330
O O8 0.500000 0.750000 0.471812
O O9 0.367844 0.633337 0.513198
O O10 0.436560 0.408169 0.489905
O O11 0.230553 0.495780 0.953441
O O12 0.250000 0.250000 0.750000
O O13 0.094388 0.154663 0.785984
O O14 0.103444 0.347753 0.791751
O O15 0.250000 0.850117 0.500000
O O16 0.007272 0.000000 0.250000
#
# Coordination Sequence:
#
# PCOD9532280 Si02
#       7
#    16  16  16  16  16  16  16
#     4  10  22  44  66  98 136 190 223 275 351 406
#     4  10  24  43  67  98 138 183 232 279 341 417
#     4  12  24  42  67 100 143 190 236 281 339 404
#     4  11  24  41  69 100 143 189 226 290 328 407
#     4  10  24  47  73 102 135 174 226 290 354 417
#     4  11  23  42  61  99 143 180 241 275 333 408
#     4  10  24  48  73 102 133 174 231 286 351 419
#
# _framework density 22.09629
#
# number of rings (size 3 to 8) (size 9 to 14) (size 15 to 20)
#    0.000    1.429    4.286    0.429    6.000    3.429 
#    7.714    0.000    0.000    0.000    0.000    0.000 
#    0.000    0.000    0.000    0.000    0.000    0.000 
#
# Total GULP energy -313207.519610 kJ/mol
# GULP energy per Si atom -5592.991422 kJ/mol
# Density = 2.204600 g / cm^3
# Si number density = 22.096290 Si / 1000 Ang^3
#
#
#
# Elastic Constant Matrix: (Units=GPa)
#
#
# Indices 1 2 3 4 5 6 
#
# 1 77.9185 -1.1203 52.8044 0.0000 0.0000 0.0000
# 2 -1.1203 91.6861 59.0732 0.0000 0.0000 0.0000
# 3 52.8044 59.0732 209.4731 0.0000 0.0000 0.0000
# 4 0.0000 0.0000 0.0000 45.6198 0.0000 0.0000
# 5 0.0000 0.0000 0.0000 0.0000 31.3490 0.0000
# 6 0.0000 0.0000 0.0000 0.0000 0.0000 13.0192
#
#
#
# Elastic Compliance Matrix: (Units=1/GPa)
#
#
# Indices 1 2 3 4 5 6 
#
# 1 0.016342 0.003488 -0.005103 0.000000 0.000000 0.000000
# 2 0.003488 0.014073 -0.004848 0.000000 0.000000 0.000000
# 3 -0.005103 -0.004848 0.007427 0.000000 0.000000 0.000000
# 4 0.000000 0.000000 0.000000 0.021920 0.000000 0.000000
# 5 0.000000 0.000000 0.000000 0.000000 0.031899 0.000000
# 6 0.000000 0.000000 0.000000 0.000000 0.000000 0.076810
#
#
# Mechanical properties :
#
#
# Convention : Reuss Voigt Hill
#
# Bulk Modulus (GPa) = 40.13487 66.73248 53.43367
# Shear Modulus (GPa) = 26.35690 35.88563 31.12127
#
# Velocity S-wave (km/s) = 3.45747 4.03433 3.75699
# Velocity P-wave (km/s) = 5.84310 7.20884 6.56160
#
# Compressibility (1/GPa) = 0.02491599
#
# Stress axis : x y z
#
# Youngs Moduli (GPa) = 61.19041 71.05882 134.63602
#
# Poissons Ratio (x) = -0.24783 0.68707
# Poissons Ratio (y) = -0.21341 0.65269
# Poissons Ratio (z) = 0.31227 0.34448
#
# Static dielectric constant tensor:
#      x y z
#    x 1.847210 0.000000 0.000000 
#    y 0.000000 1.885940 0.000000 
#    z 0.000000 0.000000 1.789800 
# 
# From -- ./inp_files/34319.got.cif
#   From: 2010.05.17/outbox.cif.g08.bks.cpg/sg73_18_cif.got.tgz:34319.got - 2010.06.03 17:35:07.
