data_PCOD9532401
_publ_section_title
;
Structure prediction by ZEFSAII (Michael W. Deem and Ramdas Pophale) SiO2 
 PCOD9532401
Probable space group: I B C A 
;
_chemical_formula_sum "Si O2"
_cell_formula_units_Z 112
_cell_length_a 14.695228
_cell_length_b 20.683414
_cell_length_c 15.821464
_cell_angle_alpha 90.000000
_cell_angle_beta 90.000000
_cell_angle_gamma 90.000000
_cell_volume 4808.894185
_symmetry_space_group_name_H-M "I B C A "
_symmetry_group_IT_number 73
_symmetry_cell_setting 'orthorhombic'
loop_
_space_group_symop_operation_xyz
x,y,z
-x,1/2-y,z
x,-y,1/2-z
1/2-x,y,-z
-x,-y,-z
x,1/2+y,-z
-x,y,1/2+z
1/2+x,-y,z
1/2+x,1/2+y,1/2+z
1/2-x,-y,1/2+z
1/2+x,1/2-y,-z
-x,1/2+y,1/2-z
1/2-x,1/2-y,1/2-z
1/2+x,y,1/2-z
1/2-x,1/2+y,z
x,1/2-y,1/2+z
loop_
_atom_site_type_symbol
_atom_site_label
_atom_site_fract_x
_atom_site_fract_y
_atom_site_fract_z
Si Si1 0.192195 0.867876 0.207527
Si Si2 0.988305 0.822735 0.783561
Si Si3 0.966208 0.839599 0.474206
Si Si4 0.846756 0.548314 0.049357
Si Si5 0.144095 0.411508 0.493673
Si Si6 0.823533 0.244837 0.924580
Si Si7 0.639485 0.621890 0.322954
O O1 0.115676 0.844819 0.274451
O O2 0.160122 0.923085 0.143101
O O3 0.210473 0.807394 0.144821
O O4 0.280726 0.889201 0.257427
O O5 0.000000 0.750000 0.749704
O O6 0.034392 0.822553 0.875626
O O7 0.045240 0.869292 0.723753
O O8 0.915141 0.906073 0.497483
O O9 0.913784 0.787283 0.532264
O O10 0.072408 0.855104 0.489277
O O11 0.750000 0.552094 0.000000
O O12 0.874436 0.473603 0.050394
O O13 0.250000 0.393813 0.500000
O O14 0.132191 0.431028 0.395822
O O15 0.838062 0.310567 0.872058
O O16 0.750000 0.249534 0.000000
#
# Coordination Sequence:
#
# PCOD9532401 Si02
#       7
#    16  16  16  16  16  16  16
#     4  11  23  44  68  99 138 179 224 290 340 404
#     4  12  26  40  62  99 141 176 221 273 351 405
#     4  11  24  42  68  95 136 184 227 280 336 414
#     4  10  22  47  72  94 130 180 235 283 346 406
#     4  11  25  44  68  97 133 180 236 280 332 410
#     4  11  23  39  68  98 133 183 223 274 350 422
#     4  12  24  42  66 104 138 174 226 284 344 407
#
# _framework density 23.290175999999999
#
# number of rings (size 3 to 8) (size 9 to 14) (size 15 to 20)
#    0.000    0.857    1.429    7.286    4.000    0.000 
#    0.000   11.429    0.000    0.000    0.000    0.000 
#    0.000    0.000    0.000    0.000    0.000    0.000 
#
# Total GULP energy -313444.120868 kJ/mol
# GULP energy per Si atom -5597.216444 kJ/mol
# Density = 2.323717 g / cm^3
# Si number density = 23.290176 Si / 1000 Ang^3
#
#
#
# Elastic Constant Matrix: (Units=GPa)
#
#
# Indices 1 2 3 4 5 6 
#
# 1 93.2912 7.2857 -7.7425 0.0000 0.0000 0.0000
# 2 7.2857 79.3024 2.4110 -0.0001 0.0000 0.0000
# 3 -7.7425 2.4110 83.9961 -0.0002 0.0000 0.0000
# 4 0.0000 -0.0001 -0.0002 -12.3659 0.0000 0.0000
# 5 0.0000 0.0000 0.0000 0.0000 48.6881 0.0000
# 6 0.0000 0.0000 0.0000 0.0000 0.0000 5.4811
#
#
#
# Elastic Compliance Matrix: (Units=1/GPa)
#
#
# Indices 1 2 3 4 5 6 
#
# 1 0.010885 -0.001031 0.001033 0.000000 0.000000 0.000000
# 2 -0.001031 0.012719 -0.000460 0.000000 0.000000 0.000000
# 3 0.001033 -0.000460 0.012014 0.000000 0.000000 0.000000
# 4 0.000000 0.000000 0.000000 -0.080868 0.000000 0.000000
# 5 0.000000 0.000000 0.000000 0.000000 0.020539 0.000000
# 6 0.000000 0.000000 0.000000 0.000000 0.000000 0.182445
#
#
# Mechanical properties :
#
#
# Convention : Reuss Voigt Hill
#
# Bulk Modulus (GPa) = 28.81795 28.94423 28.88109
# Shear Modulus (GPa) = 29.37406 25.33637 27.35521
#
# Velocity S-wave (km/s) = 3.55522 3.30184 3.43087
# Velocity P-wave (km/s) = 5.40861 5.19527 5.30302
#
# Compressibility (1/GPa) = 0.03470060
#
# Stress axis : x y z
#
# Youngs Moduli (GPa) = 91.86612 78.62429 83.23799
#
# Poissons Ratio (x) = 0.08110 -0.08598
# Poissons Ratio (y) = 0.09476 0.03830
# Poissons Ratio (z) = -0.09490 0.03618
#
# Static dielectric constant tensor:
#      x y z
#    x 1.994740 0.000000 0.000000 
#    y 0.000000 1.903690 0.000000 
#    z 0.000000 0.000000 1.889300 
# 
# From -- ./inp_files/17241.got.cif
#   From: 2010.05.17/outbox.cif.g08.bks.cpg/sg73_9_cif.got.tgz:17241.got - 2010.06.03 17:35:07.
