data_PCOD9532378
_publ_section_title
;
Structure prediction by ZEFSAII (Michael W. Deem and Ramdas Pophale) SiO2 
 PCOD9532378
Probable space group: I B C A 
;
_chemical_formula_sum "Si O2"
_cell_formula_units_Z 64
_cell_length_a 5.217728
_cell_length_b 21.980704
_cell_length_c 23.057410
_cell_angle_alpha 90.000000
_cell_angle_beta 90.000000
_cell_angle_gamma 90.000000
_cell_volume 2644.439013
_symmetry_space_group_name_H-M "I B C A "
_symmetry_group_IT_number 73
_symmetry_cell_setting 'orthorhombic'
loop_
_space_group_symop_operation_xyz
x,y,z
-x,1/2-y,z
x,-y,1/2-z
1/2-x,y,-z
-x,-y,-z
x,1/2+y,-z
-x,y,1/2+z
1/2+x,-y,z
1/2+x,1/2+y,1/2+z
1/2-x,-y,1/2+z
1/2+x,1/2-y,-z
-x,1/2+y,1/2-z
1/2-x,1/2-y,1/2-z
1/2+x,y,1/2-z
1/2-x,1/2+y,z
x,1/2-y,1/2+z
loop_
_atom_site_type_symbol
_atom_site_label
_atom_site_fract_x
_atom_site_fract_y
_atom_site_fract_z
Si Si1 0.442478 0.142636 0.878370
Si Si2 0.500000 0.750000 0.709853
Si Si3 0.150384 0.556369 0.556605
Si Si4 0.750000 0.351472 0.000000
Si Si5 0.626924 0.531092 0.334953
O O1 0.524255 0.192051 0.832195
O O2 0.664988 0.097612 0.901895
O O3 0.339634 0.175401 0.937661
O O4 0.241564 0.098601 0.843037
O O5 0.250000 0.750000 0.750000
O O6 0.250000 0.521978 0.500000
O O7 0.981138 0.607495 0.523095
O O8 0.950177 0.519720 0.597250
O O9 0.348605 0.512930 0.310360
#
# Coordination Sequence:
#
# PCOD9532378 Si02
#       5
#    16   8  16   8  16
#     4  10  22  46  69 102 150 176 246 284 352 431
#     4  12  32  52  80 104 130 190 242 306 362 412
#     4   9  18  35  59  97 145 190 227 274 338 416
#     4   8  18  36  66 102 144 188 218 290 356 404
#     4  11  21  35  63 101 140 190 224 280 348 416
#
# _framework density 24.201730000000001
#
# number of rings (size 3 to 8) (size 9 to 14) (size 15 to 20)
#    0.000    2.000    2.500    0.000    7.000    1.000 
#    9.000    0.000    0.000    4.500    0.000    0.000 
#    0.000    0.000    0.000    0.000    0.000    0.000 
#
# Total GULP energy -178172.188061 kJ/mol
# GULP energy per Si atom -5567.880877 kJ/mol
# Density = 2.414665 g / cm^3
# Si number density = 24.201730 Si / 1000 Ang^3
#
#
#
# Elastic Constant Matrix: (Units=GPa)
#
#
# Indices 1 2 3 4 5 6 
#
# 1 157.0304 47.3224 47.6659 0.0000 0.0000 0.0000
# 2 47.3224 111.4567 73.3339 0.0000 0.0000 0.0000
# 3 47.6659 73.3339 180.6336 0.0000 0.0000 0.0000
# 4 0.0000 0.0000 0.0000 75.4368 0.0000 0.0000
# 5 0.0000 0.0000 0.0000 0.0000 17.9210 0.0000
# 6 0.0000 0.0000 0.0000 0.0000 0.0000 24.7296
#
#
#
# Elastic Compliance Matrix: (Units=1/GPa)
#
#
# Indices 1 2 3 4 5 6 
#
# 1 0.007414 -0.002539 -0.000926 0.000000 0.000000 0.000000
# 2 -0.002539 0.013112 -0.004653 0.000000 0.000000 0.000000
# 3 -0.000926 -0.004653 0.007669 0.000000 0.000000 0.000000
# 4 0.000000 0.000000 0.000000 0.013256 0.000000 0.000000
# 5 0.000000 0.000000 0.000000 0.000000 0.055800 0.000000
# 6 0.000000 0.000000 0.000000 0.000000 0.000000 0.040437
#
#
# Mechanical properties :
#
#
# Convention : Reuss Voigt Hill
#
# Bulk Modulus (GPa) = 83.61292 87.30723 85.46007
# Shear Modulus (GPa) = 31.66333 42.33739 37.00036
#
# Velocity S-wave (km/s) = 3.62098 4.18707 3.91427
# Velocity P-wave (km/s) = 7.21840 7.71547 7.47107
#
# Compressibility (1/GPa) = 0.01195987
#
# Stress axis : x y z
#
# Youngs Moduli (GPa) = 134.87423 76.26839 130.38758
#
# Poissons Ratio (x) = 0.19363 0.12071
# Poissons Ratio (y) = 0.34243 0.60671
# Poissons Ratio (z) = 0.12486 0.35489
#
# Static dielectric constant tensor:
#      x y z
#    x 2.252080 0.000000 0.000000 
#    y 0.000000 1.917570 0.000000 
#    z 0.000000 0.000000 2.077730 
# 
# From -- ./inp_files/24405.got.cif
#   From: 2010.05.17/outbox.cif.g08.bks.cpg/sg73_13_cif.got.tgz:24405.got - 2010.06.03 17:35:07.
