data_PCOD9532671
_publ_section_title
;
Structure prediction by ZEFSAII (Michael W. Deem and Ramdas Pophale) SiO2 
 PCOD9532671
Probable space group: I B C A 
;
_chemical_formula_sum "Si O2"
_cell_formula_units_Z 56
_cell_length_a 9.869573
_cell_length_b 13.275265
_cell_length_c 19.018270
_cell_angle_alpha 90.000000
_cell_angle_beta 90.000000
_cell_angle_gamma 90.000000
_cell_volume 2491.796500
_symmetry_space_group_name_H-M "I B C A "
_symmetry_group_IT_number 73
_symmetry_cell_setting 'orthorhombic'
loop_
_space_group_symop_operation_xyz
x,y,z
-x,1/2-y,z
x,-y,1/2-z
1/2-x,y,-z
-x,-y,-z
x,1/2+y,-z
-x,y,1/2+z
1/2+x,-y,z
1/2+x,1/2+y,1/2+z
1/2-x,-y,1/2+z
1/2+x,1/2-y,-z
-x,1/2+y,1/2-z
1/2-x,1/2-y,1/2-z
1/2+x,y,1/2-z
1/2-x,1/2+y,z
x,1/2-y,1/2+z
loop_
_atom_site_type_symbol
_atom_site_label
_atom_site_fract_x
_atom_site_fract_y
_atom_site_fract_z
Si Si1 0.250000 0.656333 0.500000
Si Si2 0.579043 0.981513 0.590752
Si Si3 0.685716 0.544683 0.677544
Si Si4 0.362731 0.798101 0.378468
O O1 0.370261 0.584287 0.526485
O O2 0.295103 0.724161 0.434366
O O3 0.433644 0.953935 0.620803
O O4 0.694571 0.970039 0.651448
O O5 0.592458 0.101059 0.579254
O O6 0.632244 0.500000 0.750000
O O7 0.757602 0.654062 0.677255
O O8 0.500000 0.750000 0.348133
#
# Coordination Sequence:
#
# PCOD9532671 Si02
#       4
#     8  16  16  16
#     4  12  24  44  70 112 154 182 258 296 400 448
#     4  10  24  43  74 105 143 201 231 323 369 432
#     4  10  23  47  75  99 146 201 248 296 370 442
#     4  10  25  42  71 108 144 192 245 316 375 450
#
# _framework density 22.473745999999998
#
# number of rings (size 3 to 8) (size 9 to 14) (size 15 to 20)
#    1.714    0.000    0.000    3.429    4.000    2.286 
#    0.000    5.714    0.000    0.000    0.000    0.000 
#    0.000    0.000    0.000    0.000    0.000    0.000 
#
# Total GULP energy -156239.986926 kJ/mol
# GULP energy per Si atom -5579.999533 kJ/mol
# Density = 2.242259 g / cm^3
# Si number density = 22.473746 Si / 1000 Ang^3
#
#
#
# Elastic Constant Matrix: (Units=GPa)
#
#
# Indices 1 2 3 4 5 6 
#
# 1 118.7476 39.8680 11.8551 0.0000 0.0000 0.0000
# 2 39.8680 127.4488 32.0200 0.0000 0.0000 0.0000
# 3 11.8551 32.0200 52.6110 0.0000 0.0000 0.0000
# 4 0.0000 0.0000 0.0000 59.3855 0.0000 0.0000
# 5 0.0000 0.0000 0.0000 0.0000 31.4192 0.0000
# 6 0.0000 0.0000 0.0000 0.0000 0.0000 21.1759
#
#
#
# Elastic Compliance Matrix: (Units=1/GPa)
#
#
# Indices 1 2 3 4 5 6 
#
# 1 0.009416 -0.002848 -0.000388 0.000000 0.000000 0.000000
# 2 -0.002848 0.010124 -0.005520 0.000000 0.000000 0.000000
# 3 -0.000388 -0.005520 0.022454 0.000000 0.000000 0.000000
# 4 0.000000 0.000000 0.000000 0.016839 0.000000 0.000000
# 5 0.000000 0.000000 0.000000 0.000000 0.031828 0.000000
# 6 0.000000 0.000000 0.000000 0.000000 0.000000 0.047223
#
#
# Mechanical properties :
#
#
# Convention : Reuss Voigt Hill
#
# Bulk Modulus (GPa) = 40.84633 51.81039 46.32836
# Shear Modulus (GPa) = 30.57019 36.73377 33.65198
#
# Velocity S-wave (km/s) = 3.69217 4.04730 3.87381
# Velocity P-wave (km/s) = 6.03248 6.70408 6.37713
#
# Compressibility (1/GPa) = 0.02448201
#
# Stress axis : x y z
#
# Youngs Moduli (GPa) = 106.20044 98.77555 44.53454
#
# Poissons Ratio (x) = 0.28130 0.01730
# Poissons Ratio (y) = 0.30245 0.24583
# Poissons Ratio (z) = 0.04126 0.54523
#
# Static dielectric constant tensor:
#      x y z
#    x 1.867140 0.000000 0.000000 
#    y 0.000000 1.831690 0.000000 
#    z 0.000000 0.000000 1.845140 
# 
# From -- ./inp_files/18404.got.cif
#   From: 2010.05.17/outbox.cif.g08.bks.cpg/sg73_10_cif.got.tgz:18404.got - 2010.06.03 17:35:07.
