data_PCOD9532098
_publ_section_title
;
Structure prediction by ZEFSAII (Michael W. Deem and Ramdas Pophale) SiO2 
 PCOD9532098
Probable space group: I B C A 
;
_chemical_formula_sum "Si O2"
_cell_formula_units_Z 88
_cell_length_a 9.849163
_cell_length_b 23.480124
_cell_length_c 18.424841
_cell_angle_alpha 90.000000
_cell_angle_beta 90.000000
_cell_angle_gamma 90.000000
_cell_volume 4260.920780
_symmetry_space_group_name_H-M "I B C A "
_symmetry_group_IT_number 73
_symmetry_cell_setting 'orthorhombic'
loop_
_space_group_symop_operation_xyz
x,y,z
-x,1/2-y,z
x,-y,1/2-z
1/2-x,y,-z
-x,-y,-z
x,1/2+y,-z
-x,y,1/2+z
1/2+x,-y,z
1/2+x,1/2+y,1/2+z
1/2-x,-y,1/2+z
1/2+x,1/2-y,-z
-x,1/2+y,1/2-z
1/2-x,1/2-y,1/2-z
1/2+x,y,1/2-z
1/2-x,1/2+y,z
x,1/2-y,1/2+z
loop_
_atom_site_type_symbol
_atom_site_label
_atom_site_fract_x
_atom_site_fract_y
_atom_site_fract_z
Si Si1 0.750000 0.371031 0.500000
Si Si2 0.057975 0.631195 0.232120
Si Si3 0.853519 0.242163 0.055666
Si Si4 0.612402 0.530603 0.170974
Si Si5 0.590340 0.055630 0.110814
Si Si6 0.178138 0.199447 0.208549
O O1 0.688352 0.324950 0.442203
O O2 0.863738 0.410397 0.461721
O O3 0.061443 0.592597 0.304750
O O4 0.211077 0.648408 0.210964
O O5 0.982414 0.599165 0.166364
O O6 0.960683 0.682837 0.252632
O O7 0.850214 0.276221 0.129494
O O8 0.000000 0.250000 0.021984
O O9 0.750000 0.269481 0.000000
O O10 0.611918 0.500000 0.250000
O O11 0.514341 0.497597 0.114821
O O12 0.765579 0.534379 0.142686
O O13 0.250000 0.250000 0.250000
#
# Coordination Sequence:
#
# PCOD9532098 Si02
#       6
#     8  16  16  16  16  16
#     4  10  26  42  66  88 136 186 218 278 336 410
#     4  11  23  39  69 100 134 168 222 285 347 399
#     4  10  25  43  65  94 142 182 232 279 342 409
#     4  10  22  41  66  98 125 164 216 288 340 399
#     4  11  23  42  67  94 133 172 225 274 347 404
#     4  12  24  39  67 102 133 176 228 277 341 413
#
# _framework density 20.652813999999999
#
# number of rings (size 3 to 8) (size 9 to 14) (size 15 to 20)
#    0.545    0.727    1.818    4.364    7.636    0.727 
#    0.000    0.000    2.000    0.000    0.000    0.000 
#    0.000    0.000    0.000    0.000    0.000    0.000 
#
# Total GULP energy -245427.820404 kJ/mol
# GULP energy per Si atom -5577.905009 kJ/mol
# Density = 2.060581 g / cm^3
# Si number density = 20.652814 Si / 1000 Ang^3
#
#
#
# Elastic Constant Matrix: (Units=GPa)
#
#
# Indices 1 2 3 4 5 6 
#
# 1 114.2957 17.6275 6.9454 0.0000 0.0000 0.0000
# 2 17.6275 70.8781 5.5086 0.0000 0.0000 0.0000
# 3 6.9454 5.5086 32.0312 0.0001 0.0000 0.0000
# 4 0.0000 0.0000 0.0001 -40.6563 0.0000 0.0000
# 5 0.0000 0.0000 0.0000 0.0000 21.3787 0.0000
# 6 0.0000 0.0000 0.0000 0.0000 0.0000 6.9232
#
#
#
# Elastic Compliance Matrix: (Units=1/GPa)
#
#
# Indices 1 2 3 4 5 6 
#
# 1 0.009180 -0.002157 -0.001620 0.000000 0.000000 0.000000
# 2 -0.002157 0.014807 -0.002079 0.000000 0.000000 0.000000
# 3 -0.001620 -0.002079 0.031928 0.000000 0.000000 0.000000
# 4 0.000000 0.000000 0.000000 -0.024596 0.000000 0.000000
# 5 0.000000 0.000000 0.000000 0.000000 0.046776 0.000000
# 6 0.000000 0.000000 0.000000 0.000000 0.000000 0.144441
#
#
# Mechanical properties :
#
#
# Convention : Reuss Voigt Hill
#
# Bulk Modulus (GPa) = 22.62222 30.81867 26.72045
# Shear Modulus (GPa) = 20.08179 10.00401 15.04290
#
# Velocity S-wave (km/s) = 3.12164 2.20327 2.70176
# Velocity P-wave (km/s) = 4.89594 4.62895 4.76432
#
# Compressibility (1/GPa) = 0.04420433
#
# Stress axis : x y z
#
# Youngs Moduli (GPa) = 108.92804 67.53656 31.32024
#
# Poissons Ratio (x) = 0.14570 0.05073
# Poissons Ratio (y) = 0.23499 0.06510
# Poissons Ratio (z) = 0.17642 0.14038
#
# Static dielectric constant tensor:
#      x y z
#    x 1.716590 0.000000 0.000000 
#    y 0.000000 1.833090 0.000000 
#    z 0.000000 0.000000 1.718720 
# 
# From -- ./inp_files/24782.got.cif
#   From: 2010.05.17/outbox.cif.g08.bks.cpg/sg73_13_cif.got.tgz:24782.got - 2010.06.03 17:35:07.
