data_PCOD9532567
_publ_section_title
;
Structure prediction by ZEFSAII (Michael W. Deem and Ramdas Pophale) SiO2 
 PCOD9532567
Probable space group: I B C A 
;
_chemical_formula_sum "Si O2"
_cell_formula_units_Z 120
_cell_length_a 22.238441
_cell_length_b 29.639222
_cell_length_c 8.797903
_cell_angle_alpha 90.000000
_cell_angle_beta 90.000000
_cell_angle_gamma 90.000000
_cell_volume 5798.962594
_symmetry_space_group_name_H-M "I B C A "
_symmetry_group_IT_number 73
_symmetry_cell_setting 'orthorhombic'
loop_
_space_group_symop_operation_xyz
x,y,z
-x,1/2-y,z
x,-y,1/2-z
1/2-x,y,-z
-x,-y,-z
x,1/2+y,-z
-x,y,1/2+z
1/2+x,-y,z
1/2+x,1/2+y,1/2+z
1/2-x,-y,1/2+z
1/2+x,1/2-y,-z
-x,1/2+y,1/2-z
1/2-x,1/2-y,1/2-z
1/2+x,y,1/2-z
1/2-x,1/2+y,z
x,1/2-y,1/2+z
loop_
_atom_site_type_symbol
_atom_site_label
_atom_site_fract_x
_atom_site_fract_y
_atom_site_fract_z
Si Si1 0.803552 0.734470 0.603493
Si Si2 0.120915 0.297403 0.677215
Si Si3 0.496761 0.402057 0.454512
Si Si4 0.436040 0.656475 0.786838
Si Si5 0.674578 0.122619 0.153006
Si Si6 0.199804 0.346347 0.190250
Si Si7 0.420813 0.449383 0.190696
Si Si8 0.000000 0.750000 0.267496
O O1 0.750000 0.753851 0.500000
O O2 0.842983 0.708782 0.477235
O O3 0.847168 0.767667 0.692098
O O4 0.778305 0.700429 0.731376
O O5 0.129968 0.347033 0.744256
O O6 0.054304 0.277749 0.654924
O O7 0.459343 0.373882 0.576460
O O8 0.537978 0.365673 0.367446
O O9 0.454563 0.424837 0.330152
O O10 0.536496 0.439083 0.545003
O O11 0.364743 0.650261 0.770004
O O12 0.462635 0.707358 0.803623
O O13 0.742563 0.121777 0.217861
O O14 0.642017 0.074733 0.147910
O O15 0.683487 0.146799 0.988158
O O16 0.413118 0.500000 0.250000
#
# Coordination Sequence:
#
# PCOD9532567 Si02
#       8
#    16  16  16  16  16  16  16   8
#     4  12  25  42  64  95 128 180 238 285 321 394
#     4  12  26  40  62  93 135 174 233 279 343 399
#     4  10  23  43  72 101 139 180 219 273 353 421
#     4  11  24  42  64 100 139 183 227 276 334 408
#     4  11  25  45  70  94 127 186 224 287 348 414
#     4  11  24  45  68  90 137 179 235 275 338 407
#     4  11  23  45  75 108 137 171 227 290 358 433
#     4  12  28  38  62  96 140 182 224 284 328 390
#
# _framework density 20.693356000000001
#
# number of rings (size 3 to 8) (size 9 to 14) (size 15 to 20)
#    0.000    0.800    4.000    3.200    5.600    1.067 
#    0.000    0.000    5.867    0.000    0.000    0.000 
#    0.000    0.000    0.000    0.000    0.000    0.000 
#
# Total GULP energy -334824.788519 kJ/mol
# GULP energy per Si atom -5580.413142 kJ/mol
# Density = 2.064626 g / cm^3
# Si number density = 20.693356 Si / 1000 Ang^3
#
#
#
# Elastic Constant Matrix: (Units=GPa)
#
#
# Indices 1 2 3 4 5 6 
#
# 1 153.3868 44.5981 50.1005 0.0000 0.0000 0.0000
# 2 44.5981 95.4605 39.4058 0.0000 0.0000 0.0000
# 3 50.1005 39.4058 116.4598 0.0000 0.0000 0.0000
# 4 0.0000 0.0000 0.0000 18.5281 0.0000 0.0000
# 5 0.0000 0.0000 0.0000 0.0000 -1.8427 0.0000
# 6 0.0000 0.0000 0.0000 0.0000 0.0000 25.8672
#
#
#
# Elastic Compliance Matrix: (Units=1/GPa)
#
#
# Indices 1 2 3 4 5 6 
#
# 1 0.008161 -0.002747 -0.002581 0.000000 0.000000 0.000000
# 2 -0.002747 0.013101 -0.003251 0.000000 0.000000 0.000000
# 3 -0.002581 -0.003251 0.010797 0.000000 0.000000 0.000000
# 4 0.000000 0.000000 0.000000 0.053972 0.000000 0.000000
# 5 0.000000 0.000000 0.000000 0.000000 -0.542696 0.000000
# 6 0.000000 0.000000 0.000000 0.000000 0.000000 0.038659
#
#
# Mechanical properties :
#
#
# Convention : Reuss Voigt Hill
#
# Bulk Modulus (GPa) = 67.11350 70.39068 68.75209
# Shear Modulus (GPa) = -12.63012 23.92403 5.64696
#
# Velocity S-wave (km/s) = -2.47320 3.40387 1.65372
# Velocity P-wave (km/s) = 4.93429 7.03835 6.07806
#
# Compressibility (1/GPa) = 0.01490013
#
# Stress axis : x y z
#
# Youngs Moduli (GPa) = 122.52747 76.32962 92.61659
#
# Poissons Ratio (x) = 0.20970 0.23908
# Poissons Ratio (y) = 0.33662 0.30110
# Poissons Ratio (z) = 0.31629 0.24815
#
# Static dielectric constant tensor:
#      x y z
#    x 1.802780 0.000000 0.000000 
#    y 0.000000 1.743740 0.000000 
#    z 0.000000 0.000000 1.756560 
# 
# From -- ./inp_files/7386.got.cif
#   From: 2010.05.17/outbox.cif.g08.bks.cpg/sg73_4_cif.got.tgz:7386.got - 2010.06.03 17:35:07.
