data_PCOD9532175
_publ_section_title
;
Structure prediction by ZEFSAII (Michael W. Deem and Ramdas Pophale) SiO2 
 PCOD9532175
Probable space group: I B C A 
;
_chemical_formula_sum "Si O2"
_cell_formula_units_Z 80
_cell_length_a 24.368926
_cell_length_b 12.359035
_cell_length_c 13.172787
_cell_angle_alpha 90.000000
_cell_angle_beta 90.000000
_cell_angle_gamma 90.000000
_cell_volume 3967.332690
_symmetry_space_group_name_H-M "I B C A "
_symmetry_group_IT_number 73
_symmetry_cell_setting 'orthorhombic'
loop_
_space_group_symop_operation_xyz
x,y,z
-x,1/2-y,z
x,-y,1/2-z
1/2-x,y,-z
-x,-y,-z
x,1/2+y,-z
-x,y,1/2+z
1/2+x,-y,z
1/2+x,1/2+y,1/2+z
1/2-x,-y,1/2+z
1/2+x,1/2-y,-z
-x,1/2+y,1/2-z
1/2-x,1/2-y,1/2-z
1/2+x,y,1/2-z
1/2-x,1/2+y,z
x,1/2-y,1/2+z
loop_
_atom_site_type_symbol
_atom_site_label
_atom_site_fract_x
_atom_site_fract_y
_atom_site_fract_z
Si Si1 0.470271 0.000000 0.750000
Si Si2 0.112923 0.820006 0.298092
Si Si3 0.750000 0.971290 0.500000
Si Si4 0.423490 0.101860 0.187505
Si Si5 0.215643 0.312982 0.835015
Si Si6 0.658046 0.647992 0.487083
O O1 0.431953 0.085772 0.806072
O O2 0.512517 0.069245 0.680943
O O3 0.086741 0.711285 0.251003
O O4 0.161565 0.856877 0.222038
O O5 0.139281 0.800180 0.407638
O O6 0.749957 0.900487 0.397494
O O7 0.696285 0.045180 0.493091
O O8 0.394026 0.115375 0.080670
O O9 0.398534 0.000000 0.250000
O O10 0.250000 0.250000 0.750000
O O11 0.193579 0.229467 0.919032
#
# Coordination Sequence:
#
# PCOD9532175 Si02
#       6
#     8  16   8  16  16  16
#     4  10  22  42  68  96 128 174 216 286 338 392
#     4  11  22  44  64  97 134 166 226 279 336 408
#     4  12  24  40  66  94 132 174 226 268 332 408
#     4   9  24  43  67  92 131 175 216 277 338 405
#     4  11  25  40  63  92 136 173 217 275 330 403
#     4  11  25  40  66  97 126 179 219 272 341 401
#
# _framework density 20.164681999999999
#
# number of rings (size 3 to 8) (size 9 to 14) (size 15 to 20)
#    0.600    0.800    0.000    4.800    8.400    2.400 
#    0.000    4.000    0.000    0.000    0.000    0.000 
#    0.000    0.000    0.000    0.000    0.000    0.000 
#
# Total GULP energy -223449.265495 kJ/mol
# GULP energy per Si atom -5586.231637 kJ/mol
# Density = 2.011879 g / cm^3
# Si number density = 20.164682 Si / 1000 Ang^3
#
#
#
# Elastic Constant Matrix: (Units=GPa)
#
#
# Indices 1 2 3 4 5 6 
#
# 1 103.4779 42.8174 40.6709 0.0000 0.0000 0.0000
# 2 42.8174 82.3292 45.0811 0.0000 0.0000 0.0000
# 3 40.6709 45.0811 116.2012 0.0000 0.0000 0.0000
# 4 0.0000 0.0000 0.0000 27.9094 0.0000 0.0000
# 5 0.0000 0.0000 0.0000 0.0000 12.7509 0.0000
# 6 0.0000 0.0000 0.0000 0.0000 0.0000 32.5799
#
#
#
# Elastic Compliance Matrix: (Units=1/GPa)
#
#
# Indices 1 2 3 4 5 6 
#
# 1 0.012826 -0.005349 -0.002414 0.000000 0.000000 0.000000
# 2 -0.005349 0.017653 -0.004977 0.000000 0.000000 0.000000
# 3 -0.002414 -0.004977 0.011381 0.000000 0.000000 0.000000
# 4 0.000000 0.000000 0.000000 0.035830 0.000000 0.000000
# 5 0.000000 0.000000 0.000000 0.000000 0.078426 0.000000
# 6 0.000000 0.000000 0.000000 0.000000 0.000000 0.030694
#
#
# Mechanical properties :
#
#
# Convention : Reuss Voigt Hill
#
# Bulk Modulus (GPa) = 61.04322 62.12745 61.58533
# Shear Modulus (GPa) = 22.96222 26.21065 24.58643
#
# Velocity S-wave (km/s) = 3.37817 3.60923 3.49561
# Velocity P-wave (km/s) = 6.74938 6.94591 6.84835
#
# Compressibility (1/GPa) = 0.01638184
#
# Stress axis : x y z
#
# Youngs Moduli (GPa) = 77.96747 56.64749 87.86243
#
# Poissons Ratio (x) = 0.30298 0.21211
# Poissons Ratio (y) = 0.41701 0.43726
# Poissons Ratio (z) = 0.18822 0.28191
#
# Static dielectric constant tensor:
#      x y z
#    x 1.725660 0.000000 0.000000 
#    y 0.000000 1.726430 0.000000 
#    z 0.000000 0.000000 1.683750 
# 
# From -- ./inp_files/14183.got.cif
#   From: 2010.05.17/outbox.cif.g08.bks.cpg/sg73_8_cif.got.tgz:14183.got - 2010.06.03 17:35:07.
