data_PCOD9532366
_publ_section_title
;
Structure prediction by ZEFSAII (Michael W. Deem and Ramdas Pophale) SiO2 
 PCOD9532366
Probable space group: I B C A 
;
_chemical_formula_sum "Si O2"
_cell_formula_units_Z 96
_cell_length_a 20.893303
_cell_length_b 25.936968
_cell_length_c 8.787710
_cell_angle_alpha 90.000000
_cell_angle_beta 90.000000
_cell_angle_gamma 90.000000
_cell_volume 4762.138535
_symmetry_space_group_name_H-M "I B C A "
_symmetry_group_IT_number 73
_symmetry_cell_setting 'orthorhombic'
loop_
_space_group_symop_operation_xyz
x,y,z
-x,1/2-y,z
x,-y,1/2-z
1/2-x,y,-z
-x,-y,-z
x,1/2+y,-z
-x,y,1/2+z
1/2+x,-y,z
1/2+x,1/2+y,1/2+z
1/2-x,-y,1/2+z
1/2+x,1/2-y,-z
-x,1/2+y,1/2-z
1/2-x,1/2-y,1/2-z
1/2+x,y,1/2-z
1/2-x,1/2+y,z
x,1/2-y,1/2+z
loop_
_atom_site_type_symbol
_atom_site_label
_atom_site_fract_x
_atom_site_fract_y
_atom_site_fract_z
Si Si1 0.683437 0.315139 0.787061
Si Si2 0.019279 0.557823 0.066478
Si Si3 0.250000 0.058662 0.500000
Si Si4 0.250000 0.395362 0.500000
Si Si5 0.750000 0.766397 0.500000
Si Si6 0.583931 0.599200 0.716696
Si Si7 0.830368 0.500000 0.250000
Si Si8 0.345953 0.060295 0.237225
O O1 0.723250 0.360155 0.865939
O O2 0.698478 0.268116 0.904046
O O3 0.711768 0.298835 0.625197
O O4 0.616073 0.344707 0.770570
O O5 0.077911 0.562693 0.191131
O O6 0.956531 0.582122 0.138731
O O7 0.040010 0.594496 0.929963
O O8 0.000000 0.500000 0.000000
O O9 0.289236 0.023722 0.615582
O O10 0.307165 0.083127 0.388291
O O11 0.192859 0.422636 0.411808
O O12 0.629926 0.549373 0.696583
O O13 0.336429 0.000000 0.250000
#
# Coordination Sequence:
#
# PCOD9532366 Si02
#       8
#    16  16   8   8   8  16   8  16
#     4  10  22  45  76 109 133 177 227 304 380 450
#     4  12  25  44  61  94 147 206 244 283 327 416
#     4  12  27  34  58  85 130 186 239 300 346 383
#     4  11  23  42  65 101 136 169 237 294 357 431
#     4   9  22  48  79 110 140 165 228 320 409 436
#     4  12  25  41  67  95 142 197 242 281 346 430
#     4  12  26  40  58  96 146 186 240 286 348 424
#     4  12  24  39  58  91 141 191 234 289 339 405
#
# _framework density 20.159009999999999
#
# number of rings (size 3 to 8) (size 9 to 14) (size 15 to 20)
#    0.000    0.667    4.167    3.500    2.333    3.333 
#    0.000    0.000    0.000    3.000    0.000    0.000 
#    0.000    0.000    0.000    0.000    0.000    0.000 
#
# Total GULP energy -267300.432863 kJ/mol
# GULP energy per Si atom -5568.759018 kJ/mol
# Density = 2.011313 g / cm^3
# Si number density = 20.159010 Si / 1000 Ang^3
#
#
#
# Elastic Constant Matrix: (Units=GPa)
#
#
# Indices 1 2 3 4 5 6 
#
# 1 102.2025 43.7801 59.1351 0.0000 0.0000 0.0000
# 2 43.7801 82.2900 53.8785 0.0000 0.0000 0.0000
# 3 59.1351 53.8785 149.4288 0.0000 0.0000 0.0000
# 4 0.0000 0.0000 0.0000 18.3520 0.0000 0.0000
# 5 0.0000 0.0000 0.0000 0.0000 51.4799 0.0000
# 6 0.0000 0.0000 0.0000 0.0000 0.0000 93.1207
#
#
#
# Elastic Compliance Matrix: (Units=1/GPa)
#
#
# Indices 1 2 3 4 5 6 
#
# 1 0.014129 -0.005048 -0.003771 0.000000 0.000000 0.000000
# 2 -0.005048 0.017711 -0.004388 0.000000 0.000000 0.000000
# 3 -0.003771 -0.004388 0.009767 0.000000 0.000000 0.000000
# 4 0.000000 0.000000 0.000000 0.054490 0.000000 0.000000
# 5 0.000000 0.000000 0.000000 0.000000 0.019425 0.000000
# 6 0.000000 0.000000 0.000000 0.000000 0.000000 0.010739
#
#
# Mechanical properties :
#
#
# Convention : Reuss Voigt Hill
#
# Bulk Modulus (GPa) = 65.82429 71.94540 68.88484
# Shear Modulus (GPa) = 31.69795 44.39902 38.04849
#
# Velocity S-wave (km/s) = 3.96965 4.69811 4.34916
# Velocity P-wave (km/s) = 7.33036 8.07441 7.71136
#
# Compressibility (1/GPa) = 0.01519196
#
# Stress axis : x y z
#
# Youngs Moduli (GPa) = 70.77705 56.46284 102.38656
#
# Poissons Ratio (x) = 0.28500 0.38614
# Poissons Ratio (y) = 0.35725 0.44930
# Poissons Ratio (z) = 0.26693 0.24778
#
# Static dielectric constant tensor:
#      x y z
#    x 1.462380 0.000000 0.000000 
#    y 0.000000 1.715080 0.000000 
#    z 0.000000 0.000000 1.806550 
# 
# From -- ./inp_files/6522.got.cif
#   From: 2010.05.17/outbox.cif.g08.bks.cpg/sg73_4_cif.got.tgz:6522.got - 2010.06.03 17:35:07.
