data_PCOD9533125
_publ_section_title
;
Structure prediction by ZEFSAII (Michael W. Deem and Ramdas Pophale) SiO2 
 PCOD9533125
Probable space group: I B C A 
;
_chemical_formula_sum "Si O2"
_cell_formula_units_Z 56
_cell_length_a 8.043279
_cell_length_b 20.650625
_cell_length_c 12.288251
_cell_angle_alpha 90.000000
_cell_angle_beta 90.000000
_cell_angle_gamma 90.000000
_cell_volume 2041.062988
_symmetry_space_group_name_H-M "I B C A "
_symmetry_group_IT_number 73
_symmetry_cell_setting 'orthorhombic'
loop_
_space_group_symop_operation_xyz
x,y,z
-x,1/2-y,z
x,-y,1/2-z
1/2-x,y,-z
-x,-y,-z
x,1/2+y,-z
-x,y,1/2+z
1/2+x,-y,z
1/2+x,1/2+y,1/2+z
1/2-x,-y,1/2+z
1/2+x,1/2-y,-z
-x,1/2+y,1/2-z
1/2-x,1/2-y,1/2-z
1/2+x,y,1/2-z
1/2-x,1/2+y,z
x,1/2-y,1/2+z
loop_
_atom_site_type_symbol
_atom_site_label
_atom_site_fract_x
_atom_site_fract_y
_atom_site_fract_z
Si Si1 0.500000 0.250000 0.328030
Si Si2 0.542277 0.437646 0.849372
Si Si3 0.883224 0.869020 0.177714
Si Si4 0.750000 0.963407 0.500000
Si Si5 0.750000 0.698589 0.500000
O O1 0.440580 0.190643 0.251810
O O2 0.341572 0.261286 0.406741
O O3 0.689183 0.386274 0.827273
O O4 0.465484 0.433973 0.726291
O O5 0.644547 0.490848 0.918404
O O6 0.378352 0.425564 0.922837
O O7 0.897501 0.844439 0.054441
#
# Coordination Sequence:
#
# PCOD9533125 Si02
#       5
#     8  16  16   8   8
#     4  12  28  50  82 122 172 220 278 338 424 512
#     4  11  27  50  86 116 169 211 293 337 444 485
#     4  12  27  49  79 126 161 223 271 349 414 519
#     4  10  27  57  82 124 158 228 277 379 412 508
#     4  12  27  49  76 116 168 212 277 339 412 500
#
# _framework density 27.436686000000002
#
# number of rings (size 3 to 8) (size 9 to 14) (size 15 to 20)
#    0.000    0.571    2.857    2.571    4.000   11.429 
#    0.000    0.000    0.000    0.000    0.000    0.000 
#    0.000    0.000    0.000    0.000    0.000    0.000 
#
# Total GULP energy -156236.155112 kJ/mol
# GULP energy per Si atom -5579.862683 kJ/mol
# Density = 2.737424 g / cm^3
# Si number density = 27.436686 Si / 1000 Ang^3
#
#
#
# Elastic Constant Matrix: (Units=GPa)
#
#
# Indices 1 2 3 4 5 6 
#
# 1 152.2902 62.1881 79.4308 0.0000 0.0000 0.0000
# 2 62.1881 100.4564 91.4936 0.0001 0.0000 0.0000
# 3 79.4308 91.4936 194.5298 0.0003 -0.0001 0.0000
# 4 0.0000 0.0001 0.0003 50.2647 0.0000 0.0000
# 5 0.0000 0.0000 -0.0001 0.0000 89.9364 0.0000
# 6 0.0000 0.0000 0.0000 0.0000 0.0000 31.5444
#
#
#
# Elastic Compliance Matrix: (Units=1/GPa)
#
#
# Indices 1 2 3 4 5 6 
#
# 1 0.009164 -0.003962 -0.001878 0.000000 0.000000 0.000000
# 2 -0.003962 0.019128 -0.007378 0.000000 0.000000 0.000000
# 3 -0.001878 -0.007378 0.009378 0.000000 0.000000 0.000000
# 4 0.000000 0.000000 0.000000 0.019895 0.000000 0.000000
# 5 0.000000 0.000000 0.000000 0.000000 0.011119 0.000000
# 6 0.000000 0.000000 0.000000 0.000000 0.000000 0.031701
#
#
# Mechanical properties :
#
#
# Convention : Reuss Voigt Hill
#
# Bulk Modulus (GPa) = 89.03588 101.50016 95.26802
# Shear Modulus (GPa) = 38.29466 48.62670 43.46068
#
# Velocity S-wave (km/s) = 3.74002 4.21446 3.98431
# Velocity P-wave (km/s) = 7.15347 7.79467 7.48095
#
# Compressibility (1/GPa) = 0.01123143
#
# Stress axis : x y z
#
# Youngs Moduli (GPa) = 109.12113 52.28046 106.63448
#
# Poissons Ratio (x) = 0.20716 0.20029
# Poissons Ratio (y) = 0.43238 0.78679
# Poissons Ratio (z) = 0.20496 0.38575
#
# Static dielectric constant tensor:
#      x y z
#    x 2.083210 0.000000 0.000000 
#    y 0.000000 2.322970 0.000000 
#    z 0.000000 0.000000 2.240480 
# 
# From -- ./inp_files/9006.got.cif
#   From: 2010.05.17/outbox.cif.g08.bks.cpg/sg73_5_cif.got.tgz:9006.got - 2010.06.03 17:35:07.
