data_PCOD9533242
_publ_section_title
;
Structure prediction by ZEFSAII (Michael W. Deem and Ramdas Pophale) SiO2 
 PCOD9533242
Probable space group: I B C A 
;
_chemical_formula_sum "Si O2"
_cell_formula_units_Z 112
_cell_length_a 28.308389
_cell_length_b 15.309233
_cell_length_c 12.121714
_cell_angle_alpha 90.000000
_cell_angle_beta 90.000000
_cell_angle_gamma 90.000000
_cell_volume 5253.305056
_symmetry_space_group_name_H-M "I B C A "
_symmetry_group_IT_number 73
_symmetry_cell_setting 'orthorhombic'
loop_
_space_group_symop_operation_xyz
x,y,z
-x,1/2-y,z
x,-y,1/2-z
1/2-x,y,-z
-x,-y,-z
x,1/2+y,-z
-x,y,1/2+z
1/2+x,-y,z
1/2+x,1/2+y,1/2+z
1/2-x,-y,1/2+z
1/2+x,1/2-y,-z
-x,1/2+y,1/2-z
1/2-x,1/2-y,1/2-z
1/2+x,y,1/2-z
1/2-x,1/2+y,z
x,1/2-y,1/2+z
loop_
_atom_site_type_symbol
_atom_site_label
_atom_site_fract_x
_atom_site_fract_y
_atom_site_fract_z
Si Si1 0.557911 0.401803 0.874031
Si Si2 0.850496 0.645468 0.971857
Si Si3 0.500000 0.750000 0.505794
Si Si4 0.250000 0.941572 0.000000
Si Si5 0.150900 0.152261 0.008321
Si Si6 0.277337 0.926196 0.678160
Si Si7 0.439336 0.901495 0.887242
Si Si8 0.179671 0.102549 0.763158
O O1 0.527562 0.319607 0.917033
O O2 0.605388 0.395699 0.945118
O O3 0.537979 0.500432 0.893273
O O4 0.569251 0.390426 0.743987
O O5 0.798468 0.611587 0.006646
O O6 0.857077 0.745623 0.999072
O O7 0.849488 0.641128 0.838775
O O8 0.891707 0.596776 0.038462
O O9 0.531110 0.817598 0.431489
O O10 0.247605 0.008644 0.899388
O O11 0.191450 0.131549 0.098290
O O12 0.163162 0.125695 0.884786
O O13 0.236150 0.874605 0.742848
O O14 0.304786 0.000000 0.750000
O O15 0.172835 0.000000 0.750000
#
# Coordination Sequence:
#
# PCOD9533242 Si02
#       8
#    16  16   8   8  16  16  16  16
#     4  11  26  47  76 106 144 177 227 295 363 424
#     4  12  27  41  67 104 141 184 238 288 348 415
#     4  12  24  52  78 106 136 182 238 294 358 430
#     4  12  22  40  62  94 138 192 234 286 328 408
#     4  12  26  41  67 103 139 184 236 293 345 419
#     4  11  22  40  63  92 137 190 239 285 339 401
#     4  11  26  49  74 109 144 181 232 292 362 431
#     4  11  22  45  64  93 141 189 240 277 338 421
#
# _framework density 21.319911999999999
#
# number of rings (size 3 to 8) (size 9 to 14) (size 15 to 20)
#    0.000    0.571    5.714    2.571    8.000    0.571 
#    2.571    0.000    0.000    0.000    0.000    0.000 
#    0.000    0.000    0.000    0.000    0.000    0.000 
#
# Total GULP energy -312393.356291 kJ/mol
# GULP energy per Si atom -5578.452791 kJ/mol
# Density = 2.127139 g / cm^3
# Si number density = 21.319912 Si / 1000 Ang^3
#
#
#
# Elastic Constant Matrix: (Units=GPa)
#
#
# Indices 1 2 3 4 5 6 
#
# 1 73.5668 30.8424 35.3871 0.0000 0.0000 0.0000
# 2 30.8424 135.1515 26.2214 0.0000 0.0000 0.0000
# 3 35.3871 26.2214 99.9751 0.0000 0.0000 0.0000
# 4 0.0000 0.0000 0.0000 41.0490 0.0000 0.0000
# 5 0.0000 0.0000 0.0000 0.0000 -24.4650 0.0000
# 6 0.0000 0.0000 0.0000 0.0000 0.0000 568.2016
#
#
#
# Elastic Compliance Matrix: (Units=1/GPa)
#
#
# Indices 1 2 3 4 5 6 
#
# 1 0.017416 -0.002927 -0.005397 0.000000 0.000000 0.000000
# 2 -0.002927 0.008288 -0.001138 0.000000 0.000000 0.000000
# 3 -0.005397 -0.001138 0.012211 0.000000 0.000000 0.000000
# 4 0.000000 0.000000 0.000000 0.024361 0.000000 0.000000
# 5 0.000000 0.000000 0.000000 0.000000 -0.040875 0.000000
# 6 0.000000 0.000000 0.000000 0.000000 0.000000 0.001760
#
#
# Mechanical properties :
#
#
# Convention : Reuss Voigt Hill
#
# Bulk Modulus (GPa) = 52.65477 54.84394 53.74936
# Shear Modulus (GPa) = 103.27161 131.37330 117.32245
#
# Velocity S-wave (km/s) = 6.96737 7.85836 7.42624
# Velocity P-wave (km/s) = 9.45921 10.39800 9.93970
#
# Compressibility (1/GPa) = 0.01899163
#
# Stress axis : x y z
#
# Youngs Moduli (GPa) = 57.41711 120.65834 81.89257
#
# Poissons Ratio (x) = 0.35322 0.44197
# Poissons Ratio (y) = 0.16809 0.09316
# Poissons Ratio (z) = 0.30987 0.13725
#
# Static dielectric constant tensor:
#      x y z
#    x 1.831410 0.000000 0.000000 
#    y 0.000000 1.789550 0.000000 
#    z 0.000000 0.000000 2.479610 
# 
# From -- ./inp_files/14867.got.cif
#   From: 2010.05.17/outbox.cif.g08.bks.cpg/sg73_8_cif.got.tgz:14867.got - 2010.06.03 17:35:07.
