data_PCOD9533263
_publ_section_title
;
Structure prediction by ZEFSAII (Michael W. Deem and Ramdas Pophale) SiO2 
 PCOD9533263
Probable space group: I B C A 
;
_chemical_formula_sum "Si O2"
_cell_formula_units_Z 120
_cell_length_a 15.832949
_cell_length_b 15.466211
_cell_length_c 18.672632
_cell_angle_alpha 90.000000
_cell_angle_beta 90.000000
_cell_angle_gamma 90.000000
_cell_volume 4572.474392
_symmetry_space_group_name_H-M "I B C A "
_symmetry_group_IT_number 73
_symmetry_cell_setting 'orthorhombic'
loop_
_space_group_symop_operation_xyz
x,y,z
-x,1/2-y,z
x,-y,1/2-z
1/2-x,y,-z
-x,-y,-z
x,1/2+y,-z
-x,y,1/2+z
1/2+x,-y,z
1/2+x,1/2+y,1/2+z
1/2-x,-y,1/2+z
1/2+x,1/2-y,-z
-x,1/2+y,1/2-z
1/2-x,1/2-y,1/2-z
1/2+x,y,1/2-z
1/2-x,1/2+y,z
x,1/2-y,1/2+z
loop_
_atom_site_type_symbol
_atom_site_label
_atom_site_fract_x
_atom_site_fract_y
_atom_site_fract_z
Si Si1 0.663126 0.149629 0.364447
Si Si2 0.454676 0.096891 0.742684
Si Si3 0.008642 0.352752 0.546878
Si Si4 0.250000 0.366410 0.000000
Si Si5 0.978247 0.611912 0.602816
Si Si6 0.864479 0.947926 0.378476
Si Si7 0.130379 0.815243 0.774442
Si Si8 0.671667 0.729407 0.385436
O O1 0.625468 0.101613 0.294772
O O2 0.603131 0.125796 0.429574
O O3 0.644950 0.247901 0.338509
O O4 0.758095 0.152855 0.390702
O O5 0.444852 0.112611 0.658332
O O6 0.532663 0.161885 0.757689
O O7 0.487620 0.000000 0.750000
O O8 0.986009 0.402207 0.475070
O O9 0.000000 0.250000 0.543253
O O10 0.947372 0.389697 0.606390
O O11 0.304452 0.426195 0.945721
O O12 0.200825 0.302333 0.942966
O O13 0.907339 0.541600 0.625359
O O14 0.921514 0.697466 0.595311
O O15 0.829538 0.904904 0.304655
O O16 0.166473 0.768449 0.702708
#
# Coordination Sequence:
#
# PCOD9533263 Si02
#       8
#    16  16  16   8  16  16  16  16
#     4  12  22  41  71  97 132 180 237 283 343 417
#     4  11  22  42  66  96 131 174 225 282 339 413
#     4  12  22  42  71  99 133 181 230 285 349 413
#     4  12  26  44  72 102 140 180 242 284 348 430
#     4  11  26  43  68  98 144 176 228 287 358 414
#     4  12  24  45  70  98 138 190 221 289 355 418
#     4  11  22  43  71  90 135 185 228 279 355 402
#     4  11  25  43  66 101 137 179 227 295 344 418
#
# _framework density 26.243995000000002
#
# number of rings (size 3 to 8) (size 9 to 14) (size 15 to 20)
#    0.000    0.533    5.333    2.800    0.000    4.800 
#    2.400    0.000    0.000    0.000    0.000    0.000 
#    0.000    0.000    0.000    0.000    0.000    0.000 
#
# Total GULP energy -335106.829767 kJ/mol
# GULP energy per Si atom -5585.113829 kJ/mol
# Density = 2.618426 g / cm^3
# Si number density = 26.243995 Si / 1000 Ang^3
#
#
#
# Elastic Constant Matrix: (Units=GPa)
#
#
# Indices 1 2 3 4 5 6 
#
# 1 85.3433 20.5770 15.3881 0.0000 0.0000 0.0000
# 2 20.5770 64.9663 -4.9590 0.0000 0.0000 0.0000
# 3 15.3881 -4.9590 136.3587 0.0000 0.0000 0.0000
# 4 0.0000 0.0000 0.0000 28.3718 0.0000 0.0000
# 5 0.0000 0.0000 0.0000 0.0000 42.1341 0.0000
# 6 0.0000 0.0000 0.0000 0.0000 0.0000 19.8852
#
#
#
# Elastic Compliance Matrix: (Units=1/GPa)
#
#
# Indices 1 2 3 4 5 6 
#
# 1 0.013036 -0.004253 -0.001626 0.000000 0.000000 0.000000
# 2 -0.004253 0.016823 0.001092 0.000000 0.000000 0.000000
# 3 -0.001626 0.001092 0.007557 0.000000 0.000000 0.000000
# 4 0.000000 0.000000 0.000000 0.035246 0.000000 0.000000
# 5 0.000000 0.000000 0.000000 0.000000 0.023734 0.000000
# 6 0.000000 0.000000 0.000000 0.000000 0.000000 0.050289
#
#
# Mechanical properties :
#
#
# Convention : Reuss Voigt Hill
#
# Bulk Modulus (GPa) = 35.91739 38.74226 37.32983
# Shear Modulus (GPa) = 30.20435 35.12237 32.66336
#
# Velocity S-wave (km/s) = 3.39618 3.66225 3.53172
# Velocity P-wave (km/s) = 5.39392 5.71639 5.55750
#
# Compressibility (1/GPa) = 0.02784167
#
# Stress axis : x y z
#
# Youngs Moduli (GPa) = 76.71081 59.44235 132.33163
#
# Poissons Ratio (x) = 0.25281 0.21514
# Poissons Ratio (y) = 0.32625 -0.14448
# Poissons Ratio (z) = 0.12471 -0.06490
#
# Static dielectric constant tensor:
#      x y z
#    x 2.091120 0.000000 0.000000 
#    y 0.000000 2.117480 0.000000 
#    z 0.000000 0.000000 2.124760 
# 
# From -- ./inp_files/22691.got.cif
#   From: 2010.05.17/outbox.cif.g08.bks.cpg/sg73_12_cif.got.tgz:22691.got - 2010.06.03 17:35:07.
