data_PCOD9533787
_publ_section_title
;
Structure prediction by ZEFSAII (Michael W. Deem and Ramdas Pophale) SiO2 
 PCOD9533787
Probable space group: I B C A 
;
_chemical_formula_sum "Si O2"
_cell_formula_units_Z 36
_cell_length_a 12.000000
_cell_length_b 21.000000
_cell_length_c 15.000000
_cell_angle_alpha 90.000000
_cell_angle_beta 90.000000
_cell_angle_gamma 90.000000
_cell_volume 3780.000000
_symmetry_space_group_name_H-M "I B C A "
_symmetry_group_IT_number 73
_symmetry_cell_setting 'orthorhombic'
loop_
_space_group_symop_operation_xyz
x,y,z
-x,1/2-y,z
x,-y,1/2-z
1/2-x,y,-z
-x,-y,-z
x,1/2+y,-z
-x,y,1/2+z
1/2+x,-y,z
1/2+x,1/2+y,1/2+z
1/2-x,-y,1/2+z
1/2+x,1/2-y,-z
-x,1/2+y,1/2-z
1/2-x,1/2-y,1/2-z
1/2+x,y,1/2-z
1/2-x,1/2+y,z
x,1/2-y,1/2+z
loop_
_atom_site_type_symbol
_atom_site_label
_atom_site_fract_x
_atom_site_fract_y
_atom_site_fract_z
Si Si1 0.155860 0.269990 0.319167
Si Si2 0.924339 0.416759 0.090185
Si Si3 0.370727 0.559953 0.457665
Si Si4 0.250000 0.319732 0.500000
Si Si5 0.029309 0.862222 0.210408
O O1 0.250000 0.250000 0.250000
O O2 0.199851 0.278070 0.419701
O O3 0.081380 0.207119 0.307840
O O4 0.100241 0.339062 0.295485
O O5 0.867850 0.485959 0.074426
O O6 0.944202 0.394312 0.193213
O O7 0.846597 0.364053 0.042634
O O8 0.040342 0.425650 0.036514
O O9 0.250000 0.577026 0.500000
O O10 0.420768 0.595884 0.370410
#
# Coordination Sequence:
#
# PCOD9533787 Si02
#       5
#    16  16  16   8  16
#     4  11  25  43  68  97 134 178 226 284 349 406
#     4  11  24  45  71  97 140 178 227 288 341 416
#     4  11  25  44  69 105 138 183 228 281 352 412
#     4  12  22  46  68  94 138 178 224 290 342 406
#     4  11  25  44  66 104 135 176 237 280 343 423
#
# _framework density 9.5238099999999992
#
# number of rings (size 3 to 8) (size 9 to 14) (size 15 to 20)
#    0.000    0.889    5.556    0.667    4.667    0.000 
#    0.000    2.222    0.000    0.000    0.000    0.000 
#    0.000    0.000    0.000    0.000    0.000    0.000 
#
# Total GULP energy -200593.051239 kJ/mol
# GULP energy per Si atom -5572.029201 kJ/mol
# Density = 0.950213 g / cm^3
# Si number density = 9.523810 Si / 1000 Ang^3
#
#
#
# Elastic Constant Matrix: (Units=GPa)
#
#
# Indices 1 2 3 4 5 6 
#
# 1 81.3089 26.2556 51.4283 0.0000 0.0000 0.0000
# 2 26.2556 90.4328 62.7240 -0.0001 0.0000 0.0000
# 3 51.4283 62.7240 197.8627 -0.0001 0.0000 0.0000
# 4 0.0000 -0.0001 -0.0001 40.6845 0.0000 0.0000
# 5 0.0000 0.0000 0.0000 0.0000 35.2842 0.0000
# 6 0.0000 0.0000 0.0000 0.0000 0.0000 28.8215
#
#
#
# Elastic Compliance Matrix: (Units=1/GPa)
#
#
# Indices 1 2 3 4 5 6 
#
# 1 0.015029 -0.002120 -0.003234 0.000000 0.000000 0.000000
# 2 -0.002120 0.014474 -0.004037 0.000000 0.000000 0.000000
# 3 -0.003234 -0.004037 0.007174 0.000000 0.000000 0.000000
# 4 0.000000 0.000000 0.000000 0.024579 0.000000 0.000000
# 5 0.000000 0.000000 0.000000 0.000000 0.028341 0.000000
# 6 0.000000 0.000000 0.000000 0.000000 0.000000 0.034696
#
#
# Mechanical properties :
#
#
# Convention : Reuss Voigt Hill
#
# Bulk Modulus (GPa) = 55.88460 72.26892 64.07676
# Shear Modulus (GPa) = 33.54756 36.23780 34.89268
#
# Velocity S-wave (km/s) = 4.20127 4.36648 4.28467
# Velocity P-wave (km/s) = 7.27581 7.96524 7.62832
#
# Compressibility (1/GPa) = 0.01789402
#
# Stress axis : x y z
#
# Youngs Moduli (GPa) = 66.53768 69.09097 139.38311
#
# Poissons Ratio (x) = 0.14648 0.45080
# Poissons Ratio (y) = 0.14107 0.56272
# Poissons Ratio (z) = 0.21520 0.27893
#
# Static dielectric constant tensor:
#      x y z
#    x 1.968920 0.000000 0.000000 
#    y 0.000000 1.647950 0.000000 
#    z 0.000000 0.000000 1.622930 
# 
# From -- ./inp_files/10610.got.cif
#   From: 2010.05.17/outbox.ucp.g08.bks.cvg/sg73_6_cif.got.tgz:10610.got - 2010.06.11 16:36:03.
