data_PCOD9533196
_publ_section_title
;
Structure prediction by ZEFSAII (Michael W. Deem and Ramdas Pophale) SiO2 
 PCOD9533196
Probable space group: I B C A 
;
_chemical_formula_sum "Si O2"
_cell_formula_units_Z 64
_cell_length_a 7.833069
_cell_length_b 14.503136
_cell_length_c 22.117151
_cell_angle_alpha 90.000000
_cell_angle_beta 90.000000
_cell_angle_gamma 90.000000
_cell_volume 2512.598260
_symmetry_space_group_name_H-M "I B C A "
_symmetry_group_IT_number 73
_symmetry_cell_setting 'orthorhombic'
loop_
_space_group_symop_operation_xyz
x,y,z
-x,1/2-y,z
x,-y,1/2-z
1/2-x,y,-z
-x,-y,-z
x,1/2+y,-z
-x,y,1/2+z
1/2+x,-y,z
1/2+x,1/2+y,1/2+z
1/2-x,-y,1/2+z
1/2+x,1/2-y,-z
-x,1/2+y,1/2-z
1/2-x,1/2-y,1/2-z
1/2+x,y,1/2-z
1/2-x,1/2+y,z
x,1/2-y,1/2+z
loop_
_atom_site_type_symbol
_atom_site_label
_atom_site_fract_x
_atom_site_fract_y
_atom_site_fract_z
Si Si1 0.152883 0.555442 0.936534
Si Si2 0.503730 0.104208 0.264634
Si Si3 0.705118 0.882635 0.615474
Si Si4 0.800412 0.684525 0.658965
O O1 0.155894 0.450368 0.913279
O O2 0.275921 0.606087 0.889978
O O3 0.966333 0.602078 0.926215
O O4 0.250000 0.561252 0.000000
O O5 0.357905 0.093002 0.316329
O O6 0.640055 0.170059 0.296324
O O7 0.450868 0.154306 0.203237
O O8 0.561126 0.000000 0.250000
O O9 0.777095 0.779742 0.623161
#
# Coordination Sequence:
#
# PCOD9533196 Si02
#       4
#    16  16  16  16
#     4  11  24  46  71 100 137 187 236 291 343 411
#     4  11  21  41  71 102 146 181 226 291 363 426
#     4  11  25  45  68 100 143 182 233 291 349 418
#     4  11  25  45  70 108 145 184 233 292 357 432
#
# _framework density 25.471640000000001
#
# number of rings (size 3 to 8) (size 9 to 14) (size 15 to 20)
#    0.000    1.000    2.500    5.250    3.500    1.000 
#    0.000    3.750    0.000    0.000    0.000    0.000 
#    0.000    0.000    0.000    0.000    0.000    0.000 
#
# Total GULP energy -179242.115609 kJ/mol
# GULP energy per Si atom -5601.316113 kJ/mol
# Density = 2.541367 g / cm^3
# Si number density = 25.471640 Si / 1000 Ang^3
#
#
#
# Elastic Constant Matrix: (Units=GPa)
#
#
# Indices 1 2 3 4 5 6 
#
# 1 109.0065 36.5318 39.8830 0.0000 0.0000 0.0000
# 2 36.5318 151.3917 36.9329 0.0000 0.0000 0.0000
# 3 39.8830 36.9329 122.2525 0.0000 0.0000 0.0000
# 4 0.0000 0.0000 0.0000 -69.7328 0.0000 0.0000
# 5 0.0000 0.0000 0.0000 0.0000 38.2653 0.0000
# 6 0.0000 0.0000 0.0000 0.0000 0.0000 34.4933
#
#
#
# Elastic Compliance Matrix: (Units=1/GPa)
#
#
# Indices 1 2 3 4 5 6 
#
# 1 0.010903 -0.001903 -0.002982 0.000000 0.000000 0.000000
# 2 -0.001903 0.007463 -0.001634 0.000000 0.000000 0.000000
# 3 -0.002982 -0.001634 0.009646 0.000000 0.000000 0.000000
# 4 0.000000 0.000000 0.000000 -0.014340 0.000000 0.000000
# 5 0.000000 0.000000 0.000000 0.000000 0.026133 0.000000
# 6 0.000000 0.000000 0.000000 0.000000 0.000000 0.028991
#
#
# Mechanical properties :
#
#
# Convention : Reuss Voigt Hill
#
# Bulk Modulus (GPa) = 66.78187 67.70511 67.24349
# Shear Modulus (GPa) = 57.58698 18.55872 38.07285
#
# Velocity S-wave (km/s) = 4.75997 2.70219 3.87035
# Velocity P-wave (km/s) = 7.51564 6.03109 6.81392
#
# Compressibility (1/GPa) = 0.01497412
#
# Stress axis : x y z
#
# Youngs Moduli (GPa) = 91.72084 133.98993 103.66890
#
# Poissons Ratio (x) = 0.25504 0.30912
# Poissons Ratio (y) = 0.17459 0.16936
# Poissons Ratio (z) = 0.27349 0.21890
#
# Static dielectric constant tensor:
#      x y z
#    x 2.194750 0.000000 0.000000 
#    y 0.000000 1.975100 0.000000 
#    z 0.000000 0.000000 2.276270 
# 
# From -- ./inp_files/28173.got.cif
#   From: 2010.05.17/outbox.cif.g08.bks.cpg/sg73_15_cif.got.tgz:28173.got - 2010.06.03 17:35:07.
