data_PCOD9533014
_publ_section_title
;
Structure prediction by ZEFSAII (Michael W. Deem and Ramdas Pophale) SiO2 
 PCOD9533014
Probable space group: I B C A 
;
_chemical_formula_sum "Si O2"
_cell_formula_units_Z 56
_cell_length_a 5.234541
_cell_length_b 18.179176
_cell_length_c 24.989507
_cell_angle_alpha 90.000000
_cell_angle_beta 90.000000
_cell_angle_gamma 90.000000
_cell_volume 2377.992543
_symmetry_space_group_name_H-M "I B C A "
_symmetry_group_IT_number 73
_symmetry_cell_setting 'orthorhombic'
loop_
_space_group_symop_operation_xyz
x,y,z
-x,1/2-y,z
x,-y,1/2-z
1/2-x,y,-z
-x,-y,-z
x,1/2+y,-z
-x,y,1/2+z
1/2+x,-y,z
1/2+x,1/2+y,1/2+z
1/2-x,-y,1/2+z
1/2+x,1/2-y,-z
-x,1/2+y,1/2-z
1/2-x,1/2-y,1/2-z
1/2+x,y,1/2-z
1/2-x,1/2+y,z
x,1/2-y,1/2+z
loop_
_atom_site_type_symbol
_atom_site_label
_atom_site_fract_x
_atom_site_fract_y
_atom_site_fract_z
Si Si1 0.379360 0.168886 0.652228
Si Si2 0.003365 0.160092 0.467860
Si Si3 0.627330 0.030633 0.690107
Si Si4 0.500000 0.750000 0.211497
O O1 0.500000 0.250000 0.651939
O O2 0.445829 0.138266 0.593564
O O3 0.521065 0.112945 0.691727
O O4 0.087678 0.183978 0.671213
O O5 0.250000 0.135531 0.500000
O O6 0.000000 0.250000 0.467695
O O7 0.750000 0.136887 0.500000
O O8 0.668254 0.000000 0.750000
O O9 0.901087 0.017188 0.663878
O O10 0.750000 0.750000 0.250000
#
# Coordination Sequence:
#
# PCOD9533014 Si02
#       4
#    16  16  16   8
#     4  11  26  43  73 103 143 186 244 303 360 423
#     4   9  20  36  63  99 135 172 222 295 368 420
#     4  10  25  43  64  90 137 189 236 287 355 432
#     4  12  28  38  62 102 144 182 234 294 346 426
#
# _framework density 23.549274
#
# number of rings (size 3 to 8) (size 9 to 14) (size 15 to 20)
#    0.000    1.714    1.429    0.000   22.000    0.000 
#    0.000    0.000    0.000    5.143    0.000    0.000 
#    0.000    0.000    0.000    0.000    0.000    0.000 
#
# Total GULP energy -156118.364314 kJ/mol
# GULP energy per Si atom -5575.655868 kJ/mol
# Density = 2.349567 g / cm^3
# Si number density = 23.549274 Si / 1000 Ang^3
#
#
#
# Elastic Constant Matrix: (Units=GPa)
#
#
# Indices 1 2 3 4 5 6 
#
# 1 181.5946 6.2891 56.5413 0.0000 0.0000 0.0000
# 2 6.2891 85.4435 12.1127 0.0000 0.0000 0.0000
# 3 56.5413 12.1127 151.8246 0.0000 0.0000 0.0000
# 4 0.0000 0.0000 0.0000 32.9140 0.0000 0.0000
# 5 0.0000 0.0000 0.0000 0.0000 32.4120 0.0000
# 6 0.0000 0.0000 0.0000 0.0000 0.0000 30.2009
#
#
#
# Elastic Compliance Matrix: (Units=1/GPa)
#
#
# Indices 1 2 3 4 5 6 
#
# 1 0.006231 -0.000131 -0.002310 0.000000 0.000000 0.000000
# 2 -0.000131 0.011840 -0.000896 0.000000 0.000000 0.000000
# 3 -0.002310 -0.000896 0.007518 0.000000 0.000000 0.000000
# 4 0.000000 0.000000 0.000000 0.030382 0.000000 0.000000
# 5 0.000000 0.000000 0.000000 0.000000 0.030853 0.000000
# 6 0.000000 0.000000 0.000000 0.000000 0.000000 0.033112
#
#
# Mechanical properties :
#
#
# Convention : Reuss Voigt Hill
#
# Bulk Modulus (GPa) = 52.86685 63.19433 58.03059
# Shear Modulus (GPa) = 37.61821 42.03335 39.82578
#
# Velocity S-wave (km/s) = 4.00112 4.22940 4.11684
# Velocity P-wave (km/s) = 6.62144 7.12346 6.87703
#
# Compressibility (1/GPa) = 0.01891545
#
# Stress axis : x y z
#
# Youngs Moduli (GPa) = 160.50057 84.45743 133.01006
#
# Poissons Ratio (x) = 0.01108 0.30723
# Poissons Ratio (y) = 0.02105 0.11915
# Poissons Ratio (z) = 0.37073 0.07566
#
# Static dielectric constant tensor:
#      x y z
#    x 2.018210 0.000000 0.000000 
#    y 0.000000 1.947150 0.000000 
#    z 0.000000 0.000000 2.044970 
# 
# From -- ./inp_files/1021.got.cif
#   From: 2010.05.17/outbox.cif.g08.bks.cpg/sg73_1_cif.got.tgz:1021.got - 2010.06.03 17:35:07.
