data_PCOD9533355
_publ_section_title
;
Structure prediction by ZEFSAII (Michael W. Deem and Ramdas Pophale) SiO2 
 PCOD9533355
Probable space group: I B C A 
;
_chemical_formula_sum "Si O2"
_cell_formula_units_Z 88
_cell_length_a 8.789628
_cell_length_b 17.367725
_cell_length_c 25.463020
_cell_angle_alpha 90.000000
_cell_angle_beta 90.000000
_cell_angle_gamma 90.000000
_cell_volume 3887.078757
_symmetry_space_group_name_H-M "I B C A "
_symmetry_group_IT_number 73
_symmetry_cell_setting 'orthorhombic'
loop_
_space_group_symop_operation_xyz
x,y,z
-x,1/2-y,z
x,-y,1/2-z
1/2-x,y,-z
-x,-y,-z
x,1/2+y,-z
-x,y,1/2+z
1/2+x,-y,z
1/2+x,1/2+y,1/2+z
1/2-x,-y,1/2+z
1/2+x,1/2-y,-z
-x,1/2+y,1/2-z
1/2-x,1/2-y,1/2-z
1/2+x,y,1/2-z
1/2-x,1/2+y,z
x,1/2-y,1/2+z
loop_
_atom_site_type_symbol
_atom_site_label
_atom_site_fract_x
_atom_site_fract_y
_atom_site_fract_z
Si Si1 0.897761 0.923717 0.860000
Si Si2 0.500000 0.750000 0.518773
Si Si3 0.572756 0.918551 0.015772
Si Si4 0.652495 0.703022 0.791927
Si Si5 0.790849 0.951070 0.300754
Si Si6 0.828357 0.763390 0.879130
O O1 0.052434 0.920508 0.826245
O O2 0.944866 0.919012 0.921087
O O3 0.791030 0.848099 0.857887
O O4 0.799513 0.996507 0.842545
O O5 0.495587 0.836191 0.494479
O O6 0.646438 0.746396 0.558798
O O7 0.750000 0.919415 0.000000
O O8 0.500000 0.000000 0.000000
O O9 0.500000 0.750000 0.791534
O O10 0.750000 0.750000 0.750000
O O11 0.673990 0.613779 0.779781
O O12 0.715536 0.706555 0.851457
O O13 0.834250 0.000000 0.250000
O O14 0.000000 0.750000 0.858385
#
# Coordination Sequence:
#
# PCOD9533355 Si02
#       6
#    16   8  16  16  16  16
#     4  11  24  44  67  97 138 169 227 279 339 402
#     4   8  20  42  72  92 136 178 224 274 350 412
#     4  11  23  43  73 103 138 182 224 286 356 415
#     4  12  26  39  61  91 127 173 232 275 328 401
#     4  12  26  41  66  96 133 182 223 279 337 404
#     4   9  18  43  67  82 126 178 213 271 338 387
#
# _framework density 22.639109000000001
#
# number of rings (size 3 to 8) (size 9 to 14) (size 15 to 20)
#    0.545    0.727    1.818    3.273    7.636    0.727 
#    0.000    1.818    0.000    0.000    0.000    0.000 
#    0.000    0.000    0.000    0.000    0.000    0.000 
#
# Total GULP energy -245376.641847 kJ/mol
# GULP energy per Si atom -5576.741860 kJ/mol
# Density = 2.258758 g / cm^3
# Si number density = 22.639109 Si / 1000 Ang^3
#
#
#
# Elastic Constant Matrix: (Units=GPa)
#
#
# Indices 1 2 3 4 5 6 
#
# 1 80.7607 28.1686 8.1244 0.0000 0.0000 0.0000
# 2 28.1686 167.6942 16.0522 0.0000 0.0000 0.0000
# 3 8.1244 16.0522 49.6400 0.0000 0.0000 0.0000
# 4 0.0000 0.0000 0.0000 37.0427 0.0000 0.0000
# 5 0.0000 0.0000 0.0000 0.0000 20.3822 0.0000
# 6 0.0000 0.0000 0.0000 0.0000 0.0000 33.6108
#
#
#
# Elastic Compliance Matrix: (Units=1/GPa)
#
#
# Indices 1 2 3 4 5 6 
#
# 1 0.013260 -0.002084 -0.001496 0.000000 0.000000 0.000000
# 2 -0.002084 0.006481 -0.001755 0.000000 0.000000 0.000000
# 3 -0.001496 -0.001755 0.020957 0.000000 0.000000 0.000000
# 4 0.000000 0.000000 0.000000 0.026996 0.000000 0.000000
# 5 0.000000 0.000000 0.000000 0.000000 0.049062 0.000000
# 6 0.000000 0.000000 0.000000 0.000000 0.000000 0.029752
#
#
# Mechanical properties :
#
#
# Convention : Reuss Voigt Hill
#
# Bulk Modulus (GPa) = 33.30206 44.75391 39.02798
# Shear Modulus (GPa) = 29.90634 34.59045 32.24839
#
# Velocity S-wave (km/s) = 3.63850 3.91309 3.77829
# Velocity P-wave (km/s) = 5.69153 6.34253 6.02583
#
# Compressibility (1/GPa) = 0.03002818
#
# Stress axis : x y z
#
# Youngs Moduli (GPa) = 75.41652 154.29042 47.71590
#
# Poissons Ratio (x) = 0.32155 0.07139
# Poissons Ratio (y) = 0.15717 0.08373
# Poissons Ratio (z) = 0.11284 0.27074
#
# Static dielectric constant tensor:
#      x y z
#    x 1.857890 0.000000 0.000000 
#    y 0.000000 1.797820 0.000000 
#    z 0.000000 0.000000 1.884710 
# 
# From -- ./inp_files/33540.got.cif
#   From: 2010.05.17/outbox.cif.g08.bks.cpg/sg73_17_cif.got.tgz:33540.got - 2010.06.03 17:35:07.
