data_PCOD9533795
_publ_section_title
;
Structure prediction by ZEFSAII (Michael W. Deem and Ramdas Pophale) SiO2 
 PCOD9533795
Probable space group: I M M A
;
_chemical_formula_sum "Si O2"
_cell_formula_units_Z 88
_cell_length_a 28.479985
_cell_length_b 11.773756
_cell_length_c 14.233458
_cell_angle_alpha 90.000000
_cell_angle_beta 90.000000
_cell_angle_gamma 90.000000
_cell_volume 4772.711815
_symmetry_space_group_name_H-M "I M M A"
_symmetry_group_IT_number 74
_symmetry_cell_setting 'orthorhombic'
loop_
_space_group_symop_operation_xyz
x,y,z
-x,1/2-y,z
x,-y,-z
-x,1/2+y,-z
-x,-y,-z
x,1/2+y,-z
-x,y,z
x,1/2-y,z
1/2+x,1/2+y,1/2+z
1/2-x,-y,1/2+z
1/2+x,1/2-y,1/2-z
1/2-x,y,1/2-z
1/2-x,1/2-y,1/2-z
1/2+x,y,1/2-z
1/2-x,1/2+y,1/2+z
1/2+x,-y,1/2+z
loop_
_atom_site_type_symbol
_atom_site_label
_atom_site_fract_x
_atom_site_fract_y
_atom_site_fract_z
Si Si1 0.715357 0.250000 0.158881
Si Si2 0.145258 0.750000 0.814963
Si Si3 0.665544 0.495032 0.397063
Si Si4 0.554099 0.991584 0.887985
Si Si5 0.266864 0.496759 0.141270
Si Si6 0.445584 0.250000 0.211278
Si Si7 0.859572 0.615261 0.294655
O O1 0.750000 0.250000 0.250000
O O2 0.664940 0.250000 0.208569
O O3 0.722559 0.131346 0.107001
O O4 0.163994 0.863494 0.864290
O O5 0.089598 0.750000 0.799630
O O6 0.643183 0.500000 0.500000
O O7 0.719285 0.540161 0.405884
O O8 0.643468 0.564335 0.310929
O O9 0.500000 0.022387 0.864757
O O10 0.592673 0.070983 0.840502
O O11 0.562019 0.863560 0.850161
O O12 0.559080 0.000000 0.000000
O O13 0.250000 0.488178 0.250000
O O14 0.314662 0.567211 0.146827
O O15 0.500000 0.250000 0.240913
O O16 0.856965 0.750000 0.291914
#
# Coordination Sequence:
#
# PCOD9533795 Si02
#       7
#     8   8  16  16  16   8  16
#     4  10  12  28  58  80  94 140 193 243 287 332
#     4  12  18  38  62  83 114 157 197 255 291 340
#     4  11  23  36  57  86 116 160 207 247 285 343
#     4  10  22  40  66  94 118 147 189 240 297 361
#     4   9  17  33  54  77 111 147 197 239 289 332
#     4  10  20  38  66  93 113 145 191 242 302 348
#     4  11  23  39  58  83 124 164 192 238 302 352
#
# _framework density 18.438154000000001
#
# number of rings (size 3 to 8) (size 9 to 14) (size 15 to 20)
#    0.000    1.636    7.273    0.000    2.545    4.364 
#    0.000    0.000    4.000    2.182    0.000    0.000 
#    0.000    0.000    0.000    0.000    0.000    0.000 
#
# Total GULP energy -245321.424151 kJ/mol
# GULP energy per Si atom -5575.486913 kJ/mol
# Density = 1.839619 g / cm^3
# Si number density = 18.438154 Si / 1000 Ang^3
#
#
#
# Elastic Constant Matrix: (Units=GPa)
#
#
# Indices 1 2 3 4 5 6 
#
# 1 115.1197 59.7247 46.5503 0.0000 0.0000 0.0000
# 2 59.7247 132.3603 20.4863 0.0000 0.0000 0.0000
# 3 46.5503 20.4863 66.1561 0.0000 0.0000 0.0000
# 4 0.0000 0.0000 0.0000 4.4925 0.0000 0.0000
# 5 0.0000 0.0000 0.0000 0.0000 18.4758 0.0000
# 6 0.0000 0.0000 0.0000 0.0000 0.0000 16.3614
#
#
#
# Elastic Compliance Matrix: (Units=1/GPa)
#
#
# Indices 1 2 3 4 5 6 
#
# 1 0.015135 -0.005442 -0.008964 0.000000 0.000000 0.000000
# 2 -0.005442 0.009892 0.000766 0.000000 0.000000 0.000000
# 3 -0.008964 0.000766 0.021186 0.000000 0.000000 0.000000
# 4 0.000000 0.000000 0.000000 0.222593 0.000000 0.000000
# 5 0.000000 0.000000 0.000000 0.000000 0.054125 0.000000
# 6 0.000000 0.000000 0.000000 0.000000 0.000000 0.061120
#
#
# Mechanical properties :
#
#
# Convention : Reuss Voigt Hill
#
# Bulk Modulus (GPa) = 52.81899 63.01764 57.91831
# Shear Modulus (GPa) = 11.97197 20.32425 16.14811
#
# Velocity S-wave (km/s) = 2.55091 3.32368 2.96260
# Velocity P-wave (km/s) = 6.11432 6.99866 6.57138
#
# Compressibility (1/GPa) = 0.01893259
#
# Stress axis : x y z
#
# Youngs Moduli (GPa) = 66.07360 101.09105 47.20038
#
# Poissons Ratio (x) = 0.55011 0.42312
# Poissons Ratio (y) = 0.35955 -0.03615
# Poissons Ratio (z) = 0.59230 -0.07742
#
# Static dielectric constant tensor:
#      x y z
#    x 1.674890 0.000000 0.000000 
#    y 0.000000 1.635630 0.000000 
#    z 0.000000 0.000000 1.655280 
# 
# From -- ./inp_files/31003.got.cif
#   From: 2010.05.17/outbox.cif.g08.bks.cpg/sg74_16_cif.got.tgz:31003.got - 2010.06.03 17:57:02.
