data_PCOD9533840
_publ_section_title
;
Structure prediction by ZEFSAII (Michael W. Deem and Ramdas Pophale) SiO2 
 PCOD9533840
Probable space group: I M M A
;
_chemical_formula_sum "Si O2"
_cell_formula_units_Z 68
_cell_length_a 22.922449
_cell_length_b 17.637319
_cell_length_c 6.783137
_cell_angle_alpha 90.000000
_cell_angle_beta 90.000000
_cell_angle_gamma 90.000000
_cell_volume 2742.358156
_symmetry_space_group_name_H-M "I M M A"
_symmetry_group_IT_number 74
_symmetry_cell_setting 'orthorhombic'
loop_
_space_group_symop_operation_xyz
x,y,z
-x,1/2-y,z
x,-y,-z
-x,1/2+y,-z
-x,-y,-z
x,1/2+y,-z
-x,y,z
x,1/2-y,z
1/2+x,1/2+y,1/2+z
1/2-x,-y,1/2+z
1/2+x,1/2-y,1/2-z
1/2-x,y,1/2-z
1/2-x,1/2-y,1/2-z
1/2+x,y,1/2-z
1/2-x,1/2+y,1/2+z
1/2+x,-y,1/2+z
loop_
_atom_site_type_symbol
_atom_site_label
_atom_site_fract_x
_atom_site_fract_y
_atom_site_fract_z
Si Si1 0.891763 0.363827 0.646532
Si Si2 0.263386 0.340873 0.967602
Si Si3 0.934144 0.024720 0.229437
Si Si4 0.000000 0.750000 0.425213
Si Si5 0.858799 0.162303 0.105754
O O1 0.832564 0.352129 0.520664
O O2 0.906410 0.452663 0.662250
O O3 0.947939 0.315625 0.584774
O O4 0.877019 0.338875 0.873211
O O5 0.255180 0.250000 0.965822
O O6 0.250000 0.373148 0.750000
O O7 0.208763 0.365184 0.102983
O O8 0.899701 0.103260 0.217277
O O9 0.000000 0.037586 0.295347
O O10 0.936016 0.000000 0.000000
O O11 0.864068 0.250000 0.170067
#
# Coordination Sequence:
#
# PCOD9533840 Si02
#       5
#    16  16  16   4  16
#     4  10  16  23  34  52  78 104 136 153 188 240
#     4   8  13  23  35  48  66 101 137 158 185 228
#     4   9  17  23  31  51  80 103 126 159 189 238
#     4  12  16  20  36  56  78 116 126 150 194 240
#     4   9  16  24  35  48  72 106 136 156 190 230
#
# _framework density 24.796175999999999
#
# number of rings (size 3 to 8) (size 9 to 14) (size 15 to 20)
#    0.000    2.824    3.529    1.412    1.647    0.471 
#    0.000    0.000    0.000    0.000    0.000    0.000 
#    3.529    8.000    4.000   16.706    0.235    0.000 
#
# Total GULP energy -189629.378686 kJ/mol
# GULP energy per Si atom -5577.334667 kJ/mol
# Density = 2.473974 g / cm^3
# Si number density = 24.796176 Si / 1000 Ang^3
#
#
#
# Elastic Constant Matrix: (Units=GPa)
#
#
# Indices 1 2 3 4 5 6 
#
# 1 264.1904 106.6169 53.0553 0.0000 0.0000 0.0000
# 2 106.6169 180.0616 53.8645 0.0000 0.0000 0.0000
# 3 53.0553 53.8645 59.4091 0.0000 0.0000 0.0000
# 4 0.0000 0.0000 0.0000 37.8051 0.0000 0.0000
# 5 0.0000 0.0000 0.0000 0.0000 33.9983 0.0000
# 6 0.0000 0.0000 0.0000 0.0000 0.0000 41.2138
#
#
#
# Elastic Compliance Matrix: (Units=1/GPa)
#
#
# Indices 1 2 3 4 5 6 
#
# 1 0.005243 -0.002338 -0.002563 0.000000 0.000000 0.000000
# 2 -0.002338 0.008663 -0.005767 0.000000 0.000000 0.000000
# 3 -0.002563 -0.005767 0.024350 0.000000 0.000000 0.000000
# 4 0.000000 0.000000 0.000000 0.026451 0.000000 0.000000
# 5 0.000000 0.000000 0.000000 0.000000 0.029413 0.000000
# 6 0.000000 0.000000 0.000000 0.000000 0.000000 0.024264
#
#
# Mechanical properties :
#
#
# Convention : Reuss Voigt Hill
#
# Bulk Modulus (GPa) = 59.09743 103.41493 81.25618
# Shear Modulus (GPa) = 34.39748 41.94506 38.17127
#
# Velocity S-wave (km/s) = 3.72857 4.11736 3.92778
# Velocity P-wave (km/s) = 6.51316 8.02497 7.30826
#
# Compressibility (1/GPa) = 0.01692121
#
# Stress axis : x y z
#
# Youngs Moduli (GPa) = 190.71819 115.43249 41.06857
#
# Poissons Ratio (x) = 0.26988 0.10525
# Poissons Ratio (y) = 0.44590 0.23683
# Poissons Ratio (z) = 0.48876 0.66565
#
# Static dielectric constant tensor:
#      x y z
#    x 1.931650 0.000000 0.000000 
#    y 0.000000 1.868560 0.000000 
#    z 0.000000 0.000000 2.127140 
# 
# From -- ./inp_files/10449.got.cif
#   From: 2010.05.17/outbox.cif.g08.bks.cpg/sg74_6_cif.got.tgz:10449.got - 2010.06.03 17:57:02.
