data_PCOD9533607
_publ_section_title
;
Structure prediction by ZEFSAII (Michael W. Deem and Ramdas Pophale) SiO2 
 PCOD9533607
Probable space group: I B C A 
;
_chemical_formula_sum "Si O2"
_cell_formula_units_Z 64
_cell_length_a 13.381747
_cell_length_b 13.669835
_cell_length_c 13.784218
_cell_angle_alpha 90.000000
_cell_angle_beta 90.000000
_cell_angle_gamma 90.000000
_cell_volume 2521.495632
_symmetry_space_group_name_H-M "I B C A "
_symmetry_group_IT_number 73
_symmetry_cell_setting 'orthorhombic'
loop_
_space_group_symop_operation_xyz
x,y,z
-x,1/2-y,z
x,-y,1/2-z
1/2-x,y,-z
-x,-y,-z
x,1/2+y,-z
-x,y,1/2+z
1/2+x,-y,z
1/2+x,1/2+y,1/2+z
1/2-x,-y,1/2+z
1/2+x,1/2-y,-z
-x,1/2+y,1/2-z
1/2-x,1/2-y,1/2-z
1/2+x,y,1/2-z
1/2-x,1/2+y,z
x,1/2-y,1/2+z
loop_
_atom_site_type_symbol
_atom_site_label
_atom_site_fract_x
_atom_site_fract_y
_atom_site_fract_z
Si Si1 0.092808 0.580162 0.416280
Si Si2 0.265541 0.863650 0.776141
Si Si3 0.445470 0.000000 0.750000
Si Si4 0.000000 0.250000 0.953201
Si Si5 0.327974 0.382733 0.577731
O O1 0.193655 0.618575 0.366302
O O2 0.122766 0.479306 0.469324
O O3 0.015696 0.545854 0.332800
O O4 0.047723 0.665820 0.480148
O O5 0.250000 0.750000 0.750000
O O6 0.224721 0.913478 0.676976
O O7 0.374487 0.911702 0.788542
O O8 0.912300 0.304196 0.896702
O O9 0.250000 0.341831 0.500000
#
# Coordination Sequence:
#
# PCOD9533607 Si02
#       5
#    16  16   8   8  16
#     4  12  25  50  72 110 141 201 252 299 375 447
#     4  12  26  45  78 106 144 197 250 303 364 446
#     4  12  22  46  78 102 142 184 258 304 348 438
#     4  12  30  44  74 112 152 196 246 312 378 458
#     4  12  26  49  70 112 151 191 241 309 383 433
#
# _framework density 25.38176
#
# number of rings (size 3 to 8) (size 9 to 14) (size 15 to 20)
#    0.000    0.000    5.000    5.250    3.500    4.000 
#    0.000    0.000    0.000    0.000    0.000    0.000 
#    0.000    0.000    0.000    0.000    0.000    0.000 
#
# Total GULP energy -179510.763218 kJ/mol
# GULP energy per Si atom -5609.711351 kJ/mol
# Density = 2.532399 g / cm^3
# Si number density = 25.381760 Si / 1000 Ang^3
#
#
#
# Elastic Constant Matrix: (Units=GPa)
#
#
# Indices 1 2 3 4 5 6 
#
# 1 115.5182 16.3455 8.4608 0.0000 0.0000 0.0000
# 2 16.3455 133.8675 -22.6624 0.0000 0.0000 0.0000
# 3 8.4608 -22.6624 47.6469 0.0000 0.0000 0.0000
# 4 0.0000 0.0000 0.0000 42.7376 0.0000 0.0000
# 5 0.0000 0.0000 0.0000 0.0000 35.4316 0.0000
# 6 0.0000 0.0000 0.0000 0.0000 0.0000 33.7731
#
#
#
# Elastic Compliance Matrix: (Units=1/GPa)
#
#
# Indices 1 2 3 4 5 6 
#
# 1 0.009038 -0.001496 -0.002316 0.000000 0.000000 0.000000
# 2 -0.001496 0.008372 0.004247 0.000000 0.000000 0.000000
# 3 -0.002316 0.004247 0.023419 0.000000 0.000000 0.000000
# 4 0.000000 0.000000 0.000000 0.023399 0.000000 0.000000
# 5 0.000000 0.000000 0.000000 0.000000 0.028223 0.000000
# 6 0.000000 0.000000 0.000000 0.000000 0.000000 0.029609
#
#
# Mechanical properties :
#
#
# Convention : Reuss Voigt Hill
#
# Bulk Modulus (GPa) = 23.98082 33.48004 28.73043
# Shear Modulus (GPa) = 37.01256 42.04771 39.53013
#
# Velocity S-wave (km/s) = 3.82283 4.07456 3.95070
# Velocity P-wave (km/s) = 5.38088 5.94603 5.67050
#
# Compressibility (1/GPa) = 0.04169998
#
# Stress axis : x y z
#
# Youngs Moduli (GPa) = 110.64480 119.44937 42.69984
#
# Poissons Ratio (x) = 0.17866 0.09891
# Poissons Ratio (y) = 0.16549 -0.18137
# Poissons Ratio (z) = 0.25629 -0.50736
#
# Static dielectric constant tensor:
#      x y z
#    x 2.006540 0.000000 0.000000 
#    y 0.000000 2.065470 0.000000 
#    z 0.000000 0.000000 1.966270 
# 
# From -- ./inp_files/10487.got.cif
#   From: 2010.05.17/outbox.cif.g08.bks.cpg/sg73_6_cif.got.tgz:10487.got - 2010.06.03 17:35:07.
