data_PCOD9533473
_publ_section_title
;
Structure prediction by ZEFSAII (Michael W. Deem and Ramdas Pophale) SiO2 
 PCOD9533473
Probable space group: I B C A 
;
_chemical_formula_sum "Si O2"
_cell_formula_units_Z 88
_cell_length_a 29.754762
_cell_length_b 11.605957
_cell_length_c 10.934917
_cell_angle_alpha 90.000000
_cell_angle_beta 90.000000
_cell_angle_gamma 90.000000
_cell_volume 3776.182097
_symmetry_space_group_name_H-M "I B C A "
_symmetry_group_IT_number 73
_symmetry_cell_setting 'orthorhombic'
loop_
_space_group_symop_operation_xyz
x,y,z
-x,1/2-y,z
x,-y,1/2-z
1/2-x,y,-z
-x,-y,-z
x,1/2+y,-z
-x,y,1/2+z
1/2+x,-y,z
1/2+x,1/2+y,1/2+z
1/2-x,-y,1/2+z
1/2+x,1/2-y,-z
-x,1/2+y,1/2-z
1/2-x,1/2-y,1/2-z
1/2+x,y,1/2-z
1/2-x,1/2+y,z
x,1/2-y,1/2+z
loop_
_atom_site_type_symbol
_atom_site_label
_atom_site_fract_x
_atom_site_fract_y
_atom_site_fract_z
Si Si1 0.819011 0.131501 0.756082
Si Si2 0.301741 0.212156 0.001915
Si Si3 0.548094 0.058485 0.983010
Si Si4 0.083346 0.334834 0.781620
Si Si5 0.000000 0.250000 0.652351
Si Si6 0.876790 0.085688 0.352546
O O1 0.806936 0.222614 0.646699
O O2 0.871787 0.118623 0.721911
O O3 0.799839 0.000000 0.750000
O O4 0.809357 0.186722 0.892634
O O5 0.250000 0.174271 0.000000
O O6 0.338187 0.119764 0.051128
O O7 0.535402 0.180502 0.926328
O O8 0.580651 0.983494 0.902327
O O9 0.576009 0.087439 0.101343
O O10 0.500000 0.000000 0.000000
O O11 0.099754 0.204273 0.808563
O O12 0.033254 0.332013 0.726751
O O13 0.857093 0.000000 0.250000
#
# Coordination Sequence:
#
# PCOD9533473 Si02
#       6
#    16  16  16  16   8  16
#     4  11  27  48  80 111 158 205 257 330 414 480
#     4  11  27  50  80 117 154 197 265 335 401 495
#     4  12  26  41  68 101 147 203 254 314 379 458
#     4  11  26  42  64 103 141 194 256 312 374 470
#     4  12  24  40  66  94 148 186 262 298 372 442
#     4  11  24  47  72 105 151 204 251 322 404 464
#
# _framework density 23.303961000000001
#
# number of rings (size 3 to 8) (size 9 to 14) (size 15 to 20)
#    0.000    0.727    1.818    4.364   10.182    4.364 
#    0.000    0.000    0.000    0.000    0.000    0.000 
#    0.000    0.000    0.000    0.000    0.000    0.000 
#
# Total GULP energy -245144.657461 kJ/mol
# GULP energy per Si atom -5571.469488 kJ/mol
# Density = 2.325092 g / cm^3
# Si number density = 23.303961 Si / 1000 Ang^3
#
#
#
# Elastic Constant Matrix: (Units=GPa)
#
#
# Indices 1 2 3 4 5 6 
#
# 1 110.1988 -3.7150 8.5231 0.0000 0.0000 0.0000
# 2 -3.7150 71.2396 32.4763 0.0000 0.0000 0.0000
# 3 8.5231 32.4763 97.8439 0.0000 0.0000 0.0000
# 4 0.0000 0.0000 0.0000 26.4333 0.0000 0.0000
# 5 0.0000 0.0000 0.0000 0.0000 41.3917 0.0000
# 6 0.0000 0.0000 0.0000 0.0000 0.0000 14.9991
#
#
#
# Elastic Compliance Matrix: (Units=1/GPa)
#
#
# Indices 1 2 3 4 5 6 
#
# 1 0.009196 0.000995 -0.001131 0.000000 0.000000 0.000000
# 2 0.000995 0.016648 -0.005612 0.000000 0.000000 0.000000
# 3 -0.001131 -0.005612 0.012182 0.000000 0.000000 0.000000
# 4 0.000000 0.000000 0.000000 0.037831 0.000000 0.000000
# 5 0.000000 0.000000 0.000000 0.000000 0.024159 0.000000
# 6 0.000000 0.000000 0.000000 0.000000 0.000000 0.066671
#
#
# Mechanical properties :
#
#
# Convention : Reuss Voigt Hill
#
# Bulk Modulus (GPa) = 37.69598 39.31678 38.50638
# Shear Modulus (GPa) = 26.73433 32.69802 29.71617
#
# Velocity S-wave (km/s) = 3.39071 3.74987 3.57481
# Velocity P-wave (km/s) = 5.61606 5.97132 5.79641
#
# Compressibility (1/GPa) = 0.02652803
#
# Stress axis : x y z
#
# Youngs Moduli (GPa) = 108.74811 60.06888 82.08991
#
# Poissons Ratio (x) = -0.05979 0.09287
# Poissons Ratio (y) = -0.10824 0.46072
# Poissons Ratio (z) = 0.12303 0.33713
#
# Static dielectric constant tensor:
#      x y z
#    x 12.737230 0.000000 0.000000 
#    y 0.000000 1.467990 0.000000 
#    z 0.000000 0.000000 2.047520 
# 
# From -- ./inp_files/14661.got.cif
#   From: 2010.05.17/outbox.cif.g08.bks.cpg/sg73_8_cif.got.tgz:14661.got - 2010.06.03 17:35:07.
