data_PCOD9533459
_publ_section_title
;
Structure prediction by ZEFSAII (Michael W. Deem and Ramdas Pophale) SiO2 
 PCOD9533459
Probable space group: I B C A 
;
_chemical_formula_sum "Si O2"
_cell_formula_units_Z 88
_cell_length_a 17.061008
_cell_length_b 19.760502
_cell_length_c 10.277229
_cell_angle_alpha 90.000000
_cell_angle_beta 90.000000
_cell_angle_gamma 90.000000
_cell_volume 3464.804172
_symmetry_space_group_name_H-M "I B C A "
_symmetry_group_IT_number 73
_symmetry_cell_setting 'orthorhombic'
loop_
_space_group_symop_operation_xyz
x,y,z
-x,1/2-y,z
x,-y,1/2-z
1/2-x,y,-z
-x,-y,-z
x,1/2+y,-z
-x,y,1/2+z
1/2+x,-y,z
1/2+x,1/2+y,1/2+z
1/2-x,-y,1/2+z
1/2+x,1/2-y,-z
-x,1/2+y,1/2-z
1/2-x,1/2-y,1/2-z
1/2+x,y,1/2-z
1/2-x,1/2+y,z
x,1/2-y,1/2+z
loop_
_atom_site_type_symbol
_atom_site_label
_atom_site_fract_x
_atom_site_fract_y
_atom_site_fract_z
Si Si1 0.072470 0.097334 0.827877
Si Si2 0.674047 0.659446 0.715579
Si Si3 0.665809 0.026446 0.465486
Si Si4 0.549722 0.681188 0.928472
Si Si5 0.674080 0.312001 0.348300
Si Si6 0.048104 0.500000 0.750000
O O1 0.120617 0.159792 0.770016
O O2 0.016361 0.124685 0.941143
O O3 0.012569 0.061239 0.729820
O O4 0.128587 0.044042 0.896067
O O5 0.676709 0.597045 0.616022
O O6 0.591901 0.672265 0.788618
O O7 0.690776 0.731764 0.648640
O O8 0.743294 0.651814 0.822184
O O9 0.750000 0.995770 0.500000
O O10 0.605646 0.987062 0.372021
O O11 0.500000 0.750000 0.940678
O O12 0.619413 0.674255 0.029745
#
# Coordination Sequence:
#
# PCOD9533459 Si02
#       6
#    16  16  16  16  16   8
#     4  12  25  46  72 104 142 187 242 309 361 434
#     4  11  24  46  70 104 146 183 237 294 370 446
#     4  12  26  50  74 104 146 194 245 309 371 437
#     4  12  24  40  69 106 145 186 234 295 363 442
#     4  11  25  42  71 105 144 190 230 289 375 446
#     4  12  28  50  72 106 140 194 260 306 366 430
#
# _framework density 25.398260000000001
#
# number of rings (size 3 to 8) (size 9 to 14) (size 15 to 20)
#    0.000    0.364    5.455    3.273    2.545    0.727 
#    3.273    0.000    0.000    0.000    0.000    0.000 
#    0.000    0.000    0.000    0.000    0.000    0.000 
#
# Total GULP energy -246169.995667 kJ/mol
# GULP energy per Si atom -5594.772629 kJ/mol
# Density = 2.534045 g / cm^3
# Si number density = 25.398260 Si / 1000 Ang^3
#
#
#
# Elastic Constant Matrix: (Units=GPa)
#
#
# Indices 1 2 3 4 5 6 
#
# 1 150.9104 28.6903 30.9558 0.0000 0.0000 0.0000
# 2 28.6903 62.6587 3.8665 0.0000 0.0000 0.0000
# 3 30.9558 3.8665 74.8433 0.0000 0.0000 0.0000
# 4 0.0000 0.0000 0.0000 27.3882 0.0000 0.0000
# 5 0.0000 0.0000 0.0000 0.0000 49.0499 0.0000
# 6 0.0000 0.0000 0.0000 0.0000 0.0000 30.7302
#
#
#
# Elastic Compliance Matrix: (Units=1/GPa)
#
#
# Indices 1 2 3 4 5 6 
#
# 1 0.007914 -0.003433 -0.003096 0.000000 0.000000 0.000000
# 2 -0.003433 0.017499 0.000516 0.000000 0.000000 0.000000
# 3 -0.003096 0.000516 0.014615 0.000000 0.000000 0.000000
# 4 0.000000 0.000000 0.000000 0.036512 0.000000 0.000000
# 5 0.000000 0.000000 0.000000 0.000000 0.020387 0.000000
# 6 0.000000 0.000000 0.000000 0.000000 0.000000 0.032541
#
#
# Mechanical properties :
#
#
# Convention : Reuss Voigt Hill
#
# Bulk Modulus (GPa) = 35.71074 46.15974 40.93524
# Shear Modulus (GPa) = 33.14998 36.42698 34.78848
#
# Velocity S-wave (km/s) = 3.61668 3.79123 3.70499
# Velocity P-wave (km/s) = 5.61528 6.11379 5.86983
#
# Compressibility (1/GPa) = 0.02800278
#
# Stress axis : x y z
#
# Youngs Moduli (GPa) = 126.35624 57.14471 68.42216
#
# Poissons Ratio (x) = 0.19616 0.21184
# Poissons Ratio (y) = 0.43374 -0.03529
# Poissons Ratio (z) = 0.39120 -0.02947
#
# Static dielectric constant tensor:
#      x y z
#    x 2.010500 0.000000 0.000000 
#    y 0.000000 2.018460 0.000000 
#    z 0.000000 0.000000 1.994470 
# 
# From -- ./inp_files/10961.got.cif
#   From: 2010.05.17/outbox.cif.g08.bks.cpg/sg73_6_cif.got.tgz:10961.got - 2010.06.03 17:35:07.
