data_PCOD9533744
_publ_section_title
;
Structure prediction by ZEFSAII (Michael W. Deem and Ramdas Pophale) SiO2 
 PCOD9533744
Probable space group: I B C A 
;
_chemical_formula_sum "Si O2"
_cell_formula_units_Z 56
_cell_length_a 30.000000
_cell_length_b 12.000000
_cell_length_c 15.000000
_cell_angle_alpha 90.000000
_cell_angle_beta 90.000000
_cell_angle_gamma 90.000000
_cell_volume 5400.000000
_symmetry_space_group_name_H-M "I B C A "
_symmetry_group_IT_number 73
_symmetry_cell_setting 'orthorhombic'
loop_
_space_group_symop_operation_xyz
x,y,z
-x,1/2-y,z
x,-y,1/2-z
1/2-x,y,-z
-x,-y,-z
x,1/2+y,-z
-x,y,1/2+z
1/2+x,-y,z
1/2+x,1/2+y,1/2+z
1/2-x,-y,1/2+z
1/2+x,1/2-y,-z
-x,1/2+y,1/2-z
1/2-x,1/2-y,1/2-z
1/2+x,y,1/2-z
1/2-x,1/2+y,z
x,1/2-y,1/2+z
loop_
_atom_site_type_symbol
_atom_site_label
_atom_site_fract_x
_atom_site_fract_y
_atom_site_fract_z
Si Si1 0.890532 0.180405 0.658155
Si Si2 0.568641 0.610706 0.090003
Si Si3 0.734431 0.000000 0.250000
Si Si4 0.885078 0.000000 0.250000
Si Si5 0.171009 0.309372 0.823916
Si Si6 0.308817 0.075514 0.118111
Si Si7 0.862608 0.983681 0.539742
Si Si8 0.989004 0.879475 0.798593
O O1 0.906628 0.270902 0.585377
O O2 0.861422 0.223382 0.741413
O O3 0.936052 0.126654 0.692997
O O4 0.864128 0.086267 0.606589
O O5 0.584042 0.576229 0.189672
O O6 0.515822 0.616125 0.106372
O O7 0.591581 0.532545 0.016894
O O8 0.705340 0.894513 0.278327
O O9 0.766247 0.974464 0.166480
O O10 0.852109 0.055629 0.320078
O O11 0.194937 0.208493 0.875474
O O12 0.144455 0.376219 0.899540
O O13 0.322534 0.012640 0.028136
O O14 0.000000 0.750000 0.763381
O O15 0.997757 0.000000 0.750000
#
# Coordination Sequence:
#
# PCOD9533744 Si02
#       8
#    16  16   8   8  16  16  16  16
#     4  11  22  41  63  92 131 171 213 256 326 380
#     4  10  20  37  63  90 129 167 216 259 309 371
#     4  11  24  44  65  94 118 158 211 260 318 391
#     4   9  16  36  61  84 116 162 213 244 306 377
#     4  12  22  43  66  89 127 168 203 259 324 382
#     4  10  23  40  64  90 119 160 208 260 315 377
#     4  11  23  39  63  95 125 163 208 261 317 382
#     4  10  21  36  62  96 131 174 222 271 313 383
#
# _framework density 10.370369999999999
#
# number of rings (size 3 to 8) (size 9 to 14) (size 15 to 20)
#    0.000    1.429    3.571    2.143    0.000    1.143 
#    0.000    2.857    0.000    2.571    0.000    0.000 
#    0.000    0.000    0.000    0.000    0.000    0.000 
#
# Total GULP energy -311748.482684 kJ/mol
# GULP energy per Si atom -5566.937191 kJ/mol
# Density = 1.034677 g / cm^3
# Si number density = 10.370370 Si / 1000 Ang^3
#
#
#
# Elastic Constant Matrix: (Units=GPa)
#
#
# Indices 1 2 3 4 5 6 
#
# 1 65.1057 -11.1326 7.4167 0.0000 0.0000 0.0000
# 2 -11.1326 56.6193 6.3282 0.0000 0.0000 0.0000
# 3 7.4167 6.3282 60.3851 0.0000 0.0000 0.0000
# 4 0.0000 0.0000 0.0000 -5.9866 0.0000 0.0000
# 5 0.0000 0.0000 0.0000 0.0000 62.3604 0.0000
# 6 0.0000 0.0000 0.0000 0.0000 0.0000 25.1301
#
#
#
# Elastic Compliance Matrix: (Units=1/GPa)
#
#
# Indices 1 2 3 4 5 6 
#
# 1 0.016218 0.003452 -0.002354 0.000000 0.000000 0.000000
# 2 0.003452 0.018606 -0.002374 0.000000 0.000000 0.000000
# 3 -0.002354 -0.002374 0.017098 0.000000 0.000000 0.000000
# 4 0.000000 0.000000 0.000000 -0.167040 0.000000 0.000000
# 5 0.000000 0.000000 0.000000 0.000000 0.016036 0.000000
# 6 0.000000 0.000000 0.000000 0.000000 0.000000 0.039793
#
#
# Mechanical properties :
#
#
# Convention : Reuss Voigt Hill
#
# Bulk Modulus (GPa) = 20.25487 20.81496 20.53492
# Shear Modulus (GPa) = -124.12713 28.26730 -47.92991
#
# Velocity S-wave (km/s) = -7.74448 3.69574 -4.81240
# Velocity P-wave (km/s) = 8.37749 5.31685 4.57785
#
# Compressibility (1/GPa) = 0.04937084
#
# Stress axis : x y z
#
# Youngs Moduli (GPa) = 61.65981 53.74658 58.48560
#
# Poissons Ratio (x) = -0.18553 0.13766
# Poissons Ratio (y) = -0.21284 0.13883
# Poissons Ratio (z) = 0.14513 0.12758
#
# Static dielectric constant tensor:
#      x y z
#    x 1.758740 0.000000 0.000000 
#    y 0.000000 1.824920 0.000000 
#    z 0.000000 0.000000 1.717710 
# 
# From -- ./inp_files/20084.got.cif
#   From: 2010.05.17/outbox.ucp.g08.bks.cvg/sg73_11_cif.got.tgz:20084.got - 2010.06.11 16:36:03.
