data_PCOD9533145
_publ_section_title
;
Structure prediction by ZEFSAII (Michael W. Deem and Ramdas Pophale) SiO2 
 PCOD9533145
Probable space group: I B C A 
;
_chemical_formula_sum "Si O2"
_cell_formula_units_Z 128
_cell_length_a 23.462073
_cell_length_b 26.901041
_cell_length_c 11.023483
_cell_angle_alpha 90.000000
_cell_angle_beta 90.000000
_cell_angle_gamma 90.000000
_cell_volume 6957.517459
_symmetry_space_group_name_H-M "I B C A "
_symmetry_group_IT_number 73
_symmetry_cell_setting 'orthorhombic'
loop_
_space_group_symop_operation_xyz
x,y,z
-x,1/2-y,z
x,-y,1/2-z
1/2-x,y,-z
-x,-y,-z
x,1/2+y,-z
-x,y,1/2+z
1/2+x,-y,z
1/2+x,1/2+y,1/2+z
1/2-x,-y,1/2+z
1/2+x,1/2-y,-z
-x,1/2+y,1/2-z
1/2-x,1/2-y,1/2-z
1/2+x,y,1/2-z
1/2-x,1/2+y,z
x,1/2-y,1/2+z
loop_
_atom_site_type_symbol
_atom_site_label
_atom_site_fract_x
_atom_site_fract_y
_atom_site_fract_z
Si Si1 0.816912 0.221115 0.896460
Si Si2 0.798790 0.375485 0.760729
Si Si3 0.315520 0.265792 0.844163
Si Si4 0.349687 0.453530 0.921940
Si Si5 0.816110 0.559553 0.529590
Si Si6 0.096502 0.943802 0.306926
Si Si7 0.179160 0.608572 0.645682
Si Si8 0.021898 0.529373 0.379601
O O1 0.752185 0.241101 0.874638
O O2 0.841060 0.231974 0.762603
O O3 0.817397 0.161956 0.918193
O O4 0.841910 0.241740 0.022083
O O5 0.815447 0.321413 0.711922
O O6 0.828202 0.416065 0.677651
O O7 0.817816 0.389099 0.895911
O O8 0.731571 0.386952 0.739872
O O9 0.334642 0.510517 0.896763
O O10 0.418003 0.448990 0.922860
O O11 0.318778 0.435166 0.046005
O O12 0.750000 0.552073 0.500000
O O13 0.859390 0.558306 0.417828
O O14 0.120657 0.903674 0.213470
O O15 0.031703 0.935662 0.347503
O O16 0.098899 0.000000 0.250000
O O17 0.031623 0.500000 0.250000
O O18 0.000000 0.500000 0.500000
#
# Coordination Sequence:
#
# PCOD9533145 Si02
#       8
#    16  16  16  16  16  16  16  16
#     4   9  18  33  56  77 109 146 181 222 280 340
#     4  11  22  33  52  84 118 145 184 230 279 345
#     4   9  18  34  52  79 111 146 179 222 278 341
#     4  12  22  34  57  78 111 152 190 229 276 325
#     4  12  22  33  50  80 117 153 188 224 273 336
#     4  11  22  37  53  75 113 156 194 231 282 332
#     4  11  20  37  55  80 114 150 181 227 287 349
#     4  11  22  40  56  76 109 153 202 244 272 320
#
# _framework density 18.397366000000002
#
# number of rings (size 3 to 8) (size 9 to 14) (size 15 to 20)
#    0.000    1.250    5.000    3.000    0.000    1.000 
#    2.250    0.000    0.000    0.000    0.000    0.875 
#    0.000    0.000    0.000    0.000    0.000    0.000 
#
# Total GULP energy -356284.789278 kJ/mol
# GULP energy per Si atom -5566.949832 kJ/mol
# Density = 1.835549 g / cm^3
# Si number density = 18.397366 Si / 1000 Ang^3
#
#
#
# Elastic Constant Matrix: (Units=GPa)
#
#
# Indices 1 2 3 4 5 6 
#
# 1 39.6050 -0.6159 -6.9085 0.0000 0.0000 0.0000
# 2 -0.6159 28.0880 20.7277 0.0000 0.0000 0.0000
# 3 -6.9085 20.7277 92.1115 0.0000 0.0000 0.0000
# 4 0.0000 0.0000 0.0000 20.4215 0.0000 0.0000
# 5 0.0000 0.0000 0.0000 0.0000 22.9413 0.0000
# 6 0.0000 0.0000 0.0000 0.0000 0.0000 1.5821
#
#
#
# Elastic Compliance Matrix: (Units=1/GPa)
#
#
# Indices 1 2 3 4 5 6 
#
# 1 0.025609 -0.001026 0.002152 0.000000 0.000000 0.000000
# 2 -0.001026 0.042733 -0.009693 0.000000 0.000000 0.000000
# 3 0.002152 -0.009693 0.013199 0.000000 0.000000 0.000000
# 4 0.000000 0.000000 0.000000 0.048968 0.000000 0.000000
# 5 0.000000 0.000000 0.000000 0.000000 0.043589 0.000000
# 6 0.000000 0.000000 0.000000 0.000000 0.000000 0.632062
#
#
# Mechanical properties :
#
#
# Convention : Reuss Voigt Hill
#
# Bulk Modulus (GPa) = 15.52671 20.69012 18.10842
# Shear Modulus (GPa) = 5.91881 18.76240 12.34061
#
# Velocity S-wave (km/s) = 1.79560 3.19696 2.59275
# Velocity P-wave (km/s) = 3.57168 4.98980 4.33906
#
# Compressibility (1/GPa) = 0.06440513
#
# Stress axis : x y z
#
# Youngs Moduli (GPa) = 39.04921 23.40115 75.76328
#
# Poissons Ratio (x) = 0.02402 -0.16302
# Poissons Ratio (y) = 0.04008 0.73438
# Poissons Ratio (z) = -0.08402 0.22683
#
# Static dielectric constant tensor:
#      x y z
#    x 1.677390 0.000000 0.000000 
#    y 0.000000 1.625170 0.000000 
#    z 0.000000 0.000000 1.759430 
# 
# From -- ./inp_files/13980.got.cif
#   From: 2010.05.17/outbox.cif.g08.bks.cpg/sg73_7_cif.got.tgz:13980.got - 2010.06.03 17:35:07.
