data_PCOD9533894
_publ_section_title
;
Structure prediction by ZEFSAII (Michael W. Deem and Ramdas Pophale) SiO2 
 PCOD9533894
Probable space group: I M M A
;
_chemical_formula_sum "Si O2"
_cell_formula_units_Z 72
_cell_length_a 10.585000
_cell_length_b 21.033405
_cell_length_c 20.516385
_cell_angle_alpha 90.000000
_cell_angle_beta 90.000000
_cell_angle_gamma 90.000000
_cell_volume 4567.739068
_symmetry_space_group_name_H-M "I M M A"
_symmetry_group_IT_number 74
_symmetry_cell_setting 'orthorhombic'
loop_
_space_group_symop_operation_xyz
x,y,z
-x,1/2-y,z
x,-y,-z
-x,1/2+y,-z
-x,-y,-z
x,1/2+y,-z
-x,y,z
x,1/2-y,z
1/2+x,1/2+y,1/2+z
1/2-x,-y,1/2+z
1/2+x,1/2-y,1/2-z
1/2-x,y,1/2-z
1/2-x,1/2-y,1/2-z
1/2+x,y,1/2-z
1/2-x,1/2+y,1/2+z
1/2+x,-y,1/2+z
loop_
_atom_site_type_symbol
_atom_site_label
_atom_site_fract_x
_atom_site_fract_y
_atom_site_fract_z
Si Si1 0.500000 0.059526 0.051596
Si Si2 0.000000 0.440382 0.815677
Si Si3 0.761319 0.423305 0.010615
Si Si4 0.652324 0.250000 0.810696
Si Si5 0.500000 0.458396 0.432505
Si Si6 0.000000 0.966956 0.333270
Si Si7 0.754444 0.117979 0.633891
O O1 0.373327 0.097511 0.037326
O O2 0.500000 0.030041 0.123369
O O3 0.500000 0.000000 0.000000
O O4 0.000000 0.471451 0.744497
O O5 0.128920 0.399506 0.824578
O O6 0.000000 0.493665 0.872306
O O7 0.874559 0.416828 0.061358
O O8 0.750924 0.500000 0.000000
O O9 0.785704 0.391538 0.941156
O O10 0.500000 0.250000 0.795572
O O11 0.750000 0.250000 0.750000
O O12 0.689944 0.186784 0.850067
O O13 0.500000 0.500000 0.500000
O O14 0.871657 0.929661 0.352919
#
# Coordination Sequence:
#
# PCOD9533894 Si02
#       7
#     8   8  16   8   8   8  16
#     4  10  16  28  48  68  94 115 159 200 253 308
#     4  12  22  31  51  74 100 130 167 206 247 303
#     4  10  16  30  52  71  86 119 165 202 257 295
#     4  12  28  42  50  66 100 142 181 217 250 286
#     4  10  16  32  48  72  96 119 159 198 255 304
#     4  12  20  31  47  74  96 130 167 204 251 297
#     4  12  22  36  51  67  95 133 178 213 242 288
#
# _framework density 15.762722999999999
#
# number of rings (size 3 to 8) (size 9 to 14) (size 15 to 20)
#    0.000    0.889   10.000    2.000    1.556    0.000 
#    0.000    0.000    0.000    0.000    0.000    0.000 
#    0.000    0.000    0.000    6.000    0.000    0.000 
#
# Total GULP energy -200566.852774 kJ/mol
# GULP energy per Si atom -5571.301466 kJ/mol
# Density = 1.572685 g / cm^3
# Si number density = 15.762723 Si / 1000 Ang^3
#
#
#
# Elastic Constant Matrix: (Units=GPa)
#
#
# Indices 1 2 3 4 5 6 
#
# 1 129.0539 0.5924 7.7101 0.0000 0.0000 0.0000
# 2 0.5924 21.4303 21.7094 0.0000 0.0000 0.0000
# 3 7.7101 21.7094 75.3472 0.0000 0.0000 0.0000
# 4 0.0000 0.0000 0.0000 13.9701 0.0000 0.0000
# 5 0.0000 0.0000 0.0000 0.0000 20.9942 0.0000
# 6 0.0000 0.0000 0.0000 0.0000 0.0000 14.5798
#
#
#
# Elastic Compliance Matrix: (Units=1/GPa)
#
#
# Indices 1 2 3 4 5 6 
#
# 1 0.007807 0.000838 -0.001040 0.000000 0.000000 0.000000
# 2 0.000838 0.065987 -0.019098 0.000000 0.000000 0.000000
# 3 -0.001040 -0.019098 0.018881 0.000000 0.000000 0.000000
# 4 0.000000 0.000000 0.000000 0.071581 0.000000 0.000000
# 5 0.000000 0.000000 0.000000 0.000000 0.047632 0.000000
# 6 0.000000 0.000000 0.000000 0.000000 0.000000 0.068588
#
#
# Mechanical properties :
#
#
# Convention : Reuss Voigt Hill
#
# Bulk Modulus (GPa) = 18.49325 31.76169 25.12747
# Shear Modulus (GPa) = 14.83231 22.96345 18.89788
#
# Velocity S-wave (km/s) = 3.07086 3.82097 3.46627
# Velocity P-wave (km/s) = 4.93268 6.29762 5.65647
#
# Compressibility (1/GPa) = 0.05407380
#
# Stress axis : x y z
#
# Youngs Moduli (GPa) = 128.09010 15.15458 52.96319
#
# Poissons Ratio (x) = -0.01270 0.05510
# Poissons Ratio (y) = -0.10735 1.01150
# Poissons Ratio (z) = 0.13326 0.28943
#
# Static dielectric constant tensor:
#      x y z
#    x 1.756890 0.000000 0.000000 
#    y 0.000000 1.485810 0.000000 
#    z 0.000000 0.000000 1.534210 
# 
# From -- ./inp_files/41165.got.cif
#   From: 2010.05.17/outbox.cif.g08.bks.cpg/sg74_21_cif.got.tgz:41165.got - 2010.06.03 17:57:02.
