data_PCOD9533241
_publ_section_title
;
Structure prediction by ZEFSAII (Michael W. Deem and Ramdas Pophale) SiO2 
 PCOD9533241
Probable space group: I B C A 
;
_chemical_formula_sum "Si O2"
_cell_formula_units_Z 88
_cell_length_a 11.481566
_cell_length_b 14.291820
_cell_length_c 26.604643
_cell_angle_alpha 90.000000
_cell_angle_beta 90.000000
_cell_angle_gamma 90.000000
_cell_volume 4365.621705
_symmetry_space_group_name_H-M "I B C A "
_symmetry_group_IT_number 73
_symmetry_cell_setting 'orthorhombic'
loop_
_space_group_symop_operation_xyz
x,y,z
-x,1/2-y,z
x,-y,1/2-z
1/2-x,y,-z
-x,-y,-z
x,1/2+y,-z
-x,y,1/2+z
1/2+x,-y,z
1/2+x,1/2+y,1/2+z
1/2-x,-y,1/2+z
1/2+x,1/2-y,-z
-x,1/2+y,1/2-z
1/2-x,1/2-y,1/2-z
1/2+x,y,1/2-z
1/2-x,1/2+y,z
x,1/2-y,1/2+z
loop_
_atom_site_type_symbol
_atom_site_label
_atom_site_fract_x
_atom_site_fract_y
_atom_site_fract_z
Si Si1 0.403288 0.500000 0.750000
Si Si2 0.864679 0.242399 0.341941
Si Si3 0.375588 0.953989 0.006293
Si Si4 0.229808 0.605557 0.588492
Si Si5 0.926710 0.666084 0.261961
Si Si6 0.743612 0.948411 0.165774
O O1 0.482916 0.589957 0.759871
O O2 0.319467 0.514344 0.702539
O O3 0.783839 0.307868 0.375333
O O4 0.860731 0.283192 0.284527
O O5 0.825781 0.136552 0.350267
O O6 0.000000 0.250000 0.356019
O O7 0.354076 0.909003 0.060963
O O8 0.250000 0.010898 0.000000
O O9 0.500000 0.000000 0.000000
O O10 0.356995 0.884993 0.959068
O O11 0.199662 0.512859 0.620791
O O12 0.850629 0.605563 0.300110
O O13 0.000000 0.750000 0.286917
#
# Coordination Sequence:
#
# PCOD9533241 Si02
#       6
#     8  16  16  16  16  16
#     4  12  22  38  62  82 128 176 206 262 314 376
#     4  11  22  40  62  94 128 170 221 270 321 393
#     4   8  20  41  68  93 130 162 211 279 335 401
#     4   9  23  39  65  93 122 168 216 272 337 399
#     4  11  24  40  54  92 133 171 216 270 311 380
#     4  12  24  37  63  90 124 172 218 258 326 388
#
# _framework density 20.157495999999998
#
# number of rings (size 3 to 8) (size 9 to 14) (size 15 to 20)
#    1.091    0.364    3.636    3.273    5.091    0.000 
#    0.000    3.636    0.000    0.000    0.000    0.000 
#    0.000    0.000    0.000    0.000    0.000    0.000 
#
# Total GULP energy -244935.827706 kJ/mol
# GULP energy per Si atom -5566.723357 kJ/mol
# Density = 2.011162 g / cm^3
# Si number density = 20.157496 Si / 1000 Ang^3
#
#
#
# Elastic Constant Matrix: (Units=GPa)
#
#
# Indices 1 2 3 4 5 6 
#
# 1 69.2686 -4.8868 3.9448 0.0000 0.0000 0.0000
# 2 -4.8868 62.8188 10.4151 0.0000 0.0000 0.0000
# 3 3.9448 10.4151 63.9028 0.0000 0.0000 0.0000
# 4 0.0000 0.0000 0.0000 12.3325 0.0000 0.0000
# 5 0.0000 0.0000 0.0000 0.0000 14.9710 0.0000
# 6 0.0000 0.0000 0.0000 0.0000 0.0000 20.2407
#
#
#
# Elastic Compliance Matrix: (Units=1/GPa)
#
#
# Indices 1 2 3 4 5 6 
#
# 1 0.014593 0.001320 -0.001116 0.000000 0.000000 0.000000
# 2 0.001320 0.016480 -0.002768 0.000000 0.000000 0.000000
# 3 -0.001116 -0.002768 0.016169 0.000000 0.000000 0.000000
# 4 0.000000 0.000000 0.000000 0.081086 0.000000 0.000000
# 5 0.000000 0.000000 0.000000 0.000000 0.066796 0.000000
# 6 0.000000 0.000000 0.000000 0.000000 0.000000 0.049405
#
#
# Mechanical properties :
#
#
# Convention : Reuss Voigt Hill
#
# Bulk Modulus (GPa) = 23.74406 23.88179 23.81293
# Shear Modulus (GPa) = 18.96131 21.94333 20.45232
#
# Velocity S-wave (km/s) = 3.07034 3.30296 3.18878
# Velocity P-wave (km/s) = 4.93702 5.13998 5.03952
#
# Compressibility (1/GPa) = 0.04211580
#
# Stress axis : x y z
#
# Youngs Moduli (GPa) = 68.52481 60.67827 61.84780
#
# Poissons Ratio (x) = -0.08011 0.06902
# Poissons Ratio (y) = -0.09047 0.17117
# Poissons Ratio (z) = 0.07648 0.16793
#
# Static dielectric constant tensor:
#      x y z
#    x 1.795260 0.000000 0.000000 
#    y 0.000000 1.703680 0.000000 
#    z 0.000000 0.000000 1.769180 
# 
# From -- ./inp_files/28855.got.cif
#   From: 2010.05.17/outbox.cif.g08.bks.cpg/sg73_15_cif.got.tgz:28855.got - 2010.06.03 17:35:07.
