data_PCOD9533681
_publ_section_title
;
Structure prediction by ZEFSAII (Michael W. Deem and Ramdas Pophale) SiO2 
 PCOD9533681
Probable space group: I B C A 
;
_chemical_formula_sum "Si O2"
_cell_formula_units_Z 104
_cell_length_a 13.714052
_cell_length_b 32.320995
_cell_length_c 12.402694
_cell_angle_alpha 90.000000
_cell_angle_beta 90.000000
_cell_angle_gamma 90.000000
_cell_volume 5497.516516
_symmetry_space_group_name_H-M "I B C A "
_symmetry_group_IT_number 73
_symmetry_cell_setting 'orthorhombic'
loop_
_space_group_symop_operation_xyz
x,y,z
-x,1/2-y,z
x,-y,1/2-z
1/2-x,y,-z
-x,-y,-z
x,1/2+y,-z
-x,y,1/2+z
1/2+x,-y,z
1/2+x,1/2+y,1/2+z
1/2-x,-y,1/2+z
1/2+x,1/2-y,-z
-x,1/2+y,1/2-z
1/2-x,1/2-y,1/2-z
1/2+x,y,1/2-z
1/2-x,1/2+y,z
x,1/2-y,1/2+z
loop_
_atom_site_type_symbol
_atom_site_label
_atom_site_fract_x
_atom_site_fract_y
_atom_site_fract_z
Si Si1 0.078335 0.213526 0.008030
Si Si2 0.261870 0.120413 0.181596
Si Si3 0.877085 0.500000 0.250000
Si Si4 0.267186 0.556642 0.623467
Si Si5 0.484570 0.462226 0.917305
Si Si6 0.414527 0.618720 0.009689
Si Si7 0.263314 0.213702 0.168270
O O1 0.042482 0.165537 0.011920
O O2 0.168705 0.215063 0.091136
O O3 0.000000 0.250000 0.025002
O O4 0.135545 0.219271 0.895694
O O5 0.261497 0.091445 0.284853
O O6 0.166824 0.115653 0.104882
O O7 0.265488 0.168017 0.217374
O O8 0.353811 0.113234 0.101472
O O9 0.810591 0.477455 0.338637
O O10 0.944653 0.468583 0.184351
O O11 0.250000 0.570443 0.500000
O O12 0.125413 0.537553 0.376639
O O13 0.510204 0.418417 0.973001
O O14 0.500000 0.500000 0.000000
O O15 0.250000 0.250000 0.250000
#
# Coordination Sequence:
#
# PCOD9533681 Si02
#       7
#    16  16   8  16  16  16  16
#     4   9  19  38  63  92 120 158 209 257 308 380
#     4   9  20  41  66  86 123 168 210 257 318 381
#     4  12  26  46  64  90 130 166 212 270 316 380
#     4  12  26  42  63  95 129 165 214 264 323 377
#     4  12  26  42  64  94 124 165 216 262 318 382
#     4   9  20  41  67  88 120 169 213 258 319 380
#     4   9  19  38  60  90 123 162 202 248 318 377
#
# _framework density 18.917634
#
# number of rings (size 3 to 8) (size 9 to 14) (size 15 to 20)
#    0.000    1.846    3.077    2.308    4.308    1.846 
#    5.538    3.077    0.000    0.000    0.000    0.000 
#    0.000    0.000    0.000    0.000    0.000    0.000 
#
# Total GULP energy -290158.779612 kJ/mol
# GULP energy per Si atom -5579.976531 kJ/mol
# Density = 1.887458 g / cm^3
# Si number density = 18.917634 Si / 1000 Ang^3
#
#
#
# Elastic Constant Matrix: (Units=GPa)
#
#
# Indices 1 2 3 4 5 6 
#
# 1 91.9796 43.5167 18.9741 0.0000 0.0000 0.0000
# 2 43.5167 103.3428 49.4034 0.0001 0.0000 0.0000
# 3 18.9741 49.4034 98.6597 0.0004 0.0000 -0.0001
# 4 0.0000 0.0001 0.0004 35.1963 0.0000 0.0000
# 5 0.0000 0.0000 0.0000 0.0000 18.8369 0.0000
# 6 0.0000 0.0000 -0.0001 0.0000 0.0000 32.4804
#
#
#
# Elastic Compliance Matrix: (Units=1/GPa)
#
#
# Indices 1 2 3 4 5 6 
#
# 1 0.013585 -0.005879 0.000331 0.000000 0.000000 0.000000
# 2 -0.005879 0.015266 -0.006514 0.000000 0.000000 0.000000
# 3 0.000331 -0.006514 0.013334 0.000000 0.000000 0.000000
# 4 0.000000 0.000000 0.000000 0.028412 0.000000 0.000000
# 5 0.000000 0.000000 0.000000 0.000000 0.053087 0.000000
# 6 0.000000 0.000000 0.000000 0.000000 0.000000 0.030788
#
#
# Mechanical properties :
#
#
# Convention : Reuss Voigt Hill
#
# Bulk Modulus (GPa) = 55.36484 57.53005 56.44745
# Shear Modulus (GPa) = 27.08330 29.44191 28.26261
#
# Velocity S-wave (km/s) = 3.78781 3.94930 3.86940
# Velocity P-wave (km/s) = 6.96131 7.16050 7.06161
#
# Compressibility (1/GPa) = 0.01806200
#
# Stress axis : x y z
#
# Youngs Moduli (GPa) = 73.61057 65.50509 74.99678
#
# Poissons Ratio (x) = 0.38509 -0.02483
# Poissons Ratio (y) = 0.43274 0.48851
# Poissons Ratio (z) = -0.02438 0.42669
#
# Static dielectric constant tensor:
#      x y z
#    x 1.655860 0.000000 0.000000 
#    y 0.000000 1.653180 0.000000 
#    z 0.000000 0.000000 2.044240 
# 
# From -- ./inp_files/11257.got.cif
#   From: 2010.05.17/outbox.cif.g08.bks.cpg/sg73_6_cif.got.tgz:11257.got - 2010.06.03 17:35:07.
