data_PCOD9533929
_publ_section_title
;
Structure prediction by ZEFSAII (Michael W. Deem and Ramdas Pophale) SiO2 
 PCOD9533929
Probable space group: I M M A
;
_chemical_formula_sum "Si O2"
_cell_formula_units_Z 120
_cell_length_a 9.098984
_cell_length_b 28.986764
_cell_length_c 25.132777
_cell_angle_alpha 90.000000
_cell_angle_beta 90.000000
_cell_angle_gamma 90.000000
_cell_volume 6628.772493
_symmetry_space_group_name_H-M "I M M A"
_symmetry_group_IT_number 74
_symmetry_cell_setting 'orthorhombic'
loop_
_space_group_symop_operation_xyz
x,y,z
-x,1/2-y,z
x,-y,-z
-x,1/2+y,-z
-x,-y,-z
x,1/2+y,-z
-x,y,z
x,1/2-y,z
1/2+x,1/2+y,1/2+z
1/2-x,-y,1/2+z
1/2+x,1/2-y,1/2-z
1/2-x,y,1/2-z
1/2-x,1/2-y,1/2-z
1/2+x,y,1/2-z
1/2-x,1/2+y,1/2+z
1/2+x,-y,1/2+z
loop_
_atom_site_type_symbol
_atom_site_label
_atom_site_fract_x
_atom_site_fract_y
_atom_site_fract_z
Si Si1 0.327059 0.946288 0.193432
Si Si2 0.663318 0.032537 0.115924
Si Si3 0.252069 0.500000 0.000000
Si Si4 0.677134 0.368137 0.622071
Si Si5 0.831706 0.305135 0.696892
Si Si6 0.675876 0.804521 0.807512
Si Si7 0.830442 0.394509 0.993036
Si Si8 0.176504 0.874493 0.890366
O O1 0.500000 0.935671 0.199681
O O2 0.250000 0.951435 0.250000
O O3 0.244835 0.907104 0.159959
O O4 0.315690 0.992768 0.158918
O O5 0.500000 0.052924 0.121823
O O6 0.670719 0.009698 0.056854
O O7 0.780611 0.072954 0.124330
O O8 0.173392 0.549526 0.007097
O O9 0.500000 0.370021 0.623373
O O10 0.738924 0.321276 0.646527
O O11 0.733444 0.376941 0.562291
O O12 0.835044 0.250000 0.699569
O O13 0.750000 0.322571 0.750000
O O14 0.000000 0.321677 0.694884
O O15 0.500000 0.811611 0.804341
O O16 0.701813 0.750000 0.819403
O O17 0.750000 0.813988 0.750000
O O18 0.746458 0.837646 0.852067
O O19 0.000000 0.380572 0.993027
O O20 0.768785 0.373858 0.047881
O O21 0.000000 0.868705 0.888434
#
# Coordination Sequence:
#
# PCOD9533929 Si02
#       8
#    16  16   8  16  16  16  16  16
#     4  11  23  38  53  77 110 149 189 230 281 337
#     4  10  21  35  54  80 112 148 190 237 285 336
#     4  10  16  34  56  80 107 144 195 240 283 328
#     4  11  21  36  57  82 111 146 187 233 281 332
#     4  10  21  38  59  82 107 139 181 230 284 340
#     4  10  21  39  64  91 117 148 188 234 285 343
#     4   9  19  33  54  83 114 150 192 234 280 333
#     4  10  21  37  58  85 117 152 189 232 281 335
#
# _framework density 18.102898
#
# number of rings (size 3 to 8) (size 9 to 14) (size 15 to 20)
#    0.000    1.867    1.333    2.800    0.000    3.733 
#    0.000    4.000    0.000    4.000    0.000    0.000 
#    0.000    0.000    0.000    0.000    0.000    0.000 
#
# Total GULP energy -334479.010058 kJ/mol
# GULP energy per Si atom -5574.650168 kJ/mol
# Density = 1.806170 g / cm^3
# Si number density = 18.102898 Si / 1000 Ang^3
#
#
#
# Elastic Constant Matrix: (Units=GPa)
#
#
# Indices 1 2 3 4 5 6 
#
# 1 99.9362 40.8622 57.5456 0.0000 0.0000 0.0000
# 2 40.8622 69.5893 63.3178 0.0000 0.0000 0.0000
# 3 57.5456 63.3178 146.6457 0.0000 0.0000 0.0000
# 4 0.0000 0.0000 0.0000 30.5563 0.0000 0.0000
# 5 0.0000 0.0000 0.0000 0.0000 22.8093 0.0000
# 6 0.0000 0.0000 0.0000 0.0000 0.0000 26.6933
#
#
#
# Elastic Compliance Matrix: (Units=1/GPa)
#
#
# Indices 1 2 3 4 5 6 
#
# 1 0.014028 -0.005318 -0.003209 0.000000 0.000000 0.000000
# 2 -0.005318 0.025684 -0.009003 0.000000 0.000000 0.000000
# 3 -0.003209 -0.009003 0.011966 0.000000 0.000000 0.000000
# 4 0.000000 0.000000 0.000000 0.032727 0.000000 0.000000
# 5 0.000000 0.000000 0.000000 0.000000 0.043842 0.000000
# 6 0.000000 0.000000 0.000000 0.000000 0.000000 0.037463
#
#
# Mechanical properties :
#
#
# Convention : Reuss Voigt Hill
#
# Bulk Modulus (GPa) = 60.17186 71.06914 65.62050
# Shear Modulus (GPa) = 24.23558 26.30813 25.27186
#
# Velocity S-wave (km/s) = 3.66289 3.81629 3.74038
# Velocity P-wave (km/s) = 7.15541 7.66567 7.41493
#
# Compressibility (1/GPa) = 0.01661906
#
# Stress axis : x y z
#
# Youngs Moduli (GPa) = 71.28380 38.93444 83.57250
#
# Poissons Ratio (x) = 0.20704 0.26818
# Poissons Ratio (y) = 0.37906 0.75241
# Poissons Ratio (z) = 0.22874 0.35053
#
# Static dielectric constant tensor:
#      x y z
#    x 1.629230 0.000000 0.000000 
#    y 0.000000 1.619450 0.000000 
#    z 0.000000 0.000000 1.630480 
# 
# From -- ./inp_files/65115.got.cif
#   From: 2010.05.17/outbox.cif.g08.bks.cpg/sg74_33_cif.got.tgz:65115.got - 2010.06.03 17:57:02.
