data_PCOD9533498
_publ_section_title
;
Structure prediction by ZEFSAII (Michael W. Deem and Ramdas Pophale) SiO2 
 PCOD9533498
Probable space group: I B C A 
;
_chemical_formula_sum "Si O2"
_cell_formula_units_Z 80
_cell_length_a 17.667201
_cell_length_b 9.361784
_cell_length_c 22.926527
_cell_angle_alpha 90.000000
_cell_angle_beta 90.000000
_cell_angle_gamma 90.000000
_cell_volume 3791.967773
_symmetry_space_group_name_H-M "I B C A "
_symmetry_group_IT_number 73
_symmetry_cell_setting 'orthorhombic'
loop_
_space_group_symop_operation_xyz
x,y,z
-x,1/2-y,z
x,-y,1/2-z
1/2-x,y,-z
-x,-y,-z
x,1/2+y,-z
-x,y,1/2+z
1/2+x,-y,z
1/2+x,1/2+y,1/2+z
1/2-x,-y,1/2+z
1/2+x,1/2-y,-z
-x,1/2+y,1/2-z
1/2-x,1/2-y,1/2-z
1/2+x,y,1/2-z
1/2-x,1/2+y,z
x,1/2-y,1/2+z
loop_
_atom_site_type_symbol
_atom_site_label
_atom_site_fract_x
_atom_site_fract_y
_atom_site_fract_z
Si Si1 0.292568 0.820493 0.555986
Si Si2 0.946315 0.363810 0.004094
Si Si3 0.315474 0.464823 0.875188
Si Si4 0.583061 0.205899 0.629371
Si Si5 0.700885 0.630791 0.785096
O O1 0.250000 0.756370 0.500000
O O2 0.368852 0.899453 0.536513
O O3 0.317466 0.690658 0.596768
O O4 0.232881 0.928271 0.584057
O O5 0.921521 0.290078 0.942060
O O6 0.000000 0.250000 0.035812
O O7 0.000000 0.500000 0.000000
O O8 0.394470 0.540491 0.862289
O O9 0.266187 0.454180 0.818149
O O10 0.500000 0.250000 0.649789
O O11 0.645461 0.296186 0.666168
O O12 0.660715 0.500000 0.750000
O O13 0.750000 0.750000 0.750000
#
# Coordination Sequence:
#
# PCOD9533498 Si02
#       5
#    16  16  16  16  16
#     4  12  24  39  70 104 141 186 242 280 354 444
#     4  11  25  42  64 100 151 189 222 280 358 438
#     4  12  23  43  72 102 134 186 237 299 355 440
#     4  11  25  45  70 105 145 182 236 300 369 436
#     4  12  24  48  76  97 131 183 252 315 364 422
#
# _framework density 21.097227
#
# number of rings (size 3 to 8) (size 9 to 14) (size 15 to 20)
#    0.000    0.400    6.000    1.800    8.400    0.000 
#    3.600    0.000    0.000    0.000    0.000    0.000 
#    0.000    0.000    0.000    0.000    0.000    0.000 
#
# Total GULP energy -223055.928740 kJ/mol
# GULP energy per Si atom -5576.398218 kJ/mol
# Density = 2.104921 g / cm^3
# Si number density = 21.097227 Si / 1000 Ang^3
#
#
#
# Elastic Constant Matrix: (Units=GPa)
#
#
# Indices 1 2 3 4 5 6 
#
# 1 132.5921 31.7251 16.4220 0.0000 0.0000 0.0000
# 2 31.7251 94.4309 11.8258 0.0000 0.0000 0.0000
# 3 16.4220 11.8258 58.6914 0.0000 0.0000 0.0000
# 4 0.0000 0.0000 0.0000 28.7251 0.0000 0.0000
# 5 0.0000 0.0000 0.0000 0.0000 20.3252 0.0000
# 6 0.0000 0.0000 0.0000 0.0000 0.0000 44.4967
#
#
#
# Elastic Compliance Matrix: (Units=1/GPa)
#
#
# Indices 1 2 3 4 5 6 
#
# 1 0.008388 -0.002589 -0.001825 0.000000 0.000000 0.000000
# 2 -0.002589 0.011663 -0.001626 0.000000 0.000000 0.000000
# 3 -0.001825 -0.001626 0.017876 0.000000 0.000000 0.000000
# 4 0.000000 0.000000 0.000000 0.034813 0.000000 0.000000
# 5 0.000000 0.000000 0.000000 0.000000 0.049200 0.000000
# 6 0.000000 0.000000 0.000000 0.000000 0.000000 0.022474
#
#
# Mechanical properties :
#
#
# Convention : Reuss Voigt Hill
#
# Bulk Modulus (GPa) = 38.68882 45.07335 41.88108
# Shear Modulus (GPa) = 30.28299 33.75885 32.02092
#
# Velocity S-wave (km/s) = 3.79278 4.00453 3.90009
# Velocity P-wave (km/s) = 6.12849 6.54161 6.33842
#
# Compressibility (1/GPa) = 0.02584726
#
# Stress axis : x y z
#
# Youngs Moduli (GPa) = 119.22483 85.73954 55.93946
#
# Poissons Ratio (x) = 0.22201 0.10210
# Poissons Ratio (y) = 0.30871 0.09093
# Poissons Ratio (z) = 0.21760 0.13937
#
# Static dielectric constant tensor:
#      x y z
#    x 1.812720 0.000000 0.000000 
#    y 0.000000 2.389720 0.000000 
#    z 0.000000 0.000000 1.875030 
# 
# From -- ./inp_files/8349.got.cif
#   From: 2010.05.17/outbox.cif.g08.bks.cpg/sg73_5_cif.got.tgz:8349.got - 2010.06.03 17:35:07.
