data_PCOD9533149
_publ_section_title
;
Structure prediction by ZEFSAII (Michael W. Deem and Ramdas Pophale) SiO2 
 PCOD9533149
Probable space group: I B C A 
;
_chemical_formula_sum "Si O2"
_cell_formula_units_Z 112
_cell_length_a 9.967116
_cell_length_b 15.238458
_cell_length_c 30.829071
_cell_angle_alpha 90.000000
_cell_angle_beta 90.000000
_cell_angle_gamma 90.000000
_cell_volume 4682.426544
_symmetry_space_group_name_H-M "I B C A "
_symmetry_group_IT_number 73
_symmetry_cell_setting 'orthorhombic'
loop_
_space_group_symop_operation_xyz
x,y,z
-x,1/2-y,z
x,-y,1/2-z
1/2-x,y,-z
-x,-y,-z
x,1/2+y,-z
-x,y,1/2+z
1/2+x,-y,z
1/2+x,1/2+y,1/2+z
1/2-x,-y,1/2+z
1/2+x,1/2-y,-z
-x,1/2+y,1/2-z
1/2-x,1/2-y,1/2-z
1/2+x,y,1/2-z
1/2-x,1/2+y,z
x,1/2-y,1/2+z
loop_
_atom_site_type_symbol
_atom_site_label
_atom_site_fract_x
_atom_site_fract_y
_atom_site_fract_z
Si Si1 0.197786 0.069612 0.787084
Si Si2 0.021293 0.849735 0.506293
Si Si3 0.652421 0.502425 0.539998
Si Si4 0.074987 0.332189 0.765328
Si Si5 0.922313 0.362686 0.898418
Si Si6 0.687395 0.968765 0.625668
Si Si7 0.197951 0.292358 0.857060
O O1 0.051415 0.116845 0.787566
O O2 0.326811 0.122973 0.769324
O O3 0.232120 0.012288 0.829254
O O4 0.172763 0.000000 0.750000
O O5 0.110011 0.844393 0.550857
O O6 0.000000 0.750000 0.492610
O O7 0.902933 0.906563 0.527764
O O8 0.056224 0.913866 0.466389
O O9 0.750000 0.521274 0.500000
O O10 0.718250 0.494199 0.585900
O O11 0.000000 0.250000 0.743907
O O12 0.165686 0.301440 0.806131
O O13 0.933467 0.466322 0.887871
O O14 0.807132 0.309892 0.871195
O O15 0.065915 0.326183 0.883050
O O16 0.687399 0.863459 0.631035
#
# Coordination Sequence:
#
# PCOD9533149 Si02
#       7
#    16  16  16  16  16  16  16
#     4  12  26  42  70 101 137 181 232 283 358 407
#     4  11  22  42  63  94 133 172 222 281 335 412
#     4  11  24  40  64  96 127 174 222 274 342 399
#     4  12  24  45  68 102 138 179 232 290 342 426
#     4  11  20  39  69  94 124 177 231 266 334 416
#     4  12  23  42  67  96 135 172 226 289 337 413
#     4  11  21  40  69  94 128 183 226 268 341 413
#
# _framework density 23.919222000000001
#
# number of rings (size 3 to 8) (size 9 to 14) (size 15 to 20)
#    0.000    0.571    8.571    0.857    0.000    0.571 
#    2.571    0.714    0.000    0.000    0.000    0.000 
#    0.000    0.000    0.000    0.000    0.000    0.000 
#
# Total GULP energy -312101.396050 kJ/mol
# GULP energy per Si atom -5573.239215 kJ/mol
# Density = 2.386478 g / cm^3
# Si number density = 23.919222 Si / 1000 Ang^3
#
#
#
# Elastic Constant Matrix: (Units=GPa)
#
#
# Indices 1 2 3 4 5 6 
#
# 1 32.4800 7.2110 -4.8103 0.0000 0.0000 0.0000
# 2 7.2110 102.2130 -11.5268 0.0000 0.0000 0.0000
# 3 -4.8103 -11.5268 104.8904 0.0000 0.0000 0.0000
# 4 0.0000 0.0000 0.0000 30.4869 0.0000 0.0000
# 5 0.0000 0.0000 0.0000 0.0000 -6.3486 0.0000
# 6 0.0000 0.0000 0.0000 0.0000 0.0000 33.4948
#
#
#
# Elastic Compliance Matrix: (Units=1/GPa)
#
#
# Indices 1 2 3 4 5 6 
#
# 1 0.031430 -0.002081 0.001213 0.000000 0.000000 0.000000
# 2 -0.002081 0.010044 0.001008 0.000000 0.000000 0.000000
# 3 0.001213 0.001008 0.009700 0.000000 0.000000 0.000000
# 4 0.000000 0.000000 0.000000 0.032801 0.000000 0.000000
# 5 0.000000 0.000000 0.000000 0.000000 -0.157515 0.000000
# 6 0.000000 0.000000 0.000000 0.000000 0.000000 0.029855
#
#
# Mechanical properties :
#
#
# Convention : Reuss Voigt Hill
#
# Bulk Modulus (GPa) = 19.43447 24.59235 22.01341
# Shear Modulus (GPa) = -186.46843 28.10726 -79.18059
#
# Velocity S-wave (km/s) = -8.83894 3.43168 -5.75979
# Velocity P-wave (km/s) = 9.79931 5.09957 5.91696
#
# Compressibility (1/GPa) = 0.05145497
#
# Stress axis : x y z
#
# Youngs Moduli (GPa) = 31.81700 99.56208 103.09079
#
# Poissons Ratio (x) = 0.20714 -0.12502
# Poissons Ratio (y) = 0.06620 -0.10395
# Poissons Ratio (z) = -0.03859 -0.10039
#
# Static dielectric constant tensor:
#      x y z
#    x 2.177250 0.000000 0.000000 
#    y 0.000000 2.068790 0.000000 
#    z 0.000000 0.000000 1.955550 
# 
# From -- ./inp_files/34002.got.cif
#   From: 2010.05.17/outbox.cif.g08.bks.cpg/sg73_18_cif.got.tgz:34002.got - 2010.06.03 17:35:07.
