data_PCOD9533981
_publ_section_title
;
Structure prediction by ZEFSAII (Michael W. Deem and Ramdas Pophale) SiO2 
 PCOD9533981
Probable space group: I M M A
;
_chemical_formula_sum "Si O2"
_cell_formula_units_Z 104
_cell_length_a 14.048209
_cell_length_b 16.761646
_cell_length_c 25.641937
_cell_angle_alpha 90.000000
_cell_angle_beta 90.000000
_cell_angle_gamma 90.000000
_cell_volume 6037.935270
_symmetry_space_group_name_H-M "I M M A"
_symmetry_group_IT_number 74
_symmetry_cell_setting 'orthorhombic'
loop_
_space_group_symop_operation_xyz
x,y,z
-x,1/2-y,z
x,-y,-z
-x,1/2+y,-z
-x,-y,-z
x,1/2+y,-z
-x,y,z
x,1/2-y,z
1/2+x,1/2+y,1/2+z
1/2-x,-y,1/2+z
1/2+x,1/2-y,1/2-z
1/2-x,y,1/2-z
1/2-x,1/2-y,1/2-z
1/2+x,y,1/2-z
1/2-x,1/2+y,1/2+z
1/2+x,-y,1/2+z
loop_
_atom_site_type_symbol
_atom_site_label
_atom_site_fract_x
_atom_site_fract_y
_atom_site_fract_z
Si Si1 0.609005 0.250000 0.694963
Si Si2 0.110618 0.597675 0.035244
Si Si3 0.112317 0.069565 0.663296
Si Si4 0.304517 0.750000 0.411691
Si Si5 0.610578 0.750000 0.123011
Si Si6 0.887739 0.655165 0.916165
Si Si7 0.388313 0.570908 0.280054
Si Si8 0.788708 0.494556 0.118355
O O1 0.500000 0.250000 0.673500
O O2 0.685865 0.250000 0.650024
O O3 0.620057 0.166915 0.723771
O O4 0.139536 0.674448 0.068175
O O5 0.171527 0.529931 0.063792
O O6 0.000000 0.575981 0.041456
O O7 0.124624 0.626236 0.976044
O O8 0.123891 0.165155 0.653052
O O9 0.141573 0.044567 0.722235
O O10 0.179112 0.019542 0.624653
O O11 0.000000 0.053629 0.657400
O O12 0.191817 0.750000 0.421765
O O13 0.500000 0.750000 0.105610
O O14 0.868655 0.750000 0.912469
O O15 0.820270 0.597707 0.882273
O O16 0.000000 0.642521 0.903077
O O17 0.500000 0.552415 0.286224
O O18 0.337890 0.538137 0.331777
#
# Coordination Sequence:
#
# PCOD9533981 Si02
#       8
#     8  16  16   8   8  16  16  16
#     4  10  17  26  44  73 111 144 170 197 244 310
#     4  11  20  33  53  80 110 136 165 203 257 319
#     4  10  21  35  51  73 106 145 182 218 252 295
#     4  12  18  28  49  77 108 144 168 206 251 299
#     4  10  19  34  50  70 105 151 190 209 240 293
#     4  10  22  38  56  79 106 134 163 206 266 329
#     4  10  19  30  48  76 108 139 171 210 255 307
#     4  12  21  33  54  79 105 137 176 214 255 305
#
# _framework density 17.224432
#
# number of rings (size 3 to 8) (size 9 to 14) (size 15 to 20)
#    0.000    1.385    3.846    3.462    0.000    3.077 
#    0.000    2.308    0.000    5.077    0.000    2.154 
#    0.000    0.000    0.000    0.000    0.000    0.000 
#
# Total GULP energy -289814.897494 kJ/mol
# GULP energy per Si atom -5573.363413 kJ/mol
# Density = 1.718523 g / cm^3
# Si number density = 17.224432 Si / 1000 Ang^3
#
#
#
# Elastic Constant Matrix: (Units=GPa)
#
#
# Indices 1 2 3 4 5 6 
#
# 1 82.7129 41.5330 35.6935 0.0000 0.0000 0.0000
# 2 41.5330 102.4142 24.7692 0.0000 0.0000 0.0000
# 3 35.6935 24.7692 34.8712 0.0000 0.0000 0.0000
# 4 0.0000 0.0000 0.0000 12.0256 0.0000 0.0000
# 5 0.0000 0.0000 0.0000 0.0000 17.2922 0.0000
# 6 0.0000 0.0000 0.0000 0.0000 0.0000 12.0134
#
#
#
# Elastic Compliance Matrix: (Units=1/GPa)
#
#
# Indices 1 2 3 4 5 6 
#
# 1 0.023206 -0.004427 -0.020609 0.000000 0.000000 0.000000
# 2 -0.004427 0.012634 -0.004443 0.000000 0.000000 0.000000
# 3 -0.020609 -0.004443 0.052928 0.000000 0.000000 0.000000
# 4 0.000000 0.000000 0.000000 0.083156 0.000000 0.000000
# 5 0.000000 0.000000 0.000000 0.000000 0.057830 0.000000
# 6 0.000000 0.000000 0.000000 0.000000 0.000000 0.083240
#
#
# Mechanical properties :
#
#
# Convention : Reuss Voigt Hill
#
# Bulk Modulus (GPa) = 33.54507 47.10996 40.32751
# Shear Modulus (GPa) = 13.09279 16.13307 14.61293
#
# Velocity S-wave (km/s) = 2.76004 3.06378 2.91586
# Velocity P-wave (km/s) = 5.44744 6.31868 5.89916
#
# Compressibility (1/GPa) = 0.02981064
#
# Stress axis : x y z
#
# Youngs Moduli (GPa) = 43.09146 79.15141 18.89355
#
# Poissons Ratio (x) = 0.35038 0.38938
# Poissons Ratio (y) = 0.19075 0.08394
# Poissons Ratio (z) = 0.88809 0.35166
#
# Static dielectric constant tensor:
#      x y z
#    x 1.627080 0.000000 0.000000 
#    y 0.000000 1.608960 0.000000 
#    z 0.000000 0.000000 1.593080 
# 
# From -- ./inp_files/60336.got.cif
#   From: 2010.05.17/outbox.cif.g08.bks.cpg/sg74_31_cif.got.tgz:60336.got - 2010.06.03 17:57:02.
