data_PCOD9533061
_publ_section_title
;
Structure prediction by ZEFSAII (Michael W. Deem and Ramdas Pophale) SiO2 
 PCOD9533061
Probable space group: I B C A 
;
_chemical_formula_sum "Si O2"
_cell_formula_units_Z 120
_cell_length_a 29.579039
_cell_length_b 21.703254
_cell_length_c 8.601524
_cell_angle_alpha 90.000000
_cell_angle_beta 90.000000
_cell_angle_gamma 90.000000
_cell_volume 5521.846359
_symmetry_space_group_name_H-M "I B C A "
_symmetry_group_IT_number 73
_symmetry_cell_setting 'orthorhombic'
loop_
_space_group_symop_operation_xyz
x,y,z
-x,1/2-y,z
x,-y,1/2-z
1/2-x,y,-z
-x,-y,-z
x,1/2+y,-z
-x,y,1/2+z
1/2+x,-y,z
1/2+x,1/2+y,1/2+z
1/2-x,-y,1/2+z
1/2+x,1/2-y,-z
-x,1/2+y,1/2-z
1/2-x,1/2-y,1/2-z
1/2+x,y,1/2-z
1/2-x,1/2+y,z
x,1/2-y,1/2+z
loop_
_atom_site_type_symbol
_atom_site_label
_atom_site_fract_x
_atom_site_fract_y
_atom_site_fract_z
Si Si1 0.155416 0.724069 0.615637
Si Si2 0.935880 0.435959 0.833204
Si Si3 0.717030 0.176972 0.373604
Si Si4 0.500000 0.750000 0.568302
Si Si5 0.786327 0.364632 0.610580
Si Si6 0.555542 0.817520 0.322678
Si Si7 0.478452 0.066359 0.830774
Si Si8 0.657998 0.627285 0.389615
O O1 0.176961 0.710141 0.783794
O O2 0.184541 0.683364 0.492978
O O3 0.104237 0.700891 0.614723
O O4 0.155473 0.797987 0.605778
O O5 0.922090 0.500000 0.750000
O O6 0.892183 0.398902 0.889234
O O7 0.970931 0.408095 0.706608
O O8 0.965313 0.441909 0.990601
O O9 0.750000 0.208979 0.500000
O O10 0.752742 0.164975 0.237186
O O11 0.693264 0.119784 0.466062
O O12 0.518757 0.803110 0.455503
O O13 0.460141 0.775168 0.677435
O O14 0.750000 0.398767 0.500000
O O15 0.820984 0.397051 0.727485
O O16 0.554221 0.886277 0.257126
O O17 0.476127 0.000000 0.750000
#
# Coordination Sequence:
#
# PCOD9533061 Si02
#       8
#    16  16  16   8  16  16  16  16
#     4  11  23  34  57  93 128 168 208 255 320 396
#     4  11  25  44  66  92 122 163 222 276 327 374
#     4   9  20  38  56  87 128 166 201 251 318 392
#     4  10  26  42  60  88 132 184 202 266 342 406
#     4   9  21  37  57  88 127 164 203 250 316 398
#     4  11  25  41  62  92 133 169 221 263 334 402
#     4  11  24  44  68  92 124 172 222 276 323 381
#     4  11  23  36  61  88 123 164 211 260 318 394
#
# _framework density 21.731860000000001
#
# number of rings (size 3 to 8) (size 9 to 14) (size 15 to 20)
#    0.000    1.600    0.000    4.000    9.333   12.800 
#    0.000    0.000    0.000    2.400    0.000    4.667 
#    0.000    0.000    0.000    0.000    0.000    0.000 
#
# Total GULP energy -334621.058660 kJ/mol
# GULP energy per Si atom -5577.017644 kJ/mol
# Density = 2.168240 g / cm^3
# Si number density = 21.731860 Si / 1000 Ang^3
#
#
#
# Elastic Constant Matrix: (Units=GPa)
#
#
# Indices 1 2 3 4 5 6 
#
# 1 139.0623 21.4943 51.9558 0.0000 0.0000 0.0000
# 2 21.4943 44.3569 24.4958 0.0000 0.0000 0.0000
# 3 51.9558 24.4958 147.2239 0.0000 0.0000 0.0000
# 4 0.0000 0.0000 0.0000 19.2752 0.0000 0.0000
# 5 0.0000 0.0000 0.0000 0.0000 41.4951 0.0000
# 6 0.0000 0.0000 0.0000 0.0000 0.0000 21.8270
#
#
#
# Elastic Compliance Matrix: (Units=1/GPa)
#
#
# Indices 1 2 3 4 5 6 
#
# 1 0.008574 -0.002735 -0.002571 0.000000 0.000000 0.000000
# 2 -0.002735 0.025698 -0.003311 0.000000 0.000000 0.000000
# 3 -0.002571 -0.003311 0.008250 0.000000 0.000000 0.000000
# 4 0.000000 0.000000 0.000000 0.051880 0.000000 0.000000
# 5 0.000000 0.000000 0.000000 0.000000 0.024099 0.000000
# 6 0.000000 0.000000 0.000000 0.000000 0.000000 0.045815
#
#
# Mechanical properties :
#
#
# Convention : Reuss Voigt Hill
#
# Bulk Modulus (GPa) = 39.54169 58.50387 49.02278
# Shear Modulus (GPa) = 26.31857 32.03260 29.17558
#
# Velocity S-wave (km/s) = 3.48380 3.84343 3.66802
# Velocity P-wave (km/s) = 5.86662 6.83192 6.36759
#
# Compressibility (1/GPa) = 0.02528976
#
# Stress axis : x y z
#
# Youngs Moduli (GPa) = 116.62794 38.91349 121.20566
#
# Poissons Ratio (x) = 0.10644 0.31160
# Poissons Ratio (y) = 0.31900 0.40125
# Poissons Ratio (z) = 0.29983 0.12882
#
# Static dielectric constant tensor:
#      x y z
#    x 1.857140 0.000000 0.000000 
#    y 0.000000 1.821480 0.000000 
#    z 0.000000 0.000000 1.882130 
# 
# From -- ./inp_files/8057.got.cif
#   From: 2010.05.17/outbox.cif.g08.bks.cpg/sg73_5_cif.got.tgz:8057.got - 2010.06.03 17:35:07.
