data_PCOD9533277
_publ_section_title
;
Structure prediction by ZEFSAII (Michael W. Deem and Ramdas Pophale) SiO2 
 PCOD9533277
Probable space group: I B C A 
;
_chemical_formula_sum "Si O2"
_cell_formula_units_Z 120
_cell_length_a 24.543183
_cell_length_b 8.944293
_cell_length_c 24.472358
_cell_angle_alpha 90.000000
_cell_angle_beta 90.000000
_cell_angle_gamma 90.000000
_cell_volume 5372.206777
_symmetry_space_group_name_H-M "I B C A "
_symmetry_group_IT_number 73
_symmetry_cell_setting 'orthorhombic'
loop_
_space_group_symop_operation_xyz
x,y,z
-x,1/2-y,z
x,-y,1/2-z
1/2-x,y,-z
-x,-y,-z
x,1/2+y,-z
-x,y,1/2+z
1/2+x,-y,z
1/2+x,1/2+y,1/2+z
1/2-x,-y,1/2+z
1/2+x,1/2-y,-z
-x,1/2+y,1/2-z
1/2-x,1/2-y,1/2-z
1/2+x,y,1/2-z
1/2-x,1/2+y,z
x,1/2-y,1/2+z
loop_
_atom_site_type_symbol
_atom_site_label
_atom_site_fract_x
_atom_site_fract_y
_atom_site_fract_z
Si Si1 0.999421 0.523254 0.685129
Si Si2 0.136937 0.707464 0.555446
Si Si3 0.309916 0.678737 0.740312
Si Si4 0.000000 0.750000 0.396616
Si Si5 0.689279 0.263049 0.884349
Si Si6 0.753207 0.014533 0.939660
Si Si7 0.903039 0.263092 0.325907
Si Si8 0.902112 0.397025 0.042774
O O1 0.000017 0.500000 0.750000
O O2 0.986526 0.384447 0.645627
O O3 0.060181 0.586499 0.672680
O O4 0.950205 0.639338 0.677519
O O5 0.195624 0.627608 0.553710
O O6 0.127497 0.756204 0.617092
O O7 0.094523 0.574889 0.540974
O O8 0.125034 0.837089 0.512690
O O9 0.308609 0.500000 0.750000
O O10 0.250000 0.750000 0.750000
O O11 0.320847 0.714557 0.677022
O O12 0.357910 0.748195 0.778215
O O13 0.955834 0.684402 0.438121
O O14 0.703858 0.118245 0.920492
O O15 0.736400 0.387481 0.894354
O O16 0.638917 0.349935 0.909279
O O17 0.750000 0.943713 0.000000
#
# Coordination Sequence:
#
# PCOD9533277 Si02
#       8
#    16  16  16   8  16  16  16  16
#     4  11  26  46  76 107 139 194 245 304 366 433
#     4  11  25  46  69 107 143 193 233 304 370 436
#     4  12  28  48  73 111 151 202 242 301 373 437
#     4  12  26  48  70 110 138 186 246 310 368 436
#     4  11  25  43  69 104 140 187 237 301 353 433
#     4  11  22  43  70 103 144 188 243 293 356 436
#     4  11  26  49  74 105 150 189 248 304 363 444
#     4  11  27  43  70 103 142 185 241 297 373 429
#
# _framework density 22.33719
#
# number of rings (size 3 to 8) (size 9 to 14) (size 15 to 20)
#    0.000    0.800    2.667    3.200    9.333    3.200 
#    0.000    0.000    0.000    0.000    0.000    0.000 
#    0.000    0.000    0.000    0.000    0.000    0.000 
#
# Total GULP energy -335526.337382 kJ/mol
# GULP energy per Si atom -5592.105623 kJ/mol
# Density = 2.228635 g / cm^3
# Si number density = 22.337190 Si / 1000 Ang^3
#
#
#
# Elastic Constant Matrix: (Units=GPa)
#
#
# Indices 1 2 3 4 5 6 
#
# 1 74.2302 6.8905 8.6029 0.0000 0.0000 0.0000
# 2 6.8905 48.3341 17.1678 0.0000 0.0000 0.0000
# 3 8.6029 17.1678 162.3334 0.0000 0.0000 0.0000
# 4 0.0000 0.0000 0.0000 19.8234 0.0000 0.0000
# 5 0.0000 0.0000 0.0000 0.0000 12.9450 0.0000
# 6 0.0000 0.0000 0.0000 0.0000 0.0000 23.4426
#
#
#
# Elastic Compliance Matrix: (Units=1/GPa)
#
#
# Indices 1 2 3 4 5 6 
#
# 1 0.013698 -0.001761 -0.000540 0.000000 0.000000 0.000000
# 2 -0.001761 0.021723 -0.002204 0.000000 0.000000 0.000000
# 3 -0.000540 -0.002204 0.006422 0.000000 0.000000 0.000000
# 4 0.000000 0.000000 0.000000 0.050445 0.000000 0.000000
# 5 0.000000 0.000000 0.000000 0.000000 0.077250 0.000000
# 6 0.000000 0.000000 0.000000 0.000000 0.000000 0.042657
#
#
# Mechanical properties :
#
#
# Convention : Reuss Voigt Hill
#
# Bulk Modulus (GPa) = 30.45699 38.91336 34.68517
# Shear Modulus (GPa) = 21.53787 28.05798 24.79792
#
# Velocity S-wave (km/s) = 3.10855 3.54801 3.33553
# Velocity P-wave (km/s) = 5.15255 5.85177 5.51326
#
# Compressibility (1/GPa) = 0.03283319
#
# Stress axis : x y z
#
# Youngs Moduli (GPa) = 73.00536 46.03364 155.71834
#
# Poissons Ratio (x) = 0.08107 0.08404
# Poissons Ratio (y) = 0.12857 0.34321
# Poissons Ratio (z) = 0.03940 0.10146
#
# Static dielectric constant tensor:
#      x y z
#    x 1.899210 0.000000 0.000000 
#    y 0.000000 1.893350 0.000000 
#    z 0.000000 0.000000 1.803080 
# 
# From -- ./inp_files/30519.got.cif
#   From: 2010.05.17/outbox.cif.g08.bks.cpg/sg73_16_cif.got.tgz:30519.got - 2010.06.03 17:35:07.
