data_PCOD9533879
_publ_section_title
;
Structure prediction by ZEFSAII (Michael W. Deem and Ramdas Pophale) SiO2 
 PCOD9533879
Probable space group: I M M A
;
_chemical_formula_sum "Si O2"
_cell_formula_units_Z 64
_cell_length_a 21.844340
_cell_length_b 19.287747
_cell_length_c 8.304116
_cell_angle_alpha 90.000000
_cell_angle_beta 90.000000
_cell_angle_gamma 90.000000
_cell_volume 3498.757444
_symmetry_space_group_name_H-M "I M M A"
_symmetry_group_IT_number 74
_symmetry_cell_setting 'orthorhombic'
loop_
_space_group_symop_operation_xyz
x,y,z
-x,1/2-y,z
x,-y,-z
-x,1/2+y,-z
-x,-y,-z
x,1/2+y,-z
-x,y,z
x,1/2-y,z
1/2+x,1/2+y,1/2+z
1/2-x,-y,1/2+z
1/2+x,1/2-y,1/2-z
1/2-x,y,1/2-z
1/2-x,1/2-y,1/2-z
1/2+x,y,1/2-z
1/2-x,1/2+y,1/2+z
1/2+x,-y,1/2+z
loop_
_atom_site_type_symbol
_atom_site_label
_atom_site_fract_x
_atom_site_fract_y
_atom_site_fract_z
Si Si1 0.250000 0.393308 0.250000
Si Si2 0.500000 0.331570 0.247345
Si Si3 0.792170 0.500000 0.500000
Si Si4 0.375756 0.892939 0.617523
Si Si5 0.879985 0.552969 0.231147
Si Si6 0.000000 0.577203 0.425385
O O1 0.245694 0.445083 0.400521
O O2 0.316993 0.361075 0.285487
O O3 0.500000 0.250000 0.221691
O O4 0.561521 0.353557 0.342448
O O5 0.500000 0.371027 0.075669
O O6 0.831019 0.544983 0.373550
O O7 0.364494 0.902062 0.426316
O O8 0.387158 0.972172 0.678835
O O9 0.940815 0.582107 0.313137
O O10 0.000000 0.500000 0.500000
#
# Coordination Sequence:
#
# PCOD9533879 Si02
#       6
#     8   8   8  16  16   8
#     4  10  18  30  53  80 118 148 189 228 284 342
#     4  12  25  41  57  80 115 154 191 234 292 345
#     4  10  16  27  44  85 120 144 172 238 294 332
#     4  10  20  35  55  85 111 152 187 236 286 337
#     4  10  18  30  57  85 118 143 188 238 288 333
#     4  12  17  33  56  85 111 149 194 236 280 336
#
# _framework density 18.292207999999999
#
# number of rings (size 3 to 8) (size 9 to 14) (size 15 to 20)
#    0.000    1.500    3.750    5.250    0.000    2.000 
#    0.000    3.125    0.000    0.000    0.000    3.500 
#    0.000    0.000    0.000    0.000    0.000    0.000 
#
# Total GULP energy -178349.442221 kJ/mol
# GULP energy per Si atom -5573.420069 kJ/mol
# Density = 1.825057 g / cm^3
# Si number density = 18.292208 Si / 1000 Ang^3
#
#
#
# Elastic Constant Matrix: (Units=GPa)
#
#
# Indices 1 2 3 4 5 6 
#
# 1 134.8662 22.0487 44.6957 0.0000 0.0000 0.0000
# 2 22.0487 52.7166 24.6719 0.0000 0.0000 0.0000
# 3 44.6957 24.6719 118.8635 0.0000 0.0000 0.0000
# 4 0.0000 0.0000 0.0000 11.2342 0.0000 0.0000
# 5 0.0000 0.0000 0.0000 0.0000 10.0205 0.0000
# 6 0.0000 0.0000 0.0000 0.0000 0.0000 4.3377
#
#
#
# Elastic Compliance Matrix: (Units=1/GPa)
#
#
# Indices 1 2 3 4 5 6 
#
# 1 0.008724 -0.002341 -0.002794 0.000000 0.000000 0.000000
# 2 -0.002341 0.021638 -0.003611 0.000000 0.000000 0.000000
# 3 -0.002794 -0.003611 0.010213 0.000000 0.000000 0.000000
# 4 0.000000 0.000000 0.000000 0.089014 0.000000 0.000000
# 5 0.000000 0.000000 0.000000 0.000000 0.099795 0.000000
# 6 0.000000 0.000000 0.000000 0.000000 0.000000 0.230537
#
#
# Mechanical properties :
#
#
# Convention : Reuss Voigt Hill
#
# Bulk Modulus (GPa) = 43.32274 54.36431 48.84353
# Shear Modulus (GPa) = 10.30697 19.45382 14.88040
#
# Velocity S-wave (km/s) = 2.37631 3.26468 2.85526
# Velocity P-wave (km/s) = 5.59145 6.63289 6.13431
#
# Compressibility (1/GPa) = 0.02308256
#
# Stress axis : x y z
#
# Youngs Moduli (GPa) = 114.63244 46.21399 97.91128
#
# Poissons Ratio (x) = 0.10818 0.27360
# Poissons Ratio (y) = 0.26833 0.35357
# Poissons Ratio (z) = 0.32033 0.16689
#
# Static dielectric constant tensor:
#      x y z
#    x 1.739110 0.000000 0.000000 
#    y 0.000000 1.572950 0.000000 
#    z 0.000000 0.000000 1.680660 
# 
# From -- ./inp_files/11867.got.cif
#   From: 2010.05.17/outbox.cif.g08.bks.cpg/sg74_6_cif.got.tgz:11867.got - 2010.06.03 17:57:02.
