data_PCOD9533314
_publ_section_title
;
Structure prediction by ZEFSAII (Michael W. Deem and Ramdas Pophale) SiO2 
 PCOD9533314
Probable space group: I B C A 
;
_chemical_formula_sum "Si O2"
_cell_formula_units_Z 80
_cell_length_a 9.513273
_cell_length_b 16.269232
_cell_length_c 26.645184
_cell_angle_alpha 90.000000
_cell_angle_beta 90.000000
_cell_angle_gamma 90.000000
_cell_volume 4123.972263
_symmetry_space_group_name_H-M "I B C A "
_symmetry_group_IT_number 73
_symmetry_cell_setting 'orthorhombic'
loop_
_space_group_symop_operation_xyz
x,y,z
-x,1/2-y,z
x,-y,1/2-z
1/2-x,y,-z
-x,-y,-z
x,1/2+y,-z
-x,y,1/2+z
1/2+x,-y,z
1/2+x,1/2+y,1/2+z
1/2-x,-y,1/2+z
1/2+x,1/2-y,-z
-x,1/2+y,1/2-z
1/2-x,1/2-y,1/2-z
1/2+x,y,1/2-z
1/2-x,1/2+y,z
x,1/2-y,1/2+z
loop_
_atom_site_type_symbol
_atom_site_label
_atom_site_fract_x
_atom_site_fract_y
_atom_site_fract_z
Si Si1 0.486533 0.156560 0.886645
Si Si2 0.017132 0.346720 0.788312
Si Si3 0.123580 0.023971 0.037083
Si Si4 0.702707 0.591978 0.697354
Si Si5 0.710498 0.922942 0.366100
O O1 0.500000 0.250000 0.902485
O O2 0.427425 0.100837 0.930821
O O3 0.372505 0.151776 0.842339
O O4 0.634634 0.117010 0.868551
O O5 0.108189 0.394740 0.746568
O O6 0.099292 0.361091 0.840732
O O7 0.000000 0.250000 0.776694
O O8 0.861895 0.384035 0.790944
O O9 0.166082 0.954961 0.078567
O O10 0.250000 0.043263 0.000000
O O11 0.000000 0.000000 0.000000
O O12 0.706590 0.503535 0.669914
#
# Coordination Sequence:
#
# PCOD9533314 Si02
#       5
#    16  16  16  16  16
#     4  11  23  43  66  97 130 172 217 282 338 390
#     4  12  24  40  63 100 133 171 211 274 326 386
#     4  11  23  45  69  91 127 171 222 276 330 401
#     4  11  23  40  65  92 134 176 218 258 324 399
#     4  11  24  42  67  92 129 173 222 265 325 401
#
# _framework density 19.398772999999998
#
# number of rings (size 3 to 8) (size 9 to 14) (size 15 to 20)
#    0.000    0.800    2.000    6.600    2.800    1.600 
#    3.600    0.000    0.000    0.000    0.000    0.000 
#    0.000    0.000    0.000    0.000    0.000    0.000 
#
# Total GULP energy -223583.270201 kJ/mol
# GULP energy per Si atom -5589.581755 kJ/mol
# Density = 1.935462 g / cm^3
# Si number density = 19.398773 Si / 1000 Ang^3
#
#
#
# Elastic Constant Matrix: (Units=GPa)
#
#
# Indices 1 2 3 4 5 6 
#
# 1 179.7213 28.6553 69.1167 0.0000 0.0000 0.0000
# 2 28.6553 56.7195 27.2742 0.0000 0.0000 0.0000
# 3 69.1167 27.2742 127.8578 0.0000 0.0000 0.0000
# 4 0.0000 0.0000 0.0000 12.5970 0.0000 0.0000
# 5 0.0000 0.0000 0.0000 0.0000 32.7513 0.0000
# 6 0.0000 0.0000 0.0000 0.0000 0.0000 14.9986
#
#
#
# Elastic Compliance Matrix: (Units=1/GPa)
#
#
# Indices 1 2 3 4 5 6 
#
# 1 0.007217 -0.001973 -0.003481 0.000000 0.000000 0.000000
# 2 -0.001973 0.020185 -0.003239 0.000000 0.000000 0.000000
# 3 -0.003481 -0.003239 0.010394 0.000000 0.000000 0.000000
# 4 0.000000 0.000000 0.000000 0.079384 0.000000 0.000000
# 5 0.000000 0.000000 0.000000 0.000000 0.030533 0.000000
# 6 0.000000 0.000000 0.000000 0.000000 0.000000 0.066673
#
#
# Mechanical properties :
#
#
# Convention : Reuss Voigt Hill
#
# Bulk Modulus (GPa) = 48.99422 68.26566 58.62994
# Shear Modulus (GPa) = 20.95778 28.01953 24.48866
#
# Velocity S-wave (km/s) = 3.29046 3.80465 3.55686
# Velocity P-wave (km/s) = 6.30455 7.38698 6.86713
#
# Compressibility (1/GPa) = 0.02041057
#
# Stress axis : x y z
#
# Youngs Moduli (GPa) = 138.55652 49.54197 96.21109
#
# Poissons Ratio (x) = 0.09772 0.33488
# Poissons Ratio (y) = 0.27330 0.31168
# Poissons Ratio (z) = 0.48227 0.16049
#
# Static dielectric constant tensor:
#      x y z
#    x 1.676640 0.000000 0.000000 
#    y 0.000000 1.659460 0.000000 
#    z 0.000000 0.000000 1.688090 
# 
# From -- ./inp_files/5584.got.cif
#   From: 2010.05.17/outbox.cif.g08.bks.cpg/sg73_3_cif.got.tgz:5584.got - 2010.06.03 17:35:07.
