data_PCOD9533963
_publ_section_title
;
Structure prediction by ZEFSAII (Michael W. Deem and Ramdas Pophale) SiO2 
 PCOD9533963
Probable space group: I M M A
;
_chemical_formula_sum "Si O2"
_cell_formula_units_Z 116
_cell_length_a 27.540594
_cell_length_b 7.478023
_cell_length_c 28.138601
_cell_angle_alpha 90.000000
_cell_angle_beta 90.000000
_cell_angle_gamma 90.000000
_cell_volume 5795.122235
_symmetry_space_group_name_H-M "I M M A"
_symmetry_group_IT_number 74
_symmetry_cell_setting 'orthorhombic'
loop_
_space_group_symop_operation_xyz
x,y,z
-x,1/2-y,z
x,-y,-z
-x,1/2+y,-z
-x,-y,-z
x,1/2+y,-z
-x,y,z
x,1/2-y,z
1/2+x,1/2+y,1/2+z
1/2-x,-y,1/2+z
1/2+x,1/2-y,1/2-z
1/2-x,y,1/2-z
1/2-x,1/2-y,1/2-z
1/2+x,y,1/2-z
1/2-x,1/2+y,1/2+z
1/2+x,-y,1/2+z
loop_
_atom_site_type_symbol
_atom_site_label
_atom_site_fract_x
_atom_site_fract_y
_atom_site_fract_z
Si Si1 0.054726 0.963715 0.322418
Si Si2 0.500000 0.750000 0.961903
Si Si3 0.636505 0.463042 0.253753
Si Si4 0.183354 0.465792 0.425460
Si Si5 0.213612 0.033042 0.320505
Si Si6 0.209109 0.963524 0.948260
Si Si7 0.923462 0.455659 0.569224
Si Si8 0.677882 0.967782 0.652781
O O1 0.052496 0.750000 0.323259
O O2 0.073728 0.014203 0.374816
O O3 0.000000 0.034218 0.316950
O O4 0.089573 0.010240 0.278860
O O5 0.542366 0.594445 0.956777
O O6 0.643169 0.250000 0.256729
O O7 0.682231 0.534098 0.223372
O O8 0.638786 0.528799 0.308115
O O9 0.181483 0.250000 0.428954
O O10 0.187436 0.515213 0.369718
O O11 0.234853 0.529844 0.446500
O O12 0.132956 0.538136 0.445000
O O13 0.214134 0.250000 0.318233
O O14 0.269559 0.981621 0.325445
O O15 0.212700 0.750000 0.942994
O O16 0.180012 0.030157 0.901925
O O17 0.187940 0.000000 0.000000
O O18 0.941073 0.250000 0.565189
O O19 0.675583 0.750000 0.650365
#
# Coordination Sequence:
#
# PCOD9533963 Si02
#       8
#    16   4  16  16  16  16  16  16
#     4  10  21  33  42  60  94 131 170 208 243 282
#     4  12  22  32  52  66 102 130 176 216 260 290
#     4  10  17  25  46  68  89 124 166 198 237 287
#     4   9  16  29  47  70  96 126 162 206 247 292
#     4   8  13  22  41  65  92 123 157 190 234 285
#     4   9  18  32  51  72 100 127 160 200 246 295
#     4  11  21  32  48  71  99 131 169 213 255 299
#     4   8  15  27  42  69  97 122 157 201 237 288
#
# _framework density 20.016835
#
# number of rings (size 3 to 8) (size 9 to 14) (size 15 to 20)
#    0.000    2.621    2.759    2.276    0.966    2.483 
#    0.000    0.690    0.000    2.483    0.000    0.483 
#    0.000    0.552    0.000    1.241    0.000    2.207 
#
# Total GULP energy -323227.729125 kJ/mol
# GULP energy per Si atom -5572.891881 kJ/mol
# Density = 1.997128 g / cm^3
# Si number density = 20.016835 Si / 1000 Ang^3
#
#
#
# Elastic Constant Matrix: (Units=GPa)
#
#
# Indices 1 2 3 4 5 6 
#
# 1 43.0589 5.8331 49.6467 0.0000 0.0000 0.0000
# 2 5.8331 77.2236 13.7494 0.0000 0.0000 0.0000
# 3 49.6467 13.7494 165.3337 0.0000 0.0000 0.0000
# 4 0.0000 0.0000 0.0000 2.3699 0.0000 0.0000
# 5 0.0000 0.0000 0.0000 0.0000 1.2166 0.0000
# 6 0.0000 0.0000 0.0000 0.0000 0.0000 29.8211
#
#
#
# Elastic Compliance Matrix: (Units=1/GPa)
#
#
# Indices 1 2 3 4 5 6 
#
# 1 0.035571 -0.000797 -0.010615 0.000000 0.000000 0.000000
# 2 -0.000797 0.013162 -0.000855 0.000000 0.000000 0.000000
# 3 -0.010615 -0.000855 0.009307 0.000000 0.000000 0.000000
# 4 0.000000 0.000000 0.000000 0.421967 0.000000 0.000000
# 5 0.000000 0.000000 0.000000 0.000000 0.821929 0.000000
# 6 0.000000 0.000000 0.000000 0.000000 0.000000 0.033533
#
#
# Mechanical properties :
#
#
# Convention : Reuss Voigt Hill
#
# Bulk Modulus (GPa) = 29.84581 47.11939 38.48260
# Shear Modulus (GPa) = 3.64651 21.10732 12.37691
#
# Velocity S-wave (km/s) = 1.35118 3.25080 2.48931
# Velocity P-wave (km/s) = 4.16857 6.13850 5.24682
#
# Compressibility (1/GPa) = 0.03350554
#
# Stress axis : x y z
#
# Youngs Moduli (GPa) = 28.11268 75.97703 107.44580
#
# Poissons Ratio (x) = 0.06054 1.14055
# Poissons Ratio (y) = 0.02240 0.09190
# Poissons Ratio (z) = 0.29842 0.06498
#
# Static dielectric constant tensor:
#      x y z
#    x 1.688090 0.000000 0.000000 
#    y 0.000000 1.775350 0.000000 
#    z 0.000000 0.000000 1.786640 
# 
# From -- ./inp_files/74029.got.cif
#   From: 2010.05.17/outbox.cif.g08.bks.cpg/sg74_38_cif.got.tgz:74029.got - 2010.06.03 17:57:02.
