data_PCOD9533123
_publ_section_title
;
Structure prediction by ZEFSAII (Michael W. Deem and Ramdas Pophale) SiO2 
 PCOD9533123
Probable space group: I B C A 
;
_chemical_formula_sum "Si O2"
_cell_formula_units_Z 88
_cell_length_a 29.660586
_cell_length_b 9.992085
_cell_length_c 12.604393
_cell_angle_alpha 90.000000
_cell_angle_beta 90.000000
_cell_angle_gamma 90.000000
_cell_volume 3735.577774
_symmetry_space_group_name_H-M "I B C A "
_symmetry_group_IT_number 73
_symmetry_cell_setting 'orthorhombic'
loop_
_space_group_symop_operation_xyz
x,y,z
-x,1/2-y,z
x,-y,1/2-z
1/2-x,y,-z
-x,-y,-z
x,1/2+y,-z
-x,y,1/2+z
1/2+x,-y,z
1/2+x,1/2+y,1/2+z
1/2-x,-y,1/2+z
1/2+x,1/2-y,-z
-x,1/2+y,1/2-z
1/2-x,1/2-y,1/2-z
1/2+x,y,1/2-z
1/2-x,1/2+y,z
x,1/2-y,1/2+z
loop_
_atom_site_type_symbol
_atom_site_label
_atom_site_fract_x
_atom_site_fract_y
_atom_site_fract_z
Si Si1 0.416024 0.312180 0.885754
Si Si2 0.000000 0.250000 0.758331
Si Si3 0.038954 0.567239 0.570772
Si Si4 0.250000 0.840194 0.000000
Si Si5 0.366396 0.938287 0.635010
Si Si6 0.305482 0.081834 0.071486
Si Si7 0.634097 0.500000 0.250000
O O1 0.457088 0.274073 0.812378
O O2 0.373059 0.220666 0.863278
O O3 0.399015 0.453217 0.843816
O O4 0.435992 0.316793 0.003069
O O5 0.987516 0.126383 0.831420
O O6 0.082105 0.482511 0.607620
O O7 0.000000 0.500000 0.500000
O O8 0.215890 0.728932 0.050008
O O9 0.272638 0.950369 0.079803
O O10 0.334058 0.960833 0.534408
O O11 0.353977 0.000000 0.750000
O O12 0.333499 0.093323 0.179733
#
# Coordination Sequence:
#
# PCOD9533123 Si02
#       7
#    16   8  16   8  16  16   8
#     4  12  26  43  65 105 141 197 248 297 359 412
#     4  12  24  40  66  92 146 200 252 302 346 406
#     4  12  25  43  65 100 147 195 250 303 348 415
#     4  10  26  54  76 112 144 180 234 288 374 456
#     4  12  26  46  71 105 146 192 240 295 360 429
#     4  11  26  50  78 110 145 184 233 297 368 446
#     4  12  26  44  78 106 144 184 236 298 358 440
#
# _framework density 23.557267
#
# number of rings (size 3 to 8) (size 9 to 14) (size 15 to 20)
#    0.000    0.364    3.636    4.909    5.091    0.727 
#    6.545    0.000    0.000    0.000    0.000    0.000 
#    0.000    0.000    0.000    0.000    0.000    0.000 
#
# Total GULP energy -245541.426640 kJ/mol
# GULP energy per Si atom -5580.486969 kJ/mol
# Density = 2.350365 g / cm^3
# Si number density = 23.557267 Si / 1000 Ang^3
#
#
#
# Elastic Constant Matrix: (Units=GPa)
#
#
# Indices 1 2 3 4 5 6 
#
# 1 70.2576 21.9787 25.9128 0.0000 0.0000 0.0000
# 2 21.9787 79.4334 16.5248 0.0000 0.0000 0.0000
# 3 25.9128 16.5248 103.7696 0.0000 0.0000 0.0000
# 4 0.0000 0.0000 0.0000 41.9731 0.0000 0.0000
# 5 0.0000 0.0000 0.0000 0.0000 12.6933 0.0000
# 6 0.0000 0.0000 0.0000 0.0000 0.0000 13.3307
#
#
#
# Elastic Compliance Matrix: (Units=1/GPa)
#
#
# Indices 1 2 3 4 5 6 
#
# 1 0.016768 -0.003898 -0.003567 0.000000 0.000000 0.000000
# 2 -0.003898 0.013927 -0.001244 0.000000 0.000000 0.000000
# 3 -0.003567 -0.001244 0.010726 0.000000 0.000000 0.000000
# 4 0.000000 0.000000 0.000000 0.023825 0.000000 0.000000
# 5 0.000000 0.000000 0.000000 0.000000 0.078782 0.000000
# 6 0.000000 0.000000 0.000000 0.000000 0.000000 0.075015
#
#
# Mechanical properties :
#
#
# Convention : Reuss Voigt Hill
#
# Bulk Modulus (GPa) = 41.66175 42.47703 42.06939
# Shear Modulus (GPa) = 20.45325 26.20237 23.32781
#
# Velocity S-wave (km/s) = 2.94978 3.33871 3.15025
# Velocity P-wave (km/s) = 5.41528 5.73874 5.57936
#
# Compressibility (1/GPa) = 0.02400283
#
# Stress axis : x y z
#
# Youngs Moduli (GPa) = 59.63720 71.80554 93.23553
#
# Poissons Ratio (x) = 0.27987 0.33253
# Poissons Ratio (y) = 0.23244 0.11603
# Poissons Ratio (z) = 0.21270 0.08936
#
# Static dielectric constant tensor:
#      x y z
#    x 1.951730 0.000000 0.000000 
#    y 0.000000 1.824500 0.000000 
#    z 0.000000 0.000000 1.839620 
# 
# From -- ./inp_files/9941.got.cif
#   From: 2010.05.17/outbox.cif.g08.bks.cpg/sg73_5_cif.got.tgz:9941.got - 2010.06.03 17:35:07.
