data_PCOD9533683
_publ_section_title
;
Structure prediction by ZEFSAII (Michael W. Deem and Ramdas Pophale) SiO2 
 PCOD9533683
Probable space group: I B C A 
;
_chemical_formula_sum "Si O2"
_cell_formula_units_Z 80
_cell_length_a 10.297842
_cell_length_b 29.831040
_cell_length_c 10.644253
_cell_angle_alpha 90.000000
_cell_angle_beta 90.000000
_cell_angle_gamma 90.000000
_cell_volume 3269.864883
_symmetry_space_group_name_H-M "I B C A "
_symmetry_group_IT_number 73
_symmetry_cell_setting 'orthorhombic'
loop_
_space_group_symop_operation_xyz
x,y,z
-x,1/2-y,z
x,-y,1/2-z
1/2-x,y,-z
-x,-y,-z
x,1/2+y,-z
-x,y,1/2+z
1/2+x,-y,z
1/2+x,1/2+y,1/2+z
1/2-x,-y,1/2+z
1/2+x,1/2-y,-z
-x,1/2+y,1/2-z
1/2-x,1/2-y,1/2-z
1/2+x,y,1/2-z
1/2-x,1/2+y,z
x,1/2-y,1/2+z
loop_
_atom_site_type_symbol
_atom_site_label
_atom_site_fract_x
_atom_site_fract_y
_atom_site_fract_z
Si Si1 0.799034 0.500000 0.250000
Si Si2 0.500000 0.250000 0.615011
Si Si3 0.625500 0.023594 0.940480
Si Si4 0.250000 0.302522 0.000000
Si Si5 0.250000 0.878873 0.500000
Si Si6 0.553215 0.085442 0.307600
Si Si7 0.379823 0.334481 0.743456
O O1 0.706458 0.513150 0.363681
O O2 0.880707 0.454829 0.271968
O O3 0.620431 0.273271 0.538048
O O4 0.433943 0.286531 0.704326
O O5 0.750000 0.046914 0.000000
O O6 0.576280 0.060709 0.847339
O O7 0.500000 0.000000 0.000000
O O8 0.201332 0.330117 0.125284
O O9 0.366877 0.905946 0.564642
O O10 0.299711 0.851292 0.378506
O O11 0.503729 0.131973 0.252812
#
# Coordination Sequence:
#
# PCOD9533683 Si02
#       7
#     8   8  16   8   8  16  16
#     4  12  26  50  76 114 162 216 272 338 408 478
#     4  12  26  52  88 122 164 210 276 344 422 500
#     4  12  26  45  74 108 153 207 271 331 395 468
#     4  12  27  52  86 127 160 218 272 341 421 504
#     4  12  27  50  78 121 166 208 270 341 409 484
#     4  12  27  47  78 113 162 213 269 334 407 484
#     4  12  28  51  83 122 167 212 272 340 418 499
#
# _framework density 24.465841999999999
#
# number of rings (size 3 to 8) (size 9 to 14) (size 15 to 20)
#    0.000    0.000    2.000    7.200    4.200    0.000 
#    0.000    0.000    0.000    0.000    0.000    0.000 
#    0.000    0.000    0.000    0.000    0.000    0.000 
#
# Total GULP energy -222972.675553 kJ/mol
# GULP energy per Si atom -5574.316889 kJ/mol
# Density = 2.441016 g / cm^3
# Si number density = 24.465842 Si / 1000 Ang^3
#
#
#
# Elastic Constant Matrix: (Units=GPa)
#
#
# Indices 1 2 3 4 5 6 
#
# 1 156.6304 39.8996 74.9370 -0.0001 -0.0002 -0.0001
# 2 39.8996 108.4299 59.4969 -0.0003 0.0000 0.0001
# 3 74.9370 59.4969 156.7330 -0.0011 0.0018 -0.0010
# 4 -0.0001 -0.0003 -0.0011 36.8221 0.0000 0.0002
# 5 -0.0002 0.0000 0.0018 0.0000 32.8223 -0.0002
# 6 -0.0001 0.0001 -0.0010 0.0002 -0.0002 -2.5172
#
#
#
# Elastic Compliance Matrix: (Units=1/GPa)
#
#
# Indices 1 2 3 4 5 6 
#
# 1 0.008384 -0.001119 -0.003584 0.000000 0.000000 0.000001
# 2 -0.001119 0.011798 -0.003944 0.000000 0.000000 0.000002
# 3 -0.003584 -0.003944 0.009591 0.000000 -0.000001 -0.000004
# 4 0.000000 0.000000 0.000000 0.027158 0.000000 0.000002
# 5 0.000000 0.000000 -0.000001 0.000000 0.030467 -0.000002
# 6 0.000001 0.000002 -0.000004 0.000002 -0.000002 -0.397267
#
#
# Mechanical properties :
#
#
# Convention : Reuss Voigt Hill
#
# Bulk Modulus (GPa) = 80.12542 85.60668 82.86605
# Shear Modulus (GPa) = -17.33608 29.92277 6.29335
#
# Velocity S-wave (km/s) = -2.66481 3.50100 1.60558
# Velocity P-wave (km/s) = 4.83247 7.17000 6.11398
#
# Compressibility (1/GPa) = 0.01248043
#
# Stress axis : x y z
#
# Youngs Moduli (GPa) = 119.27358 84.75865 104.26483
#
# Poissons Ratio (x) = 0.09481 0.37368
# Poissons Ratio (y) = 0.13342 0.41121
# Poissons Ratio (z) = 0.42747 0.33428
#
# Static dielectric constant tensor:
#      x y z
#    x 1.913420 0.000000 0.000000 
#    y 0.000000 2.258280 0.000000 
#    z 0.000000 0.000000 2.238890 
# 
# From -- ./inp_files/9826.got.cif
#   From: 2010.05.17/outbox.cif.g08.bks.cpg/sg73_5_cif.got.tgz:9826.got - 2010.06.03 17:35:07.
