data_PCOD9533053
_publ_section_title
;
Structure prediction by ZEFSAII (Michael W. Deem and Ramdas Pophale) SiO2 
 PCOD9533053
Probable space group: I B C A 
;
_chemical_formula_sum "Si O2"
_cell_formula_units_Z 72
_cell_length_a 8.170569
_cell_length_b 14.983166
_cell_length_c 22.321275
_cell_angle_alpha 90.000000
_cell_angle_beta 90.000000
_cell_angle_gamma 90.000000
_cell_volume 2732.592620
_symmetry_space_group_name_H-M "I B C A "
_symmetry_group_IT_number 73
_symmetry_cell_setting 'orthorhombic'
loop_
_space_group_symop_operation_xyz
x,y,z
-x,1/2-y,z
x,-y,1/2-z
1/2-x,y,-z
-x,-y,-z
x,1/2+y,-z
-x,y,1/2+z
1/2+x,-y,z
1/2+x,1/2+y,1/2+z
1/2-x,-y,1/2+z
1/2+x,1/2-y,-z
-x,1/2+y,1/2-z
1/2-x,1/2-y,1/2-z
1/2+x,y,1/2-z
1/2-x,1/2+y,z
x,1/2-y,1/2+z
loop_
_atom_site_type_symbol
_atom_site_label
_atom_site_fract_x
_atom_site_fract_y
_atom_site_fract_z
Si Si1 0.967561 0.600915 0.270359
Si Si2 0.655654 0.314919 0.377466
Si Si3 0.861822 0.849039 0.159123
Si Si4 0.750000 0.860978 0.500000
Si Si5 0.424361 0.089759 0.030960
O O1 0.986306 0.500000 0.250000
O O2 0.796022 0.616327 0.303467
O O3 0.102435 0.633770 0.317956
O O4 0.997104 0.653052 0.208708
O O5 0.500000 0.250000 0.392164
O O6 0.800536 0.243990 0.368548
O O7 0.705000 0.383211 0.429823
O O8 0.901870 0.911343 0.102315
O O9 0.562491 0.837907 0.484226
O O10 0.250000 0.107122 0.000000
O O11 0.500000 0.000000 0.000000
#
# Coordination Sequence:
#
# PCOD9533053 Si02
#       5
#    16  16  16   8  16
#     4  11  25  46  78 113 160 214 280 341 417 498
#     4  10  25  49  76 117 165 212 278 342 420 512
#     4  11  27  47  78 113 166 211 275 345 425 504
#     4  12  28  48  86 112 162 220 268 336 432 504
#     4  12  28  50  79 117 161 210 278 348 430 499
#
# _framework density 26.348604000000002
#
# number of rings (size 3 to 8) (size 9 to 14) (size 15 to 20)
#    0.000    0.889    1.111    4.000   14.000    0.000 
#    0.000    0.000    0.000    0.000    0.000    0.000 
#    0.000    0.000    0.000    0.000    0.000    0.000 
#
# Total GULP energy -200896.845964 kJ/mol
# GULP energy per Si atom -5580.467943 kJ/mol
# Density = 2.628863 g / cm^3
# Si number density = 26.348604 Si / 1000 Ang^3
#
#
#
# Elastic Constant Matrix: (Units=GPa)
#
#
# Indices 1 2 3 4 5 6 
#
# 1 190.0051 30.6630 75.8544 0.0000 0.0000 0.0000
# 2 30.6630 111.2149 49.1213 0.0000 0.0000 0.0000
# 3 75.8544 49.1213 262.3223 0.0000 0.0000 0.0000
# 4 0.0000 0.0000 0.0000 31.3024 0.0000 0.0000
# 5 0.0000 0.0000 0.0000 0.0000 33.5598 0.0000
# 6 0.0000 0.0000 0.0000 0.0000 0.0000 15.7992
#
#
#
# Elastic Compliance Matrix: (Units=1/GPa)
#
#
# Indices 1 2 3 4 5 6 
#
# 1 0.006045 -0.000975 -0.001565 0.000000 0.000000 0.000000
# 2 -0.000975 0.009960 -0.001583 0.000000 0.000000 0.000000
# 3 -0.001565 -0.001583 0.004561 0.000000 0.000000 0.000000
# 4 0.000000 0.000000 0.000000 0.031946 0.000000 0.000000
# 5 0.000000 0.000000 0.000000 0.000000 0.029798 0.000000
# 6 0.000000 0.000000 0.000000 0.000000 0.000000 0.063294
#
#
# Mechanical properties :
#
#
# Convention : Reuss Voigt Hill
#
# Bulk Modulus (GPa) = 81.17736 97.20218 89.18977
# Shear Modulus (GPa) = 31.65391 43.32584 37.48988
#
# Velocity S-wave (km/s) = 3.46981 4.05944 3.77615
# Velocity P-wave (km/s) = 6.85045 7.67743 7.27570
#
# Compressibility (1/GPa) = 0.01231871
#
# Stress axis : x y z
#
# Youngs Moduli (GPa) = 165.41527 100.40493 219.24022
#
# Poissons Ratio (x) = 0.09793 0.34322
# Poissons Ratio (y) = 0.16133 0.34705
# Poissons Ratio (z) = 0.25895 0.15894
#
# Static dielectric constant tensor:
#      x y z
#    x 2.108710 0.000000 0.000000 
#    y 0.000000 2.262720 0.000000 
#    z 0.000000 0.000000 1.989740 
# 
# From -- ./inp_files/6021.got.cif
#   From: 2010.05.17/outbox.cif.g08.bks.cpg/sg73_4_cif.got.tgz:6021.got - 2010.06.03 17:35:07.
