data_PCOD9533868
_publ_section_title
;
Structure prediction by ZEFSAII (Michael W. Deem and Ramdas Pophale) SiO2 
 PCOD9533868
Probable space group: I M M A
;
_chemical_formula_sum "Si O2"
_cell_formula_units_Z 112
_cell_length_a 8.024956
_cell_length_b 37.351341
_cell_length_c 27.563602
_cell_angle_alpha 90.000000
_cell_angle_beta 90.000000
_cell_angle_gamma 90.000000
_cell_volume 8261.993118
_symmetry_space_group_name_H-M "I M M A"
_symmetry_group_IT_number 74
_symmetry_cell_setting 'orthorhombic'
loop_
_space_group_symop_operation_xyz
x,y,z
-x,1/2-y,z
x,-y,-z
-x,1/2+y,-z
-x,-y,-z
x,1/2+y,-z
-x,y,z
x,1/2-y,z
1/2+x,1/2+y,1/2+z
1/2-x,-y,1/2+z
1/2+x,1/2-y,1/2-z
1/2-x,y,1/2-z
1/2-x,1/2-y,1/2-z
1/2+x,y,1/2-z
1/2-x,1/2+y,1/2+z
1/2+x,-y,1/2+z
loop_
_atom_site_type_symbol
_atom_site_label
_atom_site_fract_x
_atom_site_fract_y
_atom_site_fract_z
Si Si1 0.189100 0.341064 0.168773
Si Si2 0.684883 0.162584 0.448251
Si Si3 0.500000 0.709374 0.945780
Si Si4 0.303704 0.087884 0.018891
Si Si5 0.197661 0.973182 0.042487
Si Si6 0.200793 0.465609 0.394737
Si Si7 0.500000 0.708542 0.827569
Si Si8 0.800228 0.920049 0.696895
O O1 0.200077 0.343781 0.109982
O O2 0.333633 0.313831 0.185874
O O3 0.222795 0.380820 0.188428
O O4 0.000000 0.329700 0.181179
O O5 0.500000 0.177113 0.457110
O O6 0.834407 0.188791 0.461682
O O7 0.709558 0.125051 0.475463
O O8 0.500000 0.750000 0.962422
O O9 0.500000 0.709532 0.886680
O O10 0.500000 0.094813 0.025798
O O11 0.245559 0.061982 0.062843
O O12 0.275550 0.065115 0.970027
O O13 0.000000 0.969635 0.037225
O O14 0.236448 0.994955 0.091256
O O15 0.262219 0.000000 0.000000
O O16 0.254728 0.447909 0.344424
O O17 0.000000 0.466855 0.395625
O O18 0.500000 0.750000 0.810910
O O19 0.750000 0.932680 0.750000
O O20 0.000000 0.916038 0.693110
#
# Coordination Sequence:
#
# PCOD9533868 Si02
#       8
#    16  16   8  16  16  16   8  16
#     4  10  19  31  48  66  83 102 126 160 203 244
#     4  10  18  27  44  64  82 106 134 165 201 243
#     4   9  18  30  42  60  84 108 132 162 204 243
#     4  10  16  26  43  60  83 108 135 158 195 243
#     4   9  17  26  37  58  84 106 131 161 189 235
#     4   9  18  29  43  57  80 108 131 161 199 242
#     4   9  18  32  50  66  83 101 123 155 197 257
#     4  11  21  33  47  65  83 103 134 168 204 247
#
# _framework density 13.556051
#
# number of rings (size 3 to 8) (size 9 to 14) (size 15 to 20)
#    0.000    2.286    2.857    1.286    0.000    4.000 
#    0.000    2.857    0.000    0.429    0.000    0.000 
#    0.000    0.000    0.000    0.000    0.000    0.000 
#
# Total GULP energy -312162.388457 kJ/mol
# GULP energy per Si atom -5574.328365 kJ/mol
# Density = 1.352520 g / cm^3
# Si number density = 13.556051 Si / 1000 Ang^3
#
#
#
# Elastic Constant Matrix: (Units=GPa)
#
#
# Indices 1 2 3 4 5 6 
#
# 1 73.4415 31.2495 17.4458 0.0000 0.0000 0.0000
# 2 31.2495 59.7220 33.6895 0.0000 0.0000 0.0000
# 3 17.4458 33.6895 38.3401 0.0000 0.0000 0.0000
# 4 0.0000 0.0000 0.0000 7.5441 0.0000 0.0000
# 5 0.0000 0.0000 0.0000 0.0000 12.1715 0.0000
# 6 0.0000 0.0000 0.0000 0.0000 0.0000 6.6320
#
#
#
# Elastic Compliance Matrix: (Units=1/GPa)
#
#
# Indices 1 2 3 4 5 6 
#
# 1 0.017517 -0.009259 0.000165 0.000000 0.000000 0.000000
# 2 -0.009259 0.038095 -0.029262 0.000000 0.000000 0.000000
# 3 0.000165 -0.029262 0.051719 0.000000 0.000000 0.000000
# 4 0.000000 0.000000 0.000000 0.132554 0.000000 0.000000
# 5 0.000000 0.000000 0.000000 0.000000 0.082159 0.000000
# 6 0.000000 0.000000 0.000000 0.000000 0.000000 0.150783
#
#
# Mechanical properties :
#
#
# Convention : Reuss Voigt Hill
#
# Bulk Modulus (GPa) = 32.65713 37.36368 35.01040
# Shear Modulus (GPa) = 8.93263 11.21077 10.07170
#
# Velocity S-wave (km/s) = 2.56977 2.87887 2.72870
# Velocity P-wave (km/s) = 5.74001 6.21874 5.98416
#
# Compressibility (1/GPa) = 0.03062118
#
# Stress axis : x y z
#
# Youngs Moduli (GPa) = 57.08841 26.24988 19.33511
#
# Poissons Ratio (x) = 0.24304 -0.00319
# Poissons Ratio (y) = 0.52857 0.56577
# Poissons Ratio (z) = -0.00942 0.76811
#
# Static dielectric constant tensor:
#      x y z
#    x 1.479550 0.000000 0.000000 
#    y 0.000000 1.440510 0.000000 
#    z 0.000000 0.000000 1.432070 
# 
# From -- ./inp_files/71140.got.cif
#   From: 2010.05.17/outbox.cif.g08.bks.cpg/sg74_36_cif.got.tgz:71140.got - 2010.06.03 17:57:02.
