data_PCOD9533485
_publ_section_title
;
Structure prediction by ZEFSAII (Michael W. Deem and Ramdas Pophale) SiO2 
 PCOD9533485
Probable space group: I B C A 
;
_chemical_formula_sum "Si O2"
_cell_formula_units_Z 104
_cell_length_a 8.950698
_cell_length_b 21.518072
_cell_length_c 22.272643
_cell_angle_alpha 90.000000
_cell_angle_beta 90.000000
_cell_angle_gamma 90.000000
_cell_volume 4289.750331
_symmetry_space_group_name_H-M "I B C A "
_symmetry_group_IT_number 73
_symmetry_cell_setting 'orthorhombic'
loop_
_space_group_symop_operation_xyz
x,y,z
-x,1/2-y,z
x,-y,1/2-z
1/2-x,y,-z
-x,-y,-z
x,1/2+y,-z
-x,y,1/2+z
1/2+x,-y,z
1/2+x,1/2+y,1/2+z
1/2-x,-y,1/2+z
1/2+x,1/2-y,-z
-x,1/2+y,1/2-z
1/2-x,1/2-y,1/2-z
1/2+x,y,1/2-z
1/2-x,1/2+y,z
x,1/2-y,1/2+z
loop_
_atom_site_type_symbol
_atom_site_label
_atom_site_fract_x
_atom_site_fract_y
_atom_site_fract_z
Si Si1 0.469074 0.025651 0.816059
Si Si2 0.178860 0.944026 0.606871
Si Si3 0.250000 0.734648 0.500000
Si Si4 0.944238 0.864123 0.569762
Si Si5 0.000000 0.250000 0.088537
Si Si6 0.392080 0.808160 0.803912
Si Si7 0.575032 0.155984 0.809771
Si Si8 0.250000 0.535781 0.500000
O O1 0.328230 0.053046 0.853141
O O2 0.590423 0.081873 0.815292
O O3 0.429693 0.000000 0.750000
O O4 0.545994 0.969602 0.851345
O O5 0.119114 0.879354 0.579002
O O6 0.190238 0.992092 0.552375
O O7 0.123089 0.693466 0.533380
O O8 0.148316 0.764979 0.449435
O O9 0.888982 0.851462 0.637248
O O10 0.872041 0.921000 0.532703
O O11 0.025378 0.310646 0.129427
O O12 0.500000 0.750000 0.818440
O O13 0.459003 0.837835 0.744284
O O14 0.216959 0.802591 0.791345
#
# Coordination Sequence:
#
# PCOD9533485 Si02
#       8
#    16  16   8  16   8  16  16   8
#     4  12  29  47  78 118 163 207 267 330 401 475
#     4  12  26  47  78 110 156 207 261 324 394 485
#     4  11  28  48  83 104 164 211 262 345 380 494
#     4  11  25  47  78 109 153 202 259 319 409 459
#     4  12  28  54  76 118 154 212 278 326 404 470
#     4  12  27  50  78 110 152 204 256 327 397 469
#     4  12  29  48  80 116 160 202 265 332 394 479
#     4  11  24  48  77 112 154 209 254 325 384 498
#
# _framework density 24.243834
#
# number of rings (size 3 to 8) (size 9 to 14) (size 15 to 20)
#    0.000    0.308    3.846    3.231    9.692    1.231 
#    0.000    0.000    0.000    0.000    0.000    0.000 
#    0.000    0.000    0.000    0.000    0.000    0.000 
#
# Total GULP energy -290774.256454 kJ/mol
# GULP energy per Si atom -5591.812624 kJ/mol
# Density = 2.418865 g / cm^3
# Si number density = 24.243834 Si / 1000 Ang^3
#
#
#
# Elastic Constant Matrix: (Units=GPa)
#
#
# Indices 1 2 3 4 5 6 
#
# 1 116.7901 38.9943 46.8135 0.0000 0.0000 0.0000
# 2 38.9943 66.7392 22.5945 0.0000 0.0000 0.0000
# 3 46.8135 22.5945 142.7186 0.0000 0.0000 0.0000
# 4 0.0000 0.0000 0.0000 51.5369 0.0000 0.0000
# 5 0.0000 0.0000 0.0000 0.0000 36.9066 0.0000
# 6 0.0000 0.0000 0.0000 0.0000 0.0000 31.5239
#
#
#
# Elastic Compliance Matrix: (Units=1/GPa)
#
#
# Indices 1 2 3 4 5 6 
#
# 1 0.011676 -0.005839 -0.002906 0.000000 0.000000 0.000000
# 2 -0.005839 0.018752 -0.001054 0.000000 0.000000 0.000000
# 3 -0.002906 -0.001054 0.008127 0.000000 0.000000 0.000000
# 4 0.000000 0.000000 0.000000 0.019404 0.000000 0.000000
# 5 0.000000 0.000000 0.000000 0.000000 0.027095 0.000000
# 6 0.000000 0.000000 0.000000 0.000000 0.000000 0.031722
#
#
# Mechanical properties :
#
#
# Convention : Reuss Voigt Hill
#
# Bulk Modulus (GPa) = 52.74474 60.33916 56.54195
# Shear Modulus (GPa) = 35.04069 38.51654 36.77861
#
# Velocity S-wave (km/s) = 3.80589 3.99019 3.89913
# Velocity P-wave (km/s) = 6.41220 6.79495 6.60635
#
# Compressibility (1/GPa) = 0.01895924
#
# Stress axis : x y z
#
# Youngs Moduli (GPa) = 85.64222 53.32835 123.05128
#
# Poissons Ratio (x) = 0.31136 0.35755
# Poissons Ratio (y) = 0.50003 0.12964
# Poissons Ratio (z) = 0.24885 0.05618
#
# Static dielectric constant tensor:
#      x y z
#    x 1.967930 0.000000 0.000000 
#    y 0.000000 1.936070 0.000000 
#    z 0.000000 0.000000 1.974850 
# 
# From -- ./inp_files/24995.got.cif
#   From: 2010.05.17/outbox.cif.g08.bks.cpg/sg73_13_cif.got.tgz:24995.got - 2010.06.03 17:35:07.
