data_PCOD9533025
_publ_section_title
;
Structure prediction by ZEFSAII (Michael W. Deem and Ramdas Pophale) SiO2 
 PCOD9533025
Probable space group: I B C A 
;
_chemical_formula_sum "Si O2"
_cell_formula_units_Z 112
_cell_length_a 22.474969
_cell_length_b 15.225916
_cell_length_c 14.740634
_cell_angle_alpha 90.000000
_cell_angle_beta 90.000000
_cell_angle_gamma 90.000000
_cell_volume 5044.274290
_symmetry_space_group_name_H-M "I B C A "
_symmetry_group_IT_number 73
_symmetry_cell_setting 'orthorhombic'
loop_
_space_group_symop_operation_xyz
x,y,z
-x,1/2-y,z
x,-y,1/2-z
1/2-x,y,-z
-x,-y,-z
x,1/2+y,-z
-x,y,1/2+z
1/2+x,-y,z
1/2+x,1/2+y,1/2+z
1/2-x,-y,1/2+z
1/2+x,1/2-y,-z
-x,1/2+y,1/2-z
1/2-x,1/2-y,1/2-z
1/2+x,y,1/2-z
1/2-x,1/2+y,z
x,1/2-y,1/2+z
loop_
_atom_site_type_symbol
_atom_site_label
_atom_site_fract_x
_atom_site_fract_y
_atom_site_fract_z
Si Si1 0.373593 0.221911 0.316158
Si Si2 0.008781 0.654586 0.114924
Si Si3 0.382130 0.059973 0.053999
Si Si4 0.211649 0.089191 0.795331
Si Si5 0.302463 0.336994 0.427430
Si Si6 0.568758 0.591836 0.726450
Si Si7 0.467457 0.893170 0.082278
O O1 0.330159 0.157759 0.259446
O O2 0.338812 0.249430 0.407728
O O3 0.393888 0.316697 0.274495
O O4 0.430918 0.168100 0.349058
O O5 0.077458 0.637912 0.093910
O O6 0.000000 0.750000 0.153495
O O7 0.979351 0.594300 0.191011
O O8 0.978522 0.647820 0.016335
O O9 0.329132 0.049768 0.124420
O O10 0.427755 0.979093 0.059891
O O11 0.349044 0.089523 0.962337
O O12 0.267879 0.138734 0.836301
O O13 0.232937 0.000000 0.750000
O O14 0.250000 0.325891 0.500000
O O15 0.601842 0.500000 0.750000
O O16 0.530115 0.589782 0.633071
#
# Coordination Sequence:
#
# PCOD9533025 Si02
#       7
#    16  16  16  16  16  16  16
#     4  12  25  45  71 102 141 186 232 297 358 421
#     4  12  24  40  67 103 141 185 229 281 350 437
#     4  11  22  42  70  94 140 182 228 284 359 415
#     4  11  23  46  72  98 130 183 240 296 354 419
#     4  10  25  46  67  97 133 177 238 306 349 417
#     4  12  26  42  69 107 149 188 236 284 351 443
#     4  12  24  43  68 103 145 187 234 281 356 436
#
# _framework density 22.203392000000001
#
# number of rings (size 3 to 8) (size 9 to 14) (size 15 to 20)
#    0.000    0.571    2.857    6.429    2.000    1.714 
#    2.571    0.000    0.000    0.000    0.000    0.000 
#    0.000    0.000    0.000    0.000    0.000    0.000 
#
# Total GULP energy -312741.009693 kJ/mol
# GULP energy per Si atom -5584.660887 kJ/mol
# Density = 2.215286 g / cm^3
# Si number density = 22.203392 Si / 1000 Ang^3
#
#
#
# Elastic Constant Matrix: (Units=GPa)
#
#
# Indices 1 2 3 4 5 6 
#
# 1 86.5895 17.3334 20.5589 0.0000 0.0000 0.0000
# 2 17.3334 95.0452 17.7762 0.0000 0.0000 0.0000
# 3 20.5589 17.7762 78.0613 0.0000 0.0000 0.0000
# 4 0.0000 0.0000 0.0000 25.7020 0.0000 0.0000
# 5 0.0000 0.0000 0.0000 0.0000 44.2259 0.0000
# 6 0.0000 0.0000 0.0000 0.0000 0.0000 17.1654
#
#
#
# Elastic Compliance Matrix: (Units=1/GPa)
#
#
# Indices 1 2 3 4 5 6 
#
# 1 0.012592 -0.001751 -0.002918 0.000000 0.000000 0.000000
# 2 -0.001751 0.011233 -0.002097 0.000000 0.000000 0.000000
# 3 -0.002918 -0.002097 0.014056 0.000000 0.000000 0.000000
# 4 0.000000 0.000000 0.000000 0.038908 0.000000 0.000000
# 5 0.000000 0.000000 0.000000 0.000000 0.022611 0.000000
# 6 0.000000 0.000000 0.000000 0.000000 0.000000 0.058257
#
#
# Mechanical properties :
#
#
# Convention : Reuss Voigt Hill
#
# Bulk Modulus (GPa) = 41.06671 41.22591 41.14631
# Shear Modulus (GPa) = 27.88562 31.02049 29.45305
#
# Velocity S-wave (km/s) = 3.54774 3.74184 3.64608
# Velocity P-wave (km/s) = 5.94287 6.10543 6.02470
#
# Compressibility (1/GPa) = 0.02435062
#
# Stress axis : x y z
#
# Youngs Moduli (GPa) = 79.41593 89.02536 71.14221
#
# Poissons Ratio (x) = 0.15586 0.20757
# Poissons Ratio (y) = 0.13903 0.14917
# Poissons Ratio (z) = 0.23171 0.18667
#
# Static dielectric constant tensor:
#      x y z
#    x 1.792760 0.000000 0.000000 
#    y 0.000000 1.844090 0.000000 
#    z 0.000000 0.000000 1.843320 
# 
# From -- ./inp_files/19425.got.cif
#   From: 2010.05.17/outbox.cif.g08.bks.cpg/sg73_10_cif.got.tgz:19425.got - 2010.06.03 17:35:07.
