data_PCOD9533096
_publ_section_title
;
Structure prediction by ZEFSAII (Michael W. Deem and Ramdas Pophale) SiO2 
 PCOD9533096
Probable space group: I B C A 
;
_chemical_formula_sum "Si O2"
_cell_formula_units_Z 72
_cell_length_a 9.583678
_cell_length_b 15.575174
_cell_length_c 21.416341
_cell_angle_alpha 90.000000
_cell_angle_beta 90.000000
_cell_angle_gamma 90.000000
_cell_volume 3196.762661
_symmetry_space_group_name_H-M "I B C A "
_symmetry_group_IT_number 73
_symmetry_cell_setting 'orthorhombic'
loop_
_space_group_symop_operation_xyz
x,y,z
-x,1/2-y,z
x,-y,1/2-z
1/2-x,y,-z
-x,-y,-z
x,1/2+y,-z
-x,y,1/2+z
1/2+x,-y,z
1/2+x,1/2+y,1/2+z
1/2-x,-y,1/2+z
1/2+x,1/2-y,-z
-x,1/2+y,1/2-z
1/2-x,1/2-y,1/2-z
1/2+x,y,1/2-z
1/2-x,1/2+y,z
x,1/2-y,1/2+z
loop_
_atom_site_type_symbol
_atom_site_label
_atom_site_fract_x
_atom_site_fract_y
_atom_site_fract_z
Si Si1 0.353552 0.409041 0.447179
Si Si2 0.587849 0.336069 0.520128
Si Si3 0.494148 0.345969 0.831886
Si Si4 0.291018 0.420165 0.125270
Si Si5 0.910022 0.000000 0.750000
O O1 0.250000 0.374186 0.500000
O O2 0.502775 0.408045 0.481948
O O3 0.384129 0.355571 0.384105
O O4 0.290908 0.498628 0.422096
O O5 0.500000 0.250000 0.508474
O O6 0.750000 0.330587 0.500000
O O7 0.592419 0.360379 0.593273
O O8 0.500000 0.250000 0.806216
O O9 0.349614 0.366616 0.866677
O O10 0.508445 0.420770 0.780997
O O11 0.326789 0.458802 0.192520
#
# Coordination Sequence:
#
# PCOD9533096 Si02
#       5
#    16  16  16  16   8
#     4  11  25  42  71 107 147 196 241 306 375 453
#     4  12  25  43  69 109 150 190 244 307 379 454
#     4  11  25  47  74 106 149 199 247 319 374 446
#     4  11  25  45  70 104 143 194 252 303 377 443
#     4  10  26  48  72 106 146 196 262 314 370 438
#
# _framework density 22.522784000000001
#
# number of rings (size 3 to 8) (size 9 to 14) (size 15 to 20)
#    0.000    0.889    2.222    3.333    9.333    1.778 
#    0.000    0.000    0.000    0.000    0.000    0.000 
#    0.000    0.000    0.000    0.000    0.000    0.000 
#
# Total GULP energy -201035.389604 kJ/mol
# GULP energy per Si atom -5584.316378 kJ/mol
# Density = 2.247152 g / cm^3
# Si number density = 22.522784 Si / 1000 Ang^3
#
#
#
# Elastic Constant Matrix: (Units=GPa)
#
#
# Indices 1 2 3 4 5 6 
#
# 1 95.0740 46.1612 32.3789 0.0000 0.0000 0.0000
# 2 46.1612 153.2198 38.1885 0.0000 0.0000 0.0000
# 3 32.3789 38.1885 125.1196 0.0000 0.0000 0.0000
# 4 0.0000 0.0000 0.0000 11.5447 0.0000 0.0000
# 5 0.0000 0.0000 0.0000 0.0000 18.1259 0.0000
# 6 0.0000 0.0000 0.0000 0.0000 0.0000 28.8129
#
#
#
# Elastic Compliance Matrix: (Units=1/GPa)
#
#
# Indices 1 2 3 4 5 6 
#
# 1 0.012920 -0.003311 -0.002333 0.000000 0.000000 0.000000
# 2 -0.003311 0.007912 -0.001558 0.000000 0.000000 0.000000
# 3 -0.002333 -0.001558 0.009072 0.000000 0.000000 0.000000
# 4 0.000000 0.000000 0.000000 0.086620 0.000000 0.000000
# 5 0.000000 0.000000 0.000000 0.000000 0.055170 0.000000
# 6 0.000000 0.000000 0.000000 0.000000 0.000000 0.034707
#
#
# Mechanical properties :
#
#
# Convention : Reuss Voigt Hill
#
# Bulk Modulus (GPa) = 64.51611 67.43006 65.97308
# Shear Modulus (GPa) = 22.12665 28.80902 25.46783
#
# Velocity S-wave (km/s) = 3.13775 3.58034 3.36632
# Velocity P-wave (km/s) = 6.46794 6.86261 6.66819
#
# Compressibility (1/GPa) = 0.01550001
#
# Stress axis : x y z
#
# Youngs Moduli (GPa) = 77.39772 126.38280 110.23340
#
# Poissons Ratio (x) = 0.41846 0.25717
# Poissons Ratio (y) = 0.25627 0.17176
# Poissons Ratio (z) = 0.18057 0.19692
#
# Static dielectric constant tensor:
#      x y z
#    x 1.847250 0.000000 0.000000 
#    y 0.000000 1.883080 0.000000 
#    z 0.000000 0.000000 1.848320 
# 
# From -- ./inp_files/28246.got.cif
#   From: 2010.05.17/outbox.cif.g08.bks.cpg/sg73_15_cif.got.tgz:28246.got - 2010.06.03 17:35:07.
