data_PCOD9533670
_publ_section_title
;
Structure prediction by ZEFSAII (Michael W. Deem and Ramdas Pophale) SiO2 
 PCOD9533670
Probable space group: I B C A 
;
_chemical_formula_sum "Si O2"
_cell_formula_units_Z 64
_cell_length_a 12.859316
_cell_length_b 21.300635
_cell_length_c 11.015698
_cell_angle_alpha 90.000000
_cell_angle_beta 90.000000
_cell_angle_gamma 90.000000
_cell_volume 3017.327425
_symmetry_space_group_name_H-M "I B C A "
_symmetry_group_IT_number 73
_symmetry_cell_setting 'orthorhombic'
loop_
_space_group_symop_operation_xyz
x,y,z
-x,1/2-y,z
x,-y,1/2-z
1/2-x,y,-z
-x,-y,-z
x,1/2+y,-z
-x,y,1/2+z
1/2+x,-y,z
1/2+x,1/2+y,1/2+z
1/2-x,-y,1/2+z
1/2+x,1/2-y,-z
-x,1/2+y,1/2-z
1/2-x,1/2-y,1/2-z
1/2+x,y,1/2-z
1/2-x,1/2+y,z
x,1/2-y,1/2+z
loop_
_atom_site_type_symbol
_atom_site_label
_atom_site_fract_x
_atom_site_fract_y
_atom_site_fract_z
Si Si1 0.591361 0.498055 0.600406
Si Si2 0.804581 0.194002 0.679937
Si Si3 0.000000 0.250000 0.034077
Si Si4 0.145719 0.143697 0.428273
Si Si5 0.750000 0.898954 0.000000
O O1 0.570907 0.500000 0.750000
O O2 0.500000 0.500000 0.500000
O O3 0.637731 0.430839 0.561497
O O4 0.665290 0.555956 0.561202
O O5 0.750000 0.250000 0.750000
O O6 0.846929 0.151102 0.785396
O O7 0.723014 0.151858 0.604446
O O8 0.902665 0.220796 0.607049
O O9 0.947620 0.190116 0.967192
O O10 0.250000 0.164642 0.500000
#
# Coordination Sequence:
#
# PCOD9533670 Si02
#       5
#    16  16   8  16   8
#     4  12  28  50  78 112 152 208 263 328 400 481
#     4  12  25  46  76 109 155 201 255 328 403 476
#     4  12  26  46  74 112 150 202 260 322 400 480
#     4  12  25  47  73 110 148 197 257 320 393 473
#     4  12  26  50  78 110 150 204 270 316 404 482
#
# _framework density 21.210823000000001
#
# number of rings (size 3 to 8) (size 9 to 14) (size 15 to 20)
#    0.000    0.000    6.250    3.750    0.000    5.000 
#    0.000    0.000    0.000    0.000    0.000    0.000 
#    0.000    0.000    0.000    0.000    0.000    0.000 
#
# Total GULP energy -178160.560682 kJ/mol
# GULP energy per Si atom -5567.517521 kJ/mol
# Density = 2.116255 g / cm^3
# Si number density = 21.210823 Si / 1000 Ang^3
#
#
#
# Elastic Constant Matrix: (Units=GPa)
#
#
# Indices 1 2 3 4 5 6 
#
# 1 91.5816 54.0827 67.1979 0.0000 0.0000 0.0000
# 2 54.0827 159.6957 58.1933 0.0000 0.0000 0.0000
# 3 67.1979 58.1933 149.6316 -0.0001 0.0000 0.0000
# 4 0.0000 0.0000 -0.0001 55.0743 0.0000 0.0000
# 5 0.0000 0.0000 0.0000 0.0000 41.8828 0.0000
# 6 0.0000 0.0000 0.0000 0.0000 0.0000 31.0546
#
#
#
# Elastic Compliance Matrix: (Units=1/GPa)
#
#
# Indices 1 2 3 4 5 6 
#
# 1 0.017952 -0.003661 -0.006638 0.000000 0.000000 0.000000
# 2 -0.003661 0.008042 -0.001484 0.000000 0.000000 0.000000
# 3 -0.006638 -0.001484 0.010241 0.000000 0.000000 0.000000
# 4 0.000000 0.000000 0.000000 0.018157 0.000000 0.000000
# 5 0.000000 0.000000 0.000000 0.000000 0.023876 0.000000
# 6 0.000000 0.000000 0.000000 0.000000 0.000000 0.032201
#
#
# Mechanical properties :
#
#
# Convention : Reuss Voigt Hill
#
# Bulk Modulus (GPa) = 78.92629 84.42852 81.67740
# Shear Modulus (GPa) = 36.16401 40.36467 38.26434
#
# Velocity S-wave (km/s) = 4.13362 4.36710 4.25196
# Velocity P-wave (km/s) = 7.75071 8.08205 7.91812
#
# Compressibility (1/GPa) = 0.01267005
#
# Stress axis : x y z
#
# Youngs Moduli (GPa) = 55.70470 124.34250 97.64343
#
# Poissons Ratio (x) = 0.45516 0.64819
# Poissons Ratio (y) = 0.20391 0.14488
# Poissons Ratio (z) = 0.36979 0.18450
#
# Static dielectric constant tensor:
#      x y z
#    x 1.417110 0.000000 0.000000 
#    y 0.000000 4.533660 0.000000 
#    z 0.000000 0.000000 1.775780 
# 
# From -- ./inp_files/9495.got.cif
#   From: 2010.05.17/outbox.cif.g08.bks.cpg/sg73_5_cif.got.tgz:9495.got - 2010.06.03 17:35:07.
