data_PCOD9533825
_publ_section_title
;
Structure prediction by ZEFSAII (Michael W. Deem and Ramdas Pophale) SiO2 
 PCOD9533825
Probable space group: I M M A
;
_chemical_formula_sum "Si O2"
_cell_formula_units_Z 120
_cell_length_a 18.292736
_cell_length_b 19.128788
_cell_length_c 19.398388
_cell_angle_alpha 90.000000
_cell_angle_beta 90.000000
_cell_angle_gamma 90.000000
_cell_volume 6787.842589
_symmetry_space_group_name_H-M "I M M A"
_symmetry_group_IT_number 74
_symmetry_cell_setting 'orthorhombic'
loop_
_space_group_symop_operation_xyz
x,y,z
-x,1/2-y,z
x,-y,-z
-x,1/2+y,-z
-x,-y,-z
x,1/2+y,-z
-x,y,z
x,1/2-y,z
1/2+x,1/2+y,1/2+z
1/2-x,-y,1/2+z
1/2+x,1/2-y,1/2-z
1/2-x,y,1/2-z
1/2-x,1/2-y,1/2-z
1/2+x,y,1/2-z
1/2-x,1/2+y,1/2+z
1/2+x,-y,1/2+z
loop_
_atom_site_type_symbol
_atom_site_label
_atom_site_fract_x
_atom_site_fract_y
_atom_site_fract_z
Si Si1 0.795321 0.331565 0.466651
Si Si2 0.170264 0.051528 0.672354
Si Si3 0.649140 0.500000 0.500000
Si Si4 0.229387 0.170767 0.879083
Si Si5 0.582975 0.922822 0.031454
Si Si6 0.281116 0.562996 0.630599
Si Si7 0.079536 0.608665 0.085819
Si Si8 0.082905 0.508949 0.797684
O O1 0.807466 0.250000 0.453478
O O2 0.755116 0.338149 0.541082
O O3 0.869690 0.373866 0.481200
O O4 0.749113 0.367218 0.405314
O O5 0.229560 0.114479 0.669002
O O6 0.121432 0.068336 0.605384
O O7 0.117194 0.037743 0.736488
O O8 0.216824 0.980005 0.667077
O O9 0.699593 0.486399 0.434709
O O10 0.602469 0.569504 0.484984
O O11 0.246039 0.250000 0.857847
O O12 0.143157 0.156972 0.884835
O O13 0.500000 0.897210 0.038844
O O14 0.582127 0.000000 0.000000
O O15 0.354527 0.563970 0.677219
O O16 0.075515 0.543633 0.138215
O O17 0.000000 0.641911 0.080006
O O18 0.000000 0.534662 0.781660
#
# Coordination Sequence:
#
# PCOD9533825 Si02
#       8
#    16  16   8  16  16  16  16  16
#     4  10  20  35  54  83 118 147 180 229 284 341
#     4  11  19  35  56  77 110 143 187 238 276 330
#     4  10  15  30  50  78 105 128 180 232 281 322
#     4  10  20  33  52  78 109 149 187 224 278 339
#     4  10  19  32  55  85 112 144 184 229 281 331
#     4  11  18  32  58  81 104 141 185 229 283 334
#     4  10  19  31  49  73 107 143 181 228 280 328
#     4  10  22  35  53  81 107 139 186 237 280 327
#
# _framework density 17.678666
#
# number of rings (size 3 to 8) (size 9 to 14) (size 15 to 20)
#    0.000    1.733    5.333    1.800    0.000    1.067 
#    0.000    1.333    0.000    4.000    0.000    0.000 
#    0.000    0.000    0.000    0.000    0.000    0.000 
#
# Total GULP energy -334227.242094 kJ/mol
# GULP energy per Si atom -5570.454035 kJ/mol
# Density = 1.763843 g / cm^3
# Si number density = 17.678666 Si / 1000 Ang^3
#
#
#
# Elastic Constant Matrix: (Units=GPa)
#
#
# Indices 1 2 3 4 5 6 
#
# 1 128.0946 36.5762 20.6470 0.0000 0.0000 0.0000
# 2 36.5762 81.8912 13.7663 0.0000 0.0000 0.0000
# 3 20.6470 13.7663 44.6067 0.0000 0.0000 0.0000
# 4 0.0000 0.0000 0.0000 11.3662 0.0000 0.0000
# 5 0.0000 0.0000 0.0000 0.0000 6.3392 0.0000
# 6 0.0000 0.0000 0.0000 0.0000 0.0000 -8.2497
#
#
#
# Elastic Compliance Matrix: (Units=1/GPa)
#
#
# Indices 1 2 3 4 5 6 
#
# 1 0.009364 -0.003643 -0.003210 0.000000 0.000000 0.000000
# 2 -0.003643 0.014297 -0.002726 0.000000 0.000000 0.000000
# 3 -0.003210 -0.002726 0.024745 0.000000 0.000000 0.000000
# 4 0.000000 0.000000 0.000000 0.087980 0.000000 0.000000
# 5 0.000000 0.000000 0.000000 0.000000 0.157749 0.000000
# 6 0.000000 0.000000 0.000000 0.000000 0.000000 -0.121217
#
#
# Mechanical properties :
#
#
# Convention : Reuss Voigt Hill
#
# Bulk Modulus (GPa) = 34.19015 44.06349 39.12682
# Shear Modulus (GPa) = 24.77379 14.13134 19.45257
#
# Velocity S-wave (km/s) = 3.74751 2.83033 3.32074
# Velocity P-wave (km/s) = 6.17307 5.97159 6.07317
#
# Compressibility (1/GPa) = 0.02924819
#
# Stress axis : x y z
#
# Youngs Moduli (GPa) = 106.78780 69.94644 40.41166
#
# Poissons Ratio (x) = 0.25481 0.12973
# Poissons Ratio (y) = 0.38902 0.11016
# Poissons Ratio (z) = 0.34281 0.19067
#
# Static dielectric constant tensor:
#      x y z
#    x 1.673140 0.000000 0.000000 
#    y 0.000000 1.600480 0.000000 
#    z 0.000000 0.000000 1.623310 
# 
# From -- ./inp_files/53293.got.cif
#   From: 2010.05.17/outbox.cif.g08.bks.cpg/sg74_27_cif.got.tgz:53293.got - 2010.06.03 17:57:02.
