data_PCOD9533252
_publ_section_title
;
Structure prediction by ZEFSAII (Michael W. Deem and Ramdas Pophale) SiO2 
 PCOD9533252
Probable space group: I B C A 
;
_chemical_formula_sum "Si O2"
_cell_formula_units_Z 56
_cell_length_a 25.137300
_cell_length_b 10.682230
_cell_length_c 8.472584
_cell_angle_alpha 90.000000
_cell_angle_beta 90.000000
_cell_angle_gamma 90.000000
_cell_volume 2275.078761
_symmetry_space_group_name_H-M "I B C A "
_symmetry_group_IT_number 73
_symmetry_cell_setting 'orthorhombic'
loop_
_space_group_symop_operation_xyz
x,y,z
-x,1/2-y,z
x,-y,1/2-z
1/2-x,y,-z
-x,-y,-z
x,1/2+y,-z
-x,y,1/2+z
1/2+x,-y,z
1/2+x,1/2+y,1/2+z
1/2-x,-y,1/2+z
1/2+x,1/2-y,-z
-x,1/2+y,1/2-z
1/2-x,1/2-y,1/2-z
1/2+x,y,1/2-z
1/2-x,1/2+y,z
x,1/2-y,1/2+z
loop_
_atom_site_type_symbol
_atom_site_label
_atom_site_fract_x
_atom_site_fract_y
_atom_site_fract_z
Si Si1 0.674618 0.820934 0.747783
Si Si2 0.000000 0.250000 0.610967
Si Si3 0.102714 0.648904 0.527806
Si Si4 0.250000 0.324742 0.500000
Si Si5 0.464464 0.000000 0.750000
O O1 0.632311 0.884098 0.633345
O O2 0.642346 0.714339 0.846592
O O3 0.714833 0.757169 0.621177
O O4 0.709063 0.892563 0.881530
O O5 0.945530 0.257280 0.513409
O O6 0.002323 0.377132 0.711015
O O7 0.074085 0.531458 0.605322
#
# Coordination Sequence:
#
# PCOD9533252 Si02
#       5
#    16   8  16   8   8
#     4   9  18  36  68 103 140 192 253 300 370 437
#     4  12  26  48  70 108 150 198 248 316 366 460
#     4  11  22  41  67 103 141 197 250 306 364 450
#     4   8  16  34  66 108 132 192 250 312 356 448
#     4  12  26  46  72 104 154 196 256 300 378 444
#
# _framework density 24.614533000000002
#
# number of rings (size 3 to 8) (size 9 to 14) (size 15 to 20)
#    0.000    1.714    2.857    1.714    0.000    0.000 
#    0.000    0.000    0.000   10.286    0.000    0.000 
#    0.000    0.000    0.000    0.857    0.000    0.000 
#
# Total GULP energy -156484.302498 kJ/mol
# GULP energy per Si atom -5588.725089 kJ/mol
# Density = 2.455851 g / cm^3
# Si number density = 24.614533 Si / 1000 Ang^3
#
#
#
# Elastic Constant Matrix: (Units=GPa)
#
#
# Indices 1 2 3 4 5 6 
#
# 1 135.5713 37.7228 79.5930 0.0000 0.0000 0.0000
# 2 37.7228 108.1713 50.1814 0.0000 0.0000 0.0000
# 3 79.5930 50.1814 180.7108 0.0000 0.0000 0.0000
# 4 0.0000 0.0000 0.0000 39.5788 0.0000 0.0000
# 5 0.0000 0.0000 0.0000 0.0000 54.6187 0.0000
# 6 0.0000 0.0000 0.0000 0.0000 0.0000 25.8119
#
#
#
# Elastic Compliance Matrix: (Units=1/GPa)
#
#
# Indices 1 2 3 4 5 6 
#
# 1 0.010212 -0.001693 -0.004028 0.000000 0.000000 0.000000
# 2 -0.001693 0.010892 -0.002279 0.000000 0.000000 0.000000
# 3 -0.004028 -0.002279 0.007941 0.000000 0.000000 0.000000
# 4 0.000000 0.000000 0.000000 0.025266 0.000000 0.000000
# 5 0.000000 0.000000 0.000000 0.000000 0.018309 0.000000
# 6 0.000000 0.000000 0.000000 0.000000 0.000000 0.038742
#
#
# Mechanical properties :
#
#
# Convention : Reuss Voigt Hill
#
# Bulk Modulus (GPa) = 76.65438 84.38307 80.51873
# Shear Modulus (GPa) = 37.96255 41.13229 39.54742
#
# Velocity S-wave (km/s) = 3.93145 4.09229 4.01268
# Velocity P-wave (km/s) = 7.19847 7.52897 7.36557
#
# Compressibility (1/GPa) = 0.01304557
#
# Stress axis : x y z
#
# Youngs Moduli (GPa) = 97.92568 91.80888 125.93581
#
# Poissons Ratio (x) = 0.15541 0.50723
# Poissons Ratio (y) = 0.16576 0.28702
# Poissons Ratio (z) = 0.39441 0.20924
#
# Static dielectric constant tensor:
#      x y z
#    x 2.003330 0.000000 0.000000 
#    y 0.000000 1.915870 0.000000 
#    z 0.000000 0.000000 1.989850 
# 
# From -- ./inp_files/3862.got.cif
#   From: 2010.05.17/outbox.cif.g08.bks.cpg/sg73_2_cif.got.tgz:3862.got - 2010.06.03 17:35:07.
