data_PCOD9533227
_publ_section_title
;
Structure prediction by ZEFSAII (Michael W. Deem and Ramdas Pophale) SiO2 
 PCOD9533227
Probable space group: I B C A 
;
_chemical_formula_sum "Si O2"
_cell_formula_units_Z 104
_cell_length_a 19.857327
_cell_length_b 14.206781
_cell_length_c 18.749753
_cell_angle_alpha 90.000000
_cell_angle_beta 90.000000
_cell_angle_gamma 90.000000
_cell_volume 5289.468368
_symmetry_space_group_name_H-M "I B C A "
_symmetry_group_IT_number 73
_symmetry_cell_setting 'orthorhombic'
loop_
_space_group_symop_operation_xyz
x,y,z
-x,1/2-y,z
x,-y,1/2-z
1/2-x,y,-z
-x,-y,-z
x,1/2+y,-z
-x,y,1/2+z
1/2+x,-y,z
1/2+x,1/2+y,1/2+z
1/2-x,-y,1/2+z
1/2+x,1/2-y,-z
-x,1/2+y,1/2-z
1/2-x,1/2-y,1/2-z
1/2+x,y,1/2-z
1/2-x,1/2+y,z
x,1/2-y,1/2+z
loop_
_atom_site_type_symbol
_atom_site_label
_atom_site_fract_x
_atom_site_fract_y
_atom_site_fract_z
Si Si1 0.458252 0.164228 0.351537
Si Si2 0.463771 0.659107 0.357061
Si Si3 0.821718 0.781044 0.583526
Si Si4 0.679138 0.073272 0.541194
Si Si5 0.177698 0.355888 0.079770
Si Si6 0.031864 0.398421 0.504661
Si Si7 0.995898 0.000000 0.250000
O O1 0.500000 0.250000 0.319984
O O2 0.382089 0.185851 0.373370
O O3 0.498963 0.144406 0.425057
O O4 0.457202 0.073520 0.300582
O O5 0.500000 0.750000 0.324702
O O6 0.387123 0.681333 0.376935
O O7 0.506812 0.645616 0.430273
O O8 0.466331 0.568256 0.306089
O O9 0.817796 0.667686 0.588862
O O10 0.751485 0.827558 0.606671
O O11 0.828886 0.812538 0.500148
O O12 0.750000 0.069582 0.500000
O O13 0.612536 0.092797 0.493628
O O14 0.669879 0.969515 0.574964
O O15 0.000000 0.500000 0.500000
#
# Coordination Sequence:
#
# PCOD9533227 Si02
#       7
#    16  16  16  16  16  16   8
#     4  12  25  44  68  98 133 175 224 279 329 393
#     4  12  23  44  69  96 133 170 226 276 329 394
#     4  11  22  37  63 103 131 170 215 270 341 389
#     4  12  21  34  58  99 143 169 200 276 342 395
#     4  11  22  39  62 100 140 167 212 274 338 394
#     4  12  21  39  70 100 125 170 226 276 333 384
#     4  12  28  44  66  96 134 180 226 272 328 394
#
# _framework density 19.661712000000001
#
# number of rings (size 3 to 8) (size 9 to 14) (size 15 to 20)
#    0.000    0.308    9.231    1.846    0.000    0.000 
#    0.000    0.769    0.000    5.538    0.000    0.000 
#    0.000    0.000    0.000    0.000    0.000    0.000 
#
# Total GULP energy -290260.130776 kJ/mol
# GULP energy per Si atom -5581.925592 kJ/mol
# Density = 1.961696 g / cm^3
# Si number density = 19.661712 Si / 1000 Ang^3
#
#
#
# Elastic Constant Matrix: (Units=GPa)
#
#
# Indices 1 2 3 4 5 6 
#
# 1 183.5714 24.9933 39.9348 0.0000 0.0000 0.0000
# 2 24.9933 123.2074 27.1448 0.0000 0.0000 0.0000
# 3 39.9348 27.1448 84.5231 0.0000 0.0000 0.0000
# 4 0.0000 0.0000 0.0000 -11.9995 0.0000 0.0000
# 5 0.0000 0.0000 0.0000 0.0000 -564.5189 0.0000
# 6 0.0000 0.0000 0.0000 0.0000 0.0000 31.3956
#
#
#
# Elastic Compliance Matrix: (Units=1/GPa)
#
#
# Indices 1 2 3 4 5 6 
#
# 1 0.006120 -0.000650 -0.002682 0.000000 0.000000 0.000000
# 2 -0.000650 0.008804 -0.002520 0.000000 0.000000 0.000000
# 3 -0.002682 -0.002520 0.013908 0.000000 0.000000 0.000000
# 4 0.000000 0.000000 0.000000 -0.083337 0.000000 0.000000
# 5 0.000000 0.000000 0.000000 0.000000 -0.001771 0.000000
# 6 0.000000 0.000000 0.000000 0.000000 0.000000 0.031852
#
#
# Mechanical properties :
#
#
# Convention : Reuss Voigt Hill
#
# Bulk Modulus (GPa) = 58.39344 63.93864 61.16604
# Shear Modulus (GPa) = -713.11334 -89.07597 -401.09466
#
# Velocity S-wave (km/s) = -19.06512 -6.73815 -14.29828
# Velocity P-wave (km/s) = 21.32779 5.28648 15.53740
#
# Compressibility (1/GPa) = 0.01712521
#
# Stress axis : x y z
#
# Youngs Moduli (GPa) = 163.41009 113.59082 71.90228
#
# Poissons Ratio (x) = 0.07388 0.19287
# Poissons Ratio (y) = 0.10628 0.18119
# Poissons Ratio (z) = 0.43834 0.28625
#
# Static dielectric constant tensor:
#      x y z
#    x 1.676140 0.000000 0.000000 
#    y 0.000000 1.700000 0.000000 
#    z 0.000000 0.000000 1.738890 
# 
# From -- ./inp_files/23188.got.cif
#   From: 2010.05.17/outbox.cif.g08.bks.cpg/sg73_12_cif.got.tgz:23188.got - 2010.06.03 17:35:07.
