data_PCOD9533092
_publ_section_title
;
Structure prediction by ZEFSAII (Michael W. Deem and Ramdas Pophale) SiO2 
 PCOD9533092
Probable space group: I B C A 
;
_chemical_formula_sum "Si O2"
_cell_formula_units_Z 64
_cell_length_a 14.786784
_cell_length_b 9.302423
_cell_length_c 21.521486
_cell_angle_alpha 90.000000
_cell_angle_beta 90.000000
_cell_angle_gamma 90.000000
_cell_volume 2960.343233
_symmetry_space_group_name_H-M "I B C A "
_symmetry_group_IT_number 73
_symmetry_cell_setting 'orthorhombic'
loop_
_space_group_symop_operation_xyz
x,y,z
-x,1/2-y,z
x,-y,1/2-z
1/2-x,y,-z
-x,-y,-z
x,1/2+y,-z
-x,y,1/2+z
1/2+x,-y,z
1/2+x,1/2+y,1/2+z
1/2-x,-y,1/2+z
1/2+x,1/2-y,-z
-x,1/2+y,1/2-z
1/2-x,1/2-y,1/2-z
1/2+x,y,1/2-z
1/2-x,1/2+y,z
x,1/2-y,1/2+z
loop_
_atom_site_type_symbol
_atom_site_label
_atom_site_fract_x
_atom_site_fract_y
_atom_site_fract_z
Si Si1 0.000000 0.750000 0.662096
Si Si2 0.725073 0.339738 0.428746
Si Si3 0.154445 0.065592 0.127697
Si Si4 0.091283 0.500000 0.750000
Si Si5 0.465701 0.497415 0.927825
O O1 0.039876 0.624898 0.709151
O O2 0.950623 0.646319 0.610527
O O3 0.750000 0.355003 0.500000
O O4 0.802890 0.412442 0.388246
O O5 0.714477 0.176223 0.409579
O O6 0.626887 0.411382 0.421072
O O7 0.151938 0.085743 0.200847
O O8 0.051454 0.076086 0.105230
O O9 0.500000 0.500000 0.000000
#
# Coordination Sequence:
#
# PCOD9533092 Si02
#       5
#     8  16  16   8  16
#     4  10  26  46  78 110 142 200 252 300 360 448
#     4  12  26  44  72 108 147 183 243 309 367 437
#     4  11  27  46  69 105 143 194 242 297 365 436
#     4  10  26  50  70 106 152 192 254 292 366 446
#     4  11  25  44  74 104 146 190 240 306 374 429
#
# _framework density 21.619115000000001
#
# number of rings (size 3 to 8) (size 9 to 14) (size 15 to 20)
#    0.000    1.000    2.500    1.500   17.500    1.000 
#    0.000    0.000    0.000    0.000    0.000    0.000 
#    0.000    0.000    0.000    0.000    0.000    0.000 
#
# Total GULP energy -178358.016168 kJ/mol
# GULP energy per Si atom -5573.688005 kJ/mol
# Density = 2.156991 g / cm^3
# Si number density = 21.619115 Si / 1000 Ang^3
#
#
#
# Elastic Constant Matrix: (Units=GPa)
#
#
# Indices 1 2 3 4 5 6 
#
# 1 87.6381 21.4554 20.5810 0.0000 0.0000 0.0000
# 2 21.4554 85.8886 -2.2439 0.0000 0.0000 0.0000
# 3 20.5810 -2.2439 115.6582 0.0000 0.0000 0.0000
# 4 0.0000 0.0000 0.0000 43.7979 0.0000 0.0000
# 5 0.0000 0.0000 0.0000 0.0000 111.0905 0.0000
# 6 0.0000 0.0000 0.0000 0.0000 0.0000 24.2868
#
#
#
# Elastic Compliance Matrix: (Units=1/GPa)
#
#
# Indices 1 2 3 4 5 6 
#
# 1 0.012753 -0.003247 -0.002332 0.000000 0.000000 0.000000
# 2 -0.003247 0.012475 0.000820 0.000000 0.000000 0.000000
# 3 -0.002332 0.000820 0.009077 0.000000 0.000000 0.000000
# 4 0.000000 0.000000 0.000000 0.022832 0.000000 0.000000
# 5 0.000000 0.000000 0.000000 0.000000 0.009002 0.000000
# 6 0.000000 0.000000 0.000000 0.000000 0.000000 0.041175
#
#
# Mechanical properties :
#
#
# Convention : Reuss Voigt Hill
#
# Bulk Modulus (GPa) = 40.34363 40.97444 40.65903
# Shear Modulus (GPa) = 39.96954 52.46119 46.21536
#
# Velocity S-wave (km/s) = 4.30444 4.93141 4.62855
# Velocity P-wave (km/s) = 6.58831 7.17071 6.88567
#
# Compressibility (1/GPa) = 0.02478706
#
# Stress axis : x y z
#
# Youngs Moduli (GPa) = 78.41190 80.15740 110.16721
#
# Poissons Ratio (x) = 0.26025 0.25695
# Poissons Ratio (y) = 0.25458 -0.09031
# Poissons Ratio (z) = 0.18289 -0.06571
#
# Static dielectric constant tensor:
#      x y z
#    x 1.785750 0.000000 0.000000 
#    y 0.000000 1.837880 0.000000 
#    z 0.000000 0.000000 1.746350 
# 
# From -- ./inp_files/4673.got.cif
#   From: 2010.05.17/outbox.cif.g08.bks.cpg/sg73_3_cif.got.tgz:4673.got - 2010.06.03 17:35:07.
