data_PCOD9533680
_publ_section_title
;
Structure prediction by ZEFSAII (Michael W. Deem and Ramdas Pophale) SiO2 
 PCOD9533680
Probable space group: I B C A 
;
_chemical_formula_sum "Si O2"
_cell_formula_units_Z 88
_cell_length_a 10.940456
_cell_length_b 12.389120
_cell_length_c 27.099918
_cell_angle_alpha 90.000000
_cell_angle_beta 90.000000
_cell_angle_gamma 90.000000
_cell_volume 3673.193948
_symmetry_space_group_name_H-M "I B C A "
_symmetry_group_IT_number 73
_symmetry_cell_setting 'orthorhombic'
loop_
_space_group_symop_operation_xyz
x,y,z
-x,1/2-y,z
x,-y,1/2-z
1/2-x,y,-z
-x,-y,-z
x,1/2+y,-z
-x,y,1/2+z
1/2+x,-y,z
1/2+x,1/2+y,1/2+z
1/2-x,-y,1/2+z
1/2+x,1/2-y,-z
-x,1/2+y,1/2-z
1/2-x,1/2-y,1/2-z
1/2+x,y,1/2-z
1/2-x,1/2+y,z
x,1/2-y,1/2+z
loop_
_atom_site_type_symbol
_atom_site_label
_atom_site_fract_x
_atom_site_fract_y
_atom_site_fract_z
Si Si1 0.099158 0.116051 0.913299
Si Si2 0.000000 0.750000 0.502630
Si Si3 0.289063 0.735608 0.141572
Si Si4 0.174064 0.107055 0.549867
Si Si5 0.931910 0.979905 0.855650
Si Si6 0.189253 0.936149 0.801306
O O1 0.094305 0.197359 0.958906
O O2 0.159227 0.176383 0.866791
O O3 0.177761 0.014285 0.930711
O O4 0.968852 0.062155 0.899634
O O5 0.043941 0.651648 0.469094
O O6 0.297060 0.818238 0.096234
O O7 0.389159 0.642163 0.134011
O O8 0.306203 0.805567 0.191180
O O9 0.250000 0.116368 0.500000
O O10 0.061585 0.969296 0.827441
O O11 0.817351 0.027797 0.826144
O O12 0.187675 0.000000 0.750000
#
# Coordination Sequence:
#
# PCOD9533680 Si02
#       6
#    16   8  16  16  16  16
#     4  12  26  46  75 112 159 216 273 323 393 474
#     4  12  26  42  68 108 154 214 274 324 384 454
#     4  12  25  51  79 113 162 215 259 333 413 468
#     4  12  26  43  70 113 160 210 274 325 386 468
#     4  12  25  52  80 115 161 205 261 332 404 486
#     4  12  28  51  82 116 153 197 265 334 413 499
#
# _framework density 23.957353000000001
#
# number of rings (size 3 to 8) (size 9 to 14) (size 15 to 20)
#    0.000    0.000    5.455    3.818    5.091    0.727 
#    0.000    1.818    0.000    0.000    0.000    0.000 
#    0.000    0.000    0.000    0.000    0.000    0.000 
#
# Total GULP energy -245920.509220 kJ/mol
# GULP energy per Si atom -5589.102482 kJ/mol
# Density = 2.390282 g / cm^3
# Si number density = 23.957353 Si / 1000 Ang^3
#
#
#
# Elastic Constant Matrix: (Units=GPa)
#
#
# Indices 1 2 3 4 5 6 
#
# 1 104.4274 41.9425 26.6524 0.0000 0.0000 0.0000
# 2 41.9425 149.2694 59.0568 0.0000 0.0000 0.0000
# 3 26.6524 59.0568 87.4090 0.0000 0.0000 0.0000
# 4 0.0000 0.0000 0.0000 45.1826 0.0000 0.0000
# 5 0.0000 0.0000 0.0000 0.0000 124.6433 0.0000
# 6 0.0000 0.0000 0.0000 0.0000 0.0000 45.1586
#
#
#
# Elastic Compliance Matrix: (Units=1/GPa)
#
#
# Indices 1 2 3 4 5 6 
#
# 1 0.010981 -0.002403 -0.001725 0.000000 0.000000 0.000000
# 2 -0.002403 0.009669 -0.005800 0.000000 0.000000 0.000000
# 3 -0.001725 -0.005800 0.015885 0.000000 0.000000 0.000000
# 4 0.000000 0.000000 0.000000 0.022132 0.000000 0.000000
# 5 0.000000 0.000000 0.000000 0.000000 0.008023 0.000000
# 6 0.000000 0.000000 0.000000 0.000000 0.000000 0.022144
#
#
# Mechanical properties :
#
#
# Convention : Reuss Voigt Hill
#
# Bulk Modulus (GPa) = 59.95307 66.26769 63.11038
# Shear Modulus (GPa) = 43.76305 57.22719 50.49512
#
# Velocity S-wave (km/s) = 4.27864 4.89275 4.59596
# Velocity P-wave (km/s) = 7.03479 7.72265 7.38673
#
# Compressibility (1/GPa) = 0.01667971
#
# Stress axis : x y z
#
# Youngs Moduli (GPa) = 91.06252 103.41955 62.95181
#
# Poissons Ratio (x) = 0.24855 0.10857
# Poissons Ratio (y) = 0.21885 0.36513
# Poissons Ratio (z) = 0.15705 0.59985
#
# Static dielectric constant tensor:
#      x y z
#    x 1.971450 0.000000 0.000000 
#    y 0.000000 1.936760 0.000000 
#    z 0.000000 0.000000 1.925360 
# 
# From -- ./inp_files/33871.got.cif
#   From: 2010.05.17/outbox.cif.g08.bks.cpg/sg73_17_cif.got.tgz:33871.got - 2010.06.03 17:35:07.
