data_PCOD9533468
_publ_section_title
;
Structure prediction by ZEFSAII (Michael W. Deem and Ramdas Pophale) SiO2 
 PCOD9533468
Probable space group: I B C A 
;
_chemical_formula_sum "Si O2"
_cell_formula_units_Z 64
_cell_length_a 12.175004
_cell_length_b 10.690688
_cell_length_c 21.781783
_cell_angle_alpha 90.000000
_cell_angle_beta 90.000000
_cell_angle_gamma 90.000000
_cell_volume 2835.098778
_symmetry_space_group_name_H-M "I B C A "
_symmetry_group_IT_number 73
_symmetry_cell_setting 'orthorhombic'
loop_
_space_group_symop_operation_xyz
x,y,z
-x,1/2-y,z
x,-y,1/2-z
1/2-x,y,-z
-x,-y,-z
x,1/2+y,-z
-x,y,1/2+z
1/2+x,-y,z
1/2+x,1/2+y,1/2+z
1/2-x,-y,1/2+z
1/2+x,1/2-y,-z
-x,1/2+y,1/2-z
1/2-x,1/2-y,1/2-z
1/2+x,y,1/2-z
1/2-x,1/2+y,z
x,1/2-y,1/2+z
loop_
_atom_site_type_symbol
_atom_site_label
_atom_site_fract_x
_atom_site_fract_y
_atom_site_fract_z
Si Si1 0.977507 0.911256 0.092700
Si Si2 0.864716 0.876928 0.477080
Si Si3 0.748820 0.285882 0.883364
Si Si4 0.668786 0.959876 0.320561
O O1 0.874050 0.821221 0.100674
O O2 0.048450 0.924000 0.154136
O O3 0.925625 0.043336 0.074080
O O4 0.055135 0.876940 0.035023
O O5 0.750000 0.938072 0.500000
O O6 0.822587 0.752448 0.442955
O O7 0.757697 0.161550 0.840007
O O8 0.701991 0.412870 0.855388
O O9 0.672769 0.000000 0.250000
#
# Coordination Sequence:
#
# PCOD9533468 Si02
#       4
#    16  16  16  16
#     4  11  25  49  75 115 150 196 248 309 386 457
#     4  11  24  46  77 111 152 189 239 314 383 456
#     4  12  25  52  74 113 149 200 254 316 382 449
#     4  12  28  51  75 106 152 205 260 311 373 449
#
# _framework density 22.574169000000001
#
# number of rings (size 3 to 8) (size 9 to 14) (size 15 to 20)
#    0.000    0.500    5.000    1.500    0.000    9.000 
#    9.000    0.000    0.000    0.000    0.000    0.000 
#    0.000    0.000    0.000    0.000    0.000    0.000 
#
# Total GULP energy -178907.276852 kJ/mol
# GULP energy per Si atom -5590.852402 kJ/mol
# Density = 2.252279 g / cm^3
# Si number density = 22.574169 Si / 1000 Ang^3
#
#
#
# Elastic Constant Matrix: (Units=GPa)
#
#
# Indices 1 2 3 4 5 6 
#
# 1 116.5306 48.0034 36.4106 0.0000 0.0000 0.0000
# 2 48.0034 138.1919 38.8179 0.0000 0.0000 0.0000
# 3 36.4106 38.8179 92.6522 0.0000 0.0000 0.0000
# 4 0.0000 0.0000 0.0000 25.1820 0.0000 0.0000
# 5 0.0000 0.0000 0.0000 0.0000 21.4992 0.0000
# 6 0.0000 0.0000 0.0000 0.0000 0.0000 47.2714
#
#
#
# Elastic Compliance Matrix: (Units=1/GPa)
#
#
# Indices 1 2 3 4 5 6 
#
# 1 0.010704 -0.002875 -0.003002 0.000000 0.000000 0.000000
# 2 -0.002875 0.008974 -0.002630 0.000000 0.000000 0.000000
# 3 -0.003002 -0.002630 0.013075 0.000000 0.000000 0.000000
# 4 0.000000 0.000000 0.000000 0.039711 0.000000 0.000000
# 5 0.000000 0.000000 0.000000 0.000000 0.046513 0.000000
# 6 0.000000 0.000000 0.000000 0.000000 0.000000 0.021154
#
#
# Mechanical properties :
#
#
# Convention : Reuss Voigt Hill
#
# Bulk Modulus (GPa) = 63.53787 65.98206 64.75996
# Shear Modulus (GPa) = 30.79006 33.73338 32.26172
#
# Velocity S-wave (km/s) = 3.69718 3.86986 3.78450
# Velocity P-wave (km/s) = 6.81417 7.01856 6.91712
#
# Compressibility (1/GPa) = 0.01573865
#
# Stress axis : x y z
#
# Youngs Moduli (GPa) = 93.42594 111.43700 76.48453
#
# Poissons Ratio (x) = 0.32037 0.22960
# Poissons Ratio (y) = 0.26859 0.20114
# Poissons Ratio (z) = 0.28045 0.29306
#
# Static dielectric constant tensor:
#      x y z
#    x 1.845060 0.000000 0.000000 
#    y 0.000000 1.927150 0.000000 
#    z 0.000000 0.000000 1.814250 
# 
# From -- ./inp_files/25206.got.cif
#   From: 2010.05.17/outbox.cif.g08.bks.cpg/sg73_13_cif.got.tgz:25206.got - 2010.06.03 17:35:07.
