data_PCOD9533074
_publ_section_title
;
Structure prediction by ZEFSAII (Michael W. Deem and Ramdas Pophale) SiO2 
 PCOD9533074
Probable space group: I B C A 
;
_chemical_formula_sum "Si O2"
_cell_formula_units_Z 64
_cell_length_a 14.191769
_cell_length_b 7.767044
_cell_length_c 20.889350
_cell_angle_alpha 90.000000
_cell_angle_beta 90.000000
_cell_angle_gamma 90.000000
_cell_volume 2302.593241
_symmetry_space_group_name_H-M "I B C A "
_symmetry_group_IT_number 73
_symmetry_cell_setting 'orthorhombic'
loop_
_space_group_symop_operation_xyz
x,y,z
-x,1/2-y,z
x,-y,1/2-z
1/2-x,y,-z
-x,-y,-z
x,1/2+y,-z
-x,y,1/2+z
1/2+x,-y,z
1/2+x,1/2+y,1/2+z
1/2-x,-y,1/2+z
1/2+x,1/2-y,-z
-x,1/2+y,1/2-z
1/2-x,1/2-y,1/2-z
1/2+x,y,1/2-z
1/2-x,1/2+y,z
x,1/2-y,1/2+z
loop_
_atom_site_type_symbol
_atom_site_label
_atom_site_fract_x
_atom_site_fract_y
_atom_site_fract_z
Si Si1 0.734214 0.319970 0.427245
Si Si2 0.639650 0.203489 0.259318
Si Si3 0.566580 0.884671 0.102251
Si Si4 0.895448 0.614751 0.633300
O O1 0.750000 0.368140 0.500000
O O2 0.667847 0.146477 0.429558
O O3 0.676138 0.459329 0.385519
O O4 0.833900 0.272257 0.395404
O O5 0.750000 0.250000 0.250000
O O6 0.590785 0.200415 0.328415
O O7 0.594228 0.332167 0.207544
O O8 0.635924 0.000000 0.250000
O O9 0.500000 0.750000 0.064815
O O10 0.497739 0.049486 0.109347
#
# Coordination Sequence:
#
# PCOD9533074 Si02
#       4
#    16  16  16  16
#     4  11  24  48  78 112 158 222 279 336 398 475
#     4  12  26  45  75 110 157 211 263 335 423 493
#     4  10  26  44  74 115 160 208 266 334 413 491
#     4  11  25  48  75 115 165 211 277 338 414 492
#
# _framework density 27.794750000000001
#
# number of rings (size 3 to 8) (size 9 to 14) (size 15 to 20)
#    0.000    1.000    2.500    2.250    7.000    1.000 
#    0.000    2.500    0.000    0.000    0.000    0.000 
#    0.000    0.000    0.000    0.000    0.000    0.000 
#
# Total GULP energy -178683.911283 kJ/mol
# GULP energy per Si atom -5583.872228 kJ/mol
# Density = 2.773149 g / cm^3
# Si number density = 27.794750 Si / 1000 Ang^3
#
#
#
# Elastic Constant Matrix: (Units=GPa)
#
#
# Indices 1 2 3 4 5 6 
#
# 1 250.8238 68.9530 34.9254 0.0000 0.0000 0.0000
# 2 68.9530 144.0468 66.4562 0.0000 0.0000 0.0000
# 3 34.9254 66.4562 124.5076 0.0000 0.0000 0.0000
# 4 0.0000 0.0000 0.0000 30.4230 0.0000 0.0000
# 5 0.0000 0.0000 0.0000 0.0000 -479.9075 0.0000
# 6 0.0000 0.0000 0.0000 0.0000 0.0000 66.8924
#
#
#
# Elastic Compliance Matrix: (Units=1/GPa)
#
#
# Indices 1 2 3 4 5 6 
#
# 1 0.004593 -0.002128 -0.000152 0.000000 0.000000 0.000000
# 2 -0.002128 0.010196 -0.004845 0.000000 0.000000 0.000000
# 3 -0.000152 -0.004845 0.010661 0.000000 0.000000 0.000000
# 4 0.000000 0.000000 0.000000 0.032870 0.000000 0.000000
# 5 0.000000 0.000000 0.000000 0.000000 -0.002084 0.000000
# 6 0.000000 0.000000 0.000000 0.000000 0.000000 0.014949
#
#
# Mechanical properties :
#
#
# Convention : Reuss Voigt Hill
#
# Bulk Modulus (GPa) = 89.30185 95.56082 92.43134
# Shear Modulus (GPa) = 56.07230 -53.24886 1.41172
#
# Velocity S-wave (km/s) = 4.49639 -4.38172 0.71345
# Velocity P-wave (km/s) = 7.69126 2.97594 5.83145
#
# Compressibility (1/GPa) = 0.01119798
#
# Stress axis : x y z
#
# Youngs Moduli (GPa) = 217.71375 98.07371 93.80342
#
# Poissons Ratio (x) = 0.20874 0.01430
# Poissons Ratio (y) = 0.46338 0.45451
# Poissons Ratio (z) = 0.03318 0.47520
#
# Static dielectric constant tensor:
#      x y z
#    x 2.217430 0.000000 0.000000 
#    y 0.000000 2.079150 0.000000 
#    z 0.000000 0.000000 2.265470 
# 
# From -- ./inp_files/26318.got.cif
#   From: 2010.05.17/outbox.cif.g08.bks.cpg/sg73_14_cif.got.tgz:26318.got - 2010.06.03 17:35:07.
