data_PCOD9533701
_publ_section_title
;
Structure prediction by ZEFSAII (Michael W. Deem and Ramdas Pophale) SiO2 
 PCOD9533701
Probable space group: I B C A 
;
_chemical_formula_sum "Si O2"
_cell_formula_units_Z 64
_cell_length_a 10.660666
_cell_length_b 16.927574
_cell_length_c 13.679527
_cell_angle_alpha 90.000000
_cell_angle_beta 90.000000
_cell_angle_gamma 90.000000
_cell_volume 2468.596671
_symmetry_space_group_name_H-M "I B C A "
_symmetry_group_IT_number 73
_symmetry_cell_setting 'orthorhombic'
loop_
_space_group_symop_operation_xyz
x,y,z
-x,1/2-y,z
x,-y,1/2-z
1/2-x,y,-z
-x,-y,-z
x,1/2+y,-z
-x,y,1/2+z
1/2+x,-y,z
1/2+x,1/2+y,1/2+z
1/2-x,-y,1/2+z
1/2+x,1/2-y,-z
-x,1/2+y,1/2-z
1/2-x,1/2-y,1/2-z
1/2+x,y,1/2-z
1/2-x,1/2+y,z
x,1/2-y,1/2+z
loop_
_atom_site_type_symbol
_atom_site_label
_atom_site_fract_x
_atom_site_fract_y
_atom_site_fract_z
Si Si1 0.727411 0.465033 0.884743
Si Si2 0.451019 0.581523 0.636474
Si Si3 0.652453 0.307992 0.201096
Si Si4 0.602204 0.699192 0.984875
O O1 0.579973 0.467748 0.856845
O O2 0.822014 0.533063 0.848395
O O3 0.776484 0.381330 0.846922
O O4 0.750000 0.464773 0.000000
O O5 0.441036 0.650878 0.719545
O O6 0.444901 0.614007 0.523801
O O7 0.750000 0.250000 0.250000
O O8 0.608802 0.252109 0.112916
O O9 0.500000 0.750000 0.045363
O O10 0.750000 0.692509 0.000000
#
# Coordination Sequence:
#
# PCOD9533701 Si02
#       4
#    16  16  16  16
#     4  12  29  55  80 127 168 228 280 347 432 511
#     4  12  29  53  87 120 173 222 282 350 428 510
#     4  12  28  47  84 122 167 211 282 351 422 505
#     4  12  26  49  82 122 163 215 276 347 417 495
#
# _framework density 25.925661999999999
#
# number of rings (size 3 to 8) (size 9 to 14) (size 15 to 20)
#    0.000    0.000    2.500    6.000    3.500    6.000 
#    0.000    0.000    0.000    0.000    0.000    0.000 
#    0.000    0.000    0.000    0.000    0.000    0.000 
#
# Total GULP energy -178298.829740 kJ/mol
# GULP energy per Si atom -5571.838429 kJ/mol
# Density = 2.586665 g / cm^3
# Si number density = 25.925662 Si / 1000 Ang^3
#
#
#
# Elastic Constant Matrix: (Units=GPa)
#
#
# Indices 1 2 3 4 5 6 
#
# 1 177.2742 43.2847 16.5985 0.0000 0.0000 0.0000
# 2 43.2847 152.7786 32.0170 0.0000 0.0000 0.0000
# 3 16.5985 32.0170 193.9349 0.0001 0.0000 0.0000
# 4 0.0000 0.0000 0.0001 73.8701 0.0000 0.0000
# 5 0.0000 0.0000 0.0000 0.0000 -12.8444 0.0000
# 6 0.0000 0.0000 0.0000 0.0000 0.0000 62.2067
#
#
#
# Elastic Compliance Matrix: (Units=1/GPa)
#
#
# Indices 1 2 3 4 5 6 
#
# 1 0.006071 -0.001669 -0.000244 0.000000 0.000000 0.000000
# 2 -0.001669 0.007239 -0.001052 0.000000 0.000000 0.000000
# 3 -0.000244 -0.001052 0.005351 0.000000 0.000000 0.000000
# 4 0.000000 0.000000 0.000000 0.013537 0.000000 0.000000
# 5 0.000000 0.000000 0.000000 0.000000 -0.077855 0.000000
# 6 0.000000 0.000000 0.000000 0.000000 0.000000 0.016075
#
#
# Mechanical properties :
#
#
# Convention : Reuss Voigt Hill
#
# Bulk Modulus (GPa) = 78.55132 78.64314 78.59723
# Shear Modulus (GPa) = -257.63915 53.45232 -102.09342
#
# Velocity S-wave (km/s) = -9.97957 4.54558 -6.28210
# Velocity P-wave (km/s) = 10.12051 7.61247 4.71567
#
# Compressibility (1/GPa) = 0.01273053
#
# Stress axis : x y z
#
# Youngs Moduli (GPa) = 164.70826 138.14502 186.88188
#
# Poissons Ratio (x) = 0.23056 0.04562
# Poissons Ratio (y) = 0.27489 0.19664
# Poissons Ratio (z) = 0.04021 0.14536
#
# Static dielectric constant tensor:
#      x y z
#    x 0.960930 0.000000 0.000000 
#    y 0.000000 2.237980 0.000000 
#    z 0.000000 0.000000 2.147920 
# 
# From -- ./inp_files/15845.got.cif
#   From: 2010.05.17/outbox.cif.g08.bks.cpg/sg73_8_cif.got.tgz:15845.got - 2010.06.03 17:35:07.
