data_PCOD9533914
_publ_section_title
;
Structure prediction by ZEFSAII (Michael W. Deem and Ramdas Pophale) SiO2 
 PCOD9533914
Probable space group: I M M A
;
_chemical_formula_sum "Si O2"
_cell_formula_units_Z 48
_cell_length_a 16.501842
_cell_length_b 5.453504
_cell_length_c 25.694577
_cell_angle_alpha 90.000000
_cell_angle_beta 90.000000
_cell_angle_gamma 90.000000
_cell_volume 2312.328506
_symmetry_space_group_name_H-M "I M M A"
_symmetry_group_IT_number 74
_symmetry_cell_setting 'orthorhombic'
loop_
_space_group_symop_operation_xyz
x,y,z
-x,1/2-y,z
x,-y,-z
-x,1/2+y,-z
-x,-y,-z
x,1/2+y,-z
-x,y,z
x,1/2-y,z
1/2+x,1/2+y,1/2+z
1/2-x,-y,1/2+z
1/2+x,1/2-y,1/2-z
1/2-x,y,1/2-z
1/2-x,1/2-y,1/2-z
1/2+x,y,1/2-z
1/2-x,1/2+y,1/2+z
1/2+x,-y,1/2+z
loop_
_atom_site_type_symbol
_atom_site_label
_atom_site_fract_x
_atom_site_fract_y
_atom_site_fract_z
Si Si1 0.315005 0.750000 0.609384
Si Si2 0.685263 0.250000 0.202542
Si Si3 0.904420 0.250000 0.860279
Si Si4 0.096258 0.250000 0.560492
Si Si5 0.152361 0.750000 0.258804
Si Si6 0.663794 0.750000 0.942484
O O1 0.243815 0.750000 0.652927
O O2 0.365010 0.500063 0.617159
O O3 0.260963 0.750000 0.557245
O O4 0.750000 0.250000 0.250000
O O5 0.635038 0.499356 0.210482
O O6 0.887254 0.250000 0.798144
O O7 0.000000 0.250000 0.869749
O O8 0.126477 0.250000 0.500394
O O9 0.131474 0.500558 0.583186
O O10 0.000000 0.250000 0.561556
O O11 0.250000 0.750000 0.250000
#
# Coordination Sequence:
#
# PCOD9533914 Si02
#       6
#     8   8   8   8   8   8
#     4  12  21  35  54  86 106 144 195 236 265 336
#     4  10  16  30  54  74  97 137 182 222 272 310
#     4  12  23  35  53  78 109 145 189 246 282 316
#     4  10  19  38  62  89 118 147 175 219 278 336
#     4  10  16  32  53  73  94 140 185 223 276 331
#     4  10  20  32  57  90 112 147 183 220 261 335
#
# _framework density 20.758296999999999
#
# number of rings (size 3 to 8) (size 9 to 14) (size 15 to 20)
#    0.000    1.333    6.667    4.000    0.000    0.000 
#    0.000    0.000    0.000    8.000    0.000   46.667 
#    0.000    0.000    0.000    0.000    0.000    0.000 
#
# Total GULP energy -133911.084598 kJ/mol
# GULP energy per Si atom -5579.628525 kJ/mol
# Density = 2.071105 g / cm^3
# Si number density = 20.758297 Si / 1000 Ang^3
#
#
#
# Elastic Constant Matrix: (Units=GPa)
#
#
# Indices 1 2 3 4 5 6 
#
# 1 142.2713 89.1301 26.4469 0.0000 0.0000 0.0000
# 2 89.1301 275.6920 13.4253 0.0000 0.0000 0.0000
# 3 26.4469 13.4253 22.6499 0.0000 0.0000 0.0000
# 4 0.0000 0.0000 0.0000 -6.5700 0.0000 0.0000
# 5 0.0000 0.0000 0.0000 0.0000 29.0715 0.0000
# 6 0.0000 0.0000 0.0000 0.0000 0.0000 28.4055
#
#
#
# Elastic Compliance Matrix: (Units=1/GPa)
#
#
# Indices 1 2 3 4 5 6 
#
# 1 0.010960 -0.003007 -0.011015 0.000000 0.000000 0.000000
# 2 -0.003007 0.004560 0.000808 0.000000 0.000000 0.000000
# 3 -0.011015 0.000808 0.056533 0.000000 0.000000 0.000000
# 4 0.000000 0.000000 0.000000 -0.152206 0.000000 0.000000
# 5 0.000000 0.000000 0.000000 0.000000 0.034398 0.000000
# 6 0.000000 0.000000 0.000000 0.000000 0.000000 0.035204
#
#
# Mechanical properties :
#
#
# Convention : Reuss Voigt Hill
#
# Bulk Modulus (GPa) = 21.91768 77.62420 49.77094
# Shear Modulus (GPa) = 160.84107 30.95544 95.89826
#
# Velocity S-wave (km/s) = 8.81198 3.86584 6.80425
# Velocity P-wave (km/s) = 10.68251 7.57639 9.26061
#
# Compressibility (1/GPa) = 0.04562526
#
# Stress axis : x y z
#
# Youngs Moduli (GPa) = 91.23828 219.29659 17.68874
#
# Poissons Ratio (x) = 0.65943 0.19485
# Poissons Ratio (y) = 0.27436 -0.01430
# Poissons Ratio (z) = 1.00502 -0.17725
#
# Static dielectric constant tensor:
#      x y z
#    x 1.646250 0.000000 0.000000 
#    y 0.000000 1.907410 0.000000 
#    z 0.000000 0.000000 1.674660 
# 
# From -- ./inp_files/66550.got.cif
#   From: 2010.05.17/outbox.cif.g08.bks.cpg/sg74_34_cif.got.tgz:66550.got - 2010.06.03 17:57:02.
