data_PCOD9533286
_publ_section_title
;
Structure prediction by ZEFSAII (Michael W. Deem and Ramdas Pophale) SiO2 
 PCOD9533286
Probable space group: I B C A 
;
_chemical_formula_sum "Si O2"
_cell_formula_units_Z 48
_cell_length_a 10.763333
_cell_length_b 8.025299
_cell_length_c 21.713596
_cell_angle_alpha 90.000000
_cell_angle_beta 90.000000
_cell_angle_gamma 90.000000
_cell_volume 1875.597961
_symmetry_space_group_name_H-M "I B C A "
_symmetry_group_IT_number 73
_symmetry_cell_setting 'orthorhombic'
loop_
_space_group_symop_operation_xyz
x,y,z
-x,1/2-y,z
x,-y,1/2-z
1/2-x,y,-z
-x,-y,-z
x,1/2+y,-z
-x,y,1/2+z
1/2+x,-y,z
1/2+x,1/2+y,1/2+z
1/2-x,-y,1/2+z
1/2+x,1/2-y,-z
-x,1/2+y,1/2-z
1/2-x,1/2-y,1/2-z
1/2+x,y,1/2-z
1/2-x,1/2+y,z
x,1/2-y,1/2+z
loop_
_atom_site_type_symbol
_atom_site_label
_atom_site_fract_x
_atom_site_fract_y
_atom_site_fract_z
Si Si1 0.500000 0.250000 0.426968
Si Si2 0.664606 0.357592 0.204952
Si Si3 0.750000 0.821456 0.500000
Si Si4 0.867933 0.456987 0.376076
O O1 0.374995 0.253108 0.468014
O O2 0.484293 0.417379 0.385943
O O3 0.601492 0.500000 0.250000
O O4 0.750000 0.250000 0.250000
O O5 0.759244 0.449336 0.159617
O O6 0.609570 0.209128 0.162833
O O7 0.813114 0.911642 0.557558
#
# Coordination Sequence:
#
# PCOD9533286 Si02
#       4
#     8  16   8  16
#     4  12  26  46  78 120 166 226 274 356 434 508
#     4   9  20  42  79 106 157 219 278 344 416 507
#     4  12  26  48  76 118 164 222 284 356 436 510
#     4  11  22  44  75 110 164 216 283 345 426 511
#
# _framework density 25.591837000000002
#
# number of rings (size 3 to 8) (size 9 to 14) (size 15 to 20)
#    0.000    1.333    3.333    2.000    0.000    0.000 
#    0.000    0.000   22.000    2.000    0.000    0.000 
#    0.000    0.000    0.000    0.000    0.000    2.000 
#
# Total GULP energy -133864.240710 kJ/mol
# GULP energy per Si atom -5577.676696 kJ/mol
# Density = 2.553359 g / cm^3
# Si number density = 25.591837 Si / 1000 Ang^3
#
#
#
# Elastic Constant Matrix: (Units=GPa)
#
#
# Indices 1 2 3 4 5 6 
#
# 1 141.0036 91.4662 45.0262 0.0000 0.0000 0.0000
# 2 91.4662 226.2943 107.7356 0.0000 0.0000 0.0000
# 3 45.0262 107.7356 182.6879 0.0000 0.0000 0.0000
# 4 0.0000 0.0000 0.0000 -0.6760 0.0000 0.0000
# 5 0.0000 0.0000 0.0000 0.0000 -54.2042 0.0000
# 6 0.0000 0.0000 0.0000 0.0000 0.0000 22.3290
#
#
#
# Elastic Compliance Matrix: (Units=1/GPa)
#
#
# Indices 1 2 3 4 5 6 
#
# 1 0.009614 -0.003834 -0.000108 0.000000 0.000000 0.000000
# 2 -0.003834 0.007673 -0.003580 0.000000 0.000000 0.000000
# 3 -0.000108 -0.003580 0.007612 0.000000 0.000000 0.000000
# 4 0.000000 0.000000 0.000000 -1.479298 0.000000 0.000000
# 5 0.000000 0.000000 0.000000 0.000000 -0.018449 0.000000
# 6 0.000000 0.000000 0.000000 0.000000 0.000000 0.044785
#
#
# Mechanical properties :
#
#
# Convention : Reuss Voigt Hill
#
# Bulk Modulus (GPa) = 101.48667 115.38242 108.43454
# Shear Modulus (GPa) = -3.54677 13.87362 5.16343
#
# Velocity S-wave (km/s) = -1.17852 2.33085 1.42197
# Velocity P-wave (km/s) = 6.15549 7.24067 6.72002
#
# Compressibility (1/GPa) = 0.00985351
#
# Stress axis : x y z
#
# Youngs Moduli (GPa) = 104.01705 130.32327 131.37539
#
# Poissons Ratio (x) = 0.49969 0.01423
# Poissons Ratio (y) = 0.39883 0.47033
# Poissons Ratio (z) = 0.01127 0.46657
#
# Static dielectric constant tensor:
#      x y z
#    x 1.824120 0.000000 0.000000 
#    y 0.000000 2.124270 0.000000 
#    z 0.000000 0.000000 2.047120 
# 
# From -- ./inp_files/3819.got.cif
#   From: 2010.05.17/outbox.cif.g08.bks.cpg/sg73_2_cif.got.tgz:3819.got - 2010.06.03 17:35:07.
