data_PCOD9533032
_publ_section_title
;
Structure prediction by ZEFSAII (Michael W. Deem and Ramdas Pophale) SiO2 
 PCOD9533032
Probable space group: I B C A 
;
_chemical_formula_sum "Si O2"
_cell_formula_units_Z 96
_cell_length_a 19.798991
_cell_length_b 12.021283
_cell_length_c 17.899939
_cell_angle_alpha 90.000000
_cell_angle_beta 90.000000
_cell_angle_gamma 90.000000
_cell_volume 4260.351485
_symmetry_space_group_name_H-M "I B C A "
_symmetry_group_IT_number 73
_symmetry_cell_setting 'orthorhombic'
loop_
_space_group_symop_operation_xyz
x,y,z
-x,1/2-y,z
x,-y,1/2-z
1/2-x,y,-z
-x,-y,-z
x,1/2+y,-z
-x,y,1/2+z
1/2+x,-y,z
1/2+x,1/2+y,1/2+z
1/2-x,-y,1/2+z
1/2+x,1/2-y,-z
-x,1/2+y,1/2-z
1/2-x,1/2-y,1/2-z
1/2+x,y,1/2-z
1/2-x,1/2+y,z
x,1/2-y,1/2+z
loop_
_atom_site_type_symbol
_atom_site_label
_atom_site_fract_x
_atom_site_fract_y
_atom_site_fract_z
Si Si1 0.141779 0.830217 0.550187
Si Si2 0.669824 0.071563 0.390355
Si Si3 0.250000 0.669164 0.500000
Si Si4 0.076404 0.093236 0.313773
Si Si5 0.812770 0.531187 0.867879
Si Si6 0.500000 0.750000 0.908560
Si Si7 0.671444 0.260501 0.273272
O O1 0.165748 0.894534 0.475813
O O2 0.201882 0.740316 0.555002
O O3 0.068395 0.774187 0.545611
O O4 0.142641 0.923383 0.614342
O O5 0.657260 0.183687 0.345163
O O6 0.616154 0.976444 0.375419
O O7 0.738611 0.021572 0.356388
O O8 0.201262 0.601263 0.444348
O O9 0.122522 0.197791 0.285766
O O10 0.012871 0.146472 0.353711
O O11 0.064500 0.000000 0.250000
O O12 0.836987 0.613330 0.802676
O O13 0.750000 0.250000 0.250000
#
# Coordination Sequence:
#
# PCOD9533032 Si02
#       7
#    16  16   8  16  16   8  16
#     4  12  25  42  70 104 137 186 231 303 362 418
#     4  11  21  42  67 103 135 174 230 294 353 410
#     4  12  20  42  70 104 144 172 226 306 356 412
#     4  10  25  47  67  93 143 191 229 290 348 426
#     4  12  21  37  70 106 140 174 232 291 357 421
#     4  12  30  48  68 100 146 190 242 294 360 444
#     4  11  23  38  69 104 140 180 226 288 359 419
#
# _framework density 22.533352000000001
#
# number of rings (size 3 to 8) (size 9 to 14) (size 15 to 20)
#    0.000    0.667    6.667    1.000    2.333    2.000 
#    0.000    3.333    0.000    0.000    0.000    0.000 
#    0.000    0.000    0.000    0.000    0.000    0.000 
#
# Total GULP energy -268160.049057 kJ/mol
# GULP energy per Si atom -5586.667689 kJ/mol
# Density = 2.248207 g / cm^3
# Si number density = 22.533352 Si / 1000 Ang^3
#
#
#
# Elastic Constant Matrix: (Units=GPa)
#
#
# Indices 1 2 3 4 5 6 
#
# 1 96.1434 34.6335 2.7617 0.0000 0.0000 0.0000
# 2 34.6335 125.8606 19.8438 0.0000 0.0000 0.0000
# 3 2.7617 19.8438 43.1275 0.0000 0.0000 0.0000
# 4 0.0000 0.0000 0.0000 33.9746 0.0000 0.0000
# 5 0.0000 0.0000 0.0000 0.0000 22.0379 0.0000
# 6 0.0000 0.0000 0.0000 0.0000 0.0000 45.7608
#
#
#
# Elastic Compliance Matrix: (Units=1/GPa)
#
#
# Indices 1 2 3 4 5 6 
#
# 1 0.011570 -0.003307 0.000781 0.000000 0.000000 0.000000
# 2 -0.003307 0.009512 -0.004165 0.000000 0.000000 0.000000
# 3 0.000781 -0.004165 0.025053 0.000000 0.000000 0.000000
# 4 0.000000 0.000000 0.000000 0.029434 0.000000 0.000000
# 5 0.000000 0.000000 0.000000 0.000000 0.045376 0.000000
# 6 0.000000 0.000000 0.000000 0.000000 0.000000 0.021853
#
#
# Mechanical properties :
#
#
# Convention : Reuss Voigt Hill
#
# Bulk Modulus (GPa) = 30.53140 42.17883 36.35511
# Shear Modulus (GPa) = 29.92258 34.21415 32.06837
#
# Velocity S-wave (km/s) = 3.64802 3.90086 3.77656
# Velocity P-wave (km/s) = 5.59669 6.24884 5.93173
#
# Compressibility (1/GPa) = 0.03275317
#
# Stress axis : x y z
#
# Youngs Moduli (GPa) = 86.43106 105.13148 39.91472
#
# Poissons Ratio (x) = 0.34765 -0.03116
# Poissons Ratio (y) = 0.28581 0.16624
# Poissons Ratio (z) = -0.06747 0.43786
#
# Static dielectric constant tensor:
#      x y z
#    x 1.810730 0.000000 0.000000 
#    y 0.000000 1.902600 0.000000 
#    z 0.000000 0.000000 1.890010 
# 
# From -- ./inp_files/26924.got.cif
#   From: 2010.05.17/outbox.cif.g08.bks.cpg/sg73_14_cif.got.tgz:26924.got - 2010.06.03 17:35:07.
