data_PCOD9533912
_publ_section_title
;
Structure prediction by ZEFSAII (Michael W. Deem and Ramdas Pophale) SiO2 
 PCOD9533912
Probable space group: I M M A
;
_chemical_formula_sum "Si O2"
_cell_formula_units_Z 88
_cell_length_a 9.452295
_cell_length_b 20.356962
_cell_length_c 25.530074
_cell_angle_alpha 90.000000
_cell_angle_beta 90.000000
_cell_angle_gamma 90.000000
_cell_volume 4912.497098
_symmetry_space_group_name_H-M "I M M A"
_symmetry_group_IT_number 74
_symmetry_cell_setting 'orthorhombic'
loop_
_space_group_symop_operation_xyz
x,y,z
-x,1/2-y,z
x,-y,-z
-x,1/2+y,-z
-x,-y,-z
x,1/2+y,-z
-x,y,z
x,1/2-y,z
1/2+x,1/2+y,1/2+z
1/2-x,-y,1/2+z
1/2+x,1/2-y,1/2-z
1/2-x,y,1/2-z
1/2-x,1/2-y,1/2-z
1/2+x,y,1/2-z
1/2-x,1/2+y,1/2+z
1/2+x,-y,1/2+z
loop_
_atom_site_type_symbol
_atom_site_label
_atom_site_fract_x
_atom_site_fract_y
_atom_site_fract_z
Si Si1 0.670647 0.177441 0.414171
Si Si2 0.830579 0.442907 0.697871
Si Si3 0.752500 0.500000 0.000000
Si Si4 0.339118 0.642663 0.471922
Si Si5 0.330884 0.673212 0.355623
Si Si6 0.339825 0.552574 0.889440
O O1 0.500000 0.170601 0.414734
O O2 0.705356 0.250000 0.393633
O O3 0.722633 0.172501 0.474811
O O4 0.737793 0.115144 0.385787
O O5 0.750000 0.465408 0.750000
O O6 0.759420 0.374307 0.680896
O O7 0.804732 0.494948 0.651205
O O8 0.000000 0.436846 0.705389
O O9 0.836753 0.564257 0.019034
O O10 0.669973 0.476143 0.051518
O O11 0.500000 0.666884 0.469561
O O12 0.278697 0.660879 0.415522
O O13 0.500000 0.656825 0.352813
O O14 0.315831 0.750000 0.343174
O O15 0.500000 0.573993 0.879485
#
# Coordination Sequence:
#
# PCOD9533912 Si02
#       6
#    16  16   8  16  16  16
#     4   9  18  32  52  81 116 151 184 218 261 322
#     4  11  24  42  60  81 107 142 187 234 278 326
#     4  10  16  30  52  80 113 144 179 222 273 328
#     4   9  16  27  48  79 114 148 184 223 265 316
#     4  10  20  35  56  81 110 146 187 231 277 323
#     4  10  21  35  55  82 112 144 179 224 277 330
#
# _framework density 17.913498000000001
#
# number of rings (size 3 to 8) (size 9 to 14) (size 15 to 20)
#    0.000    2.182    1.818    1.636    0.000    5.455 
#    0.000    0.000    0.000    2.727    0.000    0.000 
#    0.000    0.000    0.000    0.000    0.000    0.000 
#
# Total GULP energy -245194.572011 kJ/mol
# GULP energy per Si atom -5572.603909 kJ/mol
# Density = 1.787273 g / cm^3
# Si number density = 17.913498 Si / 1000 Ang^3
#
#
#
# Elastic Constant Matrix: (Units=GPa)
#
#
# Indices 1 2 3 4 5 6 
#
# 1 61.8733 52.1211 36.9369 0.0000 0.0000 0.0000
# 2 52.1211 121.9167 31.1835 0.0000 0.0000 0.0000
# 3 36.9369 31.1835 77.9157 0.0000 0.0000 0.0000
# 4 0.0000 0.0000 0.0000 15.2238 0.0000 0.0000
# 5 0.0000 0.0000 0.0000 0.0000 20.4502 0.0000
# 6 0.0000 0.0000 0.0000 0.0000 0.0000 0.3048
#
#
#
# Elastic Compliance Matrix: (Units=1/GPa)
#
#
# Indices 1 2 3 4 5 6 
#
# 1 0.031622 -0.010789 -0.010673 0.000000 0.000000 0.000000
# 2 -0.010789 0.012819 -0.000016 0.000000 0.000000 0.000000
# 3 -0.010673 -0.000016 0.017900 0.000000 0.000000 0.000000
# 4 0.000000 0.000000 0.000000 0.065687 0.000000 0.000000
# 5 0.000000 0.000000 0.000000 0.000000 0.048899 0.000000
# 6 0.000000 0.000000 0.000000 0.000000 0.000000 3.281064
#
#
# Mechanical properties :
#
#
# Convention : Reuss Voigt Hill
#
# Bulk Modulus (GPa) = 51.58355 55.79873 53.69114
# Shear Modulus (GPa) = 1.42555 16.62668 9.02612
#
# Velocity S-wave (km/s) = 0.89304 3.04989 2.24715
# Velocity P-wave (km/s) = 5.47008 6.60447 6.06386
#
# Compressibility (1/GPa) = 0.01938603
#
# Stress axis : x y z
#
# Youngs Moduli (GPa) = 31.62362 78.01051 55.86518
#
# Poissons Ratio (x) = 0.84165 0.59624
# Poissons Ratio (y) = 0.34119 0.00088
# Poissons Ratio (z) = 0.33751 0.00123
#
# Static dielectric constant tensor:
#      x y z
#    x 1.614660 0.000000 0.000000 
#    y 0.000000 1.617310 0.000000 
#    z 0.000000 0.000000 1.628190 
# 
# From -- ./inp_files/56952.got.cif
#   From: 2010.05.17/outbox.cif.g08.bks.cpg/sg74_29_cif.got.tgz:56952.got - 2010.06.03 17:57:02.
