data_PCOD9533328
_publ_section_title
;
Structure prediction by ZEFSAII (Michael W. Deem and Ramdas Pophale) SiO2 
 PCOD9533328
Probable space group: I B C A 
;
_chemical_formula_sum "Si O2"
_cell_formula_units_Z 56
_cell_length_a 7.551156
_cell_length_b 21.692652
_cell_length_c 17.230524
_cell_angle_alpha 90.000000
_cell_angle_beta 90.000000
_cell_angle_gamma 90.000000
_cell_volume 2822.439080
_symmetry_space_group_name_H-M "I B C A "
_symmetry_group_IT_number 73
_symmetry_cell_setting 'orthorhombic'
loop_
_space_group_symop_operation_xyz
x,y,z
-x,1/2-y,z
x,-y,1/2-z
1/2-x,y,-z
-x,-y,-z
x,1/2+y,-z
-x,y,1/2+z
1/2+x,-y,z
1/2+x,1/2+y,1/2+z
1/2-x,-y,1/2+z
1/2+x,1/2-y,-z
-x,1/2+y,1/2-z
1/2-x,1/2-y,1/2-z
1/2+x,y,1/2-z
1/2-x,1/2+y,z
x,1/2-y,1/2+z
loop_
_atom_site_type_symbol
_atom_site_label
_atom_site_fract_x
_atom_site_fract_y
_atom_site_fract_z
Si Si1 0.787725 0.914512 0.820418
Si Si2 0.581448 0.184118 0.442191
Si Si3 0.614098 0.447095 0.653600
Si Si4 0.250000 0.608516 0.500000
O O1 0.866717 0.857648 0.867982
O O2 0.586676 0.923900 0.847521
O O3 0.794678 0.913027 0.726890
O O4 0.887342 0.979134 0.836674
O O5 0.500000 0.250000 0.419299
O O6 0.750000 0.190692 0.500000
O O7 0.424108 0.149235 0.487019
O O8 0.716305 0.431880 0.575625
#
# Coordination Sequence:
#
# PCOD9533328 Si02
#       4
#    16  16  16   8
#     4  11  23  43  66 101 140 182 225 282 345 408
#     4  12  25  45  68  97 137 184 231 281 333 405
#     4  11  23  41  69 103 140 175 225 289 345 405
#     4  12  24  42  70 100 138 174 232 286 338 406
#
# _framework density 19.840996000000001
#
# number of rings (size 3 to 8) (size 9 to 14) (size 15 to 20)
#    0.000    0.571    4.286    6.857    2.000    2.286 
#    0.000    7.143    0.000    0.000    0.000    0.000 
#    0.000    0.000    0.000    0.000    0.000    0.000 
#
# Total GULP energy -156586.298045 kJ/mol
# GULP energy per Si atom -5592.367787 kJ/mol
# Density = 1.979584 g / cm^3
# Si number density = 19.840996 Si / 1000 Ang^3
#
#
#
# Elastic Constant Matrix: (Units=GPa)
#
#
# Indices 1 2 3 4 5 6 
#
# 1 115.7595 34.9499 52.5391 0.0000 0.0000 0.0000
# 2 34.9499 112.8535 89.2657 0.0000 0.0000 0.0000
# 3 52.5391 89.2657 165.2535 0.0000 0.0000 0.0000
# 4 0.0000 0.0000 0.0000 12.9343 0.0000 0.0000
# 5 0.0000 0.0000 0.0000 0.0000 33.6950 0.0000
# 6 0.0000 0.0000 0.0000 0.0000 0.0000 31.3139
#
#
#
# Elastic Compliance Matrix: (Units=1/GPa)
#
#
# Indices 1 2 3 4 5 6 
#
# 1 0.010164 -0.001033 -0.002673 0.000000 0.000000 0.000000
# 2 -0.001033 0.015577 -0.008086 0.000000 0.000000 0.000000
# 3 -0.002673 -0.008086 0.011269 0.000000 0.000000 0.000000
# 4 0.000000 0.000000 0.000000 0.077314 0.000000 0.000000
# 5 0.000000 0.000000 0.000000 0.000000 0.029678 0.000000
# 6 0.000000 0.000000 0.000000 0.000000 0.000000 0.031935
#
#
# Mechanical properties :
#
#
# Convention : Reuss Voigt Hill
#
# Bulk Modulus (GPa) = 74.48667 83.04177 78.76422
# Shear Modulus (GPa) = 24.51041 30.06278 27.28660
#
# Velocity S-wave (km/s) = 3.51856 3.89676 3.71248
# Velocity P-wave (km/s) = 7.35733 7.88612 7.62631
#
# Compressibility (1/GPa) = 0.01342522
#
# Stress axis : x y z
#
# Youngs Moduli (GPa) = 98.38800 64.19870 88.73971
#
# Poissons Ratio (x) = 0.06632 0.23723
# Poissons Ratio (y) = 0.10164 0.71752
# Poissons Ratio (z) = 0.26303 0.51909
#
# Static dielectric constant tensor:
#      x y z
#    x 1.601630 0.000000 0.000000 
#    y 0.000000 1.673940 0.000000 
#    z 0.000000 0.000000 1.703350 
# 
# From -- ./inp_files/3833.got.cif
#   From: 2010.05.17/outbox.cif.g08.bks.cpg/sg73_2_cif.got.tgz:3833.got - 2010.06.03 17:35:07.
