data_PCOD9533041
_publ_section_title
;
Structure prediction by ZEFSAII (Michael W. Deem and Ramdas Pophale) SiO2 
 PCOD9533041
Probable space group: I B C A 
;
_chemical_formula_sum "Si O2"
_cell_formula_units_Z 48
_cell_length_a 15.539925
_cell_length_b 12.264875
_cell_length_c 11.449592
_cell_angle_alpha 90.000000
_cell_angle_beta 90.000000
_cell_angle_gamma 90.000000
_cell_volume 2182.237708
_symmetry_space_group_name_H-M "I B C A "
_symmetry_group_IT_number 73
_symmetry_cell_setting 'orthorhombic'
loop_
_space_group_symop_operation_xyz
x,y,z
-x,1/2-y,z
x,-y,1/2-z
1/2-x,y,-z
-x,-y,-z
x,1/2+y,-z
-x,y,1/2+z
1/2+x,-y,z
1/2+x,1/2+y,1/2+z
1/2-x,-y,1/2+z
1/2+x,1/2-y,-z
-x,1/2+y,1/2-z
1/2-x,1/2-y,1/2-z
1/2+x,y,1/2-z
1/2-x,1/2+y,z
x,1/2-y,1/2+z
loop_
_atom_site_type_symbol
_atom_site_label
_atom_site_fract_x
_atom_site_fract_y
_atom_site_fract_z
Si Si1 0.410085 0.473359 0.441436
Si Si2 0.170439 0.395191 0.325366
Si Si3 0.363651 0.657051 0.264767
O O1 0.500000 0.500000 0.500000
O O2 0.347755 0.425944 0.540994
O O3 0.373173 0.581562 0.378818
O O4 0.424310 0.387703 0.336964
O O5 0.143376 0.500000 0.250000
O O6 0.269011 0.368047 0.289831
O O7 0.123221 0.282614 0.294384
#
# Coordination Sequence:
#
# PCOD9533041 Si02
#       3
#    16  16  16
#     4  11  25  47  69 104 147 181 228 294 355 420
#     4  11  24  45  76 101 138 183 237 292 344 417
#     4  10  25  48  71 106 136 185 245 283 349 419
#
# _framework density 21.99577
#
# number of rings (size 3 to 8) (size 9 to 14) (size 15 to 20)
#    0.000    1.333    3.333    1.000    9.333    1.333 
#    0.000    0.000    0.000    0.000    0.000    0.000 
#    0.000    0.000    0.000    0.000    0.000    0.000 
#
# Total GULP energy -134228.211616 kJ/mol
# GULP energy per Si atom -5592.842151 kJ/mol
# Density = 2.194571 g / cm^3
# Si number density = 21.995770 Si / 1000 Ang^3
#
#
#
# Elastic Constant Matrix: (Units=GPa)
#
#
# Indices 1 2 3 4 5 6 
#
# 1 84.3058 30.9618 48.3549 0.0000 0.0000 0.0000
# 2 30.9618 223.4255 112.8267 0.0000 0.0000 0.0000
# 3 48.3549 112.8267 167.7930 0.0000 0.0000 0.0000
# 4 0.0000 0.0000 0.0000 11.8433 0.0000 0.0000
# 5 0.0000 0.0000 0.0000 0.0000 37.7435 0.0000
# 6 0.0000 0.0000 0.0000 0.0000 0.0000 21.7210
#
#
#
# Elastic Compliance Matrix: (Units=1/GPa)
#
#
# Indices 1 2 3 4 5 6 
#
# 1 0.014214 0.000150 -0.004197 0.000000 0.000000 0.000000
# 2 0.000150 0.006779 -0.004601 0.000000 0.000000 0.000000
# 3 -0.004197 -0.004601 0.010263 0.000000 0.000000 0.000000
# 4 0.000000 0.000000 0.000000 0.084436 0.000000 0.000000
# 5 0.000000 0.000000 0.000000 0.000000 0.026495 0.000000
# 6 0.000000 0.000000 0.000000 0.000000 0.000000 0.046038
#
#
# Mechanical properties :
#
#
# Convention : Reuss Voigt Hill
#
# Bulk Modulus (GPa) = 71.63949 95.53457 83.58703
# Shear Modulus (GPa) = 23.78990 33.15364 28.47177
#
# Velocity S-wave (km/s) = 3.29229 3.88657 3.60171
# Velocity P-wave (km/s) = 6.86240 7.97923 7.44179
#
# Compressibility (1/GPa) = 0.01395878
#
# Stress axis : x y z
#
# Youngs Moduli (GPa) = 70.35447 147.52469 97.43743
#
# Poissons Ratio (x) = -0.02207 0.40892
# Poissons Ratio (y) = -0.01052 0.44832
# Poissons Ratio (z) = 0.29526 0.67878
#
# Static dielectric constant tensor:
#      x y z
#    x 1.873430 0.000000 0.000000 
#    y 0.000000 1.791530 0.000000 
#    z 0.000000 0.000000 1.770700 
# 
# From -- ./inp_files/11396.got.cif
#   From: 2010.05.17/outbox.cif.g08.bks.cpg/sg73_6_cif.got.tgz:11396.got - 2010.06.03 17:35:07.
