data_PCOD9533951
_publ_section_title
;
Structure prediction by ZEFSAII (Michael W. Deem and Ramdas Pophale) SiO2 
 PCOD9533951
Probable space group: I M M A
;
_chemical_formula_sum "Si O2"
_cell_formula_units_Z 112
_cell_length_a 18.480439
_cell_length_b 17.404623
_cell_length_c 18.369048
_cell_angle_alpha 90.000000
_cell_angle_beta 90.000000
_cell_angle_gamma 90.000000
_cell_volume 5908.313797
_symmetry_space_group_name_H-M "I M M A"
_symmetry_group_IT_number 74
_symmetry_cell_setting 'orthorhombic'
loop_
_space_group_symop_operation_xyz
x,y,z
-x,1/2-y,z
x,-y,-z
-x,1/2+y,-z
-x,-y,-z
x,1/2+y,-z
-x,y,z
x,1/2-y,z
1/2+x,1/2+y,1/2+z
1/2-x,-y,1/2+z
1/2+x,1/2-y,1/2-z
1/2-x,y,1/2-z
1/2-x,1/2-y,1/2-z
1/2+x,y,1/2-z
1/2-x,1/2+y,1/2+z
1/2+x,-y,1/2+z
loop_
_atom_site_type_symbol
_atom_site_label
_atom_site_fract_x
_atom_site_fract_y
_atom_site_fract_z
Si Si1 0.186067 0.532779 0.076253
Si Si2 0.083869 0.602385 0.867556
Si Si3 0.304400 0.423512 0.807816
Si Si4 0.915198 0.091683 0.416706
Si Si5 0.418251 0.337307 0.524475
Si Si6 0.083532 0.595568 0.418753
Si Si7 0.167365 0.904938 0.728264
O O1 0.129976 0.471174 0.107603
O O2 0.251827 0.545039 0.129500
O O3 0.141393 0.609573 0.060647
O O4 0.214161 0.500000 0.000000
O O5 0.116917 0.628720 0.791375
O O6 0.000000 0.583089 0.857970
O O7 0.090010 0.658268 0.936876
O O8 0.250000 0.384648 0.750000
O O9 0.365953 0.378511 0.851953
O O10 0.336722 0.500927 0.770681
O O11 0.894349 0.117581 0.498623
O O12 0.862313 0.117554 0.351555
O O13 0.000000 0.113033 0.404022
O O14 0.914029 0.998130 0.416837
O O15 0.500000 0.366406 0.539791
O O16 0.412763 0.250000 0.548824
O O17 0.000000 0.618237 0.408914
O O18 0.250000 0.886166 0.750000
#
# Coordination Sequence:
#
# PCOD9533951 Si02
#       7
#    16  16  16  16  16  16  16
#     4  10  19  30  49  74 100 130 159 205 255 306
#     4  10  18  30  48  73 100 129 163 203 253 305
#     4  10  18  28  39  66 100 130 157 196 248 307
#     4   8  14  23  35  52  78 117 161 192 222 274
#     4   9  19  35  53  72  97 131 173 213 250 301
#     4   8  15  25  38  54  82 125 163 193 231 285
#     4  10  17  25  38  64  97 131 153 192 244 302
#
# _framework density 18.956339
#
# number of rings (size 3 to 8) (size 9 to 14) (size 15 to 20)
#    0.000    2.714    2.857    1.714    4.000    2.286 
#    0.000    0.000    0.000    0.857    0.000    0.000 
#    0.000    0.571    0.000    0.714    0.000    1.143 
#
# Total GULP energy -311939.630337 kJ/mol
# GULP energy per Si atom -5570.350542 kJ/mol
# Density = 1.891319 g / cm^3
# Si number density = 18.956339 Si / 1000 Ang^3
#
#
#
# Elastic Constant Matrix: (Units=GPa)
#
#
# Indices 1 2 3 4 5 6 
#
# 1 66.9433 0.1259 39.9325 0.0000 0.0000 0.0000
# 2 0.1259 11.3029 -6.3585 0.0000 0.0000 0.0000
# 3 39.9325 -6.3585 91.7441 0.0000 0.0000 0.0000
# 4 0.0000 0.0000 0.0000 1.7350 0.0000 0.0000
# 5 0.0000 0.0000 0.0000 0.0000 41.7067 0.0000
# 6 0.0000 0.0000 0.0000 0.0000 0.0000 1.6393
#
#
#
# Elastic Compliance Matrix: (Units=1/GPa)
#
#
# Indices 1 2 3 4 5 6 
#
# 1 0.020495 -0.005460 -0.009299 0.000000 0.000000 0.000000
# 2 -0.005460 0.093517 0.008858 0.000000 0.000000 0.000000
# 3 -0.009299 0.008858 0.015561 0.000000 0.000000 0.000000
# 4 0.000000 0.000000 0.000000 0.576373 0.000000 0.000000
# 5 0.000000 0.000000 0.000000 0.000000 0.023977 0.000000
# 6 0.000000 0.000000 0.000000 0.000000 0.000000 0.610013
#
#
# Mechanical properties :
#
#
# Convention : Reuss Voigt Hill
#
# Bulk Modulus (GPa) = 8.49102 26.37666 17.43384
# Shear Modulus (GPa) = 3.59455 18.10222 10.84838
#
# Velocity S-wave (km/s) = 1.37853 3.09357 2.39484
# Velocity P-wave (km/s) = 2.65005 5.16767 4.10656
#
# Compressibility (1/GPa) = 0.11777145
#
# Stress axis : x y z
#
# Youngs Moduli (GPa) = 48.79152 10.69325 64.26182
#
# Poissons Ratio (x) = 0.05838 0.59758
# Poissons Ratio (y) = 0.26638 -0.56921
# Poissons Ratio (z) = 0.45372 -0.09472
#
# Static dielectric constant tensor:
#      x y z
#    x 1.678520 0.000000 0.000000 
#    y 0.000000 1.639570 0.000000 
#    z 0.000000 0.000000 1.702180 
# 
# From -- ./inp_files/45433.got.cif
#   From: 2010.05.17/outbox.cif.g08.bks.cpg/sg74_23_cif.got.tgz:45433.got - 2010.06.03 17:57:02.
