data_PCOD9533527
_publ_section_title
;
Structure prediction by ZEFSAII (Michael W. Deem and Ramdas Pophale) SiO2 
 PCOD9533527
Probable space group: I B C A 
;
_chemical_formula_sum "Si O2"
_cell_formula_units_Z 48
_cell_length_a 13.779176
_cell_length_b 10.214957
_cell_length_c 13.790033
_cell_angle_alpha 90.000000
_cell_angle_beta 90.000000
_cell_angle_gamma 90.000000
_cell_volume 1940.998035
_symmetry_space_group_name_H-M "I B C A "
_symmetry_group_IT_number 73
_symmetry_cell_setting 'orthorhombic'
loop_
_space_group_symop_operation_xyz
x,y,z
-x,1/2-y,z
x,-y,1/2-z
1/2-x,y,-z
-x,-y,-z
x,1/2+y,-z
-x,y,1/2+z
1/2+x,-y,z
1/2+x,1/2+y,1/2+z
1/2-x,-y,1/2+z
1/2+x,1/2-y,-z
-x,1/2+y,1/2-z
1/2-x,1/2-y,1/2-z
1/2+x,y,1/2-z
1/2-x,1/2+y,z
x,1/2-y,1/2+z
loop_
_atom_site_type_symbol
_atom_site_label
_atom_site_fract_x
_atom_site_fract_y
_atom_site_fract_z
Si Si1 0.319324 0.252175 0.893624
Si Si2 0.111849 0.990795 0.026599
Si Si3 0.891526 0.208895 0.816111
O O1 0.348794 0.136312 0.965209
O O2 0.209506 0.230616 0.855985
O O3 0.384818 0.237394 0.797770
O O4 0.339545 0.389907 0.949241
O O5 0.119700 0.933668 0.135851
O O6 0.000000 0.000000 0.000000
O O7 0.000000 0.250000 0.848914
#
# Coordination Sequence:
#
# PCOD9533527 Si02
#       3
#    16  16  16
#     4  11  27  48  74 108 147 190 243 304 365 436
#     4  12  25  47  75 108 146 191 243 299 368 440
#     4  11  25  47  75 107 145 191 245 303 366 435
#
# _framework density 24.729547
#
# number of rings (size 3 to 8) (size 9 to 14) (size 15 to 20)
#    0.000    0.667    0.000    7.000    0.000   10.667 
#    0.000   15.000    0.000    0.000    0.000    0.000 
#    0.000    0.000    0.000    0.000    0.000    0.000 
#
# Total GULP energy -134097.829307 kJ/mol
# GULP energy per Si atom -5587.409554 kJ/mol
# Density = 2.467326 g / cm^3
# Si number density = 24.729547 Si / 1000 Ang^3
#
#
#
# Elastic Constant Matrix: (Units=GPa)
#
#
# Indices 1 2 3 4 5 6 
#
# 1 224.8477 42.4591 45.3732 0.0000 0.0000 0.0000
# 2 42.4591 105.9284 51.5859 0.0000 0.0000 0.0000
# 3 45.3732 51.5859 160.9826 0.0000 0.0000 0.0000
# 4 0.0000 0.0000 0.0000 30.1418 0.0000 0.0000
# 5 0.0000 0.0000 0.0000 0.0000 39.0976 0.0000
# 6 0.0000 0.0000 0.0000 0.0000 0.0000 15.9153
#
#
#
# Elastic Compliance Matrix: (Units=1/GPa)
#
#
# Indices 1 2 3 4 5 6 
#
# 1 0.004918 -0.001536 -0.000894 0.000000 0.000000 0.000000
# 2 -0.001536 0.011666 -0.003305 0.000000 0.000000 0.000000
# 3 -0.000894 -0.003305 0.007523 0.000000 0.000000 0.000000
# 4 0.000000 0.000000 0.000000 0.033176 0.000000 0.000000
# 5 0.000000 0.000000 0.000000 0.000000 0.025577 0.000000
# 6 0.000000 0.000000 0.000000 0.000000 0.000000 0.062832
#
#
# Mechanical properties :
#
#
# Convention : Reuss Voigt Hill
#
# Bulk Modulus (GPa) = 79.13758 85.62170 82.37964
# Shear Modulus (GPa) = 30.98379 40.52032 35.75205
#
# Velocity S-wave (km/s) = 3.54348 4.05228 3.80639
# Velocity P-wave (km/s) = 6.98659 7.52283 7.25966
#
# Compressibility (1/GPa) = 0.01263622
#
# Stress axis : x y z
#
# Youngs Moduli (GPa) = 203.33974 85.72212 132.92624
#
# Poissons Ratio (x) = 0.13166 0.11883
# Poissons Ratio (y) = 0.31231 0.43936
# Poissons Ratio (z) = 0.18178 0.28334
#
# Static dielectric constant tensor:
#      x y z
#    x 1.985400 0.000000 0.000000 
#    y 0.000000 1.972180 0.000000 
#    z 0.000000 0.000000 1.999000 
# 
# From -- ./inp_files/5036.got.cif
#   From: 2010.05.17/outbox.cif.g08.bks.cpg/sg73_3_cif.got.tgz:5036.got - 2010.06.03 17:35:07.
