data_PCOD9533760
_publ_section_title
;
Structure prediction by ZEFSAII (Michael W. Deem and Ramdas Pophale) SiO2 
 PCOD9533760
Probable space group: I B C A 
;
_chemical_formula_sum "Si O2"
_cell_formula_units_Z 44
_cell_length_a 9.000000
_cell_length_b 30.000000
_cell_length_c 18.000000
_cell_angle_alpha 90.000000
_cell_angle_beta 90.000000
_cell_angle_gamma 90.000000
_cell_volume 4860.000000
_symmetry_space_group_name_H-M "I B C A "
_symmetry_group_IT_number 73
_symmetry_cell_setting 'orthorhombic'
loop_
_space_group_symop_operation_xyz
x,y,z
-x,1/2-y,z
x,-y,1/2-z
1/2-x,y,-z
-x,-y,-z
x,1/2+y,-z
-x,y,1/2+z
1/2+x,-y,z
1/2+x,1/2+y,1/2+z
1/2-x,-y,1/2+z
1/2+x,1/2-y,-z
-x,1/2+y,1/2-z
1/2-x,1/2-y,1/2-z
1/2+x,y,1/2-z
1/2-x,1/2+y,z
x,1/2-y,1/2+z
loop_
_atom_site_type_symbol
_atom_site_label
_atom_site_fract_x
_atom_site_fract_y
_atom_site_fract_z
Si Si1 0.728004 0.793184 0.802310
Si Si2 0.785133 0.868107 0.412052
Si Si3 0.159146 0.731109 0.426711
Si Si4 0.450514 0.145257 0.714708
Si Si5 0.329351 0.000000 0.750000
Si Si6 0.572490 0.436238 0.309614
O O1 0.750000 0.750000 0.750000
O O2 0.764325 0.770032 0.879775
O O3 0.567260 0.815547 0.802335
O O4 0.837507 0.832091 0.773585
O O5 0.750000 0.871997 0.500000
O O6 0.850977 0.818701 0.392442
O O7 0.639502 0.868814 0.359119
O O8 0.892217 0.907695 0.383536
O O9 0.250000 0.723623 0.500000
O O10 0.000000 0.750000 0.444352
O O11 0.531549 0.102304 0.749699
O O12 0.220173 0.035923 0.711633
O O13 0.437803 0.028036 0.805029
#
# Coordination Sequence:
#
# PCOD9533760 Si02
#       6
#    16  16  16  16   8  16
#     4  12  22  35  60  88 121 163 227 258 301 357
#     4  11  24  40  63  90 134 168 206 261 324 374
#     4  11  25  39  57  85 128 174 216 267 315 364
#     4  12  22  39  64  89 124 169 209 266 308 378
#     4  10  22  36  74  94 120 144 208 264 310 388
#     4  11  20  42  64  97 118 158 202 254 322 382
#
# _framework density 9.0534979999999994
#
# number of rings (size 3 to 8) (size 9 to 14) (size 15 to 20)
#    0.000    0.727    5.455    2.727    5.091    0.000 
#    0.000    0.909    0.000    0.000    0.000    0.000 
#    0.000    0.000    0.000    0.000    0.000    0.000 
#
# Total GULP energy -245426.739238 kJ/mol
# GULP energy per Si atom -5577.880437 kJ/mol
# Density = 0.903289 g / cm^3
# Si number density = 9.053498 Si / 1000 Ang^3
#
#
#
# Elastic Constant Matrix: (Units=GPa)
#
#
# Indices 1 2 3 4 5 6 
#
# 1 84.6853 45.3351 24.2114 0.0000 0.0000 0.0000
# 2 45.3351 120.4752 39.9218 0.0000 0.0000 0.0000
# 3 24.2114 39.9218 82.1727 -0.0001 0.0000 0.0000
# 4 0.0000 0.0000 -0.0001 22.5529 0.0000 0.0000
# 5 0.0000 0.0000 0.0000 0.0000 22.8806 0.0000
# 6 0.0000 0.0000 0.0000 0.0000 0.0000 53.7825
#
#
#
# Elastic Compliance Matrix: (Units=1/GPa)
#
#
# Indices 1 2 3 4 5 6 
#
# 1 0.015060 -0.005002 -0.002007 0.000000 0.000000 0.000000
# 2 -0.005002 0.011554 -0.004140 0.000000 0.000000 0.000000
# 3 -0.002007 -0.004140 0.014772 0.000000 0.000000 0.000000
# 4 0.000000 0.000000 0.000000 0.044340 0.000000 0.000000
# 5 0.000000 0.000000 0.000000 0.000000 0.043705 0.000000
# 6 0.000000 0.000000 0.000000 0.000000 0.000000 0.018593
#
#
# Mechanical properties :
#
#
# Convention : Reuss Voigt Hill
#
# Bulk Modulus (GPa) = 52.38669 56.25221 54.31945
# Shear Modulus (GPa) = 28.29877 31.70086 29.99982
#
# Velocity S-wave (km/s) = 3.95760 4.18874 4.07481
# Velocity P-wave (km/s) = 7.06243 7.38431 7.22517
#
# Compressibility (1/GPa) = 0.01908882
#
# Stress axis : x y z
#
# Youngs Moduli (GPa) = 66.40094 86.54639 67.69532
#
# Poissons Ratio (x) = 0.43291 0.13588
# Poissons Ratio (y) = 0.33214 0.28024
# Poissons Ratio (z) = 0.13328 0.35828
#
# Static dielectric constant tensor:
#      x y z
#    x 1.683670 0.000000 0.000000 
#    y 0.000000 1.640660 0.000000 
#    z 0.000000 0.000000 1.774800 
# 
# From -- ./inp_files/5732.got.cif
#   From: 2010.05.17/outbox.ucp.g08.bks.cvg/sg73_3_cif.got.tgz:5732.got - 2010.06.11 16:36:03.
