data_PCOD9533392
_publ_section_title
;
Structure prediction by ZEFSAII (Michael W. Deem and Ramdas Pophale) SiO2 
 PCOD9533392
Probable space group: I B C A 
;
_chemical_formula_sum "Si O2"
_cell_formula_units_Z 72
_cell_length_a 20.188785
_cell_length_b 11.248673
_cell_length_c 14.364691
_cell_angle_alpha 90.000000
_cell_angle_beta 90.000000
_cell_angle_gamma 90.000000
_cell_volume 3262.178817
_symmetry_space_group_name_H-M "I B C A "
_symmetry_group_IT_number 73
_symmetry_cell_setting 'orthorhombic'
loop_
_space_group_symop_operation_xyz
x,y,z
-x,1/2-y,z
x,-y,1/2-z
1/2-x,y,-z
-x,-y,-z
x,1/2+y,-z
-x,y,1/2+z
1/2+x,-y,z
1/2+x,1/2+y,1/2+z
1/2-x,-y,1/2+z
1/2+x,1/2-y,-z
-x,1/2+y,1/2-z
1/2-x,1/2-y,1/2-z
1/2+x,y,1/2-z
1/2-x,1/2+y,z
x,1/2-y,1/2+z
loop_
_atom_site_type_symbol
_atom_site_label
_atom_site_fract_x
_atom_site_fract_y
_atom_site_fract_z
Si Si1 0.741759 0.915777 0.836959
Si Si2 0.750000 0.101268 0.000000
Si Si3 0.142969 0.262100 0.601646
Si Si4 0.036092 0.127343 0.980889
Si Si5 0.598201 0.865792 0.783649
O O1 0.797126 0.817814 0.840832
O O2 0.669904 0.855701 0.833753
O O3 0.744116 0.000000 0.750000
O O4 0.757564 0.009180 0.916957
O O5 0.816073 0.176476 0.029403
O O6 0.102957 0.359626 0.542105
O O7 0.098657 0.205585 0.685433
O O8 0.048604 0.145244 0.870443
O O9 0.000000 0.250000 0.010691
O O10 0.000000 0.000000 0.000000
O O11 0.591478 0.000000 0.750000
#
# Coordination Sequence:
#
# PCOD9533392 Si02
#       5
#    16   8  16  16  16
#     4  11  24  41  72 111 147 184 236 299 391 463
#     4  12  22  42  74 108 156 188 232 312 384 474
#     4  12  26  43  74 107 148 192 245 306 386 453
#     4  12  30  50  75 103 145 204 263 311 366 432
#     4  11  23  47  73 107 150 188 244 313 375 450
#
# _framework density 22.071138999999999
#
# number of rings (size 3 to 8) (size 9 to 14) (size 15 to 20)
#    0.000    0.444    4.444    5.333    6.222    2.667 
#    0.000    0.000    0.000    0.000    0.000    0.000 
#    0.000    0.000    0.000    0.000    0.000    0.000 
#
# Total GULP energy -200648.792239 kJ/mol
# GULP energy per Si atom -5573.577562 kJ/mol
# Density = 2.202090 g / cm^3
# Si number density = 22.071139 Si / 1000 Ang^3
#
#
#
# Elastic Constant Matrix: (Units=GPa)
#
#
# Indices 1 2 3 4 5 6 
#
# 1 63.2783 36.7710 48.4840 0.0000 0.0000 0.0000
# 2 36.7710 93.7521 43.0102 0.0000 0.0000 0.0000
# 3 48.4840 43.0102 126.9026 0.0000 0.0000 0.0000
# 4 0.0000 0.0000 0.0000 -4.2411 0.0000 0.0000
# 5 0.0000 0.0000 0.0000 0.0000 43.5852 0.0000
# 6 0.0000 0.0000 0.0000 0.0000 0.0000 47.6386
#
#
#
# Elastic Compliance Matrix: (Units=1/GPa)
#
#
# Indices 1 2 3 4 5 6 
#
# 1 0.025297 -0.006498 -0.007463 0.000000 0.000000 0.000000
# 2 -0.006498 0.014300 -0.002364 0.000000 0.000000 0.000000
# 3 -0.007463 -0.002364 0.011532 0.000000 0.000000 0.000000
# 4 0.000000 0.000000 0.000000 -0.235789 0.000000 0.000000
# 5 0.000000 0.000000 0.000000 0.000000 0.022944 0.000000
# 6 0.000000 0.000000 0.000000 0.000000 0.000000 0.020991
#
#
# Mechanical properties :
#
#
# Convention : Reuss Voigt Hill
#
# Bulk Modulus (GPa) = 54.11300 60.05148 57.08224
# Shear Modulus (GPa) = -49.06001 27.77440 -10.64280
#
# Velocity S-wave (km/s) = -4.71979 3.55125 -2.19830
# Velocity P-wave (km/s) = 2.26519 6.63945 4.41312
#
# Compressibility (1/GPa) = 0.01847985
#
# Stress axis : x y z
#
# Youngs Moduli (GPa) = 39.52997 69.93209 86.71316
#
# Poissons Ratio (x) = 0.45445 0.64710
# Poissons Ratio (y) = 0.25688 0.20496
# Poissons Ratio (z) = 0.29499 0.16530
#
# Static dielectric constant tensor:
#      x y z
#    x 1.830870 0.000000 0.000000 
#    y 0.000000 1.824300 0.000000 
#    z 0.000000 0.000000 2.122980 
# 
# From -- ./inp_files/18464.got.cif
#   From: 2010.05.17/outbox.cif.g08.bks.cpg/sg73_10_cif.got.tgz:18464.got - 2010.06.03 17:35:07.
