data_PCOD9533389
_publ_section_title
;
Structure prediction by ZEFSAII (Michael W. Deem and Ramdas Pophale) SiO2 
 PCOD9533389
Probable space group: I B C A 
;
_chemical_formula_sum "Si O2"
_cell_formula_units_Z 80
_cell_length_a 13.977471
_cell_length_b 11.629881
_cell_length_c 21.003666
_cell_angle_alpha 90.000000
_cell_angle_beta 90.000000
_cell_angle_gamma 90.000000
_cell_volume 3414.278744
_symmetry_space_group_name_H-M "I B C A "
_symmetry_group_IT_number 73
_symmetry_cell_setting 'orthorhombic'
loop_
_space_group_symop_operation_xyz
x,y,z
-x,1/2-y,z
x,-y,1/2-z
1/2-x,y,-z
-x,-y,-z
x,1/2+y,-z
-x,y,1/2+z
1/2+x,-y,z
1/2+x,1/2+y,1/2+z
1/2-x,-y,1/2+z
1/2+x,1/2-y,-z
-x,1/2+y,1/2-z
1/2-x,1/2-y,1/2-z
1/2+x,y,1/2-z
1/2-x,1/2+y,z
x,1/2-y,1/2+z
loop_
_atom_site_type_symbol
_atom_site_label
_atom_site_fract_x
_atom_site_fract_y
_atom_site_fract_z
Si Si1 0.849566 0.128192 0.728689
Si Si2 0.323353 0.261440 0.646002
Si Si3 0.156812 0.488258 0.414757
Si Si4 0.491672 0.621903 0.629181
Si Si5 0.636595 0.957532 0.440071
O O1 0.774692 0.188101 0.679448
O O2 0.865771 0.200353 0.792255
O O3 0.951059 0.120847 0.694236
O O4 0.816374 0.000000 0.750000
O O5 0.377801 0.368704 0.614475
O O6 0.332238 0.164461 0.590405
O O7 0.269462 0.469314 0.422566
O O8 0.126947 0.536178 0.484013
O O9 0.118516 0.585143 0.366903
O O10 0.500000 0.750000 0.600984
O O11 0.546400 0.522706 0.589573
#
# Coordination Sequence:
#
# PCOD9533389 Si02
#       5
#    16  16  16  16  16
#     4  11  23  46  76 110 155 192 250 315 377 456
#     4  11  23  46  79 107 149 199 247 311 384 449
#     4  11  26  43  78 107 145 202 249 306 390 451
#     4  12  26  45  70 108 149 196 247 312 378 452
#     4  11  25  48  71 109 150 193 254 314 378 461
#
# _framework density 23.431011000000002
#
# number of rings (size 3 to 8) (size 9 to 14) (size 15 to 20)
#    0.000    0.800    4.000    1.800    2.800    5.600 
#    0.000    0.000    0.000    0.000    0.000    0.000 
#    0.000    0.000    0.000    0.000    0.000    0.000 
#
# Total GULP energy -223053.451225 kJ/mol
# GULP energy per Si atom -5576.336281 kJ/mol
# Density = 2.337768 g / cm^3
# Si number density = 23.431011 Si / 1000 Ang^3
#
#
#
# Elastic Constant Matrix: (Units=GPa)
#
#
# Indices 1 2 3 4 5 6 
#
# 1 72.9512 26.6762 46.5252 0.0000 0.0000 0.0000
# 2 26.6762 154.1136 77.0651 0.0000 0.0000 0.0000
# 3 46.5252 77.0651 151.7826 0.0000 0.0000 0.0000
# 4 0.0000 0.0000 0.0000 29.5874 0.0000 0.0000
# 5 0.0000 0.0000 0.0000 0.0000 -8.1403 0.0000
# 6 0.0000 0.0000 0.0000 0.0000 0.0000 11.6172
#
#
#
# Elastic Compliance Matrix: (Units=1/GPa)
#
#
# Indices 1 2 3 4 5 6 
#
# 1 0.017062 -0.000453 -0.005000 0.000000 0.000000 0.000000
# 2 -0.000453 0.008709 -0.004283 0.000000 0.000000 0.000000
# 3 -0.005000 -0.004283 0.010296 0.000000 0.000000 0.000000
# 4 0.000000 0.000000 0.000000 0.033798 0.000000 0.000000
# 5 0.000000 0.000000 0.000000 0.000000 -0.122846 0.000000
# 6 0.000000 0.000000 0.000000 0.000000 0.000000 0.086079
#
#
# Mechanical properties :
#
#
# Convention : Reuss Voigt Hill
#
# Bulk Modulus (GPa) = 60.26011 75.48669 67.87340
# Shear Modulus (GPa) = 86.05621 21.85160 53.95390
#
# Velocity S-wave (km/s) = 6.06690 3.05715 4.80382
# Velocity P-wave (km/s) = 8.65160 6.68940 7.73299
#
# Compressibility (1/GPa) = 0.01659472
#
# Stress axis : x y z
#
# Youngs Moduli (GPa) = 58.60893 114.82620 97.12963
#
# Poissons Ratio (x) = 0.05203 0.48564
# Poissons Ratio (y) = 0.02656 0.41599
# Poissons Ratio (z) = 0.29304 0.49178
#
# Static dielectric constant tensor:
#      x y z
#    x 1.970210 0.000000 0.000000 
#    y 0.000000 1.953180 0.000000 
#    z 0.000000 0.000000 1.861820 
# 
# From -- ./inp_files/29343.got.cif
#   From: 2010.05.17/outbox.cif.g08.bks.cpg/sg73_15_cif.got.tgz:29343.got - 2010.06.03 17:35:07.
