data_PCOD9533072
_publ_section_title
;
Structure prediction by ZEFSAII (Michael W. Deem and Ramdas Pophale) SiO2 
 PCOD9533072
Probable space group: I B C A 
;
_chemical_formula_sum "Si O2"
_cell_formula_units_Z 104
_cell_length_a 11.302259
_cell_length_b 25.808842
_cell_length_c 17.327122
_cell_angle_alpha 90.000000
_cell_angle_beta 90.000000
_cell_angle_gamma 90.000000
_cell_volume 5054.290589
_symmetry_space_group_name_H-M "I B C A "
_symmetry_group_IT_number 73
_symmetry_cell_setting 'orthorhombic'
loop_
_space_group_symop_operation_xyz
x,y,z
-x,1/2-y,z
x,-y,1/2-z
1/2-x,y,-z
-x,-y,-z
x,1/2+y,-z
-x,y,1/2+z
1/2+x,-y,z
1/2+x,1/2+y,1/2+z
1/2-x,-y,1/2+z
1/2+x,1/2-y,-z
-x,1/2+y,1/2-z
1/2-x,1/2-y,1/2-z
1/2+x,y,1/2-z
1/2-x,1/2+y,z
x,1/2-y,1/2+z
loop_
_atom_site_type_symbol
_atom_site_label
_atom_site_fract_x
_atom_site_fract_y
_atom_site_fract_z
Si Si1 0.000000 0.750000 0.731332
Si Si2 0.456351 0.079498 0.367791
Si Si3 0.937379 0.000000 0.750000
Si Si4 0.635850 0.337477 0.803543
Si Si5 0.037999 0.866554 0.016983
Si Si6 0.750000 0.290705 0.500000
Si Si7 0.845054 0.698347 0.601916
Si Si8 0.815017 0.906134 0.662375
O O1 0.090581 0.719453 0.784633
O O2 0.071305 0.788252 0.674586
O O3 0.525011 0.126900 0.326493
O O4 0.492375 0.087956 0.456902
O O5 0.315942 0.084184 0.367112
O O6 0.490521 0.029280 0.317624
O O7 0.860710 0.956432 0.707542
O O8 0.735619 0.335540 0.868543
O O9 0.688425 0.360445 0.724975
O O10 0.138139 0.827703 0.981838
O O11 0.097351 0.890087 0.093735
O O12 0.925400 0.832084 0.040559
O O13 0.795391 0.251995 0.433190
#
# Coordination Sequence:
#
# PCOD9533072 Si02
#       8
#     8  16   8  16  16   8  16  16
#     4  12  22  38  60 102 136 186 240 274 336 392
#     4  11  24  45  70  99 131 176 225 284 358 415
#     4  10  26  44  74 104 122 172 226 294 356 426
#     4  11  25  38  66  98 137 186 229 288 330 407
#     4  12  24  43  68  98 138 183 224 290 342 410
#     4  12  22  40  62  92 140 190 228 266 336 398
#     4  12  24  41  62  99 141 188 241 278 329 408
#     4  11  22  46  68  97 133 172 228 283 354 413
#
# _framework density 20.576577
#
# number of rings (size 3 to 8) (size 9 to 14) (size 15 to 20)
#    0.000    0.615    4.615    2.769    4.308    0.615 
#    0.000    0.000    0.000    0.000    0.000    0.000 
#    0.000    0.000    0.000    0.000    0.000    0.000 
#
# Total GULP energy -290713.264501 kJ/mol
# GULP energy per Si atom -5590.639702 kJ/mol
# Density = 2.052974 g / cm^3
# Si number density = 20.576577 Si / 1000 Ang^3
#
#
#
# Elastic Constant Matrix: (Units=GPa)
#
#
# Indices 1 2 3 4 5 6 
#
# 1 60.8769 41.1076 47.3598 0.0000 0.0000 0.0000
# 2 41.1076 86.7795 39.1443 0.0000 0.0000 0.0000
# 3 47.3598 39.1443 80.5960 -0.0001 0.0000 0.0000
# 4 0.0000 0.0000 -0.0001 40.5682 0.0000 0.0000
# 5 0.0000 0.0000 0.0000 0.0000 30.1598 0.0000
# 6 0.0000 0.0000 0.0000 0.0000 0.0000 -6.3967
#
#
#
# Elastic Compliance Matrix: (Units=1/GPa)
#
#
# Indices 1 2 3 4 5 6 
#
# 1 0.035448 -0.009471 -0.016230 0.000000 0.000000 0.000000
# 2 -0.009471 0.017287 -0.002831 0.000000 0.000000 0.000000
# 3 -0.016230 -0.002831 0.023320 0.000000 0.000000 0.000000
# 4 0.000000 0.000000 0.000000 0.024650 0.000000 0.000000
# 5 0.000000 0.000000 0.000000 0.000000 0.033157 0.000000
# 6 0.000000 0.000000 0.000000 0.000000 0.000000 -0.156330
#
#
# Mechanical properties :
#
#
# Convention : Reuss Voigt Hill
#
# Bulk Modulus (GPa) = 52.65627 53.71953 53.18790
# Shear Modulus (GPa) = 122.17468 19.57564 70.87516
#
# Velocity S-wave (km/s) = 7.71392 3.08775 5.87532
# Velocity P-wave (km/s) = 10.24623 6.23507 8.48120
#
# Compressibility (1/GPa) = 0.01899109
#
# Stress axis : x y z
#
# Youngs Moduli (GPa) = 28.20998 57.84816 42.88228
#
# Poissons Ratio (x) = 0.54787 0.69600
# Poissons Ratio (y) = 0.26717 0.12138
# Poissons Ratio (z) = 0.45786 0.16375
#
# Static dielectric constant tensor:
#      x y z
#    x 1.721110 0.000000 0.000000 
#    y 0.000000 1.725450 0.000000 
#    z 0.000000 0.000000 1.746400 
# 
# From -- ./inp_files/21487.got.cif
#   From: 2010.05.17/outbox.cif.g08.bks.cpg/sg73_11_cif.got.tgz:21487.got - 2010.06.03 17:35:07.
