data_PCOD9533428
_publ_section_title
;
Structure prediction by ZEFSAII (Michael W. Deem and Ramdas Pophale) SiO2 
 PCOD9533428
Probable space group: I B C A 
;
_chemical_formula_sum "Si O2"
_cell_formula_units_Z 88
_cell_length_a 11.998321
_cell_length_b 13.697539
_cell_length_c 25.047016
_cell_angle_alpha 90.000000
_cell_angle_beta 90.000000
_cell_angle_gamma 90.000000
_cell_volume 4116.413706
_symmetry_space_group_name_H-M "I B C A "
_symmetry_group_IT_number 73
_symmetry_cell_setting 'orthorhombic'
loop_
_space_group_symop_operation_xyz
x,y,z
-x,1/2-y,z
x,-y,1/2-z
1/2-x,y,-z
-x,-y,-z
x,1/2+y,-z
-x,y,1/2+z
1/2+x,-y,z
1/2+x,1/2+y,1/2+z
1/2-x,-y,1/2+z
1/2+x,1/2-y,-z
-x,1/2+y,1/2-z
1/2-x,1/2-y,1/2-z
1/2+x,y,1/2-z
1/2-x,1/2+y,z
x,1/2-y,1/2+z
loop_
_atom_site_type_symbol
_atom_site_label
_atom_site_fract_x
_atom_site_fract_y
_atom_site_fract_z
Si Si1 0.295447 0.818677 0.702626
Si Si2 0.913750 0.609182 0.950022
Si Si3 0.750000 0.751149 0.000000
Si Si4 0.569203 0.610615 0.446653
Si Si5 0.931383 0.500000 0.250000
Si Si6 0.000000 0.750000 0.365691
Si Si7 0.950056 0.352348 0.828951
O O1 0.250000 0.750000 0.750000
O O2 0.389429 0.761130 0.669560
O O3 0.183789 0.846421 0.670690
O O4 0.354489 0.916906 0.723553
O O5 0.811792 0.681777 0.958028
O O6 0.882540 0.498142 0.939338
O O7 0.989404 0.655624 0.903830
O O8 0.979009 0.610164 0.006117
O O9 0.663626 0.817182 0.967622
O O10 0.514326 0.637564 0.390449
O O11 0.006486 0.558387 0.206985
O O12 0.000000 0.250000 0.807516
#
# Coordination Sequence:
#
# PCOD9533428 Si02
#       7
#    16  16   8  16   8   8  16
#     4  12  26  48  74 106 146 192 251 312 376 441
#     4  11  24  44  68 104 147 187 235 297 364 448
#     4  12  20  44  68 100 144 190 232 296 354 450
#     4  11  25  43  68 104 143 183 235 288 361 439
#     4  12  26  50  74 106 150 188 256 316 372 444
#     4  12  24  46  74 110 150 196 246 308 388 442
#     4  12  25  48  76 108 143 196 246 307 372 448
#
# _framework density 21.377832000000001
#
# number of rings (size 3 to 8) (size 9 to 14) (size 15 to 20)
#    0.000    0.364    3.636    5.455    0.000    1.455 
#    6.545    0.000    0.000    0.000    0.000    0.000 
#    0.000    0.000    0.000    0.000    0.000    0.000 
#
# Total GULP energy -246277.274741 kJ/mol
# GULP energy per Si atom -5597.210790 kJ/mol
# Density = 2.132917 g / cm^3
# Si number density = 21.377832 Si / 1000 Ang^3
#
#
#
# Elastic Constant Matrix: (Units=GPa)
#
#
# Indices 1 2 3 4 5 6 
#
# 1 82.6445 23.3766 18.1395 0.0000 0.0000 0.0000
# 2 23.3766 146.8986 29.1845 0.0000 0.0000 0.0000
# 3 18.1395 29.1845 102.9458 0.0000 0.0000 0.0000
# 4 0.0000 0.0000 0.0000 28.7060 0.0000 0.0000
# 5 0.0000 0.0000 0.0000 0.0000 23.5447 0.0000
# 6 0.0000 0.0000 0.0000 0.0000 0.0000 -14.1078
#
#
#
# Elastic Compliance Matrix: (Units=1/GPa)
#
#
# Indices 1 2 3 4 5 6 
#
# 1 0.012979 -0.001707 -0.001803 0.000000 0.000000 0.000000
# 2 -0.001707 0.007438 -0.001808 0.000000 0.000000 0.000000
# 3 -0.001803 -0.001808 0.010544 0.000000 0.000000 0.000000
# 4 0.000000 0.000000 0.000000 0.034836 0.000000 0.000000
# 5 0.000000 0.000000 0.000000 0.000000 0.042472 0.000000
# 6 0.000000 0.000000 0.000000 0.000000 0.000000 -0.070883
#
#
# Mechanical properties :
#
#
# Convention : Reuss Voigt Hill
#
# Bulk Modulus (GPa) = 49.20049 52.65446 50.92747
# Shear Modulus (GPa) = 91.24525 25.08114 58.16319
#
# Velocity S-wave (km/s) = 6.54025 3.42896 5.22172
# Velocity P-wave (km/s) = 8.94974 6.35302 7.76076
#
# Compressibility (1/GPa) = 0.02032500
#
# Stress axis : x y z
#
# Youngs Moduli (GPa) = 77.04975 134.44011 94.84013
#
# Poissons Ratio (x) = 0.22951 0.17099
# Poissons Ratio (y) = 0.13154 0.17146
# Poissons Ratio (z) = 0.13892 0.24305
#
# Static dielectric constant tensor:
#      x y z
#    x 1.778860 0.000000 0.000000 
#    y 0.000000 1.774840 0.000000 
#    z 0.000000 0.000000 1.797140 
# 
# From -- ./inp_files/28861.got.cif
#   From: 2010.05.17/outbox.cif.g08.bks.cpg/sg73_15_cif.got.tgz:28861.got - 2010.06.03 17:35:07.
