data_PCOD9533599
_publ_section_title
;
Structure prediction by ZEFSAII (Michael W. Deem and Ramdas Pophale) SiO2 
 PCOD9533599
Probable space group: I B C A 
;
_chemical_formula_sum "Si O2"
_cell_formula_units_Z 64
_cell_length_a 5.077810
_cell_length_b 18.884258
_cell_length_c 27.125008
_cell_angle_alpha 90.000000
_cell_angle_beta 90.000000
_cell_angle_gamma 90.000000
_cell_volume 2601.035302
_symmetry_space_group_name_H-M "I B C A "
_symmetry_group_IT_number 73
_symmetry_cell_setting 'orthorhombic'
loop_
_space_group_symop_operation_xyz
x,y,z
-x,1/2-y,z
x,-y,1/2-z
1/2-x,y,-z
-x,-y,-z
x,1/2+y,-z
-x,y,1/2+z
1/2+x,-y,z
1/2+x,1/2+y,1/2+z
1/2-x,-y,1/2+z
1/2+x,1/2-y,-z
-x,1/2+y,1/2-z
1/2-x,1/2-y,1/2-z
1/2+x,y,1/2-z
1/2-x,1/2+y,z
x,1/2-y,1/2+z
loop_
_atom_site_type_symbol
_atom_site_label
_atom_site_fract_x
_atom_site_fract_y
_atom_site_fract_z
Si Si1 0.649660 0.173938 0.445780
Si Si2 0.000000 0.250000 0.874022
Si Si3 0.500000 0.750000 0.693099
Si Si4 0.907921 0.046851 0.113055
Si Si5 0.431777 0.594569 0.222428
O O1 0.500000 0.250000 0.448305
O O2 0.750000 0.156280 0.500000
O O3 0.893367 0.187851 0.408871
O O4 0.475830 0.112222 0.422465
O O5 0.248635 0.269177 0.840560
O O6 0.574223 0.680013 0.722170
O O7 0.963714 0.071117 0.169353
O O8 0.118981 0.984009 0.104914
O O9 0.636377 0.572188 0.264748
#
# Coordination Sequence:
#
# PCOD9533599 Si02
#       5
#    16   8   8  16  16
#     4  12  27  48  84 115 150 195 258 313 381 452
#     4  12  22  42  76 104 150 188 236 308 370 446
#     4  12  24  42  74 112 152 186 246 320 384 428
#     4  12  30  50  74 109 158 202 247 307 378 450
#     4  12  25  44  74 106 146 196 252 310 370 445
#
# _framework density 24.605588999999998
#
# number of rings (size 3 to 8) (size 9 to 14) (size 15 to 20)
#    0.000    0.000    5.000    3.750    7.000    4.000 
#    0.000    0.000    0.000    0.000    0.000    0.000 
#    0.000    0.000    0.000    0.000    0.000    0.000 
#
# Total GULP energy -179621.850897 kJ/mol
# GULP energy per Si atom -5613.182841 kJ/mol
# Density = 2.454959 g / cm^3
# Si number density = 24.605589 Si / 1000 Ang^3
#
#
#
# Elastic Constant Matrix: (Units=GPa)
#
#
# Indices 1 2 3 4 5 6 
#
# 1 105.5680 -10.5799 14.0672 0.0000 0.0000 0.0000
# 2 -10.5799 124.8918 18.4692 0.0000 0.0000 0.0000
# 3 14.0672 18.4692 100.1252 0.0000 0.0000 0.0000
# 4 0.0000 0.0000 0.0000 111.5988 0.0000 0.0000
# 5 0.0000 0.0000 0.0000 0.0000 -35.5555 0.0000
# 6 0.0000 0.0000 0.0000 0.0000 0.0000 42.5748
#
#
#
# Elastic Compliance Matrix: (Units=1/GPa)
#
#
# Indices 1 2 3 4 5 6 
#
# 1 0.009788 0.001062 -0.001571 0.000000 0.000000 0.000000
# 2 0.001062 0.008347 -0.001689 0.000000 0.000000 0.000000
# 3 -0.001571 -0.001689 0.010520 0.000000 0.000000 0.000000
# 4 0.000000 0.000000 0.000000 0.008961 0.000000 0.000000
# 5 0.000000 0.000000 0.000000 0.000000 -0.028125 0.000000
# 6 0.000000 0.000000 0.000000 0.000000 0.000000 0.023488
#
#
# Mechanical properties :
#
#
# Convention : Reuss Voigt Hill
#
# Bulk Modulus (GPa) = 41.22339 41.61089 41.41714
# Shear Modulus (GPa) = 109.98459 44.29885 77.14172
#
# Velocity S-wave (km/s) = 6.69299 4.24766 5.60530
# Velocity P-wave (km/s) = 8.74746 6.40349 7.66560
#
# Compressibility (1/GPa) = 0.02425807
#
# Stress axis : x y z
#
# Youngs Moduli (GPa) = 102.16287 119.80941 95.05952
#
# Poissons Ratio (x) = -0.12718 0.14934
# Poissons Ratio (y) = -0.10845 0.16053
# Poissons Ratio (z) = 0.16050 0.20233
#
# Static dielectric constant tensor:
#      x y z
#    x 1.966460 0.000000 0.000000 
#    y 0.000000 1.968490 0.000000 
#    z 0.000000 0.000000 1.913270 
# 
# From -- ./inp_files/30851.got.cif
#   From: 2010.05.17/outbox.cif.g08.bks.cpg/sg73_16_cif.got.tgz:30851.got - 2010.06.03 17:35:07.
