data_PCOD9533507
_publ_section_title
;
Structure prediction by ZEFSAII (Michael W. Deem and Ramdas Pophale) SiO2 
 PCOD9533507
Probable space group: I B C A 
;
_chemical_formula_sum "Si O2"
_cell_formula_units_Z 72
_cell_length_a 19.106674
_cell_length_b 17.853137
_cell_length_c 9.578877
_cell_angle_alpha 90.000000
_cell_angle_beta 90.000000
_cell_angle_gamma 90.000000
_cell_volume 3267.489705
_symmetry_space_group_name_H-M "I B C A "
_symmetry_group_IT_number 73
_symmetry_cell_setting 'orthorhombic'
loop_
_space_group_symop_operation_xyz
x,y,z
-x,1/2-y,z
x,-y,1/2-z
1/2-x,y,-z
-x,-y,-z
x,1/2+y,-z
-x,y,1/2+z
1/2+x,-y,z
1/2+x,1/2+y,1/2+z
1/2-x,-y,1/2+z
1/2+x,1/2-y,-z
-x,1/2+y,1/2-z
1/2-x,1/2-y,1/2-z
1/2+x,y,1/2-z
1/2-x,1/2+y,z
x,1/2-y,1/2+z
loop_
_atom_site_type_symbol
_atom_site_label
_atom_site_fract_x
_atom_site_fract_y
_atom_site_fract_z
Si Si1 0.420701 0.163737 0.416877
Si Si2 0.750000 0.000000 0.500000
Si Si3 0.629243 0.074639 0.175126
Si Si4 0.129243 0.074639 0.824874
Si Si5 0.079299 0.163737 0.083124
O O1 0.414832 0.110917 0.550988
O O2 0.367764 0.134652 0.299126
O O3 0.407536 0.250000 0.455316
O O4 0.500000 0.158938 0.359777
O O5 0.700571 0.950923 0.399910
O O6 0.799429 0.049077 0.399910
O O7 0.632236 0.134652 0.299126
O O8 0.599727 0.000000 0.250000
O O9 0.099727 0.000000 0.750000
O O10 0.085168 0.110917 0.949012
#
# Coordination Sequence:
#
# PCOD9533507 Si02
#       5
#    16   8  16  16  16
#     4  11  25  45  69 104 142 172 215 279 345 407
#     4  12  26  48  66  96 138 176 236 294 310 384
#     4  12  24  44  73  96 136 182 226 275 336 388
#     4  12  24  44  73  96 136 182 226 275 336 388
#     4  11  25  45  69 104 142 172 215 279 345 407
#
# _framework density 22.035264999999999
#
# number of rings (size 3 to 8) (size 9 to 14) (size 15 to 20)
#    0.000    0.444    4.444    3.333    0.000    8.889 
#    0.000    6.667    0.000    0.000    0.000    0.000 
#    0.000    0.000    0.000    0.000    0.000    0.000 
#
# Total GULP energy -201275.332335 kJ/mol
# GULP energy per Si atom -5590.981454 kJ/mol
# Density = 2.198511 g / cm^3
# Si number density = 22.035265 Si / 1000 Ang^3
#
#
#
# Elastic Constant Matrix: (Units=GPa)
#
#
# Indices 1 2 3 4 5 6 
#
# 1 77.6443 68.2699 48.3281 0.0000 0.0000 0.0000
# 2 68.2699 130.9677 60.6138 0.0000 0.0000 0.0000
# 3 48.3281 60.6138 153.5894 0.0000 0.0000 0.0000
# 4 0.0000 0.0000 0.0000 35.2496 0.0000 0.0000
# 5 0.0000 0.0000 0.0000 0.0000 40.3206 0.0000
# 6 0.0000 0.0000 0.0000 0.0000 0.0000 23.6120
#
#
#
# Elastic Compliance Matrix: (Units=1/GPa)
#
#
# Indices 1 2 3 4 5 6 
#
# 1 0.025109 -0.011540 -0.003347 0.000000 0.000000 0.000000
# 2 -0.011540 0.014645 -0.002149 0.000000 0.000000 0.000000
# 3 -0.003347 -0.002149 0.008412 0.000000 0.000000 0.000000
# 4 0.000000 0.000000 0.000000 0.028369 0.000000 0.000000
# 5 0.000000 0.000000 0.000000 0.000000 0.024801 0.000000
# 6 0.000000 0.000000 0.000000 0.000000 0.000000 0.042351
#
#
# Mechanical properties :
#
#
# Convention : Reuss Voigt Hill
#
# Bulk Modulus (GPa) = 70.94202 79.62501 75.28351
# Shear Modulus (GPa) = 27.40396 32.16911 29.78653
#
# Velocity S-wave (km/s) = 3.53036 3.82500 3.68063
# Velocity P-wave (km/s) = 6.99160 7.46466 7.23200
#
# Compressibility (1/GPa) = 0.01409602
#
# Stress axis : x y z
#
# Youngs Moduli (GPa) = 39.82705 68.28186 118.87994
#
# Poissons Ratio (x) = 0.78794 0.39783
# Poissons Ratio (y) = 0.45959 0.25544
# Poissons Ratio (z) = 0.13328 0.14672
#
# Static dielectric constant tensor:
#      x y z
#    x 1.780800 0.000000 0.000000 
#    y 0.000000 1.803810 0.000000 
#    z 0.000000 0.000000 1.806450 
# 
# From -- ./inp_files/6013.got.cif
#   From: 2010.05.17/outbox.cif.g08.bks.cpg/sg73_4_cif.got.tgz:6013.got - 2010.06.03 17:35:07.
