data_PCOD9533251
_publ_section_title
;
Structure prediction by ZEFSAII (Michael W. Deem and Ramdas Pophale) SiO2 
 PCOD9533251
Probable space group: I B C A 
;
_chemical_formula_sum "Si O2"
_cell_formula_units_Z 88
_cell_length_a 21.146347
_cell_length_b 18.344124
_cell_length_c 10.405307
_cell_angle_alpha 90.000000
_cell_angle_beta 90.000000
_cell_angle_gamma 90.000000
_cell_volume 4036.335245
_symmetry_space_group_name_H-M "I B C A "
_symmetry_group_IT_number 73
_symmetry_cell_setting 'orthorhombic'
loop_
_space_group_symop_operation_xyz
x,y,z
-x,1/2-y,z
x,-y,1/2-z
1/2-x,y,-z
-x,-y,-z
x,1/2+y,-z
-x,y,1/2+z
1/2+x,-y,z
1/2+x,1/2+y,1/2+z
1/2-x,-y,1/2+z
1/2+x,1/2-y,-z
-x,1/2+y,1/2-z
1/2-x,1/2-y,1/2-z
1/2+x,y,1/2-z
1/2-x,1/2+y,z
x,1/2-y,1/2+z
loop_
_atom_site_type_symbol
_atom_site_label
_atom_site_fract_x
_atom_site_fract_y
_atom_site_fract_z
Si Si1 0.827423 0.323900 0.845905
Si Si2 0.033152 0.578668 0.492205
Si Si3 0.774958 0.325733 0.371893
Si Si4 0.250000 0.556797 0.000000
Si Si5 0.150754 0.043520 0.362311
Si Si6 0.025836 0.667735 0.228337
O O1 0.785137 0.315588 0.717995
O O2 0.810552 0.247591 0.914467
O O3 0.799298 0.391218 0.925085
O O4 0.900560 0.329939 0.813121
O O5 0.106963 0.561960 0.517127
O O6 0.020748 0.621015 0.359540
O O7 0.000000 0.500000 0.500000
O O8 0.010765 0.628189 0.611964
O O9 0.750000 0.363155 0.500000
O O10 0.824100 0.380173 0.306803
O O11 0.290974 0.507236 0.095896
O O12 0.114764 0.000000 0.250000
O O13 0.000000 0.750000 0.246736
#
# Coordination Sequence:
#
# PCOD9533251 Si02
#       6
#    16  16  16   8  16  16
#     4  11  25  43  68 101 140 180 231 298 360 435
#     4  12  27  48  73 106 148 199 250 312 377 451
#     4  11  22  41  65 100 138 180 229 289 363 428
#     4  12  24  42  68 108 144 184 230 294 366 444
#     4  12  24  41  69 103 145 186 240 294 370 445
#     4  12  27  50  76 106 145 200 260 311 376 451
#
# _framework density 21.801956000000001
#
# number of rings (size 3 to 8) (size 9 to 14) (size 15 to 20)
#    0.000    0.364    3.636    5.455    0.000    1.455 
#    0.000    0.000    0.000    0.000    0.000    0.000 
#    0.000    0.000    0.000    0.000    0.000    0.000 
#
# Total GULP energy -246056.642975 kJ/mol
# GULP energy per Si atom -5592.196431 kJ/mol
# Density = 2.175233 g / cm^3
# Si number density = 21.801956 Si / 1000 Ang^3
#
#
#
# Elastic Constant Matrix: (Units=GPa)
#
#
# Indices 1 2 3 4 5 6 
#
# 1 110.9796 51.4453 19.8509 0.0000 0.0000 0.0000
# 2 51.4453 156.1093 44.9871 0.0000 0.0000 0.0000
# 3 19.8509 44.9871 104.5444 0.0000 0.0000 0.0000
# 4 0.0000 0.0000 0.0000 42.2247 0.0000 0.0000
# 5 0.0000 0.0000 0.0000 0.0000 33.7825 0.0000
# 6 0.0000 0.0000 0.0000 0.0000 0.0000 26.6483
#
#
#
# Elastic Compliance Matrix: (Units=1/GPa)
#
#
# Indices 1 2 3 4 5 6 
#
# 1 0.010667 -0.003346 -0.000585 0.000000 0.000000 0.000000
# 2 -0.003346 0.008362 -0.002963 0.000000 0.000000 0.000000
# 3 -0.000585 -0.002963 0.010952 0.000000 0.000000 0.000000
# 4 0.000000 0.000000 0.000000 0.023683 0.000000 0.000000
# 5 0.000000 0.000000 0.000000 0.000000 0.029601 0.000000
# 6 0.000000 0.000000 0.000000 0.000000 0.000000 0.037526
#
#
# Mechanical properties :
#
#
# Convention : Reuss Voigt Hill
#
# Bulk Modulus (GPa) = 61.76329 67.13333 64.44831
# Shear Modulus (GPa) = 35.72011 37.55443 36.63727
#
# Velocity S-wave (km/s) = 4.05209 4.15483 4.10379
# Velocity P-wave (km/s) = 7.09108 7.34003 7.21663
#
# Compressibility (1/GPa) = 0.01619085
#
# Stress axis : x y z
#
# Youngs Moduli (GPa) = 93.75022 119.58177 91.31151
#
# Poissons Ratio (x) = 0.40018 0.05345
# Poissons Ratio (y) = 0.31373 0.27056
# Poissons Ratio (z) = 0.05488 0.35433
#
# Static dielectric constant tensor:
#      x y z
#    x 1.840740 0.000000 0.000000 
#    y 0.000000 1.846080 0.000000 
#    z 0.000000 0.000000 1.794540 
# 
# From -- ./inp_files/12721.got.cif
#   From: 2010.05.17/outbox.cif.g08.bks.cpg/sg73_7_cif.got.tgz:12721.got - 2010.06.03 17:35:07.
