data_PCOD9533587
_publ_section_title
;
Structure prediction by ZEFSAII (Michael W. Deem and Ramdas Pophale) SiO2 
 PCOD9533587
Probable space group: I B C A 
;
_chemical_formula_sum "Si O2"
_cell_formula_units_Z 96
_cell_length_a 13.837036
_cell_length_b 21.462535
_cell_length_c 13.408838
_cell_angle_alpha 90.000000
_cell_angle_beta 90.000000
_cell_angle_gamma 90.000000
_cell_volume 3982.128141
_symmetry_space_group_name_H-M "I B C A "
_symmetry_group_IT_number 73
_symmetry_cell_setting 'orthorhombic'
loop_
_space_group_symop_operation_xyz
x,y,z
-x,1/2-y,z
x,-y,1/2-z
1/2-x,y,-z
-x,-y,-z
x,1/2+y,-z
-x,y,1/2+z
1/2+x,-y,z
1/2+x,1/2+y,1/2+z
1/2-x,-y,1/2+z
1/2+x,1/2-y,-z
-x,1/2+y,1/2-z
1/2-x,1/2-y,1/2-z
1/2+x,y,1/2-z
1/2-x,1/2+y,z
x,1/2-y,1/2+z
loop_
_atom_site_type_symbol
_atom_site_label
_atom_site_fract_x
_atom_site_fract_y
_atom_site_fract_z
Si Si1 0.145977 0.321018 0.383988
Si Si2 0.911243 0.870658 0.377184
Si Si3 0.094070 0.528916 0.547880
Si Si4 0.272732 0.805833 0.878391
Si Si5 0.500000 0.250000 0.971265
Si Si6 0.456821 0.122981 0.711986
Si Si7 0.250000 0.430029 0.500000
O O1 0.224326 0.268278 0.355362
O O2 0.195382 0.383239 0.425394
O O3 0.084187 0.284125 0.467920
O O4 0.057151 0.342506 0.315717
O O5 0.883190 0.915792 0.468679
O O6 0.807321 0.851844 0.330603
O O7 0.948789 0.803342 0.410223
O O8 0.007858 0.896412 0.322298
O O9 0.066375 0.561479 0.650399
O O10 0.176192 0.477058 0.553269
O O11 0.000000 0.500000 0.500000
O O12 0.372863 0.830813 0.828345
O O13 0.250000 0.810104 0.000000
#
# Coordination Sequence:
#
# PCOD9533587 Si02
#       7
#    16  16  16  16   8  16   8
#     4  12  21  44  76 117 149 196 252 319 383 475
#     4  12  27  45  75 114 150 199 256 317 390 460
#     4  12  24  49  74  98 148 211 254 317 369 444
#     4  12  21  46  81 108 156 196 243 315 399 468
#     4  12  20  44  76 114 158 196 244 322 402 466
#     4  12  26  47  75 114 153 197 255 318 389 459
#     4  12  24  42  84 108 140 214 276 304 380 448
#
# _framework density 24.107713
#
# number of rings (size 3 to 8) (size 9 to 14) (size 15 to 20)
#    0.000    0.000    9.167    1.000    2.333    1.333 
#    6.000    0.000    7.333    0.000    0.000    0.000 
#    0.000    0.000    0.000    0.000    0.000    0.000 
#
# Total GULP energy -267890.246201 kJ/mol
# GULP energy per Si atom -5581.046796 kJ/mol
# Density = 2.405284 g / cm^3
# Si number density = 24.107713 Si / 1000 Ang^3
#
#
#
# Elastic Constant Matrix: (Units=GPa)
#
#
# Indices 1 2 3 4 5 6 
#
# 1 130.8721 38.0928 34.8534 0.0002 0.0000 0.0000
# 2 38.0928 122.7462 23.0088 -0.0002 0.0000 0.0000
# 3 34.8534 23.0088 55.3244 -0.0006 0.0000 0.0000
# 4 0.0002 -0.0002 -0.0006 22.1175 0.0000 0.0000
# 5 0.0000 0.0000 0.0000 0.0000 39.9597 0.0000
# 6 0.0000 0.0000 0.0000 0.0000 0.0000 70.4913
#
#
#
# Elastic Compliance Matrix: (Units=1/GPa)
#
#
# Indices 1 2 3 4 5 6 
#
# 1 0.009616 -0.002005 -0.005224 0.000000 0.000000 0.000000
# 2 -0.002005 0.009254 -0.002585 0.000000 0.000000 0.000000
# 3 -0.005224 -0.002585 0.022442 0.000001 0.000000 0.000000
# 4 0.000000 0.000000 0.000001 0.045213 0.000000 0.000000
# 5 0.000000 0.000000 0.000000 0.000000 0.025025 0.000000
# 6 0.000000 0.000000 0.000000 0.000000 0.000000 0.014186
#
#
# Mechanical properties :
#
#
# Convention : Reuss Voigt Hill
#
# Bulk Modulus (GPa) = 46.12049 55.65030 50.88540
# Shear Modulus (GPa) = 32.76716 40.71287 36.74001
#
# Velocity S-wave (km/s) = 3.69073 4.11395 3.90807
# Velocity P-wave (km/s) = 6.11020 6.76019 6.44340
#
# Compressibility (1/GPa) = 0.02168234
#
# Stress axis : x y z
#
# Youngs Moduli (GPa) = 103.99496 108.06436 44.56029
#
# Poissons Ratio (x) = 0.21666 0.23278
# Poissons Ratio (y) = 0.20850 0.11521
# Poissons Ratio (z) = 0.54327 0.27940
#
# Static dielectric constant tensor:
#      x y z
#    x 2.186110 0.000000 0.000000 
#    y 0.000000 2.099820 0.000000 
#    z 0.000000 0.000000 2.175010 
# 
# From -- ./inp_files/17109.got.cif
#   From: 2010.05.17/outbox.cif.g08.bks.cpg/sg73_9_cif.got.tgz:17109.got - 2010.06.03 17:35:07.
