data_PCOD9533578
_publ_section_title
;
Structure prediction by ZEFSAII (Michael W. Deem and Ramdas Pophale) SiO2 
 PCOD9533578
Probable space group: I B C A 
;
_chemical_formula_sum "Si O2"
_cell_formula_units_Z 104
_cell_length_a 26.519654
_cell_length_b 8.936746
_cell_length_c 19.389202
_cell_angle_alpha 90.000000
_cell_angle_beta 90.000000
_cell_angle_gamma 90.000000
_cell_volume 4595.229469
_symmetry_space_group_name_H-M "I B C A "
_symmetry_group_IT_number 73
_symmetry_cell_setting 'orthorhombic'
loop_
_space_group_symop_operation_xyz
x,y,z
-x,1/2-y,z
x,-y,1/2-z
1/2-x,y,-z
-x,-y,-z
x,1/2+y,-z
-x,y,1/2+z
1/2+x,-y,z
1/2+x,1/2+y,1/2+z
1/2-x,-y,1/2+z
1/2+x,1/2-y,-z
-x,1/2+y,1/2-z
1/2-x,1/2-y,1/2-z
1/2+x,y,1/2-z
1/2-x,1/2+y,z
x,1/2-y,1/2+z
loop_
_atom_site_type_symbol
_atom_site_label
_atom_site_fract_x
_atom_site_fract_y
_atom_site_fract_z
Si Si1 0.500000 0.750000 0.353779
Si Si2 0.946614 0.703301 0.925272
Si Si3 0.580393 0.041681 0.056398
Si Si4 0.757728 0.324513 0.826364
Si Si5 0.107517 0.500000 0.750000
Si Si6 0.162411 0.000000 0.750000
Si Si7 0.819987 0.062514 0.872592
Si Si8 0.567161 0.693926 0.227065
O O1 0.538323 0.859970 0.398626
O O2 0.536432 0.664950 0.297480
O O3 0.953240 0.647567 0.847337
O O4 0.000000 0.750000 0.954903
O O5 0.919036 0.863938 0.927700
O O6 0.928248 0.575382 0.976157
O O7 0.638284 0.086355 0.069757
O O8 0.750000 0.250000 0.750000
O O9 0.801160 0.446971 0.811150
O O10 0.779519 0.193782 0.872976
O O11 0.709969 0.407744 0.859271
O O12 0.144064 0.427239 0.805650
O O13 0.072047 0.371812 0.722099
O O14 0.123654 0.130473 0.731023
#
# Coordination Sequence:
#
# PCOD9533578 Si02
#       8
#     8  16  16  16   8   8  16  16
#     4  12  24  44  72 108 146 178 228 298 376 432
#     4  12  27  48  70 100 145 203 241 286 352 438
#     4  12  28  47  73  99 148 195 244 293 358 438
#     4  12  21  37  66 105 139 172 226 292 363 419
#     4  12  19  41  64 106 142 178 221 291 372 408
#     4  12  23  37  66 106 136 180 229 293 350 432
#     4  12  23  41  70 104 139 182 230 300 367 430
#     4  12  25  39  71 107 146 180 233 298 361 429
#
# _framework density 22.632169000000001
#
# number of rings (size 3 to 8) (size 9 to 14) (size 15 to 20)
#    0.000    0.000    9.231    0.462    2.154    1.846 
#    0.000    0.000    0.000    7.385    0.000    0.000 
#    0.000    0.000    0.000    0.000    0.000    0.000 
#
# Total GULP energy -290135.913221 kJ/mol
# GULP energy per Si atom -5579.536793 kJ/mol
# Density = 2.258066 g / cm^3
# Si number density = 22.632169 Si / 1000 Ang^3
#
#
#
# Elastic Constant Matrix: (Units=GPa)
#
#
# Indices 1 2 3 4 5 6 
#
# 1 103.9487 15.7453 11.7444 0.0000 0.0000 0.0000
# 2 15.7453 95.0412 20.2893 0.0000 0.0000 0.0000
# 3 11.7444 20.2893 75.3361 0.0000 0.0000 0.0000
# 4 0.0000 0.0000 0.0000 18.7620 0.0000 0.0000
# 5 0.0000 0.0000 0.0000 0.0000 -21.7171 0.0000
# 6 0.0000 0.0000 0.0000 0.0000 0.0000 35.9157
#
#
#
# Elastic Compliance Matrix: (Units=1/GPa)
#
#
# Indices 1 2 3 4 5 6 
#
# 1 0.009965 -0.001400 -0.001177 0.000000 0.000000 0.000000
# 2 -0.001400 0.011360 -0.002841 0.000000 0.000000 0.000000
# 3 -0.001177 -0.002841 0.014222 0.000000 0.000000 0.000000
# 4 0.000000 0.000000 0.000000 0.053299 0.000000 0.000000
# 5 0.000000 0.000000 0.000000 0.000000 -0.046047 0.000000
# 6 0.000000 0.000000 0.000000 0.000000 0.000000 0.027843
#
#
# Mechanical properties :
#
#
# Convention : Reuss Voigt Hill
#
# Bulk Modulus (GPa) = 40.46509 41.09823 40.78166
# Shear Modulus (GPa) = 55.73148 21.69525 38.71336
#
# Velocity S-wave (km/s) = 4.96773 3.09949 4.14036
# Velocity P-wave (km/s) = 7.12901 5.56846 6.39650
#
# Compressibility (1/GPa) = 0.02471266
#
# Stress axis : x y z
#
# Youngs Moduli (GPa) = 100.35047 88.02659 70.31128
#
# Poissons Ratio (x) = 0.12321 0.08272
# Poissons Ratio (y) = 0.14046 0.19978
# Poissons Ratio (z) = 0.11806 0.25011
#
# Static dielectric constant tensor:
#      x y z
#    x 1.928070 0.000000 0.000000 
#    y 0.000000 2.123900 0.000000 
#    z 0.000000 0.000000 1.876390 
# 
# From -- ./inp_files/27636.got.cif
#   From: 2010.05.17/outbox.cif.g08.bks.cpg/sg73_14_cif.got.tgz:27636.got - 2010.06.03 17:35:07.
