data_PCOD9533999
_publ_section_title
;
Structure prediction by ZEFSAII (Michael W. Deem and Ramdas Pophale) SiO2 
 PCOD9533999
Probable space group: I M M A
;
_chemical_formula_sum "Si O2"
_cell_formula_units_Z 80
_cell_length_a 24.517141
_cell_length_b 8.065120
_cell_length_c 25.314973
_cell_angle_alpha 90.000000
_cell_angle_beta 90.000000
_cell_angle_gamma 90.000000
_cell_volume 5005.622877
_symmetry_space_group_name_H-M "I M M A"
_symmetry_group_IT_number 74
_symmetry_cell_setting 'orthorhombic'
loop_
_space_group_symop_operation_xyz
x,y,z
-x,1/2-y,z
x,-y,-z
-x,1/2+y,-z
-x,-y,-z
x,1/2+y,-z
-x,y,z
x,1/2-y,z
1/2+x,1/2+y,1/2+z
1/2-x,-y,1/2+z
1/2+x,1/2-y,1/2-z
1/2-x,y,1/2-z
1/2-x,1/2-y,1/2-z
1/2+x,y,1/2-z
1/2-x,1/2+y,1/2+z
1/2+x,-y,1/2+z
loop_
_atom_site_type_symbol
_atom_site_label
_atom_site_fract_x
_atom_site_fract_y
_atom_site_fract_z
Si Si1 0.111281 0.944993 0.558586
Si Si2 0.226470 0.951763 0.168586
Si Si3 0.060638 0.947400 0.332800
Si Si4 0.737638 0.948709 0.057566
Si Si5 0.836174 0.547443 0.268446
O O1 0.103918 0.750000 0.563107
O O2 0.093652 0.000000 0.500000
O O3 0.079837 0.027667 0.606965
O O4 0.175682 0.986342 0.563014
O O5 0.224698 0.750000 0.168419
O O6 0.227588 0.007069 0.107968
O O7 0.179659 0.007062 0.209228
O O8 0.284641 0.997951 0.194697
O O9 0.058214 0.750000 0.323620
O O10 0.107956 0.014121 0.294224
O O11 0.000000 0.016722 0.324777
O O12 0.734190 0.750000 0.059126
O O13 0.758412 0.000000 0.000000
O O14 0.837657 0.750000 0.268449
#
# Coordination Sequence:
#
# PCOD9533999 Si02
#       5
#    16  16  16  16  16
#     4  11  21  32  45  59  81 112 145 180 211 244
#     4   8  13  22  42  63  82 107 135 167 199 246
#     4  10  19  31  47  64  83 106 137 178 215 247
#     4  10  17  27  43  64  87 111 139 172 209 247
#     4   8  13  24  41  63  83 104 136 167 203 247
#
# _framework density 15.982027
#
# number of rings (size 3 to 8) (size 9 to 14) (size 15 to 20)
#    0.000    2.600    2.000    4.800    0.000    0.800 
#    0.000    0.000    0.000    3.600    0.000    0.000 
#    0.000    0.800    0.000    0.600    0.000    1.200 
#
# Total GULP energy -222884.545938 kJ/mol
# GULP energy per Si atom -5572.113648 kJ/mol
# Density = 1.594565 g / cm^3
# Si number density = 15.982027 Si / 1000 Ang^3
#
#
#
# Elastic Constant Matrix: (Units=GPa)
#
#
# Indices 1 2 3 4 5 6 
#
# 1 88.4530 -1.0554 73.0542 0.0000 0.0000 0.0000
# 2 -1.0554 9.9082 -8.5896 0.0000 0.0000 0.0000
# 3 73.0542 -8.5896 138.1185 0.0000 0.0000 0.0000
# 4 0.0000 0.0000 0.0000 16.0978 0.0000 0.0000
# 5 0.0000 0.0000 0.0000 0.0000 -124.9892 0.0000
# 6 0.0000 0.0000 0.0000 0.0000 0.0000 1.3740
#
#
#
# Elastic Compliance Matrix: (Units=1/GPa)
#
#
# Indices 1 2 3 4 5 6 
#
# 1 0.020612 -0.007669 -0.011379 0.000000 0.000000 0.000000
# 2 -0.007669 0.109531 0.010868 0.000000 0.000000 0.000000
# 3 -0.011379 0.010868 0.013935 0.000000 0.000000 0.000000
# 4 0.000000 0.000000 0.000000 0.062120 0.000000 0.000000
# 5 0.000000 0.000000 0.000000 0.000000 -0.008001 0.000000
# 6 0.000000 0.000000 0.000000 0.000000 0.000000 0.727785
#
#
# Mechanical properties :
#
#
# Convention : Reuss Voigt Hill
#
# Bulk Modulus (GPa) = 7.82978 40.36646 24.09812
# Shear Modulus (GPa) = 5.07658 -9.96545 -2.44443
#
# Velocity S-wave (km/s) = 1.78419 -2.49979 -1.23807
# Velocity P-wave (km/s) = 3.02559 4.12072 3.61487
#
# Compressibility (1/GPa) = 0.12771743
#
# Stress axis : x y z
#
# Youngs Moduli (GPa) = 48.51514 9.12983 71.76291
#
# Poissons Ratio (x) = 0.07002 0.81660
# Poissons Ratio (y) = 0.37207 -0.77993
# Poissons Ratio (z) = 0.55206 -0.09922
#
# Static dielectric constant tensor:
#      x y z
#    x 1.526430 0.000000 0.000000 
#    y 0.000000 1.573560 0.000000 
#    z 0.000000 0.000000 1.579480 
# 
# From -- ./inp_files/72858.got.cif
#   From: 2010.05.17/outbox.cif.g08.bks.cpg/sg74_37_cif.got.tgz:72858.got - 2010.06.03 17:57:02.
