data_PCOD9533925
_publ_section_title
;
Structure prediction by ZEFSAII (Michael W. Deem and Ramdas Pophale) SiO2 
 PCOD9533925
Probable space group: I M M A
;
_chemical_formula_sum "Si O2"
_cell_formula_units_Z 88
_cell_length_a 14.635332
_cell_length_b 24.641498
_cell_length_c 13.848295
_cell_angle_alpha 90.000000
_cell_angle_beta 90.000000
_cell_angle_gamma 90.000000
_cell_volume 4994.200698
_symmetry_space_group_name_H-M "I M M A"
_symmetry_group_IT_number 74
_symmetry_cell_setting 'orthorhombic'
loop_
_space_group_symop_operation_xyz
x,y,z
-x,1/2-y,z
x,-y,-z
-x,1/2+y,-z
-x,-y,-z
x,1/2+y,-z
-x,y,z
x,1/2-y,z
1/2+x,1/2+y,1/2+z
1/2-x,-y,1/2+z
1/2+x,1/2-y,1/2-z
1/2-x,y,1/2-z
1/2-x,1/2-y,1/2-z
1/2+x,y,1/2-z
1/2-x,1/2+y,1/2+z
1/2+x,-y,1/2+z
loop_
_atom_site_type_symbol
_atom_site_label
_atom_site_fract_x
_atom_site_fract_y
_atom_site_fract_z
Si Si1 0.785589 0.000000 0.500000
Si Si2 0.896603 0.903919 0.262987
Si Si3 0.267092 0.889590 0.411196
Si Si4 0.741115 0.685591 0.595384
Si Si5 0.896080 0.147804 0.259793
Si Si6 0.352153 0.474217 0.206217
O O1 0.728559 0.050690 0.540346
O O2 0.844340 0.021930 0.409945
O O3 0.827479 0.889236 0.350038
O O4 0.848609 0.883438 0.165317
O O5 0.000000 0.884795 0.276081
O O6 0.896087 0.969710 0.259386
O O7 0.266293 0.845436 0.494636
O O8 0.740335 0.750000 0.584358
O O9 0.833482 0.667703 0.651193
O O10 0.657981 0.667559 0.665101
O O11 0.895503 0.082290 0.262921
O O12 0.000000 0.167492 0.263721
O O13 0.250000 0.474105 0.250000
#
# Coordination Sequence:
#
# PCOD9533925 Si02
#       6
#     8  16  16  16  16  16
#     4  10  16  32  58  78 112 152 182 224 278 330
#     4  10  21  36  58  87 118 151 183 235 295 343
#     4  10  20  38  59  81 117 149 189 240 280 347
#     4  11  24  41  60  82 114 155 196 239 287 333
#     4  11  22  37  59  87 118 154 193 232 278 339
#     4  11  17  34  56  84 122 151 185 226 281 343
#
# _framework density 17.620438
#
# number of rings (size 3 to 8) (size 9 to 14) (size 15 to 20)
#    0.000    1.455    7.273    1.636    0.000    2.909 
#    0.000    4.545    0.000    1.091    0.000    0.000 
#    0.000    0.000    0.000    0.000    0.000    0.000 
#
# Total GULP energy -245558.088172 kJ/mol
# GULP energy per Si atom -5580.865640 kJ/mol
# Density = 1.758033 g / cm^3
# Si number density = 17.620438 Si / 1000 Ang^3
#
#
#
# Elastic Constant Matrix: (Units=GPa)
#
#
# Indices 1 2 3 4 5 6 
#
# 1 112.7994 12.2308 50.9704 0.0001 0.0000 0.0000
# 2 12.2308 89.9879 57.2726 -0.0001 0.0000 0.0000
# 3 50.9704 57.2726 133.3398 0.0000 0.0000 0.0000
# 4 0.0001 -0.0001 0.0000 18.1580 0.0000 0.0000
# 5 0.0000 0.0000 0.0000 0.0000 -0.0066 0.0000
# 6 0.0000 0.0000 0.0000 0.0000 0.0000 4.0320
#
#
#
# Elastic Compliance Matrix: (Units=1/GPa)
#
#
# Indices 1 2 3 4 5 6 
#
# 1 0.010883 0.001608 -0.004851 0.000000 -0.000007 0.000000
# 2 0.001608 0.015531 -0.007286 0.000000 0.000000 0.000000
# 3 -0.004851 -0.007286 0.012483 0.000000 0.000020 0.000000
# 4 0.000000 0.000000 0.000000 0.055072 0.000105 0.000000
# 5 -0.000007 0.000000 0.000020 0.000105********** 0.000069
# 6 0.000000 0.000000 0.000000 0.000000 0.000069 0.248017
#
#
# Mechanical properties :
#
#
# Convention : Reuss Voigt Hill
#
# Bulk Modulus (GPa) = 56.05244 64.11942 60.08593
# Shear Modulus (GPa) = -0.03318 18.81357 9.39019
#
# Velocity S-wave (km/s) = -0.13737 3.27113 2.31100
# Velocity P-wave (km/s) = 5.64402 7.12287 6.42613
#
# Compressibility (1/GPa) = 0.01784044
#
# Stress axis : x y z
#
# Youngs Moduli (GPa) = 91.88778 64.38755 80.10742
#
# Poissons Ratio (x) = -0.10354 0.38858
# Poissons Ratio (y) = -0.14777 0.58363
# Poissons Ratio (z) = 0.44573 0.46910
#
# Static dielectric constant tensor:
#      x y z
#    x 1.606740 0.000000 0.000000 
#    y 0.000000 1.590790 0.000000 
#    z 0.000000 0.000000 1.595680 
# 
# From -- ./inp_files/20896.got.cif
#   From: 2010.05.17/outbox.cif.g08.bks.cpg/sg74_11_cif.got.tgz:20896.got - 2010.06.03 17:57:02.
