data_PCOD9533432
_publ_section_title
;
Structure prediction by ZEFSAII (Michael W. Deem and Ramdas Pophale) SiO2 
 PCOD9533432
Probable space group: I B C A 
;
_chemical_formula_sum "Si O2"
_cell_formula_units_Z 88
_cell_length_a 20.177771
_cell_length_b 12.652129
_cell_length_c 14.470688
_cell_angle_alpha 90.000000
_cell_angle_beta 90.000000
_cell_angle_gamma 90.000000
_cell_volume 3694.247431
_symmetry_space_group_name_H-M "I B C A "
_symmetry_group_IT_number 73
_symmetry_cell_setting 'orthorhombic'
loop_
_space_group_symop_operation_xyz
x,y,z
-x,1/2-y,z
x,-y,1/2-z
1/2-x,y,-z
-x,-y,-z
x,1/2+y,-z
-x,y,1/2+z
1/2+x,-y,z
1/2+x,1/2+y,1/2+z
1/2-x,-y,1/2+z
1/2+x,1/2-y,-z
-x,1/2+y,1/2-z
1/2-x,1/2-y,1/2-z
1/2+x,y,1/2-z
1/2-x,1/2+y,z
x,1/2-y,1/2+z
loop_
_atom_site_type_symbol
_atom_site_label
_atom_site_fract_x
_atom_site_fract_y
_atom_site_fract_z
Si Si1 0.500000 0.750000 0.058739
Si Si2 0.898675 0.500000 0.250000
Si Si3 0.639545 0.435955 0.080470
Si Si4 0.769483 0.746910 0.142950
Si Si5 0.001495 0.627318 0.622448
Si Si6 0.367675 0.165666 0.886782
Si Si7 0.250000 0.913178 0.000000
O O1 0.565042 0.768213 0.119492
O O2 0.484891 0.846185 0.986426
O O3 0.857381 0.590443 0.299968
O O4 0.944414 0.441178 0.325138
O O5 0.678188 0.338832 0.127167
O O6 0.568190 0.436167 0.130250
O O7 0.695427 0.523964 0.061896
O O8 0.621417 0.403836 0.976692
O O9 0.750000 0.750000 0.250000
O O10 0.698812 0.771084 0.094749
O O11 0.790719 0.646572 0.082055
O O12 0.000000 0.750000 0.659514
#
# Coordination Sequence:
#
# PCOD9533432 Si02
#       7
#     8   8  16  16  16  16   8
#     4   8  22  42  72  90 140 196 226 290 380 428
#     4  12  28  40  74 112 140 188 256 310 364 458
#     4  11  24  49  71 104 142 193 252 290 385 452
#     4  12  28  45  72 108 147 193 239 312 370 437
#     4   9  24  47  67 103 146 184 240 306 367 440
#     4  11  24  44  69 103 144 184 247 294 367 443
#     4  12  24  46  78 102 150 188 244 308 364 450
#
# _framework density 23.820820000000001
#
# number of rings (size 3 to 8) (size 9 to 14) (size 15 to 20)
#    0.545    0.727    3.636    0.000    6.364    8.000 
#    0.000    0.000    0.000    0.000    0.000    0.000 
#    0.000    0.000    0.000    0.000    0.000    0.000 
#
# Total GULP energy -245471.767082 kJ/mol
# GULP energy per Si atom -5578.903797 kJ/mol
# Density = 2.376660 g / cm^3
# Si number density = 23.820820 Si / 1000 Ang^3
#
#
#
# Elastic Constant Matrix: (Units=GPa)
#
#
# Indices 1 2 3 4 5 6 
#
# 1 64.4149 6.3264 -6.1201 0.0000 0.0000 0.0000
# 2 6.3264 57.8782 13.9610 0.0000 0.0000 0.0000
# 3 -6.1201 13.9610 80.3553 0.0000 0.0000 0.0000
# 4 0.0000 0.0000 0.0000 19.2643 0.0000 0.0000
# 5 0.0000 0.0000 0.0000 0.0000 29.1723 0.0000
# 6 0.0000 0.0000 0.0000 0.0000 0.0000 13.4277
#
#
#
# Elastic Compliance Matrix: (Units=1/GPa)
#
#
# Indices 1 2 3 4 5 6 
#
# 1 0.015882 -0.002116 0.001577 0.000000 0.000000 0.000000
# 2 -0.002116 0.018315 -0.003343 0.000000 0.000000 0.000000
# 3 0.001577 -0.003343 0.013146 0.000000 0.000000 0.000000
# 4 0.000000 0.000000 0.000000 0.051909 0.000000 0.000000
# 5 0.000000 0.000000 0.000000 0.000000 0.034279 0.000000
# 6 0.000000 0.000000 0.000000 0.000000 0.000000 0.074473
#
#
# Mechanical properties :
#
#
# Convention : Reuss Voigt Hill
#
# Bulk Modulus (GPa) = 25.26636 25.66480 25.46558
# Shear Modulus (GPa) = 21.83767 24.93828 23.38797
#
# Velocity S-wave (km/s) = 3.03107 3.23911 3.13681
# Velocity P-wave (km/s) = 4.78327 4.97862 4.88192
#
# Compressibility (1/GPa) = 0.03957831
#
# Stress axis : x y z
#
# Youngs Moduli (GPa) = 62.96403 54.59869 76.07031
#
# Poissons Ratio (x) = 0.11556 -0.11999
# Poissons Ratio (y) = 0.13326 0.25433
# Poissons Ratio (z) = -0.09932 0.18254
#
# Static dielectric constant tensor:
#      x y z
#    x 2.065540 0.000000 0.000000 
#    y 0.000000 2.275240 0.000000 
#    z 0.000000 0.000000 1.842670 
# 
# From -- ./inp_files/23116.got.cif
#   From: 2010.05.17/outbox.cif.g08.bks.cpg/sg73_12_cif.got.tgz:23116.got - 2010.06.03 17:35:07.
