data_PCOD9533990
_publ_section_title
;
Structure prediction by ZEFSAII (Michael W. Deem and Ramdas Pophale) SiO2 
 PCOD9533990
Probable space group: I M M A
;
_chemical_formula_sum "Si O2"
_cell_formula_units_Z 96
_cell_length_a 8.791353
_cell_length_b 27.383990
_cell_length_c 29.657331
_cell_angle_alpha 90.000000
_cell_angle_beta 90.000000
_cell_angle_gamma 90.000000
_cell_volume 7139.774748
_symmetry_space_group_name_H-M "I M M A"
_symmetry_group_IT_number 74
_symmetry_cell_setting 'orthorhombic'
loop_
_space_group_symop_operation_xyz
x,y,z
-x,1/2-y,z
x,-y,-z
-x,1/2+y,-z
-x,-y,-z
x,1/2+y,-z
-x,y,z
x,1/2-y,z
1/2+x,1/2+y,1/2+z
1/2-x,-y,1/2+z
1/2+x,1/2-y,1/2-z
1/2-x,y,1/2-z
1/2-x,1/2-y,1/2-z
1/2+x,y,1/2-z
1/2-x,1/2+y,1/2+z
1/2+x,-y,1/2+z
loop_
_atom_site_type_symbol
_atom_site_label
_atom_site_fract_x
_atom_site_fract_y
_atom_site_fract_z
Si Si1 0.685497 0.195341 0.607800
Si Si2 0.818296 0.600072 0.054708
Si Si3 0.317880 0.464518 0.702004
Si Si4 0.183045 0.008674 0.609428
Si Si5 0.176114 0.448347 0.472989
Si Si6 0.817458 0.849373 0.202437
O O1 0.500000 0.195529 0.608041
O O2 0.736966 0.250000 0.596812
O O3 0.731312 0.152729 0.573382
O O4 0.733586 0.179871 0.658297
O O5 0.744506 0.558023 0.085788
O O6 0.000000 0.596180 0.059330
O O7 0.770398 0.588786 0.003462
O O8 0.500000 0.468349 0.702167
O O9 0.250000 0.480133 0.750000
O O10 0.248440 0.492520 0.659526
O O11 0.278151 0.406766 0.696487
O O12 0.000000 0.010379 0.609719
O O13 0.229035 0.963599 0.576903
O O14 0.180328 0.500000 0.500000
O O15 0.000000 0.432806 0.471467
O O16 0.750000 0.832482 0.250000
O O17 0.000000 0.846261 0.204938
#
# Coordination Sequence:
#
# PCOD9533990 Si02
#       6
#    16  16  16  16  16  16
#     4   9  17  29  42  55  74  99 126 161 204 243
#     4  10  17  27  42  59  75  96 127 161 196 235
#     4  10  18  28  41  59  79 101 131 161 195 233
#     4  10  18  28  42  58  78 102 125 154 194 235
#     4   8  16  28  40  57  78  99 120 148 194 238
#     4   9  17  29  41  54  70  92 124 161 201 238
#
# _framework density 13.445803
#
# number of rings (size 3 to 8) (size 9 to 14) (size 15 to 20)
#    0.000    2.667    1.667    2.500    0.000    4.667 
#    0.000    0.000    0.000    4.000    0.000    0.000 
#    0.000    0.000    0.000    0.000    0.000    0.833 
#
# Total GULP energy -267372.651538 kJ/mol
# GULP energy per Si atom -5570.263574 kJ/mol
# Density = 1.341520 g / cm^3
# Si number density = 13.445803 Si / 1000 Ang^3
#
#
#
# Elastic Constant Matrix: (Units=GPa)
#
#
# Indices 1 2 3 4 5 6 
#
# 1 25.6873 18.2967 31.5015 0.0000 0.0000 0.0000
# 2 18.2967 54.9792 55.5152 0.0000 0.0000 0.0000
# 3 31.5015 55.5152 114.3530 0.0000 0.0000 0.0000
# 4 0.0000 0.0000 0.0000 17.3579 0.0000 0.0000
# 5 0.0000 0.0000 0.0000 0.0000 24.5051 0.0000
# 6 0.0000 0.0000 0.0000 0.0000 0.0000 4.5365
#
#
#
# Elastic Compliance Matrix: (Units=1/GPa)
#
#
# Indices 1 2 3 4 5 6 
#
# 1 0.059925 -0.006422 -0.013390 0.000000 0.000000 0.000000
# 2 -0.006422 0.036367 -0.015886 0.000000 0.000000 0.000000
# 3 -0.013390 -0.015886 0.020146 0.000000 0.000000 0.000000
# 4 0.000000 0.000000 0.000000 0.057611 0.000000 0.000000
# 5 0.000000 0.000000 0.000000 0.000000 0.040808 0.000000
# 6 0.000000 0.000000 0.000000 0.000000 0.000000 0.220435
#
#
# Mechanical properties :
#
#
# Convention : Reuss Voigt Hill
#
# Bulk Modulus (GPa) = 22.20176 45.07181 33.63679
# Shear Modulus (GPa) = 9.58404 15.26030 12.42217
#
# Velocity S-wave (km/s) = 2.67271 3.37256 3.04282
# Velocity P-wave (km/s) = 5.10611 6.98279 6.11685
#
# Compressibility (1/GPa) = 0.04504147
#
# Stress axis : x y z
#
# Youngs Moduli (GPa) = 16.68747 27.49776 49.63819
#
# Poissons Ratio (x) = 0.17658 0.66468
# Poissons Ratio (y) = 0.10716 0.78855
# Poissons Ratio (z) = 0.22345 0.43683
#
# Static dielectric constant tensor:
#      x y z
#    x 1.452220 0.000000 0.000000 
#    y 0.000000 1.424710 0.000000 
#    z 0.000000 0.000000 1.459070 
# 
# From -- ./inp_files/64918.got.cif
#   From: 2010.05.17/outbox.cif.g08.bks.cpg/sg74_33_cif.got.tgz:64918.got - 2010.06.03 17:57:02.
