data_PCOD9533395
_publ_section_title
;
Structure prediction by ZEFSAII (Michael W. Deem and Ramdas Pophale) SiO2 
 PCOD9533395
Probable space group: I B C A 
;
_chemical_formula_sum "Si O2"
_cell_formula_units_Z 96
_cell_length_a 22.737832
_cell_length_b 16.860127
_cell_length_c 11.873339
_cell_angle_alpha 90.000000
_cell_angle_beta 90.000000
_cell_angle_gamma 90.000000
_cell_volume 4551.795715
_symmetry_space_group_name_H-M "I B C A "
_symmetry_group_IT_number 73
_symmetry_cell_setting 'orthorhombic'
loop_
_space_group_symop_operation_xyz
x,y,z
-x,1/2-y,z
x,-y,1/2-z
1/2-x,y,-z
-x,-y,-z
x,1/2+y,-z
-x,y,1/2+z
1/2+x,-y,z
1/2+x,1/2+y,1/2+z
1/2-x,-y,1/2+z
1/2+x,1/2-y,-z
-x,1/2+y,1/2-z
1/2-x,1/2-y,1/2-z
1/2+x,y,1/2-z
1/2-x,1/2+y,z
x,1/2-y,1/2+z
loop_
_atom_site_type_symbol
_atom_site_label
_atom_site_fract_x
_atom_site_fract_y
_atom_site_fract_z
Si Si1 0.610537 0.324751 0.670015
Si Si2 0.626163 0.424758 0.997689
Si Si3 0.023126 0.161741 0.134842
Si Si4 0.403546 0.899430 0.061802
Si Si5 0.211056 0.585479 0.791494
Si Si6 0.666350 0.845260 0.774830
O O1 0.550946 0.337042 0.740496
O O2 0.600243 0.335120 0.538210
O O3 0.657473 0.390138 0.710527
O O4 0.638832 0.241397 0.706670
O O5 0.605436 0.515239 0.005969
O O6 0.642187 0.397410 0.122349
O O7 0.575095 0.369499 0.945549
O O8 0.682402 0.418457 0.915194
O O9 0.000000 0.250000 0.109183
O O10 0.966856 0.106016 0.120819
O O11 0.355446 0.879435 0.156014
O O12 0.233784 0.500000 0.750000
O O13 0.263411 0.648385 0.782847
#
# Coordination Sequence:
#
# PCOD9533395 Si02
#       6
#    16  16  16  16  16  16
#     4  11  26  46  69 103 143 187 244 293 364 433
#     4  11  25  46  72 105 144 188 240 297 361 433
#     4  11  24  45  71 100 145 190 236 300 357 422
#     4  12  25  46  72 109 142 190 243 297 362 439
#     4  11  23  48  73 102 145 190 235 296 359 433
#     4  12  26  44  73 105 143 186 243 296 365 430
#
# _framework density 21.090578000000001
#
# number of rings (size 3 to 8) (size 9 to 14) (size 15 to 20)
#    0.000    0.667    3.333    4.000    4.667    1.333 
#    6.000    0.000    0.000    0.000    0.000    0.000 
#    0.000    0.000    0.000    0.000    0.000    0.000 
#
# Total GULP energy -268617.388570 kJ/mol
# GULP energy per Si atom -5596.195595 kJ/mol
# Density = 2.104257 g / cm^3
# Si number density = 21.090578 Si / 1000 Ang^3
#
#
#
# Elastic Constant Matrix: (Units=GPa)
#
#
# Indices 1 2 3 4 5 6 
#
# 1 122.9801 23.8329 66.7129 0.0000 0.0000 0.0000
# 2 23.8329 53.2955 49.2569 0.0000 0.0000 0.0000
# 3 66.7129 49.2569 118.5908 0.0000 0.0000 0.0000
# 4 0.0000 0.0000 0.0000 20.9588 0.0000 0.0000
# 5 0.0000 0.0000 0.0000 0.0000 25.7263 0.0000
# 6 0.0000 0.0000 0.0000 0.0000 0.0000 23.8943
#
#
#
# Elastic Compliance Matrix: (Units=1/GPa)
#
#
# Indices 1 2 3 4 5 6 
#
# 1 0.011766 0.001389 -0.007196 0.000000 0.000000 0.000000
# 2 0.001389 0.030618 -0.013499 0.000000 0.000000 0.000000
# 3 -0.007196 -0.013499 0.018087 0.000000 0.000000 0.000000
# 4 0.000000 0.000000 0.000000 0.047713 0.000000 0.000000
# 5 0.000000 0.000000 0.000000 0.000000 0.038871 0.000000
# 6 0.000000 0.000000 0.000000 0.000000 0.000000 0.041851
#
#
# Mechanical properties :
#
#
# Convention : Reuss Voigt Hill
#
# Bulk Modulus (GPa) = 45.74580 63.83023 54.78801
# Shear Modulus (GPa) = 21.29457 24.45346 22.87402
#
# Velocity S-wave (km/s) = 3.18098 3.40876 3.29684
# Velocity P-wave (km/s) = 5.93538 6.76930 6.36601
#
# Compressibility (1/GPa) = 0.02185993
#
# Stress axis : x y z
#
# Youngs Moduli (GPa) = 84.99333 32.66072 55.28873
#
# Poissons Ratio (x) = -0.04536 0.39784
# Poissons Ratio (y) = -0.11805 0.74632
# Poissons Ratio (z) = 0.61158 0.44087
#
# Static dielectric constant tensor:
#      x y z
#    x 1.745370 0.000000 0.000000 
#    y 0.000000 1.781680 0.000000 
#    z 0.000000 0.000000 1.730230 
# 
# From -- ./inp_files/13644.got.cif
#   From: 2010.05.17/outbox.cif.g08.bks.cpg/sg73_7_cif.got.tgz:13644.got - 2010.06.03 17:35:07.
