data_PCOD9533655
_publ_section_title
;
Structure prediction by ZEFSAII (Michael W. Deem and Ramdas Pophale) SiO2 
 PCOD9533655
Probable space group: I B C A 
;
_chemical_formula_sum "Si O2"
_cell_formula_units_Z 104
_cell_length_a 9.450805
_cell_length_b 26.871081
_cell_length_c 16.492353
_cell_angle_alpha 90.000000
_cell_angle_beta 90.000000
_cell_angle_gamma 90.000000
_cell_volume 4188.288239
_symmetry_space_group_name_H-M "I B C A "
_symmetry_group_IT_number 73
_symmetry_cell_setting 'orthorhombic'
loop_
_space_group_symop_operation_xyz
x,y,z
-x,1/2-y,z
x,-y,1/2-z
1/2-x,y,-z
-x,-y,-z
x,1/2+y,-z
-x,y,1/2+z
1/2+x,-y,z
1/2+x,1/2+y,1/2+z
1/2-x,-y,1/2+z
1/2+x,1/2-y,-z
-x,1/2+y,1/2-z
1/2-x,1/2-y,1/2-z
1/2+x,y,1/2-z
1/2-x,1/2+y,z
x,1/2-y,1/2+z
loop_
_atom_site_type_symbol
_atom_site_label
_atom_site_fract_x
_atom_site_fract_y
_atom_site_fract_z
Si Si1 0.048603 0.390020 0.957980
Si Si2 0.827375 0.699765 0.719484
Si Si3 0.250000 0.685278 0.500000
Si Si4 0.070090 0.865220 0.236802
Si Si5 0.000000 0.250000 0.919683
Si Si6 0.576391 0.537400 0.191755
Si Si7 0.250000 0.078310 0.000000
Si Si8 0.333812 0.515351 0.400507
O O1 0.076016 0.373018 0.862641
O O2 0.090771 0.448045 0.964114
O O3 0.133424 0.357322 0.023469
O O4 0.883592 0.388798 0.977400
O O5 0.750000 0.750000 0.750000
O O6 0.719290 0.653589 0.727878
O O7 0.903491 0.713805 0.635666
O O8 0.965429 0.679404 0.765272
O O9 0.371415 0.721311 0.463662
O O10 0.002504 0.914965 0.273275
O O11 0.661817 0.500000 0.250000
O O12 0.459436 0.499501 0.158753
O O13 0.702727 0.547858 0.130561
O O14 0.219283 0.038435 0.070679
#
# Coordination Sequence:
#
# PCOD9533655 Si02
#       8
#    16  16   8  16   8  16   8  16
#     4  12  26  50  76 114 158 209 275 323 389 494
#     4  12  24  53  80 115 155 194 267 337 422 479
#     4  12  29  55  82 112 160 206 280 323 407 498
#     4  12  26  47  81 119 154 206 264 334 411 482
#     4  12  28  58  80 116 156 208 260 346 412 490
#     4  12  26  42  72 110 158 205 258 331 397 471
#     4  12  27  47  72 106 160 224 262 319 385 472
#     4  12  25  46  69 107 162 211 267 325 388 464
#
# _framework density 24.831147999999999
#
# number of rings (size 3 to 8) (size 9 to 14) (size 15 to 20)
#    0.000    0.000    6.154    2.308    6.462    0.615 
#    8.308    0.000    0.000    0.000    0.000    0.000 
#    0.000    0.000    0.000    0.000    0.000    0.000 
#
# Total GULP energy -289667.850999 kJ/mol
# GULP energy per Si atom -5570.535596 kJ/mol
# Density = 2.477463 g / cm^3
# Si number density = 24.831148 Si / 1000 Ang^3
#
#
#
# Elastic Constant Matrix: (Units=GPa)
#
#
# Indices 1 2 3 4 5 6 
#
# 1 207.7276 53.9776 53.2547 0.0000 0.0000 0.0000
# 2 53.9776 123.8824 31.0459 0.0000 0.0000 0.0000
# 3 53.2547 31.0459 51.9412 0.0000 0.0000 0.0000
# 4 0.0000 0.0000 0.0000 12.7907 0.0000 0.0000
# 5 0.0000 0.0000 0.0000 0.0000 31.6523 0.0000
# 6 0.0000 0.0000 0.0000 0.0000 0.0000 68.5706
#
#
#
# Elastic Compliance Matrix: (Units=1/GPa)
#
#
# Indices 1 2 3 4 5 6 
#
# 1 0.006735 -0.001416 -0.006059 0.000000 0.000000 0.000000
# 2 -0.001416 0.009792 -0.004401 0.000000 0.000000 0.000000
# 3 -0.006059 -0.004401 0.028095 0.000000 0.000000 0.000000
# 4 0.000000 0.000000 0.000000 0.078182 0.000000 0.000000
# 5 0.000000 0.000000 0.000000 0.000000 0.031593 0.000000
# 6 0.000000 0.000000 0.000000 0.000000 0.000000 0.014584
#
#
# Mechanical properties :
#
#
# Convention : Reuss Voigt Hill
#
# Bulk Modulus (GPa) = 47.91482 73.34529 60.63005
# Shear Modulus (GPa) = 25.03867 38.95425 31.99646
#
# Velocity S-wave (km/s) = 3.17891 3.96506 3.59355
# Velocity P-wave (km/s) = 5.72818 7.11084 6.45663
#
# Compressibility (1/GPa) = 0.02087037
#
# Stress axis : x y z
#
# Youngs Moduli (GPa) = 148.46953 102.12283 35.59302
#
# Poissons Ratio (x) = 0.14463 0.21567
# Poissons Ratio (y) = 0.21027 0.15664
# Poissons Ratio (z) = 0.89961 0.44943
#
# Static dielectric constant tensor:
#      x y z
#    x 1.892770 0.000000 0.000000 
#    y 0.000000 1.900500 0.000000 
#    z 0.000000 0.000000 2.379740 
# 
# From -- ./inp_files/24997.got.cif
#   From: 2010.05.17/outbox.cif.g08.bks.cpg/sg73_13_cif.got.tgz:24997.got - 2010.06.03 17:35:07.
