data_PCOD9533853
_publ_section_title
;
Structure prediction by ZEFSAII (Michael W. Deem and Ramdas Pophale) SiO2 
 PCOD9533853
Probable space group: I M M A
;
_chemical_formula_sum "Si O2"
_cell_formula_units_Z 80
_cell_length_a 21.073988
_cell_length_b 18.383704
_cell_length_c 13.967589
_cell_angle_alpha 90.000000
_cell_angle_beta 90.000000
_cell_angle_gamma 90.000000
_cell_volume 5411.294801
_symmetry_space_group_name_H-M "I M M A"
_symmetry_group_IT_number 74
_symmetry_cell_setting 'orthorhombic'
loop_
_space_group_symop_operation_xyz
x,y,z
-x,1/2-y,z
x,-y,-z
-x,1/2+y,-z
-x,-y,-z
x,1/2+y,-z
-x,y,z
x,1/2-y,z
1/2+x,1/2+y,1/2+z
1/2-x,-y,1/2+z
1/2+x,1/2-y,1/2-z
1/2-x,y,1/2-z
1/2-x,1/2-y,1/2-z
1/2+x,y,1/2-z
1/2-x,1/2+y,1/2+z
1/2+x,-y,1/2+z
loop_
_atom_site_type_symbol
_atom_site_label
_atom_site_fract_x
_atom_site_fract_y
_atom_site_fract_z
Si Si1 0.317554 0.831476 0.303206
Si Si2 0.648858 0.486956 0.729562
Si Si3 0.810655 0.165873 0.032589
Si Si4 0.927206 0.436678 0.079456
Si Si5 0.268022 0.962999 0.897858
O O1 0.343467 0.750000 0.285314
O O2 0.250000 0.836762 0.250000
O O3 0.358217 0.899927 0.266874
O O4 0.306457 0.838207 0.417171
O O5 0.589972 0.526689 0.680848
O O6 0.673133 0.522589 0.827805
O O7 0.707647 0.500322 0.655538
O O8 0.809350 0.250000 0.060684
O O9 0.876586 0.126653 0.060280
O O10 0.754675 0.119174 0.081612
O O11 0.000000 0.412795 0.074106
O O12 0.917298 0.500000 0.000000
O O13 0.277673 0.000000 0.000000
#
# Coordination Sequence:
#
# PCOD9533853 Si02
#       5
#    16  16  16  16  16
#     4  10  16  24  41  67  94 116 139 178 228 273
#     4  10  16  28  45  64  89 119 151 184 217 271
#     4  10  18  29  44  66  95 118 148 185 226 273
#     4  10  19  32  47  62  85 120 161 191 223 264
#     4  10  16  27  44  66  90 119 148 174 225 276
#
# _framework density 14.783892
#
# number of rings (size 3 to 8) (size 9 to 14) (size 15 to 20)
#    0.000    2.000    6.000    1.200    0.000    0.400 
#    0.000    8.000    0.000    1.200    0.000    0.000 
#    0.000    0.000    0.000    0.400    0.000    0.000 
#
# Total GULP energy -222768.448152 kJ/mol
# GULP energy per Si atom -5569.211204 kJ/mol
# Density = 1.475024 g / cm^3
# Si number density = 14.783892 Si / 1000 Ang^3
#
#
#
# Elastic Constant Matrix: (Units=GPa)
#
#
# Indices 1 2 3 4 5 6 
#
# 1 30.1757 32.3887 30.5640 0.0000 0.0000 0.0000
# 2 32.3887 142.2849 39.2401 0.0000 0.0000 0.0000
# 3 30.5640 39.2401 81.7612 0.0000 0.0000 0.0000
# 4 0.0000 0.0000 0.0000 21.0898 0.0000 0.0000
# 5 0.0000 0.0000 0.0000 0.0000 14.3702 0.0000
# 6 0.0000 0.0000 0.0000 0.0000 0.0000 12.3993
#
#
#
# Elastic Compliance Matrix: (Units=1/GPa)
#
#
# Indices 1 2 3 4 5 6 
#
# 1 0.061703 -0.008857 -0.018815 0.000000 0.000000 0.000000
# 2 -0.008857 0.009372 -0.001187 0.000000 0.000000 0.000000
# 3 -0.018815 -0.001187 0.019834 0.000000 0.000000 0.000000
# 4 0.000000 0.000000 0.000000 0.047416 0.000000 0.000000
# 5 0.000000 0.000000 0.000000 0.000000 0.069588 0.000000
# 6 0.000000 0.000000 0.000000 0.000000 0.000000 0.080650
#
#
# Mechanical properties :
#
#
# Convention : Reuss Voigt Hill
#
# Bulk Modulus (GPa) = 30.12889 50.95637 40.54263
# Shear Modulus (GPa) = 13.99212 19.70711 16.84962
#
# Velocity S-wave (km/s) = 3.07977 3.65501 3.37965
# Velocity P-wave (km/s) = 5.75069 7.23563 6.53547
#
# Compressibility (1/GPa) = 0.03319074
#
# Stress axis : x y z
#
# Youngs Moduli (GPa) = 16.20674 106.70585 50.41880
#
# Poissons Ratio (x) = 0.94506 0.94864
# Poissons Ratio (y) = 0.14354 0.05984
# Poissons Ratio (z) = 0.30493 0.12665
#
# Static dielectric constant tensor:
#      x y z
#    x 1.460090 0.000000 0.000000 
#    y 0.000000 1.523940 0.000000 
#    z 0.000000 0.000000 1.493300 
# 
# From -- ./inp_files/34164.got.cif
#   From: 2010.05.17/outbox.cif.g08.bks.cpg/sg74_18_cif.got.tgz:34164.got - 2010.06.03 17:57:02.
