data_PCOD9533608
_publ_section_title
;
Structure prediction by ZEFSAII (Michael W. Deem and Ramdas Pophale) SiO2 
 PCOD9533608
Probable space group: I B C A 
;
_chemical_formula_sum "Si O2"
_cell_formula_units_Z 88
_cell_length_a 23.191770
_cell_length_b 12.629691
_cell_length_c 13.028251
_cell_angle_alpha 90.000000
_cell_angle_beta 90.000000
_cell_angle_gamma 90.000000
_cell_volume 3816.038411
_symmetry_space_group_name_H-M "I B C A "
_symmetry_group_IT_number 73
_symmetry_cell_setting 'orthorhombic'
loop_
_space_group_symop_operation_xyz
x,y,z
-x,1/2-y,z
x,-y,1/2-z
1/2-x,y,-z
-x,-y,-z
x,1/2+y,-z
-x,y,1/2+z
1/2+x,-y,z
1/2+x,1/2+y,1/2+z
1/2-x,-y,1/2+z
1/2+x,1/2-y,-z
-x,1/2+y,1/2-z
1/2-x,1/2-y,1/2-z
1/2+x,y,1/2-z
1/2-x,1/2+y,z
x,1/2-y,1/2+z
loop_
_atom_site_type_symbol
_atom_site_label
_atom_site_fract_x
_atom_site_fract_y
_atom_site_fract_z
Si Si1 0.569259 0.895480 0.685797
Si Si2 0.736307 0.500000 0.750000
Si Si3 0.250000 0.826295 0.500000
Si Si4 0.500000 0.250000 0.162462
Si Si5 0.039765 0.481667 0.872945
Si Si6 0.663726 0.480621 0.950060
Si Si7 0.309203 0.850390 0.107917
O O1 0.545349 0.808083 0.763564
O O2 0.623531 0.842302 0.633306
O O3 0.587928 0.000000 0.750000
O O4 0.517195 0.944111 0.615883
O O5 0.694186 0.463303 0.841233
O O6 0.777540 0.415560 0.695970
O O7 0.193936 0.896610 0.525965
O O8 0.227071 0.753880 0.409455
O O9 0.472720 0.355637 0.109475
O O10 0.052230 0.500000 0.750000
O O11 0.095472 0.519531 0.935690
O O12 0.686190 0.589761 0.998210
#
# Coordination Sequence:
#
# PCOD9533608 Si02
#       7
#    16   8   8   8  16  16  16
#     4   9  20  39  69 102 138 182 232 299 361 422
#     4  12  22  48  68  92 142 194 220 300 362 416
#     4  12  26  44  66 108 136 180 248 290 350 428
#     4   8  18  40  64 110 130 178 244 272 364 452
#     4   9  20  40  68 102 138 181 231 298 362 427
#     4  12  25  47  66 103 145 176 243 301 348 441
#     4  12  25  46  66 102 140 182 243 295 355 439
#
# _framework density 23.060563999999999
#
# number of rings (size 3 to 8) (size 9 to 14) (size 15 to 20)
#    0.000    1.818    5.455    0.000    5.091    1.455 
#    9.818    0.909    0.000    0.000    0.000    0.000 
#    0.000    0.000    0.000    0.000    0.000    0.000 
#
# Total GULP energy -245510.051406 kJ/mol
# GULP energy per Si atom -5579.773896 kJ/mol
# Density = 2.300808 g / cm^3
# Si number density = 23.060564 Si / 1000 Ang^3
#
#
#
# Elastic Constant Matrix: (Units=GPa)
#
#
# Indices 1 2 3 4 5 6 
#
# 1 201.1305 56.1343 48.4549 0.0000 0.0000 0.0000
# 2 56.1343 109.5090 35.6429 0.0000 0.0000 0.0000
# 3 48.4549 35.6429 74.4794 0.0000 0.0000 0.0000
# 4 0.0000 0.0000 0.0000 28.7885 0.0000 0.0000
# 5 0.0000 0.0000 0.0000 0.0000 51.2556 0.0000
# 6 0.0000 0.0000 0.0000 0.0000 0.0000 8.6153
#
#
#
# Elastic Compliance Matrix: (Units=1/GPa)
#
#
# Indices 1 2 3 4 5 6 
#
# 1 0.006334 -0.002257 -0.003041 0.000000 0.000000 0.000000
# 2 -0.002257 0.011621 -0.004093 0.000000 0.000000 0.000000
# 3 -0.003041 -0.004093 0.017363 0.000000 0.000000 0.000000
# 4 0.000000 0.000000 0.000000 0.034736 0.000000 0.000000
# 5 0.000000 0.000000 0.000000 0.000000 0.019510 0.000000
# 6 0.000000 0.000000 0.000000 0.000000 0.000000 0.116073
#
#
# Mechanical properties :
#
#
# Convention : Reuss Voigt Hill
#
# Bulk Modulus (GPa) = 60.47023 73.95368 67.21196
# Shear Modulus (GPa) = 21.74559 34.05767 27.90163
#
# Velocity S-wave (km/s) = 3.07413 3.84719 3.48218
# Velocity P-wave (km/s) = 6.23535 7.20232 6.73621
#
# Compressibility (1/GPa) = 0.01653706
#
# Stress axis : x y z
#
# Youngs Moduli (GPa) = 157.86628 86.05212 57.59231
#
# Poissons Ratio (x) = 0.19425 0.17513
# Poissons Ratio (y) = 0.35636 0.23571
# Poissons Ratio (z) = 0.48004 0.35219
#
# Static dielectric constant tensor:
#      x y z
#    x 1.876820 0.000000 0.000000 
#    y 0.000000 1.928740 0.000000 
#    z 0.000000 0.000000 1.977680 
# 
# From -- ./inp_files/19770.got.cif
#   From: 2010.05.17/outbox.cif.g08.bks.cpg/sg73_10_cif.got.tgz:19770.got - 2010.06.03 17:35:07.
