data_PCOD9533214
_publ_section_title
;
Structure prediction by ZEFSAII (Michael W. Deem and Ramdas Pophale) SiO2 
 PCOD9533214
Probable space group: I B C A 
;
_chemical_formula_sum "Si O2"
_cell_formula_units_Z 112
_cell_length_a 14.129865
_cell_length_b 28.823144
_cell_length_c 12.669034
_cell_angle_alpha 90.000000
_cell_angle_beta 90.000000
_cell_angle_gamma 90.000000
_cell_volume 5159.681163
_symmetry_space_group_name_H-M "I B C A "
_symmetry_group_IT_number 73
_symmetry_cell_setting 'orthorhombic'
loop_
_space_group_symop_operation_xyz
x,y,z
-x,1/2-y,z
x,-y,1/2-z
1/2-x,y,-z
-x,-y,-z
x,1/2+y,-z
-x,y,1/2+z
1/2+x,-y,z
1/2+x,1/2+y,1/2+z
1/2-x,-y,1/2+z
1/2+x,1/2-y,-z
-x,1/2+y,1/2-z
1/2-x,1/2-y,1/2-z
1/2+x,y,1/2-z
1/2-x,1/2+y,z
x,1/2-y,1/2+z
loop_
_atom_site_type_symbol
_atom_site_label
_atom_site_fract_x
_atom_site_fract_y
_atom_site_fract_z
Si Si1 0.108577 0.573245 0.773261
Si Si2 0.480959 0.804298 0.082007
Si Si3 0.151219 0.851835 0.744322
Si Si4 0.187865 0.650592 0.895426
Si Si5 0.792421 0.044251 0.181842
Si Si6 0.481644 0.132561 0.596003
Si Si7 0.537927 0.955040 0.557086
O O1 0.170149 0.596273 0.867155
O O2 0.179305 0.544800 0.697785
O O3 0.074857 0.614839 0.697569
O O4 0.018855 0.550615 0.831484
O O5 0.500000 0.750000 0.086657
O O6 0.406945 0.823357 0.168510
O O7 0.584311 0.827495 0.097004
O O8 0.445749 0.822959 0.968117
O O9 0.249032 0.830571 0.702060
O O10 0.173745 0.904136 0.783244
O O11 0.084296 0.857030 0.642671
O O12 0.250000 0.656366 0.000000
O O13 0.849767 0.039336 0.074049
O O14 0.825422 0.000000 0.250000
O O15 0.481236 0.090371 0.512829
O O16 0.500000 0.000000 0.500000
#
# Coordination Sequence:
#
# PCOD9533214 Si02
#       7
#    16  16  16  16  16  16  16
#     4  11  25  44  69 101 141 188 236 297 361 432
#     4  12  26  46  72 108 144 189 246 302 380 441
#     4  11  22  45  72  98 143 190 236 304 360 431
#     4  11  21  44  74 100 136 185 238 286 360 446
#     4  11  24  42  66 102 141 188 241 286 354 436
#     4  12  21  46  70  96 143 183 238 294 369 423
#     4  12  25  42  72 101 139 192 236 298 364 433
#
# _framework density 21.706768
#
# number of rings (size 3 to 8) (size 9 to 14) (size 15 to 20)
#    0.000    0.571    7.143    0.857    2.000    2.857 
#    0.000    2.857    0.000    0.000    0.000    0.000 
#    0.000    0.000    0.000    0.000    0.000    0.000 
#
# Total GULP energy -312556.483007 kJ/mol
# GULP energy per Si atom -5581.365768 kJ/mol
# Density = 2.165736 g / cm^3
# Si number density = 21.706768 Si / 1000 Ang^3
#
#
#
# Elastic Constant Matrix: (Units=GPa)
#
#
# Indices 1 2 3 4 5 6 
#
# 1 95.6996 9.4038 42.2154 0.0001 0.0000 0.0000
# 2 9.4038 92.3812 24.9575 0.0002 0.0000 0.0000
# 3 42.2154 24.9575 85.3177 0.0007 -0.0001 -0.0001
# 4 0.0001 0.0002 0.0007 24.4217 0.0000 0.0000
# 5 0.0000 0.0000 -0.0001 0.0000 34.6115 0.0000
# 6 0.0000 0.0000 -0.0001 0.0000 0.0000 20.4472
#
#
#
# Elastic Compliance Matrix: (Units=1/GPa)
#
#
# Indices 1 2 3 4 5 6 
#
# 1 0.013385 0.000463 -0.006759 0.000000 0.000000 0.000000
# 2 0.000463 0.011770 -0.003672 0.000000 0.000000 0.000000
# 3 -0.006759 -0.003672 0.016139 0.000000 0.000000 0.000000
# 4 0.000000 0.000000 0.000000 0.040947 0.000000 0.000000
# 5 0.000000 0.000000 0.000000 0.000000 0.028892 0.000000
# 6 0.000000 0.000000 0.000000 0.000000 0.000000 0.048906
#
#
# Mechanical properties :
#
#
# Convention : Reuss Voigt Hill
#
# Bulk Modulus (GPa) = 46.81801 47.39465 47.10633
# Shear Modulus (GPa) = 26.72448 29.01753 27.87100
#
# Velocity S-wave (km/s) = 3.51259 3.66019 3.58715
# Velocity P-wave (km/s) = 6.16979 6.30429 6.23740
#
# Compressibility (1/GPa) = 0.02135930
#
# Stress axis : x y z
#
# Youngs Moduli (GPa) = 74.70944 84.96454 61.96077
#
# Poissons Ratio (x) = -0.03937 0.41877
# Poissons Ratio (y) = -0.03462 0.22753
# Poissons Ratio (z) = 0.50493 0.31200
#
# Static dielectric constant tensor:
#      x y z
#    x 1.838490 0.000000 0.000000 
#    y 0.000000 1.795610 0.000000 
#    z 0.000000 0.000000 1.847510 
# 
# From -- ./inp_files/11256.got.cif
#   From: 2010.05.17/outbox.cif.g08.bks.cpg/sg73_6_cif.got.tgz:11256.got - 2010.06.03 17:35:07.
