data_PCOD9533919
_publ_section_title
;
Structure prediction by ZEFSAII (Michael W. Deem and Ramdas Pophale) SiO2 
 PCOD9533919
Probable space group: I M M A
;
_chemical_formula_sum "Si O2"
_cell_formula_units_Z 88
_cell_length_a 20.339377
_cell_length_b 9.043465
_cell_length_c 27.613449
_cell_angle_alpha 90.000000
_cell_angle_beta 90.000000
_cell_angle_gamma 90.000000
_cell_volume 5079.174843
_symmetry_space_group_name_H-M "I M M A"
_symmetry_group_IT_number 74
_symmetry_cell_setting 'orthorhombic'
loop_
_space_group_symop_operation_xyz
x,y,z
-x,1/2-y,z
x,-y,-z
-x,1/2+y,-z
-x,-y,-z
x,1/2+y,-z
-x,y,z
x,1/2-y,z
1/2+x,1/2+y,1/2+z
1/2-x,-y,1/2+z
1/2+x,1/2-y,1/2-z
1/2-x,y,1/2-z
1/2-x,1/2-y,1/2-z
1/2+x,y,1/2-z
1/2-x,1/2+y,1/2+z
1/2+x,-y,1/2+z
loop_
_atom_site_type_symbol
_atom_site_label
_atom_site_fract_x
_atom_site_fract_y
_atom_site_fract_z
Si Si1 0.500000 0.417150 0.320225
Si Si2 0.145122 0.427659 0.174020
Si Si3 0.852196 0.584978 0.273414
Si Si4 0.364170 0.570470 0.946997
Si Si5 0.230760 0.073524 0.629652
Si Si6 0.000000 0.495307 0.711369
Si Si7 0.000000 0.078647 0.399294
O O1 0.500000 0.250000 0.338635
O O2 0.429854 0.483229 0.334861
O O3 0.500000 0.412655 0.261396
O O4 0.147392 0.250000 0.169478
O O5 0.160095 0.473267 0.229568
O O6 0.197937 0.505989 0.140232
O O7 0.832870 0.750000 0.257201
O O8 0.812333 0.547311 0.321645
O O9 0.929986 0.586043 0.285409
O O10 0.362231 0.750000 0.948706
O O11 0.305613 0.508714 0.913930
O O12 0.432647 0.518114 0.921777
O O13 0.361054 0.500000 0.000000
O O14 0.233213 0.250000 0.621775
O O15 0.000000 0.569409 0.658780
O O16 0.000000 0.250000 0.412983
#
# Coordination Sequence:
#
# PCOD9533919 Si02
#       7
#     8  16  16  16  16   8   8
#     4   8  17  31  50  75 108 139 174 218 261 312
#     4  10  20  34  53  77 105 141 178 218 266 321
#     4  10  20  32  48  73 106 142 182 224 265 312
#     4  11  23  40  58  80 106 140 183 231 279 323
#     4  11  22  36  53  76 106 140 178 224 272 323
#     4  10  16  31  49  74 103 146 188 224 263 308
#     4  10  20  34  55  79 106 140 186 233 273 315
#
# _framework density 17.325648999999999
#
# number of rings (size 3 to 8) (size 9 to 14) (size 15 to 20)
#    0.000    1.818    1.818    3.000    0.000    4.364 
#    0.000    2.727    0.000    0.000    0.000    0.636 
#    0.000    0.000    0.000    0.000    0.000    0.000 
#
# Total GULP energy -245346.484127 kJ/mol
# GULP energy per Si atom -5576.056457 kJ/mol
# Density = 1.728621 g / cm^3
# Si number density = 17.325649 Si / 1000 Ang^3
#
#
#
# Elastic Constant Matrix: (Units=GPa)
#
#
# Indices 1 2 3 4 5 6 
#
# 1 149.6769 42.7921 67.6685 0.0000 0.0000 0.0000
# 2 42.7921 61.0531 31.7388 0.0000 0.0000 0.0000
# 3 67.6685 31.7388 74.1790 0.0000 0.0000 0.0000
# 4 0.0000 0.0000 0.0000 23.6577 0.0000 0.0000
# 5 0.0000 0.0000 0.0000 0.0000 17.8315 0.0000
# 6 0.0000 0.0000 0.0000 0.0000 0.0000 -5.5522
#
#
#
# Elastic Compliance Matrix: (Units=1/GPa)
#
#
# Indices 1 2 3 4 5 6 
#
# 1 0.011917 -0.003474 -0.009385 0.000000 0.000000 0.000000
# 2 -0.003474 0.022077 -0.006277 0.000000 0.000000 0.000000
# 3 -0.009385 -0.006277 0.024728 0.000000 0.000000 0.000000
# 4 0.000000 0.000000 0.000000 0.042269 0.000000 0.000000
# 5 0.000000 0.000000 0.000000 0.000000 0.056080 0.000000
# 6 0.000000 0.000000 0.000000 0.000000 0.000000 -0.180108
#
#
# Mechanical properties :
#
#
# Convention : Reuss Voigt Hill
#
# Bulk Modulus (GPa) = 48.89860 63.25642 56.07751
# Shear Modulus (GPa) = 226.73173 16.70138 121.71655
#
# Velocity S-wave (km/s) = 11.45203 3.10815 8.39075
# Velocity P-wave (km/s) = 14.25306 7.03352 11.23877
#
# Compressibility (1/GPa) = 0.02045048
#
# Stress axis : x y z
#
# Youngs Moduli (GPa) = 83.91332 45.29549 40.44043
#
# Poissons Ratio (x) = 0.15736 0.37952
# Poissons Ratio (y) = 0.29151 0.25385
# Poissons Ratio (z) = 0.78750 0.28432
#
# Static dielectric constant tensor:
#      x y z
#    x 1.627880 0.000000 0.000000 
#    y 0.000000 1.598220 0.000000 
#    z 0.000000 0.000000 1.549490 
# 
# From -- ./inp_files/61510.got.cif
#   From: 2010.05.17/outbox.cif.g08.bks.cpg/sg74_31_cif.got.tgz:61510.got - 2010.06.03 17:57:02.
