data_PCOD9533535
_publ_section_title
;
Structure prediction by ZEFSAII (Michael W. Deem and Ramdas Pophale) SiO2 
 PCOD9533535
Probable space group: I B C A 
;
_chemical_formula_sum "Si O2"
_cell_formula_units_Z 104
_cell_length_a 12.705237
_cell_length_b 14.292699
_cell_length_c 22.794304
_cell_angle_alpha 90.000000
_cell_angle_beta 90.000000
_cell_angle_gamma 90.000000
_cell_volume 4139.266173
_symmetry_space_group_name_H-M "I B C A "
_symmetry_group_IT_number 73
_symmetry_cell_setting 'orthorhombic'
loop_
_space_group_symop_operation_xyz
x,y,z
-x,1/2-y,z
x,-y,1/2-z
1/2-x,y,-z
-x,-y,-z
x,1/2+y,-z
-x,y,1/2+z
1/2+x,-y,z
1/2+x,1/2+y,1/2+z
1/2-x,-y,1/2+z
1/2+x,1/2-y,-z
-x,1/2+y,1/2-z
1/2-x,1/2-y,1/2-z
1/2+x,y,1/2-z
1/2-x,1/2+y,z
x,1/2-y,1/2+z
loop_
_atom_site_type_symbol
_atom_site_label
_atom_site_fract_x
_atom_site_fract_y
_atom_site_fract_z
Si Si1 0.270385 0.569561 0.114156
Si Si2 0.674033 0.738877 0.848007
Si Si3 0.000000 0.250000 0.252749
Si Si4 0.032838 0.610413 0.836106
Si Si5 0.750000 0.457042 0.500000
Si Si6 0.189359 0.438071 0.195279
Si Si7 0.974289 0.899375 0.471896
Si Si8 0.500000 0.750000 0.940242
O O1 0.244638 0.677700 0.124484
O O2 0.370396 0.541346 0.154551
O O3 0.287368 0.527858 0.050766
O O4 0.177354 0.508825 0.140528
O O5 0.593698 0.778954 0.798448
O O6 0.759267 0.848429 0.677173
O O7 0.593427 0.710445 0.899880
O O8 0.071564 0.194568 0.204662
O O9 0.932068 0.588284 0.796998
O O10 0.001688 0.625349 0.904352
O O11 0.847548 0.394119 0.521134
O O12 0.225516 0.500000 0.250000
O O13 0.035331 0.830306 0.515478
O O14 0.000000 0.000000 0.500000
#
# Coordination Sequence:
#
# PCOD9533535 Si02
#       8
#    16  16   8  16   8  16  16   8
#     4  12  26  47  75 110 152 199 251 316 382 455
#     4  11  27  50  76 108 153 196 258 312 383 461
#     4  11  25  50  72 108 147 199 250 320 374 461
#     4  12  26  43  74 109 151 195 256 308 384 448
#     4  12  24  48  80 108 158 206 252 314 388 462
#     4  12  27  48  76 111 149 202 253 313 384 458
#     4  12  25  49  74 112 156 194 254 313 380 458
#     4  11  27  46  78 112 151 201 248 318 386 451
#
# _framework density 25.125226000000001
#
# number of rings (size 3 to 8) (size 9 to 14) (size 15 to 20)
#    0.000    0.308    3.077    5.077    0.000    4.923 
#    0.000    0.000    0.000    0.000    0.000    0.000 
#    0.000    0.000    0.000    0.000    0.000    0.000 
#
# Total GULP energy -290128.324853 kJ/mol
# GULP energy per Si atom -5579.390863 kJ/mol
# Density = 2.506804 g / cm^3
# Si number density = 25.125226 Si / 1000 Ang^3
#
#
#
# Elastic Constant Matrix: (Units=GPa)
#
#
# Indices 1 2 3 4 5 6 
#
# 1 61.6476 -9.3837 13.7554 0.0000 0.0000 0.0000
# 2 -9.3837 83.4917 31.9915 0.0000 0.0000 0.0000
# 3 13.7554 31.9915 172.4251 0.0000 0.0000 0.0000
# 4 0.0000 0.0000 0.0000 41.0051 0.0000 0.0000
# 5 0.0000 0.0000 0.0000 0.0000 33.8121 0.0000
# 6 0.0000 0.0000 0.0000 0.0000 0.0000 16.0375
#
#
#
# Elastic Compliance Matrix: (Units=1/GPa)
#
#
# Indices 1 2 3 4 5 6 
#
# 1 0.017032 0.002621 -0.001845 0.000000 0.000000 0.000000
# 2 0.002621 0.013297 -0.002676 0.000000 0.000000 0.000000
# 3 -0.001845 -0.002676 0.006443 0.000000 0.000000 0.000000
# 4 0.000000 0.000000 0.000000 0.024387 0.000000 0.000000
# 5 0.000000 0.000000 0.000000 0.000000 0.029575 0.000000
# 6 0.000000 0.000000 0.000000 0.000000 0.000000 0.062354
#
#
# Mechanical properties :
#
#
# Convention : Reuss Voigt Hill
#
# Bulk Modulus (GPa) = 30.32848 43.36565 36.84706
# Shear Modulus (GPa) = 29.78318 36.91769 33.35044
#
# Velocity S-wave (km/s) = 3.44668 3.83737 3.64726
# Velocity P-wave (km/s) = 5.28551 6.07710 5.69507
#
# Compressibility (1/GPa) = 0.03297231
#
# Stress axis : x y z
#
# Youngs Moduli (GPa) = 58.71333 75.20319 155.19846
#
# Poissons Ratio (x) = -0.19712 0.28635
# Poissons Ratio (y) = -0.15390 0.41535
# Poissons Ratio (z) = 0.10833 0.20126
#
# Static dielectric constant tensor:
#      x y z
#    x 2.108050 0.000000 0.000000 
#    y 0.000000 3.042150 0.000000 
#    z 0.000000 0.000000 1.981530 
# 
# From -- ./inp_files/26161.got.cif
#   From: 2010.05.17/outbox.cif.g08.bks.cpg/sg73_14_cif.got.tgz:26161.got - 2010.06.03 17:35:07.
