data_PCOD9533524
_publ_section_title
;
Structure prediction by ZEFSAII (Michael W. Deem and Ramdas Pophale) SiO2 
 PCOD9533524
Probable space group: I B C A 
;
_chemical_formula_sum "Si O2"
_cell_formula_units_Z 96
_cell_length_a 14.087667
_cell_length_b 14.074076
_cell_length_c 22.145969
_cell_angle_alpha 90.000000
_cell_angle_beta 90.000000
_cell_angle_gamma 90.000000
_cell_volume 4390.901117
_symmetry_space_group_name_H-M "I B C A "
_symmetry_group_IT_number 73
_symmetry_cell_setting 'orthorhombic'
loop_
_space_group_symop_operation_xyz
x,y,z
-x,1/2-y,z
x,-y,1/2-z
1/2-x,y,-z
-x,-y,-z
x,1/2+y,-z
-x,y,1/2+z
1/2+x,-y,z
1/2+x,1/2+y,1/2+z
1/2-x,-y,1/2+z
1/2+x,1/2-y,-z
-x,1/2+y,1/2-z
1/2-x,1/2-y,1/2-z
1/2+x,y,1/2-z
1/2-x,1/2+y,z
x,1/2-y,1/2+z
loop_
_atom_site_type_symbol
_atom_site_label
_atom_site_fract_x
_atom_site_fract_y
_atom_site_fract_z
Si Si1 0.000000 0.750000 0.146834
Si Si2 0.968050 0.142605 0.688276
Si Si3 0.562135 0.077649 0.563708
Si Si4 0.886420 0.000000 0.250000
Si Si5 0.219210 0.007005 0.640300
Si Si6 0.102016 0.565564 0.932592
Si Si7 0.817203 0.170241 0.780343
O O1 0.044788 0.666533 0.106663
O O2 0.090022 0.789549 0.184309
O O3 0.951301 0.127238 0.617636
O O4 0.871901 0.118661 0.724906
O O5 0.000000 0.250000 0.697990
O O6 0.047871 0.074091 0.715364
O O7 0.605680 0.108233 0.499432
O O8 0.629972 0.998647 0.594685
O O9 0.459180 0.029818 0.557160
O O10 0.821633 0.952094 0.199050
O O11 0.259076 0.103071 0.672670
O O12 0.300750 0.961298 0.599968
O O13 0.750000 0.250000 0.750000
#
# Coordination Sequence:
#
# PCOD9533524 Si02
#       7
#     8  16  16   8  16  16  16
#     4  12  26  52  72 114 152 196 254 322 378 452
#     4  12  25  44  72 106 148 197 245 304 387 448
#     4  11  26  48  77 100 150 197 252 308 377 443
#     4  12  24  44  72 106 152 190 238 320 380 456
#     4  12  24  46  71 107 142 193 246 302 381 452
#     4  11  25  47  73 106 142 200 248 304 370 460
#     4  12  27  44  72 112 151 191 247 314 383 456
#
# _framework density 21.863392999999999
#
# number of rings (size 3 to 8) (size 9 to 14) (size 15 to 20)
#    0.000    0.333    4.167    4.500    5.833    0.000 
#    0.000    0.000    0.000    0.000    0.000    0.000 
#    0.000    0.000    0.000    0.000    0.000    0.000 
#
# Total GULP energy -268127.034418 kJ/mol
# GULP energy per Si atom -5585.979884 kJ/mol
# Density = 2.181363 g / cm^3
# Si number density = 21.863393 Si / 1000 Ang^3
#
#
#
# Elastic Constant Matrix: (Units=GPa)
#
#
# Indices 1 2 3 4 5 6 
#
# 1 149.8706 38.4385 70.0691 0.0000 0.0000 0.0000
# 2 38.4385 81.1292 42.9430 0.0000 0.0000 0.0000
# 3 70.0691 42.9430 180.1271 0.0000 0.0000 0.0000
# 4 0.0000 0.0000 0.0000 32.2403 0.0000 0.0000
# 5 0.0000 0.0000 0.0000 0.0000 13.1766 0.0000
# 6 0.0000 0.0000 0.0000 0.0000 0.0000 37.5567
#
#
#
# Elastic Compliance Matrix: (Units=1/GPa)
#
#
# Indices 1 2 3 4 5 6 
#
# 1 0.008624 -0.002644 -0.002725 0.000000 0.000000 0.000000
# 2 -0.002644 0.014917 -0.002528 0.000000 0.000000 0.000000
# 3 -0.002725 -0.002528 0.007214 0.000000 0.000000 0.000000
# 4 0.000000 0.000000 0.000000 0.031017 0.000000 0.000000
# 5 0.000000 0.000000 0.000000 0.000000 0.075892 0.000000
# 6 0.000000 0.000000 0.000000 0.000000 0.000000 0.026626
#
#
# Mechanical properties :
#
#
# Convention : Reuss Voigt Hill
#
# Bulk Modulus (GPa) = 66.83298 79.33648 73.08473
# Shear Modulus (GPa) = 27.01673 33.90647 30.46160
#
# Velocity S-wave (km/s) = 3.51908 3.94233 3.73670
# Velocity P-wave (km/s) = 6.86634 7.55571 7.21926
#
# Compressibility (1/GPa) = 0.01496267
#
# Stress axis : x y z
#
# Youngs Moduli (GPa) = 115.95078 67.03900 138.61801
#
# Poissons Ratio (x) = 0.17725 0.37767
# Poissons Ratio (y) = 0.30658 0.35038
# Poissons Ratio (z) = 0.31591 0.16945
#
# Static dielectric constant tensor:
#      x y z
#    x 1.845390 0.000000 0.000000 
#    y 0.000000 1.788970 0.000000 
#    z 0.000000 0.000000 1.856950 
# 
# From -- ./inp_files/26027.got.cif
#   From: 2010.05.17/outbox.cif.g08.bks.cpg/sg73_14_cif.got.tgz:26027.got - 2010.06.03 17:35:07.
