data_PCOD9533691
_publ_section_title
;
Structure prediction by ZEFSAII (Michael W. Deem and Ramdas Pophale) SiO2 
 PCOD9533691
Probable space group: I B C A 
;
_chemical_formula_sum "Si O2"
_cell_formula_units_Z 64
_cell_length_a 9.850539
_cell_length_b 12.698431
_cell_length_c 18.983604
_cell_angle_alpha 90.000000
_cell_angle_beta 90.000000
_cell_angle_gamma 90.000000
_cell_volume 2374.590490
_symmetry_space_group_name_H-M "I B C A "
_symmetry_group_IT_number 73
_symmetry_cell_setting 'orthorhombic'
loop_
_space_group_symop_operation_xyz
x,y,z
-x,1/2-y,z
x,-y,1/2-z
1/2-x,y,-z
-x,-y,-z
x,1/2+y,-z
-x,y,1/2+z
1/2+x,-y,z
1/2+x,1/2+y,1/2+z
1/2-x,-y,1/2+z
1/2+x,1/2-y,-z
-x,1/2+y,1/2-z
1/2-x,1/2-y,1/2-z
1/2+x,y,1/2-z
1/2-x,1/2+y,z
x,1/2-y,1/2+z
loop_
_atom_site_type_symbol
_atom_site_label
_atom_site_fract_x
_atom_site_fract_y
_atom_site_fract_z
Si Si1 0.250000 0.248665 0.000000
Si Si2 0.418440 0.138089 0.600839
Si Si3 0.500000 0.250000 0.297925
Si Si4 0.626631 0.906162 0.094108
Si Si5 0.628740 0.599874 0.296923
O O1 0.221451 0.320297 0.932132
O O2 0.365400 0.169287 0.973396
O O3 0.500000 0.250000 0.594320
O O4 0.471073 0.101077 0.677374
O O5 0.420933 0.020233 0.569130
O O6 0.536762 0.152028 0.347719
O O7 0.622121 0.295647 0.250428
O O8 0.774571 0.906321 0.134211
O O9 0.661772 0.500000 0.250000
#
# Coordination Sequence:
#
# PCOD9533691 Si02
#       5
#     8  16   8  16  16
#     4  12  28  52  80 114 162 206 272 324 402 496
#     4  12  27  53  78 114 160 207 264 336 394 479
#     4  12  26  46  78 118 156 202 270 328 404 478
#     4  12  29  48  79 116 152 221 257 334 404 472
#     4  12  26  48  78 114 163 203 263 329 398 480
#
# _framework density 26.952013000000001
#
# number of rings (size 3 to 8) (size 9 to 14) (size 15 to 20)
#    0.000    0.000    6.250    1.500    8.750    1.000 
#    0.000    0.000    0.000    0.000    0.000    0.000 
#    0.000    0.000    0.000    0.000    0.000    0.000 
#
# Total GULP energy -178245.232391 kJ/mol
# GULP energy per Si atom -5570.163512 kJ/mol
# Density = 2.689067 g / cm^3
# Si number density = 26.952013 Si / 1000 Ang^3
#
#
#
# Elastic Constant Matrix: (Units=GPa)
#
#
# Indices 1 2 3 4 5 6 
#
# 1 57.5637 48.3245 31.3430 0.0000 0.0000 0.0000
# 2 48.3245 211.5285 38.5492 0.0000 0.0000 0.0000
# 3 31.3430 38.5492 93.9706 0.0000 0.0000 0.0000
# 4 0.0000 0.0000 0.0000 46.9977 0.0000 0.0000
# 5 0.0000 0.0000 0.0000 0.0000 9.6831 0.0000
# 6 0.0000 0.0000 0.0000 0.0000 0.0000 -51.0383
#
#
#
# Elastic Compliance Matrix: (Units=1/GPa)
#
#
# Indices 1 2 3 4 5 6 
#
# 1 0.024581 -0.004454 -0.006371 0.000000 0.000000 0.000000
# 2 -0.004454 0.005917 -0.000941 0.000000 0.000000 0.000000
# 3 -0.006371 -0.000941 0.013153 0.000000 0.000000 0.000000
# 4 0.000000 0.000000 0.000000 0.021278 0.000000 0.000000
# 5 0.000000 0.000000 0.000000 0.000000 0.103273 0.000000
# 6 0.000000 0.000000 0.000000 0.000000 0.000000 -0.019593
#
#
# Mechanical properties :
#
#
# Convention : Reuss Voigt Hill
#
# Bulk Modulus (GPa) = 49.71194 66.61067 58.16130
# Shear Modulus (GPa) = 27.95683 17.45158 22.70420
#
# Velocity S-wave (km/s) = 3.22418 2.54737 2.90555
# Velocity P-wave (km/s) = 5.68728 5.78103 5.73435
#
# Compressibility (1/GPa) = 0.02011589
#
# Stress axis : x y z
#
# Youngs Moduli (GPa) = 40.68233 169.01325 76.02871
#
# Poissons Ratio (x) = 0.75286 0.48440
# Poissons Ratio (y) = 0.18122 0.07158
# Poissons Ratio (z) = 0.25920 0.15912
#
# Static dielectric constant tensor:
#      x y z
#    x 2.250370 0.000000 0.000000 
#    y 0.000000 2.046000 0.000000 
#    z 0.000000 0.000000 2.117360 
# 
# From -- ./inp_files/9514.got.cif
#   From: 2010.05.17/outbox.cif.g08.bks.cpg/sg73_5_cif.got.tgz:9514.got - 2010.06.03 17:35:07.
