data_PCOD9533422
_publ_section_title
;
Structure prediction by ZEFSAII (Michael W. Deem and Ramdas Pophale) SiO2 
 PCOD9533422
Probable space group: I B C A 
;
_chemical_formula_sum "Si O2"
_cell_formula_units_Z 64
_cell_length_a 17.078174
_cell_length_b 5.399910
_cell_length_c 30.777826
_cell_angle_alpha 90.000000
_cell_angle_beta 90.000000
_cell_angle_gamma 90.000000
_cell_volume 2838.349659
_symmetry_space_group_name_H-M "I B C A "
_symmetry_group_IT_number 73
_symmetry_cell_setting 'orthorhombic'
loop_
_space_group_symop_operation_xyz
x,y,z
-x,1/2-y,z
x,-y,1/2-z
1/2-x,y,-z
-x,-y,-z
x,1/2+y,-z
-x,y,1/2+z
1/2+x,-y,z
1/2+x,1/2+y,1/2+z
1/2-x,-y,1/2+z
1/2+x,1/2-y,-z
-x,1/2+y,1/2-z
1/2-x,1/2-y,1/2-z
1/2+x,y,1/2-z
1/2-x,1/2+y,z
x,1/2-y,1/2+z
loop_
_atom_site_type_symbol
_atom_site_label
_atom_site_fract_x
_atom_site_fract_y
_atom_site_fract_z
Si Si1 0.199938 0.741764 0.804824
Si Si2 0.584370 0.000000 0.750000
Si Si3 0.500000 0.250000 0.173224
Si Si4 0.914406 0.122943 0.620620
Si Si5 0.905185 0.721133 0.478525
O O1 0.246194 0.485389 0.803880
O O2 0.140395 0.776566 0.764550
O O3 0.148967 0.747516 0.848642
O O4 0.533506 0.053722 0.707621
O O5 0.432513 0.356452 0.142229
O O6 0.889697 0.135971 0.570697
O O7 0.000000 0.250000 0.622633
O O8 0.876504 0.496473 0.509189
O O9 0.000000 0.750000 0.482929
#
# Coordination Sequence:
#
# PCOD9533422 Si02
#       5
#    16   8   8  16  16
#     4  12  27  46  67  97 136 181 227 280 341 404
#     4  12  24  44  66  96 134 184 236 290 344 402
#     4  12  24  42  68 102 134 176 238 294 342 400
#     4  11  24  43  69  98 134 176 224 280 338 405
#     4   9  20  35  63  99 133 164 209 273 336 398
#
# _framework density 22.548316
#
# number of rings (size 3 to 8) (size 9 to 14) (size 15 to 20)
#    0.000    1.000    2.500    3.750    8.750    2.000 
#    0.000    0.000    0.000    4.500    0.000    0.000 
#    0.000    0.000    0.000    0.000    0.000    0.000 
#
# Total GULP energy -178912.073619 kJ/mol
# GULP energy per Si atom -5591.002301 kJ/mol
# Density = 2.249699 g / cm^3
# Si number density = 22.548316 Si / 1000 Ang^3
#
#
#
# Elastic Constant Matrix: (Units=GPa)
#
#
# Indices 1 2 3 4 5 6 
#
# 1 47.7744 32.0528 27.2788 0.0000 0.0000 0.0000
# 2 32.0528 135.4326 57.5551 0.0000 0.0000 0.0000
# 3 27.2788 57.5551 166.8960 0.0000 0.0000 0.0000
# 4 0.0000 0.0000 0.0000 29.7533 0.0000 0.0000
# 5 0.0000 0.0000 0.0000 0.0000 17.1901 0.0000
# 6 0.0000 0.0000 0.0000 0.0000 0.0000 29.7201
#
#
#
# Elastic Compliance Matrix: (Units=1/GPa)
#
#
# Indices 1 2 3 4 5 6 
#
# 1 0.025721 -0.005039 -0.002466 0.000000 0.000000 0.000000
# 2 -0.005039 0.009639 -0.002500 0.000000 0.000000 0.000000
# 3 -0.002466 -0.002500 0.007257 0.000000 0.000000 0.000000
# 4 0.000000 0.000000 0.000000 0.033610 0.000000 0.000000
# 5 0.000000 0.000000 0.000000 0.000000 0.058173 0.000000
# 6 0.000000 0.000000 0.000000 0.000000 0.000000 0.033647
#
#
# Mechanical properties :
#
#
# Convention : Reuss Voigt Hill
#
# Bulk Modulus (GPa) = 44.23758 64.87515 54.55637
# Shear Modulus (GPa) = 25.56318 30.88045 28.22182
#
# Velocity S-wave (km/s) = 3.37071 3.70472 3.54166
# Velocity P-wave (km/s) = 5.90004 6.86542 6.40096
#
# Compressibility (1/GPa) = 0.02260521
#
# Stress axis : x y z
#
# Youngs Moduli (GPa) = 38.87898 103.74523 137.79545
#
# Poissons Ratio (x) = 0.52280 0.33983
# Poissons Ratio (y) = 0.19592 0.34455
# Poissons Ratio (z) = 0.09588 0.25941
#
# Static dielectric constant tensor:
#      x y z
#    x 1.881070 0.000000 0.000000 
#    y 0.000000 1.916140 0.000000 
#    z 0.000000 0.000000 1.794710 
# 
# From -- ./inp_files/1162.got.cif
#   From: 2010.05.17/outbox.cif.g08.bks.cpg/sg73_1_cif.got.tgz:1162.got - 2010.06.03 17:35:07.
