data_PCOD9533130
_publ_section_title
;
Structure prediction by ZEFSAII (Michael W. Deem and Ramdas Pophale) SiO2 
 PCOD9533130
Probable space group: I B C A 
;
_chemical_formula_sum "Si O2"
_cell_formula_units_Z 104
_cell_length_a 18.954840
_cell_length_b 9.137303
_cell_length_c 26.943538
_cell_angle_alpha 90.000000
_cell_angle_beta 90.000000
_cell_angle_gamma 90.000000
_cell_volume 4666.516144
_symmetry_space_group_name_H-M "I B C A "
_symmetry_group_IT_number 73
_symmetry_cell_setting 'orthorhombic'
loop_
_space_group_symop_operation_xyz
x,y,z
-x,1/2-y,z
x,-y,1/2-z
1/2-x,y,-z
-x,-y,-z
x,1/2+y,-z
-x,y,1/2+z
1/2+x,-y,z
1/2+x,1/2+y,1/2+z
1/2-x,-y,1/2+z
1/2+x,1/2-y,-z
-x,1/2+y,1/2-z
1/2-x,1/2-y,1/2-z
1/2+x,y,1/2-z
1/2-x,1/2+y,z
x,1/2-y,1/2+z
loop_
_atom_site_type_symbol
_atom_site_label
_atom_site_fract_x
_atom_site_fract_y
_atom_site_fract_z
Si Si1 0.673854 0.337689 0.868042
Si Si2 0.806270 0.009920 0.137035
Si Si3 0.670620 0.326770 0.759274
Si Si4 0.000000 0.250000 0.377382
Si Si5 0.172998 0.021308 0.025337
Si Si6 0.076064 0.093366 0.794753
Si Si7 0.369236 0.291517 0.555991
O O1 0.698465 0.173960 0.882185
O O2 0.731558 0.450837 0.847512
O O3 0.636769 0.311043 0.815053
O O4 0.655945 0.409540 0.920796
O O5 0.859956 0.998256 0.181921
O O6 0.828936 0.891368 0.096019
O O7 0.675002 0.500000 0.750000
O O8 0.750000 0.250000 0.750000
O O9 0.615173 0.241931 0.723398
O O10 0.977821 0.122692 0.339385
O O11 0.934502 0.273563 0.413533
O O12 0.169138 0.847362 0.032082
O O13 0.250000 0.055767 0.000000
O O14 0.116747 0.092397 0.987705
O O15 0.044822 0.000000 0.750000
#
# Coordination Sequence:
#
# PCOD9533130 Si02
#       7
#    16  16  16   8  16  16  16
#     4  12  23  37  64 106 145 183 222 275 362 430
#     4  11  22  37  64  98 145 185 223 281 344 427
#     4  12  24  38  67 108 149 187 229 290 362 430
#     4  10  28  48  76  96 138 196 244 300 344 424
#     4  12  25  42  72 107 140 183 227 299 369 427
#     4  11  23  47  69  98 138 189 241 293 353 418
#     4  11  25  47  70 101 140 184 244 295 357 422
#
# _framework density 22.286434
#
# number of rings (size 3 to 8) (size 9 to 14) (size 15 to 20)
#    0.000    0.615    4.615    3.692    4.308    1.231 
#    0.000    0.000    0.000    0.000    0.000    0.000 
#    0.000    0.000    0.000    0.000    0.000    0.000 
#
# Total GULP energy -289806.357326 kJ/mol
# GULP energy per Si atom -5573.199179 kJ/mol
# Density = 2.223571 g / cm^3
# Si number density = 22.286434 Si / 1000 Ang^3
#
#
#
# Elastic Constant Matrix: (Units=GPa)
#
#
# Indices 1 2 3 4 5 6 
#
# 1 24.7921 4.3616 31.5838 0.0000 0.0000 0.0000
# 2 4.3616 159.6178 30.5891 0.0000 0.0000 0.0000
# 3 31.5838 30.5891 145.7000 0.0000 0.0000 0.0000
# 4 0.0000 0.0000 0.0000 40.0577 0.0000 0.0000
# 5 0.0000 0.0000 0.0000 0.0000 30.0768 0.0000
# 6 0.0000 0.0000 0.0000 0.0000 0.0000 -9.7519
#
#
#
# Elastic Compliance Matrix: (Units=1/GPa)
#
#
# Indices 1 2 3 4 5 6 
#
# 1 0.055829 0.000827 -0.012276 0.000000 0.000000 0.000000
# 2 0.000827 0.006540 -0.001552 0.000000 0.000000 0.000000
# 3 -0.012276 -0.001552 0.009850 0.000000 0.000000 0.000000
# 4 0.000000 0.000000 0.000000 0.024964 0.000000 0.000000
# 5 0.000000 0.000000 0.000000 0.000000 0.033248 0.000000
# 6 0.000000 0.000000 0.000000 0.000000 0.000000 -0.102544
#
#
# Mechanical properties :
#
#
# Convention : Reuss Voigt Hill
#
# Bulk Modulus (GPa) = 21.63719 51.46434 36.55076
# Shear Modulus (GPa) = 72.15592 29.64821 50.90207
#
# Velocity S-wave (km/s) = 5.69622 3.65132 4.78430
# Velocity P-wave (km/s) = 7.27958 6.39676 6.85240
#
# Compressibility (1/GPa) = 0.04621673
#
# Stress axis : x y z
#
# Youngs Moduli (GPa) = 17.91195 152.90880 101.51904
#
# Poissons Ratio (x) = -0.12645 1.24622
# Poissons Ratio (y) = -0.01481 0.15759
# Poissons Ratio (z) = 0.21988 0.23736
#
# Static dielectric constant tensor:
#      x y z
#    x 1.921200 0.000000 0.000000 
#    y 0.000000 1.810000 0.000000 
#    z 0.000000 0.000000 1.987190 
# 
# From -- ./inp_files/7877.got.cif
#   From: 2010.05.17/outbox.cif.g08.bks.cpg/sg73_4_cif.got.tgz:7877.got - 2010.06.03 17:35:07.
