data_PCOD9533539
_publ_section_title
;
Structure prediction by ZEFSAII (Michael W. Deem and Ramdas Pophale) SiO2 
 PCOD9533539
Probable space group: I B C A 
;
_chemical_formula_sum "Si O2"
_cell_formula_units_Z 120
_cell_length_a 12.219113
_cell_length_b 27.377844
_cell_length_c 18.517427
_cell_angle_alpha 90.000000
_cell_angle_beta 90.000000
_cell_angle_gamma 90.000000
_cell_volume 6194.689842
_symmetry_space_group_name_H-M "I B C A "
_symmetry_group_IT_number 73
_symmetry_cell_setting 'orthorhombic'
loop_
_space_group_symop_operation_xyz
x,y,z
-x,1/2-y,z
x,-y,1/2-z
1/2-x,y,-z
-x,-y,-z
x,1/2+y,-z
-x,y,1/2+z
1/2+x,-y,z
1/2+x,1/2+y,1/2+z
1/2-x,-y,1/2+z
1/2+x,1/2-y,-z
-x,1/2+y,1/2-z
1/2-x,1/2-y,1/2-z
1/2+x,y,1/2-z
1/2-x,1/2+y,z
x,1/2-y,1/2+z
loop_
_atom_site_type_symbol
_atom_site_label
_atom_site_fract_x
_atom_site_fract_y
_atom_site_fract_z
Si Si1 0.967103 0.697000 0.922098
Si Si2 0.197301 0.551450 0.654887
Si Si3 0.088800 0.211287 0.927131
Si Si4 0.250000 0.722801 0.500000
Si Si5 0.434661 0.405718 0.881436
Si Si6 0.488679 0.946075 0.966096
Si Si7 0.692598 0.614556 0.422655
Si Si8 0.349723 0.060094 0.817792
O O1 0.847501 0.695445 0.959955
O O2 0.965866 0.651061 0.869021
O O3 0.000000 0.750000 0.889493
O O4 0.046221 0.695891 0.992475
O O5 0.312486 0.576416 0.635270
O O6 0.105001 0.558615 0.594021
O O7 0.202798 0.492726 0.664724
O O8 0.161380 0.570558 0.733330
O O9 0.123887 0.160579 0.892624
O O10 0.000000 0.250000 0.897361
O O11 0.196125 0.243035 0.939799
O O12 0.523146 0.438905 0.839996
O O13 0.456241 0.412576 0.966436
O O14 0.605305 0.928458 0.936236
O O15 0.500000 0.000000 0.000000
O O16 0.750000 0.625782 0.500000
O O17 0.785521 0.598193 0.367529
#
# Coordination Sequence:
#
# PCOD9533539 Si02
#       8
#    16  16  16   8  16  16  16  16
#     4   9  19  33  55  92 125 161 201 265 320 374
#     4  11  27  43  64  92 132 173 217 266 326 396
#     4   9  17  30  52  89 126 157 198 262 319 375
#     4   8  16  28  52  80 132 148 194 254 324 360
#     4  12  23  42  67  94 129 168 217 268 332 379
#     4  12  23  40  64  97 131 162 215 278 324 379
#     4  12  20  36  64  95 129 169 214 270 320 386
#     4  11  26  43  64  91 127 182 216 259 325 404
#
# _framework density 19.37143
#
# number of rings (size 3 to 8) (size 9 to 14) (size 15 to 20)
#    0.000    1.600    4.667    1.200    5.600    1.067 
#    0.000    0.000    0.000    1.600    0.000    0.933 
#    0.000    0.000    0.000    0.000    0.000    0.000 
#
# Total GULP energy -334584.571358 kJ/mol
# GULP energy per Si atom -5576.409523 kJ/mol
# Density = 1.932734 g / cm^3
# Si number density = 19.371430 Si / 1000 Ang^3
#
#
#
# Elastic Constant Matrix: (Units=GPa)
#
#
# Indices 1 2 3 4 5 6 
#
# 1 125.2077 27.2341 37.1196 0.0000 0.0000 0.0000
# 2 27.2341 89.5443 8.8975 0.0000 0.0000 0.0000
# 3 37.1196 8.8975 80.2583 0.0000 0.0000 0.0000
# 4 0.0000 0.0000 0.0000 5.8889 0.0000 0.0000
# 5 0.0000 0.0000 0.0000 0.0000 13.5657 0.0000
# 6 0.0000 0.0000 0.0000 0.0000 0.0000 23.7546
#
#
#
# Elastic Compliance Matrix: (Units=1/GPa)
#
#
# Indices 1 2 3 4 5 6 
#
# 1 0.009804 -0.002559 -0.004250 0.000000 0.000000 0.000000
# 2 -0.002559 0.011960 -0.000142 0.000000 0.000000 0.000000
# 3 -0.004250 -0.000142 0.014441 0.000000 0.000000 0.000000
# 4 0.000000 0.000000 0.000000 0.169811 0.000000 0.000000
# 5 0.000000 0.000000 0.000000 0.000000 0.073715 0.000000
# 6 0.000000 0.000000 0.000000 0.000000 0.000000 0.042097
#
#
# Mechanical properties :
#
#
# Convention : Reuss Voigt Hill
#
# Bulk Modulus (GPa) = 44.84075 49.05697 46.94886
# Shear Modulus (GPa) = 14.57018 23.42576 18.99797
#
# Velocity S-wave (km/s) = 2.74551 3.48126 3.13504
# Velocity P-wave (km/s) = 5.76615 6.44502 6.11502
#
# Compressibility (1/GPa) = 0.02230114
#
# Stress axis : x y z
#
# Youngs Moduli (GPa) = 102.00432 83.61075 69.24553
#
# Poissons Ratio (x) = 0.21399 0.29432
# Poissons Ratio (y) = 0.26106 0.00985
# Poissons Ratio (z) = 0.43356 0.01189
#
# Static dielectric constant tensor:
#      x y z
#    x 1.703790 0.000000 0.000000 
#    y 0.000000 1.783710 0.000000 
#    z 0.000000 0.000000 1.652150 
# 
# From -- ./inp_files/21554.got.cif
#   From: 2010.05.17/outbox.cif.g08.bks.cpg/sg73_11_cif.got.tgz:21554.got - 2010.06.03 17:35:07.
