data_PCOD9533131
_publ_section_title
;
Structure prediction by ZEFSAII (Michael W. Deem and Ramdas Pophale) SiO2 
 PCOD9533131
Probable space group: I B C A 
;
_chemical_formula_sum "Si O2"
_cell_formula_units_Z 56
_cell_length_a 13.247606
_cell_length_b 21.547677
_cell_length_c 7.001299
_cell_angle_alpha 90.000000
_cell_angle_beta 90.000000
_cell_angle_gamma 90.000000
_cell_volume 1998.556752
_symmetry_space_group_name_H-M "I B C A "
_symmetry_group_IT_number 73
_symmetry_cell_setting 'orthorhombic'
loop_
_space_group_symop_operation_xyz
x,y,z
-x,1/2-y,z
x,-y,1/2-z
1/2-x,y,-z
-x,-y,-z
x,1/2+y,-z
-x,y,1/2+z
1/2+x,-y,z
1/2+x,1/2+y,1/2+z
1/2-x,-y,1/2+z
1/2+x,1/2-y,-z
-x,1/2+y,1/2-z
1/2-x,1/2-y,1/2-z
1/2+x,y,1/2-z
1/2-x,1/2+y,z
x,1/2-y,1/2+z
loop_
_atom_site_type_symbol
_atom_site_label
_atom_site_fract_x
_atom_site_fract_y
_atom_site_fract_z
Si Si1 0.750000 0.795045 0.000000
Si Si2 0.536090 0.394889 0.621932
Si Si3 0.626933 0.816256 0.660954
Si Si4 0.367634 0.518135 0.975283
O O1 0.793704 0.831761 0.175987
O O2 0.659815 0.751634 0.086251
O O3 0.625231 0.355551 0.528312
O O4 0.478174 0.341363 0.747061
O O5 0.438897 0.421734 0.495617
O O6 0.594560 0.461428 0.606539
O O7 0.384166 0.500000 0.750000
O O8 0.250000 0.529219 0.000000
#
# Coordination Sequence:
#
# PCOD9533131 Si02
#       4
#     8  16  16  16
#     4  10  28  52  76 116 146 210 272 320 376 448
#     4  11  26  45  74 116 144 205 242 311 388 456
#     4  11  26  50  78 108 156 195 264 319 384 448
#     4  11  26  46  73 116 152 193 250 310 375 492
#
# _framework density 28.020219000000001
#
# number of rings (size 3 to 8) (size 9 to 14) (size 15 to 20)
#    0.000    1.143    2.857    0.000    8.000    8.000 
#    0.000    0.000    0.000    0.000    0.000    0.000 
#    0.000    0.000    0.000    0.000    0.000    0.000 
#
# Total GULP energy -155920.644112 kJ/mol
# GULP energy per Si atom -5568.594433 kJ/mol
# Density = 2.795644 g / cm^3
# Si number density = 28.020219 Si / 1000 Ang^3
#
#
#
# Elastic Constant Matrix: (Units=GPa)
#
#
# Indices 1 2 3 4 5 6 
#
# 1 197.4212 91.2946 55.9589 0.0001 0.0001 0.0002
# 2 91.2946 101.2400 38.9287 0.0003 0.0000 0.0001
# 3 55.9589 38.9287 75.5796 0.0057 0.0003 -0.0005
# 4 0.0001 0.0003 0.0057 -57.3833 -0.0007 -0.0006
# 5 0.0001 0.0000 0.0003 -0.0007 99.4859 -0.0004
# 6 0.0002 0.0001 -0.0005 -0.0006 -0.0004 35.5480
#
#
#
# Elastic Compliance Matrix: (Units=1/GPa)
#
#
# Indices 1 2 3 4 5 6 
#
# 1 0.009266 -0.007130 -0.003188 0.000000 0.000000 0.000000
# 2 -0.007130 0.017803 -0.003891 0.000000 0.000000 0.000000
# 3 -0.003188 -0.003891 0.017596 0.000002 0.000000 0.000000
# 4 0.000000 0.000000 0.000002 -0.017427 0.000000 0.000000
# 5 0.000000 0.000000 0.000000 0.000000 0.010052 0.000000
# 6 0.000000 0.000000 0.000000 0.000000 0.000000 0.028131
#
#
# Mechanical properties :
#
#
# Convention : Reuss Voigt Hill
#
# Bulk Modulus (GPa) = 61.55004 82.95613 72.25308
# Shear Modulus (GPa) = 50.37547 28.06737 39.22142
#
# Velocity S-wave (km/s) = 4.24468 3.16837 3.74539
# Velocity P-wave (km/s) = 6.78506 6.56162 6.67427
#
# Compressibility (1/GPa) = 0.01624694
#
# Stress axis : x y z
#
# Youngs Moduli (GPa) = 107.91974 56.16977 56.83215
#
# Poissons Ratio (x) = 0.40049 0.18119
# Poissons Ratio (y) = 0.76946 0.22113
# Poissons Ratio (z) = 0.34407 0.21855
#
# Static dielectric constant tensor:
#      x y z
#    x 2.118380 0.000000 0.000000 
#    y 0.000000 2.152590 0.000000 
#    z 0.000000 0.000000 2.616410 
# 
# From -- ./inp_files/4601.got.cif
#   From: 2010.05.17/outbox.cif.g08.bks.cpg/sg73_3_cif.got.tgz:4601.got - 2010.06.03 17:35:07.
