data_PCOD9533712
_publ_section_title
;
Structure prediction by ZEFSAII (Michael W. Deem and Ramdas Pophale) SiO2 
 PCOD9533712
Probable space group: I B C A 
;
_chemical_formula_sum "Si O2"
_cell_formula_units_Z 64
_cell_length_a 18.005241
_cell_length_b 16.426480
_cell_length_c 9.644177
_cell_angle_alpha 90.000000
_cell_angle_beta 90.000000
_cell_angle_gamma 90.000000
_cell_volume 2852.388130
_symmetry_space_group_name_H-M "I B C A "
_symmetry_group_IT_number 73
_symmetry_cell_setting 'orthorhombic'
loop_
_space_group_symop_operation_xyz
x,y,z
-x,1/2-y,z
x,-y,1/2-z
1/2-x,y,-z
-x,-y,-z
x,1/2+y,-z
-x,y,1/2+z
1/2+x,-y,z
1/2+x,1/2+y,1/2+z
1/2-x,-y,1/2+z
1/2+x,1/2-y,-z
-x,1/2+y,1/2-z
1/2-x,1/2-y,1/2-z
1/2+x,y,1/2-z
1/2-x,1/2+y,z
x,1/2-y,1/2+z
loop_
_atom_site_type_symbol
_atom_site_label
_atom_site_fract_x
_atom_site_fract_y
_atom_site_fract_z
Si Si1 0.926568 0.872828 0.374314
Si Si2 0.172264 0.716554 0.816142
Si Si3 0.432069 0.090515 0.689609
Si Si4 0.250000 0.101419 0.000000
Si Si5 0.688155 0.500000 0.250000
O O1 0.885378 0.786726 0.356729
O O2 0.864922 0.936133 0.324126
O O3 0.997927 0.877469 0.276496
O O4 0.949668 0.902197 0.527317
O O5 0.250000 0.750000 0.750000
O O6 0.136068 0.652204 0.711326
O O7 0.185717 0.663205 0.954540
O O8 0.416200 0.000000 0.750000
O O9 0.233607 0.953687 0.632129
#
# Coordination Sequence:
#
# PCOD9533712 Si02
#       5
#    16  16  16   8   8
#     4  12  28  49  77 112 156 202 258 316 390 454
#     4  12  27  48  78 112 155 202 260 322 388 463
#     4  12  28  49  78 112 154 203 257 321 385 460
#     4  12  28  48  78 116 156 204 264 322 388 462
#     4  12  28  48  80 114 158 206 260 322 386 466
#
# _framework density 22.437339000000001
#
# number of rings (size 3 to 8) (size 9 to 14) (size 15 to 20)
#    0.000    0.000    3.750    4.500    8.750    3.000 
#    0.000    0.000    0.000    0.000    0.000    0.000 
#    0.000    0.000    0.000    0.000    0.000    0.000 
#
# Total GULP energy -179188.417509 kJ/mol
# GULP energy per Si atom -5599.638047 kJ/mol
# Density = 2.238627 g / cm^3
# Si number density = 22.437339 Si / 1000 Ang^3
#
#
#
# Elastic Constant Matrix: (Units=GPa)
#
#
# Indices 1 2 3 4 5 6 
#
# 1 120.7770 81.2876 60.7885 0.0000 0.0000 0.0000
# 2 81.2876 166.5744 68.4991 0.0000 0.0000 0.0000
# 3 60.7885 68.4991 187.3935 0.0000 0.0000 0.0000
# 4 0.0000 0.0000 0.0000 13.3915 0.0000 0.0000
# 5 0.0000 0.0000 0.0000 0.0000 43.3012 0.0000
# 6 0.0000 0.0000 0.0000 0.0000 0.0000 13.2293
#
#
#
# Elastic Compliance Matrix: (Units=1/GPa)
#
#
# Indices 1 2 3 4 5 6 
#
# 1 0.013088 -0.005462 -0.002249 0.000000 0.000000 0.000000
# 2 -0.005462 0.009345 -0.001644 0.000000 0.000000 0.000000
# 3 -0.002249 -0.001644 0.006667 0.000000 0.000000 0.000000
# 4 0.000000 0.000000 0.000000 0.074674 0.000000 0.000000
# 5 0.000000 0.000000 0.000000 0.000000 0.023094 0.000000
# 6 0.000000 0.000000 0.000000 0.000000 0.000000 0.075590
#
#
# Mechanical properties :
#
#
# Convention : Reuss Voigt Hill
#
# Bulk Modulus (GPa) = 96.25154 99.54391 97.89773
# Shear Modulus (GPa) = 22.25875 31.59572 26.92724
#
# Velocity S-wave (km/s) = 3.15308 3.75664 3.46802
# Velocity P-wave (km/s) = 7.49980 7.95475 7.73062
#
# Compressibility (1/GPa) = 0.01038944
#
# Stress axis : x y z
#
# Youngs Moduli (GPa) = 76.40726 107.01144 149.99517
#
# Poissons Ratio (x) = 0.58449 0.33734
# Poissons Ratio (y) = 0.41733 0.24660
# Poissons Ratio (z) = 0.17184 0.17593
#
# Static dielectric constant tensor:
#      x y z
#    x 1.870920 0.000000 0.000000 
#    y 0.000000 1.825580 0.000000 
#    z 0.000000 0.000000 1.867950 
# 
# From -- ./inp_files/10489.got.cif
#   From: 2010.05.17/outbox.cif.g08.bks.cpg/sg73_6_cif.got.tgz:10489.got - 2010.06.03 17:35:07.
