data_PCOD9533319
_publ_section_title
;
Structure prediction by ZEFSAII (Michael W. Deem and Ramdas Pophale) SiO2 
 PCOD9533319
Probable space group: I B C A 
;
_chemical_formula_sum "Si O2"
_cell_formula_units_Z 88
_cell_length_a 22.489490
_cell_length_b 13.553375
_cell_length_c 12.886075
_cell_angle_alpha 90.000000
_cell_angle_beta 90.000000
_cell_angle_gamma 90.000000
_cell_volume 3927.785082
_symmetry_space_group_name_H-M "I B C A "
_symmetry_group_IT_number 73
_symmetry_cell_setting 'orthorhombic'
loop_
_space_group_symop_operation_xyz
x,y,z
-x,1/2-y,z
x,-y,1/2-z
1/2-x,y,-z
-x,-y,-z
x,1/2+y,-z
-x,y,1/2+z
1/2+x,-y,z
1/2+x,1/2+y,1/2+z
1/2-x,-y,1/2+z
1/2+x,1/2-y,-z
-x,1/2+y,1/2-z
1/2-x,1/2-y,1/2-z
1/2+x,y,1/2-z
1/2-x,1/2+y,z
x,1/2-y,1/2+z
loop_
_atom_site_type_symbol
_atom_site_label
_atom_site_fract_x
_atom_site_fract_y
_atom_site_fract_z
Si Si1 0.094261 0.157820 0.965233
Si Si2 0.914767 0.104370 0.690113
Si Si3 0.205124 0.969527 0.595316
Si Si4 0.313881 0.330186 0.011781
Si Si5 0.784632 0.146772 0.753328
Si Si6 0.500000 0.750000 0.814798
O O1 0.144714 0.091166 0.913442
O O2 0.129657 0.259798 0.991605
O O3 0.041797 0.183980 0.887727
O O4 0.071299 0.103115 0.068139
O O5 0.847246 0.144867 0.694538
O O6 0.958297 0.180526 0.745913
O O7 0.916706 0.000000 0.750000
O O8 0.250000 0.951328 0.500000
O O9 0.240813 0.925579 0.692177
O O10 0.186444 0.084101 0.575079
O O11 0.306384 0.375560 0.128183
O O12 0.250000 0.275494 0.000000
O O13 0.750000 0.250000 0.750000
#
# Coordination Sequence:
#
# PCOD9533319 Si02
#       6
#    16  16  16  16  16   8
#     4  12  24  47  74 105 145 194 255 307 372 453
#     4  12  27  49  75 104 149 199 251 320 386 445
#     4  11  23  40  72 109 146 187 233 300 390 449
#     4  11  24  40  71 110 150 185 236 303 380 453
#     4  12  22  43  72 106 153 190 238 308 380 473
#     4  12  28  50  72 104 140 210 262 316 368 440
#
# _framework density 22.404484
#
# number of rings (size 3 to 8) (size 9 to 14) (size 15 to 20)
#    0.000    0.364    5.455    3.273    2.545    0.727 
#    3.273    0.000    0.000    0.000    0.000    0.000 
#    0.000    0.000    0.000    0.000    0.000    0.000 
#
# Total GULP energy -246068.705855 kJ/mol
# GULP energy per Si atom -5592.470588 kJ/mol
# Density = 2.235349 g / cm^3
# Si number density = 22.404484 Si / 1000 Ang^3
#
#
#
# Elastic Constant Matrix: (Units=GPa)
#
#
# Indices 1 2 3 4 5 6 
#
# 1 120.6857 48.6307 35.2514 0.0000 0.0000 0.0000
# 2 48.6307 137.1335 37.5472 0.0000 0.0000 0.0000
# 3 35.2514 37.5472 119.0586 0.0000 0.0000 0.0000
# 4 0.0000 0.0000 0.0000 32.9261 0.0000 0.0000
# 5 0.0000 0.0000 0.0000 0.0000 41.9744 0.0000
# 6 0.0000 0.0000 0.0000 0.0000 0.0000 -66.2091
#
#
#
# Elastic Compliance Matrix: (Units=1/GPa)
#
#
# Indices 1 2 3 4 5 6 
#
# 1 0.010099 -0.003024 -0.002037 0.000000 0.000000 0.000000
# 2 -0.003024 0.008887 -0.001907 0.000000 0.000000 0.000000
# 3 -0.002037 -0.001907 0.009604 0.000000 0.000000 0.000000
# 4 0.000000 0.000000 0.000000 0.030371 0.000000 0.000000
# 5 0.000000 0.000000 0.000000 0.000000 0.023824 0.000000
# 6 0.000000 0.000000 0.000000 0.000000 0.000000 -0.015104
#
#
# Mechanical properties :
#
#
# Convention : Reuss Voigt Hill
#
# Bulk Modulus (GPa) = 68.23936 68.85960 68.54948
# Shear Modulus (GPa) = 57.80256 18.76818 38.28537
#
# Velocity S-wave (km/s) = 5.08484 2.89744 4.13828
# Velocity P-wave (km/s) = 8.06214 6.48036 7.31413
#
# Compressibility (1/GPa) = 0.01465430
#
# Stress axis : x y z
#
# Youngs Moduli (GPa) = 99.01646 112.52783 104.12621
#
# Poissons Ratio (x) = 0.34026 0.21207
# Poissons Ratio (y) = 0.29941 0.19860
# Poissons Ratio (z) = 0.20166 0.21462
#
# Static dielectric constant tensor:
#      x y z
#    x 1.780030 0.000000 0.000000 
#    y 0.000000 1.866020 0.000000 
#    z 0.000000 0.000000 1.975450 
# 
# From -- ./inp_files/14201.got.cif
#   From: 2010.05.17/outbox.cif.g08.bks.cpg/sg73_8_cif.got.tgz:14201.got - 2010.06.03 17:35:07.
