data_PCOD9533122
_publ_section_title
;
Structure prediction by ZEFSAII (Michael W. Deem and Ramdas Pophale) SiO2 
 PCOD9533122
Probable space group: I B C A 
;
_chemical_formula_sum "Si O2"
_cell_formula_units_Z 72
_cell_length_a 27.147551
_cell_length_b 5.700543
_cell_length_c 17.887090
_cell_angle_alpha 90.000000
_cell_angle_beta 90.000000
_cell_angle_gamma 90.000000
_cell_volume 2768.130597
_symmetry_space_group_name_H-M "I B C A "
_symmetry_group_IT_number 73
_symmetry_cell_setting 'orthorhombic'
loop_
_space_group_symop_operation_xyz
x,y,z
-x,1/2-y,z
x,-y,1/2-z
1/2-x,y,-z
-x,-y,-z
x,1/2+y,-z
-x,y,1/2+z
1/2+x,-y,z
1/2+x,1/2+y,1/2+z
1/2-x,-y,1/2+z
1/2+x,1/2-y,-z
-x,1/2+y,1/2-z
1/2-x,1/2-y,1/2-z
1/2+x,y,1/2-z
1/2-x,1/2+y,z
x,1/2-y,1/2+z
loop_
_atom_site_type_symbol
_atom_site_label
_atom_site_fract_x
_atom_site_fract_y
_atom_site_fract_z
Si Si1 0.000000 0.750000 0.571605
Si Si2 0.546745 0.873068 0.182462
Si Si3 0.231458 0.752389 0.411899
Si Si4 0.135524 0.044852 0.662357
Si Si5 0.391702 0.274988 0.531874
O O1 0.950862 0.194390 0.474074
O O2 0.021023 0.541043 0.622995
O O3 0.500000 0.750000 0.220812
O O4 0.584577 0.686388 0.150819
O O5 0.574111 0.000000 0.250000
O O6 0.250000 0.764461 0.500000
O O7 0.258905 0.516087 0.383566
O O8 0.177510 0.685983 0.381372
O O9 0.125951 0.805097 0.617203
O O10 0.144445 0.000000 0.750000
O O11 0.374005 0.018866 0.506220
#
# Coordination Sequence:
#
# PCOD9533122 Si02
#       5
#     8  16  16  16  16
#     4  12  24  44  68 110 166 228 298 326 394 474
#     4  12  23  44  72 117 174 231 273 338 409 485
#     4  10  26  52  86 118 159 206 268 347 436 507
#     4  12  28  50  82 124 162 217 287 347 412 505
#     4  12  28  46  74 109 164 220 275 336 400 483
#
# _framework density 26.010331999999998
#
# number of rings (size 3 to 8) (size 9 to 14) (size 15 to 20)
#    0.000    0.444    3.333    4.000    6.222    4.444 
#    0.000    0.000    0.000    0.000    0.000    0.000 
#    0.000    0.000    0.000    0.000    0.000    0.000 
#
# Total GULP energy -201239.784510 kJ/mol
# GULP energy per Si atom -5589.994014 kJ/mol
# Density = 2.595113 g / cm^3
# Si number density = 26.010332 Si / 1000 Ang^3
#
#
#
# Elastic Constant Matrix: (Units=GPa)
#
#
# Indices 1 2 3 4 5 6 
#
# 1 103.3116 8.0382 30.7019 0.0000 0.0000 0.0000
# 2 8.0382 126.2740 56.6037 0.0000 0.0000 0.0000
# 3 30.7019 56.6037 138.2401 0.0000 0.0000 0.0000
# 4 0.0000 0.0000 0.0000 50.0399 0.0000 0.0000
# 5 0.0000 0.0000 0.0000 0.0000 25.7651 0.0000
# 6 0.0000 0.0000 0.0000 0.0000 0.0000 42.8077
#
#
#
# Elastic Compliance Matrix: (Units=1/GPa)
#
#
# Indices 1 2 3 4 5 6 
#
# 1 0.010385 0.000457 -0.002493 0.000000 0.000000 0.000000
# 2 0.000457 0.009720 -0.004081 0.000000 0.000000 0.000000
# 3 -0.002493 -0.004081 0.009459 0.000000 0.000000 0.000000
# 4 0.000000 0.000000 0.000000 0.019984 0.000000 0.000000
# 5 0.000000 0.000000 0.000000 0.000000 0.038812 0.000000
# 6 0.000000 0.000000 0.000000 0.000000 0.000000 0.023360
#
#
# Mechanical properties :
#
#
# Convention : Reuss Voigt Hill
#
# Bulk Modulus (GPa) = 57.71248 62.05702 59.88475
# Shear Modulus (GPa) = 38.54117 41.88799 40.21458
#
# Velocity S-wave (km/s) = 3.85354 4.01738 3.93631
# Velocity P-wave (km/s) = 6.48353 6.74014 6.61308
#
# Compressibility (1/GPa) = 0.01732727
#
# Stress axis : x y z
#
# Youngs Moduli (GPa) = 96.29362 102.88412 105.72353
#
# Poissons Ratio (x) = -0.04698 0.26361
# Poissons Ratio (y) = -0.04397 0.43148
# Poissons Ratio (z) = 0.24009 0.41989
#
# Static dielectric constant tensor:
#      x y z
#    x 2.045490 0.000000 0.000000 
#    y 0.000000 2.112030 0.000000 
#    z 0.000000 0.000000 2.089840 
# 
# From -- ./inp_files/27437.got.cif
#   From: 2010.05.17/outbox.cif.g08.bks.cpg/sg73_14_cif.got.tgz:27437.got - 2010.06.03 17:35:07.
