data_PCOD9533197
_publ_section_title
;
Structure prediction by ZEFSAII (Michael W. Deem and Ramdas Pophale) SiO2 
 PCOD9533197
Probable space group: I B C A 
;
_chemical_formula_sum "Si O2"
_cell_formula_units_Z 112
_cell_length_a 32.006403
_cell_length_b 4.939025
_cell_length_c 33.909667
_cell_angle_alpha 90.000000
_cell_angle_beta 90.000000
_cell_angle_gamma 90.000000
_cell_volume 5360.454557
_symmetry_space_group_name_H-M "I B C A "
_symmetry_group_IT_number 73
_symmetry_cell_setting 'orthorhombic'
loop_
_space_group_symop_operation_xyz
x,y,z
-x,1/2-y,z
x,-y,1/2-z
1/2-x,y,-z
-x,-y,-z
x,1/2+y,-z
-x,y,1/2+z
1/2+x,-y,z
1/2+x,1/2+y,1/2+z
1/2-x,-y,1/2+z
1/2+x,1/2-y,-z
-x,1/2+y,1/2-z
1/2-x,1/2-y,1/2-z
1/2+x,y,1/2-z
1/2-x,1/2+y,z
x,1/2-y,1/2+z
loop_
_atom_site_type_symbol
_atom_site_label
_atom_site_fract_x
_atom_site_fract_y
_atom_site_fract_z
Si Si1 0.957197 0.610559 0.122460
Si Si2 0.362194 0.093579 0.794708
Si Si3 0.907709 0.901424 0.400330
Si Si4 0.163267 0.948746 0.659088
Si Si5 0.148373 0.038928 0.527637
Si Si6 0.958032 0.084645 0.704745
Si Si7 0.222892 0.912059 0.586608
O O1 0.944976 0.303092 0.111563
O O2 0.955582 0.637055 0.170046
O O3 0.000000 0.750000 0.109361
O O4 0.922171 0.790137 0.102525
O O5 0.353282 0.837177 0.823648
O O6 0.356497 0.000000 0.750000
O O7 0.332019 0.340333 0.805508
O O8 0.410790 0.200036 0.796544
O O9 0.871016 0.894786 0.368132
O O10 0.888635 0.866763 0.443320
O O11 0.202495 0.924310 0.630109
O O12 0.147168 0.742533 0.508787
O O13 0.189286 0.022168 0.555280
O O14 0.000000 0.250000 0.694254
O O15 0.964245 0.000000 0.750000
O O16 0.236971 0.603312 0.581463
#
# Coordination Sequence:
#
# PCOD9533197 Si02
#       7
#    16  16  16  16  16  16  16
#     4  12  23  38  60  86 122 168 217 267 312 356
#     4  11  23  38  62  87 123 171 221 268 310 357
#     4  11  22  41  61  87 121 162 214 254 302 374
#     4  11  21  42  62  88 123 166 216 254 304 376
#     4  11  24  42  69  99 130 164 194 241 308 381
#     4  11  23  36  55  88 133 170 211 262 330 374
#     4  11  24  41  69 102 133 164 192 243 311 381
#
# _framework density 20.893751999999999
#
# number of rings (size 3 to 8) (size 9 to 14) (size 15 to 20)
#    0.000    0.857    2.857    4.714    0.000    8.571 
#    0.000    0.000    0.000   17.143    0.000    0.000 
#    0.000    0.000    0.000    0.000    0.000    0.000 
#
# Total GULP energy -312400.482726 kJ/mol
# GULP energy per Si atom -5578.580049 kJ/mol
# Density = 2.084620 g / cm^3
# Si number density = 20.893752 Si / 1000 Ang^3
#
#
#
# Elastic Constant Matrix: (Units=GPa)
#
#
# Indices 1 2 3 4 5 6 
#
# 1 35.0489 2.4927 34.0275 0.0000 0.0000 0.0000
# 2 2.4927 78.2750 7.5211 0.0000 0.0000 0.0000
# 3 34.0275 7.5211 79.6600 0.0000 0.0000 0.0000
# 4 0.0000 0.0000 0.0000 33.4573 0.0000 0.0000
# 5 0.0000 0.0000 0.0000 0.0000 28.5721 0.0000
# 6 0.0000 0.0000 0.0000 0.0000 0.0000 28.9610
#
#
#
# Elastic Compliance Matrix: (Units=1/GPa)
#
#
# Indices 1 2 3 4 5 6 
#
# 1 0.048764 0.000453 -0.020873 0.000000 0.000000 0.000000
# 2 0.000453 0.012897 -0.001411 0.000000 0.000000 0.000000
# 3 -0.020873 -0.001411 0.021602 0.000000 0.000000 0.000000
# 4 0.000000 0.000000 0.000000 0.029889 0.000000 0.000000
# 5 0.000000 0.000000 0.000000 0.000000 0.034999 0.000000
# 6 0.000000 0.000000 0.000000 0.000000 0.000000 0.034529
#
#
# Mechanical properties :
#
#
# Convention : Reuss Voigt Hill
#
# Bulk Modulus (GPa) = 25.25193 31.22962 28.24078
# Shear Modulus (GPa) = 20.87316 28.12759 24.50037
#
# Velocity S-wave (km/s) = 3.16415 3.67307 3.42806
# Velocity P-wave (km/s) = 5.04591 5.74177 5.40505
#
# Compressibility (1/GPa) = 0.03960093
#
# Stress axis : x y z
#
# Youngs Moduli (GPa) = 20.50709 77.53962 46.29103
#
# Poissons Ratio (x) = -0.03510 0.96621
# Poissons Ratio (y) = -0.00928 0.06532
# Poissons Ratio (z) = 0.42804 0.10941
#
# Static dielectric constant tensor:
#      x y z
#    x 1.781520 0.000000 0.000000 
#    y 0.000000 1.555240 0.000000 
#    z 0.000000 0.000000 1.736250 
# 
# From -- ./inp_files/34923.got.cif
#   From: 2010.05.17/outbox.cif.g08.bks.cpg/sg73_18_cif.got.tgz:34923.got - 2010.06.03 17:35:07.
