data_PCOD9533051
_publ_section_title
;
Structure prediction by ZEFSAII (Michael W. Deem and Ramdas Pophale) SiO2 
 PCOD9533051
Probable space group: I B C A 
;
_chemical_formula_sum "Si O2"
_cell_formula_units_Z 56
_cell_length_a 16.573603
_cell_length_b 15.416817
_cell_length_c 9.711780
_cell_angle_alpha 90.000000
_cell_angle_beta 90.000000
_cell_angle_gamma 90.000000
_cell_volume 2481.478317
_symmetry_space_group_name_H-M "I B C A "
_symmetry_group_IT_number 73
_symmetry_cell_setting 'orthorhombic'
loop_
_space_group_symop_operation_xyz
x,y,z
-x,1/2-y,z
x,-y,1/2-z
1/2-x,y,-z
-x,-y,-z
x,1/2+y,-z
-x,y,1/2+z
1/2+x,-y,z
1/2+x,1/2+y,1/2+z
1/2-x,-y,1/2+z
1/2+x,1/2-y,-z
-x,1/2+y,1/2-z
1/2-x,1/2-y,1/2-z
1/2+x,y,1/2-z
1/2-x,1/2+y,z
x,1/2-y,1/2+z
loop_
_atom_site_type_symbol
_atom_site_label
_atom_site_fract_x
_atom_site_fract_y
_atom_site_fract_z
Si Si1 0.562098 0.964482 0.889209
Si Si2 0.412977 0.778530 0.487520
Si Si3 0.219816 0.500000 0.250000
Si Si4 0.317943 0.677042 0.262803
O O1 0.571767 0.861365 0.890240
O O2 0.655498 0.996897 0.878109
O O3 0.524233 0.000000 0.750000
O O4 0.500000 0.000000 0.000000
O O5 0.500000 0.750000 0.537686
O O6 0.369393 0.703923 0.397948
O O7 0.366354 0.812818 0.620554
O O8 0.274988 0.584177 0.265177
O O9 0.250000 0.750000 0.250000
#
# Coordination Sequence:
#
# PCOD9533051 Si02
#       4
#    16  16   8  16
#     4  10  25  49  75 112 152 199 263 315 392 466
#     4  12  29  49  78 113 159 209 261 322 395 471
#     4  10  26  50  82 112 154 210 260 326 392 466
#     4  12  26  53  76 115 157 203 265 325 394 464
#
# _framework density 22.567191999999999
#
# number of rings (size 3 to 8) (size 9 to 14) (size 15 to 20)
#    0.857    0.000    2.857    1.714   12.000    2.286 
#    5.143    0.000    0.000    0.000    0.000    0.000 
#    0.000    0.000    0.000    0.000    0.000    0.000 
#
# Total GULP energy -156483.739691 kJ/mol
# GULP energy per Si atom -5588.704989 kJ/mol
# Density = 2.251583 g / cm^3
# Si number density = 22.567192 Si / 1000 Ang^3
#
#
#
# Elastic Constant Matrix: (Units=GPa)
#
#
# Indices 1 2 3 4 5 6 
#
# 1 147.4728 89.1693 57.9251 0.0000 0.0000 0.0000
# 2 89.1693 185.1244 51.1702 0.0000 0.0000 0.0000
# 3 57.9251 51.1702 90.2943 0.0000 0.0000 0.0000
# 4 0.0000 0.0000 0.0000 15.4808 0.0000 0.0000
# 5 0.0000 0.0000 0.0000 0.0000 70.2791 0.0000
# 6 0.0000 0.0000 0.0000 0.0000 0.0000 45.8610
#
#
#
# Elastic Compliance Matrix: (Units=1/GPa)
#
#
# Indices 1 2 3 4 5 6 
#
# 1 0.011114 -0.004011 -0.004857 0.000000 0.000000 0.000000
# 2 -0.004011 0.007852 -0.001877 0.000000 0.000000 0.000000
# 3 -0.004857 -0.001877 0.015254 0.000000 0.000000 0.000000
# 4 0.000000 0.000000 0.000000 0.064596 0.000000 0.000000
# 5 0.000000 0.000000 0.000000 0.000000 0.014229 0.000000
# 6 0.000000 0.000000 0.000000 0.000000 0.000000 0.021805
#
#
# Mechanical properties :
#
#
# Convention : Reuss Voigt Hill
#
# Bulk Modulus (GPa) = 78.54579 91.04673 84.79626
# Shear Modulus (GPa) = 31.13652 41.29931 36.21791
#
# Velocity S-wave (km/s) = 3.71849 4.28256 4.01046
# Velocity P-wave (km/s) = 7.30186 8.05519 7.68776
#
# Compressibility (1/GPa) = 0.01273143
#
# Stress axis : x y z
#
# Youngs Moduli (GPa) = 89.97993 127.34867 65.55537
#
# Poissons Ratio (x) = 0.51075 0.31838
# Poissons Ratio (y) = 0.36088 0.12305
# Poissons Ratio (z) = 0.43700 0.23905
#
# Static dielectric constant tensor:
#      x y z
#    x 1.860960 0.000000 0.000000 
#    y 0.000000 1.787680 0.000000 
#    z 0.000000 0.000000 1.940640 
# 
# From -- ./inp_files/5896.got.cif
#   From: 2010.05.17/outbox.cif.g08.bks.cpg/sg73_3_cif.got.tgz:5896.got - 2010.06.03 17:35:07.
