data_PCOD9533055
_publ_section_title
;
Structure prediction by ZEFSAII (Michael W. Deem and Ramdas Pophale) SiO2 
 PCOD9533055
Probable space group: I B C A 
;
_chemical_formula_sum "Si O2"
_cell_formula_units_Z 88
_cell_length_a 8.889982
_cell_length_b 27.653735
_cell_length_c 13.967221
_cell_angle_alpha 90.000000
_cell_angle_beta 90.000000
_cell_angle_gamma 90.000000
_cell_volume 3433.718460
_symmetry_space_group_name_H-M "I B C A "
_symmetry_group_IT_number 73
_symmetry_cell_setting 'orthorhombic'
loop_
_space_group_symop_operation_xyz
x,y,z
-x,1/2-y,z
x,-y,1/2-z
1/2-x,y,-z
-x,-y,-z
x,1/2+y,-z
-x,y,1/2+z
1/2+x,-y,z
1/2+x,1/2+y,1/2+z
1/2-x,-y,1/2+z
1/2+x,1/2-y,-z
-x,1/2+y,1/2-z
1/2-x,1/2-y,1/2-z
1/2+x,y,1/2-z
1/2-x,1/2+y,z
x,1/2-y,1/2+z
loop_
_atom_site_type_symbol
_atom_site_label
_atom_site_fract_x
_atom_site_fract_y
_atom_site_fract_z
Si Si1 0.385712 0.432679 0.365265
Si Si2 0.138902 0.988874 0.927592
Si Si3 0.462834 0.359606 0.536662
Si Si4 0.250000 0.226768 0.000000
Si Si5 0.007044 0.354863 0.255862
Si Si6 0.270209 0.314185 0.134554
O O1 0.544268 0.461201 0.348947
O O2 0.246111 0.468863 0.384960
O O3 0.415813 0.399808 0.460525
O O4 0.392529 0.396844 0.275920
O O5 0.250000 0.960640 0.000000
O O6 0.000000 0.000000 0.000000
O O7 0.390238 0.309133 0.505220
O O8 0.408162 0.369780 0.645713
O O9 0.634881 0.347764 0.560768
O O10 0.258368 0.262497 0.910623
O O11 0.122654 0.339763 0.174555
O O12 0.896681 0.310713 0.282473
#
# Coordination Sequence:
#
# PCOD9533055 Si02
#       6
#    16  16  16   8  16  16
#     4  11  23  49  77 116 165 214 275 341 419 485
#     4   9  22  39  75 115 152 210 270 334 400 492
#     4  10  27  45  79 117 161 223 271 331 417 491
#     4  12  24  48  76 118 164 222 268 328 412 486
#     4  10  26  47  79 120 167 213 277 339 414 502
#     4  10  25  50  74 124 160 219 266 344 398 492
#
# _framework density 25.628195000000002
#
# number of rings (size 3 to 8) (size 9 to 14) (size 15 to 20)
#    1.091    0.727    0.000    1.636    8.909    0.727 
#    3.273    1.818    0.000   13.091    0.000    0.000 
#    0.000    0.000    0.000    0.000    0.000    0.000 
#
# Total GULP energy -245647.717143 kJ/mol
# GULP energy per Si atom -5582.902662 kJ/mol
# Density = 2.556986 g / cm^3
# Si number density = 25.628195 Si / 1000 Ang^3
#
#
#
# Elastic Constant Matrix: (Units=GPa)
#
#
# Indices 1 2 3 4 5 6 
#
# 1 151.2267 55.4222 43.7483 0.0000 0.0000 0.0000
# 2 55.4222 146.0206 61.3762 0.0000 0.0000 0.0000
# 3 43.7483 61.3762 89.0924 -0.0003 0.0000 0.0000
# 4 0.0000 0.0000 -0.0003 23.3227 0.0000 0.0000
# 5 0.0000 0.0000 0.0000 0.0000 39.3928 0.0000
# 6 0.0000 0.0000 0.0000 0.0000 0.0000 26.0858
#
#
#
# Elastic Compliance Matrix: (Units=1/GPa)
#
#
# Indices 1 2 3 4 5 6 
#
# 1 0.008092 -0.001972 -0.002615 0.000000 0.000000 0.000000
# 2 -0.001972 0.010120 -0.006004 0.000000 0.000000 0.000000
# 3 -0.002615 -0.006004 0.016644 0.000000 0.000000 0.000000
# 4 0.000000 0.000000 0.000000 0.042877 0.000000 0.000000
# 5 0.000000 0.000000 0.000000 0.000000 0.025385 0.000000
# 6 0.000000 0.000000 0.000000 0.000000 0.000000 0.038335
#
#
# Mechanical properties :
#
#
# Convention : Reuss Voigt Hill
#
# Bulk Modulus (GPa) = 73.12462 78.60369 75.86415
# Shear Modulus (GPa) = 29.90561 32.81312 31.35936
#
# Velocity S-wave (km/s) = 3.41970 3.58208 3.50183
# Velocity P-wave (km/s) = 6.64735 6.91707 6.78355
#
# Compressibility (1/GPa) = 0.01367528
#
# Stress axis : x y z
#
# Youngs Moduli (GPa) = 123.58200 98.81115 60.08127
#
# Poissons Ratio (x) = 0.19487 0.15710
# Poissons Ratio (y) = 0.24373 0.36070
# Poissons Ratio (z) = 0.32314 0.59321
#
# Static dielectric constant tensor:
#      x y z
#    x 2.136380 0.000000 0.000000 
#    y 0.000000 2.048260 0.000000 
#    z 0.000000 0.000000 2.255810 
# 
# From -- ./inp_files/16275.got.cif
#   From: 2010.05.17/outbox.cif.g08.bks.cpg/sg73_9_cif.got.tgz:16275.got - 2010.06.03 17:35:07.
