data_PCOD9533568
_publ_section_title
;
Structure prediction by ZEFSAII (Michael W. Deem and Ramdas Pophale) SiO2 
 PCOD9533568
Probable space group: I B C A 
;
_chemical_formula_sum "Si O2"
_cell_formula_units_Z 48
_cell_length_a 8.369830
_cell_length_b 10.051472
_cell_length_c 24.889538
_cell_angle_alpha 90.000000
_cell_angle_beta 90.000000
_cell_angle_gamma 90.000000
_cell_volume 2093.934727
_symmetry_space_group_name_H-M "I B C A "
_symmetry_group_IT_number 73
_symmetry_cell_setting 'orthorhombic'
loop_
_space_group_symop_operation_xyz
x,y,z
-x,1/2-y,z
x,-y,1/2-z
1/2-x,y,-z
-x,-y,-z
x,1/2+y,-z
-x,y,1/2+z
1/2+x,-y,z
1/2+x,1/2+y,1/2+z
1/2-x,-y,1/2+z
1/2+x,1/2-y,-z
-x,1/2+y,1/2-z
1/2-x,1/2-y,1/2-z
1/2+x,y,1/2-z
1/2-x,1/2+y,z
x,1/2-y,1/2+z
loop_
_atom_site_type_symbol
_atom_site_label
_atom_site_fract_x
_atom_site_fract_y
_atom_site_fract_z
Si Si1 0.000000 0.750000 0.680787
Si Si2 0.092833 0.111731 0.033116
Si Si3 0.336251 0.163029 0.850922
Si Si4 0.087219 0.000000 0.250000
O O1 0.997061 0.878199 0.719522
O O2 0.167363 0.757470 0.647666
O O3 0.138129 0.078952 0.094633
O O4 0.000000 0.250000 0.036079
O O5 0.250000 0.138926 0.000000
O O6 0.000000 0.000000 0.000000
O O7 0.500000 0.250000 0.844641
O O8 0.323917 0.070578 0.799033
#
# Coordination Sequence:
#
# PCOD9533568 Si02
#       4
#     8  16  16   8
#     4  12  28  46  78 108 164 202 258 318 388 468
#     4  11  27  50  78 111 151 199 259 317 387 461
#     4  11  28  48  75 111 154 201 253 314 390 457
#     4  12  26  48  76 118 156 206 256 324 392 464
#
# _framework density 22.923351
#
# number of rings (size 3 to 8) (size 9 to 14) (size 15 to 20)
#    0.000    0.667    1.667    3.000   11.667    2.667 
#    0.000    0.000    0.000    0.000    0.000    0.000 
#    0.000    0.000    0.000    0.000    0.000    0.000 
#
# Total GULP energy -134051.758583 kJ/mol
# GULP energy per Si atom -5585.489941 kJ/mol
# Density = 2.287118 g / cm^3
# Si number density = 22.923351 Si / 1000 Ang^3
#
#
#
# Elastic Constant Matrix: (Units=GPa)
#
#
# Indices 1 2 3 4 5 6 
#
# 1 171.2202 53.6336 73.9010 0.0000 0.0000 0.0000
# 2 53.6336 89.2325 33.6162 0.0000 0.0000 0.0000
# 3 73.9010 33.6162 188.2854 0.0000 0.0000 0.0000
# 4 0.0000 0.0000 0.0000 44.7159 0.0000 0.0000
# 5 0.0000 0.0000 0.0000 0.0000 28.1892 0.0000
# 6 0.0000 0.0000 0.0000 0.0000 0.0000 -0.6460
#
#
#
# Elastic Compliance Matrix: (Units=1/GPa)
#
#
# Indices 1 2 3 4 5 6 
#
# 1 0.008159 -0.003964 -0.002495 0.000000 0.000000 0.000000
# 2 -0.003964 0.013941 -0.000933 0.000000 0.000000 0.000000
# 3 -0.002495 -0.000933 0.006457 0.000000 0.000000 0.000000
# 4 0.000000 0.000000 0.000000 0.022363 0.000000 0.000000
# 5 0.000000 0.000000 0.000000 0.000000 0.035475 0.000000
# 6 0.000000 0.000000 0.000000 0.000000 0.000000 -1.547886
#
#
# Mechanical properties :
#
#
# Convention : Reuss Voigt Hill
#
# Bulk Modulus (GPa) = 72.60616 85.67107 79.13861
# Shear Modulus (GPa) = -3.46712 33.62430 15.07859
#
# Velocity S-wave (km/s) = -1.23117 3.83406 2.56751
# Velocity P-wave (km/s) = 5.45171 7.55341 6.58692
#
# Compressibility (1/GPa) = 0.01377294
#
# Stress axis : x y z
#
# Youngs Moduli (GPa) = 122.56606 71.73157 154.87604
#
# Poissons Ratio (x) = 0.28436 0.38635
# Poissons Ratio (y) = 0.48587 0.14451
# Poissons Ratio (z) = 0.30575 0.06693
#
# Static dielectric constant tensor:
#      x y z
#    x 1.818960 0.000000 0.000000 
#    y 0.000000 1.809060 0.000000 
#    z 0.000000 0.000000 1.851870 
# 
# From -- ./inp_files/28137.got.cif
#   From: 2010.05.17/outbox.cif.g08.bks.cpg/sg73_15_cif.got.tgz:28137.got - 2010.06.03 17:35:07.
