data_PCOD9533219
_publ_section_title
;
Structure prediction by ZEFSAII (Michael W. Deem and Ramdas Pophale) SiO2 
 PCOD9533219
Probable space group: I B C A 
;
_chemical_formula_sum "Si O2"
_cell_formula_units_Z 128
_cell_length_a 20.020107
_cell_length_b 18.391559
_cell_length_c 19.235312
_cell_angle_alpha 90.000000
_cell_angle_beta 90.000000
_cell_angle_gamma 90.000000
_cell_volume 7082.460711
_symmetry_space_group_name_H-M "I B C A "
_symmetry_group_IT_number 73
_symmetry_cell_setting 'orthorhombic'
loop_
_space_group_symop_operation_xyz
x,y,z
-x,1/2-y,z
x,-y,1/2-z
1/2-x,y,-z
-x,-y,-z
x,1/2+y,-z
-x,y,1/2+z
1/2+x,-y,z
1/2+x,1/2+y,1/2+z
1/2-x,-y,1/2+z
1/2+x,1/2-y,-z
-x,1/2+y,1/2-z
1/2-x,1/2-y,1/2-z
1/2+x,y,1/2-z
1/2-x,1/2+y,z
x,1/2-y,1/2+z
loop_
_atom_site_type_symbol
_atom_site_label
_atom_site_fract_x
_atom_site_fract_y
_atom_site_fract_z
Si Si1 0.072160 0.044797 0.816103
Si Si2 0.890694 0.171183 0.611445
Si Si3 0.169793 0.976045 0.428037
Si Si4 0.497408 0.832884 0.225991
Si Si5 0.887213 0.336426 0.604177
Si Si6 0.002819 0.330069 0.989972
Si Si7 0.183447 0.009122 0.592371
Si Si8 0.977020 0.472148 0.424248
O O1 0.028503 0.110448 0.783589
O O2 0.137784 0.047931 0.864561
O O3 0.021276 0.996344 0.862631
O O4 0.095700 0.000000 0.750000
O O5 0.839253 0.107411 0.594899
O O6 0.860642 0.252920 0.608264
O O7 0.932893 0.156950 0.682667
O O8 0.945066 0.165176 0.548458
O O9 0.174288 0.987958 0.511244
O O10 0.237595 0.005103 0.394402
O O11 0.099972 0.014897 0.409537
O O12 0.500000 0.750000 0.253289
O O13 0.440556 0.835751 0.166463
O O14 0.928820 0.341982 0.532474
O O15 0.841469 0.408089 0.606383
O O16 0.000000 0.250000 0.960527
O O17 0.000203 0.389180 0.930672
O O18 0.000000 0.500000 0.500000
#
# Coordination Sequence:
#
# PCOD9533219 Si02
#       8
#    16  16  16  16  16  16  16  16
#     4  12  22  35  62  88 115 156 200 245 307 362
#     4   9  17  33  59  86 115 154 198 248 306 369
#     4  11  22  36  56  86 119 155 205 254 301 359
#     4   9  19  35  61  91 115 148 203 255 303 370
#     4   9  16  34  59  83 113 158 200 238 300 372
#     4   9  16  28  54  88 112 143 190 239 299 352
#     4  11  22  37  56  85 120 161 205 250 301 372
#     4  12  20  35  59  86 121 151 189 257 310 350
#
# _framework density 18.072814999999999
#
# number of rings (size 3 to 8) (size 9 to 14) (size 15 to 20)
#    0.000    1.750    5.000    2.250    0.000    0.500 
#    0.000    4.375    5.500    1.500    0.000    0.000 
#    0.000    0.000    0.000    0.000    0.000    0.000 
#
# Total GULP energy -356320.621838 kJ/mol
# GULP energy per Si atom -5567.509716 kJ/mol
# Density = 1.803168 g / cm^3
# Si number density = 18.072815 Si / 1000 Ang^3
#
#
#
# Elastic Constant Matrix: (Units=GPa)
#
#
# Indices 1 2 3 4 5 6 
#
# 1 100.3075 34.7660 16.6001 0.0000 0.0000 0.0000
# 2 34.7660 126.0815 16.2784 0.0000 0.0000 0.0000
# 3 16.6001 16.2784 60.5158 0.0000 0.0000 0.0000
# 4 0.0000 0.0000 0.0000 25.5509 0.0000 0.0000
# 5 0.0000 0.0000 0.0000 0.0000 17.1642 0.0000
# 6 0.0000 0.0000 0.0000 0.0000 0.0000 27.1964
#
#
#
# Elastic Compliance Matrix: (Units=1/GPa)
#
#
# Indices 1 2 3 4 5 6 
#
# 1 0.011337 -0.002823 -0.002351 0.000000 0.000000 0.000000
# 2 -0.002823 0.008919 -0.001625 0.000000 0.000000 0.000000
# 3 -0.002351 -0.001625 0.017607 0.000000 0.000000 0.000000
# 4 0.000000 0.000000 0.000000 0.039138 0.000000 0.000000
# 5 0.000000 0.000000 0.000000 0.000000 0.058261 0.000000
# 6 0.000000 0.000000 0.000000 0.000000 0.000000 0.036770
#
#
# Mechanical properties :
#
#
# Convention : Reuss Voigt Hill
#
# Bulk Modulus (GPa) = 41.20914 46.91044 44.05979
# Shear Modulus (GPa) = 25.81106 28.59965 27.20535
#
# Velocity S-wave (km/s) = 3.78321 3.98234 3.88405
# Velocity P-wave (km/s) = 6.47571 6.86717 6.67431
#
# Compressibility (1/GPa) = 0.02426646
#
# Stress axis : x y z
#
# Youngs Moduli (GPa) = 88.20986 112.11425 56.79715
#
# Poissons Ratio (x) = 0.31644 0.13350
# Poissons Ratio (y) = 0.24897 0.09230
# Poissons Ratio (z) = 0.20734 0.18219
#
# Static dielectric constant tensor:
#      x y z
#    x 1.621790 0.000000 0.000000 
#    y 0.000000 1.781040 0.000000 
#    z 0.000000 0.000000 1.636590 
# 
# From -- ./inp_files/27052.got.cif
#   From: 2010.05.17/outbox.cif.g08.bks.cpg/sg73_14_cif.got.tgz:27052.got - 2010.06.03 17:35:07.
