data_PCOD9533281
_publ_section_title
;
Structure prediction by ZEFSAII (Michael W. Deem and Ramdas Pophale) SiO2 
 PCOD9533281
Probable space group: I B C A 
;
_chemical_formula_sum "Si O2"
_cell_formula_units_Z 96
_cell_length_a 19.491500
_cell_length_b 25.877246
_cell_length_c 8.518872
_cell_angle_alpha 90.000000
_cell_angle_beta 90.000000
_cell_angle_gamma 90.000000
_cell_volume 4296.802672
_symmetry_space_group_name_H-M "I B C A "
_symmetry_group_IT_number 73
_symmetry_cell_setting 'orthorhombic'
loop_
_space_group_symop_operation_xyz
x,y,z
-x,1/2-y,z
x,-y,1/2-z
1/2-x,y,-z
-x,-y,-z
x,1/2+y,-z
-x,y,1/2+z
1/2+x,-y,z
1/2+x,1/2+y,1/2+z
1/2-x,-y,1/2+z
1/2+x,1/2-y,-z
-x,1/2+y,1/2-z
1/2-x,1/2-y,1/2-z
1/2+x,y,1/2-z
1/2-x,1/2+y,z
x,1/2-y,1/2+z
loop_
_atom_site_type_symbol
_atom_site_label
_atom_site_fract_x
_atom_site_fract_y
_atom_site_fract_z
Si Si1 0.394314 0.185393 0.906437
Si Si2 0.318728 0.500000 0.250000
Si Si3 0.370009 0.620424 0.692187
Si Si4 0.831544 0.579483 0.492204
Si Si5 0.701459 0.781004 0.639164
Si Si6 0.010251 0.188727 0.787491
Si Si7 0.750000 0.927554 0.500000
O O1 0.344486 0.137164 0.929462
O O2 0.356800 0.240631 0.912859
O O3 0.431529 0.173695 0.740277
O O4 0.452057 0.186217 0.044568
O O5 0.359099 0.464146 0.373901
O O6 0.271753 0.538247 0.351758
O O7 0.327793 0.671964 0.737145
O O8 0.444679 0.647854 0.682545
O O9 0.322214 0.599836 0.550782
O O10 0.365829 0.580362 0.835668
O O11 0.750000 0.570932 0.500000
O O12 0.750000 0.799716 0.500000
O O13 0.750000 0.750000 0.750000
O O14 0.000000 0.250000 0.744174
#
# Coordination Sequence:
#
# PCOD9533281 Si02
#       7
#    16   8  16  16  16  16   8
#     4  11  25  41  67  92 145 185 229 273 332 414
#     4  12  24  42  74  96 134 164 228 298 378 416
#     4  11  23  39  64  98 140 174 229 272 340 417
#     4  11  22  44  65 100 130 172 221 293 350 409
#     4  12  24  39  61  99 140 185 221 285 337 404
#     4  11  23  42  63  95 140 195 229 262 318 414
#     4  12  22  42  68 102 132 176 222 296 358 412
#
# _framework density 22.342193000000002
#
# number of rings (size 3 to 8) (size 9 to 14) (size 15 to 20)
#    0.000    0.667    5.000    4.000    0.000    1.333 
#    0.000    0.000    0.000   10.000    0.000    0.000 
#    0.000    0.000    0.000    0.000    0.000    0.000 
#
# Total GULP energy -267470.926638 kJ/mol
# GULP energy per Si atom -5572.310972 kJ/mol
# Density = 2.229134 g / cm^3
# Si number density = 22.342193 Si / 1000 Ang^3
#
#
#
# Elastic Constant Matrix: (Units=GPa)
#
#
# Indices 1 2 3 4 5 6 
#
# 1 68.0850 24.0355 34.7895 0.0000 0.0000 0.0000
# 2 24.0355 89.1858 39.9220 0.0000 0.0000 0.0000
# 3 34.7895 39.9220 87.8481 0.0000 0.0000 0.0000
# 4 0.0000 0.0000 0.0000 32.6920 0.0000 0.0000
# 5 0.0000 0.0000 0.0000 0.0000 39.2450 0.0000
# 6 0.0000 0.0000 0.0000 0.0000 0.0000 3.4183
#
#
#
# Elastic Compliance Matrix: (Units=1/GPa)
#
#
# Indices 1 2 3 4 5 6 
#
# 1 0.018742 -0.002170 -0.006436 0.000000 0.000000 0.000000
# 2 -0.002170 0.014327 -0.005651 0.000000 0.000000 0.000000
# 3 -0.006436 -0.005651 0.016500 0.000000 0.000000 0.000000
# 4 0.000000 0.000000 0.000000 0.030589 0.000000 0.000000
# 5 0.000000 0.000000 0.000000 0.000000 0.025481 0.000000
# 6 0.000000 0.000000 0.000000 0.000000 0.000000 0.292544
#
#
# Mechanical properties :
#
#
# Convention : Reuss Voigt Hill
#
# Bulk Modulus (GPa) = 47.49584 49.17920 48.33752
# Shear Modulus (GPa) = 11.52826 24.82918 18.17872
#
# Velocity S-wave (km/s) = 2.27400 3.33725 2.85555
# Velocity P-wave (km/s) = 5.31030 6.07530 5.70563
#
# Compressibility (1/GPa) = 0.02105448
#
# Stress axis : x y z
#
# Youngs Moduli (GPa) = 53.35535 69.79768 60.60458
#
# Poissons Ratio (x) = 0.15146 0.39006
# Poissons Ratio (y) = 0.11578 0.34251
# Poissons Ratio (z) = 0.34340 0.39446
#
# Static dielectric constant tensor:
#      x y z
#    x 1.798450 0.000000 0.000000 
#    y 0.000000 2.443250 0.000000 
#    z 0.000000 0.000000 1.903780 
# 
# From -- ./inp_files/6508.got.cif
#   From: 2010.05.17/outbox.cif.g08.bks.cpg/sg73_4_cif.got.tgz:6508.got - 2010.06.03 17:35:07.
