data_PCOD9533910
_publ_section_title
;
Structure prediction by ZEFSAII (Michael W. Deem and Ramdas Pophale) SiO2 
 PCOD9533910
Probable space group: I M M A
;
_chemical_formula_sum "Si O2"
_cell_formula_units_Z 60
_cell_length_a 19.111476
_cell_length_b 14.504344
_cell_length_c 13.651813
_cell_angle_alpha 90.000000
_cell_angle_beta 90.000000
_cell_angle_gamma 90.000000
_cell_volume 3784.274676
_symmetry_space_group_name_H-M "I M M A"
_symmetry_group_IT_number 74
_symmetry_cell_setting 'orthorhombic'
loop_
_space_group_symop_operation_xyz
x,y,z
-x,1/2-y,z
x,-y,-z
-x,1/2+y,-z
-x,-y,-z
x,1/2+y,-z
-x,y,z
x,1/2-y,z
1/2+x,1/2+y,1/2+z
1/2-x,-y,1/2+z
1/2+x,1/2-y,1/2-z
1/2-x,y,1/2-z
1/2-x,1/2-y,1/2-z
1/2+x,y,1/2-z
1/2-x,1/2+y,1/2+z
1/2+x,-y,1/2+z
loop_
_atom_site_type_symbol
_atom_site_label
_atom_site_fract_x
_atom_site_fract_y
_atom_site_fract_z
Si Si1 0.118435 0.750000 0.870019
Si Si2 0.209052 0.953677 0.603888
Si Si3 0.000000 0.046671 0.892744
Si Si4 0.000000 0.250000 0.967208
Si Si5 0.863404 0.045133 0.197860
Si Si6 0.770420 0.750000 0.632627
O O1 0.114708 0.654033 0.809661
O O2 0.194989 0.750000 0.917665
O O3 0.064422 0.750000 0.957623
O O4 0.161195 0.986049 0.694361
O O5 0.291454 0.963482 0.634227
O O6 0.194070 0.844202 0.603464
O O7 0.196591 0.000000 0.500000
O O8 0.000000 0.156440 0.905701
O O9 0.070801 0.011834 0.840790
O O10 0.000000 0.000000 0.000000
O O11 0.750000 0.750000 0.750000
#
# Coordination Sequence:
#
# PCOD9533910 Si02
#       6
#     8  16   8   4  16   8
#     4  10  16  30  52  76 103 128 175 227 264 302
#     4  10  19  33  55  80 108 144 181 224 271 320
#     4  12  22  34  53  78 109 141 172 227 277 323
#     4  12  24  32  50  84 108 140 172 214 292 316
#     4  10  19  34  52  80 109 136 180 226 267 316
#     4  10  16  32  53  78 105 138 180 235 265 295
#
# _framework density 15.855086
#
# number of rings (size 3 to 8) (size 9 to 14) (size 15 to 20)
#    0.000    1.600    8.000    0.800    3.733    0.000 
#    0.000    2.000    0.000    3.200    0.000    0.000 
#    0.000    0.000    0.000    0.000    0.000    0.000 
#
# Total GULP energy -167015.260654 kJ/mol
# GULP energy per Si atom -5567.175355 kJ/mol
# Density = 1.581900 g / cm^3
# Si number density = 15.855086 Si / 1000 Ang^3
#
#
#
# Elastic Constant Matrix: (Units=GPa)
#
#
# Indices 1 2 3 4 5 6 
#
# 1 102.8965 42.9884 55.3155 0.0000 0.0000 0.0000
# 2 42.9884 117.0404 70.2036 0.0000 0.0000 0.0000
# 3 55.3155 70.2036 129.6807 0.0000 0.0000 0.0000
# 4 0.0000 0.0000 0.0000 22.9046 0.0000 0.0000
# 5 0.0000 0.0000 0.0000 0.0000 19.6539 0.0000
# 6 0.0000 0.0000 0.0000 0.0000 0.0000 22.4668
#
#
#
# Elastic Compliance Matrix: (Units=1/GPa)
#
#
# Indices 1 2 3 4 5 6 
#
# 1 0.012962 -0.002139 -0.004371 0.000000 0.000000 0.000000
# 2 -0.002139 0.013006 -0.006128 0.000000 0.000000 0.000000
# 3 -0.004371 -0.006128 0.012893 0.000000 0.000000 0.000000
# 4 0.000000 0.000000 0.000000 0.043659 0.000000 0.000000
# 5 0.000000 0.000000 0.000000 0.000000 0.050880 0.000000
# 6 0.000000 0.000000 0.000000 0.000000 0.000000 0.044510
#
#
# Mechanical properties :
#
#
# Convention : Reuss Voigt Hill
#
# Bulk Modulus (GPa) = 73.61457 76.29251 74.95354
# Shear Modulus (GPa) = 24.07141 25.07906 24.57523
#
# Velocity S-wave (km/s) = 3.90065 3.98146 3.94126
# Velocity P-wave (km/s) = 8.17418 8.32821 8.25155
#
# Compressibility (1/GPa) = 0.01358427
#
# Stress axis : x y z
#
# Youngs Moduli (GPa) = 77.14912 76.88991 77.55993
#
# Poissons Ratio (x) = 0.16447 0.33901
# Poissons Ratio (y) = 0.16503 0.47531
# Poissons Ratio (z) = 0.33721 0.47120
#
# Static dielectric constant tensor:
#      x y z
#    x 1.542930 0.000000 0.000000 
#    y 0.000000 1.564550 0.000000 
#    z 0.000000 0.000000 1.531040 
# 
# From -- ./inp_files/19857.got.cif
#   From: 2010.05.17/outbox.cif.g08.bks.cpg/sg74_10_cif.got.tgz:19857.got - 2010.06.03 17:57:02.
