data_PCOD9533306
_publ_section_title
;
Structure prediction by ZEFSAII (Michael W. Deem and Ramdas Pophale) SiO2 
 PCOD9533306
Probable space group: I B C A 
;
_chemical_formula_sum "Si O2"
_cell_formula_units_Z 64
_cell_length_a 14.711935
_cell_length_b 13.799578
_cell_length_c 13.577557
_cell_angle_alpha 90.000000
_cell_angle_beta 90.000000
_cell_angle_gamma 90.000000
_cell_volume 2756.495182
_symmetry_space_group_name_H-M "I B C A "
_symmetry_group_IT_number 73
_symmetry_cell_setting 'orthorhombic'
loop_
_space_group_symop_operation_xyz
x,y,z
-x,1/2-y,z
x,-y,1/2-z
1/2-x,y,-z
-x,-y,-z
x,1/2+y,-z
-x,y,1/2+z
1/2+x,-y,z
1/2+x,1/2+y,1/2+z
1/2-x,-y,1/2+z
1/2+x,1/2-y,-z
-x,1/2+y,1/2-z
1/2-x,1/2-y,1/2-z
1/2+x,y,1/2-z
1/2-x,1/2+y,z
x,1/2-y,1/2+z
loop_
_atom_site_type_symbol
_atom_site_label
_atom_site_fract_x
_atom_site_fract_y
_atom_site_fract_z
Si Si1 0.086385 0.312743 0.016259
Si Si2 0.326576 0.522346 0.638674
Si Si3 0.726139 0.831064 0.115521
Si Si4 0.342869 0.841021 0.815932
O O1 0.104909 0.410795 0.077328
O O2 0.169563 0.238195 0.041646
O O3 0.000000 0.250000 0.044203
O O4 0.081439 0.342460 0.900631
O O5 0.359218 0.500000 0.750000
O O6 0.287897 0.424310 0.590906
O O7 0.235722 0.586658 0.648838
O O8 0.650980 0.860237 0.199638
O O9 0.800931 0.765596 0.171195
#
# Coordination Sequence:
#
# PCOD9533306 Si02
#       4
#    16  16  16  16
#     4  11  23  37  57  93 131 157 195 263 330 367
#     4   9  18  37  62  83 110 158 214 252 289 361
#     4   9  18  37  62  82 111 165 216 249 294 368
#     4   9  19  35  58  86 116 157 210 255 297 365
#
# _framework density 23.217889
#
# number of rings (size 3 to 8) (size 9 to 14) (size 15 to 20)
#    0.000    2.500    0.000    4.500    0.000    5.000 
#    0.000    8.750    0.000    0.000    0.000    0.000 
#    0.000    0.000    0.000    0.000    0.000    0.000 
#
# Total GULP energy -178174.603014 kJ/mol
# GULP energy per Si atom -5567.956344 kJ/mol
# Density = 2.316504 g / cm^3
# Si number density = 23.217889 Si / 1000 Ang^3
#
#
#
# Elastic Constant Matrix: (Units=GPa)
#
#
# Indices 1 2 3 4 5 6 
#
# 1 66.5721 20.9244 14.7629 0.0000 0.0000 0.0000
# 2 20.9244 136.0121 22.3434 0.0000 0.0000 0.0000
# 3 14.7629 22.3434 104.5085 0.0000 0.0000 0.0000
# 4 0.0000 0.0000 0.0000 8.4101 0.0000 0.0000
# 5 0.0000 0.0000 0.0000 0.0000 9.5948 0.0000
# 6 0.0000 0.0000 0.0000 0.0000 0.0000 32.1906
#
#
#
# Elastic Compliance Matrix: (Units=1/GPa)
#
#
# Indices 1 2 3 4 5 6 
#
# 1 0.016108 -0.002181 -0.001809 0.000000 0.000000 0.000000
# 2 -0.002181 0.007915 -0.001384 0.000000 0.000000 0.000000
# 3 -0.001809 -0.001384 0.010120 0.000000 0.000000 0.000000
# 4 0.000000 0.000000 0.000000 0.118905 0.000000 0.000000
# 5 0.000000 0.000000 0.000000 0.000000 0.104223 0.000000
# 6 0.000000 0.000000 0.000000 0.000000 0.000000 0.031065
#
#
# Mechanical properties :
#
#
# Convention : Reuss Voigt Hill
#
# Bulk Modulus (GPa) = 42.74446 47.01714 44.88080
# Shear Modulus (GPa) = 16.29285 26.64323 21.46804
#
# Velocity S-wave (km/s) = 2.65191 3.39120 3.04408
# Velocity P-wave (km/s) = 5.27512 5.96892 5.63271
#
# Compressibility (1/GPa) = 0.02339485
#
# Stress axis : x y z
#
# Youngs Moduli (GPa) = 62.08108 126.33954 98.81340
#
# Poissons Ratio (x) = 0.27553 0.17877
# Poissons Ratio (y) = 0.13539 0.13677
# Poissons Ratio (z) = 0.11231 0.17487
#
# Static dielectric constant tensor:
#      x y z
#    x 1.861650 0.000000 0.000000 
#    y 0.000000 1.896050 0.000000 
#    z 0.000000 0.000000 2.125970 
# 
# From -- ./inp_files/16613.got.cif
#   From: 2010.05.17/outbox.cif.g08.bks.cpg/sg73_9_cif.got.tgz:16613.got - 2010.06.03 17:35:07.
