data_PCOD9533752
_publ_section_title
;
Structure prediction by ZEFSAII (Michael W. Deem and Ramdas Pophale) SiO2 
 PCOD9533752
Probable space group: I B C A 
;
_chemical_formula_sum "Si O2"
_cell_formula_units_Z 48
_cell_length_a 9.000000
_cell_length_b 21.000000
_cell_length_c 27.000000
_cell_angle_alpha 90.000000
_cell_angle_beta 90.000000
_cell_angle_gamma 90.000000
_cell_volume 5103.000000
_symmetry_space_group_name_H-M "I B C A "
_symmetry_group_IT_number 73
_symmetry_cell_setting 'orthorhombic'
loop_
_space_group_symop_operation_xyz
x,y,z
-x,1/2-y,z
x,-y,1/2-z
1/2-x,y,-z
-x,-y,-z
x,1/2+y,-z
-x,y,1/2+z
1/2+x,-y,z
1/2+x,1/2+y,1/2+z
1/2-x,-y,1/2+z
1/2+x,1/2-y,-z
-x,1/2+y,1/2-z
1/2-x,1/2-y,1/2-z
1/2+x,y,1/2-z
1/2-x,1/2+y,z
x,1/2-y,1/2+z
loop_
_atom_site_type_symbol
_atom_site_label
_atom_site_fract_x
_atom_site_fract_y
_atom_site_fract_z
Si Si1 0.542884 0.500000 0.250000
Si Si2 0.792607 0.576865 0.308092
Si Si3 0.523589 0.425892 0.001836
Si Si4 0.820637 0.248472 0.094886
Si Si5 0.750000 0.163317 0.000000
Si Si6 0.169733 0.770501 0.299085
Si Si7 0.270455 0.105484 0.918342
O O1 0.650534 0.549140 0.278865
O O2 0.435146 0.460845 0.286938
O O3 0.815441 0.652960 0.302989
O O4 0.769285 0.568800 0.366784
O O5 0.644657 0.415130 0.043924
O O6 0.500000 0.500000 0.000000
O O7 0.384522 0.382670 0.013105
O O8 0.577638 0.405556 0.947558
O O9 0.772299 0.234305 0.151349
O O10 0.758226 0.319068 0.087505
O O11 0.000000 0.250000 0.095654
O O12 0.776822 0.205885 0.048536
O O13 0.250000 0.750000 0.250000
O O14 0.000000 0.750000 0.294697
#
# Coordination Sequence:
#
# PCOD9533752 Si02
#       7
#     8  16  16  16   8  16  16
#     4  10  22  42  64  92 122 168 214 246 300 368
#     4  10  22  41  64  92 123 165 205 256 304 367
#     4  11  24  41  58  91 124 160 203 253 299 371
#     4  10  21  39  64  90 120 162 200 255 312 361
#     4  12  22  40  66  92 118 166 212 248 310 380
#     4  10  21  41  62  91 126 158 199 256 314 362
#     4  10  22  41  61  85 128 157 198 256 311 353
#
# _framework density 9.4062319999999993
#
# number of rings (size 3 to 8) (size 9 to 14) (size 15 to 20)
#    0.000    1.667    1.667    3.000    2.333    0.000 
#    9.000    0.000    0.000    0.000    0.000    0.000 
#    0.000    0.000    0.000    0.000    0.000    0.000 
#
# Total GULP energy -267559.087042 kJ/mol
# GULP energy per Si atom -5574.147647 kJ/mol
# Density = 0.938482 g / cm^3
# Si number density = 9.406232 Si / 1000 Ang^3
#
#
#
# Elastic Constant Matrix: (Units=GPa)
#
#
# Indices 1 2 3 4 5 6 
#
# 1 67.5225 37.8754 56.9260 0.0000 0.0000 0.0000
# 2 37.8754 80.9184 59.6426 0.0000 0.0000 0.0000
# 3 56.9260 59.6426 164.9052 0.0000 0.0000 0.0000
# 4 0.0000 0.0000 0.0000 26.0566 0.0000 0.0000
# 5 0.0000 0.0000 0.0000 0.0000 13.4398 0.0000
# 6 0.0000 0.0000 0.0000 0.0000 0.0000 30.3492
#
#
#
# Elastic Compliance Matrix: (Units=1/GPa)
#
#
# Indices 1 2 3 4 5 6 
#
# 1 0.023345 -0.006800 -0.005599 0.000000 0.000000 0.000000
# 2 -0.006800 0.018831 -0.004463 0.000000 0.000000 0.000000
# 3 -0.005599 -0.004463 0.009611 0.000000 0.000000 0.000000
# 4 0.000000 0.000000 0.000000 0.038378 0.000000 0.000000
# 5 0.000000 0.000000 0.000000 0.000000 0.074406 0.000000
# 6 0.000000 0.000000 0.000000 0.000000 0.000000 0.032950
#
#
# Mechanical properties :
#
#
# Convention : Reuss Voigt Hill
#
# Bulk Modulus (GPa) = 55.36566 69.13711 62.25139
# Shear Modulus (GPa) = 21.07338 24.56259 22.81799
#
# Velocity S-wave (km/s) = 3.35054 3.61731 3.48648
# Velocity P-wave (km/s) = 6.66801 7.36729 7.02636
#
# Compressibility (1/GPa) = 0.01806174
#
# Stress axis : x y z
#
# Youngs Moduli (GPa) = 42.83622 53.10476 104.04422
#
# Poissons Ratio (x) = 0.36110 0.58258
# Poissons Ratio (y) = 0.29128 0.46438
# Poissons Ratio (z) = 0.23986 0.23702
#
# Static dielectric constant tensor:
#      x y z
#    x 1.713870 0.000000 0.000000 
#    y 0.000000 1.609590 0.000000 
#    z 0.000000 0.000000 1.677850 
# 
# From -- ./inp_files/7841.got.cif
#   From: 2010.05.17/outbox.ucp.g08.bks.cvg/sg73_4_cif.got.tgz:7841.got - 2010.06.11 16:36:03.
