data_PCOD9533237
_publ_section_title
;
Structure prediction by ZEFSAII (Michael W. Deem and Ramdas Pophale) SiO2 
 PCOD9533237
Probable space group: I B C A 
;
_chemical_formula_sum "Si O2"
_cell_formula_units_Z 64
_cell_length_a 18.859848
_cell_length_b 7.805405
_cell_length_c 19.226227
_cell_angle_alpha 90.000000
_cell_angle_beta 90.000000
_cell_angle_gamma 90.000000
_cell_volume 2830.268880
_symmetry_space_group_name_H-M "I B C A "
_symmetry_group_IT_number 73
_symmetry_cell_setting 'orthorhombic'
loop_
_space_group_symop_operation_xyz
x,y,z
-x,1/2-y,z
x,-y,1/2-z
1/2-x,y,-z
-x,-y,-z
x,1/2+y,-z
-x,y,1/2+z
1/2+x,-y,z
1/2+x,1/2+y,1/2+z
1/2-x,-y,1/2+z
1/2+x,1/2-y,-z
-x,1/2+y,1/2-z
1/2-x,1/2-y,1/2-z
1/2+x,y,1/2-z
1/2-x,1/2+y,z
x,1/2-y,1/2+z
loop_
_atom_site_type_symbol
_atom_site_label
_atom_site_fract_x
_atom_site_fract_y
_atom_site_fract_z
Si Si1 0.156713 0.874506 0.927159
Si Si2 0.179405 0.031807 0.417746
Si Si3 0.445044 0.390415 0.809305
Si Si4 0.672452 0.808457 0.275859
O O1 0.234615 0.955850 0.915413
O O2 0.160353 0.669722 0.910170
O O3 0.097241 0.954872 0.877077
O O4 0.147776 0.903467 0.009321
O O5 0.159335 0.164470 0.357380
O O6 0.500000 0.250000 0.835371
O O7 0.485394 0.500000 0.750000
O O8 0.383565 0.311431 0.760984
O O9 0.750000 0.750000 0.250000
O O10 0.664459 0.000000 0.250000
#
# Coordination Sequence:
#
# PCOD9533237 Si02
#       4
#    16  16  16  16
#     4  11  24  41  69 102 142 178 224 286 353 415
#     4  11  22  39  67 103 138 171 230 282 348 403
#     4  12  28  46  68  97 139 183 237 288 352 413
#     4  12  22  40  70 102 133 177 231 290 341 408
#
# _framework density 22.612693
#
# number of rings (size 3 to 8) (size 9 to 14) (size 15 to 20)
#    0.000    0.500    5.000    4.500    7.000    0.000 
#    0.000    2.500    0.000    0.000    0.000    0.000 
#    0.000    0.000    0.000    0.000    0.000    0.000 
#
# Total GULP energy -178779.587885 kJ/mol
# GULP energy per Si atom -5586.862121 kJ/mol
# Density = 2.256123 g / cm^3
# Si number density = 22.612693 Si / 1000 Ang^3
#
#
#
# Elastic Constant Matrix: (Units=GPa)
#
#
# Indices 1 2 3 4 5 6 
#
# 1 54.8965 2.6948 23.1105 0.0000 0.0000 0.0000
# 2 2.6948 84.2729 10.6385 0.0000 0.0000 0.0000
# 3 23.1105 10.6385 159.8171 0.0000 0.0000 0.0000
# 4 0.0000 0.0000 0.0000 34.5484 0.0000 0.0000
# 5 0.0000 0.0000 0.0000 0.0000 15.2350 0.0000
# 6 0.0000 0.0000 0.0000 0.0000 0.0000 19.7514
#
#
#
# Elastic Compliance Matrix: (Units=1/GPa)
#
#
# Indices 1 2 3 4 5 6 
#
# 1 0.019403 -0.000269 -0.002788 0.000000 0.000000 0.000000
# 2 -0.000269 0.011970 -0.000758 0.000000 0.000000 0.000000
# 3 -0.002788 -0.000758 0.006711 0.000000 0.000000 0.000000
# 4 0.000000 0.000000 0.000000 0.028945 0.000000 0.000000
# 5 0.000000 0.000000 0.000000 0.000000 0.065638 0.000000
# 6 0.000000 0.000000 0.000000 0.000000 0.000000 0.050629
#
#
# Mechanical properties :
#
#
# Convention : Reuss Voigt Hill
#
# Bulk Modulus (GPa) = 32.83496 41.31934 37.07715
# Shear Modulus (GPa) = 24.86604 31.40980 28.13792
#
# Velocity S-wave (km/s) = 3.31969 3.73102 3.53135
# Velocity P-wave (km/s) = 5.40795 6.07231 5.74973
#
# Compressibility (1/GPa) = 0.03045535
#
# Stress axis : x y z
#
# Youngs Moduli (GPa) = 51.53856 83.53875 149.01448
#
# Poissons Ratio (x) = 0.02243 0.41544
# Poissons Ratio (y) = 0.01384 0.11295
# Poissons Ratio (z) = 0.14368 0.06332
#
# Static dielectric constant tensor:
#      x y z
#    x 1.776870 0.000000 0.000000 
#    y 0.000000 1.965740 0.000000 
#    z 0.000000 0.000000 2.037150 
# 
# From -- ./inp_files/6082.got.cif
#   From: 2010.05.17/outbox.cif.g08.bks.cpg/sg73_4_cif.got.tgz:6082.got - 2010.06.03 17:35:07.
