data_PCOD9533686
_publ_section_title
;
Structure prediction by ZEFSAII (Michael W. Deem and Ramdas Pophale) SiO2 
 PCOD9533686
Probable space group: I B C A 
;
_chemical_formula_sum "Si O2"
_cell_formula_units_Z 72
_cell_length_a 5.083645
_cell_length_b 21.562610
_cell_length_c 28.294138
_cell_angle_alpha 90.000000
_cell_angle_beta 90.000000
_cell_angle_gamma 90.000000
_cell_volume 3101.508750
_symmetry_space_group_name_H-M "I B C A "
_symmetry_group_IT_number 73
_symmetry_cell_setting 'orthorhombic'
loop_
_space_group_symop_operation_xyz
x,y,z
-x,1/2-y,z
x,-y,1/2-z
1/2-x,y,-z
-x,-y,-z
x,1/2+y,-z
-x,y,1/2+z
1/2+x,-y,z
1/2+x,1/2+y,1/2+z
1/2-x,-y,1/2+z
1/2+x,1/2-y,-z
-x,1/2+y,1/2-z
1/2-x,1/2-y,1/2-z
1/2+x,y,1/2-z
1/2-x,1/2+y,z
x,1/2-y,1/2+z
loop_
_atom_site_type_symbol
_atom_site_label
_atom_site_fract_x
_atom_site_fract_y
_atom_site_fract_z
Si Si1 0.381963 0.630986 0.949121
Si Si2 0.561972 0.615705 0.720843
Si Si3 0.750000 0.046341 0.000000
Si Si4 0.115706 0.042496 0.124576
Si Si5 0.000000 0.250000 0.680499
Si Si6 0.000000 0.250000 0.385797
O O1 0.193177 0.587044 0.918441
O O2 0.435236 0.691920 0.918977
O O3 0.250000 0.644028 0.000000
O O4 0.650815 0.593768 0.959649
O O5 0.272573 0.599346 0.739033
O O6 0.635708 0.581160 0.672808
O O7 0.567270 0.689351 0.710823
O O8 0.500000 0.000000 0.000000
O O9 0.330219 0.987935 0.123068
O O10 0.749536 0.264311 0.647402
#
# Coordination Sequence:
#
# PCOD9533686 Si02
#       6
#    16  16   8  16   8   8
#     4  12  30  51  78 115 155 211 267 323 389 457
#     4  12  26  49  83 115 151 199 253 317 390 465
#     4  12  26  46  76 108 150 200 260 312 374 460
#     4  12  29  49  78 113 159 201 255 318 385 464
#     4  12  26  52  78 116 152 206 256 324 392 470
#     4  12  30  48  82 108 164 202 260 332 398 450
#
# _framework density 23.214507999999999
#
# number of rings (size 3 to 8) (size 9 to 14) (size 15 to 20)
#    0.000    0.000    3.333    4.667   10.889    2.667 
#    0.000    0.000    0.000    0.000    0.000    0.000 
#    0.000    0.000    0.000    0.000    0.000    0.000 
#
# Total GULP energy -201864.308030 kJ/mol
# GULP energy per Si atom -5607.341890 kJ/mol
# Density = 2.316167 g / cm^3
# Si number density = 23.214508 Si / 1000 Ang^3
#
#
#
# Elastic Constant Matrix: (Units=GPa)
#
#
# Indices 1 2 3 4 5 6 
#
# 1 135.5497 16.6955 42.4476 0.0000 0.0000 0.0000
# 2 16.6955 56.0582 12.0632 0.0000 0.0000 0.0000
# 3 42.4476 12.0632 98.6496 0.0000 0.0000 0.0000
# 4 0.0000 0.0000 0.0000 40.4363 0.0000 0.0000
# 5 0.0000 0.0000 0.0000 0.0000 47.7880 0.0000
# 6 0.0000 0.0000 0.0000 0.0000 0.0000 22.5428
#
#
#
# Elastic Compliance Matrix: (Units=1/GPa)
#
#
# Indices 1 2 3 4 5 6 
#
# 1 0.008706 -0.001835 -0.003522 0.000000 0.000000 0.000000
# 2 -0.001835 0.018708 -0.001498 0.000000 0.000000 0.000000
# 3 -0.003522 -0.001498 0.011835 0.000000 0.000000 0.000000
# 4 0.000000 0.000000 0.000000 0.024730 0.000000 0.000000
# 5 0.000000 0.000000 0.000000 0.000000 0.020926 0.000000
# 6 0.000000 0.000000 0.000000 0.000000 0.000000 0.044360
#
#
# Mechanical properties :
#
#
# Convention : Reuss Voigt Hill
#
# Bulk Modulus (GPa) = 39.15509 48.07446 43.61477
# Shear Modulus (GPa) = 33.00588 36.75683 34.88136
#
# Velocity S-wave (km/s) = 3.77474 3.98346 3.88050
# Velocity P-wave (km/s) = 5.99178 6.47387 6.23749
#
# Compressibility (1/GPa) = 0.02553946
#
# Stress axis : x y z
#
# Youngs Moduli (GPa) = 114.86006 53.45447 84.49196
#
# Poissons Ratio (x) = 0.09809 0.29756
# Poissons Ratio (y) = 0.21078 0.12657
# Poissons Ratio (z) = 0.40451 0.08007
#
# Static dielectric constant tensor:
#      x y z
#    x 1.864060 0.000000 0.000000 
#    y 0.000000 1.887740 0.000000 
#    z 0.000000 0.000000 1.872080 
# 
# From -- ./inp_files/30873.got.cif
#   From: 2010.05.17/outbox.cif.g08.bks.cpg/sg73_16_cif.got.tgz:30873.got - 2010.06.03 17:35:07.
