data_PCOD9533400
_publ_section_title
;
Structure prediction by ZEFSAII (Michael W. Deem and Ramdas Pophale) SiO2 
 PCOD9533400
Probable space group: I B C A 
;
_chemical_formula_sum "Si O2"
_cell_formula_units_Z 72
_cell_length_a 14.820980
_cell_length_b 22.993314
_cell_length_c 10.093669
_cell_angle_alpha 90.000000
_cell_angle_beta 90.000000
_cell_angle_gamma 90.000000
_cell_volume 3439.755314
_symmetry_space_group_name_H-M "I B C A "
_symmetry_group_IT_number 73
_symmetry_cell_setting 'orthorhombic'
loop_
_space_group_symop_operation_xyz
x,y,z
-x,1/2-y,z
x,-y,1/2-z
1/2-x,y,-z
-x,-y,-z
x,1/2+y,-z
-x,y,1/2+z
1/2+x,-y,z
1/2+x,1/2+y,1/2+z
1/2-x,-y,1/2+z
1/2+x,1/2-y,-z
-x,1/2+y,1/2-z
1/2-x,1/2-y,1/2-z
1/2+x,y,1/2-z
1/2-x,1/2+y,z
x,1/2-y,1/2+z
loop_
_atom_site_type_symbol
_atom_site_label
_atom_site_fract_x
_atom_site_fract_y
_atom_site_fract_z
Si Si1 0.747182 0.895370 0.860447
Si Si2 0.577155 0.934209 0.217512
Si Si3 0.193083 0.764304 0.376324
Si Si4 0.547196 0.874493 0.927972
Si Si5 0.000000 0.250000 0.045291
O O1 0.814140 0.928296 0.764034
O O2 0.801052 0.834410 0.883681
O O3 0.642000 0.881439 0.846992
O O4 0.750000 0.929082 0.000000
O O5 0.528920 0.895566 0.327667
O O6 0.549464 0.000000 0.250000
O O7 0.551847 0.911691 0.067322
O O8 0.250000 0.740700 0.500000
O O9 0.250000 0.750000 0.250000
O O10 0.091853 0.740927 0.372853
O O11 0.525517 0.807534 0.963139
#
# Coordination Sequence:
#
# PCOD9533400 Si02
#       5
#    16  16  16  16   8
#     4   9  20  44  62  90 137 178 215 282 346 397
#     4  11  24  45  70  99 136 187 241 289 345 409
#     4  11  24  39  64  98 138 176 222 278 344 427
#     4  11  25  43  72 103 139 182 232 290 358 422
#     4  12  24  44  74 102 144 186 216 286 374 424
#
# _framework density 20.931722000000001
#
# number of rings (size 3 to 8) (size 9 to 14) (size 15 to 20)
#    0.000    1.333    6.667    0.667    6.222    2.667 
#    0.000    3.333    0.000    0.000    0.000    0.000 
#    0.000    0.000    0.000    0.000    0.000    0.000 
#
# Total GULP energy -200572.708104 kJ/mol
# GULP energy per Si atom -5571.464114 kJ/mol
# Density = 2.088408 g / cm^3
# Si number density = 20.931722 Si / 1000 Ang^3
#
#
#
# Elastic Constant Matrix: (Units=GPa)
#
#
# Indices 1 2 3 4 5 6 
#
# 1 175.3757 32.2021 73.5220 0.0000 0.0000 0.0000
# 2 32.2021 67.4644 21.6601 0.0000 0.0000 0.0000
# 3 73.5220 21.6601 108.1847 0.0000 0.0001 0.0000
# 4 0.0000 0.0000 0.0000 14.1715 0.0000 0.0000
# 5 0.0000 0.0000 0.0001 0.0000 32.3056 0.0000
# 6 0.0000 0.0000 0.0000 0.0000 0.0000 17.7843
#
#
#
# Elastic Compliance Matrix: (Units=1/GPa)
#
#
# Indices 1 2 3 4 5 6 
#
# 1 0.008294 -0.002297 -0.005177 0.000000 0.000000 0.000000
# 2 -0.002297 0.016477 -0.001738 0.000000 0.000000 0.000000
# 3 -0.005177 -0.001738 0.013110 0.000000 0.000000 0.000000
# 4 0.000000 0.000000 0.000000 0.070564 0.000000 0.000000
# 5 0.000000 0.000000 0.000000 0.000000 0.030954 0.000000
# 6 0.000000 0.000000 0.000000 0.000000 0.000000 0.056229
#
#
# Mechanical properties :
#
#
# Convention : Reuss Voigt Hill
#
# Bulk Modulus (GPa) = 51.39443 67.31033 59.35238
# Shear Modulus (GPa) = 22.67191 27.76166 25.21679
#
# Velocity S-wave (km/s) = 3.29467 3.64579 3.47467
# Velocity P-wave (km/s) = 6.25139 7.06748 6.67192
#
# Compressibility (1/GPa) = 0.01945736
#
# Stress axis : x y z
#
# Youngs Moduli (GPa) = 120.56907 60.69078 76.28054
#
# Poissons Ratio (x) = 0.13940 0.39488
# Poissons Ratio (y) = 0.27693 0.13257
# Poissons Ratio (z) = 0.62415 0.10548
#
# Static dielectric constant tensor:
#      x y z
#    x 1.795850 0.000000 0.000000 
#    y 0.000000 1.830010 0.000000 
#    z 0.000000 0.000000 1.828070 
# 
# From -- ./inp_files/4785.got.cif
#   From: 2010.05.17/outbox.cif.g08.bks.cpg/sg73_3_cif.got.tgz:4785.got - 2010.06.03 17:35:07.
