data_PCOD9533418
_publ_section_title
;
Structure prediction by ZEFSAII (Michael W. Deem and Ramdas Pophale) SiO2 
 PCOD9533418
Probable space group: I B C A 
;
_chemical_formula_sum "Si O2"
_cell_formula_units_Z 112
_cell_length_a 17.019337
_cell_length_b 26.223904
_cell_length_c 11.462901
_cell_angle_alpha 90.000000
_cell_angle_beta 90.000000
_cell_angle_gamma 90.000000
_cell_volume 5116.047003
_symmetry_space_group_name_H-M "I B C A "
_symmetry_group_IT_number 73
_symmetry_cell_setting 'orthorhombic'
loop_
_space_group_symop_operation_xyz
x,y,z
-x,1/2-y,z
x,-y,1/2-z
1/2-x,y,-z
-x,-y,-z
x,1/2+y,-z
-x,y,1/2+z
1/2+x,-y,z
1/2+x,1/2+y,1/2+z
1/2-x,-y,1/2+z
1/2+x,1/2-y,-z
-x,1/2+y,1/2-z
1/2-x,1/2-y,1/2-z
1/2+x,y,1/2-z
1/2-x,1/2+y,z
x,1/2-y,1/2+z
loop_
_atom_site_type_symbol
_atom_site_label
_atom_site_fract_x
_atom_site_fract_y
_atom_site_fract_z
Si Si1 0.444912 0.653772 0.524209
Si Si2 0.282674 0.295312 0.386183
Si Si3 0.000000 0.250000 0.389705
Si Si4 0.366541 0.203040 0.267936
Si Si5 0.386173 0.391540 0.413957
Si Si6 0.656924 0.504689 0.484012
Si Si7 0.567046 0.500000 0.250000
Si Si8 0.575850 0.568233 0.831971
O O1 0.454904 0.710138 0.470969
O O2 0.387070 0.661991 0.633149
O O3 0.526844 0.631065 0.570995
O O4 0.423836 0.616411 0.418432
O O5 0.250000 0.266809 0.500000
O O6 0.341306 0.257607 0.321145
O O7 0.209512 0.311358 0.306791
O O8 0.328174 0.344734 0.427505
O O9 0.941825 0.215714 0.311507
O O10 0.366278 0.436039 0.503959
O O11 0.379596 0.415570 0.285082
O O12 0.750000 0.498419 0.500000
O O13 0.620710 0.485896 0.361282
O O14 0.614748 0.475929 0.590688
O O15 0.508341 0.454329 0.209935
#
# Coordination Sequence:
#
# PCOD9533418 Si02
#       8
#    16  16   8  16  16  16   8  16
#     4  12  24  42  72 107 135 186 250 297 361 439
#     4  11  24  43  66  97 144 189 231 294 371 439
#     4  12  24  44  70 100 138 184 236 306 350 438
#     4  11  24  43  67 100 141 187 238 299 365 437
#     4  12  24  44  68 101 142 182 238 302 362 442
#     4  12  28  47  73 107 146 190 242 310 381 449
#     4  12  24  50  78 100 146 192 242 306 372 450
#     4  12  25  47  74 103 144 191 247 304 370 447
#
# _framework density 21.891902999999999
#
# number of rings (size 3 to 8) (size 9 to 14) (size 15 to 20)
#    0.000    0.286    2.857    7.286    2.000    2.286 
#    5.143    0.000    0.000    0.000    0.000    0.000 
#    0.000    0.000    0.000    0.000    0.000    0.000 
#
# Total GULP energy -313464.904339 kJ/mol
# GULP energy per Si atom -5597.587577 kJ/mol
# Density = 2.184208 g / cm^3
# Si number density = 21.891903 Si / 1000 Ang^3
#
#
#
# Elastic Constant Matrix: (Units=GPa)
#
#
# Indices 1 2 3 4 5 6 
#
# 1 93.5556 7.4476 37.5258 0.0000 -0.0001 0.0000
# 2 7.4476 65.5337 10.3123 0.0000 0.0000 0.0000
# 3 37.5258 10.3123 104.0324 0.0000 0.0016 -0.0002
# 4 0.0000 0.0000 0.0000 30.5426 0.0002 0.0000
# 5 -0.0001 0.0000 0.0016 0.0002 -176.5686 0.0000
# 6 0.0000 0.0000 -0.0002 0.0000 0.0000 38.1149
#
#
#
# Elastic Compliance Matrix: (Units=1/GPa)
#
#
# Indices 1 2 3 4 5 6 
#
# 1 0.012531 -0.000724 -0.004448 0.000000 0.000000 0.000000
# 2 -0.000724 0.015543 -0.001280 0.000000 0.000000 0.000000
# 3 -0.004448 -0.001280 0.011344 0.000000 0.000000 0.000000
# 4 0.000000 0.000000 0.000000 0.032741 0.000000 0.000000
# 5 0.000000 0.000000 0.000000 0.000000 -0.005664 0.000000
# 6 0.000000 0.000000 0.000000 0.000000 0.000000 0.026236
#
#
# Mechanical properties :
#
#
# Convention : Reuss Voigt Hill
#
# Bulk Modulus (GPa) = 37.71627 41.52146 39.61886
# Shear Modulus (GPa) = 43.67842 -7.72649 17.97597
#
# Velocity S-wave (km/s) = 4.47160 -1.88070 2.86863
# Velocity P-wave (km/s) = 6.62767 3.78044 5.39526
#
# Compressibility (1/GPa) = 0.02651376
#
# Stress axis : x y z
#
# Youngs Moduli (GPa) = 79.80410 64.33781 88.15425
#
# Poissons Ratio (x) = 0.04659 0.39213
# Poissons Ratio (y) = 0.05779 0.11280
# Poissons Ratio (z) = 0.35498 0.08232
#
# Static dielectric constant tensor:
#      x y z
#    x 1.781910 0.000000 0.000000 
#    y 0.000000 1.774410 0.000000 
#    z 0.000000 0.000000 1.802940 
# 
# From -- ./inp_files/11310.got.cif
#   From: 2010.05.17/outbox.cif.g08.bks.cpg/sg73_6_cif.got.tgz:11310.got - 2010.06.03 17:35:07.
