data_PCOD9533673
_publ_section_title
;
Structure prediction by ZEFSAII (Michael W. Deem and Ramdas Pophale) SiO2 
 PCOD9533673
Probable space group: I B C A 
;
_chemical_formula_sum "Si O2"
_cell_formula_units_Z 48
_cell_length_a 8.602014
_cell_length_b 16.657276
_cell_length_c 12.868230
_cell_angle_alpha 90.000000
_cell_angle_beta 90.000000
_cell_angle_gamma 90.000000
_cell_volume 1843.838765
_symmetry_space_group_name_H-M "I B C A "
_symmetry_group_IT_number 73
_symmetry_cell_setting 'orthorhombic'
loop_
_space_group_symop_operation_xyz
x,y,z
-x,1/2-y,z
x,-y,1/2-z
1/2-x,y,-z
-x,-y,-z
x,1/2+y,-z
-x,y,1/2+z
1/2+x,-y,z
1/2+x,1/2+y,1/2+z
1/2-x,-y,1/2+z
1/2+x,1/2-y,-z
-x,1/2+y,1/2-z
1/2-x,1/2-y,1/2-z
1/2+x,y,1/2-z
1/2-x,1/2+y,z
x,1/2-y,1/2+z
loop_
_atom_site_type_symbol
_atom_site_label
_atom_site_fract_x
_atom_site_fract_y
_atom_site_fract_z
Si Si1 0.162463 0.671817 0.296944
Si Si2 0.044007 0.068256 0.340510
Si Si3 0.437248 0.833958 0.504986
O O1 0.250000 0.750000 0.250000
O O2 0.083561 0.630376 0.200327
O O3 0.289510 0.610108 0.338993
O O4 0.524682 0.672382 0.117163
O O5 0.992729 0.079845 0.460512
O O6 0.044722 0.000000 0.250000
O O7 0.500000 0.750000 0.454800
O O8 0.250000 0.829421 0.500000
#
# Coordination Sequence:
#
# PCOD9533673 Si02
#       3
#    16  16  16
#     4  12  25  47  79 113 153 207 272 336 404 490
#     4  12  26  45  71 110 159 207 260 331 413 491
#     4  12  25  46  80 119 160 212 276 346 418 500
#
# _framework density 26.032644000000001
#
# number of rings (size 3 to 8) (size 9 to 14) (size 15 to 20)
#    0.000    0.000    0.000   13.000    0.000    1.333 
#    0.000    5.000    0.000    2.000    0.000    0.000 
#    0.000    0.000    0.000    0.000    0.000    0.000 
#
# Total GULP energy -133662.965319 kJ/mol
# GULP energy per Si atom -5569.290222 kJ/mol
# Density = 2.597339 g / cm^3
# Si number density = 26.032644 Si / 1000 Ang^3
#
#
#
# Elastic Constant Matrix: (Units=GPa)
#
#
# Indices 1 2 3 4 5 6 
#
# 1 199.5499 43.7921 29.7375 0.0000 0.0000 0.0000
# 2 43.7921 151.8633 68.2487 0.0000 0.0000 0.0000
# 3 29.7375 68.2487 93.0781 0.0000 0.0000 0.0000
# 4 0.0000 0.0000 0.0000 55.3627 0.0000 0.0000
# 5 0.0000 0.0000 0.0000 0.0000 60.5623 0.0000
# 6 0.0000 0.0000 0.0000 0.0000 0.0000 -4.4030
#
#
#
# Elastic Compliance Matrix: (Units=1/GPa)
#
#
# Indices 1 2 3 4 5 6 
#
# 1 0.005397 -0.001165 -0.000870 0.000000 0.000000 0.000000
# 2 -0.001165 0.010073 -0.007014 0.000000 0.000000 0.000000
# 3 -0.000870 -0.007014 0.016164 0.000000 0.000000 0.000000
# 4 0.000000 0.000000 0.000000 0.018063 0.000000 0.000000
# 5 0.000000 0.000000 0.000000 0.000000 0.016512 0.000000
# 6 0.000000 0.000000 0.000000 0.000000 0.000000 -0.227119
#
#
# Mechanical properties :
#
#
# Convention : Reuss Voigt Hill
#
# Bulk Modulus (GPa) = 73.87436 80.89421 77.38429
# Shear Modulus (GPa) = -36.15282 42.48528 3.16623
#
# Velocity S-wave (km/s) = -3.73064 4.04418 1.10403
# Velocity P-wave (km/s) = 3.14362 7.27660 5.60496
#
# Compressibility (1/GPa) = 0.01353650
#
# Stress axis : x y z
#
# Youngs Moduli (GPa) = 185.30105 99.27679 61.86550
#
# Poissons Ratio (x) = 0.11569 0.05380
# Poissons Ratio (y) = 0.21594 0.43389
# Poissons Ratio (z) = 0.16115 0.69628
#
# Static dielectric constant tensor:
#      x y z
#    x 2.228890 0.000000 0.000000 
#    y 0.000000 2.407180 0.000000 
#    z 0.000000 0.000000 2.661350 
# 
# From -- ./inp_files/15333.got.cif
#   From: 2010.05.17/outbox.cif.g08.bks.cpg/sg73_8_cif.got.tgz:15333.got - 2010.06.03 17:35:07.
