data_PCOD9533574
_publ_section_title
;
Structure prediction by ZEFSAII (Michael W. Deem and Ramdas Pophale) SiO2 
 PCOD9533574
Probable space group: I B C A 
;
_chemical_formula_sum "Si O2"
_cell_formula_units_Z 56
_cell_length_a 7.381120
_cell_length_b 16.226121
_cell_length_c 16.740370
_cell_angle_alpha 90.000000
_cell_angle_beta 90.000000
_cell_angle_gamma 90.000000
_cell_volume 2004.942994
_symmetry_space_group_name_H-M "I B C A "
_symmetry_group_IT_number 73
_symmetry_cell_setting 'orthorhombic'
loop_
_space_group_symop_operation_xyz
x,y,z
-x,1/2-y,z
x,-y,1/2-z
1/2-x,y,-z
-x,-y,-z
x,1/2+y,-z
-x,y,1/2+z
1/2+x,-y,z
1/2+x,1/2+y,1/2+z
1/2-x,-y,1/2+z
1/2+x,1/2-y,-z
-x,1/2+y,1/2-z
1/2-x,1/2-y,1/2-z
1/2+x,y,1/2-z
1/2-x,1/2+y,z
x,1/2-y,1/2+z
loop_
_atom_site_type_symbol
_atom_site_label
_atom_site_fract_x
_atom_site_fract_y
_atom_site_fract_z
Si Si1 0.016366 0.843116 0.444597
Si Si2 0.223765 0.328941 0.804420
Si Si3 0.154361 0.000000 0.750000
Si Si4 0.583425 0.402584 0.104945
O O1 0.877259 0.836030 0.371845
O O2 0.000000 0.750000 0.479842
O O3 0.983906 0.904705 0.518822
O O4 0.215889 0.868460 0.413459
O O5 0.250000 0.250000 0.750000
O O6 0.238565 0.414692 0.756127
O O7 0.030243 0.336946 0.844878
O O8 0.072338 0.984352 0.660579
#
# Coordination Sequence:
#
# PCOD9533574 Si02
#       4
#    16  16   8  16
#     4  11  28  51  84 122 167 234 289 358 447 531
#     4  12  30  52  87 125 171 229 292 367 443 530
#     4  12  30  52  84 126 168 230 286 366 448 524
#     4  11  29  53  82 119 179 221 295 361 440 532
#
# _framework density 27.930968
#
# number of rings (size 3 to 8) (size 9 to 14) (size 15 to 20)
#    0.000    0.571    0.000    3.429   24.000    2.286 
#    5.143    0.000    0.000    0.000    0.000    0.000 
#    0.000    0.000    0.000    0.000    0.000    0.000 
#
# Total GULP energy -156859.039463 kJ/mol
# GULP energy per Si atom -5602.108552 kJ/mol
# Density = 2.786740 g / cm^3
# Si number density = 27.930968 Si / 1000 Ang^3
#
#
#
# Elastic Constant Matrix: (Units=GPa)
#
#
# Indices 1 2 3 4 5 6 
#
# 1 140.1828 32.5746 71.1125 0.0000 0.0000 0.0000
# 2 32.5746 211.4156 105.9551 0.0000 0.0000 0.0000
# 3 71.1125 105.9551 245.9883 0.0000 0.0000 0.0000
# 4 0.0000 0.0000 0.0000 71.8091 0.0000 0.0000
# 5 0.0000 0.0000 0.0000 0.0000 58.6731 0.0000
# 6 0.0000 0.0000 0.0000 0.0000 0.0000 30.0407
#
#
#
# Elastic Compliance Matrix: (Units=1/GPa)
#
#
# Indices 1 2 3 4 5 6 
#
# 1 0.008361 -0.000098 -0.002375 0.000000 0.000000 0.000000
# 2 -0.000098 0.006033 -0.002570 0.000000 0.000000 0.000000
# 3 -0.002375 -0.002570 0.005859 0.000000 0.000000 0.000000
# 4 0.000000 0.000000 0.000000 0.013926 0.000000 0.000000
# 5 0.000000 0.000000 0.000000 0.000000 0.017044 0.000000
# 6 0.000000 0.000000 0.000000 0.000000 0.000000 0.033288
#
#
# Mechanical properties :
#
#
# Convention : Reuss Voigt Hill
#
# Bulk Modulus (GPa) = 98.36035 112.98568 105.67302
# Shear Modulus (GPa) = 51.02745 57.96753 54.49749
#
# Velocity S-wave (km/s) = 4.27888 4.56058 4.42197
# Velocity P-wave (km/s) = 7.72682 8.26265 7.99922
#
# Compressibility (1/GPa) = 0.01016670
#
# Stress axis : x y z
#
# Youngs Moduli (GPa) = 119.60211 165.74571 170.67947
#
# Poissons Ratio (x) = 0.01625 0.40534
# Poissons Ratio (y) = 0.01173 0.43872
# Poissons Ratio (z) = 0.28404 0.42603
#
# Static dielectric constant tensor:
#      x y z
#    x 2.255820 0.000000 0.000000 
#    y 0.000000 2.125680 0.000000 
#    z 0.000000 0.000000 2.340580 
# 
# From -- ./inp_files/20520.got.cif
#   From: 2010.05.17/outbox.cif.g08.bks.cpg/sg73_11_cif.got.tgz:20520.got - 2010.06.03 17:35:07.
