data_PCOD9533865
_publ_section_title
;
Structure prediction by ZEFSAII (Michael W. Deem and Ramdas Pophale) SiO2 
 PCOD9533865
Probable space group: I M M A
;
_chemical_formula_sum "Si O2"
_cell_formula_units_Z 84
_cell_length_a 20.451904
_cell_length_b 12.459808
_cell_length_c 13.918491
_cell_angle_alpha 90.000000
_cell_angle_beta 90.000000
_cell_angle_gamma 90.000000
_cell_volume 3546.804482
_symmetry_space_group_name_H-M "I M M A"
_symmetry_group_IT_number 74
_symmetry_cell_setting 'orthorhombic'
loop_
_space_group_symop_operation_xyz
x,y,z
-x,1/2-y,z
x,-y,-z
-x,1/2+y,-z
-x,-y,-z
x,1/2+y,-z
-x,y,z
x,1/2-y,z
1/2+x,1/2+y,1/2+z
1/2-x,-y,1/2+z
1/2+x,1/2-y,1/2-z
1/2-x,y,1/2-z
1/2-x,1/2-y,1/2-z
1/2+x,y,1/2-z
1/2-x,1/2+y,1/2+z
1/2+x,-y,1/2+z
loop_
_atom_site_type_symbol
_atom_site_label
_atom_site_fract_x
_atom_site_fract_y
_atom_site_fract_z
Si Si1 0.000000 0.250000 0.510138
Si Si2 0.500000 0.878234 0.644907
Si Si3 0.748694 0.627052 0.631804
Si Si4 0.420244 0.750000 0.362109
Si Si5 0.871880 0.750000 0.360374
Si Si6 0.000000 0.551748 0.630741
Si Si7 0.873595 0.985467 0.125380
Si Si8 0.640157 0.024188 0.855670
O O1 0.934869 0.250000 0.572731
O O2 0.000000 0.149282 0.440465
O O3 0.500000 0.750000 0.627951
O O4 0.500000 0.901996 0.760148
O O5 0.563852 0.939121 0.606201
O O6 0.741610 0.750000 0.600992
O O7 0.750000 0.628041 0.750000
O O8 0.690840 0.550534 0.594957
O O9 0.817169 0.572363 0.604495
O O10 0.500000 0.750000 0.370577
O O11 0.400369 0.750000 0.248712
O O12 0.390316 0.637890 0.401677
O O13 0.832054 0.858550 0.377086
O O14 0.065122 0.484218 0.614925
O O15 0.863499 0.983139 0.240563
#
# Coordination Sequence:
#
# PCOD9533865 Si02
#       8
#     4   8  16   8   8   8  16  16
#     4  12  22  32  48  64  90 110 166 218 244 280
#     4  10  16  26  41  62  91 114 149 190 227 273
#     4   9  17  29  44  63  84 108 142 188 228 273
#     4  10  16  29  43  60  90 119 149 180 232 267
#     4  10  20  31  44  60  82 114 150 198 244 268
#     4  10  21  30  44  66  80 119 156 199 251 268
#     4   9  17  26  43  64  83 115 148 180 221 274
#     4   9  19  31  45  59  84 112 149 192 241 278
#
# _framework density 23.68329
#
# number of rings (size 3 to 8) (size 9 to 14) (size 15 to 20)
#    0.000    2.476    1.905    1.143    4.000    4.571 
#    0.000    3.810    0.000    0.000    0.000    0.000 
#    0.000    0.000    0.000    0.000    0.000    5.714 
#
# Total GULP energy -234778.712795 kJ/mol
# GULP energy per Si atom -5589.969352 kJ/mol
# Density = 2.362939 g / cm^3
# Si number density = 23.683290 Si / 1000 Ang^3
#
#
#
# Elastic Constant Matrix: (Units=GPa)
#
#
# Indices 1 2 3 4 5 6 
#
# 1 134.0291 92.0977 -3.1688 0.0000 0.0000 0.0000
# 2 92.0977 250.2282 24.6054 0.0000 0.0000 0.0000
# 3 -3.1688 24.6054 90.6376 0.0000 0.0000 0.0000
# 4 0.0000 0.0000 0.0000 9.6835 0.0000 0.0000
# 5 0.0000 0.0000 0.0000 0.0000 -20.5830 0.0000
# 6 0.0000 0.0000 0.0000 0.0000 0.0000 57.2255
#
#
#
# Elastic Compliance Matrix: (Units=1/GPa)
#
#
# Indices 1 2 3 4 5 6 
#
# 1 0.010159 -0.003877 0.001408 0.000000 0.000000 0.000000
# 2 -0.003877 0.005586 -0.001652 0.000000 0.000000 0.000000
# 3 0.001408 -0.001652 0.011531 0.000000 0.000000 0.000000
# 4 0.000000 0.000000 0.000000 0.103269 0.000000 0.000000
# 5 0.000000 0.000000 0.000000 0.000000 -0.048584 0.000000
# 6 0.000000 0.000000 0.000000 0.000000 0.000000 0.017475
#
#
# Mechanical properties :
#
#
# Convention : Reuss Voigt Hill
#
# Bulk Modulus (GPa) = 52.54308 77.99595 65.26951
# Shear Modulus (GPa) = 43.85126 33.35592 38.60359
#
# Velocity S-wave (km/s) = 4.30765 3.75696 4.04170
# Velocity P-wave (km/s) = 6.85384 7.19889 7.02848
#
# Compressibility (1/GPa) = 0.01903200
#
# Stress axis : x y z
#
# Youngs Moduli (GPa) = 98.43806 179.02288 86.72564
#
# Poissons Ratio (x) = 0.69414 -0.12209
# Poissons Ratio (y) = 0.38168 0.14327
# Poissons Ratio (z) = -0.13858 0.29574
#
# Static dielectric constant tensor:
#      x y z
#    x 1.848970 0.000000 0.000000 
#    y 0.000000 1.881100 0.000000 
#    z 0.000000 0.000000 1.901740 
# 
# From -- ./inp_files/53858.got.cif
#   From: 2010.05.17/outbox.cif.g08.bks.cpg/sg74_27_cif.got.tgz:53858.got - 2010.06.03 17:57:02.
