data_PCOD9533436
_publ_section_title
;
Structure prediction by ZEFSAII (Michael W. Deem and Ramdas Pophale) SiO2 
 PCOD9533436
Probable space group: I B C A 
;
_chemical_formula_sum "Si O2"
_cell_formula_units_Z 120
_cell_length_a 9.259473
_cell_length_b 22.851450
_cell_length_c 27.365074
_cell_angle_alpha 90.000000
_cell_angle_beta 90.000000
_cell_angle_gamma 90.000000
_cell_volume 5790.241254
_symmetry_space_group_name_H-M "I B C A "
_symmetry_group_IT_number 73
_symmetry_cell_setting 'orthorhombic'
loop_
_space_group_symop_operation_xyz
x,y,z
-x,1/2-y,z
x,-y,1/2-z
1/2-x,y,-z
-x,-y,-z
x,1/2+y,-z
-x,y,1/2+z
1/2+x,-y,z
1/2+x,1/2+y,1/2+z
1/2-x,-y,1/2+z
1/2+x,1/2-y,-z
-x,1/2+y,1/2-z
1/2-x,1/2-y,1/2-z
1/2+x,y,1/2-z
1/2-x,1/2+y,z
x,1/2-y,1/2+z
loop_
_atom_site_type_symbol
_atom_site_label
_atom_site_fract_x
_atom_site_fract_y
_atom_site_fract_z
Si Si1 0.814858 0.557253 0.301736
Si Si2 0.568682 0.689383 0.086152
Si Si3 0.750000 0.754926 0.500000
Si Si4 0.862194 0.490540 0.464121
Si Si5 0.465584 0.069741 0.705827
Si Si6 0.941115 0.807870 0.078021
Si Si7 0.688386 0.607007 0.592204
Si Si8 0.333888 0.613109 0.391075
O O1 0.639654 0.559508 0.294038
O O2 0.901994 0.589440 0.258228
O O3 0.879273 0.491530 0.301915
O O4 0.850024 0.583076 0.354512
O O5 0.500000 0.750000 0.108812
O O6 0.655236 0.710536 0.039023
O O7 0.434602 0.649284 0.072619
O O8 0.678854 0.645021 0.114256
O O9 0.639768 0.715933 0.468953
O O10 0.750000 0.459951 0.500000
O O11 0.800796 0.552768 0.444898
O O12 0.859022 0.450355 0.415759
O O13 0.000000 0.500000 0.500000
O O14 0.413281 0.110285 0.661248
O O15 0.828193 0.853082 0.100369
O O16 0.000000 0.750000 0.105780
O O17 0.081547 0.846056 0.070700
#
# Coordination Sequence:
#
# PCOD9533436 Si02
#       8
#    16  16   8  16  16  16  16  16
#     4  11  24  44  73 106 141 181 236 285 357 428
#     4  12  27  42  68  99 133 186 246 295 335 400
#     4  12  26  42  66  98 128 188 262 284 334 398
#     4  12  28  40  61  99 144 190 220 270 356 427
#     4  11  24  44  72 106 138 184 230 291 350 434
#     4  12  25  43  67  93 132 182 241 292 333 398
#     4  12  26  44  70  98 145 180 236 290 355 422
#     4  12  26  44  70  98 145 180 233 289 357 419
#
# _framework density 20.724523999999999
#
# number of rings (size 3 to 8) (size 9 to 14) (size 15 to 20)
#    0.000    0.267    5.333    3.600    9.333    0.000 
#    0.000    0.000    0.000    4.800    0.000    0.000 
#    0.000    0.000    0.000    0.000    0.000    0.000 
#
# Total GULP energy -334480.404513 kJ/mol
# GULP energy per Si atom -5574.673409 kJ/mol
# Density = 2.067735 g / cm^3
# Si number density = 20.724524 Si / 1000 Ang^3
#
#
#
# Elastic Constant Matrix: (Units=GPa)
#
#
# Indices 1 2 3 4 5 6 
#
# 1 119.9045 26.3655 18.2553 0.0000 0.0000 0.0000
# 2 26.3655 96.7554 13.3489 0.0000 0.0000 0.0000
# 3 18.2553 13.3489 108.0569 0.0000 0.0000 0.0000
# 4 0.0000 0.0000 0.0000 19.2382 0.0000 0.0000
# 5 0.0000 0.0000 0.0000 0.0000 23.0396 0.0000
# 6 0.0000 0.0000 0.0000 0.0000 0.0000 40.4086
#
#
#
# Elastic Compliance Matrix: (Units=1/GPa)
#
#
# Indices 1 2 3 4 5 6 
#
# 1 0.009033 -0.002290 -0.001243 0.000000 0.000000 0.000000
# 2 -0.002290 0.011095 -0.000984 0.000000 0.000000 0.000000
# 3 -0.001243 -0.000984 0.009586 0.000000 0.000000 0.000000
# 4 0.000000 0.000000 0.000000 0.051980 0.000000 0.000000
# 5 0.000000 0.000000 0.000000 0.000000 0.043404 0.000000
# 6 0.000000 0.000000 0.000000 0.000000 0.000000 0.024747
#
#
# Mechanical properties :
#
#
# Convention : Reuss Voigt Hill
#
# Bulk Modulus (GPa) = 48.35553 48.96180 48.65866
# Shear Modulus (GPa) = 30.16201 34.32041 32.24121
#
# Velocity S-wave (km/s) = 3.81908 4.07385 3.94852
# Velocity P-wave (km/s) = 6.54449 6.76791 6.65714
#
# Compressibility (1/GPa) = 0.02068016
#
# Stress axis : x y z
#
# Youngs Moduli (GPa) = 110.70828 90.13023 104.31955
#
# Poissons Ratio (x) = 0.20639 0.12968
# Poissons Ratio (y) = 0.25351 0.10263
# Poissons Ratio (z) = 0.13762 0.08867
#
# Static dielectric constant tensor:
#      x y z
#    x 1.826420 0.000000 0.000000 
#    y 0.000000 1.840840 0.000000 
#    z 0.000000 0.000000 1.771750 
# 
# From -- ./inp_files/31411.got.cif
#   From: 2010.05.17/outbox.cif.g08.bks.cpg/sg73_16_cif.got.tgz:31411.got - 2010.06.03 17:35:07.
