data_PCOD9533220
_publ_section_title
;
Structure prediction by ZEFSAII (Michael W. Deem and Ramdas Pophale) SiO2 
 PCOD9533220
Probable space group: I B C A 
;
_chemical_formula_sum "Si O2"
_cell_formula_units_Z 96
_cell_length_a 8.638279
_cell_length_b 23.813648
_cell_length_c 23.752858
_cell_angle_alpha 90.000000
_cell_angle_beta 90.000000
_cell_angle_gamma 90.000000
_cell_volume 4886.175133
_symmetry_space_group_name_H-M "I B C A "
_symmetry_group_IT_number 73
_symmetry_cell_setting 'orthorhombic'
loop_
_space_group_symop_operation_xyz
x,y,z
-x,1/2-y,z
x,-y,1/2-z
1/2-x,y,-z
-x,-y,-z
x,1/2+y,-z
-x,y,1/2+z
1/2+x,-y,z
1/2+x,1/2+y,1/2+z
1/2-x,-y,1/2+z
1/2+x,1/2-y,-z
-x,1/2+y,1/2-z
1/2-x,1/2-y,1/2-z
1/2+x,y,1/2-z
1/2-x,1/2+y,z
x,1/2-y,1/2+z
loop_
_atom_site_type_symbol
_atom_site_label
_atom_site_fract_x
_atom_site_fract_y
_atom_site_fract_z
Si Si1 0.957998 0.686677 0.693060
Si Si2 0.434179 0.062338 0.992962
Si Si3 0.606959 0.026054 0.690580
Si Si4 0.150526 0.624770 0.785935
Si Si5 0.091346 0.587977 0.375880
Si Si6 0.562607 0.112596 0.105618
O O1 0.780483 0.671585 0.704077
O O2 0.000000 0.750000 0.706949
O O3 0.064750 0.643629 0.729250
O O4 0.992160 0.670090 0.628996
O O5 0.487964 0.080707 0.931264
O O6 0.250000 0.062219 0.000000
O O7 0.507616 0.098142 0.043294
O O8 0.500000 0.000000 0.000000
O O9 0.751398 0.066287 0.708750
O O10 0.503032 0.064005 0.648351
O O11 0.545086 0.000000 0.750000
O O12 0.638972 0.971547 0.652515
O O13 0.013600 0.620506 0.831046
O O14 0.253285 0.615738 0.390970
#
# Coordination Sequence:
#
# PCOD9533220 Si02
#       6
#    16  16  16  16  16  16
#     4  11  23  43  67  90 123 166 219 281 330 376
#     4  12  24  40  60  91 128 171 212 251 312 390
#     4  11  22  36  56  88 128 168 200 251 317 395
#     4  11  24  39  60  93 125 166 214 264 322 389
#     4  12  23  38  61  90 130 168 204 258 321 396
#     4  11  23  39  61  90 122 162 214 259 319 382
#
# _framework density 19.647269999999999
#
# number of rings (size 3 to 8) (size 9 to 14) (size 15 to 20)
#    0.000    0.667    1.667    9.000    0.000    2.667 
#    0.000    0.000    0.000    7.000    0.000    0.000 
#    0.000    0.000    0.000    0.000    0.000    0.000 
#
# Total GULP energy -268155.674483 kJ/mol
# GULP energy per Si atom -5586.576552 kJ/mol
# Density = 1.960255 g / cm^3
# Si number density = 19.647270 Si / 1000 Ang^3
#
#
#
# Elastic Constant Matrix: (Units=GPa)
#
#
# Indices 1 2 3 4 5 6 
#
# 1 105.8001 26.3673 5.8334 0.0000 0.0000 0.0000
# 2 26.3673 46.7931 36.6114 0.0000 0.0000 0.0000
# 3 5.8334 36.6114 101.8360 0.0000 0.0000 0.0000
# 4 0.0000 0.0000 0.0000 17.5308 0.0000 0.0000
# 5 0.0000 0.0000 0.0000 0.0000 35.7964 0.0000
# 6 0.0000 0.0000 0.0000 0.0000 0.0000 16.5411
#
#
#
# Elastic Compliance Matrix: (Units=1/GPa)
#
#
# Indices 1 2 3 4 5 6 
#
# 1 0.011370 -0.008205 0.002299 0.000000 0.000000 0.000000
# 2 -0.008205 0.035656 -0.012349 0.000000 0.000000 0.000000
# 3 0.002299 -0.012349 0.014128 0.000000 0.000000 0.000000
# 4 0.000000 0.000000 0.000000 0.057042 0.000000 0.000000
# 5 0.000000 0.000000 0.000000 0.000000 0.027936 0.000000
# 6 0.000000 0.000000 0.000000 0.000000 0.000000 0.060456
#
#
# Mechanical properties :
#
#
# Convention : Reuss Voigt Hill
#
# Bulk Modulus (GPa) = 40.58006 43.56152 42.07079
# Shear Modulus (GPa) = 19.89554 26.34812 23.12183
#
# Velocity S-wave (km/s) = 3.18565 3.66602 3.43424
# Velocity P-wave (km/s) = 5.85066 6.33558 6.09794
#
# Compressibility (1/GPa) = 0.02464265
#
# Stress axis : x y z
#
# Youngs Moduli (GPa) = 87.95110 28.04570 70.78335
#
# Poissons Ratio (x) = 0.23012 -0.16270
# Poissons Ratio (y) = 0.72166 0.87409
# Poissons Ratio (z) = -0.20217 0.34633
#
# Static dielectric constant tensor:
#      x y z
#    x 1.724190 0.000000 0.000000 
#    y 0.000000 1.698030 0.000000 
#    z 0.000000 0.000000 1.842200 
# 
# From -- ./inp_files/28405.got.cif
#   From: 2010.05.17/outbox.cif.g08.bks.cpg/sg73_15_cif.got.tgz:28405.got - 2010.06.03 17:35:07.
