data_PCOD9533852
_publ_section_title
;
Structure prediction by ZEFSAII (Michael W. Deem and Ramdas Pophale) SiO2 
 PCOD9533852
Probable space group: I M M A
;
_chemical_formula_sum "Si O2"
_cell_formula_units_Z 80
_cell_length_a 19.596728
_cell_length_b 10.809291
_cell_length_c 19.755945
_cell_angle_alpha 90.000000
_cell_angle_beta 90.000000
_cell_angle_gamma 90.000000
_cell_volume 4184.837338
_symmetry_space_group_name_H-M "I M M A"
_symmetry_group_IT_number 74
_symmetry_cell_setting 'orthorhombic'
loop_
_space_group_symop_operation_xyz
x,y,z
-x,1/2-y,z
x,-y,-z
-x,1/2+y,-z
-x,-y,-z
x,1/2+y,-z
-x,y,z
x,1/2-y,z
1/2+x,1/2+y,1/2+z
1/2-x,-y,1/2+z
1/2+x,1/2-y,1/2-z
1/2-x,y,1/2-z
1/2-x,1/2-y,1/2-z
1/2+x,y,1/2-z
1/2-x,1/2+y,1/2+z
1/2+x,-y,1/2+z
loop_
_atom_site_type_symbol
_atom_site_label
_atom_site_fract_x
_atom_site_fract_y
_atom_site_fract_z
Si Si1 0.574566 0.103328 0.387639
Si Si2 0.769040 0.250000 0.829972
Si Si3 0.576284 0.016424 0.235051
Si Si4 0.213413 0.108524 0.046841
Si Si5 0.782307 0.980844 0.674481
Si Si6 0.423862 0.750000 0.299764
O O1 0.500000 0.048024 0.403182
O O2 0.570974 0.250000 0.396364
O O3 0.637220 0.063220 0.433011
O O4 0.588348 0.078047 0.308512
O O5 0.750000 0.250000 0.750000
O O6 0.736857 0.119573 0.851726
O O7 0.851642 0.250000 0.839932
O O8 0.500000 0.050390 0.212459
O O9 0.637617 0.040870 0.184688
O O10 0.578392 0.871218 0.253509
O O11 0.212542 0.250000 0.019367
O O12 0.251392 0.108695 0.118864
O O13 0.243001 0.000000 0.000000
O O14 0.750000 0.967984 0.750000
O O15 0.500000 0.750000 0.333854
#
# Coordination Sequence:
#
# PCOD9533852 Si02
#       6
#    16   8  16  16  16   8
#     4   9  18  34  55  79 113 151 190 233 283 340
#     4  10  16  28  48  82 112 150 185 228 295 332
#     4  10  18  30  51  85 117 145 183 236 295 344
#     4  11  25  41  58  85 116 157 198 241 289 347
#     4  11  19  34  58  86 112 150 192 246 291 342
#     4  10  16  24  40  72 120 148 178 222 276 348
#
# _framework density 19.116633
#
# number of rings (size 3 to 8) (size 9 to 14) (size 15 to 20)
#    0.000    1.800    6.000    0.000    1.400    1.600 
#    1.800    0.000    0.000    0.600    0.000    0.000 
#    0.000    0.000    0.000    0.000    0.000    0.000 
#
# Total GULP energy -222909.798639 kJ/mol
# GULP energy per Si atom -5572.744966 kJ/mol
# Density = 1.907312 g / cm^3
# Si number density = 19.116633 Si / 1000 Ang^3
#
#
#
# Elastic Constant Matrix: (Units=GPa)
#
#
# Indices 1 2 3 4 5 6 
#
# 1 127.1348 16.2200 35.1586 0.0000 0.0000 0.0000
# 2 16.2200 43.9917 25.8106 0.0000 0.0000 0.0000
# 3 35.1586 25.8106 51.2563 0.0000 0.0000 0.0000
# 4 0.0000 0.0000 0.0000 3.9307 0.0000 0.0000
# 5 0.0000 0.0000 0.0000 0.0000 15.0960 0.0000
# 6 0.0000 0.0000 0.0000 0.0000 0.0000 -2.0655
#
#
#
# Elastic Compliance Matrix: (Units=1/GPa)
#
#
# Indices 1 2 3 4 5 6 
#
# 1 0.009714 0.000465 -0.006897 0.000000 0.000000 0.000000
# 2 0.000465 0.032286 -0.016577 0.000000 0.000000 0.000000
# 3 -0.006897 -0.016577 0.032588 0.000000 0.000000 0.000000
# 4 0.000000 0.000000 0.000000 0.254407 0.000000 0.000000
# 5 0.000000 0.000000 0.000000 0.000000 0.066243 0.000000
# 6 0.000000 0.000000 0.000000 0.000000 0.000000 -0.484151
#
#
# Mechanical properties :
#
#
# Convention : Reuss Voigt Hill
#
# Bulk Modulus (GPa) = 35.00175 41.86233 38.43204
# Shear Modulus (GPa) = -149.82735 13.07183 -68.37776
#
# Velocity S-wave (km/s) = -8.86259 2.61778 -5.98718
# Velocity P-wave (km/s) = 9.29398 5.57521 5.25809
#
# Compressibility (1/GPa) = 0.02857000
#
# Stress axis : x y z
#
# Youngs Moduli (GPa) = 102.94718 30.97316 30.68575
#
# Poissons Ratio (x) = -0.01441 0.21165
# Poissons Ratio (y) = -0.04789 0.50868
# Poissons Ratio (z) = 0.71005 0.51344
#
# Static dielectric constant tensor:
#      x y z
#    x 1.741250 0.000000 0.000000 
#    y 0.000000 1.809480 0.000000 
#    z 0.000000 0.000000 1.653370 
# 
# From -- ./inp_files/45056.got.cif
#   From: 2010.05.17/outbox.cif.g08.bks.cpg/sg74_23_cif.got.tgz:45056.got - 2010.06.03 17:57:02.
