data_PCOD9533451
_publ_section_title
;
Structure prediction by ZEFSAII (Michael W. Deem and Ramdas Pophale) SiO2 
 PCOD9533451
Probable space group: I B C A 
;
_chemical_formula_sum "Si O2"
_cell_formula_units_Z 64
_cell_length_a 29.611629
_cell_length_b 9.031416
_cell_length_c 9.098711
_cell_angle_alpha 90.000000
_cell_angle_beta 90.000000
_cell_angle_gamma 90.000000
_cell_volume 2433.313230
_symmetry_space_group_name_H-M "I B C A "
_symmetry_group_IT_number 73
_symmetry_cell_setting 'orthorhombic'
loop_
_space_group_symop_operation_xyz
x,y,z
-x,1/2-y,z
x,-y,1/2-z
1/2-x,y,-z
-x,-y,-z
x,1/2+y,-z
-x,y,1/2+z
1/2+x,-y,z
1/2+x,1/2+y,1/2+z
1/2-x,-y,1/2+z
1/2+x,1/2-y,-z
-x,1/2+y,1/2-z
1/2-x,1/2-y,1/2-z
1/2+x,y,1/2-z
1/2-x,1/2+y,z
x,1/2-y,1/2+z
loop_
_atom_site_type_symbol
_atom_site_label
_atom_site_fract_x
_atom_site_fract_y
_atom_site_fract_z
Si Si1 0.406267 0.140183 0.603186
Si Si2 0.034227 0.867138 0.473394
Si Si3 0.796971 0.461613 0.579321
Si Si4 0.650060 0.187695 0.387148
O O1 0.444961 0.270509 0.609201
O O2 0.387989 0.198805 0.447172
O O3 0.426330 0.972567 0.598527
O O4 0.365921 0.161266 0.720435
O O5 0.000000 0.750000 0.396681
O O6 0.000000 0.000000 0.500000
O O7 0.797024 0.500000 0.750000
O O8 0.750000 0.490799 0.500000
O O9 0.805809 0.287004 0.589269
O O10 0.836301 0.549075 0.489709
#
# Coordination Sequence:
#
# PCOD9533451 Si02
#       4
#    16  16  16  16
#     4  11  24  45  77 117 161 214 270 340 402 484
#     4   9  21  46  77 118 165 213 268 333 408 490
#     4  12  29  52  80 119 166 216 275 342 418 500
#     4  12  27  49  79 117 163 214 281 338 411 487
#
# _framework density 26.301586
#
# number of rings (size 3 to 8) (size 9 to 14) (size 15 to 20)
#    0.000    1.000    2.500    2.250    3.500    5.000 
#    0.000   18.750    0.000    0.000    0.000    0.000 
#    0.000    0.000    0.000    0.000    0.000    0.000 
#
# Total GULP energy -178258.625071 kJ/mol
# GULP energy per Si atom -5570.582033 kJ/mol
# Density = 2.624172 g / cm^3
# Si number density = 26.301586 Si / 1000 Ang^3
#
#
#
# Elastic Constant Matrix: (Units=GPa)
#
#
# Indices 1 2 3 4 5 6 
#
# 1 124.6476 44.2476 53.2465 0.0000 0.0000 0.0000
# 2 44.2476 247.3170 70.3026 0.0000 0.0000 0.0000
# 3 53.2465 70.3026 153.1085 0.0000 0.0000 0.0000
# 4 0.0000 0.0000 0.0000 18.6541 0.0000 0.0000
# 5 0.0000 0.0000 0.0000 0.0000 44.8335 0.0000
# 6 0.0000 0.0000 0.0000 0.0000 0.0000 44.4161
#
#
#
# Elastic Compliance Matrix: (Units=1/GPa)
#
#
# Indices 1 2 3 4 5 6 
#
# 1 0.009587 -0.000883 -0.002929 0.000000 0.000000 0.000000
# 2 -0.000883 0.004732 -0.001866 0.000000 0.000000 0.000000
# 3 -0.002929 -0.001866 0.008407 0.000000 0.000000 0.000000
# 4 0.000000 0.000000 0.000000 0.053607 0.000000 0.000000
# 5 0.000000 0.000000 0.000000 0.000000 0.022305 0.000000
# 6 0.000000 0.000000 0.000000 0.000000 0.000000 0.022514
#
#
# Mechanical properties :
#
#
# Convention : Reuss Voigt Hill
#
# Bulk Modulus (GPa) = 87.94329 95.62962 91.78645
# Shear Modulus (GPa) = 36.68477 45.39916 41.04197
#
# Velocity S-wave (km/s) = 3.73872 4.15914 3.95452
# Velocity P-wave (km/s) = 7.22125 7.71378 7.47158
#
# Compressibility (1/GPa) = 0.01137096
#
# Stress axis : x y z
#
# Youngs Moduli (GPa) = 104.30722 211.34281 118.95540
#
# Poissons Ratio (x) = 0.18655 0.34840
# Poissons Ratio (y) = 0.09207 0.22193
# Poissons Ratio (z) = 0.30549 0.39429
#
# Static dielectric constant tensor:
#      x y z
#    x 2.330490 0.000000 0.000000 
#    y 0.000000 2.276560 0.000000 
#    z 0.000000 0.000000 2.025850 
# 
# From -- ./inp_files/14537.got.cif
#   From: 2010.05.17/outbox.cif.g08.bks.cpg/sg73_8_cif.got.tgz:14537.got - 2010.06.03 17:35:07.
