data_PCOD9533268
_publ_section_title
;
Structure prediction by ZEFSAII (Michael W. Deem and Ramdas Pophale) SiO2 
 PCOD9533268
Probable space group: I B C A 
;
_chemical_formula_sum "Si O2"
_cell_formula_units_Z 96
_cell_length_a 23.116661
_cell_length_b 11.025875
_cell_length_c 17.863056
_cell_angle_alpha 90.000000
_cell_angle_beta 90.000000
_cell_angle_gamma 90.000000
_cell_volume 4552.960982
_symmetry_space_group_name_H-M "I B C A "
_symmetry_group_IT_number 73
_symmetry_cell_setting 'orthorhombic'
loop_
_space_group_symop_operation_xyz
x,y,z
-x,1/2-y,z
x,-y,1/2-z
1/2-x,y,-z
-x,-y,-z
x,1/2+y,-z
-x,y,1/2+z
1/2+x,-y,z
1/2+x,1/2+y,1/2+z
1/2-x,-y,1/2+z
1/2+x,1/2-y,-z
-x,1/2+y,1/2-z
1/2-x,1/2-y,1/2-z
1/2+x,y,1/2-z
1/2-x,1/2+y,z
x,1/2-y,1/2+z
loop_
_atom_site_type_symbol
_atom_site_label
_atom_site_fract_x
_atom_site_fract_y
_atom_site_fract_z
Si Si1 0.190796 0.595954 0.536458
Si Si2 0.196408 0.310789 0.358161
Si Si3 0.111516 0.464509 0.660331
Si Si4 0.683162 0.236842 0.297676
Si Si5 0.362798 0.061477 0.383498
Si Si6 0.511787 0.397539 0.315971
O O1 0.250000 0.539588 0.500000
O O2 0.207866 0.724428 0.572134
O O3 0.154309 0.531483 0.602594
O O4 0.148758 0.608038 0.466414
O O5 0.258478 0.334471 0.318465
O O6 0.167609 0.239002 0.289175
O O7 0.156259 0.421680 0.379486
O O8 0.116638 0.500000 0.750000
O O9 0.133288 0.327334 0.657600
O O10 0.044003 0.453130 0.640960
O O11 0.682997 0.372908 0.327857
O O12 0.427453 0.088072 0.357767
O O13 0.500000 0.250000 0.298594
O O14 0.517269 0.500000 0.250000
#
# Coordination Sequence:
#
# PCOD9533268 Si02
#       6
#    16  16  16  16  16  16
#     4  12  26  46  68 109 148 194 237 309 384 454
#     4  11  25  41  69 102 141 188 241 298 377 446
#     4  11  24  45  74  99 140 193 250 297 359 442
#     4  11  22  42  70 100 137 182 240 303 356 446
#     4  12  26  43  71 104 151 183 240 311 378 442
#     4  11  25  46  77 109 148 201 259 315 368 446
#
# _framework density 21.085180000000001
#
# number of rings (size 3 to 8) (size 9 to 14) (size 15 to 20)
#    0.000    0.667    5.000    2.500    2.333    1.333 
#    0.000    0.000    0.000    0.000    0.000    0.000 
#    0.000    0.000    0.000    0.000    0.000    0.000 
#
# Total GULP energy -267237.935335 kJ/mol
# GULP energy per Si atom -5567.456986 kJ/mol
# Density = 2.103719 g / cm^3
# Si number density = 21.085180 Si / 1000 Ang^3
#
#
#
# Elastic Constant Matrix: (Units=GPa)
#
#
# Indices 1 2 3 4 5 6 
#
# 1 106.4195 47.2738 50.6016 0.0000 0.0000 0.0000
# 2 47.2738 65.0963 42.3900 0.0000 0.0000 0.0000
# 3 50.6016 42.3900 128.4943 0.0000 0.0000 0.0000
# 4 0.0000 0.0000 0.0000 14.9505 0.0000 0.0000
# 5 0.0000 0.0000 0.0000 0.0000 36.6720 0.0000
# 6 0.0000 0.0000 0.0000 0.0000 0.0000 21.5373
#
#
#
# Elastic Compliance Matrix: (Units=1/GPa)
#
#
# Indices 1 2 3 4 5 6 
#
# 1 0.014664 -0.008773 -0.002880 0.000000 0.000000 0.000000
# 2 -0.008773 0.024814 -0.004731 0.000000 0.000000 0.000000
# 3 -0.002880 -0.004731 0.010478 0.000000 0.000000 0.000000
# 4 0.000000 0.000000 0.000000 0.066887 0.000000 0.000000
# 5 0.000000 0.000000 0.000000 0.000000 0.027269 0.000000
# 6 0.000000 0.000000 0.000000 0.000000 0.000000 0.046431
#
#
# Mechanical properties :
#
#
# Convention : Reuss Voigt Hill
#
# Bulk Modulus (GPa) = 58.18798 64.50454 61.34626
# Shear Modulus (GPa) = 21.83021 25.28161 23.55591
#
# Velocity S-wave (km/s) = 3.22115 3.46645 3.34605
# Velocity P-wave (km/s) = 6.44135 6.83231 6.63971
#
# Compressibility (1/GPa) = 0.01718568
#
# Stress axis : x y z
#
# Youngs Moduli (GPa) = 68.19597 40.29985 95.44261
#
# Poissons Ratio (x) = 0.35356 0.27490
# Poissons Ratio (y) = 0.59830 0.45155
# Poissons Ratio (z) = 0.19643 0.19066
#
# Static dielectric constant tensor:
#      x y z
#    x 1.794830 0.000000 0.000000 
#    y 0.000000 1.847790 0.000000 
#    z 0.000000 0.000000 1.787550 
# 
# From -- ./inp_files/23560.got.cif
#   From: 2010.05.17/outbox.cif.g08.bks.cpg/sg73_12_cif.got.tgz:23560.got - 2010.06.03 17:35:07.
