data_PCOD9533971
_publ_section_title
;
Structure prediction by ZEFSAII (Michael W. Deem and Ramdas Pophale) SiO2 
 PCOD9533971
Probable space group: I M M A
;
_chemical_formula_sum "Si O2"
_cell_formula_units_Z 56
_cell_length_a 20.085240
_cell_length_b 14.607093
_cell_length_c 7.369870
_cell_angle_alpha 90.000000
_cell_angle_beta 90.000000
_cell_angle_gamma 90.000000
_cell_volume 2162.223818
_symmetry_space_group_name_H-M "I M M A"
_symmetry_group_IT_number 74
_symmetry_cell_setting 'orthorhombic'
loop_
_space_group_symop_operation_xyz
x,y,z
-x,1/2-y,z
x,-y,-z
-x,1/2+y,-z
-x,-y,-z
x,1/2+y,-z
-x,y,z
x,1/2-y,z
1/2+x,1/2+y,1/2+z
1/2-x,-y,1/2+z
1/2+x,1/2-y,1/2-z
1/2-x,y,1/2-z
1/2-x,1/2-y,1/2-z
1/2+x,y,1/2-z
1/2-x,1/2+y,1/2+z
1/2+x,-y,1/2+z
loop_
_atom_site_type_symbol
_atom_site_label
_atom_site_fract_x
_atom_site_fract_y
_atom_site_fract_z
Si Si1 0.146847 0.649081 0.338781
Si Si2 0.000000 0.615803 0.846031
Si Si3 0.000000 0.588363 0.283159
Si Si4 0.368332 0.400076 0.435006
Si Si5 0.750000 0.003472 0.750000
O O1 0.161499 0.750000 0.411774
O O2 0.069536 0.620956 0.372335
O O3 0.203684 0.572972 0.370905
O O4 0.148707 0.651403 0.117973
O O5 0.924594 0.648120 0.815842
O O6 0.000000 0.520673 0.735018
O O7 0.000000 0.622861 0.071016
O O8 0.398356 0.500000 0.500000
O O9 0.304200 0.436039 0.334348
#
# Coordination Sequence:
#
# PCOD9533971 Si02
#       5
#    16   8   8  16   8
#     4  10  18  27  41  65  90 108 131 172 214 243
#     4   9  10  24  42  58  80 106 137 167 197 247
#     4   9  13  24  42  62  84 106 130 162 214 254
#     4   9  15  26  42  59  82 112 139 165 201 245
#     4  10  17  26  41  60  84 114 142 162 195 254
#
# _framework density 25.899262
#
# number of rings (size 3 to 8) (size 9 to 14) (size 15 to 20)
#    0.000    2.571    8.571    0.857    0.000    0.000 
#    0.000    0.714    0.000    0.000    0.000   36.000 
#    0.000    0.000    0.000    0.000    0.000    0.000 
#
# Total GULP energy -155907.698956 kJ/mol
# GULP energy per Si atom -5568.132106 kJ/mol
# Density = 2.584031 g / cm^3
# Si number density = 25.899262 Si / 1000 Ang^3
#
#
#
# Elastic Constant Matrix: (Units=GPa)
#
#
# Indices 1 2 3 4 5 6 
#
# 1 266.3985 45.4029 30.7191 0.0000 0.0000 0.0000
# 2 45.4029 124.5024 19.2074 0.0000 0.0000 0.0000
# 3 30.7191 19.2074 47.6016 0.0000 0.0000 0.0000
# 4 0.0000 0.0000 0.0000 7.6643 0.0000 0.0000
# 5 0.0000 0.0000 0.0000 0.0000 31.4557 0.0000
# 6 0.0000 0.0000 0.0000 0.0000 0.0000 221.5291
#
#
#
# Elastic Compliance Matrix: (Units=1/GPa)
#
#
# Indices 1 2 3 4 5 6 
#
# 1 0.004215 -0.001192 -0.002239 0.000000 0.000000 0.000000
# 2 -0.001192 0.008902 -0.002823 0.000000 0.000000 0.000000
# 3 -0.002239 -0.002823 0.023592 0.000000 0.000000 0.000000
# 4 0.000000 0.000000 0.000000 0.130475 0.000000 0.000000
# 5 0.000000 0.000000 0.000000 0.000000 0.031791 0.000000
# 6 0.000000 0.000000 0.000000 0.000000 0.000000 0.004514
#
#
# Mechanical properties :
#
#
# Convention : Reuss Voigt Hill
#
# Bulk Modulus (GPa) = 41.32040 69.90680 55.61360
# Shear Modulus (GPa) = 22.31504 75.00802 48.66153
#
# Velocity S-wave (km/s) = 2.93850 5.38742 4.33930
# Velocity P-wave (km/s) = 5.24423 8.10861 6.82830
#
# Compressibility (1/GPa) = 0.02420112
#
# Stress axis : x y z
#
# Youngs Moduli (GPa) = 237.24261 112.33363 42.38743
#
# Poissons Ratio (x) = 0.13386 0.09492
# Poissons Ratio (y) = 0.28272 0.11966
# Poissons Ratio (z) = 0.53126 0.31712
#
# Static dielectric constant tensor:
#      x y z
#    x 2.107060 0.000000 0.000000 
#    y 0.000000 2.048650 0.000000 
#    z 0.000000 0.000000 2.185160 
# 
# From -- ./inp_files/19851.got.cif
#   From: 2010.05.17/outbox.cif.g08.bks.cpg/sg74_10_cif.got.tgz:19851.got - 2010.06.03 17:57:02.
