data_PCOD9533141
_publ_section_title
;
Structure prediction by ZEFSAII (Michael W. Deem and Ramdas Pophale) SiO2 
 PCOD9533141
Probable space group: I B C A 
;
_chemical_formula_sum "Si O2"
_cell_formula_units_Z 96
_cell_length_a 20.115363
_cell_length_b 11.886706
_cell_length_c 15.608133
_cell_angle_alpha 90.000000
_cell_angle_beta 90.000000
_cell_angle_gamma 90.000000
_cell_volume 3731.988979
_symmetry_space_group_name_H-M "I B C A "
_symmetry_group_IT_number 73
_symmetry_cell_setting 'orthorhombic'
loop_
_space_group_symop_operation_xyz
x,y,z
-x,1/2-y,z
x,-y,1/2-z
1/2-x,y,-z
-x,-y,-z
x,1/2+y,-z
-x,y,1/2+z
1/2+x,-y,z
1/2+x,1/2+y,1/2+z
1/2-x,-y,1/2+z
1/2+x,1/2-y,-z
-x,1/2+y,1/2-z
1/2-x,1/2-y,1/2-z
1/2+x,y,1/2-z
1/2-x,1/2+y,z
x,1/2-y,1/2+z
loop_
_atom_site_type_symbol
_atom_site_label
_atom_site_fract_x
_atom_site_fract_y
_atom_site_fract_z
Si Si1 0.830791 0.920649 0.640401
Si Si2 0.961325 0.139597 0.594035
Si Si3 0.295509 0.500000 0.750000
Si Si4 0.650089 0.700246 0.158351
Si Si5 0.219595 0.306708 0.405853
Si Si6 0.453682 0.000000 0.750000
Si Si7 0.630374 0.994526 0.967885
O O1 0.762663 0.955390 0.684738
O O2 0.830243 0.793314 0.612121
O O3 0.899295 0.936560 0.690455
O O4 0.828440 0.992131 0.554405
O O5 0.903098 0.200677 0.648928
O O6 0.993348 0.065815 0.673262
O O7 0.934124 0.066974 0.512183
O O8 0.000000 0.250000 0.561830
O O9 0.342447 0.388808 0.764123
O O10 0.717779 0.775242 0.153537
O O11 0.630941 0.615308 0.079109
O O12 0.250000 0.293450 0.500000
O O13 0.325761 0.416523 0.593366
#
# Coordination Sequence:
#
# PCOD9533141 Si02
#       7
#    16  16   8  16  16   8  16
#     4   9  19  38  55  89 125 165 205 248 316 397
#     4  11  25  45  67  90 123 168 225 274 322 377
#     4   9  22  33  56  90 132 165 200 253 314 402
#     4  11  24  40  61  95 130 170 212 262 327 389
#     4  11  20  31  60  96 129 161 201 259 322 388
#     4   9  22  43  64  84 122 169 210 263 324 380
#     4  11  22  38  64  92 127 167 209 267 323 382
#
# _framework density 25.723548000000001
#
# number of rings (size 3 to 8) (size 9 to 14) (size 15 to 20)
#    0.000    1.667    3.333    0.000    4.667    4.000 
#    0.000    5.000    0.000    5.000    0.000    0.000 
#    0.000    0.000    0.000    0.000    0.000    0.000 
#
# Total GULP energy -267219.559975 kJ/mol
# GULP energy per Si atom -5567.074166 kJ/mol
# Density = 2.566500 g / cm^3
# Si number density = 25.723548 Si / 1000 Ang^3
#
#
#
# Elastic Constant Matrix: (Units=GPa)
#
#
# Indices 1 2 3 4 5 6 
#
# 1 50.6361 18.6255 -3.7394 0.0000 0.0000 0.0000
# 2 18.6255 116.4735 33.1150 0.0000 0.0000 0.0000
# 3 -3.7394 33.1150 77.0770 0.0000 0.0000 0.0000
# 4 0.0000 0.0000 0.0000 55.5259 0.0000 0.0000
# 5 0.0000 0.0000 0.0000 0.0000 4.0529 0.0000
# 6 0.0000 0.0000 0.0000 0.0000 0.0000 45.9297
#
#
#
# Elastic Compliance Matrix: (Units=1/GPa)
#
#
# Indices 1 2 3 4 5 6 
#
# 1 0.021528 -0.004260 0.002875 0.000000 0.000000 0.000000
# 2 -0.004260 0.010623 -0.004771 0.000000 0.000000 0.000000
# 3 0.002875 -0.004771 0.015163 0.000000 0.000000 0.000000
# 4 0.000000 0.000000 0.000000 0.018010 0.000000 0.000000
# 5 0.000000 0.000000 0.000000 0.000000 0.246734 0.000000
# 6 0.000000 0.000000 0.000000 0.000000 0.000000 0.021772
#
#
# Mechanical properties :
#
#
# Convention : Reuss Voigt Hill
#
# Bulk Modulus (GPa) = 28.56953 37.79875 33.18414
# Shear Modulus (GPa) = 13.97389 34.18074 24.07731
#
# Velocity S-wave (km/s) = 2.33327 3.64919 3.06274
# Velocity P-wave (km/s) = 4.28828 5.69926 5.04336
#
# Compressibility (1/GPa) = 0.03500233
#
# Stress axis : x y z
#
# Youngs Moduli (GPa) = 46.45122 94.13318 65.94911
#
# Poissons Ratio (x) = 0.40099 -0.18958
# Poissons Ratio (y) = 0.19788 0.31463
# Poissons Ratio (z) = -0.13353 0.44909
#
# Static dielectric constant tensor:
#      x y z
#    x 2.066420 0.000000 0.000000 
#    y 0.000000 2.174430 0.000000 
#    z 0.000000 0.000000 2.773880 
# 
# From -- ./inp_files/23567.got.cif
#   From: 2010.05.17/outbox.cif.g08.bks.cpg/sg73_12_cif.got.tgz:23567.got - 2010.06.03 17:35:07.
