data_PCOD9533915
_publ_section_title
;
Structure prediction by ZEFSAII (Michael W. Deem and Ramdas Pophale) SiO2 
 PCOD9533915
Probable space group: I M M A
;
_chemical_formula_sum "Si O2"
_cell_formula_units_Z 68
_cell_length_a 20.122394
_cell_length_b 19.443019
_cell_length_c 7.381470
_cell_angle_alpha 90.000000
_cell_angle_beta 90.000000
_cell_angle_gamma 90.000000
_cell_volume 2887.926979
_symmetry_space_group_name_H-M "I M M A"
_symmetry_group_IT_number 74
_symmetry_cell_setting 'orthorhombic'
loop_
_space_group_symop_operation_xyz
x,y,z
-x,1/2-y,z
x,-y,-z
-x,1/2+y,-z
-x,-y,-z
x,1/2+y,-z
-x,y,z
x,1/2-y,z
1/2+x,1/2+y,1/2+z
1/2-x,-y,1/2+z
1/2+x,1/2-y,1/2-z
1/2-x,y,1/2-z
1/2-x,1/2-y,1/2-z
1/2+x,y,1/2-z
1/2-x,1/2+y,1/2+z
1/2+x,-y,1/2+z
loop_
_atom_site_type_symbol
_atom_site_label
_atom_site_fract_x
_atom_site_fract_y
_atom_site_fract_z
Si Si1 0.500000 0.608152 0.387994
Si Si2 0.635885 0.828132 0.486624
Si Si3 0.894349 0.863854 0.594105
Si Si4 0.500000 0.534124 0.780574
Si Si5 0.742224 0.418850 0.033850
Si Si6 0.000000 0.250000 0.517406
O O1 0.433520 0.653081 0.390979
O O2 0.500000 0.568559 0.580984
O O3 0.500000 0.547268 0.243092
O O4 0.655550 0.750000 0.446459
O O5 0.621324 0.834549 0.703479
O O6 0.693953 0.882490 0.446315
O O7 0.934474 0.934513 0.628773
O O8 0.826607 0.880837 0.490907
O O9 0.942447 0.809901 0.501168
O O10 0.750000 0.410535 0.250000
O O11 0.739931 0.500000 0.000000
#
# Coordination Sequence:
#
# PCOD9533915 Si02
#       6
#     8  16  16   8  16   4
#     4   9  17  26  49  73 115 139 183 224 285 337
#     4  10  19  29  50  83 113 142 179 242 291 329
#     4   9  18  30  52  78 114 141 180 232 291 330
#     4   8  16  28  46  79 101 149 178 223 274 335
#     4  10  23  37  56  84 117 150 190 230 281 340
#     4  10  16  30  54  84 112 140 180 246 292 328
#
# _framework density 23.546303000000002
#
# number of rings (size 3 to 8) (size 9 to 14) (size 15 to 20)
#    0.000    2.588    1.176    1.059   11.529    1.412 
#    0.000    2.353    0.000    0.706    0.000    0.000 
#    0.000    0.000    0.000    0.000    0.000    0.000 
#
# Total GULP energy -189785.373067 kJ/mol
# GULP energy per Si atom -5581.922737 kJ/mol
# Density = 2.349271 g / cm^3
# Si number density = 23.546303 Si / 1000 Ang^3
#
#
#
# Elastic Constant Matrix: (Units=GPa)
#
#
# Indices 1 2 3 4 5 6 
#
# 1 211.1158 90.3680 22.1273 0.0000 0.0000 0.0000
# 2 90.3680 178.3254 15.6303 0.0000 0.0000 0.0000
# 3 22.1273 15.6303 76.5026 0.0000 0.0000 0.0000
# 4 0.0000 0.0000 0.0000 11.3223 0.0000 0.0000
# 5 0.0000 0.0000 0.0000 0.0000 -8.6749 0.0000
# 6 0.0000 0.0000 0.0000 0.0000 0.0000 -427.5801
#
#
#
# Elastic Compliance Matrix: (Units=1/GPa)
#
#
# Indices 1 2 3 4 5 6 
#
# 1 0.006149 -0.003014 -0.001163 0.000000 0.000000 0.000000
# 2 -0.003014 0.007187 -0.000597 0.000000 0.000000 0.000000
# 3 -0.001163 -0.000597 0.013530 0.000000 0.000000 0.000000
# 4 0.000000 0.000000 0.000000 0.088321 0.000000 0.000000
# 5 0.000000 0.000000 0.000000 0.000000 -0.115276 0.000000
# 6 0.000000 0.000000 0.000000 0.000000 0.000000 -0.002339
#
#
# Mechanical properties :
#
#
# Convention : Reuss Voigt Hill
#
# Bulk Modulus (GPa) = 57.73983 80.24388 68.99186
# Shear Modulus (GPa) = 387.82725 -62.46531 162.68097
#
# Velocity S-wave (km/s) = 12.84780 -5.15619 8.32105
# Velocity P-wave (km/s) = 15.64171 1.13809 11.03104
#
# Compressibility (1/GPa) = 0.01731907
#
# Stress axis : x y z
#
# Youngs Moduli (GPa) = 162.63476 139.13215 73.91174
#
# Poissons Ratio (x) = 0.41935 0.08593
# Poissons Ratio (y) = 0.49019 0.04410
# Poissons Ratio (z) = 0.18909 0.08302
#
# Static dielectric constant tensor:
#      x y z
#    x 1.851480 0.000000 0.000000 
#    y 0.000000 1.797870 0.000000 
#    z 0.000000 0.000000 1.981560 
# 
# From -- ./inp_files/10486.got.cif
#   From: 2010.05.17/outbox.cif.g08.bks.cpg/sg74_6_cif.got.tgz:10486.got - 2010.06.03 17:57:02.
