data_PCOD9533609
_publ_section_title
;
Structure prediction by ZEFSAII (Michael W. Deem and Ramdas Pophale) SiO2 
 PCOD9533609
Probable space group: I B C A 
;
_chemical_formula_sum "Si O2"
_cell_formula_units_Z 88
_cell_length_a 22.242700
_cell_length_b 12.755167
_cell_length_c 13.394212
_cell_angle_alpha 90.000000
_cell_angle_beta 90.000000
_cell_angle_gamma 90.000000
_cell_volume 3800.063221
_symmetry_space_group_name_H-M "I B C A "
_symmetry_group_IT_number 73
_symmetry_cell_setting 'orthorhombic'
loop_
_space_group_symop_operation_xyz
x,y,z
-x,1/2-y,z
x,-y,1/2-z
1/2-x,y,-z
-x,-y,-z
x,1/2+y,-z
-x,y,1/2+z
1/2+x,-y,z
1/2+x,1/2+y,1/2+z
1/2-x,-y,1/2+z
1/2+x,1/2-y,-z
-x,1/2+y,1/2-z
1/2-x,1/2-y,1/2-z
1/2+x,y,1/2-z
1/2-x,1/2+y,z
x,1/2-y,1/2+z
loop_
_atom_site_type_symbol
_atom_site_label
_atom_site_fract_x
_atom_site_fract_y
_atom_site_fract_z
Si Si1 0.950086 0.377877 0.611764
Si Si2 0.250000 0.370857 0.500000
Si Si3 0.500000 0.750000 0.433981
Si Si4 0.040360 0.500000 0.750000
Si Si5 0.677566 0.438749 0.440472
Si Si6 0.780695 0.689216 0.129993
Si Si7 0.903507 0.220900 0.776469
O O1 0.888340 0.439528 0.600521
O O2 0.929059 0.275565 0.676504
O O3 0.977489 0.340667 0.507501
O O4 0.997717 0.449640 0.667122
O O5 0.305031 0.449105 0.515485
O O6 0.248254 0.295395 0.594937
O O7 0.443265 0.776191 0.363133
O O8 0.079527 0.401453 0.783706
O O9 0.728398 0.398670 0.361350
O O10 0.683255 0.356283 0.532595
O O11 0.831845 0.721208 0.208076
#
# Coordination Sequence:
#
# PCOD9533609 Si02
#       7
#    16   8   8   8  16  16  16
#     4  12  25  46  68 103 147 183 251 304 360 441
#     4   8  18  38  68 100 128 178 234 268 352 434
#     4  12  22  48  68  94 144 198 230 300 370 414
#     4  12  26  46  64 110 144 182 252 300 350 464
#     4   9  20  41  66 102 132 180 241 284 362 436
#     4   9  20  42  67  99 136 177 229 300 354 427
#     4  12  25  47  69 104 146 187 245 304 367 439
#
# _framework density 23.157509999999998
#
# number of rings (size 3 to 8) (size 9 to 14) (size 15 to 20)
#    0.000    1.818    5.455    0.000    2.545    1.455 
#   19.636    0.909    0.000    0.000    0.000    0.000 
#    0.000    0.000    0.000    0.000    0.000    0.000 
#
# Total GULP energy -245808.853217 kJ/mol
# GULP energy per Si atom -5586.564846 kJ/mol
# Density = 2.310480 g / cm^3
# Si number density = 23.157510 Si / 1000 Ang^3
#
#
#
# Elastic Constant Matrix: (Units=GPa)
#
#
# Indices 1 2 3 4 5 6 
#
# 1 123.0172 36.0003 27.3099 0.0000 0.0000 0.0000
# 2 36.0003 117.3174 17.2945 0.0000 0.0000 0.0000
# 3 27.3099 17.2945 63.3796 0.0000 0.0000 0.0000
# 4 0.0000 0.0000 0.0000 9.1869 0.0000 0.0000
# 5 0.0000 0.0000 0.0000 0.0000 25.4506 0.0000
# 6 0.0000 0.0000 0.0000 0.0000 0.0000 18.0873
#
#
#
# Elastic Compliance Matrix: (Units=1/GPa)
#
#
# Indices 1 2 3 4 5 6 
#
# 1 0.009614 -0.002438 -0.003478 0.000000 0.000000 0.000000
# 2 -0.002438 0.009499 -0.001542 0.000000 0.000000 0.000000
# 3 -0.003478 -0.001542 0.017697 0.000000 0.000000 0.000000
# 4 0.000000 0.000000 0.000000 0.108851 0.000000 0.000000
# 5 0.000000 0.000000 0.000000 0.000000 0.039292 0.000000
# 6 0.000000 0.000000 0.000000 0.000000 0.000000 0.055287
#
#
# Mechanical properties :
#
#
# Convention : Reuss Voigt Hill
#
# Bulk Modulus (GPa) = 45.66883 51.65818 48.66350
# Shear Modulus (GPa) = 19.05100 25.41893 22.23497
#
# Velocity S-wave (km/s) = 2.87134 3.31668 3.10201
# Velocity P-wave (km/s) = 5.54586 6.08464 5.82149
#
# Compressibility (1/GPa) = 0.02189677
#
# Stress axis : x y z
#
# Youngs Moduli (GPa) = 104.01139 105.27231 56.50637
#
# Poissons Ratio (x) = 0.25661 0.19651
# Poissons Ratio (y) = 0.25354 0.08712
# Poissons Ratio (z) = 0.36171 0.16230
#
# Static dielectric constant tensor:
#      x y z
#    x 1.855630 0.000000 0.000000 
#    y 0.000000 1.871200 0.000000 
#    z 0.000000 0.000000 1.904290 
# 
# From -- ./inp_files/19291.got.cif
#   From: 2010.05.17/outbox.cif.g08.bks.cpg/sg73_10_cif.got.tgz:19291.got - 2010.06.03 17:35:07.
