data_PCOD9533081
_publ_section_title
;
Structure prediction by ZEFSAII (Michael W. Deem and Ramdas Pophale) SiO2 
 PCOD9533081
Probable space group: I B C A 
;
_chemical_formula_sum "Si O2"
_cell_formula_units_Z 120
_cell_length_a 14.632033
_cell_length_b 32.122173
_cell_length_c 12.180175
_cell_angle_alpha 90.000000
_cell_angle_beta 90.000000
_cell_angle_gamma 90.000000
_cell_volume 5724.836882
_symmetry_space_group_name_H-M "I B C A "
_symmetry_group_IT_number 73
_symmetry_cell_setting 'orthorhombic'
loop_
_space_group_symop_operation_xyz
x,y,z
-x,1/2-y,z
x,-y,1/2-z
1/2-x,y,-z
-x,-y,-z
x,1/2+y,-z
-x,y,1/2+z
1/2+x,-y,z
1/2+x,1/2+y,1/2+z
1/2-x,-y,1/2+z
1/2+x,1/2-y,-z
-x,1/2+y,1/2-z
1/2-x,1/2-y,1/2-z
1/2+x,y,1/2-z
1/2-x,1/2+y,z
x,1/2-y,1/2+z
loop_
_atom_site_type_symbol
_atom_site_label
_atom_site_fract_x
_atom_site_fract_y
_atom_site_fract_z
Si Si1 0.542204 0.324899 0.223206
Si Si2 0.342796 0.973063 0.151723
Si Si3 0.328535 0.892946 0.239839
Si Si4 0.056269 0.957143 0.310891
Si Si5 0.000000 0.250000 0.124426
Si Si6 0.652214 0.055799 0.537331
Si Si7 0.639546 0.812271 0.009063
Si Si8 0.628158 0.868048 0.219857
O O1 0.589806 0.362483 0.289921
O O2 0.546036 0.283796 0.295595
O O3 0.436197 0.337528 0.209632
O O4 0.597247 0.321979 0.110027
O O5 0.302499 0.927533 0.149582
O O6 0.448163 0.963738 0.181207
O O7 0.299190 0.000000 0.250000
O O8 0.339828 0.006244 0.057251
O O9 0.361445 0.918781 0.349671
O O10 0.236148 0.867851 0.260544
O O11 0.084723 0.945525 0.435574
O O12 0.092475 0.914910 0.254974
O O13 0.089197 0.000000 0.250000
O O14 0.920953 0.273554 0.055171
O O15 0.750000 0.072255 0.500000
O O16 0.619987 0.850111 0.094907
O O17 0.750000 0.805822 0.000000
#
# Coordination Sequence:
#
# PCOD9533081 Si02
#       8
#    16  16  16  16   8  16  16  16
#     4  11  23  44  70  98 131 167 209 277 323 394
#     4   9  21  38  55  82 123 168 217 273 325 377
#     4  11  21  40  64  91 123 167 221 267 323 387
#     4  11  22  37  54  85 126 170 218 275 325 373
#     4  10  26  46  68 108 138 160 212 266 342 398
#     4  11  22  34  58  87 120 171 225 266 318 388
#     4  11  23  45  74 101 130 176 218 258 325 409
#     4  11  23  40  65  98 128 169 222 271 323 388
#
# _framework density 20.961296000000001
#
# number of rings (size 3 to 8) (size 9 to 14) (size 15 to 20)
#    0.000    1.333    4.000    1.600    1.867    0.533 
#    4.800    0.000    0.000    0.000    0.000    0.000 
#    0.000    0.000    0.000    0.000    0.000    0.000 
#
# Total GULP energy -334197.132439 kJ/mol
# GULP energy per Si atom -5569.952207 kJ/mol
# Density = 2.091359 g / cm^3
# Si number density = 20.961296 Si / 1000 Ang^3
#
#
#
# Elastic Constant Matrix: (Units=GPa)
#
#
# Indices 1 2 3 4 5 6 
#
# 1 118.2031 29.0040 35.4584 0.0000 0.0000 0.0001
# 2 29.0040 125.3000 17.9579 0.0002 0.0000 -0.0001
# 3 35.4584 17.9579 34.6561 0.0009 -0.0003 -0.0004
# 4 0.0000 0.0002 0.0009 30.3225 0.0000 0.0003
# 5 0.0000 0.0000 -0.0003 0.0000 26.9003 0.0001
# 6 0.0001 -0.0001 -0.0004 0.0003 0.0001 -1.1153
#
#
#
# Elastic Compliance Matrix: (Units=1/GPa)
#
#
# Indices 1 2 3 4 5 6 
#
# 1 0.012353 -0.001132 -0.012053 0.000000 0.000000 0.000006
# 2 -0.001132 0.008725 -0.003363 0.000000 0.000000 0.000000
# 3 -0.012053 -0.003363 0.042929 -0.000001 0.000000 -0.000016
# 4 0.000000 0.000000 -0.000001 0.032979 0.000000 0.000008
# 5 0.000000 0.000000 0.000000 0.000000 0.037174 0.000003
# 6 0.000006 0.000000 -0.000016 0.000008 0.000003 -0.896589
#
#
# Mechanical properties :
#
#
# Convention : Reuss Voigt Hill
#
# Bulk Modulus (GPa) = 32.34952 49.22220 40.78586
# Shear Modulus (GPa) = -6.95381 24.27076 8.65847
#
# Velocity S-wave (km/s) = -1.82336 3.40646 2.03462
# Velocity P-wave (km/s) = 3.32169 6.24543 5.00195
#
# Compressibility (1/GPa) = 0.03091236
#
# Stress axis : x y z
#
# Youngs Moduli (GPa) = 80.94969 114.61531 23.29422
#
# Poissons Ratio (x) = 0.12976 0.28076
# Poissons Ratio (y) = 0.09165 0.07833
# Poissons Ratio (z) = 0.97566 0.38541
#
# Static dielectric constant tensor:
#      x y z
#    x 1.774680 0.000000 0.000000 
#    y 0.000000 1.898880 0.000000 
#    z 0.000000 0.000000 1.779990 
# 
# From -- ./inp_files/17489.got.cif
#   From: 2010.05.17/outbox.cif.g08.bks.cpg/sg73_9_cif.got.tgz:17489.got - 2010.06.03 17:35:07.
