data_PCOD9533676
_publ_section_title
;
Structure prediction by ZEFSAII (Michael W. Deem and Ramdas Pophale) SiO2 
 PCOD9533676
Probable space group: I B C A 
;
_chemical_formula_sum "Si O2"
_cell_formula_units_Z 64
_cell_length_a 13.982100
_cell_length_b 21.519381
_cell_length_c 8.651983
_cell_angle_alpha 90.000000
_cell_angle_beta 90.000000
_cell_angle_gamma 90.000000
_cell_volume 2603.261743
_symmetry_space_group_name_H-M "I B C A "
_symmetry_group_IT_number 73
_symmetry_cell_setting 'orthorhombic'
loop_
_space_group_symop_operation_xyz
x,y,z
-x,1/2-y,z
x,-y,1/2-z
1/2-x,y,-z
-x,-y,-z
x,1/2+y,-z
-x,y,1/2+z
1/2+x,-y,z
1/2+x,1/2+y,1/2+z
1/2-x,-y,1/2+z
1/2+x,1/2-y,-z
-x,1/2+y,1/2-z
1/2-x,1/2-y,1/2-z
1/2+x,y,1/2-z
1/2-x,1/2+y,z
x,1/2-y,1/2+z
loop_
_atom_site_type_symbol
_atom_site_label
_atom_site_fract_x
_atom_site_fract_y
_atom_site_fract_z
Si Si1 0.843479 0.345238 0.871709
Si Si2 0.993769 0.547535 0.636460
Si Si3 0.689243 0.616064 0.839177
Si Si4 0.889216 0.231546 0.678101
O O1 0.756904 0.388712 0.812958
O O2 0.843682 0.296340 0.729717
O O3 0.934276 0.389964 0.884070
O O4 0.850262 0.301769 0.023827
O O5 0.941572 0.500000 0.750000
O O6 0.102129 0.567739 0.673777
O O7 0.000000 0.500000 0.500000
O O8 0.634077 0.682292 0.814441
O O9 0.750000 0.611122 0.000000
O O10 0.000000 0.250000 0.660958
#
# Coordination Sequence:
#
# PCOD9533676 Si02
#       4
#    16  16  16  16
#     4  12  27  49  80 117 157 207 260 326 403 481
#     4  12  28  51  79 111 157 214 269 324 390 465
#     4  12  27  49  79 117 156 202 264 328 403 479
#     4  12  25  48  81 116 160 204 252 331 417 481
#
# _framework density 24.584544000000001
#
# number of rings (size 3 to 8) (size 9 to 14) (size 15 to 20)
#    0.000    0.000    2.500    6.750    3.500    3.000 
#    0.000    0.000    0.000    0.000    0.000    0.000 
#    0.000    0.000    0.000    0.000    0.000    0.000 
#
# Total GULP energy -178632.044821 kJ/mol
# GULP energy per Si atom -5582.251401 kJ/mol
# Density = 2.452859 g / cm^3
# Si number density = 24.584544 Si / 1000 Ang^3
#
#
#
# Elastic Constant Matrix: (Units=GPa)
#
#
# Indices 1 2 3 4 5 6 
#
# 1 158.7994 56.4144 23.9215 0.0000 0.0000 0.0000
# 2 56.4144 149.9799 51.1181 0.0000 0.0000 0.0000
# 3 23.9215 51.1181 98.2848 -0.0003 -0.0001 0.0000
# 4 0.0000 0.0000 -0.0003 32.9805 -0.0001 0.0000
# 5 0.0000 0.0000 -0.0001 -0.0001 34.5054 0.0000
# 6 0.0000 0.0000 0.0000 0.0000 0.0000 35.0583
#
#
#
# Elastic Compliance Matrix: (Units=1/GPa)
#
#
# Indices 1 2 3 4 5 6 
#
# 1 0.007283 -0.002595 -0.000423 0.000000 0.000000 0.000000
# 2 -0.002595 0.009029 -0.004064 0.000000 0.000000 0.000000
# 3 -0.000423 -0.004064 0.012391 0.000000 0.000000 0.000000
# 4 0.000000 0.000000 0.000000 0.030321 0.000000 0.000000
# 5 0.000000 0.000000 0.000000 0.000000 0.028981 0.000000
# 6 0.000000 0.000000 0.000000 0.000000 0.000000 0.028524
#
#
# Mechanical properties :
#
#
# Convention : Reuss Voigt Hill
#
# Bulk Modulus (GPa) = 68.78344 74.44136 71.61240
# Shear Modulus (GPa) = 36.88944 38.88285 37.88614
#
# Velocity S-wave (km/s) = 3.87785 3.98124 3.92989
# Velocity P-wave (km/s) = 6.93465 7.17490 7.05580
#
# Compressibility (1/GPa) = 0.01453838
#
# Stress axis : x y z
#
# Youngs Moduli (GPa) = 137.30684 110.75343 80.70189
#
# Poissons Ratio (x) = 0.28745 0.03412
# Poissons Ratio (y) = 0.35636 0.32800
# Poissons Ratio (z) = 0.05804 0.45014
#
# Static dielectric constant tensor:
#      x y z
#    x 2.043950 0.000000 0.000000 
#    y 0.000000 1.845070 0.000000 
#    z 0.000000 0.000000 1.901530 
# 
# From -- ./inp_files/4656.got.cif
#   From: 2010.05.17/outbox.cif.g08.bks.cpg/sg73_3_cif.got.tgz:4656.got - 2010.06.03 17:35:07.
