data_PCOD9533848
_publ_section_title
;
Structure prediction by ZEFSAII (Michael W. Deem and Ramdas Pophale) SiO2 
 PCOD9533848
Probable space group: I M M A
;
_chemical_formula_sum "Si O2"
_cell_formula_units_Z 96
_cell_length_a 14.677032
_cell_length_b 15.784269
_cell_length_c 24.448185
_cell_angle_alpha 90.000000
_cell_angle_beta 90.000000
_cell_angle_gamma 90.000000
_cell_volume 5663.818634
_symmetry_space_group_name_H-M "I M M A"
_symmetry_group_IT_number 74
_symmetry_cell_setting 'orthorhombic'
loop_
_space_group_symop_operation_xyz
x,y,z
-x,1/2-y,z
x,-y,-z
-x,1/2+y,-z
-x,-y,-z
x,1/2+y,-z
-x,y,z
x,1/2-y,z
1/2+x,1/2+y,1/2+z
1/2-x,-y,1/2+z
1/2+x,1/2-y,1/2-z
1/2-x,y,1/2-z
1/2-x,1/2-y,1/2-z
1/2+x,y,1/2-z
1/2-x,1/2+y,1/2+z
1/2+x,-y,1/2+z
loop_
_atom_site_type_symbol
_atom_site_label
_atom_site_fract_x
_atom_site_fract_y
_atom_site_fract_z
Si Si1 0.855448 0.750000 0.232953
Si Si2 0.391892 0.936865 0.149256
Si Si3 0.395466 0.562885 0.280730
Si Si4 0.601448 0.250000 0.857259
Si Si5 0.607613 0.653265 0.432195
Si Si6 0.394574 0.152049 0.436211
Si Si7 0.210010 0.495653 0.122580
O O1 0.750000 0.750000 0.250000
O O2 0.879255 0.837942 0.204358
O O3 0.905829 0.750000 0.291249
O O4 0.500000 0.946609 0.137245
O O5 0.382575 0.941728 0.215273
O O6 0.359426 0.842264 0.130868
O O7 0.319264 0.999638 0.123072
O O8 0.500000 0.540901 0.293010
O O9 0.327473 0.506017 0.315541
O O10 0.500000 0.250000 0.880969
O O11 0.500000 0.643016 0.418480
O O12 0.634699 0.750000 0.417199
O O13 0.614603 0.646467 0.498129
O O14 0.666070 0.577861 0.406885
O O15 0.500000 0.130886 0.423133
O O16 0.378483 0.250000 0.420938
O O17 0.329218 0.087047 0.406103
#
# Coordination Sequence:
#
# PCOD9533848 Si02
#       7
#     8  16  16   8  16  16  16
#     4  10  16  24  36  54  90 136 165 182 215 274
#     4   9  19  32  45  66 102 140 167 198 235 279
#     4  10  19  29  42  66 101 133 162 197 238 281
#     4   8  14  28  42  52  82 136 174 182 213 274
#     4   9  19  33  49  75 107 127 146 190 251 304
#     4   9  19  37  55  71  96 127 158 198 251 304
#     4  12  20  28  52  77  95 126 171 204 233 288
#
# _framework density 16.949694999999998
#
# number of rings (size 3 to 8) (size 9 to 14) (size 15 to 20)
#    0.000    2.333    0.000    7.250    2.333    1.333 
#    0.000    0.000    0.000    4.500    0.000    4.667 
#    0.000    0.000    0.000    0.000    0.000    0.000 
#
# Total GULP energy -267637.645311 kJ/mol
# GULP energy per Si atom -5575.784277 kJ/mol
# Density = 1.691112 g / cm^3
# Si number density = 16.949695 Si / 1000 Ang^3
#
#
#
# Elastic Constant Matrix: (Units=GPa)
#
#
# Indices 1 2 3 4 5 6 
#
# 1 111.6393 50.7377 29.2165 0.0000 0.0000 0.0000
# 2 50.7377 65.7828 32.8433 0.0000 0.0000 0.0000
# 3 29.2165 32.8433 27.0303 0.0000 0.0000 0.0000
# 4 0.0000 0.0000 0.0000 24.0592 0.0000 0.0000
# 5 0.0000 0.0000 0.0000 0.0000 14.4051 0.0000
# 6 0.0000 0.0000 0.0000 0.0000 0.0000 25.9546
#
#
#
# Elastic Compliance Matrix: (Units=1/GPa)
#
#
# Indices 1 2 3 4 5 6 
#
# 1 0.014067 -0.008284 -0.005140 0.000000 0.000000 0.000000
# 2 -0.008284 0.043524 -0.043930 0.000000 0.000000 0.000000
# 3 -0.005140 -0.043930 0.095928 0.000000 0.000000 0.000000
# 4 0.000000 0.000000 0.000000 0.041564 0.000000 0.000000
# 5 0.000000 0.000000 0.000000 0.000000 0.069420 0.000000
# 6 0.000000 0.000000 0.000000 0.000000 0.000000 0.038529
#
#
# Mechanical properties :
#
#
# Convention : Reuss Voigt Hill
#
# Bulk Modulus (GPa) = 25.76505 47.78305 36.77405
# Shear Modulus (GPa) = 11.60967 18.99411 15.30189
#
# Velocity S-wave (km/s) = 2.61999 3.35119 3.00789
# Velocity P-wave (km/s) = 4.93826 6.57467 5.81432
#
# Compressibility (1/GPa) = 0.03881227
#
# Stress axis : x y z
#
# Youngs Moduli (GPa) = 71.08651 22.97601 10.42451
#
# Poissons Ratio (x) = 0.19033 0.05358
# Poissons Ratio (y) = 0.58888 0.45795
# Poissons Ratio (z) = 0.36536 1.00933
#
# Static dielectric constant tensor:
#      x y z
#    x 1.665550 0.000000 0.000000 
#    y 0.000000 1.569680 0.000000 
#    z 0.000000 0.000000 1.583880 
# 
# From -- ./inp_files/60027.got.cif
#   From: 2010.05.17/outbox.cif.g08.bks.cpg/sg74_31_cif.got.tgz:60027.got - 2010.06.03 17:57:02.
