data_PCOD9533368
_publ_section_title
;
Structure prediction by ZEFSAII (Michael W. Deem and Ramdas Pophale) SiO2 
 PCOD9533368
Probable space group: I B C A 
;
_chemical_formula_sum "Si O2"
_cell_formula_units_Z 96
_cell_length_a 23.343752
_cell_length_b 12.970804
_cell_length_c 13.357073
_cell_angle_alpha 90.000000
_cell_angle_beta 90.000000
_cell_angle_gamma 90.000000
_cell_volume 4044.351159
_symmetry_space_group_name_H-M "I B C A "
_symmetry_group_IT_number 73
_symmetry_cell_setting 'orthorhombic'
loop_
_space_group_symop_operation_xyz
x,y,z
-x,1/2-y,z
x,-y,1/2-z
1/2-x,y,-z
-x,-y,-z
x,1/2+y,-z
-x,y,1/2+z
1/2+x,-y,z
1/2+x,1/2+y,1/2+z
1/2-x,-y,1/2+z
1/2+x,1/2-y,-z
-x,1/2+y,1/2-z
1/2-x,1/2-y,1/2-z
1/2+x,y,1/2-z
1/2-x,1/2+y,z
x,1/2-y,1/2+z
loop_
_atom_site_type_symbol
_atom_site_label
_atom_site_fract_x
_atom_site_fract_y
_atom_site_fract_z
Si Si1 0.124907 0.247811 0.382477
Si Si2 0.782174 0.430715 0.891555
Si Si3 0.516482 0.352403 0.031564
Si Si4 0.810679 0.156449 0.058157
Si Si5 0.933152 0.497118 0.365820
Si Si6 0.830324 0.138345 0.687229
O O1 0.173104 0.338104 0.384216
O O2 0.067347 0.314768 0.395404
O O3 0.136914 0.175831 0.286495
O O4 0.140577 0.173391 0.475586
O O5 0.810572 0.544292 0.889945
O O6 0.733165 0.408299 0.809565
O O7 0.750000 0.424932 0.000000
O O8 0.500000 0.250000 0.972624
O O9 0.462389 0.391983 0.094540
O O10 0.537920 0.428781 0.947587
O O11 0.820388 0.254610 0.128583
O O12 0.750000 0.163944 0.000000
O O13 0.951817 0.500000 0.250000
O O14 0.869292 0.548337 0.362312
#
# Coordination Sequence:
#
# PCOD9533368 Si02
#       6
#    16  16  16  16  16  16
#     4  12  24  47  76 110 152 200 259 317 382 460
#     4  11  23  44  72 106 154 203 244 310 382 458
#     4  11  26  49  78 105 147 196 251 324 385 451
#     4  11  24  44  69 108 159 197 247 316 376 459
#     4  11  26  50  76 109 143 193 256 313 388 464
#     4  12  24  48  75 110 152 200 256 310 383 468
#
# _framework density 23.736809999999998
#
# number of rings (size 3 to 8) (size 9 to 14) (size 15 to 20)
#    0.000    0.667    5.000    1.500    0.000   12.000 
#    6.000    0.000    0.000    0.000    0.000    0.000 
#    0.000    0.000    0.000    0.000    0.000    0.000 
#
# Total GULP energy -268090.685329 kJ/mol
# GULP energy per Si atom -5585.222611 kJ/mol
# Density = 2.368278 g / cm^3
# Si number density = 23.736810 Si / 1000 Ang^3
#
#
#
# Elastic Constant Matrix: (Units=GPa)
#
#
# Indices 1 2 3 4 5 6 
#
# 1 144.7339 69.2496 29.7372 0.0000 0.0000 0.0000
# 2 69.2496 160.8750 46.0901 0.0000 0.0000 0.0000
# 3 29.7372 46.0901 66.1699 0.0000 0.0000 0.0000
# 4 0.0000 0.0000 0.0000 33.8164 0.0000 0.0000
# 5 0.0000 0.0000 0.0000 0.0000 33.2554 0.0000
# 6 0.0000 0.0000 0.0000 0.0000 0.0000 -302.6449
#
#
#
# Elastic Compliance Matrix: (Units=1/GPa)
#
#
# Indices 1 2 3 4 5 6 
#
# 1 0.008844 -0.003333 -0.001653 0.000000 0.000000 0.000000
# 2 -0.003333 0.009022 -0.004786 0.000000 0.000000 0.000000
# 3 -0.001653 -0.004786 0.019189 0.000000 0.000000 0.000000
# 4 0.000000 0.000000 0.000000 0.029571 0.000000 0.000000
# 5 0.000000 0.000000 0.000000 0.000000 0.030070 0.000000
# 6 0.000000 0.000000 0.000000 0.000000 0.000000 -0.003304
#
#
# Mechanical properties :
#
#
# Convention : Reuss Voigt Hill
#
# Bulk Modulus (GPa) = 57.10851 73.54805 65.32828
# Shear Modulus (GPa) = 42.09687 -32.00117 5.04785
#
# Velocity S-wave (km/s) = 4.21584 -3.67572 1.45987
# Velocity P-wave (km/s) = 6.91441 3.61075 5.51573
#
# Compressibility (1/GPa) = 0.01751053
#
# Stress axis : x y z
#
# Youngs Moduli (GPa) = 113.07549 110.83887 52.11286
#
# Poissons Ratio (x) = 0.36946 0.08612
# Poissons Ratio (y) = 0.37692 0.24943
# Poissons Ratio (z) = 0.18687 0.53050
#
# Static dielectric constant tensor:
#      x y z
#    x 1.922010 0.000000 0.000000 
#    y 0.000000 2.010220 0.000000 
#    z 0.000000 0.000000 1.938080 
# 
# From -- ./inp_files/18625.got.cif
#   From: 2010.05.17/outbox.cif.g08.bks.cpg/sg73_10_cif.got.tgz:18625.got - 2010.06.03 17:35:07.
