data_PCOD9533353
_publ_section_title
;
Structure prediction by ZEFSAII (Michael W. Deem and Ramdas Pophale) SiO2 
 PCOD9533353
Probable space group: I B C A 
;
_chemical_formula_sum "Si O2"
_cell_formula_units_Z 80
_cell_length_a 10.866962
_cell_length_b 14.669730
_cell_length_c 22.868142
_cell_angle_alpha 90.000000
_cell_angle_beta 90.000000
_cell_angle_gamma 90.000000
_cell_volume 3645.533969
_symmetry_space_group_name_H-M "I B C A "
_symmetry_group_IT_number 73
_symmetry_cell_setting 'orthorhombic'
loop_
_space_group_symop_operation_xyz
x,y,z
-x,1/2-y,z
x,-y,1/2-z
1/2-x,y,-z
-x,-y,-z
x,1/2+y,-z
-x,y,1/2+z
1/2+x,-y,z
1/2+x,1/2+y,1/2+z
1/2-x,-y,1/2+z
1/2+x,1/2-y,-z
-x,1/2+y,1/2-z
1/2-x,1/2-y,1/2-z
1/2+x,y,1/2-z
1/2-x,1/2+y,z
x,1/2-y,1/2+z
loop_
_atom_site_type_symbol
_atom_site_label
_atom_site_fract_x
_atom_site_fract_y
_atom_site_fract_z
Si Si1 0.773308 0.898233 0.239098
Si Si2 0.225273 0.065402 0.931824
Si Si3 0.632370 0.702090 0.640524
Si Si4 0.746805 0.619903 0.130570
Si Si5 0.024969 0.856726 0.645303
O O1 0.679602 0.831597 0.204779
O O2 0.809157 0.871638 0.304373
O O3 0.892752 0.897483 0.197639
O O4 0.722877 0.000000 0.250000
O O5 0.341225 0.111638 0.897948
O O6 0.106103 0.123045 0.911863
O O7 0.200157 0.963684 0.907349
O O8 0.250000 0.064441 0.000000
O O9 0.500000 0.750000 0.640923
O O10 0.719154 0.778403 0.609425
O O11 0.890782 0.602278 0.139294
O O12 0.000000 0.750000 0.656083
#
# Coordination Sequence:
#
# PCOD9533353 Si02
#       5
#    16  16  16  16  16
#     4  11  23  43  71 106 147 191 224 300 373 445
#     4  11  27  50  72 104 145 198 254 302 362 426
#     4  11  26  46  71 112 144 186 244 302 371 441
#     4  12  25  44  74 109 146 189 246 299 376 436
#     4  11  24  47  71 107 149 189 243 303 366 442
#
# _framework density 21.944658
#
# number of rings (size 3 to 8) (size 9 to 14) (size 15 to 20)
#    0.000    0.800    8.000    0.600    5.600    3.200 
#    0.000    0.000    0.000    0.000    0.000    0.000 
#    0.000    0.000    0.000    0.000    0.000    0.000 
#
# Total GULP energy -223234.843878 kJ/mol
# GULP energy per Si atom -5580.871097 kJ/mol
# Density = 2.189471 g / cm^3
# Si number density = 21.944658 Si / 1000 Ang^3
#
#
#
# Elastic Constant Matrix: (Units=GPa)
#
#
# Indices 1 2 3 4 5 6 
#
# 1 108.6538 19.3553 21.9229 0.0000 0.0000 0.0000
# 2 19.3553 149.6622 30.2846 0.0000 0.0000 0.0000
# 3 21.9229 30.2846 125.9787 0.0000 0.0000 0.0000
# 4 0.0000 0.0000 0.0000 11.0794 0.0000 0.0000
# 5 0.0000 0.0000 0.0000 0.0000 7.6571 0.0000
# 6 0.0000 0.0000 0.0000 0.0000 0.0000 10.8875
#
#
#
# Elastic Compliance Matrix: (Units=1/GPa)
#
#
# Indices 1 2 3 4 5 6 
#
# 1 0.009667 -0.000956 -0.001452 0.000000 0.000000 0.000000
# 2 -0.000956 0.007118 -0.001545 0.000000 0.000000 0.000000
# 3 -0.001452 -0.001545 0.008562 0.000000 0.000000 0.000000
# 4 0.000000 0.000000 0.000000 0.090258 0.000000 0.000000
# 5 0.000000 0.000000 0.000000 0.000000 0.130597 0.000000
# 6 0.000000 0.000000 0.000000 0.000000 0.000000 0.091849
#
#
# Mechanical properties :
#
#
# Convention : Reuss Voigt Hill
#
# Bulk Modulus (GPa) = 57.33911 58.60226 57.97069
# Shear Modulus (GPa) = 14.21381 26.77358 20.49370
#
# Velocity S-wave (km/s) = 2.54778 3.49671 3.05926
# Velocity P-wave (km/s) = 5.90259 6.56241 6.24123
#
# Compressibility (1/GPa) = 0.01744010
#
# Stress axis : x y z
#
# Youngs Moduli (GPa) = 103.44533 140.48960 116.79605
#
# Poissons Ratio (x) = 0.13435 0.16963
# Poissons Ratio (y) = 0.09893 0.18042
# Poissons Ratio (z) = 0.15024 0.21701
#
# Static dielectric constant tensor:
#      x y z
#    x 1.843950 0.000000 0.000000 
#    y 0.000000 1.913720 0.000000 
#    z 0.000000 0.000000 1.820900 
# 
# From -- ./inp_files/13435.got.cif
#   From: 2010.05.17/outbox.cif.g08.bks.cpg/sg73_7_cif.got.tgz:13435.got - 2010.06.03 17:35:07.
