data_PCOD9533531
_publ_section_title
;
Structure prediction by ZEFSAII (Michael W. Deem and Ramdas Pophale) SiO2 
 PCOD9533531
Probable space group: I B C A 
;
_chemical_formula_sum "Si O2"
_cell_formula_units_Z 48
_cell_length_a 24.681843
_cell_length_b 9.455605
_cell_length_c 8.504572
_cell_angle_alpha 90.000000
_cell_angle_beta 90.000000
_cell_angle_gamma 90.000000
_cell_volume 1984.811965
_symmetry_space_group_name_H-M "I B C A "
_symmetry_group_IT_number 73
_symmetry_cell_setting 'orthorhombic'
loop_
_space_group_symop_operation_xyz
x,y,z
-x,1/2-y,z
x,-y,1/2-z
1/2-x,y,-z
-x,-y,-z
x,1/2+y,-z
-x,y,1/2+z
1/2+x,-y,z
1/2+x,1/2+y,1/2+z
1/2-x,-y,1/2+z
1/2+x,1/2-y,-z
-x,1/2+y,1/2-z
1/2-x,1/2-y,1/2-z
1/2+x,y,1/2-z
1/2-x,1/2+y,z
x,1/2-y,1/2+z
loop_
_atom_site_type_symbol
_atom_site_label
_atom_site_fract_x
_atom_site_fract_y
_atom_site_fract_z
Si Si1 0.899988 0.287466 0.207084
Si Si2 0.939258 0.448225 0.477329
Si Si3 0.213974 0.356377 0.843792
O O1 0.943701 0.338535 0.332697
O O2 0.902365 0.417729 0.079619
O O3 0.846327 0.291814 0.318090
O O4 0.913628 0.140728 0.121668
O O5 0.000000 0.500000 0.500000
O O6 0.210721 0.500000 0.750000
O O7 0.250000 0.250000 0.750000
O O8 0.250000 0.379628 0.000000
#
# Coordination Sequence:
#
# PCOD9533531 Si02
#       3
#    16  16  16
#     4  11  26  51  76 117 161 201 264 326 395 477
#     4  11  25  47  81 113 156 210 256 322 403 480
#     4  12  26  50  81 114 158 211 269 330 401 469
#
# _framework density 24.183653
#
# number of rings (size 3 to 8) (size 9 to 14) (size 15 to 20)
#    0.000    0.667    3.333    4.000    0.000   12.000 
#    0.000    0.000    7.333    0.000    0.000    0.000 
#    0.000    0.000    0.000    0.000    0.000    0.000 
#
# Total GULP energy -133977.785065 kJ/mol
# GULP energy per Si atom -5582.407711 kJ/mol
# Density = 2.412861 g / cm^3
# Si number density = 24.183653 Si / 1000 Ang^3
#
#
#
# Elastic Constant Matrix: (Units=GPa)
#
#
# Indices 1 2 3 4 5 6 
#
# 1 187.8472 67.5372 87.2601 0.0000 0.0000 0.0000
# 2 67.5372 91.5497 56.4985 0.0000 0.0000 0.0000
# 3 87.2601 56.4985 144.7052 0.0000 0.0000 0.0000
# 4 0.0000 0.0000 0.0000 59.2505 0.0000 0.0000
# 5 0.0000 0.0000 0.0000 0.0000 44.5056 0.0000
# 6 0.0000 0.0000 0.0000 0.0000 0.0000 47.2576
#
#
#
# Elastic Compliance Matrix: (Units=1/GPa)
#
#
# Indices 1 2 3 4 5 6 
#
# 1 0.008396 -0.004043 -0.003484 0.000000 0.000000 0.000000
# 2 -0.004043 0.016338 -0.003941 0.000000 0.000000 0.000000
# 3 -0.003484 -0.003941 0.010550 0.000000 0.000000 0.000000
# 4 0.000000 0.000000 0.000000 0.016877 0.000000 0.000000
# 5 0.000000 0.000000 0.000000 0.000000 0.022469 0.000000
# 6 0.000000 0.000000 0.000000 0.000000 0.000000 0.021161
#
#
# Mechanical properties :
#
#
# Convention : Reuss Voigt Hill
#
# Bulk Modulus (GPa) = 80.98893 94.07708 87.53301
# Shear Modulus (GPa) = 40.70243 44.38984 42.54613
#
# Velocity S-wave (km/s) = 4.10696 4.28896 4.19894
# Velocity P-wave (km/s) = 7.48674 7.96947 7.73187
#
# Compressibility (1/GPa) = 0.01234737
#
# Stress axis : x y z
#
# Youngs Moduli (GPa) = 119.10930 61.20762 94.78569
#
# Poissons Ratio (x) = 0.24749 0.33024
# Poissons Ratio (y) = 0.48161 0.37352
# Poissons Ratio (z) = 0.41498 0.24120
#
# Static dielectric constant tensor:
#      x y z
#    x 3.815300 0.000000 0.000000 
#    y 0.000000 0.533860 0.000000 
#    z 0.000000 0.000000 1.992820 
# 
# From -- ./inp_files/6756.got.cif
#   From: 2010.05.17/outbox.cif.g08.bks.cpg/sg73_4_cif.got.tgz:6756.got - 2010.06.03 17:35:07.
