data_PCOD9533766
_publ_section_title
;
Structure prediction by ZEFSAII (Michael W. Deem and Ramdas Pophale) SiO2 
 PCOD9533766
Probable space group: I B C A 
;
_chemical_formula_sum "Si O2"
_cell_formula_units_Z 60
_cell_length_a 27.000000
_cell_length_b 24.000000
_cell_length_c 9.000000
_cell_angle_alpha 90.000000
_cell_angle_beta 90.000000
_cell_angle_gamma 90.000000
_cell_volume 5832.000000
_symmetry_space_group_name_H-M "I B C A "
_symmetry_group_IT_number 73
_symmetry_cell_setting 'orthorhombic'
loop_
_space_group_symop_operation_xyz
x,y,z
-x,1/2-y,z
x,-y,1/2-z
1/2-x,y,-z
-x,-y,-z
x,1/2+y,-z
-x,y,1/2+z
1/2+x,-y,z
1/2+x,1/2+y,1/2+z
1/2-x,-y,1/2+z
1/2+x,1/2-y,-z
-x,1/2+y,1/2-z
1/2-x,1/2-y,1/2-z
1/2+x,y,1/2-z
1/2-x,1/2+y,z
x,1/2-y,1/2+z
loop_
_atom_site_type_symbol
_atom_site_label
_atom_site_fract_x
_atom_site_fract_y
_atom_site_fract_z
Si Si1 0.832262 0.339041 0.617269
Si Si2 0.932521 0.056284 0.796355
Si Si3 0.715093 0.775824 0.124531
Si Si4 0.938793 0.681419 0.774125
Si Si5 0.257166 0.939462 0.177664
Si Si6 0.961031 0.054322 0.152443
Si Si7 0.841502 0.873374 0.717316
Si Si8 0.500000 0.750000 0.975258
O O1 0.807367 0.281489 0.563278
O O2 0.878852 0.317229 0.714070
O O3 0.796456 0.386727 0.691133
O O4 0.847122 0.365843 0.460529
O O5 0.896369 0.105595 0.746047
O O6 0.980458 0.054891 0.689644
O O7 0.904150 0.000000 0.750000
O O8 0.947594 0.054361 0.974072
O O9 0.750000 0.750000 0.250000
O O10 0.675914 0.818389 0.194928
O O11 0.750000 0.803315 0.000000
O O12 0.946052 0.614575 0.783015
O O13 0.965142 0.711350 0.632329
O O14 0.965307 0.711491 0.917184
O O15 0.204296 0.916567 0.238317
O O16 0.270296 0.000000 0.250000
O O17 0.250000 0.947366 0.000000
O O18 0.942231 0.000000 0.250000
#
# Coordination Sequence:
#
# PCOD9533766 Si02
#       8
#    16  16  16  16  16  16  16   8
#     4  11  23  41  67  96 133 175 215 280 337 392
#     4  11  23  43  69 100 138 180 228 284 346 414
#     4  12  23  43  69  96 133 174 222 271 334 402
#     4  11  24  44  69  99 140 181 231 280 350 409
#     4  10  22  43  67  91 131 170 215 275 334 399
#     4  11  23  42  70  99 140 181 230 290 347 412
#     4  11  23  43  68  95 134 180 216 276 346 399
#     4  10  26  44  68  98 142 186 226 290 342 412
#
# _framework density 10.288066000000001
#
# number of rings (size 3 to 8) (size 9 to 14) (size 15 to 20)
#    0.000    1.067    4.000    3.200    1.867    2.133 
#    0.000    2.667    0.000    0.000    0.000    0.000 
#    0.000    0.000    0.000    0.000    0.000    0.000 
#
# Total GULP energy -334508.050488 kJ/mol
# GULP energy per Si atom -5575.134175 kJ/mol
# Density = 1.026465 g / cm^3
# Si number density = 10.288066 Si / 1000 Ang^3
#
#
#
# Elastic Constant Matrix: (Units=GPa)
#
#
# Indices 1 2 3 4 5 6 
#
# 1 96.0668 36.5006 31.1293 0.0000 0.0000 0.0000
# 2 36.5006 130.8345 33.3695 0.0000 0.0000 0.0000
# 3 31.1293 33.3695 81.9419 0.0000 0.0000 0.0000
# 4 0.0000 0.0000 0.0000 36.6424 0.0000 0.0000
# 5 0.0000 0.0000 0.0000 0.0000 21.8951 0.0000
# 6 0.0000 0.0000 0.0000 0.0000 0.0000 42.2472
#
#
#
# Elastic Compliance Matrix: (Units=1/GPa)
#
#
# Indices 1 2 3 4 5 6 
#
# 1 0.012594 -0.002559 -0.003742 0.000000 0.000000 0.000000
# 2 -0.002559 0.009049 -0.002713 0.000000 0.000000 0.000000
# 3 -0.003742 -0.002713 0.014730 0.000000 0.000000 0.000000
# 4 0.000000 0.000000 0.000000 0.027291 0.000000 0.000000
# 5 0.000000 0.000000 0.000000 0.000000 0.045672 0.000000
# 6 0.000000 0.000000 0.000000 0.000000 0.000000 0.023670
#
#
# Mechanical properties :
#
#
# Convention : Reuss Voigt Hill
#
# Bulk Modulus (GPa) = 54.51087 56.76023 55.63555
# Shear Modulus (GPa) = 31.81651 34.01318 32.91484
#
# Velocity S-wave (km/s) = 3.93655 4.07017 4.00392
# Velocity P-wave (km/s) = 6.87107 7.05222 6.96223
#
# Compressibility (1/GPa) = 0.01834497
#
# Stress axis : x y z
#
# Youngs Moduli (GPa) = 79.40003 110.50784 67.88739
#
# Poissons Ratio (x) = 0.28280 0.25406
# Poissons Ratio (y) = 0.20320 0.18417
# Poissons Ratio (z) = 0.29715 0.29980
#
# Static dielectric constant tensor:
#      x y z
#    x 1.783330 0.000000 0.000000 
#    y 0.000000 1.421860 0.000000 
#    z 0.000000 0.000000 1.729650 
# 
# From -- ./inp_files/7393.got.cif
#   From: 2010.05.17/outbox.ucp.g08.bks.cvg/sg73_4_cif.got.tgz:7393.got - 2010.06.11 16:36:03.
