data_PCOD9533563
_publ_section_title
;
Structure prediction by ZEFSAII (Michael W. Deem and Ramdas Pophale) SiO2 
 PCOD9533563
Probable space group: I B C A 
;
_chemical_formula_sum "Si O2"
_cell_formula_units_Z 56
_cell_length_a 11.724708
_cell_length_b 14.133507
_cell_length_c 13.789975
_cell_angle_alpha 90.000000
_cell_angle_beta 90.000000
_cell_angle_gamma 90.000000
_cell_volume 2285.153893
_symmetry_space_group_name_H-M "I B C A "
_symmetry_group_IT_number 73
_symmetry_cell_setting 'orthorhombic'
loop_
_space_group_symop_operation_xyz
x,y,z
-x,1/2-y,z
x,-y,1/2-z
1/2-x,y,-z
-x,-y,-z
x,1/2+y,-z
-x,y,1/2+z
1/2+x,-y,z
1/2+x,1/2+y,1/2+z
1/2-x,-y,1/2+z
1/2+x,1/2-y,-z
-x,1/2+y,1/2-z
1/2-x,1/2-y,1/2-z
1/2+x,y,1/2-z
1/2-x,1/2+y,z
x,1/2-y,1/2+z
loop_
_atom_site_type_symbol
_atom_site_label
_atom_site_fract_x
_atom_site_fract_y
_atom_site_fract_z
Si Si1 0.750000 0.686045 0.500000
Si Si2 0.997697 0.890365 0.514940
Si Si3 0.143708 0.609627 0.714050
Si Si4 0.858518 0.294594 0.659909
O O1 0.869246 0.634798 0.514096
O O2 0.760694 0.748285 0.405605
O O3 0.926842 0.876833 0.614017
O O4 0.939305 0.839618 0.422504
O O5 0.000000 0.000000 0.500000
O O6 0.122102 0.500000 0.750000
O O7 0.282500 0.624499 0.711989
O O8 0.104731 0.701619 0.778108
#
# Coordination Sequence:
#
# PCOD9533563 Si02
#       4
#     8  16  16  16
#     4  12  26  52  80 112 166 224 268 340 420 494
#     4  12  28  53  83 119 169 220 275 346 426 501
#     4  11  26  54  84 123 161 216 285 344 418 512
#     4  11  26  53  83 117 166 212 280 343 426 491
#
# _framework density 24.506008999999999
#
# number of rings (size 3 to 8) (size 9 to 14) (size 15 to 20)
#    0.000    0.571    2.857    2.571    8.000    0.000 
#   36.000    0.000    0.000    0.000    0.000    0.000 
#    0.000    0.000    0.000    0.000    0.000    0.000 
#
# Total GULP energy -156170.038792 kJ/mol
# GULP energy per Si atom -5577.501385 kJ/mol
# Density = 2.445023 g / cm^3
# Si number density = 24.506009 Si / 1000 Ang^3
#
#
#
# Elastic Constant Matrix: (Units=GPa)
#
#
# Indices 1 2 3 4 5 6 
#
# 1 170.7042 113.9836 72.3678 0.0000 0.0000 0.0000
# 2 113.9836 208.6146 89.3090 0.0000 0.0000 0.0000
# 3 72.3678 89.3090 166.5151 0.0000 0.0000 0.0000
# 4 0.0000 0.0000 0.0000 7.1423 0.0000 0.0000
# 5 0.0000 0.0000 0.0000 0.0000 29.6778 0.0000
# 6 0.0000 0.0000 0.0000 0.0000 0.0000 38.1784
#
#
#
# Elastic Compliance Matrix: (Units=1/GPa)
#
#
# Indices 1 2 3 4 5 6 
#
# 1 0.009607 -0.004493 -0.001765 0.000000 0.000000 0.000000
# 2 -0.004493 0.008324 -0.002512 0.000000 0.000000 0.000000
# 3 -0.001765 -0.002512 0.008120 0.000000 0.000000 0.000000
# 4 0.000000 0.000000 0.000000 0.140012 0.000000 0.000000
# 5 0.000000 0.000000 0.000000 0.000000 0.033695 0.000000
# 6 0.000000 0.000000 0.000000 0.000000 0.000000 0.026193
#
#
# Mechanical properties :
#
#
# Convention : Reuss Voigt Hill
#
# Bulk Modulus (GPa) = 117.50755 121.90605 119.70680
# Shear Modulus (GPa) = 20.29826 33.01126 26.65476
#
# Velocity S-wave (km/s) = 2.88114 3.67422 3.30158
# Velocity P-wave (km/s) = 7.68912 8.23731 7.96793
#
# Compressibility (1/GPa) = 0.00851009
#
# Stress axis : x y z
#
# Youngs Moduli (GPa) = 104.09447 120.13729 123.15733
#
# Poissons Ratio (x) = 0.53981 0.21739
# Poissons Ratio (y) = 0.46772 0.30933
# Poissons Ratio (z) = 0.18374 0.30174
#
# Static dielectric constant tensor:
#      x y z
#    x 1.974870 0.000000 0.000000 
#    y 0.000000 2.124230 0.000000 
#    z 0.000000 0.000000 1.919860 
# 
# From -- ./inp_files/16567.got.cif
#   From: 2010.05.17/outbox.cif.g08.bks.cpg/sg73_9_cif.got.tgz:16567.got - 2010.06.03 17:35:07.
