data_PCOD9533704
_publ_section_title
;
Structure prediction by ZEFSAII (Michael W. Deem and Ramdas Pophale) SiO2 
 PCOD9533704
Probable space group: I B C A 
;
_chemical_formula_sum "Si O2"
_cell_formula_units_Z 72
_cell_length_a 21.070830
_cell_length_b 17.703251
_cell_length_c 8.283606
_cell_angle_alpha 90.000000
_cell_angle_beta 90.000000
_cell_angle_gamma 90.000000
_cell_volume 3089.968870
_symmetry_space_group_name_H-M "I B C A "
_symmetry_group_IT_number 73
_symmetry_cell_setting 'orthorhombic'
loop_
_space_group_symop_operation_xyz
x,y,z
-x,1/2-y,z
x,-y,1/2-z
1/2-x,y,-z
-x,-y,-z
x,1/2+y,-z
-x,y,1/2+z
1/2+x,-y,z
1/2+x,1/2+y,1/2+z
1/2-x,-y,1/2+z
1/2+x,1/2-y,-z
-x,1/2+y,1/2-z
1/2-x,1/2-y,1/2-z
1/2+x,y,1/2-z
1/2-x,1/2+y,z
x,1/2-y,1/2+z
loop_
_atom_site_type_symbol
_atom_site_label
_atom_site_fract_x
_atom_site_fract_y
_atom_site_fract_z
Si Si1 0.664003 0.079518 0.680951
Si Si2 0.868229 0.193340 0.051689
Si Si3 0.943550 0.044307 0.589501
Si Si4 0.750000 0.699013 0.500000
Si Si5 0.448621 0.804998 0.752653
O O1 0.632946 0.121475 0.833203
O O2 0.612787 0.063880 0.537627
O O3 0.716010 0.140203 0.621371
O O4 0.689396 0.000000 0.750000
O O5 0.918303 0.251773 0.120191
O O6 0.804116 0.242655 0.056260
O O7 0.892294 0.172718 0.874459
O O8 0.972925 0.120902 0.663908
O O9 0.920709 0.000000 0.750000
O O10 0.000000 0.000000 0.500000
O O11 0.500000 0.750000 0.832363
#
# Coordination Sequence:
#
# PCOD9533704 Si02
#       5
#    16  16  16   8  16
#     4  12  28  51  77 115 159 205 267 333 406 478
#     4  12  26  50  81 114 159 206 274 329 395 479
#     4  12  29  49  77 111 161 205 261 325 402 474
#     4  12  26  52  82 118 158 216 274 330 400 476
#     4  12  27  46  79 114 156 211 262 326 398 474
#
# _framework density 23.301206000000001
#
# number of rings (size 3 to 8) (size 9 to 14) (size 15 to 20)
#    0.000    0.000    4.444    3.333   12.444    1.778 
#    0.000    0.000    0.000    0.000    0.000    0.000 
#    0.000    0.000    0.000    0.000    0.000    0.000 
#
# Total GULP energy -201402.981218 kJ/mol
# GULP energy per Si atom -5594.527256 kJ/mol
# Density = 2.324817 g / cm^3
# Si number density = 23.301206 Si / 1000 Ang^3
#
#
#
# Elastic Constant Matrix: (Units=GPa)
#
#
# Indices 1 2 3 4 5 6 
#
# 1 103.4334 39.9531 42.3107 0.0000 0.0000 0.0000
# 2 39.9531 168.9748 63.6836 0.0000 0.0000 0.0000
# 3 42.3107 63.6836 114.8850 0.0000 0.0000 0.0000
# 4 0.0000 0.0000 0.0000 -127.3952 0.0000 0.0000
# 5 0.0000 0.0000 0.0000 0.0000 12.0951 0.0000
# 6 0.0000 0.0000 0.0000 0.0000 0.0000 41.3559
#
#
#
# Elastic Compliance Matrix: (Units=1/GPa)
#
#
# Indices 1 2 3 4 5 6 
#
# 1 0.011653 -0.001438 -0.003494 0.000000 0.000000 0.000000
# 2 -0.001438 0.007658 -0.003716 0.000000 0.000000 0.000000
# 3 -0.003494 -0.003716 0.012051 0.000000 0.000000 0.000000
# 4 0.000000 0.000000 0.000000 -0.007850 0.000000 0.000000
# 5 0.000000 0.000000 0.000000 0.000000 0.082678 0.000000
# 6 0.000000 0.000000 0.000000 0.000000 0.000000 0.024180
#
#
# Mechanical properties :
#
#
# Convention : Reuss Voigt Hill
#
# Bulk Modulus (GPa) = 71.09385 75.46533 73.27959
# Shear Modulus (GPa) = 32.81772 1.30088 17.05930
#
# Velocity S-wave (km/s) = 3.75695 0.74800 2.70871
# Velocity P-wave (km/s) = 7.02827 5.76222 6.42650
#
# Compressibility (1/GPa) = 0.01406592
#
# Stress axis : x y z
#
# Youngs Moduli (GPa) = 85.81446 130.57464 82.98126
#
# Poissons Ratio (x) = 0.18781 0.28997
# Poissons Ratio (y) = 0.12343 0.30832
# Poissons Ratio (z) = 0.29987 0.48516
#
# Static dielectric constant tensor:
#      x y z
#    x 2.137750 0.000000 0.000000 
#    y 0.000000 1.698230 0.000000 
#    z 0.000000 0.000000 1.890940 
# 
# From -- ./inp_files/6942.got.cif
#   From: 2010.05.17/outbox.cif.g08.bks.cpg/sg73_4_cif.got.tgz:6942.got - 2010.06.03 17:35:07.
