data_PCOD9533034
_publ_section_title
;
Structure prediction by ZEFSAII (Michael W. Deem and Ramdas Pophale) SiO2 
 PCOD9533034
Probable space group: I B C A 
;
_chemical_formula_sum "Si O2"
_cell_formula_units_Z 56
_cell_length_a 15.665322
_cell_length_b 9.070799
_cell_length_c 16.400014
_cell_angle_alpha 90.000000
_cell_angle_beta 90.000000
_cell_angle_gamma 90.000000
_cell_volume 2330.392578
_symmetry_space_group_name_H-M "I B C A "
_symmetry_group_IT_number 73
_symmetry_cell_setting 'orthorhombic'
loop_
_space_group_symop_operation_xyz
x,y,z
-x,1/2-y,z
x,-y,1/2-z
1/2-x,y,-z
-x,-y,-z
x,1/2+y,-z
-x,y,1/2+z
1/2+x,-y,z
1/2+x,1/2+y,1/2+z
1/2-x,-y,1/2+z
1/2+x,1/2-y,-z
-x,1/2+y,1/2-z
1/2-x,1/2-y,1/2-z
1/2+x,y,1/2-z
1/2-x,1/2+y,z
x,1/2-y,1/2+z
loop_
_atom_site_type_symbol
_atom_site_label
_atom_site_fract_x
_atom_site_fract_y
_atom_site_fract_z
Si Si1 0.585993 0.831546 0.839274
Si Si2 0.480759 0.079968 0.916117
Si Si3 0.287075 0.000000 0.250000
Si Si4 0.691124 0.080034 0.082749
O O1 0.500000 0.750000 0.813023
O O2 0.634612 0.732109 0.907998
O O3 0.547320 0.991473 0.860076
O O4 0.656192 0.858420 0.772399
O O5 0.500000 0.250000 0.915359
O O6 0.380748 0.046817 0.908756
O O7 0.500000 0.000000 0.000000
O O8 0.242121 0.951293 0.166043
O O9 0.750000 0.077557 0.000000
#
# Coordination Sequence:
#
# PCOD9533034 Si02
#       4
#    16  16   8  16
#     4  10  25  47  71 104 147 196 250 299 367 452
#     4  11  24  45  74 106 145 198 249 300 369 451
#     4  12  26  44  76 114 148 190 248 316 374 430
#     4  11  26  49  75 110 151 195 248 312 373 438
#
# _framework density 24.030286
#
# number of rings (size 3 to 8) (size 9 to 14) (size 15 to 20)
#    0.000    1.143    0.000    5.143    0.000   16.000 
#    0.000    5.714    0.000    0.000    0.000    0.000 
#    0.000    0.000    0.000    0.000    0.000    0.000 
#
# Total GULP energy -156301.849444 kJ/mol
# GULP energy per Si atom -5582.208909 kJ/mol
# Density = 2.397559 g / cm^3
# Si number density = 24.030286 Si / 1000 Ang^3
#
#
#
# Elastic Constant Matrix: (Units=GPa)
#
#
# Indices 1 2 3 4 5 6 
#
# 1 206.4289 90.6039 112.0246 0.0000 0.0000 0.0000
# 2 90.6039 214.4693 61.5269 0.0000 0.0000 0.0000
# 3 112.0246 61.5269 148.6420 0.0000 0.0000 0.0000
# 4 0.0000 0.0000 0.0000 23.6659 0.0000 0.0000
# 5 0.0000 0.0000 0.0000 0.0000 17.9985 0.0000
# 6 0.0000 0.0000 0.0000 0.0000 0.0000 -109.4974
#
#
#
# Elastic Compliance Matrix: (Units=1/GPa)
#
#
# Indices 1 2 3 4 5 6 
#
# 1 0.008957 -0.002096 -0.005883 0.000000 0.000000 0.000000
# 2 -0.002096 0.005782 -0.000813 0.000000 0.000000 0.000000
# 3 -0.005883 -0.000813 0.011498 0.000000 0.000000 0.000000
# 4 0.000000 0.000000 0.000000 0.042255 0.000000 0.000000
# 5 0.000000 0.000000 0.000000 0.000000 0.055560 0.000000
# 6 0.000000 0.000000 0.000000 0.000000 0.000000 -0.009133
#
#
# Mechanical properties :
#
#
# Convention : Reuss Voigt Hill
#
# Bulk Modulus (GPa) = 115.58431 121.98343 118.78387
# Shear Modulus (GPa) = 36.93133 6.79240 21.86187
#
# Velocity S-wave (km/s) = 3.92454 1.68307 3.01950
# Velocity P-wave (km/s) = 8.29095 7.39253 7.85460
#
# Compressibility (1/GPa) = 0.00865169
#
# Stress axis : x y z
#
# Youngs Moduli (GPa) = 111.64867 172.96380 86.97447
#
# Poissons Ratio (x) = 0.36257 0.51163
# Poissons Ratio (y) = 0.23404 0.07074
# Poissons Ratio (z) = 0.65678 0.14067
#
# Static dielectric constant tensor:
#      x y z
#    x 1.874080 0.000000 0.000000 
#    y 0.000000 1.930700 0.000000 
#    z 0.000000 0.000000 1.832500 
# 
# From -- ./inp_files/22246.got.cif
#   From: 2010.05.17/outbox.cif.g08.bks.cpg/sg73_12_cif.got.tgz:22246.got - 2010.06.03 17:35:07.
