data_PCOD9533108
_publ_section_title
;
Structure prediction by ZEFSAII (Michael W. Deem and Ramdas Pophale) SiO2 
 PCOD9533108
Probable space group: I B C A 
;
_chemical_formula_sum "Si O2"
_cell_formula_units_Z 72
_cell_length_a 20.415590
_cell_length_b 9.879332
_cell_length_c 16.195426
_cell_angle_alpha 90.000000
_cell_angle_beta 90.000000
_cell_angle_gamma 90.000000
_cell_volume 3266.494203
_symmetry_space_group_name_H-M "I B C A "
_symmetry_group_IT_number 73
_symmetry_cell_setting 'orthorhombic'
loop_
_space_group_symop_operation_xyz
x,y,z
-x,1/2-y,z
x,-y,1/2-z
1/2-x,y,-z
-x,-y,-z
x,1/2+y,-z
-x,y,1/2+z
1/2+x,-y,z
1/2+x,1/2+y,1/2+z
1/2-x,-y,1/2+z
1/2+x,1/2-y,-z
-x,1/2+y,1/2-z
1/2-x,1/2-y,1/2-z
1/2+x,y,1/2-z
1/2-x,1/2+y,z
x,1/2-y,1/2+z
loop_
_atom_site_type_symbol
_atom_site_label
_atom_site_fract_x
_atom_site_fract_y
_atom_site_fract_z
Si Si1 0.328192 0.536735 0.844407
Si Si2 0.576513 0.792829 0.374697
Si Si3 0.121691 0.294113 0.051793
Si Si4 0.034356 0.000000 0.250000
Si Si5 0.250000 0.870298 0.500000
Si Si6 0.500000 0.250000 0.851362
O O1 0.308588 0.500000 0.750000
O O2 0.375760 0.668586 0.849488
O O3 0.365735 0.409915 0.882444
O O4 0.272452 0.555611 0.915405
O O5 0.500000 0.750000 0.378630
O O6 0.596967 0.846988 0.463986
O O7 0.579476 0.913430 0.310265
O O8 0.061598 0.213166 0.091473
O O9 0.187491 0.214953 0.030177
O O10 0.992002 0.115831 0.204481
#
# Coordination Sequence:
#
# PCOD9533108 Si02
#       6
#    16  16  16   8   8   8
#     4  11  25  48  77 107 151 199 253 313 375 453
#     4  11  24  42  69 110 147 193 246 306 382 444
#     4  11  25  46  76 104 148 202 249 314 374 457
#     4  12  26  42  68 110 158 186 244 316 380 458
#     4  10  26  50  72 110 150 202 254 308 386 448
#     4  12  26  44  74 112 150 196 254 308 384 438
#
# _framework density 22.041978
#
# number of rings (size 3 to 8) (size 9 to 14) (size 15 to 20)
#    0.000    0.889    2.222    3.333    9.333    2.667 
#    2.000    0.000    0.000    0.000    0.000    0.000 
#    0.000    0.000    0.000    0.000    0.000    0.000 
#
# Total GULP energy -201031.910666 kJ/mol
# GULP energy per Si atom -5584.219741 kJ/mol
# Density = 2.199181 g / cm^3
# Si number density = 22.041978 Si / 1000 Ang^3
#
#
#
# Elastic Constant Matrix: (Units=GPa)
#
#
# Indices 1 2 3 4 5 6 
#
# 1 108.2159 26.9766 63.3793 0.0000 0.0000 0.0000
# 2 26.9766 59.0449 54.4393 0.0000 0.0000 0.0000
# 3 63.3793 54.4393 210.6159 0.0000 0.0000 0.0000
# 4 0.0000 0.0000 0.0000 45.1622 0.0000 0.0000
# 5 0.0000 0.0000 0.0000 0.0000 42.2689 0.0000
# 6 0.0000 0.0000 0.0000 0.0000 0.0000 7.4724
#
#
#
# Elastic Compliance Matrix: (Units=1/GPa)
#
#
# Indices 1 2 3 4 5 6 
#
# 1 0.011541 -0.002719 -0.002770 0.000000 0.000000 0.000000
# 2 -0.002719 0.022876 -0.005095 0.000000 0.000000 0.000000
# 3 -0.002770 -0.005095 0.006898 0.000000 0.000000 0.000000
# 4 0.000000 0.000000 0.000000 0.022142 0.000000 0.000000
# 5 0.000000 0.000000 0.000000 0.000000 0.023658 0.000000
# 6 0.000000 0.000000 0.000000 0.000000 0.000000 0.133826
#
#
# Mechanical properties :
#
#
# Convention : Reuss Voigt Hill
#
# Bulk Modulus (GPa) = 49.63315 74.16301 61.89808
# Shear Modulus (GPa) = 20.09442 34.51948 27.30695
#
# Velocity S-wave (km/s) = 3.02262 3.96166 3.52356
# Velocity P-wave (km/s) = 5.89475 7.39227 6.68557
#
# Compressibility (1/GPa) = 0.02014782
#
# Stress axis : x y z
#
# Youngs Moduli (GPa) = 86.64780 43.71451 144.95978
#
# Poissons Ratio (x) = 0.11885 0.40157
# Poissons Ratio (y) = 0.23557 0.73853
# Poissons Ratio (z) = 0.24003 0.22271
#
# Static dielectric constant tensor:
#      x y z
#    x 1.880550 0.000000 0.000000 
#    y 0.000000 1.820290 0.000000 
#    z 0.000000 0.000000 1.864150 
# 
# From -- ./inp_files/5396.got.cif
#   From: 2010.05.17/outbox.cif.g08.bks.cpg/sg73_3_cif.got.tgz:5396.got - 2010.06.03 17:35:07.
