data_PCOD9533835
_publ_section_title
;
Structure prediction by ZEFSAII (Michael W. Deem and Ramdas Pophale) SiO2 
 PCOD9533835
Probable space group: I M M A
;
_chemical_formula_sum "Si O2"
_cell_formula_units_Z 96
_cell_length_a 15.245847
_cell_length_b 29.363049
_cell_length_c 9.180085
_cell_angle_alpha 90.000000
_cell_angle_beta 90.000000
_cell_angle_gamma 90.000000
_cell_volume 4109.598644
_symmetry_space_group_name_H-M "I M M A"
_symmetry_group_IT_number 74
_symmetry_cell_setting 'orthorhombic'
loop_
_space_group_symop_operation_xyz
x,y,z
-x,1/2-y,z
x,-y,-z
-x,1/2+y,-z
-x,-y,-z
x,1/2+y,-z
-x,y,z
x,1/2-y,z
1/2+x,1/2+y,1/2+z
1/2-x,-y,1/2+z
1/2+x,1/2-y,1/2-z
1/2-x,y,1/2-z
1/2-x,1/2-y,1/2-z
1/2+x,y,1/2-z
1/2-x,1/2+y,1/2+z
1/2+x,-y,1/2+z
loop_
_atom_site_type_symbol
_atom_site_label
_atom_site_fract_x
_atom_site_fract_y
_atom_site_fract_z
Si Si1 0.895973 0.109273 0.121189
Si Si2 0.405146 0.821639 0.269164
Si Si3 0.394719 0.986723 0.662590
Si Si4 0.903801 0.300845 0.443414
Si Si5 0.295779 0.803929 0.551957
Si Si6 0.850900 0.083452 0.785808
O O1 0.854511 0.159015 0.137174
O O2 0.874416 0.093508 0.955033
O O3 0.000000 0.113183 0.135328
O O4 0.865053 0.063958 0.208905
O O5 0.500000 0.814209 0.343130
O O6 0.403403 0.795869 0.118778
O O7 0.329569 0.809789 0.384388
O O8 0.399699 0.874090 0.215368
O O9 0.500000 0.984084 0.651662
O O10 0.360580 0.000000 0.500000
O O11 0.374213 0.031761 0.754644
O O12 0.904767 0.250000 0.378527
O O13 0.804803 0.318848 0.423714
O O14 0.000000 0.322214 0.407156
O O15 0.303869 0.750000 0.585861
O O16 0.750000 0.089753 0.750000
#
# Coordination Sequence:
#
# PCOD9533835 Si02
#       6
#    16  16  16  16  16  16
#     4   9  17  28  40  54  76 105 130 154 191 235
#     4  10  17  23  32  48  73 101 125 152 185 217
#     4   8  14  26  40  52  71  99 127 156 192 232
#     4   9  17  26  33  44  67 100 131 155 182 213
#     4  10  17  24  35  51  71  94 124 159 186 214
#     4  10  16  22  35  55  75  94 125 160 187 216
#
# _framework density 23.359946000000001
#
# number of rings (size 3 to 8) (size 9 to 14) (size 15 to 20)
#    0.000    2.667    0.000    7.000    0.000    3.333 
#    0.000    0.000    0.000    0.000    0.000    3.500 
#    0.000   27.333    0.000    0.000    0.000    0.000 
#
# Total GULP energy -267262.611687 kJ/mol
# GULP energy per Si atom -5567.971077 kJ/mol
# Density = 2.330678 g / cm^3
# Si number density = 23.359946 Si / 1000 Ang^3
#
#
#
# Elastic Constant Matrix: (Units=GPa)
#
#
# Indices 1 2 3 4 5 6 
#
# 1 167.6275 51.8349 23.1252 0.0005 -0.0003 -0.0001
# 2 51.8349 188.5577 17.8578 -0.0007 0.0000 0.0002
# 3 23.1252 17.8578 44.3616 0.0000 -0.0006 0.0000
# 4 0.0005 -0.0007 0.0000 7.9449 -0.0007 0.0009
# 5 -0.0003 0.0000 -0.0006 -0.0007 8.4599 0.0004
# 6 -0.0001 0.0002 0.0000 0.0009 0.0004 46.9471
#
#
#
# Elastic Compliance Matrix: (Units=1/GPa)
#
#
# Indices 1 2 3 4 5 6 
#
# 1 0.006868 -0.001610 -0.002932 -0.000001 0.000000 0.000000
# 2 -0.001610 0.005891 -0.001532 0.000001 0.000000 0.000000
# 3 -0.002932 -0.001532 0.024687 0.000000 0.000002 0.000000
# 4 -0.000001 0.000001 0.000000 0.125867 0.000010 -0.000002
# 5 0.000000 0.000000 0.000002 0.000010 0.118204 -0.000001
# 6 0.000000 0.000000 0.000000 -0.000002 -0.000001 0.021301
#
#
# Mechanical properties :
#
#
# Convention : Reuss Voigt Hill
#
# Bulk Modulus (GPa) = 39.52941 65.13140 52.33040
# Shear Modulus (GPa) = 15.46078 33.18565 24.32322
#
# Velocity S-wave (km/s) = 2.57544 3.77320 3.23032
# Velocity P-wave (km/s) = 5.07961 6.85018 6.03023
#
# Compressibility (1/GPa) = 0.02529762
#
# Stress axis : x y z
#
# Youngs Moduli (GPa) = 145.60147 169.74465 40.50691
#
# Poissons Ratio (x) = 0.27335 0.11877
# Poissons Ratio (y) = 0.23447 0.06206
# Poissons Ratio (z) = 0.42690 0.26006
#
# Static dielectric constant tensor:
#      x y z
#    x 1.932840 0.000000 0.000000 
#    y 0.000000 2.046500 0.000000 
#    z 0.000000 0.000000 1.887410 
# 
# From -- ./inp_files/33054.got.cif
#   From: 2010.05.17/outbox.cif.g08.bks.cpg/sg74_17_cif.got.tgz:33054.got - 2010.06.03 17:57:02.
