data_PCOD9533076
_publ_section_title
;
Structure prediction by ZEFSAII (Michael W. Deem and Ramdas Pophale) SiO2 
 PCOD9533076
Probable space group: I B C A 
;
_chemical_formula_sum "Si O2"
_cell_formula_units_Z 72
_cell_length_a 9.119679
_cell_length_b 18.555942
_cell_length_c 17.823288
_cell_angle_alpha 90.000000
_cell_angle_beta 90.000000
_cell_angle_gamma 90.000000
_cell_volume 3016.132270
_symmetry_space_group_name_H-M "I B C A "
_symmetry_group_IT_number 73
_symmetry_cell_setting 'orthorhombic'
loop_
_space_group_symop_operation_xyz
x,y,z
-x,1/2-y,z
x,-y,1/2-z
1/2-x,y,-z
-x,-y,-z
x,1/2+y,-z
-x,y,1/2+z
1/2+x,-y,z
1/2+x,1/2+y,1/2+z
1/2-x,-y,1/2+z
1/2+x,1/2-y,-z
-x,1/2+y,1/2-z
1/2-x,1/2-y,1/2-z
1/2+x,y,1/2-z
1/2-x,1/2+y,z
x,1/2-y,1/2+z
loop_
_atom_site_type_symbol
_atom_site_label
_atom_site_fract_x
_atom_site_fract_y
_atom_site_fract_z
Si Si1 0.784380 0.457413 0.326213
Si Si2 0.000000 0.250000 0.688518
Si Si3 0.789848 0.822714 0.921461
Si Si4 0.499657 0.047797 0.425387
Si Si5 0.981915 0.832145 0.170123
O O1 0.735128 0.500000 0.250000
O O2 0.656634 0.444718 0.386377
O O3 0.900539 0.511188 0.362765
O O4 0.877798 0.383170 0.322487
O O5 0.137532 0.271244 0.639045
O O6 0.053274 0.185867 0.743206
O O7 0.652102 0.861112 0.879877
O O8 0.917915 0.878253 0.942880
O O9 0.750000 0.786230 0.000000
O O10 0.500000 0.000000 0.500000
O O11 0.000000 0.750000 0.138692
#
# Coordination Sequence:
#
# PCOD9533076 Si02
#       5
#    16   8  16  16  16
#     4  12  25  46  77 110 148 202 258 310 374 454
#     4  10  26  44  76 106 152 194 246 304 368 446
#     4  12  26  47  75 108 148 198 250 305 380 451
#     4  12  27  47  74 109 151 196 253 317 377 445
#     4  10  26  48  75 112 155 192 253 311 381 450
#
# _framework density 23.871632999999999
#
# number of rings (size 3 to 8) (size 9 to 14) (size 15 to 20)
#    0.667    0.000    0.000    7.333    4.667    3.556 
#    0.000    1.111    0.000    0.000    0.000    0.000 
#    0.000    0.000    0.000    0.000    0.000    0.000 
#
# Total GULP energy -201315.539990 kJ/mol
# GULP energy per Si atom -5592.098333 kJ/mol
# Density = 2.381730 g / cm^3
# Si number density = 23.871633 Si / 1000 Ang^3
#
#
#
# Elastic Constant Matrix: (Units=GPa)
#
#
# Indices 1 2 3 4 5 6 
#
# 1 140.5816 36.9837 73.2978 0.0000 0.0000 0.0000
# 2 36.9837 63.4027 27.5064 0.0000 0.0000 0.0000
# 3 73.2978 27.5064 172.5654 0.0000 0.0000 0.0000
# 4 0.0000 0.0000 0.0000 27.6938 0.0000 0.0000
# 5 0.0000 0.0000 0.0000 0.0000 -4.3974 0.0000
# 6 0.0000 0.0000 0.0000 0.0000 0.0000 34.1327
#
#
#
# Elastic Compliance Matrix: (Units=1/GPa)
#
#
# Indices 1 2 3 4 5 6 
#
# 1 0.010142 -0.004348 -0.003615 0.000000 0.000000 0.000000
# 2 -0.004348 0.018808 -0.001151 0.000000 0.000000 0.000000
# 3 -0.003615 -0.001151 0.007514 0.000000 0.000000 0.000000
# 4 0.000000 0.000000 0.000000 0.036109 0.000000 0.000000
# 5 0.000000 0.000000 0.000000 0.000000 -0.227409 0.000000
# 6 0.000000 0.000000 0.000000 0.000000 0.000000 0.029297
#
#
# Mechanical properties :
#
#
# Convention : Reuss Voigt Hill
#
# Bulk Modulus (GPa) = 54.83647 72.45838 63.64743
# Shear Modulus (GPa) = -49.39066 27.40329 -10.99369
#
# Velocity S-wave (km/s) = -4.55357 3.39181 -2.14833
# Velocity P-wave (km/s) = 2.15068 6.76449 4.53503
#
# Compressibility (1/GPa) = 0.01823604
#
# Stress axis : x y z
#
# Youngs Moduli (GPa) = 98.60224 53.16979 133.08875
#
# Poissons Ratio (x) = 0.23116 0.48108
# Poissons Ratio (y) = 0.42868 0.15321
# Poissons Ratio (z) = 0.35642 0.06121
#
# Static dielectric constant tensor:
#      x y z
#    x 1.924950 0.000000 0.000000 
#    y 0.000000 2.105340 0.000000 
#    z 0.000000 0.000000 1.971070 
# 
# From -- ./inp_files/24688.got.cif
#   From: 2010.05.17/outbox.cif.g08.bks.cpg/sg73_13_cif.got.tgz:24688.got - 2010.06.03 17:35:07.
