data_PCOD9533037
_publ_section_title
;
Structure prediction by ZEFSAII (Michael W. Deem and Ramdas Pophale) SiO2 
 PCOD9533037
Probable space group: I B C A 
;
_chemical_formula_sum "Si O2"
_cell_formula_units_Z 64
_cell_length_a 25.502407
_cell_length_b 9.115162
_cell_length_c 11.953077
_cell_angle_alpha 90.000000
_cell_angle_beta 90.000000
_cell_angle_gamma 90.000000
_cell_volume 2778.595201
_symmetry_space_group_name_H-M "I B C A "
_symmetry_group_IT_number 73
_symmetry_cell_setting 'orthorhombic'
loop_
_space_group_symop_operation_xyz
x,y,z
-x,1/2-y,z
x,-y,1/2-z
1/2-x,y,-z
-x,-y,-z
x,1/2+y,-z
-x,y,1/2+z
1/2+x,-y,z
1/2+x,1/2+y,1/2+z
1/2-x,-y,1/2+z
1/2+x,1/2-y,-z
-x,1/2+y,1/2-z
1/2-x,1/2-y,1/2-z
1/2+x,y,1/2-z
1/2-x,1/2+y,z
x,1/2-y,1/2+z
loop_
_atom_site_type_symbol
_atom_site_label
_atom_site_fract_x
_atom_site_fract_y
_atom_site_fract_z
Si Si1 0.947453 0.500000 0.750000
Si Si2 0.256794 0.000000 0.250000
Si Si3 0.451460 0.021085 0.870385
Si Si4 0.706593 0.755191 0.402758
Si Si5 0.411582 0.279689 0.566445
O O1 0.916688 0.618856 0.677632
O O2 0.989723 0.431188 0.663124
O O3 0.289782 0.895219 0.331828
O O4 0.222066 0.890152 0.176375
O O5 0.450206 0.857489 0.919311
O O6 0.423308 0.000000 0.750000
O O7 0.425390 0.127345 0.957636
O O8 0.750000 0.746981 0.500000
O O9 0.647840 0.775416 0.445710
#
# Coordination Sequence:
#
# PCOD9533037 Si02
#       5
#     8   8  16  16  16
#     4  10  25  49  76 106 152 196 253 317 382 452
#     4  10  25  47  72 104 150 190 251 315 364 446
#     4  10  28  45  75 110 151 195 262 311 383 456
#     4  11  26  45  76 108 152 194 252 306 384 448
#     4  12  26  46  79 109 153 206 252 315 391 459
#
# _framework density 23.033221999999999
#
# number of rings (size 3 to 8) (size 9 to 14) (size 15 to 20)
#    0.750    0.500    0.000    3.000   12.250    2.000 
#    0.000    0.000    0.000    0.000    0.000    0.000 
#    0.000    0.000    0.000    0.000    0.000    0.000 
#
# Total GULP energy -179080.231554 kJ/mol
# GULP energy per Si atom -5596.257236 kJ/mol
# Density = 2.298080 g / cm^3
# Si number density = 23.033222 Si / 1000 Ang^3
#
#
#
# Elastic Constant Matrix: (Units=GPa)
#
#
# Indices 1 2 3 4 5 6 
#
# 1 98.4164 1.2771 35.5301 0.0000 0.0000 0.0000
# 2 1.2771 101.8975 55.9614 0.0000 0.0000 0.0000
# 3 35.5301 55.9614 143.0393 0.0000 0.0000 0.0000
# 4 0.0000 0.0000 0.0000 32.3878 0.0000 0.0000
# 5 0.0000 0.0000 0.0000 0.0000 20.9265 0.0000
# 6 0.0000 0.0000 0.0000 0.0000 0.0000 1.6900
#
#
#
# Elastic Compliance Matrix: (Units=1/GPa)
#
#
# Indices 1 2 3 4 5 6 
#
# 1 0.011416 0.001801 -0.003540 0.000000 0.000000 0.000000
# 2 0.001801 0.012784 -0.005449 0.000000 0.000000 0.000000
# 3 -0.003540 -0.005449 0.010002 0.000000 0.000000 0.000000
# 4 0.000000 0.000000 0.000000 0.030876 0.000000 0.000000
# 5 0.000000 0.000000 0.000000 0.000000 0.047786 0.000000
# 6 0.000000 0.000000 0.000000 0.000000 0.000000 0.591731
#
#
# Mechanical properties :
#
#
# Convention : Reuss Voigt Hill
#
# Bulk Modulus (GPa) = 50.43925 58.76559 54.60242
# Shear Modulus (GPa) = 6.89105 27.70650 17.29878
#
# Velocity S-wave (km/s) = 1.73155 3.47204 2.74348
# Velocity P-wave (km/s) = 5.09350 6.45308 5.81317
#
# Compressibility (1/GPa) = 0.01982583
#
# Stress axis : x y z
#
# Youngs Moduli (GPa) = 87.59918 78.22508 99.97812
#
# Poissons Ratio (x) = -0.14090 0.35395
# Poissons Ratio (y) = -0.15779 0.54476
# Poissons Ratio (z) = 0.31012 0.42623
#
# Static dielectric constant tensor:
#      x y z
#    x 1.819850 0.000000 0.000000 
#    y 0.000000 1.828510 0.000000 
#    z 0.000000 0.000000 1.905170 
# 
# From -- ./inp_files/8262.got.cif
#   From: 2010.05.17/outbox.cif.g08.bks.cpg/sg73_5_cif.got.tgz:8262.got - 2010.06.03 17:35:07.
