data_PCOD9533614
_publ_section_title
;
Structure prediction by ZEFSAII (Michael W. Deem and Ramdas Pophale) SiO2 
 PCOD9533614
Probable space group: I B C A 
;
_chemical_formula_sum "Si O2"
_cell_formula_units_Z 72
_cell_length_a 16.404962
_cell_length_b 10.974704
_cell_length_c 18.285345
_cell_angle_alpha 90.000000
_cell_angle_beta 90.000000
_cell_angle_gamma 90.000000
_cell_volume 3292.086238
_symmetry_space_group_name_H-M "I B C A "
_symmetry_group_IT_number 73
_symmetry_cell_setting 'orthorhombic'
loop_
_space_group_symop_operation_xyz
x,y,z
-x,1/2-y,z
x,-y,1/2-z
1/2-x,y,-z
-x,-y,-z
x,1/2+y,-z
-x,y,1/2+z
1/2+x,-y,z
1/2+x,1/2+y,1/2+z
1/2-x,-y,1/2+z
1/2+x,1/2-y,-z
-x,1/2+y,1/2-z
1/2-x,1/2-y,1/2-z
1/2+x,y,1/2-z
1/2-x,1/2+y,z
x,1/2-y,1/2+z
loop_
_atom_site_type_symbol
_atom_site_label
_atom_site_fract_x
_atom_site_fract_y
_atom_site_fract_z
Si Si1 0.166071 0.275060 0.959551
Si Si2 0.401219 0.244485 0.693980
Si Si3 0.951290 0.871807 0.839678
Si Si4 0.093520 0.970703 0.486882
Si Si5 0.583408 0.500000 0.250000
O O1 0.154044 0.298347 0.872903
O O2 0.138018 0.400855 0.998069
O O3 0.250000 0.245826 0.000000
O O4 0.116104 0.149270 0.968097
O O5 0.500000 0.250000 0.674618
O O6 0.373867 0.378147 0.722220
O O7 0.402498 0.160858 0.766180
O O8 0.000000 0.750000 0.864355
O O9 0.897767 0.926835 0.903138
O O10 0.023539 0.961504 0.815948
O O11 0.000000 0.000000 0.500000
#
# Coordination Sequence:
#
# PCOD9533614 Si02
#       5
#    16  16  16  16   8
#     4  12  26  42  61  93 137 176 214 273 338 393
#     4   9  18  35  61  94 127 168 218 273 328 395
#     4   9  17  31  58  96 125 158 215 277 322 382
#     4  12  23  41  68  97 128 174 225 270 324 399
#     4   8  14  28  56  92 126 152 206 276 322 370
#
# _framework density 21.870629999999998
#
# number of rings (size 3 to 8) (size 9 to 14) (size 15 to 20)
#    0.000    2.222    0.000    8.000    0.000    1.778 
#    0.000    1.111    0.000    4.000    0.000    0.000 
#    0.000    0.000    0.000    0.000    0.000    0.000 
#
# Total GULP energy -200776.915324 kJ/mol
# GULP energy per Si atom -5577.136537 kJ/mol
# Density = 2.182085 g / cm^3
# Si number density = 21.870630 Si / 1000 Ang^3
#
#
#
# Elastic Constant Matrix: (Units=GPa)
#
#
# Indices 1 2 3 4 5 6 
#
# 1 38.2956 13.2337 17.0049 0.0000 0.0000 0.0000
# 2 13.2337 146.7296 14.5204 0.0000 0.0000 0.0000
# 3 17.0049 14.5204 85.3766 0.0000 0.0000 0.0000
# 4 0.0000 0.0000 0.0000 16.8385 0.0000 0.0000
# 5 0.0000 0.0000 0.0000 0.0000 16.0967 0.0000
# 6 0.0000 0.0000 0.0000 0.0000 0.0000 20.8634
#
#
#
# Elastic Compliance Matrix: (Units=1/GPa)
#
#
# Indices 1 2 3 4 5 6 
#
# 1 0.029268 -0.002098 -0.005473 0.000000 0.000000 0.000000
# 2 -0.002098 0.007082 -0.000787 0.000000 0.000000 0.000000
# 3 -0.005473 -0.000787 0.012937 0.000000 0.000000 0.000000
# 4 0.000000 0.000000 0.000000 0.059388 0.000000 0.000000
# 5 0.000000 0.000000 0.000000 0.000000 0.062125 0.000000
# 6 0.000000 0.000000 0.000000 0.000000 0.000000 0.047931
#
#
# Mechanical properties :
#
#
# Convention : Reuss Voigt Hill
#
# Bulk Modulus (GPa) = 30.70117 39.99108 35.34612
# Shear Modulus (GPa) = 20.30028 25.80255 23.05142
#
# Velocity S-wave (km/s) = 3.04994 3.43852 3.25004
# Velocity P-wave (km/s) = 5.14499 5.83863 5.50275
#
# Compressibility (1/GPa) = 0.03257205
#
# Stress axis : x y z
#
# Youngs Moduli (GPa) = 34.16726 141.19635 77.30007
#
# Poissons Ratio (x) = 0.29625 0.42303
# Poissons Ratio (y) = 0.07169 0.06081
# Poissons Ratio (z) = 0.18698 0.11107
#
# Static dielectric constant tensor:
#      x y z
#    x 1.819640 0.000000 0.000000 
#    y 0.000000 2.075070 0.000000 
#    z 0.000000 0.000000 1.854780 
# 
# From -- ./inp_files/22333.got.cif
#   From: 2010.05.17/outbox.cif.g08.bks.cpg/sg73_12_cif.got.tgz:22333.got - 2010.06.03 17:35:07.
