data_PCOD9533968
_publ_section_title
;
Structure prediction by ZEFSAII (Michael W. Deem and Ramdas Pophale) SiO2 
 PCOD9533968
Probable space group: I M M A
;
_chemical_formula_sum "Si O2"
_cell_formula_units_Z 80
_cell_length_a 30.291636
_cell_length_b 8.565226
_cell_length_c 23.458919
_cell_angle_alpha 90.000000
_cell_angle_beta 90.000000
_cell_angle_gamma 90.000000
_cell_volume 6086.526985
_symmetry_space_group_name_H-M "I M M A"
_symmetry_group_IT_number 74
_symmetry_cell_setting 'orthorhombic'
loop_
_space_group_symop_operation_xyz
x,y,z
-x,1/2-y,z
x,-y,-z
-x,1/2+y,-z
-x,-y,-z
x,1/2+y,-z
-x,y,z
x,1/2-y,z
1/2+x,1/2+y,1/2+z
1/2-x,-y,1/2+z
1/2+x,1/2-y,1/2-z
1/2-x,y,1/2-z
1/2-x,1/2-y,1/2-z
1/2+x,y,1/2-z
1/2-x,1/2+y,1/2+z
1/2+x,-y,1/2+z
loop_
_atom_site_type_symbol
_atom_site_label
_atom_site_fract_x
_atom_site_fract_y
_atom_site_fract_z
Si Si1 0.133143 0.562042 0.363424
Si Si2 0.184028 0.563734 0.735925
Si Si3 0.449739 0.438294 0.937219
Si Si4 0.267823 0.063699 0.663943
Si Si5 0.283848 0.436765 0.063927
O O1 0.135698 0.750000 0.360546
O O2 0.142369 0.492393 0.300857
O O3 0.086696 0.514178 0.391186
O O4 0.172100 0.502524 0.405243
O O5 0.187508 0.750000 0.735086
O O6 0.224988 0.491573 0.700187
O O7 0.190965 0.501890 0.799993
O O8 0.500000 0.489711 0.924708
O O9 0.449474 0.250000 0.939389
O O10 0.437806 0.500000 0.000000
O O11 0.269150 0.250000 0.662370
O O12 0.257567 0.995149 0.601817
O O13 0.285623 0.250000 0.064757
O O14 0.281724 0.500000 0.000000
#
# Coordination Sequence:
#
# PCOD9533968 Si02
#       5
#    16  16  16  16  16
#     4  10  18  28  41  56  73  94 123 158 193 227
#     4  10  17  26  39  55  73  93 118 149 185 221
#     4   9  18  30  42  55  72  95 123 156 194 233
#     4  10  17  27  40  54  72  94 120 149 183 219
#     4  11  20  29  39  54  75  98 125 155 188 222
#
# _framework density 13.143784999999999
#
# number of rings (size 3 to 8) (size 9 to 14) (size 15 to 20)
#    0.000    2.000    0.000   10.200    0.000    3.200 
#    0.000    0.000    0.000    0.000    0.000    0.000 
#    0.000    0.000    0.000    0.000    0.000    1.000 
#
# Total GULP energy -222924.946273 kJ/mol
# GULP energy per Si atom -5573.123657 kJ/mol
# Density = 1.311387 g / cm^3
# Si number density = 13.143785 Si / 1000 Ang^3
#
#
#
# Elastic Constant Matrix: (Units=GPa)
#
#
# Indices 1 2 3 4 5 6 
#
# 1 57.0201 17.1111 38.7771 0.0000 0.0000 0.0000
# 2 17.1111 78.8728 22.7490 0.0000 0.0000 0.0000
# 3 38.7771 22.7490 67.8834 0.0000 0.0000 0.0000
# 4 0.0000 0.0000 0.0000 22.9136 0.0000 0.0000
# 5 0.0000 0.0000 0.0000 0.0000 24.1892 0.0000
# 6 0.0000 0.0000 0.0000 0.0000 0.0000 11.6375
#
#
#
# Elastic Compliance Matrix: (Units=1/GPa)
#
#
# Indices 1 2 3 4 5 6 
#
# 1 0.028875 -0.001668 -0.015935 0.000000 0.000000 0.000000
# 2 -0.001668 0.014132 -0.003783 0.000000 0.000000 0.000000
# 3 -0.015935 -0.003783 0.025102 0.000000 0.000000 0.000000
# 4 0.000000 0.000000 0.000000 0.043642 0.000000 0.000000
# 5 0.000000 0.000000 0.000000 0.000000 0.041341 0.000000
# 6 0.000000 0.000000 0.000000 0.000000 0.000000 0.085929
#
#
# Mechanical properties :
#
#
# Convention : Reuss Voigt Hill
#
# Bulk Modulus (GPa) = 39.47007 40.11676 39.79342
# Shear Modulus (GPa) = 17.22722 20.09069 18.65895
#
# Velocity S-wave (km/s) = 3.62425 3.91388 3.77185
# Velocity P-wave (km/s) = 6.89987 7.14230 7.02213
#
# Compressibility (1/GPa) = 0.02533565
#
# Stress axis : x y z
#
# Youngs Moduli (GPa) = 34.63167 70.76327 39.83798
#
# Poissons Ratio (x) = 0.11804 0.63484
# Poissons Ratio (y) = 0.05777 0.15070
# Poissons Ratio (z) = 0.55187 0.26769
#
# Static dielectric constant tensor:
#      x y z
#    x 1.437200 0.000000 0.000000 
#    y 0.000000 1.438740 0.000000 
#    z 0.000000 0.000000 1.454060 
# 
# From -- ./inp_files/62562.got.cif
#   From: 2010.05.17/outbox.cif.g08.bks.cpg/sg74_32_cif.got.tgz:62562.got - 2010.06.03 17:57:02.
