data_PCOD9533823
_publ_section_title
;
Structure prediction by ZEFSAII (Michael W. Deem and Ramdas Pophale) SiO2 
 PCOD9533823
Probable space group: I M M A
;
_chemical_formula_sum "Si O2"
_cell_formula_units_Z 88
_cell_length_a 25.602747
_cell_length_b 8.262035
_cell_length_c 21.308256
_cell_angle_alpha 90.000000
_cell_angle_beta 90.000000
_cell_angle_gamma 90.000000
_cell_volume 4507.352264
_symmetry_space_group_name_H-M "I M M A"
_symmetry_group_IT_number 74
_symmetry_cell_setting 'orthorhombic'
loop_
_space_group_symop_operation_xyz
x,y,z
-x,1/2-y,z
x,-y,-z
-x,1/2+y,-z
-x,-y,-z
x,1/2+y,-z
-x,y,z
x,1/2-y,z
1/2+x,1/2+y,1/2+z
1/2-x,-y,1/2+z
1/2+x,1/2-y,1/2-z
1/2-x,y,1/2-z
1/2-x,1/2-y,1/2-z
1/2+x,y,1/2-z
1/2-x,1/2+y,1/2+z
1/2+x,-y,1/2+z
loop_
_atom_site_type_symbol
_atom_site_label
_atom_site_fract_x
_atom_site_fract_y
_atom_site_fract_z
Si Si1 0.614382 0.559803 0.432616
Si Si2 0.750000 0.506091 0.750000
Si Si3 0.134736 0.565626 0.700163
Si Si4 0.223223 0.443264 0.118622
Si Si5 0.664662 0.056284 0.067646
Si Si6 0.060236 0.945006 0.809018
O O1 0.594954 0.500000 0.500000
O O2 0.623545 0.750000 0.435655
O O3 0.669455 0.474940 0.416278
O O4 0.576103 0.518731 0.375533
O O5 0.805277 0.575157 0.724045
O O6 0.771682 0.449305 0.818001
O O7 0.115702 0.750000 0.692670
O O8 0.136777 0.490190 0.630627
O O9 0.098672 0.492190 0.754189
O O10 0.224954 0.250000 0.136827
O O11 0.273759 0.480294 0.076772
O O12 0.660435 0.250000 0.069914
O O13 0.646000 0.000000 0.000000
O O14 0.067640 0.750000 0.814440
O O15 0.000000 0.976523 0.793851
#
# Coordination Sequence:
#
# PCOD9533823 Si02
#       6
#    16   8  16  16  16  16
#     4  12  25  39  56  79 110 148 185 229 275 324
#     4  10  15  26  55  84 109 140 175 222 271 326
#     4   9  16  29  53  82 107 137 177 217 267 324
#     4  10  18  31  53  80 111 147 185 224 269 323
#     4   9  18  30  49  77 110 148 181 216 263 318
#     4  10  21  39  63  85 105 134 180 235 279 324
#
# _framework density 19.523658000000001
#
# number of rings (size 3 to 8) (size 9 to 14) (size 15 to 20)
#    0.000    2.000    1.818    4.909    0.000    2.909 
#    0.000    1.364    0.000    0.545    0.000    0.000 
#    0.000    0.000    0.000    0.000    0.000    0.000 
#
# Total GULP energy -244951.565905 kJ/mol
# GULP energy per Si atom -5567.081043 kJ/mol
# Density = 1.947922 g / cm^3
# Si number density = 19.523658 Si / 1000 Ang^3
#
#
#
# Elastic Constant Matrix: (Units=GPa)
#
#
# Indices 1 2 3 4 5 6 
#
# 1 67.2542 17.9321 43.6925 0.0000 0.0000 0.0000
# 2 17.9321 31.6763 20.2464 0.0000 0.0000 0.0000
# 3 43.6925 20.2464 180.8144 0.0000 0.0000 0.0000
# 4 0.0000 0.0000 0.0000 6.4764 0.0000 0.0000
# 5 0.0000 0.0000 0.0000 0.0000 15.2851 0.0000
# 6 0.0000 0.0000 0.0000 0.0000 0.0000 -0.0357
#
#
#
# Elastic Compliance Matrix: (Units=1/GPa)
#
#
# Indices 1 2 3 4 5 6 
#
# 1 0.019641 -0.008708 -0.003771 0.000000 0.000000 0.000000
# 2 -0.008708 0.037864 -0.002135 0.000000 0.000000 0.000000
# 3 -0.003771 -0.002135 0.006681 0.000000 0.000000 0.000000
# 4 0.000000 0.000000 0.000000 0.154407 0.000000 0.000000
# 5 0.000000 0.000000 0.000000 0.000000 0.065423 0.000000
# 6 0.000000 0.000000 0.000000 0.000000 0.000000-27.975040
#
#
# Mechanical properties :
#
#
# Convention : Reuss Voigt Hill
#
# Bulk Modulus (GPa) = 28.60729 49.27631 38.94180
# Shear Modulus (GPa) = -0.18083 17.53674 8.67795
#
# Velocity S-wave (km/s) = -0.30467 3.00030 2.11057
# Velocity P-wave (km/s) = 3.81585 6.10708 5.09201
#
# Compressibility (1/GPa) = 0.03495612
#
# Stress axis : x y z
#
# Youngs Moduli (GPa) = 50.91453 26.41017 149.68125
#
# Poissons Ratio (x) = 0.22999 0.56444
# Poissons Ratio (y) = 0.44339 0.31963
# Poissons Ratio (z) = 0.19200 0.05640
#
# Static dielectric constant tensor:
#      x y z
#    x 1.644510 0.000000 0.000000 
#    y 0.000000 1.730160 0.000000 
#    z 0.000000 0.000000 1.731740 
# 
# From -- ./inp_files/54515.got.cif
#   From: 2010.05.17/outbox.cif.g08.bks.cpg/sg74_28_cif.got.tgz:54515.got - 2010.06.03 17:57:02.
