data_PCOD9533886
_publ_section_title
;
Structure prediction by ZEFSAII (Michael W. Deem and Ramdas Pophale) SiO2 
 PCOD9533886
Probable space group: I M M A
;
_chemical_formula_sum "Si O2"
_cell_formula_units_Z 88
_cell_length_a 25.220861
_cell_length_b 21.452333
_cell_length_c 8.302604
_cell_angle_alpha 90.000000
_cell_angle_beta 90.000000
_cell_angle_gamma 90.000000
_cell_volume 4492.093247
_symmetry_space_group_name_H-M "I M M A"
_symmetry_group_IT_number 74
_symmetry_cell_setting 'orthorhombic'
loop_
_space_group_symop_operation_xyz
x,y,z
-x,1/2-y,z
x,-y,-z
-x,1/2+y,-z
-x,-y,-z
x,1/2+y,-z
-x,y,z
x,1/2-y,z
1/2+x,1/2+y,1/2+z
1/2-x,-y,1/2+z
1/2+x,1/2-y,1/2-z
1/2-x,y,1/2-z
1/2-x,1/2-y,1/2-z
1/2+x,y,1/2-z
1/2-x,1/2+y,1/2+z
1/2+x,-y,1/2+z
loop_
_atom_site_type_symbol
_atom_site_label
_atom_site_fract_x
_atom_site_fract_y
_atom_site_fract_z
Si Si1 0.385487 0.000584 0.312872
Si Si2 0.190592 0.750000 0.307172
Si Si3 0.500000 0.839375 0.178720
Si Si4 0.311188 0.250000 0.196202
Si Si5 0.000000 0.678838 0.705401
Si Si6 0.500000 0.012935 0.810112
Si Si7 0.116463 0.366684 0.309098
Si Si8 0.385324 0.858840 0.197635
O O1 0.362909 0.064064 0.234794
O O2 0.373430 0.000000 0.500000
O O3 0.447821 0.009677 0.276807
O O4 0.375405 0.930294 0.250141
O O5 0.250000 0.750000 0.250000
O O6 0.188354 0.750000 0.501454
O O7 0.160398 0.811994 0.250581
O O8 0.500000 0.913413 0.191218
O O9 0.441632 0.827049 0.249551
O O10 0.500000 0.819751 0.991450
O O11 0.250000 0.250000 0.250000
O O12 0.344129 0.311735 0.247294
O O13 0.943973 0.646948 0.751443
O O14 0.000000 0.750000 0.762683
O O15 0.500000 0.000000 0.000000
O O16 0.112557 0.362181 0.503024
#
# Coordination Sequence:
#
# PCOD9533886 Si02
#       8
#    16   8   8   8   8   8  16  16
#     4  11  21  33  53  84 118 152 186 231 284 340
#     4  10  22  39  61  83 111 148 190 238 288 344
#     4   8  16  25  50  81 112 133 174 225 267 314
#     4  10  22  39  59  83 109 146 194 238 288 340
#     4  10  16  27  53  87 112 137 181 231 271 321
#     4  10  17  32  50  77 111 159 191 222 268 328
#     4  10  19  35  57  85 115 147 188 233 281 345
#     4   9  19  35  57  86 113 148 188 228 284 344
#
# _framework density 19.589976
#
# number of rings (size 3 to 8) (size 9 to 14) (size 15 to 20)
#    0.000    2.182    0.909    4.636    3.818    1.455 
#    0.000    0.909    0.000    0.000    0.000    0.000 
#    0.000    0.000    0.000    0.000    0.000    0.000 
#
# Total GULP energy -245080.463103 kJ/mol
# GULP energy per Si atom -5570.010525 kJ/mol
# Density = 1.954539 g / cm^3
# Si number density = 19.589976 Si / 1000 Ang^3
#
#
#
# Elastic Constant Matrix: (Units=GPa)
#
#
# Indices 1 2 3 4 5 6 
#
# 1 133.7495 82.2858 14.2180 0.0000 0.0000 0.0000
# 2 82.2858 188.4782 17.2306 0.0000 0.0000 0.0000
# 3 14.2180 17.2306 17.8198 0.0000 0.0000 0.0000
# 4 0.0000 0.0000 0.0000 2.5058 0.0000 0.0000
# 5 0.0000 0.0000 0.0000 0.0000 21.8435 0.0000
# 6 0.0000 0.0000 0.0000 0.0000 0.0000 -3.3695
#
#
#
# Elastic Compliance Matrix: (Units=1/GPa)
#
#
# Indices 1 2 3 4 5 6 
#
# 1 0.010519 -0.004196 -0.004336 0.000000 0.000000 0.000000
# 2 -0.004196 0.007494 -0.003898 0.000000 0.000000 0.000000
# 3 -0.004336 -0.003898 0.063346 0.000000 0.000000 0.000000
# 4 0.000000 0.000000 0.000000 0.399070 0.000000 0.000000
# 5 0.000000 0.000000 0.000000 0.000000 0.045780 0.000000
# 6 0.000000 0.000000 0.000000 0.000000 0.000000 -0.296781
#
#
# Mechanical properties :
#
#
# Convention : Reuss Voigt Hill
#
# Bulk Modulus (GPa) = 17.69941 63.05738 40.37840
# Shear Modulus (GPa) = 18.30686 19.28351 18.79518
#
# Velocity S-wave (km/s) = 3.06028 3.14085 3.10082
# Velocity P-wave (km/s) = 4.64129 6.73882 5.78590
#
# Compressibility (1/GPa) = 0.05649906
#
# Stress axis : x y z
#
# Youngs Moduli (GPa) = 95.06556 133.44130 15.78637
#
# Poissons Ratio (x) = 0.55993 0.06844
# Poissons Ratio (y) = 0.39890 0.06154
# Poissons Ratio (z) = 0.41217 0.52018
#
# Static dielectric constant tensor:
#      x y z
#    x 1.711890 0.000000 0.000000 
#    y 0.000000 1.702520 0.000000 
#    z 0.000000 0.000000 1.686820 
# 
# From -- ./inp_files/13809.got.cif
#   From: 2010.05.17/outbox.cif.g08.bks.cpg/sg74_7_cif.got.tgz:13809.got - 2010.06.03 17:57:02.
