data_PCOD9533347
_publ_section_title
;
Structure prediction by ZEFSAII (Michael W. Deem and Ramdas Pophale) SiO2 
 PCOD9533347
Probable space group: I B C A 
;
_chemical_formula_sum "Si O2"
_cell_formula_units_Z 112
_cell_length_a 11.568340
_cell_length_b 13.316376
_cell_length_c 33.569242
_cell_angle_alpha 90.000000
_cell_angle_beta 90.000000
_cell_angle_gamma 90.000000
_cell_volume 5171.286849
_symmetry_space_group_name_H-M "I B C A "
_symmetry_group_IT_number 73
_symmetry_cell_setting 'orthorhombic'
loop_
_space_group_symop_operation_xyz
x,y,z
-x,1/2-y,z
x,-y,1/2-z
1/2-x,y,-z
-x,-y,-z
x,1/2+y,-z
-x,y,1/2+z
1/2+x,-y,z
1/2+x,1/2+y,1/2+z
1/2-x,-y,1/2+z
1/2+x,1/2-y,-z
-x,1/2+y,1/2-z
1/2-x,1/2-y,1/2-z
1/2+x,y,1/2-z
1/2-x,1/2+y,z
x,1/2-y,1/2+z
loop_
_atom_site_type_symbol
_atom_site_label
_atom_site_fract_x
_atom_site_fract_y
_atom_site_fract_z
Si Si1 0.320616 0.827078 0.879150
Si Si2 0.684642 0.619774 0.416018
Si Si3 0.750000 0.691956 0.500000
Si Si4 0.916789 0.594180 0.914122
Si Si5 0.369310 0.758946 0.796561
Si Si6 0.697380 0.401965 0.774049
Si Si7 0.889638 0.954097 0.859483
Si Si8 0.000000 0.250000 0.022514
O O1 0.366435 0.725782 0.900364
O O2 0.206597 0.856122 0.904295
O O3 0.293616 0.801474 0.832992
O O4 0.393684 0.929016 0.873085
O O5 0.748037 0.634232 0.458207
O O6 0.603350 0.523582 0.422209
O O7 0.778298 0.589740 0.382491
O O8 0.622814 0.744442 0.499506
O O9 0.980351 0.653449 0.949213
O O10 0.997440 0.600516 0.875570
O O11 0.500000 0.750000 0.811038
O O12 0.314346 0.652505 0.786978
O O13 0.364856 0.826406 0.756854
O O14 0.726962 0.500000 0.750000
O O15 0.626536 0.435178 0.812877
#
# Coordination Sequence:
#
# PCOD9533347 Si02
#       8
#    16  16   8  16  16  16  16   8
#     4  11  23  43  69 105 141 182 250 307 360 452
#     4  11  25  46  71 108 146 190 243 305 379 442
#     4  12  26  50  78 116 158 198 250 318 376 456
#     4  11  25  46  79 103 143 200 246 304 372 464
#     4  11  26  43  65  99 143 187 241 310 368 439
#     4  11  24  45  66 102 143 187 247 300 372 446
#     4  11  23  43  74 102 140 197 245 305 372 446
#     4  12  26  52  80 116 152 192 256 308 382 460
#
# _framework density 21.658052000000001
#
# number of rings (size 3 to 8) (size 9 to 14) (size 15 to 20)
#    0.000    0.857    5.714    0.000    2.000    5.143 
#    0.000    0.000    0.000    0.000    0.000    0.000 
#    0.000    0.000    0.000    0.000    0.000    0.000 
#
# Total GULP energy -312619.514471 kJ/mol
# GULP energy per Si atom -5582.491330 kJ/mol
# Density = 2.160876 g / cm^3
# Si number density = 21.658052 Si / 1000 Ang^3
#
#
#
# Elastic Constant Matrix: (Units=GPa)
#
#
# Indices 1 2 3 4 5 6 
#
# 1 74.9255 36.9559 5.2486 0.0000 0.0000 0.0000
# 2 36.9559 112.2367 26.2613 0.0000 0.0000 0.0000
# 3 5.2486 26.2613 94.8599 0.0000 0.0000 0.0000
# 4 0.0000 0.0000 0.0000 19.9669 0.0000 0.0000
# 5 0.0000 0.0000 0.0000 0.0000 17.4176 0.0000
# 6 0.0000 0.0000 0.0000 0.0000 0.0000 13.7066
#
#
#
# Elastic Compliance Matrix: (Units=1/GPa)
#
#
# Indices 1 2 3 4 5 6 
#
# 1 0.015968 -0.005401 0.000612 0.000000 0.000000 0.000000
# 2 -0.005401 0.011354 -0.002844 0.000000 0.000000 0.000000
# 3 0.000612 -0.002844 0.011295 0.000000 0.000000 0.000000
# 4 0.000000 0.000000 0.000000 0.050083 0.000000 0.000000
# 5 0.000000 0.000000 0.000000 0.000000 0.057413 0.000000
# 6 0.000000 0.000000 0.000000 0.000000 0.000000 0.072957
#
#
# Mechanical properties :
#
#
# Convention : Reuss Voigt Hill
#
# Bulk Modulus (GPa) = 42.82691 46.55041 44.68866
# Shear Modulus (GPa) = 20.65091 24.45532 22.55312
#
# Velocity S-wave (km/s) = 3.09123 3.36394 3.23046
# Velocity P-wave (km/s) = 5.70596 6.05212 5.88158
#
# Compressibility (1/GPa) = 0.02334981
#
# Stress axis : x y z
#
# Youngs Moduli (GPa) = 62.62692 88.07820 88.53123
#
# Poissons Ratio (x) = 0.47569 -0.05415
# Poissons Ratio (y) = 0.33823 0.25181
# Poissons Ratio (z) = -0.03831 0.25052
#
# Static dielectric constant tensor:
#      x y z
#    x 1.825830 0.000000 0.000000 
#    y 0.000000 1.823860 0.000000 
#    z 0.000000 0.000000 1.762230 
# 
# From -- ./inp_files/34051.got.cif
#   From: 2010.05.17/outbox.cif.g08.bks.cpg/sg73_18_cif.got.tgz:34051.got - 2010.06.03 17:35:07.
