data_PCOD9533343
_publ_section_title
;
Structure prediction by ZEFSAII (Michael W. Deem and Ramdas Pophale) SiO2 
 PCOD9533343
Probable space group: I B C A 
;
_chemical_formula_sum "Si O2"
_cell_formula_units_Z 96
_cell_length_a 11.909258
_cell_length_b 22.147621
_cell_length_c 17.730507
_cell_angle_alpha 90.000000
_cell_angle_beta 90.000000
_cell_angle_gamma 90.000000
_cell_volume 4676.629246
_symmetry_space_group_name_H-M "I B C A "
_symmetry_group_IT_number 73
_symmetry_cell_setting 'orthorhombic'
loop_
_space_group_symop_operation_xyz
x,y,z
-x,1/2-y,z
x,-y,1/2-z
1/2-x,y,-z
-x,-y,-z
x,1/2+y,-z
-x,y,1/2+z
1/2+x,-y,z
1/2+x,1/2+y,1/2+z
1/2-x,-y,1/2+z
1/2+x,1/2-y,-z
-x,1/2+y,1/2-z
1/2-x,1/2-y,1/2-z
1/2+x,y,1/2-z
1/2-x,1/2+y,z
x,1/2-y,1/2+z
loop_
_atom_site_type_symbol
_atom_site_label
_atom_site_fract_x
_atom_site_fract_y
_atom_site_fract_z
Si Si1 0.671278 0.986927 0.074148
Si Si2 0.227180 0.841716 0.201181
Si Si3 0.529658 0.107422 0.102477
Si Si4 0.121698 0.764366 0.334156
Si Si5 0.338391 0.446296 0.705225
Si Si6 0.379244 0.855603 0.529915
O O1 0.748525 0.976538 0.148072
O O2 0.608975 0.922729 0.065194
O O3 0.589020 0.044147 0.078884
O O4 0.750000 0.994212 0.000000
O O5 0.122896 0.856315 0.148131
O O6 0.188186 0.805562 0.275222
O O7 0.313360 0.798577 0.157327
O O8 0.281389 0.902370 0.234149
O O9 0.426155 0.090716 0.156320
O O10 0.472830 0.144676 0.034939
O O11 0.107169 0.802811 0.409867
O O12 0.000000 0.750000 0.301347
O O13 0.398334 0.500000 0.750000
O O14 0.250000 0.852693 0.500000
#
# Coordination Sequence:
#
# PCOD9533343 Si02
#       6
#    16  16  16  16  16  16
#     4  11  23  43  65 102 141 179 225 286 356 435
#     4  11  25  45  66 102 135 175 240 290 347 427
#     4  12  25  42  71 101 141 184 228 291 359 431
#     4  11  25  44  69  93 132 178 231 295 344 407
#     4  12  24  42  71 104 140 183 228 289 367 441
#     4  11  23  44  67  93 136 184 226 280 356 423
#
# _framework density 20.527605999999999
#
# number of rings (size 3 to 8) (size 9 to 14) (size 15 to 20)
#    0.000    0.667    6.667    1.500    2.333    5.333 
#    0.000    0.000    0.000    0.000    0.000    0.000 
#    0.000    0.000    0.000    0.000    0.000    0.000 
#
# Total GULP energy -268344.856159 kJ/mol
# GULP energy per Si atom -5590.517837 kJ/mol
# Density = 2.048088 g / cm^3
# Si number density = 20.527606 Si / 1000 Ang^3
#
#
#
# Elastic Constant Matrix: (Units=GPa)
#
#
# Indices 1 2 3 4 5 6 
#
# 1 87.9354 39.8382 35.4194 0.0000 0.0000 0.0000
# 2 39.8382 86.0403 58.3870 0.0000 0.0000 0.0000
# 3 35.4194 58.3870 100.9246 0.0001 0.0000 0.0000
# 4 0.0000 0.0000 0.0001 22.0315 0.0000 0.0000
# 5 0.0000 0.0000 0.0000 0.0000 40.2897 0.0000
# 6 0.0000 0.0000 0.0000 0.0000 0.0000 47.7334
#
#
#
# Elastic Compliance Matrix: (Units=1/GPa)
#
#
# Indices 1 2 3 4 5 6 
#
# 1 0.014632 -0.005417 -0.002001 0.000000 0.000000 0.000000
# 2 -0.005417 0.021140 -0.010329 0.000000 0.000000 0.000000
# 3 -0.002001 -0.010329 0.016586 0.000000 0.000000 0.000000
# 4 0.000000 0.000000 0.000000 0.045389 0.000000 0.000000
# 5 0.000000 0.000000 0.000000 0.000000 0.024820 0.000000
# 6 0.000000 0.000000 0.000000 0.000000 0.000000 0.020950
#
#
# Mechanical properties :
#
#
# Convention : Reuss Voigt Hill
#
# Bulk Modulus (GPa) = 59.29750 60.24327 59.77039
# Shear Modulus (GPa) = 27.08085 31.42798 29.25441
#
# Velocity S-wave (km/s) = 3.63608 3.91706 3.77918
# Velocity P-wave (km/s) = 6.82477 7.06179 6.94429
#
# Compressibility (1/GPa) = 0.01686412
#
# Stress axis : x y z
#
# Youngs Moduli (GPa) = 68.34272 47.30466 60.29132
#
# Poissons Ratio (x) = 0.25624 0.12067
# Poissons Ratio (y) = 0.37020 0.62273
# Poissons Ratio (z) = 0.13678 0.48859
#
# Static dielectric constant tensor:
#      x y z
#    x 1.729190 0.000000 0.000000 
#    y 0.000000 1.712280 0.000000 
#    z 0.000000 0.000000 1.713220 
# 
# From -- ./inp_files/21358.got.cif
#   From: 2010.05.17/outbox.cif.g08.bks.cpg/sg73_11_cif.got.tgz:21358.got - 2010.06.03 17:35:07.
