data_PCOD9533768
_publ_section_title
;
Structure prediction by ZEFSAII (Michael W. Deem and Ramdas Pophale) SiO2 
 PCOD9533768
Probable space group: I B C A 
;
_chemical_formula_sum "Si O2"
_cell_formula_units_Z 48
_cell_length_a 9.000000
_cell_length_b 27.000000
_cell_length_c 21.000000
_cell_angle_alpha 90.000000
_cell_angle_beta 90.000000
_cell_angle_gamma 90.000000
_cell_volume 5103.000000
_symmetry_space_group_name_H-M "I B C A "
_symmetry_group_IT_number 73
_symmetry_cell_setting 'orthorhombic'
loop_
_space_group_symop_operation_xyz
x,y,z
-x,1/2-y,z
x,-y,1/2-z
1/2-x,y,-z
-x,-y,-z
x,1/2+y,-z
-x,y,1/2+z
1/2+x,-y,z
1/2+x,1/2+y,1/2+z
1/2-x,-y,1/2+z
1/2+x,1/2-y,-z
-x,1/2+y,1/2-z
1/2-x,1/2-y,1/2-z
1/2+x,y,1/2-z
1/2-x,1/2+y,z
x,1/2-y,1/2+z
loop_
_atom_site_type_symbol
_atom_site_label
_atom_site_fract_x
_atom_site_fract_y
_atom_site_fract_z
Si Si1 0.242833 0.809765 0.765700
Si Si2 0.467282 0.856710 0.335450
Si Si3 0.863621 0.786570 0.392337
Si Si4 0.366826 0.284460 0.556105
Si Si5 0.750000 0.015680 0.500000
Si Si6 0.536705 0.063020 0.067427
Si Si7 0.250000 0.140430 0.500000
O O1 0.250000 0.750000 0.750000
O O2 0.176012 0.843517 0.708872
O O3 0.394815 0.831963 0.796503
O O4 0.127692 0.812769 0.824591
O O5 0.432197 0.827936 0.401474
O O6 0.507071 0.912229 0.362159
O O7 0.721262 0.750805 0.395282
O O8 0.830347 0.825617 0.447550
O O9 0.000000 0.750000 0.399136
O O10 0.500000 0.250000 0.531166
O O11 0.250000 0.297738 0.500000
O O12 0.622273 0.046991 0.537045
O O13 0.653282 0.982491 0.448659
O O14 0.623441 0.106189 0.029853
#
# Coordination Sequence:
#
# PCOD9533768 Si02
#       7
#    16  16  16  16   8  16   8
#     4  12  23  43  60  86 141 197 231 262 301 374
#     4  12  25  42  62  94 131 180 243 270 317 417
#     4  12  24  35  56  88 137 188 224 268 322 362
#     4  12  23  38  56  88 136 177 227 286 329 371
#     4   9  22  46  77 100 132 158 191 304 402 429
#     4  10  22  44  70 103 126 158 214 279 364 434
#     4  11  22  38  63  98 134 166 221 286 322 415
#
# _framework density 9.4062319999999993
#
# number of rings (size 3 to 8) (size 9 to 14) (size 15 to 20)
#    0.000    0.667    5.833    2.000    3.500    0.000 
#    0.000    0.000    0.000    3.000    0.000    0.000 
#    0.000    0.000    0.000    0.000    0.000    0.000 
#
# Total GULP energy -267520.428570 kJ/mol
# GULP energy per Si atom -5573.342262 kJ/mol
# Density = 0.938482 g / cm^3
# Si number density = 9.406232 Si / 1000 Ang^3
#
#
#
# Elastic Constant Matrix: (Units=GPa)
#
#
# Indices 1 2 3 4 5 6 
#
# 1 137.1923 46.4390 42.6358 0.0000 0.0000 0.0000
# 2 46.4390 78.7665 38.1612 0.0000 0.0000 0.0000
# 3 42.6358 38.1612 121.7418 0.0000 0.0000 0.0000
# 4 0.0000 0.0000 0.0000 28.3088 0.0000 0.0000
# 5 0.0000 0.0000 0.0000 0.0000 8.6681 0.0000
# 6 0.0000 0.0000 0.0000 0.0000 0.0000 38.5309
#
#
#
# Elastic Compliance Matrix: (Units=1/GPa)
#
#
# Indices 1 2 3 4 5 6 
#
# 1 0.009444 -0.004676 -0.001842 0.000000 0.000000 0.000000
# 2 -0.004676 0.017284 -0.003780 0.000000 0.000000 0.000000
# 3 -0.001842 -0.003780 0.010044 0.000000 0.000000 0.000000
# 4 0.000000 0.000000 0.000000 0.035325 0.000000 0.000000
# 5 0.000000 0.000000 0.000000 0.000000 0.115366 0.000000
# 6 0.000000 0.000000 0.000000 0.000000 0.000000 0.025953
#
#
# Mechanical properties :
#
#
# Convention : Reuss Voigt Hill
#
# Bulk Modulus (GPa) = 61.81814 65.79695 63.80754
# Shear Modulus (GPa) = 20.88522 29.13254 25.00888
#
# Velocity S-wave (km/s) = 3.33555 3.93947 3.65002
# Velocity P-wave (km/s) = 6.91130 7.46617 7.19408
#
# Compressibility (1/GPa) = 0.01617648
#
# Stress axis : x y z
#
# Youngs Moduli (GPa) = 105.88580 57.85710 99.56074
#
# Poissons Ratio (x) = 0.27052 0.18337
# Poissons Ratio (y) = 0.49509 0.37637
# Poissons Ratio (z) = 0.19502 0.21872
#
# Static dielectric constant tensor:
#      x y z
#    x 1.953060 0.000000 0.000000 
#    y 0.000000 1.758530 0.000000 
#    z 0.000000 0.000000 1.706700 
# 
# From -- ./inp_files/24900.got.cif
#   From: 2010.05.17/outbox.ucp.g08.bks.cvg/sg73_13_cif.got.tgz:24900.got - 2010.06.11 16:36:03.
