data_PCOD9533333
_publ_section_title
;
Structure prediction by ZEFSAII (Michael W. Deem and Ramdas Pophale) SiO2 
 PCOD9533333
Probable space group: I B C A 
;
_chemical_formula_sum "Si O2"
_cell_formula_units_Z 88
_cell_length_a 14.598825
_cell_length_b 11.605156
_cell_length_c 24.508707
_cell_angle_alpha 90.000000
_cell_angle_beta 90.000000
_cell_angle_gamma 90.000000
_cell_volume 4152.305372
_symmetry_space_group_name_H-M "I B C A "
_symmetry_group_IT_number 73
_symmetry_cell_setting 'orthorhombic'
loop_
_space_group_symop_operation_xyz
x,y,z
-x,1/2-y,z
x,-y,1/2-z
1/2-x,y,-z
-x,-y,-z
x,1/2+y,-z
-x,y,1/2+z
1/2+x,-y,z
1/2+x,1/2+y,1/2+z
1/2-x,-y,1/2+z
1/2+x,1/2-y,-z
-x,1/2+y,1/2-z
1/2-x,1/2-y,1/2-z
1/2+x,y,1/2-z
1/2-x,1/2+y,z
x,1/2-y,1/2+z
loop_
_atom_site_type_symbol
_atom_site_label
_atom_site_fract_x
_atom_site_fract_y
_atom_site_fract_z
Si Si1 0.408300 0.402381 0.936494
Si Si2 0.149850 0.927205 0.300412
Si Si3 0.110566 0.366274 0.579663
Si Si4 0.099712 0.696334 0.254551
Si Si5 0.354590 0.519358 0.828497
Si Si6 0.250000 0.015130 0.000000
O O1 0.387870 0.272251 0.916404
O O2 0.516102 0.401420 0.950598
O O3 0.386384 0.494126 0.889124
O O4 0.334133 0.435123 0.981468
O O5 0.100709 0.914733 0.358644
O O6 0.163333 0.799423 0.275999
O O7 0.108101 0.000000 0.250000
O O8 0.246141 0.984242 0.316827
O O9 0.201233 0.409495 0.547888
O O10 0.116285 0.643041 0.195080
O O11 0.106230 0.586581 0.293673
O O12 0.000000 0.750000 0.257970
#
# Coordination Sequence:
#
# PCOD9533333 Si02
#       6
#    16  16  16  16  16   8
#     4  11  24  46  70 102 136 179 230 291 356 412
#     4  12  24  41  67 100 143 183 231 272 347 416
#     4  11  25  45  71 102 139 180 228 293 352 413
#     4  11  24  40  64  98 139 187 229 277 338 414
#     4  11  23  42  64  96 138 184 231 277 341 416
#     4  12  24  48  76 100 128 180 240 296 348 412
#
# _framework density 21.193045000000001
#
# number of rings (size 3 to 8) (size 9 to 14) (size 15 to 20)
#    0.000    0.727    5.455    2.727    5.091    0.000 
#    0.000    0.000    4.000    0.000    0.000    0.000 
#    0.000    0.000    0.000    0.000    0.000    0.000 
#
# Total GULP energy -245646.044322 kJ/mol
# GULP energy per Si atom -5582.864644 kJ/mol
# Density = 2.114481 g / cm^3
# Si number density = 21.193045 Si / 1000 Ang^3
#
#
#
# Elastic Constant Matrix: (Units=GPa)
#
#
# Indices 1 2 3 4 5 6 
#
# 1 104.6246 38.8134 24.0145 0.0000 0.0000 0.0000
# 2 38.8134 77.2103 28.1385 0.0000 0.0000 0.0000
# 3 24.0145 28.1385 64.3777 0.0000 0.0000 0.0000
# 4 0.0000 0.0000 0.0000 32.4621 0.0000 0.0000
# 5 0.0000 0.0000 0.0000 0.0000 50.8338 0.0000
# 6 0.0000 0.0000 0.0000 0.0000 0.0000 34.6857
#
#
#
# Elastic Compliance Matrix: (Units=1/GPa)
#
#
# Indices 1 2 3 4 5 6 
#
# 1 0.012003 -0.005236 -0.002189 0.000000 0.000000 0.000000
# 2 -0.005236 0.017690 -0.005779 0.000000 0.000000 0.000000
# 3 -0.002189 -0.005779 0.018876 0.000000 0.000000 0.000000
# 4 0.000000 0.000000 0.000000 0.030805 0.000000 0.000000
# 5 0.000000 0.000000 0.000000 0.000000 0.019672 0.000000
# 6 0.000000 0.000000 0.000000 0.000000 0.000000 0.028830
#
#
# Mechanical properties :
#
#
# Convention : Reuss Voigt Hill
#
# Bulk Modulus (GPa) = 45.12424 47.57173 46.34799
# Shear Modulus (GPa) = 30.92722 33.94607 32.43665
#
# Velocity S-wave (km/s) = 3.82424 4.00654 3.91645
# Velocity P-wave (km/s) = 6.39046 6.62561 6.50909
#
# Compressibility (1/GPa) = 0.02216104
#
# Stress axis : x y z
#
# Youngs Moduli (GPa) = 83.31348 56.52969 52.97856
#
# Poissons Ratio (x) = 0.29600 0.11596
# Poissons Ratio (y) = 0.43624 0.30615
# Poissons Ratio (z) = 0.18235 0.32667
#
# Static dielectric constant tensor:
#      x y z
#    x 1.795810 0.000000 0.000000 
#    y 0.000000 1.738430 0.000000 
#    z 0.000000 0.000000 1.810870 
# 
# From -- ./inp_files/28831.got.cif
#   From: 2010.05.17/outbox.cif.g08.bks.cpg/sg73_15_cif.got.tgz:28831.got - 2010.06.03 17:35:07.
