data_PCOD9533087
_publ_section_title
;
Structure prediction by ZEFSAII (Michael W. Deem and Ramdas Pophale) SiO2 
 PCOD9533087
Probable space group: I B C A 
;
_chemical_formula_sum "Si O2"
_cell_formula_units_Z 104
_cell_length_a 19.620162
_cell_length_b 27.223195
_cell_length_c 9.018824
_cell_angle_alpha 90.000000
_cell_angle_beta 90.000000
_cell_angle_gamma 90.000000
_cell_volume 4817.165805
_symmetry_space_group_name_H-M "I B C A "
_symmetry_group_IT_number 73
_symmetry_cell_setting 'orthorhombic'
loop_
_space_group_symop_operation_xyz
x,y,z
-x,1/2-y,z
x,-y,1/2-z
1/2-x,y,-z
-x,-y,-z
x,1/2+y,-z
-x,y,1/2+z
1/2+x,-y,z
1/2+x,1/2+y,1/2+z
1/2-x,-y,1/2+z
1/2+x,1/2-y,-z
-x,1/2+y,1/2-z
1/2-x,1/2-y,1/2-z
1/2+x,y,1/2-z
1/2-x,1/2+y,z
x,1/2-y,1/2+z
loop_
_atom_site_type_symbol
_atom_site_label
_atom_site_fract_x
_atom_site_fract_y
_atom_site_fract_z
Si Si1 0.807405 0.966368 0.384470
Si Si2 0.936990 0.978057 0.084059
Si Si3 0.842423 0.861075 0.261892
Si Si4 0.383618 0.211048 0.848820
Si Si5 0.250000 0.820746 0.500000
Si Si6 0.901595 0.805634 0.511381
Si Si7 0.958254 0.637770 0.545058
O O1 0.750000 0.951824 0.500000
O O2 0.839522 0.917876 0.309725
O O3 0.780176 0.000000 0.250000
O O4 0.864643 0.999507 0.465696
O O5 0.946007 0.920219 0.058753
O O6 0.941488 0.000000 0.250000
O O7 0.000000 0.000000 0.000000
O O8 0.842117 0.830945 0.414648
O O9 0.914372 0.844587 0.187313
O O10 0.786279 0.850906 0.134514
O O11 0.379298 0.211879 0.673299
O O12 0.309242 0.210168 0.922797
O O13 0.421964 0.257401 0.918904
O O14 0.420789 0.161502 0.903677
O O15 0.964497 0.843359 0.536710
#
# Coordination Sequence:
#
# PCOD9533087 Si02
#       7
#    16  16  16  16   8  16  16
#     4  11  25  45  71 108 147 197 253 316 374 461
#     4  11  24  45  68 102 147 192 245 311 372 448
#     4  11  24  46  70 106 147 195 249 304 375 451
#     4  11  26  44  69 106 139 193 239 305 377 446
#     4  10  26  46  72  98 152 194 238 304 368 462
#     4  12  26  44  74 104 143 188 247 310 376 455
#     4  11  23  45  71 100 145 187 247 303 376 431
#
# _framework density 21.589459000000002
#
# number of rings (size 3 to 8) (size 9 to 14) (size 15 to 20)
#    0.000    0.923    3.077    4.154    5.385    4.308 
#    0.000    0.000    0.000    0.000    0.000    0.000 
#    0.000    0.000    0.000    0.000    0.000    0.000 
#
# Total GULP energy -290404.149736 kJ/mol
# GULP energy per Si atom -5584.695187 kJ/mol
# Density = 2.154032 g / cm^3
# Si number density = 21.589459 Si / 1000 Ang^3
#
#
#
# Elastic Constant Matrix: (Units=GPa)
#
#
# Indices 1 2 3 4 5 6 
#
# 1 101.5720 36.1386 39.1153 0.0000 0.0000 0.0000
# 2 36.1386 150.0637 64.0679 0.0000 0.0000 0.0000
# 3 39.1153 64.0679 142.1200 0.0000 0.0000 0.0000
# 4 0.0000 0.0000 0.0000 35.8809 0.0000 0.0000
# 5 0.0000 0.0000 0.0000 0.0000 23.8866 0.0000
# 6 0.0000 0.0000 0.0000 0.0000 0.0000 20.5856
#
#
#
# Elastic Compliance Matrix: (Units=1/GPa)
#
#
# Indices 1 2 3 4 5 6 
#
# 1 0.011366 -0.001736 -0.002346 0.000000 0.000000 0.000000
# 2 -0.001736 0.008517 -0.003362 0.000000 0.000000 0.000000
# 3 -0.002346 -0.003362 0.009197 0.000000 0.000000 0.000000
# 4 0.000000 0.000000 0.000000 0.027870 0.000000 0.000000
# 5 0.000000 0.000000 0.000000 0.000000 0.041865 0.000000
# 6 0.000000 0.000000 0.000000 0.000000 0.000000 0.048578
#
#
# Mechanical properties :
#
#
# Convention : Reuss Voigt Hill
#
# Bulk Modulus (GPa) = 70.45202 74.71103 72.58152
# Shear Modulus (GPa) = 29.93815 33.03287 31.48551
#
# Velocity S-wave (km/s) = 3.72788 3.91582 3.82301
# Velocity P-wave (km/s) = 7.15772 7.42465 7.29240
#
# Compressibility (1/GPa) = 0.01419406
#
# Stress axis : x y z
#
# Youngs Moduli (GPa) = 87.98052 117.41063 108.72576
#
# Poissons Ratio (x) = 0.20379 0.25505
# Poissons Ratio (y) = 0.15271 0.36552
# Poissons Ratio (z) = 0.20639 0.39471
#
# Static dielectric constant tensor:
#      x y z
#    x 1.902570 0.000000 0.000000 
#    y 0.000000 1.850720 0.000000 
#    z 0.000000 0.000000 1.788090 
# 
# From -- ./inp_files/6542.got.cif
#   From: 2010.05.17/outbox.cif.g08.bks.cpg/sg73_4_cif.got.tgz:6542.got - 2010.06.03 17:35:07.
