data_PCOD9533942
_publ_section_title
;
Structure prediction by ZEFSAII (Michael W. Deem and Ramdas Pophale) SiO2 
 PCOD9533942
Probable space group: I M M A
;
_chemical_formula_sum "Si O2"
_cell_formula_units_Z 80
_cell_length_a 8.452000
_cell_length_b 14.349293
_cell_length_c 28.839987
_cell_angle_alpha 90.000000
_cell_angle_beta 90.000000
_cell_angle_gamma 90.000000
_cell_volume 3497.720096
_symmetry_space_group_name_H-M "I M M A"
_symmetry_group_IT_number 74
_symmetry_cell_setting 'orthorhombic'
loop_
_space_group_symop_operation_xyz
x,y,z
-x,1/2-y,z
x,-y,-z
-x,1/2+y,-z
-x,-y,-z
x,1/2+y,-z
-x,y,z
x,1/2-y,z
1/2+x,1/2+y,1/2+z
1/2-x,-y,1/2+z
1/2+x,1/2-y,1/2-z
1/2-x,y,1/2-z
1/2-x,1/2-y,1/2-z
1/2+x,y,1/2-z
1/2-x,1/2+y,1/2+z
1/2+x,-y,1/2+z
loop_
_atom_site_type_symbol
_atom_site_label
_atom_site_fract_x
_atom_site_fract_y
_atom_site_fract_z
Si Si1 0.319660 0.113665 0.496546
Si Si2 0.683620 0.851235 0.315303
Si Si3 0.677045 0.881144 0.090820
Si Si4 0.687223 0.558454 0.799656
Si Si5 0.311410 0.918504 0.603235
O O1 0.500000 0.140680 0.506715
O O2 0.211101 0.146818 0.538290
O O3 0.283643 0.140695 0.443462
O O4 0.315908 0.000000 0.500000
O O5 0.500000 0.860419 0.301857
O O6 0.745308 0.750000 0.299232
O O7 0.699888 0.847516 0.371007
O O8 0.771299 0.946923 0.302040
O O9 0.500000 0.856240 0.104983
O O10 0.701374 0.992060 0.094281
O O11 0.500000 0.569420 0.802811
O O12 0.750000 0.592008 0.750000
O O13 0.768939 0.607781 0.844140
O O14 0.500000 0.942075 0.601970
#
# Coordination Sequence:
#
# PCOD9533942 Si02
#       5
#    16  16  16  16  16
#     4   8  14  24  38  55  76  99 119 144 180 224
#     4  10  20  33  46  57  72  97 130 167 204 239
#     4  10  17  24  38  58  78  97 119 151 188 229
#     4  11  21  32  45  58  75  98 127 165 203 239
#     4   9  16  27  41  56  75  97 122 152 187 227
#
# _framework density 22.872042
#
# number of rings (size 3 to 8) (size 9 to 14) (size 15 to 20)
#    0.000    2.400    0.000    8.400    0.000    6.400 
#    0.000    0.000    0.000    0.000    0.000    0.000 
#    0.000    0.000    0.000    0.000    0.000    1.000 
#
# Total GULP energy -223031.162069 kJ/mol
# GULP energy per Si atom -5575.779052 kJ/mol
# Density = 2.281998 g / cm^3
# Si number density = 22.872042 Si / 1000 Ang^3
#
#
#
# Elastic Constant Matrix: (Units=GPa)
#
#
# Indices 1 2 3 4 5 6 
#
# 1 79.4167 -2.0781 28.8151 0.0000 0.0000 0.0000
# 2 -2.0781 36.0823 -6.5306 0.0000 0.0000 0.0000
# 3 28.8151 -6.5306 200.7943 0.0000 0.0000 0.0000
# 4 0.0000 0.0000 0.0000 -22.9800 0.0000 0.0000
# 5 0.0000 0.0000 0.0000 0.0000 34.9740 0.0000
# 6 0.0000 0.0000 0.0000 0.0000 0.0000 -17.6693
#
#
#
# Elastic Compliance Matrix: (Units=1/GPa)
#
#
# Indices 1 2 3 4 5 6 
#
# 1 0.013290 0.000423 -0.001893 0.000000 0.000000 0.000000
# 2 0.000423 0.027892 0.000847 0.000000 0.000000 0.000000
# 3 -0.001893 0.000847 0.005279 0.000000 0.000000 0.000000
# 4 0.000000 0.000000 0.000000 -0.043516 0.000000 0.000000
# 5 0.000000 0.000000 0.000000 0.000000 0.028593 0.000000
# 6 0.000000 0.000000 0.000000 0.000000 0.000000 -0.056595
#
#
# Mechanical properties :
#
#
# Convention : Reuss Voigt Hill
#
# Bulk Modulus (GPa) = 22.11758 39.63399 30.87578
# Shear Modulus (GPa) = -572.19982 18.60408 -276.79787
#
# Velocity S-wave (km/s) = -15.83406 2.85511 -11.01285
# Velocity P-wave (km/s) = 18.01663 5.31367 12.17300
#
# Compressibility (1/GPa) = 0.04521291
#
# Stress axis : x y z
#
# Youngs Moduli (GPa) = 75.24527 35.85256 189.41295
#
# Poissons Ratio (x) = -0.01515 0.35864
# Poissons Ratio (y) = -0.03181 -0.16034
# Poissons Ratio (z) = 0.14247 -0.03035
#
# Static dielectric constant tensor:
#      x y z
#    x 1.763130 0.000000 0.000000 
#    y 0.000000 1.977350 0.000000 
#    z 0.000000 0.000000 1.926250 
# 
# From -- ./inp_files/49404.got.cif
#   From: 2010.05.17/outbox.cif.g08.bks.cpg/sg74_25_cif.got.tgz:49404.got - 2010.06.03 17:57:02.
