data_PCOD9533327
_publ_section_title
;
Structure prediction by ZEFSAII (Michael W. Deem and Ramdas Pophale) SiO2 
 PCOD9533327
Probable space group: I B C A 
;
_chemical_formula_sum "Si O2"
_cell_formula_units_Z 80
_cell_length_a 18.671799
_cell_length_b 14.050039
_cell_length_c 14.890447
_cell_angle_alpha 90.000000
_cell_angle_beta 90.000000
_cell_angle_gamma 90.000000
_cell_volume 3906.352483
_symmetry_space_group_name_H-M "I B C A "
_symmetry_group_IT_number 73
_symmetry_cell_setting 'orthorhombic'
loop_
_space_group_symop_operation_xyz
x,y,z
-x,1/2-y,z
x,-y,1/2-z
1/2-x,y,-z
-x,-y,-z
x,1/2+y,-z
-x,y,1/2+z
1/2+x,-y,z
1/2+x,1/2+y,1/2+z
1/2-x,-y,1/2+z
1/2+x,1/2-y,-z
-x,1/2+y,1/2-z
1/2-x,1/2-y,1/2-z
1/2+x,y,1/2-z
1/2-x,1/2+y,z
x,1/2-y,1/2+z
loop_
_atom_site_type_symbol
_atom_site_label
_atom_site_fract_x
_atom_site_fract_y
_atom_site_fract_z
Si Si1 0.620278 0.500000 0.250000
Si Si2 0.149725 0.313120 0.822537
Si Si3 0.057593 0.553253 0.061310
Si Si4 0.688188 0.484883 0.555346
Si Si5 0.265406 0.138913 0.177052
Si Si6 0.000000 0.250000 0.865145
O O1 0.572825 0.492873 0.159844
O O2 0.674972 0.410635 0.241582
O O3 0.150865 0.408823 0.880389
O O4 0.192476 0.225702 0.868806
O O5 0.197237 0.327816 0.734331
O O6 0.067831 0.284720 0.807951
O O7 0.030074 0.660776 0.077698
O O8 0.131311 0.538514 0.006997
O O9 0.000000 0.500000 0.000000
O O10 0.750000 0.431086 0.500000
O O11 0.733402 0.560781 0.611635
#
# Coordination Sequence:
#
# PCOD9533327 Si02
#       6
#     8  16  16  16  16   8
#     4  12  22  48  72  96 146 180 236 300 352 414
#     4  11  23  41  69 101 140 182 238 288 352 419
#     4  12  27  46  71 104 144 189 231 294 362 427
#     4  12  22  43  72 101 139 186 236 293 350 420
#     4  11  23  43  71 106 135 185 239 295 349 417
#     4  12  24  46  66 102 148 178 234 296 348 434
#
# _framework density 20.479462999999999
#
# number of rings (size 3 to 8) (size 9 to 14) (size 15 to 20)
#    0.000    0.400    8.000    0.000    0.000    4.000 
#    7.200    1.000    0.000    0.000    0.000    0.000 
#    0.000    0.000    0.000    0.000    0.000    0.000 
#
# Total GULP energy -223275.720278 kJ/mol
# GULP energy per Si atom -5581.893007 kJ/mol
# Density = 2.043285 g / cm^3
# Si number density = 20.479463 Si / 1000 Ang^3
#
#
#
# Elastic Constant Matrix: (Units=GPa)
#
#
# Indices 1 2 3 4 5 6 
#
# 1 173.7447 50.5183 67.4615 0.0000 0.0000 0.0000
# 2 50.5183 98.3904 43.0625 0.0000 0.0000 0.0000
# 3 67.4615 43.0625 84.0328 0.0000 0.0000 0.0000
# 4 0.0000 0.0000 0.0000 10.2611 0.0000 0.0000
# 5 0.0000 0.0000 0.0000 0.0000 44.9328 0.0000
# 6 0.0000 0.0000 0.0000 0.0000 0.0000 44.7471
#
#
#
# Elastic Compliance Matrix: (Units=1/GPa)
#
#
# Indices 1 2 3 4 5 6 
#
# 1 0.008602 -0.001797 -0.005984 0.000000 0.000000 0.000000
# 2 -0.001797 0.013478 -0.005464 0.000000 0.000000 0.000000
# 3 -0.005984 -0.005464 0.019504 0.000000 0.000000 0.000000
# 4 0.000000 0.000000 0.000000 0.097455 0.000000 0.000000
# 5 0.000000 0.000000 0.000000 0.000000 0.022255 0.000000
# 6 0.000000 0.000000 0.000000 0.000000 0.000000 0.022348
#
#
# Mechanical properties :
#
#
# Convention : Reuss Voigt Hill
#
# Bulk Modulus (GPa) = 66.25696 75.36139 70.80918
# Shear Modulus (GPa) = 23.23803 32.99659 28.11731
#
# Velocity S-wave (km/s) = 3.37218 4.01833 3.70936
# Velocity P-wave (km/s) = 6.89821 7.64250 7.27987
#
# Compressibility (1/GPa) = 0.01509275
#
# Stress axis : x y z
#
# Youngs Moduli (GPa) = 116.25441 74.19637 51.27065
#
# Poissons Ratio (x) = 0.13336 0.30683
# Poissons Ratio (y) = 0.20895 0.28013
# Poissons Ratio (z) = 0.69572 0.40539
#
# Static dielectric constant tensor:
#      x y z
#    x 1.737040 0.000000 0.000000 
#    y 0.000000 1.795550 0.000000 
#    z 0.000000 0.000000 1.663160 
# 
# From -- ./inp_files/22414.got.cif
#   From: 2010.05.17/outbox.cif.g08.bks.cpg/sg73_12_cif.got.tgz:22414.got - 2010.06.03 17:35:07.
