data_PCOD9533949
_publ_section_title
;
Structure prediction by ZEFSAII (Michael W. Deem and Ramdas Pophale) SiO2 
 PCOD9533949
Probable space group: I M M A
;
_chemical_formula_sum "Si O2"
_cell_formula_units_Z 80
_cell_length_a 8.739112
_cell_length_b 30.101813
_cell_length_c 23.498365
_cell_angle_alpha 90.000000
_cell_angle_beta 90.000000
_cell_angle_gamma 90.000000
_cell_volume 6181.553099
_symmetry_space_group_name_H-M "I M M A"
_symmetry_group_IT_number 74
_symmetry_cell_setting 'orthorhombic'
loop_
_space_group_symop_operation_xyz
x,y,z
-x,1/2-y,z
x,-y,-z
-x,1/2+y,-z
-x,-y,-z
x,1/2+y,-z
-x,y,z
x,1/2-y,z
1/2+x,1/2+y,1/2+z
1/2-x,-y,1/2+z
1/2+x,1/2-y,1/2-z
1/2-x,y,1/2-z
1/2-x,1/2-y,1/2-z
1/2+x,y,1/2-z
1/2-x,1/2+y,1/2+z
1/2+x,-y,1/2+z
loop_
_atom_site_type_symbol
_atom_site_label
_atom_site_fract_x
_atom_site_fract_y
_atom_site_fract_z
Si Si1 0.317302 0.698886 0.811544
Si Si2 0.316692 0.878936 0.616616
Si Si3 0.183906 0.031642 0.186799
Si Si4 0.183875 0.434354 0.012244
Si Si5 0.682966 0.516971 0.085122
O O1 0.500000 0.697497 0.808089
O O2 0.269632 0.750000 0.822586
O O3 0.250000 0.685841 0.750000
O O4 0.260216 0.664746 0.858742
O O5 0.500000 0.874303 0.620059
O O6 0.274974 0.921392 0.656295
O O7 0.278173 0.891946 0.551454
O O8 0.250000 0.030888 0.250000
O O9 0.253469 0.992347 0.147960
O O10 0.000000 0.028475 0.186947
O O11 0.255030 0.440554 0.949842
O O12 0.000000 0.438469 0.009242
O O13 0.249750 0.475249 0.049434
O O14 0.500000 0.516151 0.084190
#
# Coordination Sequence:
#
# PCOD9533949 Si02
#       5
#    16  16  16  16  16
#     4  10  20  31  42  55  72  95 122 154 192 231
#     4   9  18  29  42  57  72  93 121 155 192 226
#     4  10  19  29  39  54  75  98 125 156 189 222
#     4   9  16  27  40  54  72  93 118 150 186 219
#     4  10  17  25  38  55  73  95 121 148 182 220
#
# _framework density 12.941731000000001
#
# number of rings (size 3 to 8) (size 9 to 14) (size 15 to 20)
#    0.000    2.400    0.000    6.600    0.000    7.600 
#    0.000    0.000    0.000    0.000    0.000    0.000 
#    0.000    0.000    0.000    0.000    0.000    1.000 
#
# Total GULP energy -222794.008309 kJ/mol
# GULP energy per Si atom -5569.850208 kJ/mol
# Density = 1.291228 g / cm^3
# Si number density = 12.941731 Si / 1000 Ang^3
#
#
#
# Elastic Constant Matrix: (Units=GPa)
#
#
# Indices 1 2 3 4 5 6 
#
# 1 48.4177 22.0104 27.7039 0.0000 0.0000 0.0000
# 2 22.0104 49.9880 34.5622 0.0000 0.0000 0.0000
# 3 27.7039 34.5622 66.4299 0.0000 0.0000 0.0000
# 4 0.0000 0.0000 0.0000 21.5580 0.0000 0.0000
# 5 0.0000 0.0000 0.0000 0.0000 23.1475 0.0000
# 6 0.0000 0.0000 0.0000 0.0000 0.0000 18.0849
#
#
#
# Elastic Compliance Matrix: (Units=1/GPa)
#
#
# Indices 1 2 3 4 5 6 
#
# 1 0.028522 -0.006770 -0.008373 0.000000 0.000000 0.000000
# 2 -0.006770 0.032851 -0.014269 0.000000 0.000000 0.000000
# 3 -0.008373 -0.014269 0.025969 0.000000 0.000000 0.000000
# 4 0.000000 0.000000 0.000000 0.046387 0.000000 0.000000
# 5 0.000000 0.000000 0.000000 0.000000 0.043201 0.000000
# 6 0.000000 0.000000 0.000000 0.000000 0.000000 0.055295
#
#
# Mechanical properties :
#
#
# Convention : Reuss Voigt Hill
#
# Bulk Modulus (GPa) = 35.06306 37.04315 36.05311
# Shear Modulus (GPa) = 16.63605 17.92868 17.28236
#
# Velocity S-wave (km/s) = 3.58922 3.72605 3.65827
# Velocity P-wave (km/s) = 6.65796 6.86997 6.76480
#
# Compressibility (1/GPa) = 0.02852005
#
# Stress axis : x y z
#
# Youngs Moduli (GPa) = 35.06102 30.44050 38.50779
#
# Poissons Ratio (x) = 0.20607 0.32241
# Poissons Ratio (y) = 0.23735 0.54945
# Poissons Ratio (z) = 0.29355 0.43434
#
# Static dielectric constant tensor:
#      x y z
#    x 1.429370 0.000000 0.000000 
#    y 0.000000 1.419740 0.000000 
#    z 0.000000 0.000000 1.449740 
# 
# From -- ./inp_files/49405.got.cif
#   From: 2010.05.17/outbox.cif.g08.bks.cpg/sg74_25_cif.got.tgz:49405.got - 2010.06.03 17:57:02.
