data_PCOD9533617
_publ_section_title
;
Structure prediction by ZEFSAII (Michael W. Deem and Ramdas Pophale) SiO2 
 PCOD9533617
Probable space group: I B C A 
;
_chemical_formula_sum "Si O2"
_cell_formula_units_Z 64
_cell_length_a 11.376808
_cell_length_b 9.522620
_cell_length_c 21.392710
_cell_angle_alpha 90.000000
_cell_angle_beta 90.000000
_cell_angle_gamma 90.000000
_cell_volume 2317.622438
_symmetry_space_group_name_H-M "I B C A "
_symmetry_group_IT_number 73
_symmetry_cell_setting 'orthorhombic'
loop_
_space_group_symop_operation_xyz
x,y,z
-x,1/2-y,z
x,-y,1/2-z
1/2-x,y,-z
-x,-y,-z
x,1/2+y,-z
-x,y,1/2+z
1/2+x,-y,z
1/2+x,1/2+y,1/2+z
1/2-x,-y,1/2+z
1/2+x,1/2-y,-z
-x,1/2+y,1/2-z
1/2-x,1/2-y,1/2-z
1/2+x,y,1/2-z
1/2-x,1/2+y,z
x,1/2-y,1/2+z
loop_
_atom_site_type_symbol
_atom_site_label
_atom_site_fract_x
_atom_site_fract_y
_atom_site_fract_z
Si Si1 0.000000 0.750000 0.825948
Si Si2 0.666924 0.103301 0.055228
Si Si3 0.074920 0.126437 0.954752
Si Si4 0.745486 0.131502 0.361320
Si Si5 0.384879 0.500000 0.750000
O O1 0.878798 0.793619 0.859868
O O2 0.964257 0.612963 0.785914
O O3 0.747286 0.018038 0.104375
O O4 0.530721 0.080618 0.089174
O O5 0.750000 0.179001 0.000000
O O6 0.625126 0.979562 0.002946
O O7 0.165593 0.215873 0.909600
O O8 0.000000 0.250000 0.989591
O O9 0.802924 0.096819 0.295105
#
# Coordination Sequence:
#
# PCOD9533617 Si02
#       5
#     8  16  16  16   8
#     4  12  28  44  76 110 146 202 252 316 388 464
#     4   9  21  42  68 101 139 189 239 303 370 442
#     4   8  22  41  66  97 141 182 231 303 367 444
#     4  12  23  45  72 103 144 192 250 311 377 447
#     4  12  28  46  74 106 154 194 260 318 388 456
#
# _framework density 27.614505999999999
#
# number of rings (size 3 to 8) (size 9 to 14) (size 15 to 20)
#    1.500    0.000    0.000    4.500    1.750    2.000 
#    0.000   10.000    0.000    0.000    0.000    0.000 
#    0.000    0.000    0.000    0.000    0.000    0.000 
#
# Total GULP energy -178175.076392 kJ/mol
# GULP energy per Si atom -5567.971137 kJ/mol
# Density = 2.755165 g / cm^3
# Si number density = 27.614506 Si / 1000 Ang^3
#
#
#
# Elastic Constant Matrix: (Units=GPa)
#
#
# Indices 1 2 3 4 5 6 
#
# 1 207.7740 49.8012 98.3789 0.0000 0.0000 0.0000
# 2 49.8012 159.5093 49.7366 0.0000 0.0000 0.0000
# 3 98.3789 49.7366 122.0183 0.0000 0.0000 0.0000
# 4 0.0000 0.0000 0.0000 61.5928 0.0000 0.0000
# 5 0.0000 0.0000 0.0000 0.0000 61.7178 0.0000
# 6 0.0000 0.0000 0.0000 0.0000 0.0000 55.8731
#
#
#
# Elastic Compliance Matrix: (Units=1/GPa)
#
#
# Indices 1 2 3 4 5 6 
#
# 1 0.007826 -0.000545 -0.006088 0.000000 0.000000 0.000000
# 2 -0.000545 0.007220 -0.002503 0.000000 0.000000 0.000000
# 3 -0.006088 -0.002503 0.014124 0.000000 0.000000 0.000000
# 4 0.000000 0.000000 0.000000 0.016236 0.000000 0.000000
# 5 0.000000 0.000000 0.000000 0.000000 0.016203 0.000000
# 6 0.000000 0.000000 0.000000 0.000000 0.000000 0.017898
#
#
# Mechanical properties :
#
#
# Convention : Reuss Voigt Hill
#
# Bulk Modulus (GPa) = 91.76217 98.34832 95.05524
# Shear Modulus (GPa) = 49.30415 55.26240 52.28327
#
# Velocity S-wave (km/s) = 4.23004 4.47834 4.35596
# Velocity P-wave (km/s) = 7.56039 7.90144 7.73279
#
# Compressibility (1/GPa) = 0.01089774
#
# Stress axis : x y z
#
# Youngs Moduli (GPa) = 127.77893 138.50329 70.80088
#
# Poissons Ratio (x) = 0.07552 0.43101
# Poissons Ratio (y) = 0.06967 0.17724
# Poissons Ratio (z) = 0.77787 0.34673
#
# Static dielectric constant tensor:
#      x y z
#    x 2.627450 0.000000 0.000000 
#    y 0.000000 2.554370 0.000000 
#    z 0.000000 0.000000 2.181380 
# 
# From -- ./inp_files/9470.got.cif
#   From: 2010.05.17/outbox.cif.g08.bks.cpg/sg73_5_cif.got.tgz:9470.got - 2010.06.03 17:35:07.
