data_PCOD9533749
_publ_section_title
;
Structure prediction by ZEFSAII (Michael W. Deem and Ramdas Pophale) SiO2 
 PCOD9533749
Probable space group: I B C A 
;
_chemical_formula_sum "Si O2"
_cell_formula_units_Z 60
_cell_length_a 24.000000
_cell_length_b 30.000000
_cell_length_c 9.000000
_cell_angle_alpha 90.000000
_cell_angle_beta 90.000000
_cell_angle_gamma 90.000000
_cell_volume 6480.000000
_symmetry_space_group_name_H-M "I B C A "
_symmetry_group_IT_number 73
_symmetry_cell_setting 'orthorhombic'
loop_
_space_group_symop_operation_xyz
x,y,z
-x,1/2-y,z
x,-y,1/2-z
1/2-x,y,-z
-x,-y,-z
x,1/2+y,-z
-x,y,1/2+z
1/2+x,-y,z
1/2+x,1/2+y,1/2+z
1/2-x,-y,1/2+z
1/2+x,1/2-y,-z
-x,1/2+y,1/2-z
1/2-x,1/2-y,1/2-z
1/2+x,y,1/2-z
1/2-x,1/2+y,z
x,1/2-y,1/2+z
loop_
_atom_site_type_symbol
_atom_site_label
_atom_site_fract_x
_atom_site_fract_y
_atom_site_fract_z
Si Si1 0.674497 0.958246 0.152003
Si Si2 0.250000 0.245964 0.500000
Si Si3 0.651836 0.547251 0.310986
Si Si4 0.079702 0.636757 0.227786
Si Si5 0.515800 0.610653 0.986437
Si Si6 0.953960 0.951163 0.779602
Si Si7 0.253218 0.398356 0.824097
Si Si8 0.191355 0.808000 0.740543
O O1 0.608329 0.958831 0.167231
O O2 0.699369 0.915787 0.237004
O O3 0.695947 0.000000 0.250000
O O4 0.680974 0.958084 0.973426
O O5 0.209093 0.216928 0.606189
O O6 0.212294 0.276464 0.392037
O O7 0.629801 0.500000 0.250000
O O8 0.607284 0.587829 0.306973
O O9 0.699827 0.564202 0.200904
O O10 0.055222 0.635999 0.395939
O O11 0.127890 0.674313 0.221553
O O12 0.029333 0.639614 0.107523
O O13 0.484975 0.575559 0.092769
O O14 0.546795 0.580358 0.864724
O O15 0.979418 0.000000 0.750000
O O16 0.273485 0.353572 0.744992
O O17 0.250000 0.390802 0.000000
#
# Coordination Sequence:
#
# PCOD9533749 Si02
#       8
#    16   8  16  16  16  16  16  16
#     4  11  23  36  53  82 120 165 214 254 299 348
#     4  10  22  44  70 102 128 144 180 232 302 386
#     4  11  23  37  55  81 122 168 212 259 299 350
#     4  10  23  39  62  86 121 161 210 248 305 342
#     4  10  21  38  54  81 112 156 206 260 291 345
#     4  10  21  32  51  73 111 156 212 254 299 325
#     4  11  23  38  59  86 121 159 201 241 304 369
#     4  10  23  41  68  96 124 154 187 236 304 376
#
# _framework density 9.2592590000000001
#
# number of rings (size 3 to 8) (size 9 to 14) (size 15 to 20)
#    0.000    1.600    2.000    2.000   11.200    2.133 
#    0.000    4.000    0.000    2.400    0.000    0.000 
#    0.000    0.000    0.000    0.000    0.000    0.000 
#
# Total GULP energy -334677.261076 kJ/mol
# GULP energy per Si atom -5577.954351 kJ/mol
# Density = 0.923818 g / cm^3
# Si number density = 9.259259 Si / 1000 Ang^3
#
#
#
# Elastic Constant Matrix: (Units=GPa)
#
#
# Indices 1 2 3 4 5 6 
#
# 1 30.9294 30.1548 1.7694 0.0000 0.0000 0.0000
# 2 30.1548 81.4933 25.6493 0.0000 0.0000 0.0000
# 3 1.7694 25.6493 90.0888 0.0000 0.0000 0.0000
# 4 0.0000 0.0000 0.0000 20.7183 0.0000 0.0000
# 5 0.0000 0.0000 0.0000 0.0000 22.8699 0.0000
# 6 0.0000 0.0000 0.0000 0.0000 0.0000 19.5723
#
#
#
# Elastic Compliance Matrix: (Units=1/GPa)
#
#
# Indices 1 2 3 4 5 6 
#
# 1 0.052509 -0.020986 0.004944 0.000000 0.000000 0.000000
# 2 -0.020986 0.021866 -0.005813 0.000000 0.000000 0.000000
# 3 0.004944 -0.005813 0.012658 0.000000 0.000000 0.000000
# 4 0.000000 0.000000 0.000000 0.048267 0.000000 0.000000
# 5 0.000000 0.000000 0.000000 0.000000 0.043726 0.000000
# 6 0.000000 0.000000 0.000000 0.000000 0.000000 0.051093
#
#
# Mechanical properties :
#
#
# Convention : Reuss Voigt Hill
#
# Bulk Modulus (GPa) = 23.08284 35.29541 29.18912
# Shear Modulus (GPa) = 17.34485 22.29462 19.81973
#
# Velocity S-wave (km/s) = 3.06375 3.47350 3.27504
# Velocity P-wave (km/s) = 5.00072 5.93194 5.48612
#
# Compressibility (1/GPa) = 0.04332223
#
# Stress axis : x y z
#
# Youngs Moduli (GPa) = 19.04430 45.73315 79.00027
#
# Poissons Ratio (x) = 0.95975 -0.39055
# Poissons Ratio (y) = 0.39966 0.45925
# Poissons Ratio (z) = -0.09415 0.26586
#
# Static dielectric constant tensor:
#      x y z
#    x 1.683720 0.000000 0.000000 
#    y 0.000000 1.631310 0.000000 
#    z 0.000000 0.000000 1.659540 
# 
# From -- ./inp_files/7465.got.cif
#   From: 2010.05.17/outbox.ucp.g08.bks.cvg/sg73_4_cif.got.tgz:7465.got - 2010.06.11 16:36:03.
