data_PCOD9533283
_publ_section_title
;
Structure prediction by ZEFSAII (Michael W. Deem and Ramdas Pophale) SiO2 
 PCOD9533283
Probable space group: I B C A 
;
_chemical_formula_sum "Si O2"
_cell_formula_units_Z 120
_cell_length_a 24.888987
_cell_length_b 18.065394
_cell_length_c 12.948625
_cell_angle_alpha 90.000000
_cell_angle_beta 90.000000
_cell_angle_gamma 90.000000
_cell_volume 5822.081925
_symmetry_space_group_name_H-M "I B C A "
_symmetry_group_IT_number 73
_symmetry_cell_setting 'orthorhombic'
loop_
_space_group_symop_operation_xyz
x,y,z
-x,1/2-y,z
x,-y,1/2-z
1/2-x,y,-z
-x,-y,-z
x,1/2+y,-z
-x,y,1/2+z
1/2+x,-y,z
1/2+x,1/2+y,1/2+z
1/2-x,-y,1/2+z
1/2+x,1/2-y,-z
-x,1/2+y,1/2-z
1/2-x,1/2-y,1/2-z
1/2+x,y,1/2-z
1/2-x,1/2+y,z
x,1/2-y,1/2+z
loop_
_atom_site_type_symbol
_atom_site_label
_atom_site_fract_x
_atom_site_fract_y
_atom_site_fract_z
Si Si1 0.802951 0.600043 0.435618
Si Si2 0.982202 0.926981 0.936284
Si Si3 0.156258 0.057531 0.430023
Si Si4 0.724926 0.859694 0.286958
Si Si5 0.104726 0.679776 0.030900
Si Si6 0.580768 0.000000 0.250000
Si Si7 0.660106 0.708384 0.255589
Si Si8 0.587901 0.168960 0.935062
O O1 0.750000 0.616894 0.500000
O O2 0.830143 0.523793 0.471118
O O3 0.787396 0.594172 0.316344
O O4 0.846114 0.664229 0.452303
O O5 0.954773 0.950971 0.828227
O O6 0.032674 0.873905 0.915745
O O7 0.939840 0.881125 0.005117
O O8 0.000000 0.000000 0.000000
O O9 0.210246 0.094595 0.387678
O O10 0.117768 0.046733 0.329296
O O11 0.127173 0.109740 0.511059
O O12 0.684491 0.789191 0.282901
O O13 0.786329 0.834520 0.280731
O O14 0.132573 0.675643 0.142063
O O15 0.081345 0.761217 0.011249
O O16 0.615559 0.701226 0.167278
#
# Coordination Sequence:
#
# PCOD9533283 Si02
#       8
#    16  16  16  16  16   8  16  16
#     4  12  23  41  68 102 142 189 228 287 345 428
#     4  12  27  49  71 105 136 183 236 293 355 409
#     4  12  24  45  70 100 142 186 240 278 351 429
#     4  11  22  44  68 104 140 187 230 283 358 424
#     4  12  24  48  70  99 141 181 235 286 355 420
#     4  12  24  46  78  92 140 190 230 290 348 420
#     4  11  26  41  72 105 144 179 228 296 356 418
#     4  12  27  46  69 104 136 182 239 291 347 420
#
# _framework density 20.611183
#
# number of rings (size 3 to 8) (size 9 to 14) (size 15 to 20)
#    0.000    0.267    8.000    0.400    3.733    0.000 
#    0.000    1.333    0.000    0.000    0.000    0.000 
#    0.000    0.000    0.000    0.000    0.000    0.000 
#
# Total GULP energy -335531.556086 kJ/mol
# GULP energy per Si atom -5592.192601 kJ/mol
# Density = 2.056427 g / cm^3
# Si number density = 20.611183 Si / 1000 Ang^3
#
#
#
# Elastic Constant Matrix: (Units=GPa)
#
#
# Indices 1 2 3 4 5 6 
#
# 1 111.2839 47.8734 34.4924 0.0000 0.0000 0.0000
# 2 47.8734 91.6224 -2.6724 0.0000 0.0000 0.0000
# 3 34.4924 -2.6724 47.8401 0.0000 0.0000 0.0000
# 4 0.0000 0.0000 0.0000 23.8413 0.0000 0.0000
# 5 0.0000 0.0000 0.0000 0.0000 29.6143 0.0000
# 6 0.0000 0.0000 0.0000 0.0000 0.0000 39.1255
#
#
#
# Elastic Compliance Matrix: (Units=1/GPa)
#
#
# Indices 1 2 3 4 5 6 
#
# 1 0.016863 -0.009180 -0.012671 0.000000 0.000000 0.000000
# 2 -0.009180 0.015930 0.007509 0.000000 0.000000 0.000000
# 3 -0.012671 0.007509 0.030458 0.000000 0.000000 0.000000
# 4 0.000000 0.000000 0.000000 0.041944 0.000000 0.000000
# 5 0.000000 0.000000 0.000000 0.000000 0.033767 0.000000
# 6 0.000000 0.000000 0.000000 0.000000 0.000000 0.025559
#
#
# Mechanical properties :
#
#
# Convention : Reuss Voigt Hill
#
# Bulk Modulus (GPa) = 28.92987 45.57039 37.25013
# Shear Modulus (GPa) = 24.42269 29.91974 27.17121
#
# Velocity S-wave (km/s) = 3.44601 3.81416 3.63475
# Velocity P-wave (km/s) = 5.46807 6.44628 5.97722
#
# Compressibility (1/GPa) = 0.03456635
#
# Stress axis : x y z
#
# Youngs Moduli (GPa) = 59.30265 62.77374 32.83218
#
# Poissons Ratio (x) = 0.57629 0.41601
# Poissons Ratio (y) = 0.54442 -0.24653
# Poissons Ratio (z) = 0.75141 -0.47136
#
# Static dielectric constant tensor:
#      x y z
#    x 1.724880 0.000000 0.000000 
#    y 0.000000 1.737770 0.000000 
#    z 0.000000 0.000000 1.712510 
# 
# From -- ./inp_files/19515.got.cif
#   From: 2010.05.17/outbox.cif.g08.bks.cpg/sg73_10_cif.got.tgz:19515.got - 2010.06.03 17:35:07.
