data_PCOD9533870
_publ_section_title
;
Structure prediction by ZEFSAII (Michael W. Deem and Ramdas Pophale) SiO2 
 PCOD9533870
Probable space group: I M M A
;
_chemical_formula_sum "Si O2"
_cell_formula_units_Z 128
_cell_length_a 19.249601
_cell_length_b 22.899612
_cell_length_c 19.732156
_cell_angle_alpha 90.000000
_cell_angle_beta 90.000000
_cell_angle_gamma 90.000000
_cell_volume 8698.099998
_symmetry_space_group_name_H-M "I M M A"
_symmetry_group_IT_number 74
_symmetry_cell_setting 'orthorhombic'
loop_
_space_group_symop_operation_xyz
x,y,z
-x,1/2-y,z
x,-y,-z
-x,1/2+y,-z
-x,-y,-z
x,1/2+y,-z
-x,y,z
x,1/2-y,z
1/2+x,1/2+y,1/2+z
1/2-x,-y,1/2+z
1/2+x,1/2-y,1/2-z
1/2-x,y,1/2-z
1/2-x,1/2-y,1/2-z
1/2+x,y,1/2-z
1/2-x,1/2+y,1/2+z
1/2+x,-y,1/2+z
loop_
_atom_site_type_symbol
_atom_site_label
_atom_site_fract_x
_atom_site_fract_y
_atom_site_fract_z
Si Si1 0.681808 0.086861 0.047429
Si Si2 0.081311 0.385373 0.337058
Si Si3 0.079255 0.067871 0.975872
Si Si4 0.581864 0.519386 0.213853
Si Si5 0.832176 0.102918 0.099630
Si Si6 0.671061 0.819355 0.728799
Si Si7 0.681603 0.952783 0.100591
Si Si8 0.167151 0.468076 0.850538
O O1 0.618875 0.113784 0.090071
O O2 0.754581 0.113408 0.072052
O O3 0.683568 0.018963 0.071141
O O4 0.677881 0.087096 0.966209
O O5 0.089158 0.450146 0.303505
O O6 0.120413 0.340956 0.287874
O O7 0.000000 0.373241 0.342824
O O8 0.124359 0.066693 0.907831
O O9 0.000000 0.085775 0.964377
O O10 0.115483 0.103187 0.036391
O O11 0.078794 0.000000 0.000000
O O12 0.500000 0.531083 0.223841
O O13 0.615612 0.551708 0.149444
O O14 0.628046 0.535094 0.279118
O O15 0.847882 0.147237 0.159816
O O16 0.833700 0.036879 0.129291
O O17 0.668244 0.750000 0.720154
O O18 0.750000 0.835985 0.750000
O O19 0.753041 0.947342 0.143221
#
# Coordination Sequence:
#
# PCOD9533870 Si02
#       8
#    16  16  16  16  16  16  16  16
#     4   9  16  29  44  60  81 108 147 188 221 266
#     4  10  20  32  46  62  82 116 153 189 231 269
#     4   9  17  26  40  65  88 109 141 179 219 265
#     4  10  19  27  39  62  91 120 149 182 220 262
#     4  10  17  29  47  60  82 113 148 187 226 270
#     4  11  22  34  49  66  85 114 154 200 241 269
#     4   9  17  26  42  62  82 112 149 181 219 263
#     4  10  16  26  44  63  86 118 147 181 217 267
#
# _framework density 14.715858000000001
#
# number of rings (size 3 to 8) (size 9 to 14) (size 15 to 20)
#    0.000    2.250    3.750    0.750    0.000    1.750 
#    0.000    2.500    0.000    0.000    0.000    0.000 
#    0.000    0.000    0.000    3.375    0.000    6.125 
#
# Total GULP energy -356548.590477 kJ/mol
# GULP energy per Si atom -5571.071726 kJ/mol
# Density = 1.468236 g / cm^3
# Si number density = 14.715858 Si / 1000 Ang^3
#
#
#
# Elastic Constant Matrix: (Units=GPa)
#
#
# Indices 1 2 3 4 5 6 
#
# 1 100.8361 20.5308 48.6763 0.0000 0.0000 0.0000
# 2 20.5308 21.9655 20.2916 0.0000 0.0000 0.0000
# 3 48.6763 20.2916 97.2403 0.0000 0.0000 0.0000
# 4 0.0000 0.0000 0.0000 8.3090 0.0000 0.0000
# 5 0.0000 0.0000 0.0000 0.0000 25.1481 0.0000
# 6 0.0000 0.0000 0.0000 0.0000 0.0000 9.6971
#
#
#
# Elastic Compliance Matrix: (Units=1/GPa)
#
#
# Indices 1 2 3 4 5 6 
#
# 1 0.014204 -0.008310 -0.005376 0.000000 0.000000 0.000000
# 2 -0.008310 0.061259 -0.008624 0.000000 0.000000 0.000000
# 3 -0.005376 -0.008624 0.014775 0.000000 0.000000 0.000000
# 4 0.000000 0.000000 0.000000 0.120351 0.000000 0.000000
# 5 0.000000 0.000000 0.000000 0.000000 0.039764 0.000000
# 6 0.000000 0.000000 0.000000 0.000000 0.000000 0.103124
#
#
# Mechanical properties :
#
#
# Convention : Reuss Voigt Hill
#
# Bulk Modulus (GPa) = 21.92080 44.33769 33.12924
# Shear Modulus (GPa) = 12.09765 17.33372 14.71568
#
# Velocity S-wave (km/s) = 2.87031 3.43577 3.16569
# Velocity P-wave (km/s) = 5.09051 6.77746 5.99363
#
# Compressibility (1/GPa) = 0.04561878
#
# Stress axis : x y z
#
# Youngs Moduli (GPa) = 70.40123 16.32403 67.68399
#
# Poissons Ratio (x) = 0.13565 0.36389
# Poissons Ratio (y) = 0.58503 0.58367
# Poissons Ratio (z) = 0.37850 0.14077
#
# Static dielectric constant tensor:
#      x y z
#    x 1.496620 0.000000 0.000000 
#    y 0.000000 1.450960 0.000000 
#    z 0.000000 0.000000 1.488740 
# 
# From -- ./inp_files/44623.got.cif
#   From: 2010.05.17/outbox.cif.g08.bks.cpg/sg74_23_cif.got.tgz:44623.got - 2010.06.03 17:57:02.
