data_PCOD9533932
_publ_section_title
;
Structure prediction by ZEFSAII (Michael W. Deem and Ramdas Pophale) SiO2 
 PCOD9533932
Probable space group: I M M A
;
_chemical_formula_sum "Si O2"
_cell_formula_units_Z 64
_cell_length_a 20.904911
_cell_length_b 13.817591
_cell_length_c 10.467411
_cell_angle_alpha 90.000000
_cell_angle_beta 90.000000
_cell_angle_gamma 90.000000
_cell_volume 3023.569344
_symmetry_space_group_name_H-M "I M M A"
_symmetry_group_IT_number 74
_symmetry_cell_setting 'orthorhombic'
loop_
_space_group_symop_operation_xyz
x,y,z
-x,1/2-y,z
x,-y,-z
-x,1/2+y,-z
-x,-y,-z
x,1/2+y,-z
-x,y,z
x,1/2-y,z
1/2+x,1/2+y,1/2+z
1/2-x,-y,1/2+z
1/2+x,1/2-y,1/2-z
1/2-x,y,1/2-z
1/2-x,1/2-y,1/2-z
1/2+x,y,1/2-z
1/2-x,1/2+y,1/2+z
1/2+x,-y,1/2+z
loop_
_atom_site_type_symbol
_atom_site_label
_atom_site_fract_x
_atom_site_fract_y
_atom_site_fract_z
Si Si1 0.605571 0.362894 0.072826
Si Si2 0.302282 0.107472 0.650678
Si Si3 0.928943 0.440622 0.702408
Si Si4 0.753897 0.111468 0.107570
O O1 0.594452 0.250000 0.105395
O O2 0.582933 0.444798 0.173174
O O3 0.681447 0.381548 0.057558
O O4 0.575212 0.389408 0.936313
O O5 0.250000 0.148021 0.750000
O O6 0.372155 0.102565 0.712082
O O7 0.297114 0.149330 0.508251
O O8 0.278920 0.996839 0.631087
O O9 0.000000 0.427374 0.755513
O O10 0.750000 0.153405 0.250000
#
# Coordination Sequence:
#
# PCOD9533932 Si02
#       4
#    16  16  16  16
#     4  11  21  36  61  90 120 161 203 251 306 363
#     4  10  16  35  62  84 118 156 195 250 299 349
#     4  11  22  38  59  88 123 161 203 252 299 362
#     4  10  18  33  60  86 122 151 197 249 303 346
#
# _framework density 21.167034999999998
#
# number of rings (size 3 to 8) (size 9 to 14) (size 15 to 20)
#    0.000    1.500    7.500    3.000    0.000    2.500 
#    0.000    5.000    0.000    0.000    0.000    0.000 
#    0.000    0.000    0.000    0.000    0.000    0.000 
#
# Total GULP energy -178461.795056 kJ/mol
# GULP energy per Si atom -5576.931096 kJ/mol
# Density = 2.111886 g / cm^3
# Si number density = 21.167035 Si / 1000 Ang^3
#
#
#
# Elastic Constant Matrix: (Units=GPa)
#
#
# Indices 1 2 3 4 5 6 
#
# 1 174.3034 30.5560 61.7862 0.0000 0.0000 0.0000
# 2 30.5560 101.6416 12.3907 0.0000 0.0000 0.0000
# 3 61.7862 12.3907 154.7577 0.0000 0.0000 0.0000
# 4 0.0000 0.0000 0.0000 -30.3301 0.0000 0.0000
# 5 0.0000 0.0000 0.0000 0.0000 30.7053 0.0000
# 6 0.0000 0.0000 0.0000 0.0000 0.0000 30.0177
#
#
#
# Elastic Compliance Matrix: (Units=1/GPa)
#
#
# Indices 1 2 3 4 5 6 
#
# 1 0.006987 -0.001778 -0.002647 0.000000 0.000000 0.000000
# 2 -0.001778 0.010388 -0.000122 0.000000 0.000000 0.000000
# 3 -0.002647 -0.000122 0.007528 0.000000 0.000000 0.000000
# 4 0.000000 0.000000 0.000000 -0.032971 0.000000 0.000000
# 5 0.000000 0.000000 0.000000 0.000000 0.032568 0.000000
# 6 0.000000 0.000000 0.000000 0.000000 0.000000 0.033314
#
#
# Mechanical properties :
#
#
# Convention : Reuss Voigt Hill
#
# Bulk Modulus (GPa) = 63.25349 71.12983 67.19166
# Shear Modulus (GPa) = 69.27327 27.80989 48.54158
#
# Velocity S-wave (km/s) = 5.72695 3.62861 4.79400
# Velocity P-wave (km/s) = 8.58362 7.15771 7.90289
#
# Compressibility (1/GPa) = 0.01580940
#
# Stress axis : x y z
#
# Youngs Moduli (GPa) = 143.11962 96.26668 132.83072
#
# Poissons Ratio (x) = 0.17114 0.35164
# Poissons Ratio (y) = 0.25444 0.01619
# Poissons Ratio (z) = 0.37887 0.01174
#
# Static dielectric constant tensor:
#      x y z
#    x 1.738880 0.000000 0.000000 
#    y 0.000000 1.737280 0.000000 
#    z 0.000000 0.000000 1.820720 
# 
# From -- ./inp_files/23475.got.cif
#   From: 2010.05.17/outbox.cif.g08.bks.cpg/sg74_12_cif.got.tgz:23475.got - 2010.06.03 17:57:02.
