data_PCOD9533790
_publ_section_title
;
Structure prediction by ZEFSAII (Michael W. Deem and Ramdas Pophale) SiO2 
 PCOD9533790
Probable space group: I B C A 
;
_chemical_formula_sum "Si O2"
_cell_formula_units_Z 32
_cell_length_a 18.000000
_cell_length_b 12.000000
_cell_length_c 15.000000
_cell_angle_alpha 90.000000
_cell_angle_beta 90.000000
_cell_angle_gamma 90.000000
_cell_volume 3240.000000
_symmetry_space_group_name_H-M "I B C A "
_symmetry_group_IT_number 73
_symmetry_cell_setting 'orthorhombic'
loop_
_space_group_symop_operation_xyz
x,y,z
-x,1/2-y,z
x,-y,1/2-z
1/2-x,y,-z
-x,-y,-z
x,1/2+y,-z
-x,y,1/2+z
1/2+x,-y,z
1/2+x,1/2+y,1/2+z
1/2-x,-y,1/2+z
1/2+x,1/2-y,-z
-x,1/2+y,1/2-z
1/2-x,1/2-y,1/2-z
1/2+x,y,1/2-z
1/2-x,1/2+y,z
x,1/2-y,1/2+z
loop_
_atom_site_type_symbol
_atom_site_label
_atom_site_fract_x
_atom_site_fract_y
_atom_site_fract_z
Si Si1 0.459119 0.955308 0.091754
Si Si2 0.079735 0.699861 0.139131
Si Si3 0.165536 0.232186 0.537283
Si Si4 0.104708 0.876769 0.299955
O O1 0.389932 0.871509 0.067327
O O2 0.524177 0.896275 0.151338
O O3 0.430725 0.065646 0.145508
O O4 0.500000 0.000000 0.000000
O O5 0.102778 0.778407 0.224021
O O6 0.000000 0.750000 0.114434
O O7 0.130393 0.718225 0.052889
O O8 0.250000 0.203663 0.500000
O O9 0.157049 0.324043 0.619370
O O10 0.121717 0.000000 0.250000
#
# Coordination Sequence:
#
# PCOD9533790 Si02
#       4
#    16  16  16  16
#     4  12  23  46  78 106 145 200 262 318 374 446
#     4  12  23  44  75 110 143 193 260 319 376 442
#     4  12  28  47  73 109 160 201 246 313 392 465
#     4  12  25  45  81 116 144 196 264 326 375 451
#
# _framework density 9.8765429999999999
#
# number of rings (size 3 to 8) (size 9 to 14) (size 15 to 20)
#    0.000    0.000    7.500    2.250    0.000    2.000 
#    0.000    0.000    0.000    0.000    0.000    0.000 
#    0.000    0.000    0.000    0.000    0.000    0.000 
#
# Total GULP energy -178495.412884 kJ/mol
# GULP energy per Si atom -5577.981653 kJ/mol
# Density = 0.985406 g / cm^3
# Si number density = 9.876543 Si / 1000 Ang^3
#
#
#
# Elastic Constant Matrix: (Units=GPa)
#
#
# Indices 1 2 3 4 5 6 
#
# 1 95.4947 34.2814 31.0213 0.0000 0.0000 0.0000
# 2 34.2814 158.2161 53.2694 0.0000 0.0000 0.0000
# 3 31.0213 53.2694 155.1687 0.0000 0.0000 0.0000
# 4 0.0000 0.0000 0.0000 55.3277 0.0000 0.0000
# 5 0.0000 0.0000 0.0000 0.0000 32.1555 0.0000
# 6 0.0000 0.0000 0.0000 0.0000 0.0000 30.0095
#
#
#
# Elastic Compliance Matrix: (Units=1/GPa)
#
#
# Indices 1 2 3 4 5 6 
#
# 1 0.011723 -0.001980 -0.001664 0.000000 0.000000 0.000000
# 2 -0.001980 0.007481 -0.002172 0.000000 0.000000 0.000000
# 3 -0.001664 -0.002172 0.007523 0.000000 0.000000 0.000000
# 4 0.000000 0.000000 0.000000 0.018074 0.000000 0.000000
# 5 0.000000 0.000000 0.000000 0.000000 0.031099 0.000000
# 6 0.000000 0.000000 0.000000 0.000000 0.000000 0.033323
#
#
# Mechanical properties :
#
#
# Convention : Reuss Voigt Hill
#
# Bulk Modulus (GPa) = 66.24906 71.78041 69.01474
# Shear Modulus (GPa) = 39.71826 42.85236 41.28531
#
# Velocity S-wave (km/s) = 4.48899 4.66274 4.57669
# Velocity P-wave (km/s) = 7.77685 8.08739 7.93364
#
# Compressibility (1/GPa) = 0.01509455
#
# Stress axis : x y z
#
# Youngs Moduli (GPa) = 85.30191 133.67448 132.92501
#
# Poissons Ratio (x) = 0.26465 0.22119
# Poissons Ratio (y) = 0.16888 0.28876
# Poissons Ratio (z) = 0.14194 0.29039
#
# Static dielectric constant tensor:
#      x y z
#    x 1.722730 0.000000 0.000000 
#    y 0.000000 1.750030 0.000000 
#    z 0.000000 0.000000 1.747390 
# 
# From -- ./inp_files/10434.got.cif
#   From: 2010.05.17/outbox.ucp.g08.bks.cvg/sg73_6_cif.got.tgz:10434.got - 2010.06.11 16:36:03.
