data_PCOD9533855
_publ_section_title
;
Structure prediction by ZEFSAII (Michael W. Deem and Ramdas Pophale) SiO2 
 PCOD9533855
Probable space group: I M M A
;
_chemical_formula_sum "Si O2"
_cell_formula_units_Z 80
_cell_length_a 16.830673
_cell_length_b 14.026947
_cell_length_c 19.166529
_cell_angle_alpha 90.000000
_cell_angle_beta 90.000000
_cell_angle_gamma 90.000000
_cell_volume 4524.890864
_symmetry_space_group_name_H-M "I M M A"
_symmetry_group_IT_number 74
_symmetry_cell_setting 'orthorhombic'
loop_
_space_group_symop_operation_xyz
x,y,z
-x,1/2-y,z
x,-y,-z
-x,1/2+y,-z
-x,-y,-z
x,1/2+y,-z
-x,y,z
x,1/2-y,z
1/2+x,1/2+y,1/2+z
1/2-x,-y,1/2+z
1/2+x,1/2-y,1/2-z
1/2-x,y,1/2-z
1/2-x,1/2-y,1/2-z
1/2+x,y,1/2-z
1/2-x,1/2+y,1/2+z
1/2+x,-y,1/2+z
loop_
_atom_site_type_symbol
_atom_site_label
_atom_site_fract_x
_atom_site_fract_y
_atom_site_fract_z
Si Si1 0.000000 0.144632 0.363831
Si Si2 0.000000 0.109641 0.521157
Si Si3 0.150619 0.863690 0.711745
Si Si4 0.819972 0.359632 0.540914
Si Si5 0.251249 0.450332 0.097923
Si Si6 0.907153 0.637177 0.870519
O O1 0.079522 0.098268 0.337386
O O2 0.000000 0.250000 0.329652
O O3 0.000000 0.156310 0.445358
O O4 0.915014 0.132594 0.554944
O O5 0.000000 0.000000 0.500000
O O6 0.166299 0.750000 0.702278
O O7 0.224444 0.915780 0.675461
O O8 0.115712 0.875027 0.788904
O O9 0.796067 0.250000 0.551455
O O10 0.800611 0.390510 0.460625
O O11 0.773770 0.439826 0.585086
O O12 0.158558 0.424359 0.088754
O O13 0.896593 0.750000 0.886561
O O14 0.000000 0.613352 0.881255
#
# Coordination Sequence:
#
# PCOD9533855 Si02
#       6
#     8   8  16  16  16  16
#     4  10  16  24  44  74 106 134 154 190 244 305
#     4  12  18  32  50  77 109 142 168 197 249 304
#     4  10  17  29  50  78 109 135 162 202 258 316
#     4  11  22  35  52  76 107 140 176 211 248 302
#     4  11  21  33  52  77 105 137 172 212 256 306
#     4  10  20  34  53  78 105 134 170 216 268 313
#
# _framework density 17.679984000000001
#
# number of rings (size 3 to 8) (size 9 to 14) (size 15 to 20)
#    0.000    1.400    5.000    3.300    0.000    1.600 
#    0.000    2.000    0.000    4.200    0.000    0.000 
#    0.000    0.000    0.000    0.000    0.000    0.000 
#
# Total GULP energy -222790.752721 kJ/mol
# GULP energy per Si atom -5569.768818 kJ/mol
# Density = 1.763974 g / cm^3
# Si number density = 17.679984 Si / 1000 Ang^3
#
#
#
# Elastic Constant Matrix: (Units=GPa)
#
#
# Indices 1 2 3 4 5 6 
#
# 1 153.1257 45.5995 14.2470 0.0000 0.0000 0.0000
# 2 45.5995 117.8213 17.1765 0.0000 0.0000 0.0000
# 3 14.2470 17.1765 32.2978 0.0000 0.0000 0.0000
# 4 0.0000 0.0000 0.0000 12.9552 0.0000 0.0000
# 5 0.0000 0.0000 0.0000 0.0000 18.8529 0.0000
# 6 0.0000 0.0000 0.0000 0.0000 0.0000 -44.2560
#
#
#
# Elastic Compliance Matrix: (Units=1/GPa)
#
#
# Indices 1 2 3 4 5 6 
#
# 1 0.007488 -0.002620 -0.001910 0.000000 0.000000 0.000000
# 2 -0.002620 0.010117 -0.004225 0.000000 0.000000 0.000000
# 3 -0.001910 -0.004225 0.034051 0.000000 0.000000 0.000000
# 4 0.000000 0.000000 0.000000 0.077189 0.000000 0.000000
# 5 0.000000 0.000000 0.000000 0.000000 0.053042 0.000000
# 6 0.000000 0.000000 0.000000 0.000000 0.000000 -0.022596
#
#
# Mechanical properties :
#
#
# Convention : Reuss Voigt Hill
#
# Bulk Modulus (GPa) = 29.28464 50.81009 40.04736
# Shear Modulus (GPa) = 26.56967 12.59186 19.58077
#
# Velocity S-wave (km/s) = 3.88082 2.67162 3.33154
# Velocity P-wave (km/s) = 6.05646 6.19015 6.12367
#
# Compressibility (1/GPa) = 0.03414760
#
# Stress axis : x y z
#
# Youngs Moduli (GPa) = 133.53930 98.84096 29.36746
#
# Poissons Ratio (x) = 0.25894 0.05609
# Poissons Ratio (y) = 0.34984 0.12408
# Poissons Ratio (z) = 0.25506 0.41760
#
# Static dielectric constant tensor:
#      x y z
#    x 1.710050 0.000000 0.000000 
#    y 0.000000 1.598590 0.000000 
#    z 0.000000 0.000000 1.627650 
# 
# From -- ./inp_files/43886.got.cif
#   From: 2010.05.17/outbox.cif.g08.bks.cpg/sg74_22_cif.got.tgz:43886.got - 2010.06.03 17:57:02.
