data_PCOD9533100
_publ_section_title
;
Structure prediction by ZEFSAII (Michael W. Deem and Ramdas Pophale) SiO2 
 PCOD9533100
Probable space group: I B C A 
;
_chemical_formula_sum "Si O2"
_cell_formula_units_Z 88
_cell_length_a 20.487787
_cell_length_b 8.659055
_cell_length_c 21.492140
_cell_angle_alpha 90.000000
_cell_angle_beta 90.000000
_cell_angle_gamma 90.000000
_cell_volume 3812.810399
_symmetry_space_group_name_H-M "I B C A "
_symmetry_group_IT_number 73
_symmetry_cell_setting 'orthorhombic'
loop_
_space_group_symop_operation_xyz
x,y,z
-x,1/2-y,z
x,-y,1/2-z
1/2-x,y,-z
-x,-y,-z
x,1/2+y,-z
-x,y,1/2+z
1/2+x,-y,z
1/2+x,1/2+y,1/2+z
1/2-x,-y,1/2+z
1/2+x,1/2-y,-z
-x,1/2+y,1/2-z
1/2-x,1/2-y,1/2-z
1/2+x,y,1/2-z
1/2-x,1/2+y,z
x,1/2-y,1/2+z
loop_
_atom_site_type_symbol
_atom_site_label
_atom_site_fract_x
_atom_site_fract_y
_atom_site_fract_z
Si Si1 0.689770 0.947271 0.037901
Si Si2 0.000000 0.750000 0.618122
Si Si3 0.683943 0.302776 0.825715
Si Si4 0.451223 0.020098 0.816080
Si Si5 0.398360 0.268847 0.025470
Si Si6 0.000000 0.250000 0.083269
Si Si7 0.211306 0.500000 0.250000
O O1 0.696909 0.846129 0.101248
O O2 0.630259 0.068357 0.048847
O O3 0.750000 0.023364 0.000000
O O4 0.664198 0.832084 0.985698
O O5 0.048915 0.653134 0.659754
O O6 0.051535 0.821559 0.569864
O O7 0.616775 0.391227 0.808489
O O8 0.743070 0.388919 0.791234
O O9 0.678941 0.125795 0.798871
O O10 0.488722 0.109675 0.869907
O O11 0.485834 0.000000 0.750000
O O12 0.438366 0.282378 0.961060
#
# Coordination Sequence:
#
# PCOD9533100 Si02
#       7
#    16   8  16  16  16   8   8
#     4  12  26  41  70 106 146 184 247 320 376 469
#     4  11  23  44  74  96 147 193 236 316 380 445
#     4  11  24  48  71 102 147 186 261 306 383 462
#     4  12  24  45  67 106 141 191 253 314 365 462
#     4  11  23  44  68 105 139 192 241 306 401 451
#     4  11  23  44  70  96 147 189 250 318 382 457
#     4  10  26  48  74  96 142 210 234 324 384 442
#
# _framework density 23.080088
#
# number of rings (size 3 to 8) (size 9 to 14) (size 15 to 20)
#    0.000    0.727    4.545    2.182    5.091    2.909 
#    4.909    0.000    0.000    0.000    0.000    0.000 
#    0.000    0.000    0.000    0.000    0.000    0.000 
#
# Total GULP energy -245036.805591 kJ/mol
# GULP energy per Si atom -5569.018309 kJ/mol
# Density = 2.302756 g / cm^3
# Si number density = 23.080088 Si / 1000 Ang^3
#
#
#
# Elastic Constant Matrix: (Units=GPa)
#
#
# Indices 1 2 3 4 5 6 
#
# 1 67.4484 35.5442 34.5707 0.0000 0.0000 0.0000
# 2 35.5442 103.5383 35.7345 0.0000 0.0000 0.0000
# 3 34.5707 35.7345 116.6645 0.0000 0.0000 0.0000
# 4 0.0000 0.0000 0.0000 39.3491 0.0000 0.0000
# 5 0.0000 0.0000 0.0000 0.0000 8.3419 0.0000
# 6 0.0000 0.0000 0.0000 0.0000 0.0000 48.5255
#
#
#
# Elastic Compliance Matrix: (Units=1/GPa)
#
#
# Indices 1 2 3 4 5 6 
#
# 1 0.019810 -0.005339 -0.004235 0.000000 0.000000 0.000000
# 2 -0.005339 0.012239 -0.002167 0.000000 0.000000 0.000000
# 3 -0.004235 -0.002167 0.010490 0.000000 0.000000 0.000000
# 4 0.000000 0.000000 0.000000 0.025414 0.000000 0.000000
# 5 0.000000 0.000000 0.000000 0.000000 0.119877 0.000000
# 6 0.000000 0.000000 0.000000 0.000000 0.000000 0.020608
#
#
# Mechanical properties :
#
#
# Convention : Reuss Voigt Hill
#
# Bulk Modulus (GPa) = 52.47156 55.48333 53.97745
# Shear Modulus (GPa) = 20.98438 31.36341 26.17390
#
# Velocity S-wave (km/s) = 3.01856 3.69032 3.37121
# Velocity P-wave (km/s) = 5.91040 6.49997 6.21218
#
# Compressibility (1/GPa) = 0.01905794
#
# Stress axis : x y z
#
# Youngs Moduli (GPa) = 50.47837 81.70621 95.32736
#
# Poissons Ratio (x) = 0.43625 0.40371
# Poissons Ratio (y) = 0.26952 0.20654
# Poissons Ratio (z) = 0.21377 0.17703
#
# Static dielectric constant tensor:
#      x y z
#    x 1.846260 0.000000 0.000000 
#    y 0.000000 2.180850 0.000000 
#    z 0.000000 0.000000 1.947190 
# 
# From -- ./inp_files/27227.got.cif
#   From: 2010.05.17/outbox.cif.g08.bks.cpg/sg73_14_cif.got.tgz:27227.got - 2010.06.03 17:35:07.
