data_PCOD9533923
_publ_section_title
;
Structure prediction by ZEFSAII (Michael W. Deem and Ramdas Pophale) SiO2 
 PCOD9533923
Probable space group: I M M A
;
_chemical_formula_sum "Si O2"
_cell_formula_units_Z 104
_cell_length_a 30.121347
_cell_length_b 22.468584
_cell_length_c 8.748933
_cell_angle_alpha 90.000000
_cell_angle_beta 90.000000
_cell_angle_gamma 90.000000
_cell_volume 5921.138005
_symmetry_space_group_name_H-M "I M M A"
_symmetry_group_IT_number 74
_symmetry_cell_setting 'orthorhombic'
loop_
_space_group_symop_operation_xyz
x,y,z
-x,1/2-y,z
x,-y,-z
-x,1/2+y,-z
-x,-y,-z
x,1/2+y,-z
-x,y,z
x,1/2-y,z
1/2+x,1/2+y,1/2+z
1/2-x,-y,1/2+z
1/2+x,1/2-y,1/2-z
1/2-x,y,1/2-z
1/2-x,1/2-y,1/2-z
1/2+x,y,1/2-z
1/2-x,1/2+y,1/2+z
1/2+x,-y,1/2+z
loop_
_atom_site_type_symbol
_atom_site_label
_atom_site_fract_x
_atom_site_fract_y
_atom_site_fract_z
Si Si1 0.145859 0.318335 0.989624
Si Si2 0.390334 0.910732 0.248154
Si Si3 0.111807 0.500000 0.000000
Si Si4 0.310231 0.432685 0.979414
Si Si5 0.249814 0.683286 0.067194
Si Si6 0.126946 0.094629 0.236751
Si Si7 0.051718 0.570566 0.533804
O O1 0.134894 0.250000 0.968802
O O2 0.123989 0.355679 0.852422
O O3 0.199154 0.324748 0.984955
O O4 0.130047 0.342740 0.152860
O O5 0.345199 0.933380 0.163045
O O6 0.410196 0.959669 0.367005
O O7 0.424455 0.898597 0.111222
O O8 0.137456 0.451849 0.100932
O O9 0.277154 0.376680 0.968302
O O10 0.291617 0.500000 0.000000
O O11 0.339484 0.417568 0.127436
O O12 0.265382 0.750000 0.012066
O O13 0.250000 0.686796 0.250000
O O14 0.078892 0.084680 0.312685
O O15 0.056747 0.500000 0.500000
O O16 0.000000 0.584756 0.545308
#
# Coordination Sequence:
#
# PCOD9533923 Si02
#       7
#    16  16   8  16  16  16  16
#     4  10  22  39  58  79 108 151 200 236 280 335
#     4  10  18  34  59  78 113 151 184 230 276 341
#     4  10  16  32  51  80 112 148 172 224 278 324
#     4  11  20  36  54  85 117 152 197 234 289 341
#     4  10  21  39  57  81 114 155 197 244 282 329
#     4  10  20  35  58  80 115 152 184 232 280 339
#     4  10  19  36  58  88 119 143 178 222 282 354
#
# _framework density 17.564191000000001
#
# number of rings (size 3 to 8) (size 9 to 14) (size 15 to 20)
#    0.000    1.846    4.615    0.923    0.000    1.231 
#    8.308    7.692    0.000    2.769    0.000    0.000 
#    0.000    0.000    0.000    0.000    0.000    0.000 
#
# Total GULP energy -289487.268242 kJ/mol
# GULP energy per Si atom -5567.062851 kJ/mol
# Density = 1.752421 g / cm^3
# Si number density = 17.564191 Si / 1000 Ang^3
#
#
#
# Elastic Constant Matrix: (Units=GPa)
#
#
# Indices 1 2 3 4 5 6 
#
# 1 75.2000 61.6425 30.6055 0.0000 0.0000 0.0000
# 2 61.6425 126.9591 47.1959 0.0000 0.0000 0.0000
# 3 30.6055 47.1959 95.8840 0.0000 0.0000 0.0000
# 4 0.0000 0.0000 0.0000 41.5972 0.0000 0.0000
# 5 0.0000 0.0000 0.0000 0.0000 10.1488 0.0000
# 6 0.0000 0.0000 0.0000 0.0000 0.0000 21.4731
#
#
#
# Elastic Compliance Matrix: (Units=1/GPa)
#
#
# Indices 1 2 3 4 5 6 
#
# 1 0.022464 -0.010087 -0.002205 0.000000 0.000000 0.000000
# 2 -0.010087 0.014170 -0.003755 0.000000 0.000000 0.000000
# 3 -0.002205 -0.003755 0.012981 0.000000 0.000000 0.000000
# 4 0.000000 0.000000 0.000000 0.024040 0.000000 0.000000
# 5 0.000000 0.000000 0.000000 0.000000 0.098534 0.000000
# 6 0.000000 0.000000 0.000000 0.000000 0.000000 0.046570
#
#
# Mechanical properties :
#
#
# Convention : Reuss Voigt Hill
#
# Bulk Modulus (GPa) = 57.07556 64.10343 60.58950
# Shear Modulus (GPa) = 19.47842 25.21710 22.34776
#
# Velocity S-wave (km/s) = 3.33376 3.79319 3.57087
# Velocity P-wave (km/s) = 6.88364 7.46728 7.18139
#
# Compressibility (1/GPa) = 0.01752063
#
# Stress axis : x y z
#
# Youngs Moduli (GPa) = 44.51574 70.57129 77.03292
#
# Poissons Ratio (x) = 0.71186 0.16988
# Poissons Ratio (y) = 0.44904 0.28926
# Poissons Ratio (z) = 0.09817 0.26500
#
# Static dielectric constant tensor:
#      x y z
#    x 1.596590 0.000000 0.000000 
#    y 0.000000 1.642780 0.000000 
#    z 0.000000 0.000000 1.591960 
# 
# From -- ./inp_files/15218.got.cif
#   From: 2010.05.17/outbox.cif.g08.bks.cpg/sg74_8_cif.got.tgz:15218.got - 2010.06.03 17:57:02.
