data_PCOD9533405
_publ_section_title
;
Structure prediction by ZEFSAII (Michael W. Deem and Ramdas Pophale) SiO2 
 PCOD9533405
Probable space group: I B C A 
;
_chemical_formula_sum "Si O2"
_cell_formula_units_Z 120
_cell_length_a 17.428088
_cell_length_b 11.897591
_cell_length_c 26.185387
_cell_angle_alpha 90.000000
_cell_angle_beta 90.000000
_cell_angle_gamma 90.000000
_cell_volume 5429.599250
_symmetry_space_group_name_H-M "I B C A "
_symmetry_group_IT_number 73
_symmetry_cell_setting 'orthorhombic'
loop_
_space_group_symop_operation_xyz
x,y,z
-x,1/2-y,z
x,-y,1/2-z
1/2-x,y,-z
-x,-y,-z
x,1/2+y,-z
-x,y,1/2+z
1/2+x,-y,z
1/2+x,1/2+y,1/2+z
1/2-x,-y,1/2+z
1/2+x,1/2-y,-z
-x,1/2+y,1/2-z
1/2-x,1/2-y,1/2-z
1/2+x,y,1/2-z
1/2-x,1/2+y,z
x,1/2-y,1/2+z
loop_
_atom_site_type_symbol
_atom_site_label
_atom_site_fract_x
_atom_site_fract_y
_atom_site_fract_z
Si Si1 0.416929 0.115638 0.258732
Si Si2 0.055730 0.022126 0.569987
Si Si3 0.000000 0.250000 0.156158
Si Si4 0.576620 0.321885 0.142359
Si Si5 0.742713 0.618958 0.775191
Si Si6 0.872614 0.743191 0.412009
Si Si7 0.379883 0.483546 0.463527
Si Si8 0.704546 0.659316 0.889990
O O1 0.458916 0.169061 0.305070
O O2 0.411883 0.175868 0.203685
O O3 0.332381 0.094064 0.279997
O O4 0.459646 0.000000 0.250000
O O5 0.068538 0.154647 0.577275
O O6 0.115618 0.997812 0.524312
O O7 0.071350 0.946844 0.619395
O O8 0.968516 0.995808 0.553533
O O9 0.074190 0.186583 0.131226
O O10 0.500000 0.250000 0.132100
O O11 0.645156 0.262272 0.111746
O O12 0.712217 0.500000 0.750000
O O13 0.750000 0.750000 0.750000
O O14 0.704662 0.621128 0.830825
O O15 0.860722 0.646214 0.452850
O O16 0.790882 0.797366 0.399830
O O17 0.325301 0.566709 0.430800
#
# Coordination Sequence:
#
# PCOD9533405 Si02
#       8
#    16  16   8  16  16  16  16  16
#     4  11  24  40  71 105 148 197 249 307 374 451
#     4  11  26  50  79 105 145 192 254 319 379 451
#     4  12  22  44  72 108 144 194 242 302 374 438
#     4  12  25  47  73 109 149 196 251 310 377 453
#     4  11  25  44  69 107 154 200 247 311 380 452
#     4  12  27  47  75 108 151 191 249 311 375 453
#     4  11  27  49  78 108 141 198 251 313 386 448
#     4  12  28  46  73 110 151 196 251 306 384 460
#
# _framework density 22.101078000000001
#
# number of rings (size 3 to 8) (size 9 to 14) (size 15 to 20)
#    0.000    0.533    6.000    0.800    7.467    0.533 
#    0.000    1.333    0.000    0.000    0.000    0.000 
#    0.000    0.000    0.000    0.000    0.000    0.000 
#
# Total GULP energy -334249.881668 kJ/mol
# GULP energy per Si atom -5570.831361 kJ/mol
# Density = 2.205078 g / cm^3
# Si number density = 22.101078 Si / 1000 Ang^3
#
#
#
# Elastic Constant Matrix: (Units=GPa)
#
#
# Indices 1 2 3 4 5 6 
#
# 1 97.3257 6.8605 14.0984 0.0000 0.0000 0.0000
# 2 6.8605 66.8641 3.1391 0.0000 0.0000 0.0000
# 3 14.0984 3.1391 61.6516 0.0000 0.0000 0.0000
# 4 0.0000 0.0000 0.0000 33.2402 0.0000 0.0000
# 5 0.0000 0.0000 0.0000 0.0000 31.9277 0.0000
# 6 0.0000 0.0000 0.0000 0.0000 0.0000 -15.7880
#
#
#
# Elastic Compliance Matrix: (Units=1/GPa)
#
#
# Indices 1 2 3 4 5 6 
#
# 1 0.010691 -0.000985 -0.002395 0.000000 0.000000 0.000000
# 2 -0.000985 0.015082 -0.000543 0.000000 0.000000 0.000000
# 3 -0.002395 -0.000543 0.016795 0.000000 0.000000 0.000000
# 4 0.000000 0.000000 0.000000 0.030084 0.000000 0.000000
# 5 0.000000 0.000000 0.000000 0.000000 0.031321 0.000000
# 6 0.000000 0.000000 0.000000 0.000000 0.000000 -0.063339
#
#
# Mechanical properties :
#
#
# Convention : Reuss Voigt Hill
#
# Bulk Modulus (GPa) = 28.79794 30.44859 29.62327
# Shear Modulus (GPa) = 83.25977 23.32555 53.29266
#
# Velocity S-wave (km/s) = 6.14443 3.25222 4.91584
# Velocity P-wave (km/s) = 7.96223 5.28294 6.75672
#
# Compressibility (1/GPa) = 0.03472471
#
# Stress axis : x y z
#
# Youngs Moduli (GPa) = 93.53608 66.30328 59.53996
#
# Poissons Ratio (x) = 0.06528 0.14258
# Poissons Ratio (y) = 0.09209 0.03232
# Poissons Ratio (z) = 0.22399 0.03599
#
# Static dielectric constant tensor:
#      x y z
#    x 1.795200 0.000000 0.000000 
#    y 0.000000 1.936790 0.000000 
#    z 0.000000 0.000000 1.968930 
# 
# From -- ./inp_files/32460.got.cif
#   From: 2010.05.17/outbox.cif.g08.bks.cpg/sg73_17_cif.got.tgz:32460.got - 2010.06.03 17:35:07.
