data_PCOD9533339
_publ_section_title
;
Structure prediction by ZEFSAII (Michael W. Deem and Ramdas Pophale) SiO2 
 PCOD9533339
Probable space group: I B C A 
;
_chemical_formula_sum "Si O2"
_cell_formula_units_Z 48
_cell_length_a 20.578833
_cell_length_b 11.906688
_cell_length_c 8.184142
_cell_angle_alpha 90.000000
_cell_angle_beta 90.000000
_cell_angle_gamma 90.000000
_cell_volume 2005.325482
_symmetry_space_group_name_H-M "I B C A "
_symmetry_group_IT_number 73
_symmetry_cell_setting 'orthorhombic'
loop_
_space_group_symop_operation_xyz
x,y,z
-x,1/2-y,z
x,-y,1/2-z
1/2-x,y,-z
-x,-y,-z
x,1/2+y,-z
-x,y,1/2+z
1/2+x,-y,z
1/2+x,1/2+y,1/2+z
1/2-x,-y,1/2+z
1/2+x,1/2-y,-z
-x,1/2+y,1/2-z
1/2-x,1/2-y,1/2-z
1/2+x,y,1/2-z
1/2-x,1/2+y,z
x,1/2-y,1/2+z
loop_
_atom_site_type_symbol
_atom_site_label
_atom_site_fract_x
_atom_site_fract_y
_atom_site_fract_z
Si Si1 0.084054 0.347603 0.778818
Si Si2 0.730746 0.876774 0.186361
Si Si3 0.555100 0.892027 0.655887
O O1 0.153464 0.382104 0.713147
O O2 0.079000 0.214099 0.758749
O O3 0.023480 0.390849 0.670785
O O4 0.074969 0.379604 0.968148
O O5 0.750000 0.750000 0.250000
O O6 0.756206 0.000000 0.250000
O O7 0.750000 0.874349 0.000000
O O8 0.579812 0.000000 0.750000
#
# Coordination Sequence:
#
# PCOD9533339 Si02
#       3
#    16  16  16
#     4  11  24  43  70 109 146 188 243 296 367 443
#     4  12  28  51  76 108 148 199 253 307 365 438
#     4  11  23  42  71 109 148 188 231 299 371 439
#
# _framework density 23.936263
#
# number of rings (size 3 to 8) (size 9 to 14) (size 15 to 20)
#    0.000    0.667    0.000    9.000    0.000    6.667 
#    0.000    3.333    0.000    0.000    0.000    0.000 
#    0.000    0.000    0.000    0.000    0.000    0.000 
#
# Total GULP energy -134336.266876 kJ/mol
# GULP energy per Si atom -5597.344453 kJ/mol
# Density = 2.388178 g / cm^3
# Si number density = 23.936263 Si / 1000 Ang^3
#
#
#
# Elastic Constant Matrix: (Units=GPa)
#
#
# Indices 1 2 3 4 5 6 
#
# 1 142.4303 51.0967 90.4438 0.0000 0.0000 0.0000
# 2 51.0967 247.6955 91.6941 0.0000 0.0000 0.0000
# 3 90.4438 91.6941 254.3500 0.0000 0.0000 0.0000
# 4 0.0000 0.0000 0.0000 52.8830 0.0000 0.0000
# 5 0.0000 0.0000 0.0000 0.0000 24.4964 0.0000
# 6 0.0000 0.0000 0.0000 0.0000 0.0000 -36.0626
#
#
#
# Elastic Compliance Matrix: (Units=1/GPa)
#
#
# Indices 1 2 3 4 5 6 
#
# 1 0.009202 -0.000793 -0.002986 0.000000 0.000000 0.000000
# 2 -0.000793 0.004727 -0.001422 0.000000 0.000000 0.000000
# 3 -0.002986 -0.001422 0.005506 0.000000 0.000000 0.000000
# 4 0.000000 0.000000 0.000000 0.018910 0.000000 0.000000
# 5 0.000000 0.000000 0.000000 0.000000 0.040822 0.000000
# 6 0.000000 0.000000 0.000000 0.000000 0.000000 -0.027730
#
#
# Mechanical properties :
#
#
# Convention : Reuss Voigt Hill
#
# Bulk Modulus (GPa) = 110.71014 123.43834 117.07424
# Shear Modulus (GPa) = 77.09990 35.67943 56.38967
#
# Velocity S-wave (km/s) = 5.68159 3.86502 4.85895
# Velocity P-wave (km/s) = 9.45479 8.46164 8.97197
#
# Compressibility (1/GPa) = 0.00903260
#
# Stress axis : x y z
#
# Youngs Moduli (GPa) = 108.67651 211.53859 181.61354
#
# Poissons Ratio (x) = 0.16769 0.54234
# Poissons Ratio (y) = 0.08615 0.25831
# Poissons Ratio (z) = 0.32453 0.30087
#
# Static dielectric constant tensor:
#      x y z
#    x 1.912750 0.000000 0.000000 
#    y 0.000000 4.232300 0.000000 
#    z 0.000000 0.000000 1.812180 
# 
# From -- ./inp_files/6748.got.cif
#   From: 2010.05.17/outbox.cif.g08.bks.cpg/sg73_4_cif.got.tgz:6748.got - 2010.06.03 17:35:07.
