data_PCOD9533604
_publ_section_title
;
Structure prediction by ZEFSAII (Michael W. Deem and Ramdas Pophale) SiO2 
 PCOD9533604
Probable space group: I B C A 
;
_chemical_formula_sum "Si O2"
_cell_formula_units_Z 120
_cell_length_a 22.356361
_cell_length_b 20.790321
_cell_length_c 11.710297
_cell_angle_alpha 90.000000
_cell_angle_beta 90.000000
_cell_angle_gamma 90.000000
_cell_volume 5442.898286
_symmetry_space_group_name_H-M "I B C A "
_symmetry_group_IT_number 73
_symmetry_cell_setting 'orthorhombic'
loop_
_space_group_symop_operation_xyz
x,y,z
-x,1/2-y,z
x,-y,1/2-z
1/2-x,y,-z
-x,-y,-z
x,1/2+y,-z
-x,y,1/2+z
1/2+x,-y,z
1/2+x,1/2+y,1/2+z
1/2-x,-y,1/2+z
1/2+x,1/2-y,-z
-x,1/2+y,1/2-z
1/2-x,1/2-y,1/2-z
1/2+x,y,1/2-z
1/2-x,1/2+y,z
x,1/2-y,1/2+z
loop_
_atom_site_type_symbol
_atom_site_label
_atom_site_fract_x
_atom_site_fract_y
_atom_site_fract_z
Si Si1 0.411624 0.917821 0.839485
Si Si2 0.599888 0.510650 0.058610
Si Si3 0.503074 0.000000 0.750000
Si Si4 0.370759 0.756375 0.542712
Si Si5 0.318867 0.104369 0.973409
Si Si6 0.715221 0.429630 0.732704
Si Si7 0.069039 0.731116 0.699815
Si Si8 0.195553 0.122116 0.585877
O O1 0.341307 0.935509 0.850925
O O2 0.418755 0.842668 0.831549
O O3 0.455357 0.942469 0.740404
O O4 0.432883 0.955625 0.951426
O O5 0.548754 0.494686 0.147193
O O6 0.646058 0.566737 0.099100
O O7 0.637151 0.445305 0.035416
O O8 0.331052 0.819915 0.522491
O O9 0.409692 0.760377 0.424214
O O10 0.400757 0.758039 0.672260
O O11 0.333315 0.689386 0.547822
O O12 0.323305 0.088889 0.840975
O O13 0.250000 0.089236 0.000000
O O14 0.742901 0.500000 0.750000
O O15 0.765848 0.378224 0.703158
O O16 0.000000 0.750000 0.714376
O O17 0.250000 0.103981 0.500000
#
# Coordination Sequence:
#
# PCOD9533604 Si02
#       8
#    16  16   8  16  16  16  16  16
#     4  12  24  51  75 105 147 204 247 315 389 455
#     4  12  26  48  74 114 151 194 253 313 391 454
#     4  12  30  42  78 114 148 194 260 326 368 466
#     4  12  29  50  76 115 151 201 263 316 387 463
#     4  12  27  44  72 113 154 193 247 317 382 459
#     4  12  22  44  76 105 147 197 252 306 389 460
#     4  12  29  52  79 105 154 208 259 317 385 465
#     4  12  25  47  76 107 152 199 251 310 390 466
#
# _framework density 22.047079
#
# number of rings (size 3 to 8) (size 9 to 14) (size 15 to 20)
#    0.000    0.000    6.000    2.400    8.400    1.600 
#    0.000    0.000    0.000    0.000    0.000    0.000 
#    0.000    0.000    0.000    0.000    0.000    0.000 
#
# Total GULP energy -334117.065474 kJ/mol
# GULP energy per Si atom -5568.617758 kJ/mol
# Density = 2.199690 g / cm^3
# Si number density = 22.047079 Si / 1000 Ang^3
#
#
#
# Elastic Constant Matrix: (Units=GPa)
#
#
# Indices 1 2 3 4 5 6 
#
# 1 136.0777 41.7968 49.3844 0.0000 0.0000 0.0000
# 2 41.7968 93.2057 -0.7870 0.0000 0.0000 0.0000
# 3 49.3844 -0.7870 76.7395 0.0000 0.0000 0.0000
# 4 0.0000 0.0000 0.0000 19.3141 0.0000 0.0000
# 5 0.0000 0.0000 0.0000 0.0000 46.9263 0.0000
# 6 0.0000 0.0000 0.0000 0.0000 0.0000 154.3247
#
#
#
# Elastic Compliance Matrix: (Units=1/GPa)
#
#
# Indices 1 2 3 4 5 6 
#
# 1 0.011752 -0.005334 -0.007617 0.000000 0.000000 0.000000
# 2 -0.005334 0.013151 0.003568 0.000000 0.000000 0.000000
# 3 -0.007617 0.003568 0.017970 0.000000 0.000000 0.000000
# 4 0.000000 0.000000 0.000000 0.051776 0.000000 0.000000
# 5 0.000000 0.000000 0.000000 0.000000 0.021310 0.000000
# 6 0.000000 0.000000 0.000000 0.000000 0.000000 0.006480
#
#
# Mechanical properties :
#
#
# Convention : Reuss Voigt Hill
#
# Bulk Modulus (GPa) = 41.48574 54.09015 47.78795
# Shear Modulus (GPa) = 33.50307 58.48827 45.99567
#
# Velocity S-wave (km/s) = 3.90245 5.15620 4.57250
# Velocity P-wave (km/s) = 6.25806 7.74827 7.04269
#
# Compressibility (1/GPa) = 0.02410467
#
# Stress axis : x y z
#
# Youngs Moduli (GPa) = 85.09545 76.03938 55.64958
#
# Poissons Ratio (x) = 0.40560 0.42389
# Poissons Ratio (y) = 0.45391 -0.19853
# Poissons Ratio (z) = 0.64819 -0.27127
#
# Static dielectric constant tensor:
#      x y z
#    x 1.551000 0.000000 0.000000 
#    y 0.000000 1.847880 0.000000 
#    z 0.000000 0.000000 1.732650 
# 
# From -- ./inp_files/13098.got.cif
#   From: 2010.05.17/outbox.cif.g08.bks.cpg/sg73_7_cif.got.tgz:13098.got - 2010.06.03 17:35:07.
