data_PCOD9533890
_publ_section_title
;
Structure prediction by ZEFSAII (Michael W. Deem and Ramdas Pophale) SiO2 
 PCOD9533890
Probable space group: I M M A
;
_chemical_formula_sum "Si O2"
_cell_formula_units_Z 96
_cell_length_a 19.677651
_cell_length_b 24.773311
_cell_length_c 13.127393
_cell_angle_alpha 90.000000
_cell_angle_beta 90.000000
_cell_angle_gamma 90.000000
_cell_volume 6399.348996
_symmetry_space_group_name_H-M "I M M A"
_symmetry_group_IT_number 74
_symmetry_cell_setting 'orthorhombic'
loop_
_space_group_symop_operation_xyz
x,y,z
-x,1/2-y,z
x,-y,-z
-x,1/2+y,-z
-x,-y,-z
x,1/2+y,-z
-x,y,z
x,1/2-y,z
1/2+x,1/2+y,1/2+z
1/2-x,-y,1/2+z
1/2+x,1/2-y,1/2-z
1/2-x,y,1/2-z
1/2-x,1/2-y,1/2-z
1/2+x,y,1/2-z
1/2-x,1/2+y,1/2+z
1/2+x,-y,1/2+z
loop_
_atom_site_type_symbol
_atom_site_label
_atom_site_fract_x
_atom_site_fract_y
_atom_site_fract_z
Si Si1 0.188067 0.809941 0.889099
Si Si2 0.080173 0.528060 0.347770
Si Si3 0.649783 0.310686 0.159411
Si Si4 0.869540 0.581801 0.547331
Si Si5 0.184388 0.514712 0.175877
Si Si6 0.793468 0.420875 0.030728
O O1 0.170595 0.750000 0.926948
O O2 0.269405 0.810211 0.866897
O O3 0.150104 0.818834 0.781419
O O4 0.178377 0.860549 0.961920
O O5 0.099264 0.468381 0.390533
O O6 0.105091 0.571142 0.432518
O O7 0.121509 0.532984 0.243852
O O8 0.000000 0.532226 0.335646
O O9 0.623887 0.250000 0.136836
O O10 0.616256 0.360061 0.098186
O O11 0.787811 0.576473 0.548244
O O12 0.250000 0.513925 0.250000
O O13 0.175877 0.456230 0.123102
O O14 0.194654 0.553090 0.078881
#
# Coordination Sequence:
#
# PCOD9533890 Si02
#       6
#    16  16  16  16  16  16
#     4   8  14  24  39  67 100 122 141 181 235 276
#     4  11  21  31  45  66  95 126 152 186 232 278
#     4   8  14  23  41  68  96 122 146 179 228 274
#     4  10  16  28  47  69  95 119 151 188 224 278
#     4  11  18  31  46  69  93 118 157 194 227 268
#     4  10  18  27  49  72  90 119 157 191 227 273
#
# _framework density 15.001526
#
# number of rings (size 3 to 8) (size 9 to 14) (size 15 to 20)
#    0.000    2.333    3.333    4.000    2.333    0.000 
#    0.000    1.667    0.000    3.500    0.000    0.000 
#    0.000    1.333    0.000    0.000    0.000    0.000 
#
# Total GULP energy -267250.434972 kJ/mol
# GULP energy per Si atom -5567.717395 kJ/mol
# Density = 1.496738 g / cm^3
# Si number density = 15.001526 Si / 1000 Ang^3
#
#
#
# Elastic Constant Matrix: (Units=GPa)
#
#
# Indices 1 2 3 4 5 6 
#
# 1 39.7601 18.9940 16.1247 0.0000 0.0000 0.0000
# 2 18.9940 119.0732 45.1205 0.0000 0.0000 0.0000
# 3 16.1247 45.1205 66.8915 0.0000 0.0000 0.0000
# 4 0.0000 0.0000 0.0000 21.8438 0.0000 0.0000
# 5 0.0000 0.0000 0.0000 0.0000 -24.7458 0.0000
# 6 0.0000 0.0000 0.0000 0.0000 0.0000 5.8600
#
#
#
# Elastic Compliance Matrix: (Units=1/GPa)
#
#
# Indices 1 2 3 4 5 6 
#
# 1 0.028466 -0.002607 -0.005104 0.000000 0.000000 0.000000
# 2 -0.002607 0.011521 -0.007143 0.000000 0.000000 0.000000
# 3 -0.005104 -0.007143 0.020998 0.000000 0.000000 0.000000
# 4 0.000000 0.000000 0.000000 0.045780 0.000000 0.000000
# 5 0.000000 0.000000 0.000000 0.000000 -0.040411 0.000000
# 6 0.000000 0.000000 0.000000 0.000000 0.000000 0.170650
#
#
# Mechanical properties :
#
#
# Convention : Reuss Voigt Hill
#
# Bulk Modulus (GPa) = 31.97106 42.91147 37.44126
# Shear Modulus (GPa) = 18.04177 10.29064 14.16621
#
# Velocity S-wave (km/s) = 3.47170 2.62195 3.07631
# Velocity P-wave (km/s) = 6.11788 6.15085 6.13439
#
# Compressibility (1/GPa) = 0.03127829
#
# Stress axis : x y z
#
# Youngs Moduli (GPa) = 35.12968 86.80116 47.62412
#
# Poissons Ratio (x) = 0.22628 0.24305
# Poissons Ratio (y) = 0.09158 0.34016
# Poissons Ratio (z) = 0.17929 0.61999
#
# Static dielectric constant tensor:
#      x y z
#    x 1.487150 0.000000 0.000000 
#    y 0.000000 1.525280 0.000000 
#    z 0.000000 0.000000 1.491250 
# 
# From -- ./inp_files/24270.got.cif
#   From: 2010.05.17/outbox.cif.g08.bks.cpg/sg74_13_cif.got.tgz:24270.got - 2010.06.03 17:57:02.
