data_PCOD9533780
_publ_section_title
;
Structure prediction by ZEFSAII (Michael W. Deem and Ramdas Pophale) SiO2 
 PCOD9533780
Probable space group: I B C A 
;
_chemical_formula_sum "Si O2"
_cell_formula_units_Z 36
_cell_length_a 18.000000
_cell_length_b 21.000000
_cell_length_c 9.000000
_cell_angle_alpha 90.000000
_cell_angle_beta 90.000000
_cell_angle_gamma 90.000000
_cell_volume 3402.000000
_symmetry_space_group_name_H-M "I B C A "
_symmetry_group_IT_number 73
_symmetry_cell_setting 'orthorhombic'
loop_
_space_group_symop_operation_xyz
x,y,z
-x,1/2-y,z
x,-y,1/2-z
1/2-x,y,-z
-x,-y,-z
x,1/2+y,-z
-x,y,1/2+z
1/2+x,-y,z
1/2+x,1/2+y,1/2+z
1/2-x,-y,1/2+z
1/2+x,1/2-y,-z
-x,1/2+y,1/2-z
1/2-x,1/2-y,1/2-z
1/2+x,y,1/2-z
1/2-x,1/2+y,z
x,1/2-y,1/2+z
loop_
_atom_site_type_symbol
_atom_site_label
_atom_site_fract_x
_atom_site_fract_y
_atom_site_fract_z
Si Si1 0.261289 0.932044 0.679278
Si Si2 0.185290 0.300347 0.210189
Si Si3 0.955100 0.500000 0.750000
Si Si4 0.083527 0.776671 0.513135
Si Si5 0.922412 0.924319 0.935323
O O1 0.250000 0.924713 0.500000
O O2 0.223056 0.871411 0.766090
O O3 0.351035 0.935383 0.672080
O O4 0.235477 0.000000 0.750000
O O5 0.250000 0.250000 0.250000
O O6 0.142265 0.273351 0.063487
O O7 0.120209 0.292400 0.329566
O O8 0.006397 0.548366 0.846123
O O9 0.918942 0.541742 0.605034
O O10 0.076343 0.847426 0.443506
O O11 0.000000 0.750000 0.521245
#
# Coordination Sequence:
#
# PCOD9533780 Si02
#       5
#    16  16   8  16  16
#     4  12  26  47  73 106 148 195 256 311 381 453
#     4  12  25  50  73 106 149 195 250 319 370 459
#     4  10  26  46  74 106 156 190 238 312 392 450
#     4  12  28  46  75 107 148 196 255 310 382 451
#     4  11  24  48  72 108 145 196 245 307 371 471
#
# _framework density 10.582011
#
# number of rings (size 3 to 8) (size 9 to 14) (size 15 to 20)
#    0.000    0.444    5.556    1.333    7.778    1.778 
#    4.000    0.000    0.000    0.000    0.000    0.000 
#    0.000    0.000    0.000    0.000    0.000    0.000 
#
# Total GULP energy -200632.423840 kJ/mol
# GULP energy per Si atom -5573.122884 kJ/mol
# Density = 1.055793 g / cm^3
# Si number density = 10.582011 Si / 1000 Ang^3
#
#
#
# Elastic Constant Matrix: (Units=GPa)
#
#
# Indices 1 2 3 4 5 6 
#
# 1 98.3894 32.9484 0.4284 0.0000 0.0000 0.0000
# 2 32.9484 178.8014 23.4462 0.0000 0.0000 0.0000
# 3 0.4284 23.4462 69.2393 0.0000 0.0000 0.0000
# 4 0.0000 0.0000 0.0000 40.8931 0.0000 0.0000
# 5 0.0000 0.0000 0.0000 0.0000 42.0175 0.0000
# 6 0.0000 0.0000 0.0000 0.0000 0.0000 45.7445
#
#
#
# Elastic Compliance Matrix: (Units=1/GPa)
#
#
# Indices 1 2 3 4 5 6 
#
# 1 0.010859 -0.002085 0.000639 0.000000 0.000000 0.000000
# 2 -0.002085 0.006253 -0.002105 0.000000 0.000000 0.000000
# 3 0.000639 -0.002105 0.015151 0.000000 0.000000 0.000000
# 4 0.000000 0.000000 0.000000 0.024454 0.000000 0.000000
# 5 0.000000 0.000000 0.000000 0.000000 0.023800 0.000000
# 6 0.000000 0.000000 0.000000 0.000000 0.000000 0.021861
#
#
# Mechanical properties :
#
#
# Convention : Reuss Voigt Hill
#
# Bulk Modulus (GPa) = 39.74197 51.11956 45.43076
# Shear Modulus (GPa) = 42.42104 45.03815 43.72960
#
# Velocity S-wave (km/s) = 4.48190 4.61809 4.55050
# Velocity P-wave (km/s) = 6.75293 7.25548 7.00872
#
# Compressibility (1/GPa) = 0.02516231
#
# Stress axis : x y z
#
# Youngs Moduli (GPa) = 92.08888 159.92481 66.00067
#
# Poissons Ratio (x) = 0.33341 -0.04216
# Poissons Ratio (y) = 0.19199 0.13890
# Poissons Ratio (z) = -0.05883 0.33656
#
# Static dielectric constant tensor:
#      x y z
#    x 1.854350 0.000000 0.000000 
#    y 0.000000 1.796320 0.000000 
#    z 0.000000 0.000000 1.866950 
# 
# From -- ./inp_files/5357.got.cif
#   From: 2010.05.17/outbox.ucp.g08.bks.cvg/sg73_3_cif.got.tgz:5357.got - 2010.06.11 16:36:03.
