data_PCOD9533463
_publ_section_title
;
Structure prediction by ZEFSAII (Michael W. Deem and Ramdas Pophale) SiO2 
 PCOD9533463
Probable space group: I B C A 
;
_chemical_formula_sum "Si O2"
_cell_formula_units_Z 56
_cell_length_a 10.016552
_cell_length_b 18.361127
_cell_length_c 11.010356
_cell_angle_alpha 90.000000
_cell_angle_beta 90.000000
_cell_angle_gamma 90.000000
_cell_volume 2024.971643
_symmetry_space_group_name_H-M "I B C A "
_symmetry_group_IT_number 73
_symmetry_cell_setting 'orthorhombic'
loop_
_space_group_symop_operation_xyz
x,y,z
-x,1/2-y,z
x,-y,1/2-z
1/2-x,y,-z
-x,-y,-z
x,1/2+y,-z
-x,y,1/2+z
1/2+x,-y,z
1/2+x,1/2+y,1/2+z
1/2-x,-y,1/2+z
1/2+x,1/2-y,-z
-x,1/2+y,1/2-z
1/2-x,1/2-y,1/2-z
1/2+x,y,1/2-z
1/2-x,1/2+y,z
x,1/2-y,1/2+z
loop_
_atom_site_type_symbol
_atom_site_label
_atom_site_fract_x
_atom_site_fract_y
_atom_site_fract_z
Si Si1 0.601534 0.206031 0.692196
Si Si2 0.412269 0.996415 0.880153
Si Si3 0.250000 0.383780 0.500000
Si Si4 0.781122 0.838472 0.635375
O O1 0.750000 0.250000 0.750000
O O2 0.647147 0.167169 0.569760
O O3 0.631609 0.152974 0.804911
O O4 0.568155 0.297610 0.674949
O O5 0.333353 0.920739 0.878178
O O6 0.482940 0.000000 0.750000
O O7 0.314712 0.065215 0.898204
O O8 0.500000 0.000000 0.000000
O O9 0.750000 0.809213 0.500000
#
# Coordination Sequence:
#
# PCOD9533463 Si02
#       4
#    16  16   8  16
#     4  11  25  46  75 107 152 210 266 332 405 475
#     4  12  27  47  78 116 161 216 265 332 414 491
#     4  12  24  50  76 110 164 200 274 338 400 490
#     4  11  24  46  71 110 152 199 264 331 392 490
#
# _framework density 27.654710000000001
#
# number of rings (size 3 to 8) (size 9 to 14) (size 15 to 20)
#    0.000    0.571    5.714    1.714    0.000    6.857 
#    0.000    0.000    0.000    0.000    0.000    0.000 
#    0.000    0.000    0.000    0.000    0.000    0.000 
#
# Total GULP energy -156149.590611 kJ/mol
# GULP energy per Si atom -5576.771093 kJ/mol
# Density = 2.759177 g / cm^3
# Si number density = 27.654710 Si / 1000 Ang^3
#
#
#
# Elastic Constant Matrix: (Units=GPa)
#
#
# Indices 1 2 3 4 5 6 
#
# 1 224.3454 114.7718 125.2563 0.0000 0.0000 0.0000
# 2 114.7718 186.8655 57.5749 0.0001 0.0000 0.0000
# 3 125.2563 57.5749 223.8051 -0.0001 0.0000 0.0000
# 4 0.0000 0.0001 -0.0001 -45.4881 0.0000 0.0000
# 5 0.0000 0.0000 0.0000 0.0000 78.5425 0.0000
# 6 0.0000 0.0000 0.0000 0.0000 0.0000 44.6372
#
#
#
# Elastic Compliance Matrix: (Units=1/GPa)
#
#
# Indices 1 2 3 4 5 6 
#
# 1 0.008723 -0.004185 -0.003805 0.000000 0.000000 0.000000
# 2 -0.004185 0.007820 0.000331 0.000000 0.000000 0.000000
# 3 -0.003805 0.000331 0.006513 0.000000 0.000000 0.000000
# 4 0.000000 0.000000 0.000000 -0.021984 0.000000 0.000000
# 5 0.000000 0.000000 0.000000 0.000000 0.012732 0.000000
# 6 0.000000 0.000000 0.000000 0.000000 0.000000 0.022403
#
#
# Mechanical properties :
#
#
# Convention : Reuss Voigt Hill
#
# Bulk Modulus (GPa) = 129.26466 136.69131 132.97798
# Shear Modulus (GPa) = 92.41138 38.03255 65.22196
#
# Velocity S-wave (km/s) = 5.78694 3.71248 4.86165
# Velocity P-wave (km/s) = 9.56532 8.24086 8.92769
#
# Compressibility (1/GPa) = 0.00773607
#
# Stress axis : x y z
#
# Youngs Moduli (GPa) = 114.63780 127.87505 153.54206
#
# Poissons Ratio (x) = 0.53519 0.58428
# Poissons Ratio (y) = 0.47979 -0.05076
# Poissons Ratio (z) = 0.43624 -0.04227
#
# Static dielectric constant tensor:
#      x y z
#    x 2.496250 0.000000 0.000000 
#    y 0.000000 1.687610 0.000000 
#    z 0.000000 0.000000 1.874510 
# 
# From -- ./inp_files/10378.got.cif
#   From: 2010.05.17/outbox.cif.g08.bks.cpg/sg73_6_cif.got.tgz:10378.got - 2010.06.03 17:35:07.
