data_PCOD9533480
_publ_section_title
;
Structure prediction by ZEFSAII (Michael W. Deem and Ramdas Pophale) SiO2 
 PCOD9533480
Probable space group: I B C A 
;
_chemical_formula_sum "Si O2"
_cell_formula_units_Z 72
_cell_length_a 28.138056
_cell_length_b 12.797547
_cell_length_c 9.240341
_cell_angle_alpha 90.000000
_cell_angle_beta 90.000000
_cell_angle_gamma 90.000000
_cell_volume 3327.429183
_symmetry_space_group_name_H-M "I B C A "
_symmetry_group_IT_number 73
_symmetry_cell_setting 'orthorhombic'
loop_
_space_group_symop_operation_xyz
x,y,z
-x,1/2-y,z
x,-y,1/2-z
1/2-x,y,-z
-x,-y,-z
x,1/2+y,-z
-x,y,1/2+z
1/2+x,-y,z
1/2+x,1/2+y,1/2+z
1/2-x,-y,1/2+z
1/2+x,1/2-y,-z
-x,1/2+y,1/2-z
1/2-x,1/2-y,1/2-z
1/2+x,y,1/2-z
1/2-x,1/2+y,z
x,1/2-y,1/2+z
loop_
_atom_site_type_symbol
_atom_site_label
_atom_site_fract_x
_atom_site_fract_y
_atom_site_fract_z
Si Si1 0.250000 0.495755 0.000000
Si Si2 0.442521 0.189478 0.470921
Si Si3 0.789709 0.178014 0.324242
Si Si4 0.834063 0.658693 0.970714
Si Si5 0.971306 0.379325 0.215448
O O1 0.235318 0.573194 0.126842
O O2 0.203611 0.425882 0.969786
O O3 0.389562 0.147213 0.495306
O O4 0.465306 0.175770 0.629206
O O5 0.475935 0.127463 0.356166
O O6 0.442191 0.307315 0.401614
O O7 0.750000 0.250000 0.250000
O O8 0.814416 0.234677 0.458814
O O9 0.827863 0.158704 0.200979
O O10 0.958681 0.500000 0.250000
#
# Coordination Sequence:
#
# PCOD9533480 Si02
#       5
#     8  16  16  16  16
#     4  12  24  42  72  96 144 192 236 290 364 418
#     4  11  25  46  72 111 146 190 251 308 366 450
#     4  12  23  45  65  96 147 186 236 298 350 416
#     4  12  26  43  71 105 144 193 240 301 355 440
#     4  11  24  47  76 103 151 193 239 312 382 436
#
# _framework density 21.638327
#
# number of rings (size 3 to 8) (size 9 to 14) (size 15 to 20)
#    0.000    0.444    4.444    5.333    0.000    3.556 
#    4.000    0.000    0.000    0.000    0.000    0.000 
#    0.000    0.000    0.000    0.000    0.000    0.000 
#
# Total GULP energy -200905.472148 kJ/mol
# GULP energy per Si atom -5580.707560 kJ/mol
# Density = 2.158908 g / cm^3
# Si number density = 21.638327 Si / 1000 Ang^3
#
#
#
# Elastic Constant Matrix: (Units=GPa)
#
#
# Indices 1 2 3 4 5 6 
#
# 1 163.9556 42.7251 53.1394 0.0000 0.0000 0.0000
# 2 42.7251 119.5119 65.5759 0.0000 0.0000 0.0000
# 3 53.1394 65.5759 153.0369 0.0000 0.0000 0.0000
# 4 0.0000 0.0000 0.0000 45.4748 0.0000 0.0000
# 5 0.0000 0.0000 0.0000 0.0000 26.7302 0.0000
# 6 0.0000 0.0000 0.0000 0.0000 0.0000 3.6025
#
#
#
# Elastic Compliance Matrix: (Units=1/GPa)
#
#
# Indices 1 2 3 4 5 6 
#
# 1 0.007085 -0.001547 -0.001797 0.000000 0.000000 0.000000
# 2 -0.001547 0.011277 -0.004295 0.000000 0.000000 0.000000
# 3 -0.001797 -0.004295 0.008999 0.000000 0.000000 0.000000
# 4 0.000000 0.000000 0.000000 0.021990 0.000000 0.000000
# 5 0.000000 0.000000 0.000000 0.000000 0.037411 0.000000
# 6 0.000000 0.000000 0.000000 0.000000 0.000000 0.277588
#
#
# Mechanical properties :
#
#
# Convention : Reuss Voigt Hill
#
# Bulk Modulus (GPa) = 82.76400 84.37612 83.57006
# Shear Modulus (GPa) = 13.03252 33.49909 23.26580
#
# Velocity S-wave (km/s) = 2.45682 3.93891 3.28260
# Velocity P-wave (km/s) = 6.81027 7.73079 7.28508
#
# Compressibility (1/GPa) = 0.01208255
#
# Stress axis : x y z
#
# Youngs Moduli (GPa) = 141.14778 88.67608 111.12424
#
# Poissons Ratio (x) = 0.13714 0.19973
# Poissons Ratio (y) = 0.21829 0.47729
# Poissons Ratio (z) = 0.25369 0.38088
#
# Static dielectric constant tensor:
#      x y z
#    x 1.773550 0.000000 0.000000 
#    y 0.000000 1.847520 0.000000 
#    z 0.000000 0.000000 1.801390 
# 
# From -- ./inp_files/7625.got.cif
#   From: 2010.05.17/outbox.cif.g08.bks.cpg/sg73_4_cif.got.tgz:7625.got - 2010.06.03 17:35:07.
