data_PCOD9533056
_publ_section_title
;
Structure prediction by ZEFSAII (Michael W. Deem and Ramdas Pophale) SiO2 
 PCOD9533056
Probable space group: I B C A 
;
_chemical_formula_sum "Si O2"
_cell_formula_units_Z 64
_cell_length_a 14.222505
_cell_length_b 19.417702
_cell_length_c 9.454740
_cell_angle_alpha 90.000000
_cell_angle_beta 90.000000
_cell_angle_gamma 90.000000
_cell_volume 2611.100076
_symmetry_space_group_name_H-M "I B C A "
_symmetry_group_IT_number 73
_symmetry_cell_setting 'orthorhombic'
loop_
_space_group_symop_operation_xyz
x,y,z
-x,1/2-y,z
x,-y,1/2-z
1/2-x,y,-z
-x,-y,-z
x,1/2+y,-z
-x,y,1/2+z
1/2+x,-y,z
1/2+x,1/2+y,1/2+z
1/2-x,-y,1/2+z
1/2+x,1/2-y,-z
-x,1/2+y,1/2-z
1/2-x,1/2-y,1/2-z
1/2+x,y,1/2-z
1/2-x,1/2+y,z
x,1/2-y,1/2+z
loop_
_atom_site_type_symbol
_atom_site_label
_atom_site_fract_x
_atom_site_fract_y
_atom_site_fract_z
Si Si1 0.564411 0.395119 0.181976
Si Si2 0.746966 0.411379 0.651951
Si Si3 0.898035 0.500000 0.250000
Si Si4 0.656009 0.838528 0.079691
Si Si5 0.500000 0.750000 0.202457
O O1 0.648915 0.418611 0.284903
O O2 0.473917 0.440277 0.216474
O O3 0.536983 0.315874 0.212302
O O4 0.601805 0.393679 0.020522
O O5 0.750000 0.376172 0.500000
O O6 0.682778 0.480019 0.632775
O O7 0.691565 0.369430 0.772427
O O8 0.585915 0.776934 0.109403
O O9 0.750000 0.816753 0.000000
#
# Coordination Sequence:
#
# PCOD9533056 Si02
#       5
#    16  16   8  16   8
#     4  11  27  47  81 112 154 206 264 323 394 470
#     4  11  27  47  76 114 157 199 257 322 395 464
#     4  12  26  52  76 118 150 210 254 328 386 480
#     4  10  25  50  76 114 159 203 260 328 394 470
#     4  12  24  48  80 120 152 212 266 330 392 470
#
# _framework density 24.510742
#
# number of rings (size 3 to 8) (size 9 to 14) (size 15 to 20)
#    0.000    1.000    2.500    1.500    3.500   14.000 
#    0.000    0.000    0.000    0.000    0.000    0.000 
#    0.000    0.000    0.000    0.000    0.000    0.000 
#
# Total GULP energy -178741.547461 kJ/mol
# GULP energy per Si atom -5585.673358 kJ/mol
# Density = 2.445495 g / cm^3
# Si number density = 24.510742 Si / 1000 Ang^3
#
#
#
# Elastic Constant Matrix: (Units=GPa)
#
#
# Indices 1 2 3 4 5 6 
#
# 1 203.7798 48.8254 58.4902 0.0000 0.0000 0.0000
# 2 48.8254 114.5641 40.4195 0.0000 0.0000 0.0000
# 3 58.4902 40.4195 167.9081 0.0000 0.0000 0.0000
# 4 0.0000 0.0000 0.0000 9.8959 0.0000 0.0000
# 5 0.0000 0.0000 0.0000 0.0000 30.3749 0.0000
# 6 0.0000 0.0000 0.0000 0.0000 0.0000 11.1335
#
#
#
# Elastic Compliance Matrix: (Units=1/GPa)
#
#
# Indices 1 2 3 4 5 6 
#
# 1 0.005818 -0.001928 -0.001562 0.000000 0.000000 0.000000
# 2 -0.001928 0.010178 -0.001778 0.000000 0.000000 0.000000
# 3 -0.001562 -0.001778 0.006928 0.000000 0.000000 0.000000
# 4 0.000000 0.000000 0.000000 0.101052 0.000000 0.000000
# 5 0.000000 0.000000 0.000000 0.000000 0.032922 0.000000
# 6 0.000000 0.000000 0.000000 0.000000 0.000000 0.089819
#
#
# Mechanical properties :
#
#
# Convention : Reuss Voigt Hill
#
# Bulk Modulus (GPa) = 80.73853 86.85800 83.79826
# Shear Modulus (GPa) = 19.12900 32.84865 25.98883
#
# Velocity S-wave (km/s) = 2.79665 3.66481 3.25976
# Velocity P-wave (km/s) = 6.59090 7.30900 6.95922
#
# Compressibility (1/GPa) = 0.01238566
#
# Stress axis : x y z
#
# Youngs Moduli (GPa) = 171.88920 98.25176 144.34173
#
# Poissons Ratio (x) = 0.18945 0.22552
# Poissons Ratio (y) = 0.33143 0.25670
# Poissons Ratio (z) = 0.26856 0.17473
#
# Static dielectric constant tensor:
#      x y z
#    x 1.895910 0.000000 0.000000 
#    y 0.000000 2.148530 0.000000 
#    z 0.000000 0.000000 2.005900 
# 
# From -- ./inp_files/4671.got.cif
#   From: 2010.05.17/outbox.cif.g08.bks.cpg/sg73_3_cif.got.tgz:4671.got - 2010.06.03 17:35:07.
