data_PCOD9533338
_publ_section_title
;
Structure prediction by ZEFSAII (Michael W. Deem and Ramdas Pophale) SiO2 
 PCOD9533338
Probable space group: I B C A 
;
_chemical_formula_sum "Si O2"
_cell_formula_units_Z 80
_cell_length_a 8.775061
_cell_length_b 23.808175
_cell_length_c 16.210671
_cell_angle_alpha 90.000000
_cell_angle_beta 90.000000
_cell_angle_gamma 90.000000
_cell_volume 3386.704010
_symmetry_space_group_name_H-M "I B C A "
_symmetry_group_IT_number 73
_symmetry_cell_setting 'orthorhombic'
loop_
_space_group_symop_operation_xyz
x,y,z
-x,1/2-y,z
x,-y,1/2-z
1/2-x,y,-z
-x,-y,-z
x,1/2+y,-z
-x,y,1/2+z
1/2+x,-y,z
1/2+x,1/2+y,1/2+z
1/2-x,-y,1/2+z
1/2+x,1/2-y,-z
-x,1/2+y,1/2-z
1/2-x,1/2-y,1/2-z
1/2+x,y,1/2-z
1/2-x,1/2+y,z
x,1/2-y,1/2+z
loop_
_atom_site_type_symbol
_atom_site_label
_atom_site_fract_x
_atom_site_fract_y
_atom_site_fract_z
Si Si1 0.914324 0.461341 0.934021
Si Si2 0.795259 0.649702 0.200665
Si Si3 0.635827 0.655204 0.370090
Si Si4 0.305731 0.972395 0.836613
Si Si5 0.178013 0.763686 0.920580
O O1 0.890148 0.394305 0.937589
O O2 0.758280 0.489580 0.908834
O O3 0.015122 0.467286 0.850912
O O4 0.000000 0.500000 0.000000
O O5 0.757472 0.641279 0.297109
O O6 0.746374 0.590994 0.158910
O O7 0.697552 0.699568 0.161579
O O8 0.971416 0.662199 0.175654
O O9 0.708802 0.710464 0.410041
O O10 0.274497 0.000000 0.750000
O O11 0.000000 0.750000 0.932318
O O12 0.250000 0.795281 0.000000
#
# Coordination Sequence:
#
# PCOD9533338 Si02
#       5
#    16  16  16  16  16
#     4  11  25  42  68 106 146 189 248 314 382 456
#     4  11  24  43  72 100 139 192 253 307 381 461
#     4  11  24  45  70 105 145 198 252 319 386 470
#     4  11  23  42  68  98 140 188 242 303 375 456
#     4  12  27  47  72 105 148 195 252 322 397 468
#
# _framework density 23.621787000000001
#
# number of rings (size 3 to 8) (size 9 to 14) (size 15 to 20)
#    0.000    0.800    2.000    4.800    2.800    8.000 
#    0.000    0.000    0.000    0.000    0.000    0.000 
#    0.000    0.000    0.000    0.000    0.000    0.000 
#
# Total GULP energy -223394.007677 kJ/mol
# GULP energy per Si atom -5584.850192 kJ/mol
# Density = 2.356802 g / cm^3
# Si number density = 23.621787 Si / 1000 Ang^3
#
#
#
# Elastic Constant Matrix: (Units=GPa)
#
#
# Indices 1 2 3 4 5 6 
#
# 1 117.5154 20.6306 16.3199 0.0000 0.0000 0.0000
# 2 20.6306 108.3309 21.3673 0.0000 0.0000 0.0000
# 3 16.3199 21.3673 69.1721 0.0000 0.0000 0.0000
# 4 0.0000 0.0000 0.0000 39.4320 0.0000 0.0000
# 5 0.0000 0.0000 0.0000 0.0000 44.2598 0.0000
# 6 0.0000 0.0000 0.0000 0.0000 0.0000 22.2347
#
#
#
# Elastic Compliance Matrix: (Units=1/GPa)
#
#
# Indices 1 2 3 4 5 6 
#
# 1 0.008987 -0.001377 -0.001695 0.000000 0.000000 0.000000
# 2 -0.001377 0.010041 -0.002777 0.000000 0.000000 0.000000
# 3 -0.001695 -0.002777 0.015714 0.000000 0.000000 0.000000
# 4 0.000000 0.000000 0.000000 0.025360 0.000000 0.000000
# 5 0.000000 0.000000 0.000000 0.000000 0.022594 0.000000
# 6 0.000000 0.000000 0.000000 0.000000 0.000000 0.044975
#
#
# Mechanical properties :
#
#
# Convention : Reuss Voigt Hill
#
# Bulk Modulus (GPa) = 43.39440 45.73935 44.56688
# Shear Modulus (GPa) = 34.00214 36.96535 35.48375
#
# Velocity S-wave (km/s) = 3.79811 3.96015 3.87998
# Velocity P-wave (km/s) = 6.13552 6.34946 6.24341
#
# Compressibility (1/GPa) = 0.02304445
#
# Stress axis : x y z
#
# Youngs Moduli (GPa) = 111.27611 99.59241 63.63630
#
# Poissons Ratio (x) = 0.13715 0.10785
# Poissons Ratio (y) = 0.15324 0.17670
# Poissons Ratio (z) = 0.18860 0.27654
#
# Static dielectric constant tensor:
#      x y z
#    x 1.880190 0.000000 0.000000 
#    y 0.000000 1.934330 0.000000 
#    z 0.000000 0.000000 2.192530 
# 
# From -- ./inp_files/20742.got.cif
#   From: 2010.05.17/outbox.cif.g08.bks.cpg/sg73_11_cif.got.tgz:20742.got - 2010.06.03 17:35:07.
