data_PCOD9533724
_publ_section_title
;
Structure prediction by ZEFSAII (Michael W. Deem and Ramdas Pophale) SiO2 
 PCOD9533724
Probable space group: I B C A 
;
_chemical_formula_sum "Si O2"
_cell_formula_units_Z 56
_cell_length_a 15.822751
_cell_length_b 16.818614
_cell_length_c 7.641613
_cell_angle_alpha 90.000000
_cell_angle_beta 90.000000
_cell_angle_gamma 90.000000
_cell_volume 2033.561151
_symmetry_space_group_name_H-M "I B C A "
_symmetry_group_IT_number 73
_symmetry_cell_setting 'orthorhombic'
loop_
_space_group_symop_operation_xyz
x,y,z
-x,1/2-y,z
x,-y,1/2-z
1/2-x,y,-z
-x,-y,-z
x,1/2+y,-z
-x,y,1/2+z
1/2+x,-y,z
1/2+x,1/2+y,1/2+z
1/2-x,-y,1/2+z
1/2+x,1/2-y,-z
-x,1/2+y,1/2-z
1/2-x,1/2-y,1/2-z
1/2+x,y,1/2-z
1/2-x,1/2+y,z
x,1/2-y,1/2+z
loop_
_atom_site_type_symbol
_atom_site_label
_atom_site_fract_x
_atom_site_fract_y
_atom_site_fract_z
Si Si1 0.918719 0.443324 0.520422
Si Si2 0.918869 0.809014 0.184528
Si Si3 0.250000 0.454196 0.500000
Si Si4 0.855699 0.156098 0.698728
O O1 0.076406 0.380628 0.178716
O O2 0.833067 0.494479 0.534780
O O3 0.906590 0.393173 0.343285
O O4 0.000000 0.500000 0.500000
O O5 0.846293 0.745812 0.236197
O O6 0.902909 0.837814 0.988160
O O7 0.000000 0.750000 0.192119
O O8 0.227144 0.395710 0.659902
#
# Coordination Sequence:
#
# PCOD9533724 Si02
#       4
#    16  16   8  16
#     4  12  31  61  93 136 188 246 315 396 475 566
#     4  12  28  54  91 133 186 244 313 386 467 568
#     4  12  32  58  88 136 190 242 312 388 474 552
#     4  12  29  55  87 130 183 242 310 383 471 557
#
# _framework density 27.537898999999999
#
# number of rings (size 3 to 8) (size 9 to 14) (size 15 to 20)
#    0.000    0.000    2.857    3.429   12.000    4.571 
#    0.000    0.000    0.000    0.000    0.000    0.000 
#    0.000    0.000    0.000    0.000    0.000    0.000 
#
# Total GULP energy -157518.343246 kJ/mol
# GULP energy per Si atom -5625.655116 kJ/mol
# Density = 2.747522 g / cm^3
# Si number density = 27.537899 Si / 1000 Ang^3
#
#
#
# Elastic Constant Matrix: (Units=GPa)
#
#
# Indices 1 2 3 4 5 6 
#
# 1 205.4421 125.0409 76.3094 0.0000 0.0000 0.0000
# 2 125.0409 259.9868 128.3130 0.0000 0.0000 0.0000
# 3 76.3094 128.3130 266.7448 0.0000 0.0000 0.0000
# 4 0.0000 0.0000 0.0000 76.0502 0.0000 0.0000
# 5 0.0000 0.0000 0.0000 0.0000 41.5801 0.0000
# 6 0.0000 0.0000 0.0000 0.0000 0.0000 59.0239
#
#
#
# Elastic Compliance Matrix: (Units=1/GPa)
#
#
# Indices 1 2 3 4 5 6 
#
# 1 0.006932 -0.003088 -0.000497 0.000000 0.000000 0.000000
# 2 -0.003088 0.006420 -0.002205 0.000000 0.000000 0.000000
# 3 -0.000497 -0.002205 0.004952 0.000000 0.000000 0.000000
# 4 0.000000 0.000000 0.000000 0.013149 0.000000 0.000000
# 5 0.000000 0.000000 0.000000 0.000000 0.024050 0.000000
# 6 0.000000 0.000000 0.000000 0.000000 0.000000 0.016942
#
#
# Mechanical properties :
#
#
# Convention : Reuss Voigt Hill
#
# Bulk Modulus (GPa) = 148.75323 154.61112 151.68217
# Shear Modulus (GPa) = 57.95960 62.16488 60.06224
#
# Velocity S-wave (km/s) = 4.59270 4.75640 4.67527
# Velocity P-wave (km/s) = 9.06966 9.29684 9.18395
#
# Compressibility (1/GPa) = 0.00672254
#
# Stress axis : x y z
#
# Youngs Moduli (GPa) = 144.25607 155.76777 201.95121
#
# Poissons Ratio (x) = 0.48109 0.10046
# Poissons Ratio (y) = 0.44553 0.44522
# Poissons Ratio (z) = 0.07176 0.34340
#
# Static dielectric constant tensor:
#      x y z
#    x 2.315740 0.000000 0.000000 
#    y 0.000000 2.132910 0.000000 
#    z 0.000000 0.000000 2.082560 
# 
# From -- ./inp_files/10377.got.cif
#   From: 2010.05.17/outbox.cif.g08.bks.cpg/sg73_6_cif.got.tgz:10377.got - 2010.06.03 17:35:07.
