data_PCOD9533648
_publ_section_title
;
Structure prediction by ZEFSAII (Michael W. Deem and Ramdas Pophale) SiO2 
 PCOD9533648
Probable space group: I B C A 
;
_chemical_formula_sum "Si O2"
_cell_formula_units_Z 64
_cell_length_a 10.256581
_cell_length_b 19.261481
_cell_length_c 14.132862
_cell_angle_alpha 90.000000
_cell_angle_beta 90.000000
_cell_angle_gamma 90.000000
_cell_volume 2792.044971
_symmetry_space_group_name_H-M "I B C A "
_symmetry_group_IT_number 73
_symmetry_cell_setting 'orthorhombic'
loop_
_space_group_symop_operation_xyz
x,y,z
-x,1/2-y,z
x,-y,1/2-z
1/2-x,y,-z
-x,-y,-z
x,1/2+y,-z
-x,y,1/2+z
1/2+x,-y,z
1/2+x,1/2+y,1/2+z
1/2-x,-y,1/2+z
1/2+x,1/2-y,-z
-x,1/2+y,1/2-z
1/2-x,1/2-y,1/2-z
1/2+x,y,1/2-z
1/2-x,1/2+y,z
x,1/2-y,1/2+z
loop_
_atom_site_type_symbol
_atom_site_label
_atom_site_fract_x
_atom_site_fract_y
_atom_site_fract_z
Si Si1 0.250000 0.020861 0.000000
Si Si2 0.171538 0.439693 0.820695
Si Si3 0.500000 0.750000 0.067811
Si Si4 0.041612 0.369672 0.447712
Si Si5 0.234121 0.814998 0.316559
O O1 0.123432 0.071547 0.004857
O O2 0.243554 0.973813 0.905687
O O3 0.130528 0.500000 0.750000
O O4 0.232297 0.618485 0.747678
O O5 0.048019 0.407524 0.872561
O O6 0.396360 0.706754 0.128252
O O7 0.452033 0.813973 0.002756
O O8 0.152477 0.326352 0.392709
O O9 0.250000 0.750000 0.250000
#
# Coordination Sequence:
#
# PCOD9533648 Si02
#       5
#     8  16   8  16  16
#     4  12  26  48  74 116 156 204 264 318 396 466
#     4  12  27  46  76 112 154 206 256 324 384 466
#     4  12  24  48  74 108 152 196 256 316 384 464
#     4  12  25  47  74 112 151 202 257 316 392 461
#     4  12  26  46  73 110 152 199 256 321 381 461
#
# _framework density 22.922266
#
# number of rings (size 3 to 8) (size 9 to 14) (size 15 to 20)
#    0.000    0.000    5.000    3.750    7.000    0.000 
#    0.000    0.000    0.000    0.000    0.000    0.000 
#    0.000    0.000    0.000    0.000    0.000    0.000 
#
# Total GULP energy -178924.722371 kJ/mol
# GULP energy per Si atom -5591.397574 kJ/mol
# Density = 2.287009 g / cm^3
# Si number density = 22.922266 Si / 1000 Ang^3
#
#
#
# Elastic Constant Matrix: (Units=GPa)
#
#
# Indices 1 2 3 4 5 6 
#
# 1 24.2542 13.5108 6.5492 0.0000 0.0000 0.0000
# 2 13.5108 144.1203 65.2209 0.0000 0.0000 0.0000
# 3 6.5492 65.2209 109.7144 0.0000 0.0000 0.0000
# 4 0.0000 0.0000 0.0000 33.4526 0.0000 0.0000
# 5 0.0000 0.0000 0.0000 0.0000 42.6049 0.0000
# 6 0.0000 0.0000 0.0000 0.0000 0.0000 34.7398
#
#
#
# Elastic Compliance Matrix: (Units=1/GPa)
#
#
# Indices 1 2 3 4 5 6 
#
# 1 0.043506 -0.003972 -0.000236 0.000000 0.000000 0.000000
# 2 -0.003972 0.009855 -0.005621 0.000000 0.000000 0.000000
# 3 -0.000236 -0.005621 0.012470 0.000000 0.000000 0.000000
# 4 0.000000 0.000000 0.000000 0.029893 0.000000 0.000000
# 5 0.000000 0.000000 0.000000 0.000000 0.023471 0.000000
# 6 0.000000 0.000000 0.000000 0.000000 0.000000 0.028785
#
#
# Mechanical properties :
#
#
# Convention : Reuss Voigt Hill
#
# Bulk Modulus (GPa) = 21.65750 49.85007 35.75379
# Shear Modulus (GPa) = 27.31786 35.01331 31.16559
#
# Velocity S-wave (km/s) = 3.45593 3.91254 3.69130
# Velocity P-wave (km/s) = 5.03919 6.49656 5.81372
#
# Compressibility (1/GPa) = 0.04617339
#
# Stress axis : x y z
#
# Youngs Moduli (GPa) = 22.98521 101.47291 80.19082
#
# Poissons Ratio (x) = 0.40303 0.01892
# Poissons Ratio (y) = 0.09129 0.45077
# Poissons Ratio (z) = 0.00542 0.57040
#
# Static dielectric constant tensor:
#      x y z
#    x 1.954700 0.000000 0.000000 
#    y 0.000000 1.845210 0.000000 
#    z 0.000000 0.000000 2.303110 
# 
# From -- ./inp_files/15888.got.cif
#   From: 2010.05.17/outbox.cif.g08.bks.cpg/sg73_8_cif.got.tgz:15888.got - 2010.06.03 17:35:07.
