data_PCOD9533807
_publ_section_title
;
Structure prediction by ZEFSAII (Michael W. Deem and Ramdas Pophale) SiO2 
 PCOD9533807
Probable space group: I M M A
;
_chemical_formula_sum "Si O2"
_cell_formula_units_Z 72
_cell_length_a 14.353531
_cell_length_b 15.003277
_cell_length_c 17.995405
_cell_angle_alpha 90.000000
_cell_angle_beta 90.000000
_cell_angle_gamma 90.000000
_cell_volume 3875.310494
_symmetry_space_group_name_H-M "I M M A"
_symmetry_group_IT_number 74
_symmetry_cell_setting 'orthorhombic'
loop_
_space_group_symop_operation_xyz
x,y,z
-x,1/2-y,z
x,-y,-z
-x,1/2+y,-z
-x,-y,-z
x,1/2+y,-z
-x,y,z
x,1/2-y,z
1/2+x,1/2+y,1/2+z
1/2-x,-y,1/2+z
1/2+x,1/2-y,1/2-z
1/2-x,y,1/2-z
1/2-x,1/2-y,1/2-z
1/2+x,y,1/2-z
1/2-x,1/2+y,1/2+z
1/2+x,-y,1/2+z
loop_
_atom_site_type_symbol
_atom_site_label
_atom_site_fract_x
_atom_site_fract_y
_atom_site_fract_z
Si Si1 0.203266 0.035104 0.827403
Si Si2 0.500000 0.600172 0.107209
Si Si3 0.000000 0.598036 0.650010
Si Si4 0.000000 0.958556 0.229145
Si Si5 0.288759 0.654114 0.873172
Si Si6 0.810874 0.400528 0.533153
O O1 0.250000 0.064398 0.750000
O O2 0.237333 0.932381 0.839699
O O3 0.093808 0.047570 0.817193
O O4 0.242060 0.088591 0.897620
O O5 0.500000 0.606401 0.197546
O O6 0.592242 0.633896 0.067208
O O7 0.500000 0.508300 0.900267
O O8 0.901038 0.644418 0.637567
O O9 0.000000 0.556177 0.732297
O O10 0.258001 0.750000 0.843299
O O11 0.274614 0.651499 0.962020
O O12 0.825660 0.500000 0.500000
#
# Coordination Sequence:
#
# PCOD9533807 Si02
#       6
#    16   8   8   8  16  16
#     4  11  18  34  53  76  99 131 168 207 249 290
#     4  10  14  27  54  75 102 121 160 216 253 285
#     4  10  16  31  51  76 107 128 156 207 260 298
#     4  10  18  31  50  83 100 119 170 208 252 290
#     4  11  22  33  48  76 109 137 164 198 249 307
#     4  10  17  30  52  72  98 134 167 207 246 288
#
# _framework density 18.579156000000001
#
# number of rings (size 3 to 8) (size 9 to 14) (size 15 to 20)
#    0.667    0.889    8.889    1.333    0.000    0.444 
#    0.000    5.556    0.000    0.667    0.000    0.000 
#    0.000    0.000    0.000    0.000    0.000    0.000 
#
# Total GULP energy -200568.472494 kJ/mol
# GULP energy per Si atom -5571.346458 kJ/mol
# Density = 1.853687 g / cm^3
# Si number density = 18.579156 Si / 1000 Ang^3
#
#
#
# Elastic Constant Matrix: (Units=GPa)
#
#
# Indices 1 2 3 4 5 6 
#
# 1 131.8132 -11.7599 58.3963 0.0000 0.0000 0.0000
# 2 -11.7599 14.3328 -9.2684 0.0000 0.0000 0.0000
# 3 58.3963 -9.2684 119.7903 0.0000 0.0000 0.0000
# 4 0.0000 0.0000 0.0000 -1.3861 0.0000 0.0000
# 5 0.0000 0.0000 0.0000 0.0000 34.5656 0.0000
# 6 0.0000 0.0000 0.0000 0.0000 0.0000 -2.9534
#
#
#
# Elastic Compliance Matrix: (Units=1/GPa)
#
#
# Indices 1 2 3 4 5 6 
#
# 1 0.010051 0.005346 -0.004486 0.000000 0.000000 0.000000
# 2 0.005346 0.076288 0.003297 0.000000 0.000000 0.000000
# 3 -0.004486 0.003297 0.010790 0.000000 0.000000 0.000000
# 4 0.000000 0.000000 0.000000 -0.721467 0.000000 0.000000
# 5 0.000000 0.000000 0.000000 0.000000 0.028930 0.000000
# 6 0.000000 0.000000 0.000000 0.000000 0.000000 -0.338588
#
#
# Mechanical properties :
#
#
# Convention : Reuss Voigt Hill
#
# Bulk Modulus (GPa) = 9.48396 37.85247 23.66821
# Shear Modulus (GPa) = -5.51170 21.28311 7.88571
#
# Velocity S-wave (km/s) = -1.72425 3.38825 2.06243
# Velocity P-wave (km/s) = 1.07315 5.97703 4.29398
#
# Compressibility (1/GPa) = 0.10544122
#
# Stress axis : x y z
#
# Youngs Moduli (GPa) = 99.49423 13.10821 92.67937
#
# Poissons Ratio (x) = -0.07007 0.41576
# Poissons Ratio (y) = -0.53186 -0.30553
# Poissons Ratio (z) = 0.44634 -0.04321
#
# Static dielectric constant tensor:
#      x y z
#    x 1.637620 0.000000 0.000000 
#    y 0.000000 1.684130 0.000000 
#    z 0.000000 0.000000 1.650540 
# 
# From -- ./inp_files/31947.got.cif
#   From: 2010.05.17/outbox.cif.g08.bks.cpg/sg74_16_cif.got.tgz:31947.got - 2010.06.03 17:57:02.
