data_PCOD9533511
_publ_section_title
;
Structure prediction by ZEFSAII (Michael W. Deem and Ramdas Pophale) SiO2 
 PCOD9533511
Probable space group: I B C A 
;
_chemical_formula_sum "Si O2"
_cell_formula_units_Z 64
_cell_length_a 8.638261
_cell_length_b 19.668348
_cell_length_c 14.532518
_cell_angle_alpha 90.000000
_cell_angle_beta 90.000000
_cell_angle_gamma 90.000000
_cell_volume 2469.079509
_symmetry_space_group_name_H-M "I B C A "
_symmetry_group_IT_number 73
_symmetry_cell_setting 'orthorhombic'
loop_
_space_group_symop_operation_xyz
x,y,z
-x,1/2-y,z
x,-y,1/2-z
1/2-x,y,-z
-x,-y,-z
x,1/2+y,-z
-x,y,1/2+z
1/2+x,-y,z
1/2+x,1/2+y,1/2+z
1/2-x,-y,1/2+z
1/2+x,1/2-y,-z
-x,1/2+y,1/2-z
1/2-x,1/2-y,1/2-z
1/2+x,y,1/2-z
1/2-x,1/2+y,z
x,1/2-y,1/2+z
loop_
_atom_site_type_symbol
_atom_site_label
_atom_site_fract_x
_atom_site_fract_y
_atom_site_fract_z
Si Si1 0.562048 0.183661 0.884892
Si Si2 0.519757 0.527581 0.345153
Si Si3 0.894195 0.929851 0.964883
Si Si4 0.910655 0.819305 0.689798
O O1 0.500000 0.250000 0.936050
O O2 0.538636 0.119226 0.948956
O O3 0.439492 0.178339 0.800144
O O4 0.767056 0.314037 0.657819
O O5 0.588122 0.500000 0.250000
O O6 0.384831 0.473030 0.370281
O O7 0.601955 0.523154 0.444347
O O8 0.750000 0.884033 0.000000
O O9 0.025102 0.893468 0.161338
O O10 0.000000 0.750000 0.660856
#
# Coordination Sequence:
#
# PCOD9533511 Si02
#       4
#    16  16  16  16
#     4  11  25  48  76 115 158 207 262 321 393 467
#     4  11  26  48  76 106 155 202 256 325 398 462
#     4  11  28  45  76 117 151 201 266 322 392 477
#     4  11  25  45  80 113 152 208 264 314 394 471
#
# _framework density 25.920593
#
# number of rings (size 3 to 8) (size 9 to 14) (size 15 to 20)
#    0.000    1.000    2.500    3.000   14.000    2.000 
#    0.000    0.000    0.000    0.000    0.000    0.000 
#    0.000    0.000    0.000    0.000    0.000    0.000 
#
# Total GULP energy -178341.893826 kJ/mol
# GULP energy per Si atom -5573.184182 kJ/mol
# Density = 2.586160 g / cm^3
# Si number density = 25.920593 Si / 1000 Ang^3
#
#
#
# Elastic Constant Matrix: (Units=GPa)
#
#
# Indices 1 2 3 4 5 6 
#
# 1 93.4008 31.3016 35.3591 0.0000 0.0000 0.0000
# 2 31.3016 213.3331 38.9211 0.0000 0.0000 0.0000
# 3 35.3591 38.9211 135.2339 0.0000 0.0000 0.0000
# 4 0.0000 0.0000 0.0000 8.0051 0.0000 0.0000
# 5 0.0000 0.0000 0.0000 0.0000 19.1231 0.0000
# 6 0.0000 0.0000 0.0000 0.0000 0.0000 8.0491
#
#
#
# Elastic Compliance Matrix: (Units=1/GPa)
#
#
# Indices 1 2 3 4 5 6 
#
# 1 0.012203 -0.001275 -0.002824 0.000000 0.000000 0.000000
# 2 -0.001275 0.005081 -0.001129 0.000000 0.000000 0.000000
# 3 -0.002824 -0.001129 0.008458 0.000000 0.000000 0.000000
# 4 0.000000 0.000000 0.000000 0.124920 0.000000 0.000000
# 5 0.000000 0.000000 0.000000 0.000000 0.052293 0.000000
# 6 0.000000 0.000000 0.000000 0.000000 0.000000 0.124238
#
#
# Mechanical properties :
#
#
# Convention : Reuss Voigt Hill
#
# Bulk Modulus (GPa) = 65.42017 72.57016 68.99517
# Shear Modulus (GPa) = 14.58822 29.46119 22.02471
#
# Velocity S-wave (km/s) = 2.37492 3.37500 2.91812
# Velocity P-wave (km/s) = 5.72834 6.57612 6.16681
#
# Compressibility (1/GPa) = 0.01528580
#
# Stress axis : x y z
#
# Youngs Moduli (GPa) = 81.94779 196.82846 118.23503
#
# Poissons Ratio (x) = 0.25102 0.33385
# Poissons Ratio (y) = 0.10451 0.13346
# Poissons Ratio (z) = 0.23139 0.22217
#
# Static dielectric constant tensor:
#      x y z
#    x 3.134740 0.000000 0.000000 
#    y 0.000000 2.232560 0.000000 
#    z 0.000000 0.000000 2.034060 
# 
# From -- ./inp_files/15873.got.cif
#   From: 2010.05.17/outbox.cif.g08.bks.cpg/sg73_8_cif.got.tgz:15873.got - 2010.06.03 17:35:07.
