data_PCOD9533159
_publ_section_title
;
Structure prediction by ZEFSAII (Michael W. Deem and Ramdas Pophale) SiO2 
 PCOD9533159
Probable space group: I B C A 
;
_chemical_formula_sum "Si O2"
_cell_formula_units_Z 80
_cell_length_a 26.907787
_cell_length_b 16.309774
_cell_length_c 7.022276
_cell_angle_alpha 90.000000
_cell_angle_beta 90.000000
_cell_angle_gamma 90.000000
_cell_volume 3081.795517
_symmetry_space_group_name_H-M "I B C A "
_symmetry_group_IT_number 73
_symmetry_cell_setting 'orthorhombic'
loop_
_space_group_symop_operation_xyz
x,y,z
-x,1/2-y,z
x,-y,1/2-z
1/2-x,y,-z
-x,-y,-z
x,1/2+y,-z
-x,y,1/2+z
1/2+x,-y,z
1/2+x,1/2+y,1/2+z
1/2-x,-y,1/2+z
1/2+x,1/2-y,-z
-x,1/2+y,1/2-z
1/2-x,1/2-y,1/2-z
1/2+x,y,1/2-z
1/2-x,1/2+y,z
x,1/2-y,1/2+z
loop_
_atom_site_type_symbol
_atom_site_label
_atom_site_fract_x
_atom_site_fract_y
_atom_site_fract_z
Si Si1 0.342067 0.138733 0.346231
Si Si2 0.760028 0.847936 0.777657
Si Si3 0.530335 0.333661 0.013297
Si Si4 0.058570 0.081216 0.628898
Si Si5 0.637535 0.169241 0.404304
O O1 0.385412 0.086735 0.445685
O O2 0.351482 0.232968 0.408759
O O3 0.284121 0.114518 0.350226
O O4 0.351934 0.135485 0.116484
O O5 0.750000 0.750000 0.750000
O O6 0.819254 0.863372 0.762164
O O7 0.750000 0.366042 0.000000
O O8 0.500000 0.250000 0.000612
O O9 0.488929 0.404456 0.000258
O O10 0.578200 0.342340 0.874994
O O11 0.552537 0.342990 0.223495
O O12 0.055726 0.000000 0.750000
#
# Coordination Sequence:
#
# PCOD9533159 Si02
#       5
#    16  16  16  16  16
#     4   9  17  30  49  73 101 130 166 211 262 310
#     4   8  14  26  44  71  99 122 157 209 261 298
#     4  11  21  35  55  77 105 141 186 226 263 314
#     4  11  23  36  51  76 109 144 176 218 275 324
#     4   9  17  28  49  76  98 127 170 219 258 294
#
# _framework density 25.958894000000001
#
# number of rings (size 3 to 8) (size 9 to 14) (size 15 to 20)
#    0.000    2.400    2.000    1.200    2.800    0.000 
#    0.000    0.000    0.000    1.200    0.000   58.800 
#    0.000    0.000    0.000    0.000    0.000    0.000 
#
# Total GULP energy -223172.957019 kJ/mol
# GULP energy per Si atom -5579.323925 kJ/mol
# Density = 2.589981 g / cm^3
# Si number density = 25.958894 Si / 1000 Ang^3
#
#
#
# Elastic Constant Matrix: (Units=GPa)
#
#
# Indices 1 2 3 4 5 6 
#
# 1 265.9793 25.0084 62.8390 0.0000 0.0000 0.0000
# 2 25.0084 36.7407 1.0893 0.0000 0.0000 0.0000
# 3 62.8390 1.0893 47.1513 0.0000 0.0000 0.0000
# 4 0.0000 0.0000 0.0000 13.4539 0.0000 0.0000
# 5 0.0000 0.0000 0.0000 0.0000 52.2965 0.0000
# 6 0.0000 0.0000 0.0000 0.0000 0.0000 -0.4616
#
#
#
# Elastic Compliance Matrix: (Units=1/GPa)
#
#
# Indices 1 2 3 4 5 6 
#
# 1 0.005984 -0.003839 -0.007886 0.000000 0.000000 0.000000
# 2 -0.003839 0.029700 0.004430 0.000000 0.000000 0.000000
# 3 -0.007886 0.004430 0.031616 0.000000 0.000000 0.000000
# 4 0.000000 0.000000 0.000000 0.074328 0.000000 0.000000
# 5 0.000000 0.000000 0.000000 0.000000 0.019122 0.000000
# 6 0.000000 0.000000 0.000000 0.000000 0.000000 -2.166277
#
#
# Mechanical properties :
#
#
# Convention : Reuss Voigt Hill
#
# Bulk Modulus (GPa) = 18.97191 58.63830 38.80511
# Shear Modulus (GPa) = -2.53374 30.45340 13.95983
#
# Velocity S-wave (km/s) = -0.98903 3.42883 2.32150
# Velocity P-wave (km/s) = 2.45358 6.18981 4.70818
#
# Compressibility (1/GPa) = 0.05270949
#
# Stress axis : x y z
#
# Youngs Moduli (GPa) = 167.11935 33.67044 31.63000
#
# Poissons Ratio (x) = 0.12927 0.24943
# Poissons Ratio (y) = 0.64160 -0.14013
# Poissons Ratio (z) = 1.31789 -0.14917
#
# Static dielectric constant tensor:
#      x y z
#    x 2.318480 0.000000 0.000000 
#    y 0.000000 1.990500 0.000000 
#    z 0.000000 0.000000 2.153740 
# 
# From -- ./inp_files/14162.got.cif
#   From: 2010.05.17/outbox.cif.g08.bks.cpg/sg73_8_cif.got.tgz:14162.got - 2010.06.03 17:35:07.
