data_PCOD9533785
_publ_section_title
;
Structure prediction by ZEFSAII (Michael W. Deem and Ramdas Pophale) SiO2 
 PCOD9533785
Probable space group: I B C A 
;
_chemical_formula_sum "Si O2"
_cell_formula_units_Z 56
_cell_length_a 12.000000
_cell_length_b 30.000000
_cell_length_c 15.000000
_cell_angle_alpha 90.000000
_cell_angle_beta 90.000000
_cell_angle_gamma 90.000000
_cell_volume 5400.000000
_symmetry_space_group_name_H-M "I B C A "
_symmetry_group_IT_number 73
_symmetry_cell_setting 'orthorhombic'
loop_
_space_group_symop_operation_xyz
x,y,z
-x,1/2-y,z
x,-y,1/2-z
1/2-x,y,-z
-x,-y,-z
x,1/2+y,-z
-x,y,1/2+z
1/2+x,-y,z
1/2+x,1/2+y,1/2+z
1/2-x,-y,1/2+z
1/2+x,1/2-y,-z
-x,1/2+y,1/2-z
1/2-x,1/2-y,1/2-z
1/2+x,y,1/2-z
1/2-x,1/2+y,z
x,1/2-y,1/2+z
loop_
_atom_site_type_symbol
_atom_site_label
_atom_site_fract_x
_atom_site_fract_y
_atom_site_fract_z
Si Si1 0.319292 0.805464 0.575174
Si Si2 0.500000 0.250000 0.820092
Si Si3 0.750000 0.039121 0.500000
Si Si4 0.812296 0.823900 0.256239
Si Si5 0.542349 0.592894 0.187847
Si Si6 0.768024 0.472340 0.665337
Si Si7 0.872499 0.116054 0.835981
Si Si8 0.448153 0.888841 0.496205
O O1 0.250000 0.778734 0.500000
O O2 0.423654 0.781217 0.619420
O O3 0.239507 0.817413 0.658351
O O4 0.371157 0.846698 0.520718
O O5 0.402588 0.283031 0.774832
O O6 0.639734 0.070228 0.509256
O O7 0.755888 0.006605 0.415315
O O8 0.882238 0.868981 0.266775
O O9 0.702633 0.838804 0.318133
O O10 0.608190 0.546123 0.191076
O O11 0.428222 0.599861 0.242546
O O12 0.522701 0.603100 0.084106
O O13 0.723608 0.500000 0.750000
O O14 0.704665 0.426404 0.640268
O O15 0.970186 0.119165 0.911226
#
# Coordination Sequence:
#
# PCOD9533785 Si02
#       8
#    16   8   8  16  16  16  16  16
#     4  12  26  45  72 107 141 182 235 291 357 434
#     4  12  26  48  76 110 140 184 232 300 362 442
#     4  12  26  42  64 100 144 186 250 310 350 434
#     4  11  24  47  74 104 145 183 237 295 363 436
#     4  11  23  43  68  99 139 185 241 290 365 433
#     4  11  25  40  62 100 140 187 246 300 359 427
#     4  11  24  42  72 101 144 196 238 305 366 433
#     4  12  24  43  70  98 139 188 241 294 369 421
#
# _framework density 10.370369999999999
#
# number of rings (size 3 to 8) (size 9 to 14) (size 15 to 20)
#    0.000    0.571    3.571    3.857    2.000    8.571 
#    0.000    0.000    0.000    0.000    0.000    0.000 
#    0.000    0.000    0.000    0.000    0.000    0.000 
#
# Total GULP energy -312392.253016 kJ/mol
# GULP energy per Si atom -5578.433090 kJ/mol
# Density = 1.034677 g / cm^3
# Si number density = 10.370370 Si / 1000 Ang^3
#
#
#
# Elastic Constant Matrix: (Units=GPa)
#
#
# Indices 1 2 3 4 5 6 
#
# 1 124.5970 44.8633 58.6864 -0.0001 0.0000 0.0000
# 2 44.8633 97.4341 51.9369 0.0013 0.0000 0.0000
# 3 58.6864 51.9369 151.2197 -0.0028 0.0001 -0.0004
# 4 -0.0001 0.0013 -0.0028 -166.2269 0.0009 0.0052
# 5 0.0000 0.0000 0.0001 0.0009 40.5453 0.0001
# 6 0.0000 0.0000 -0.0004 0.0052 0.0001 38.4221
#
#
#
# Elastic Compliance Matrix: (Units=1/GPa)
#
#
# Indices 1 2 3 4 5 6 
#
# 1 0.010621 -0.003297 -0.002990 0.000000 0.000000 0.000000
# 2 -0.003297 0.013587 -0.003387 0.000000 0.000000 0.000000
# 3 -0.002990 -0.003387 0.008936 0.000000 0.000000 0.000000
# 4 0.000000 0.000000 0.000000 -0.006016 0.000000 0.000001
# 5 0.000000 0.000000 0.000000 0.000000 0.024664 0.000000
# 6 0.000000 0.000000 0.000000 0.000001 0.000000 0.026027
#
#
# Mechanical properties :
#
#
# Convention : Reuss Voigt Hill
#
# Bulk Modulus (GPa) = 72.47726 76.02491 74.25109
# Shear Modulus (GPa) = 49.13290 -2.93429 23.09930
#
# Velocity S-wave (km/s) = 4.87242 -1.19072 3.34086
# Velocity P-wave (km/s) = 8.16543 5.90288 7.12454
#
# Compressibility (1/GPa) = 0.01379743
#
# Stress axis : x y z
#
# Youngs Moduli (GPa) = 94.15221 73.60091 111.90219
#
# Poissons Ratio (x) = 0.24265 0.33454
# Poissons Ratio (y) = 0.31041 0.37901
# Poissons Ratio (z) = 0.28148 0.24928
#
# Static dielectric constant tensor:
#      x y z
#    x 1.836070 0.000000 0.000000 
#    y 0.000000 1.763690 0.000000 
#    z 0.000000 0.000000 1.749690 
# 
# From -- ./inp_files/16408.got.cif
#   From: 2010.05.17/outbox.ucp.g08.bks.cvg/sg73_9_cif.got.tgz:16408.got - 2010.06.11 16:36:03.
