data_PCOD9533496
_publ_section_title
;
Structure prediction by ZEFSAII (Michael W. Deem and Ramdas Pophale) SiO2 
 PCOD9533496
Probable space group: I B C A 
;
_chemical_formula_sum "Si O2"
_cell_formula_units_Z 96
_cell_length_a 24.869149
_cell_length_b 13.303795
_cell_length_c 12.727449
_cell_angle_alpha 90.000000
_cell_angle_beta 90.000000
_cell_angle_gamma 90.000000
_cell_volume 4210.928177
_symmetry_space_group_name_H-M "I B C A "
_symmetry_group_IT_number 73
_symmetry_cell_setting 'orthorhombic'
loop_
_space_group_symop_operation_xyz
x,y,z
-x,1/2-y,z
x,-y,1/2-z
1/2-x,y,-z
-x,-y,-z
x,1/2+y,-z
-x,y,1/2+z
1/2+x,-y,z
1/2+x,1/2+y,1/2+z
1/2-x,-y,1/2+z
1/2+x,1/2-y,-z
-x,1/2+y,1/2-z
1/2-x,1/2-y,1/2-z
1/2+x,y,1/2-z
1/2-x,1/2+y,z
x,1/2-y,1/2+z
loop_
_atom_site_type_symbol
_atom_site_label
_atom_site_fract_x
_atom_site_fract_y
_atom_site_fract_z
Si Si1 0.190495 0.721128 0.782971
Si Si2 0.118786 0.111827 0.792724
Si Si3 0.001950 0.086712 0.354699
Si Si4 0.141384 0.895555 0.465964
Si Si5 0.878429 0.918997 0.657777
Si Si6 0.521581 0.857399 0.092822
O O1 0.250000 0.750000 0.750000
O O2 0.149862 0.815222 0.786418
O O3 0.185646 0.654639 0.889650
O O4 0.166331 0.660190 0.684177
O O5 0.054342 0.125025 0.807845
O O6 0.126004 0.000000 0.750000
O O7 0.143794 0.122730 0.910102
O O8 0.061731 0.124675 0.326511
O O9 0.999530 0.120801 0.476013
O O10 0.006395 0.963495 0.350908
O O11 0.085492 0.851274 0.420681
O O12 0.132434 0.015485 0.445835
O O13 0.873281 0.000000 0.750000
O O14 0.500000 0.750000 0.130828
#
# Coordination Sequence:
#
# PCOD9533496 Si02
#       6
#    16  16  16  16  16  16
#     4  11  26  45  66  95 130 182 244 287 335 409
#     4  11  25  41  66 103 138 171 225 286 346 423
#     4   9  19  35  57 102 136 172 220 269 349 436
#     4   9  22  44  65  98 133 180 218 283 347 409
#     4   9  19  40  67  92 133 176 220 276 351 419
#     4   9  18  32  62  94 139 178 210 269 346 430
#
# _framework density 22.797823000000001
#
# number of rings (size 3 to 8) (size 9 to 14) (size 15 to 20)
#    0.000    2.333    0.000    1.500    7.000    4.000 
#    0.000    0.000    0.000    0.000    0.000    0.000 
#    0.000    0.000    0.000    0.000    0.000    0.000 
#
# Total GULP energy -267988.341489 kJ/mol
# GULP energy per Si atom -5583.090448 kJ/mol
# Density = 2.274593 g / cm^3
# Si number density = 22.797823 Si / 1000 Ang^3
#
#
#
# Elastic Constant Matrix: (Units=GPa)
#
#
# Indices 1 2 3 4 5 6 
#
# 1 149.5474 54.5405 27.5568 0.0000 0.0000 0.0000
# 2 54.5405 110.6243 26.9618 0.0000 0.0000 0.0000
# 3 27.5568 26.9618 86.5807 0.0000 0.0000 0.0000
# 4 0.0000 0.0000 0.0000 26.4308 0.0000 0.0000
# 5 0.0000 0.0000 0.0000 0.0000 25.0247 0.0000
# 6 0.0000 0.0000 0.0000 0.0000 0.0000 28.9319
#
#
#
# Elastic Compliance Matrix: (Units=1/GPa)
#
#
# Indices 1 2 3 4 5 6 
#
# 1 0.008325 -0.003743 -0.001484 0.000000 0.000000 0.000000
# 2 -0.003743 0.011465 -0.002379 0.000000 0.000000 0.000000
# 3 -0.001484 -0.002379 0.012763 0.000000 0.000000 0.000000
# 4 0.000000 0.000000 0.000000 0.037835 0.000000 0.000000
# 5 0.000000 0.000000 0.000000 0.000000 0.039961 0.000000
# 6 0.000000 0.000000 0.000000 0.000000 0.000000 0.034564
#
#
# Mechanical properties :
#
#
# Convention : Reuss Voigt Hill
#
# Bulk Modulus (GPa) = 57.66617 62.76341 60.21479
# Shear Modulus (GPa) = 30.13776 31.92369 31.03072
#
# Velocity S-wave (km/s) = 3.63982 3.74611 3.69335
# Velocity P-wave (km/s) = 6.55850 6.80451 6.68263
#
# Compressibility (1/GPa) = 0.01734119
#
# Stress axis : x y z
#
# Youngs Moduli (GPa) = 120.11461 87.22404 78.35069
#
# Poissons Ratio (x) = 0.32647 0.11629
# Poissons Ratio (y) = 0.44957 0.18639
# Poissons Ratio (z) = 0.17828 0.20750
#
# Static dielectric constant tensor:
#      x y z
#    x 1.807000 0.000000 0.000000 
#    y 0.000000 1.952490 0.000000 
#    z 0.000000 0.000000 1.984900 
# 
# From -- ./inp_files/26906.got.cif
#   From: 2010.05.17/outbox.cif.g08.bks.cpg/sg73_14_cif.got.tgz:26906.got - 2010.06.03 17:35:07.
