data_PCOD9533692
_publ_section_title
;
Structure prediction by ZEFSAII (Michael W. Deem and Ramdas Pophale) SiO2 
 PCOD9533692
Probable space group: I B C A 
;
_chemical_formula_sum "Si O2"
_cell_formula_units_Z 56
_cell_length_a 19.795654
_cell_length_b 9.893754
_cell_length_c 12.209662
_cell_angle_alpha 90.000000
_cell_angle_beta 90.000000
_cell_angle_gamma 90.000000
_cell_volume 2391.302972
_symmetry_space_group_name_H-M "I B C A "
_symmetry_group_IT_number 73
_symmetry_cell_setting 'orthorhombic'
loop_
_space_group_symop_operation_xyz
x,y,z
-x,1/2-y,z
x,-y,1/2-z
1/2-x,y,-z
-x,-y,-z
x,1/2+y,-z
-x,y,1/2+z
1/2+x,-y,z
1/2+x,1/2+y,1/2+z
1/2-x,-y,1/2+z
1/2+x,1/2-y,-z
-x,1/2+y,1/2-z
1/2-x,1/2-y,1/2-z
1/2+x,y,1/2-z
1/2-x,1/2+y,z
x,1/2-y,1/2+z
loop_
_atom_site_type_symbol
_atom_site_label
_atom_site_fract_x
_atom_site_fract_y
_atom_site_fract_z
Si Si1 0.000000 0.750000 0.386841
Si Si2 0.618330 0.175165 0.555474
Si Si3 0.053327 0.500000 0.250000
Si Si4 0.791175 0.133598 0.812464
Si Si5 0.250000 0.472532 0.500000
O O1 0.061977 0.783553 0.468393
O O2 0.013113 0.621028 0.309326
O O3 0.646802 0.302051 0.623055
O O4 0.593638 0.070579 0.649222
O O5 0.683317 0.116573 0.491691
O O6 0.750000 0.250000 0.750000
O O7 0.814554 0.000000 0.750000
O O8 0.739157 0.069284 0.897973
#
# Coordination Sequence:
#
# PCOD9533692 Si02
#       5
#     8  16   8  16   8
#     4  12  30  56  82 118 158 218 272 332 396 480
#     4  12  27  52  80 121 160 208 269 332 400 476
#     4  12  28  54  84 110 162 214 268 326 406 478
#     4  12  26  47  80 117 161 210 261 328 406 474
#     4  12  26  48  80 118 162 204 262 340 394 474
#
# _framework density 23.418195999999998
#
# number of rings (size 3 to 8) (size 9 to 14) (size 15 to 20)
#    0.000    0.000    2.857    6.000    4.000    2.286 
#    2.571    0.000    0.000    0.000    0.000    0.000 
#    0.000    0.000    0.000    0.000    0.000    0.000 
#
# Total GULP energy -156785.446773 kJ/mol
# GULP energy per Si atom -5599.480242 kJ/mol
# Density = 2.336489 g / cm^3
# Si number density = 23.418196 Si / 1000 Ang^3
#
#
#
# Elastic Constant Matrix: (Units=GPa)
#
#
# Indices 1 2 3 4 5 6 
#
# 1 165.3220 92.7606 83.5448 0.0000 0.0000 0.0000
# 2 92.7606 205.8942 97.2989 0.0000 0.0000 0.0000
# 3 83.5448 97.2989 141.0473 0.0000 0.0000 0.0000
# 4 0.0000 0.0000 0.0000 97.2337 0.0000 0.0000
# 5 0.0000 0.0000 0.0000 0.0000 39.5458 0.0000
# 6 0.0000 0.0000 0.0000 0.0000 0.0000 35.3327
#
#
#
# Elastic Compliance Matrix: (Units=1/GPa)
#
#
# Indices 1 2 3 4 5 6 
#
# 1 0.009351 -0.002367 -0.003906 0.000000 0.000000 0.000000
# 2 -0.002367 0.007805 -0.003982 0.000000 0.000000 0.000000
# 3 -0.003906 -0.003982 0.012150 0.000000 0.000000 0.000000
# 4 0.000000 0.000000 0.000000 0.010285 0.000000 0.000000
# 5 0.000000 0.000000 0.000000 0.000000 0.025287 0.000000
# 6 0.000000 0.000000 0.000000 0.000000 0.000000 0.028302
#
#
# Mechanical properties :
#
#
# Convention : Reuss Voigt Hill
#
# Bulk Modulus (GPa) = 113.68524 117.71914 115.70219
# Shear Modulus (GPa) = 42.87354 50.33303 46.60328
#
# Velocity S-wave (km/s) = 4.28340 4.64110 4.46583
# Velocity P-wave (km/s) = 8.55070 8.89365 8.72386
#
# Compressibility (1/GPa) = 0.00879622
#
# Stress axis : x y z
#
# Youngs Moduli (GPa) = 106.94461 128.12113 82.30250
#
# Poissons Ratio (x) = 0.30326 0.32145
# Poissons Ratio (y) = 0.25314 0.32775
# Poissons Ratio (z) = 0.41770 0.51020
#
# Static dielectric constant tensor:
#      x y z
#    x 1.870400 0.000000 0.000000 
#    y 0.000000 1.899340 0.000000 
#    z 0.000000 0.000000 1.997670 
# 
# From -- ./inp_files/5863.got.cif
#   From: 2010.05.17/outbox.cif.g08.bks.cpg/sg73_3_cif.got.tgz:5863.got - 2010.06.03 17:35:07.
