data_PCOD9533117
_publ_section_title
;
Structure prediction by ZEFSAII (Michael W. Deem and Ramdas Pophale) SiO2 
 PCOD9533117
Probable space group: I B C A 
;
_chemical_formula_sum "Si O2"
_cell_formula_units_Z 48
_cell_length_a 22.685639
_cell_length_b 10.187973
_cell_length_c 7.981211
_cell_angle_alpha 90.000000
_cell_angle_beta 90.000000
_cell_angle_gamma 90.000000
_cell_volume 1844.622895
_symmetry_space_group_name_H-M "I B C A "
_symmetry_group_IT_number 73
_symmetry_cell_setting 'orthorhombic'
loop_
_space_group_symop_operation_xyz
x,y,z
-x,1/2-y,z
x,-y,1/2-z
1/2-x,y,-z
-x,-y,-z
x,1/2+y,-z
-x,y,1/2+z
1/2+x,-y,z
1/2+x,1/2+y,1/2+z
1/2-x,-y,1/2+z
1/2+x,1/2-y,-z
-x,1/2+y,1/2-z
1/2-x,1/2-y,1/2-z
1/2+x,y,1/2-z
1/2-x,1/2+y,z
x,1/2-y,1/2+z
loop_
_atom_site_type_symbol
_atom_site_label
_atom_site_fract_x
_atom_site_fract_y
_atom_site_fract_z
Si Si1 0.621235 0.297559 0.319174
Si Si2 0.807234 0.383070 0.383516
Si Si3 0.042005 0.376173 0.478169
O O1 0.639022 0.381636 0.481255
O O2 0.679211 0.250607 0.218828
O O3 0.588662 0.163251 0.377439
O O4 0.578282 0.369540 0.193029
O O5 0.804362 0.500000 0.250000
O O6 0.750000 0.383082 0.500000
O O7 0.000000 0.250000 0.475396
O O8 0.000000 0.500000 0.500000
#
# Coordination Sequence:
#
# PCOD9533117 Si02
#       3
#    16  16  16
#     4  10  26  50  79 115 167 206 269 345 411 493
#     4  11  26  51  81 116 153 214 270 346 418 493
#     4  11  26  48  79 118 161 216 267 329 403 492
#
# _framework density 26.021578000000002
#
# number of rings (size 3 to 8) (size 9 to 14) (size 15 to 20)
#    0.000    1.333    0.000    2.000    9.333   10.667 
#    6.000    1.667    0.000    0.000    0.000    0.000 
#    0.000    0.000    0.000    0.000    0.000    0.000 
#
# Total GULP energy -134587.692382 kJ/mol
# GULP energy per Si atom -5607.820516 kJ/mol
# Density = 2.596235 g / cm^3
# Si number density = 26.021578 Si / 1000 Ang^3
#
#
#
# Elastic Constant Matrix: (Units=GPa)
#
#
# Indices 1 2 3 4 5 6 
#
# 1 157.1573 81.5192 89.9918 0.0000 0.0000 0.0000
# 2 81.5192 181.6836 85.2025 0.0000 0.0000 0.0000
# 3 89.9918 85.2025 204.0461 0.0000 0.0000 0.0000
# 4 0.0000 0.0000 0.0000 45.2965 0.0000 0.0000
# 5 0.0000 0.0000 0.0000 0.0000 53.0080 0.0000
# 6 0.0000 0.0000 0.0000 0.0000 0.0000 18.0687
#
#
#
# Elastic Compliance Matrix: (Units=1/GPa)
#
#
# Indices 1 2 3 4 5 6 
#
# 1 0.009592 -0.002885 -0.003026 0.000000 0.000000 0.000000
# 2 -0.002885 0.007712 -0.001948 0.000000 0.000000 0.000000
# 3 -0.003026 -0.001948 0.007049 0.000000 0.000000 0.000000
# 4 0.000000 0.000000 0.000000 0.022077 0.000000 0.000000
# 5 0.000000 0.000000 0.000000 0.000000 0.018865 0.000000
# 6 0.000000 0.000000 0.000000 0.000000 0.000000 0.055344
#
#
# Mechanical properties :
#
#
# Convention : Reuss Voigt Hill
#
# Bulk Modulus (GPa) = 115.80010 117.36820 116.58415
# Shear Modulus (GPa) = 35.91058 42.35288 39.13173
#
# Velocity S-wave (km/s) = 3.71891 4.03874 3.88212
# Velocity P-wave (km/s) = 7.93968 8.18234 8.06192
#
# Compressibility (1/GPa) = 0.00863557
#
# Stress axis : x y z
#
# Youngs Moduli (GPa) = 104.25207 129.66854 141.86905
#
# Poissons Ratio (x) = 0.37408 0.42928
# Poissons Ratio (y) = 0.30075 0.27635
# Poissons Ratio (z) = 0.31545 0.25258
#
# Static dielectric constant tensor:
#      x y z
#    x 2.154240 0.000000 0.000000 
#    y 0.000000 2.034650 0.000000 
#    z 0.000000 0.000000 2.063530 
# 
# From -- ./inp_files/6747.got.cif
#   From: 2010.05.17/outbox.cif.g08.bks.cpg/sg73_4_cif.got.tgz:6747.got - 2010.06.03 17:35:07.
