data_PCOD9533602
_publ_section_title
;
Structure prediction by ZEFSAII (Michael W. Deem and Ramdas Pophale) SiO2 
 PCOD9533602
Probable space group: I B C A 
;
_chemical_formula_sum "Si O2"
_cell_formula_units_Z 112
_cell_length_a 12.578083
_cell_length_b 30.276016
_cell_length_c 13.805177
_cell_angle_alpha 90.000000
_cell_angle_beta 90.000000
_cell_angle_gamma 90.000000
_cell_volume 5257.208017
_symmetry_space_group_name_H-M "I B C A "
_symmetry_group_IT_number 73
_symmetry_cell_setting 'orthorhombic'
loop_
_space_group_symop_operation_xyz
x,y,z
-x,1/2-y,z
x,-y,1/2-z
1/2-x,y,-z
-x,-y,-z
x,1/2+y,-z
-x,y,1/2+z
1/2+x,-y,z
1/2+x,1/2+y,1/2+z
1/2-x,-y,1/2+z
1/2+x,1/2-y,-z
-x,1/2+y,1/2-z
1/2-x,1/2-y,1/2-z
1/2+x,y,1/2-z
1/2-x,1/2+y,z
x,1/2-y,1/2+z
loop_
_atom_site_type_symbol
_atom_site_label
_atom_site_fract_x
_atom_site_fract_y
_atom_site_fract_z
Si Si1 0.669978 0.209502 0.759488
Si Si2 0.769623 0.862049 0.605646
Si Si3 0.000000 0.250000 0.594896
Si Si4 0.784348 0.000000 0.750000
Si Si5 0.477894 0.995559 0.888252
Si Si6 0.011249 0.892856 0.633844
Si Si7 0.130298 0.682190 0.040432
Si Si8 0.123780 0.927454 0.802718
O O1 0.750000 0.250000 0.750000
O O2 0.736897 0.170302 0.808253
O O3 0.578330 0.223092 0.834536
O O4 0.629966 0.199552 0.651189
O O5 0.750000 0.841041 0.500000
O O6 0.890388 0.876912 0.623500
O O7 0.688483 0.903345 0.612039
O O8 0.936282 0.215302 0.527451
O O9 0.860090 0.001642 0.843873
O O10 0.713283 0.955982 0.753451
O O11 0.542459 0.035358 0.838791
O O12 0.514905 0.945633 0.871131
O O13 0.500000 0.000000 0.000000
O O14 0.077383 0.866172 0.553410
O O15 0.064844 0.889490 0.740359
O O16 0.250000 0.679530 0.000000
#
# Coordination Sequence:
#
# PCOD9533602 Si02
#       8
#    16  16   8   8  16  16  16  16
#     4  12  28  49  78 108 145 198 239 305 374 439
#     4  12  27  47  75 110 149 192 245 304 370 444
#     4  12  28  50  82 104 148 192 246 302 372 458
#     4  12  22  44  70  96 144 190 240 302 356 422
#     4  12  25  43  70 102 138 194 247 291 358 431
#     4  12  25  47  70 106 146 191 241 302 368 434
#     4  12  28  49  74 113 149 185 246 301 370 447
#     4  12  23  46  72 102 147 193 243 302 365 430
#
# _framework density 21.304084
#
# number of rings (size 3 to 8) (size 9 to 14) (size 15 to 20)
#    0.000    0.000    7.143    2.143    6.000    1.143 
#    5.143    0.000    0.000    0.000    0.000    0.000 
#    0.000    0.000    0.000    0.000    0.000    0.000 
#
# Total GULP energy -312974.283982 kJ/mol
# GULP energy per Si atom -5588.826500 kJ/mol
# Density = 2.125560 g / cm^3
# Si number density = 21.304084 Si / 1000 Ang^3
#
#
#
# Elastic Constant Matrix: (Units=GPa)
#
#
# Indices 1 2 3 4 5 6 
#
# 1 154.8259 52.5508 66.5651 0.0003 0.0001 0.0000
# 2 52.5508 88.1970 32.5187 0.0001 0.0001 0.0001
# 3 66.5651 32.5187 146.5145 0.0013 0.0005 0.0003
# 4 0.0003 0.0001 0.0013 38.3842 0.0000 0.0001
# 5 0.0001 0.0001 0.0005 0.0000 17.6254 0.0001
# 6 0.0000 0.0001 0.0003 0.0001 0.0001 23.3744
#
#
#
# Elastic Compliance Matrix: (Units=1/GPa)
#
#
# Indices 1 2 3 4 5 6 
#
# 1 0.009349 -0.004361 -0.003280 0.000000 0.000000 0.000000
# 2 -0.004361 0.014383 -0.001211 0.000000 0.000000 0.000000
# 3 -0.003280 -0.001211 0.008584 0.000000 0.000000 0.000000
# 4 0.000000 0.000000 0.000000 0.026052 0.000000 0.000000
# 5 0.000000 0.000000 0.000000 0.000000 0.056736 0.000000
# 6 0.000000 0.000000 0.000000 0.000000 0.000000 0.042782
#
#
# Mechanical properties :
#
#
# Convention : Reuss Voigt Hill
#
# Bulk Modulus (GPa) = 68.43268 76.97852 72.70560
# Shear Modulus (GPa) = 27.70672 31.73700 29.72186
#
# Velocity S-wave (km/s) = 3.61021 3.86387 3.73919
# Velocity P-wave (km/s) = 7.04058 7.49117 7.26937
#
# Compressibility (1/GPa) = 0.01461290
#
# Stress axis : x y z
#
# Youngs Moduli (GPa) = 106.96104 69.52474 116.49568
#
# Poissons Ratio (x) = 0.30322 0.38206
# Poissons Ratio (y) = 0.46650 0.14106
# Poissons Ratio (z) = 0.35079 0.08419
#
# Static dielectric constant tensor:
#      x y z
#    x 1.769690 0.000000 0.000000 
#    y 0.000000 1.806290 0.000000 
#    z 0.000000 0.000000 1.847570 
# 
# From -- ./inp_files/16390.got.cif
#   From: 2010.05.17/outbox.cif.g08.bks.cpg/sg73_9_cif.got.tgz:16390.got - 2010.06.03 17:35:07.
