data_PCOD9533330
_publ_section_title
;
Structure prediction by ZEFSAII (Michael W. Deem and Ramdas Pophale) SiO2 
 PCOD9533330
Probable space group: I B C A 
;
_chemical_formula_sum "Si O2"
_cell_formula_units_Z 112
_cell_length_a 32.601266
_cell_length_b 13.467259
_cell_length_c 11.936842
_cell_angle_alpha 90.000000
_cell_angle_beta 90.000000
_cell_angle_gamma 90.000000
_cell_volume 5240.866815
_symmetry_space_group_name_H-M "I B C A "
_symmetry_group_IT_number 73
_symmetry_cell_setting 'orthorhombic'
loop_
_space_group_symop_operation_xyz
x,y,z
-x,1/2-y,z
x,-y,1/2-z
1/2-x,y,-z
-x,-y,-z
x,1/2+y,-z
-x,y,1/2+z
1/2+x,-y,z
1/2+x,1/2+y,1/2+z
1/2-x,-y,1/2+z
1/2+x,1/2-y,-z
-x,1/2+y,1/2-z
1/2-x,1/2-y,1/2-z
1/2+x,y,1/2-z
1/2-x,1/2+y,z
x,1/2-y,1/2+z
loop_
_atom_site_type_symbol
_atom_site_label
_atom_site_fract_x
_atom_site_fract_y
_atom_site_fract_z
Si Si1 0.561107 0.394185 0.285426
Si Si2 0.816808 0.903450 0.400087
Si Si3 0.750000 0.761328 0.500000
Si Si4 0.095849 0.605375 0.527767
Si Si5 0.960847 0.562958 0.450673
Si Si6 0.392597 0.824653 0.399313
Si Si7 0.000000 0.250000 0.183966
Si Si8 0.195312 0.128535 0.859054
O O1 0.543538 0.500000 0.250000
O O2 0.567899 0.380682 0.416298
O O3 0.603011 0.378676 0.220487
O O4 0.533507 0.304824 0.242928
O O5 0.787679 0.831496 0.468874
O O6 0.860045 0.915797 0.468252
O O7 0.814989 0.860719 0.272736
O O8 0.798511 0.013277 0.386266
O O9 0.733815 0.692289 0.399265
O O10 0.070638 0.521602 0.596861
O O11 0.099509 0.707785 0.593848
O O12 0.927911 0.617317 0.532412
O O13 0.000000 0.500000 0.500000
O O14 0.979433 0.656419 0.381528
O O15 0.345342 0.840673 0.430328
#
# Coordination Sequence:
#
# PCOD9533330 Si02
#       8
#    16  16   8  16  16  16   8  16
#     4  12  23  42  65  92 123 178 227 268 331 402
#     4  11  23  42  68  98 134 171 224 270 334 413
#     4  12  24  42  68 104 134 172 218 284 342 386
#     4  12  23  41  68  96 132 172 226 278 328 410
#     4  12  22  41  66  93 132 173 221 275 334 388
#     4  12  23  40  68  94 125 178 223 271 332 400
#     4  12  26  40  64  96 136 172 226 288 336 394
#     4  11  23  41  69  99 130 176 223 271 334 411
#
# _framework density 21.370509999999999
#
# number of rings (size 3 to 8) (size 9 to 14) (size 15 to 20)
#    0.000    0.286    8.571    0.857    0.000    2.857 
#    0.000    0.000    0.000    0.000    0.000    0.000 
#    0.000    0.000    0.000    0.000    0.000    0.000 
#
# Total GULP energy -311946.455270 kJ/mol
# GULP energy per Si atom -5570.472416 kJ/mol
# Density = 2.132187 g / cm^3
# Si number density = 21.370510 Si / 1000 Ang^3
#
#
#
# Elastic Constant Matrix: (Units=GPa)
#
#
# Indices 1 2 3 4 5 6 
#
# 1 103.6076 40.2421 3.6519 0.0000 0.0000 0.0000
# 2 40.2421 141.2553 13.4708 0.0000 0.0000 0.0000
# 3 3.6519 13.4708 29.3258 0.0000 0.0000 0.0000
# 4 0.0000 0.0000 0.0000 21.8284 0.0000 0.0000
# 5 0.0000 0.0000 0.0000 0.0000 18.0735 0.0000
# 6 0.0000 0.0000 0.0000 0.0000 0.0000 42.4390
#
#
#
# Elastic Compliance Matrix: (Units=1/GPa)
#
#
# Indices 1 2 3 4 5 6 
#
# 1 0.010853 -0.003099 0.000072 0.000000 0.000000 0.000000
# 2 -0.003099 0.008288 -0.003421 0.000000 0.000000 0.000000
# 3 0.000072 -0.003421 0.035662 0.000000 0.000000 0.000000
# 4 0.000000 0.000000 0.000000 0.045812 0.000000 0.000000
# 5 0.000000 0.000000 0.000000 0.000000 0.055330 0.000000
# 6 0.000000 0.000000 0.000000 0.000000 0.000000 0.023563
#
#
# Mechanical properties :
#
#
# Convention : Reuss Voigt Hill
#
# Bulk Modulus (GPa) = 23.86225 43.21314 33.53769
# Shear Modulus (GPa) = 24.22787 30.92310 27.57549
#
# Velocity S-wave (km/s) = 3.37071 3.80807 3.59604
# Velocity P-wave (km/s) = 5.13216 6.29285 5.74191
#
# Compressibility (1/GPa) = 0.04190720
#
# Stress axis : x y z
#
# Youngs Moduli (GPa) = 92.14176 120.64971 28.04077
#
# Poissons Ratio (x) = 0.37386 -0.00202
# Poissons Ratio (y) = 0.28552 0.09594
# Poissons Ratio (z) = -0.00663 0.41279
#
# Static dielectric constant tensor:
#      x y z
#    x 1.858870 0.000000 0.000000 
#    y 0.000000 1.777950 0.000000 
#    z 0.000000 0.000000 1.831210 
# 
# From -- ./inp_files/20080.got.cif
#   From: 2010.05.17/outbox.cif.g08.bks.cpg/sg73_11_cif.got.tgz:20080.got - 2010.06.03 17:35:07.
