data_PCOD9533469
_publ_section_title
;
Structure prediction by ZEFSAII (Michael W. Deem and Ramdas Pophale) SiO2 
 PCOD9533469
Probable space group: I B C A 
;
_chemical_formula_sum "Si O2"
_cell_formula_units_Z 48
_cell_length_a 15.256595
_cell_length_b 14.375600
_cell_length_c 8.135523
_cell_angle_alpha 90.000000
_cell_angle_beta 90.000000
_cell_angle_gamma 90.000000
_cell_volume 1784.304928
_symmetry_space_group_name_H-M "I B C A "
_symmetry_group_IT_number 73
_symmetry_cell_setting 'orthorhombic'
loop_
_space_group_symop_operation_xyz
x,y,z
-x,1/2-y,z
x,-y,1/2-z
1/2-x,y,-z
-x,-y,-z
x,1/2+y,-z
-x,y,1/2+z
1/2+x,-y,z
1/2+x,1/2+y,1/2+z
1/2-x,-y,1/2+z
1/2+x,1/2-y,-z
-x,1/2+y,1/2-z
1/2-x,1/2-y,1/2-z
1/2+x,y,1/2-z
1/2-x,1/2+y,z
x,1/2-y,1/2+z
loop_
_atom_site_type_symbol
_atom_site_label
_atom_site_fract_x
_atom_site_fract_y
_atom_site_fract_z
Si Si1 0.835632 0.775745 0.861445
Si Si2 0.581454 0.883387 0.425034
Si Si3 0.878063 0.941780 0.081090
O O1 0.750000 0.750000 0.750000
O O2 0.899165 0.828247 0.738147
O O3 0.883116 0.683521 0.929952
O O4 0.832939 0.848322 0.015395
O O5 0.480252 0.911941 0.420521
O O6 0.634812 0.978703 0.444009
O O7 0.859334 0.000000 0.250000
#
# Coordination Sequence:
#
# PCOD9533469 Si02
#       3
#    16  16  16
#     4  12  26  48  77 117 167 214 266 340 429 508
#     4  11  24  46  77 112 154 210 277 345 411 491
#     4  11  24  47  81 115 152 208 281 352 412 490
#
# _framework density 26.901232
#
# number of rings (size 3 to 8) (size 9 to 14) (size 15 to 20)
#    0.000    0.667    0.000    9.000    0.000    2.667 
#    0.000   20.000    0.000    0.000    0.000    0.000 
#    0.000    0.000    0.000    0.000    0.000    0.000 
#
# Total GULP energy -134236.539656 kJ/mol
# GULP energy per Si atom -5593.189152 kJ/mol
# Density = 2.684000 g / cm^3
# Si number density = 26.901232 Si / 1000 Ang^3
#
#
#
# Elastic Constant Matrix: (Units=GPa)
#
#
# Indices 1 2 3 4 5 6 
#
# 1 97.1244 32.4713 47.7588 0.0000 0.0000 0.0000
# 2 32.4713 213.6813 79.4626 0.0000 0.0000 0.0000
# 3 47.7588 79.4626 174.6951 0.0000 0.0000 0.0000
# 4 0.0000 0.0000 0.0000 79.3274 0.0000 0.0000
# 5 0.0000 0.0000 0.0000 0.0000 48.8446 0.0000
# 6 0.0000 0.0000 0.0000 0.0000 0.0000 -79.1493
#
#
#
# Elastic Compliance Matrix: (Units=1/GPa)
#
#
# Indices 1 2 3 4 5 6 
#
# 1 0.011988 -0.000726 -0.002947 0.000000 0.000000 0.000000
# 2 -0.000726 0.005677 -0.002384 0.000000 0.000000 0.000000
# 3 -0.002947 -0.002384 0.007614 0.000000 0.000000 0.000000
# 4 0.000000 0.000000 0.000000 0.012606 0.000000 0.000000
# 5 0.000000 0.000000 0.000000 0.000000 0.020473 0.000000
# 6 0.000000 0.000000 0.000000 0.000000 0.000000 -0.012634
#
#
# Mechanical properties :
#
#
# Convention : Reuss Voigt Hill
#
# Bulk Modulus (GPa) = 75.95585 89.43180 82.69382
# Shear Modulus (GPa) = 80.35342 31.52511 55.93926
#
# Velocity S-wave (km/s) = 5.47126 3.42699 4.56503
# Velocity P-wave (km/s) = 8.25889 6.99826 7.65457
#
# Compressibility (1/GPa) = 0.01316554
#
# Stress axis : x y z
#
# Youngs Moduli (GPa) = 83.41729 176.16262 131.33321
#
# Poissons Ratio (x) = 0.12784 0.38707
# Poissons Ratio (y) = 0.06054 0.31306
# Poissons Ratio (z) = 0.24585 0.41991
#
# Static dielectric constant tensor:
#      x y z
#    x 2.172190 0.000000 0.000000 
#    y 0.000000 2.042350 0.000000 
#    z 0.000000 0.000000 2.211090 
# 
# From -- ./inp_files/5023.got.cif
#   From: 2010.05.17/outbox.cif.g08.bks.cpg/sg73_3_cif.got.tgz:5023.got - 2010.06.03 17:35:07.
