data_PCOD9533050
_publ_section_title
;
Structure prediction by ZEFSAII (Michael W. Deem and Ramdas Pophale) SiO2 
 PCOD9533050
Probable space group: I B C A 
;
_chemical_formula_sum "Si O2"
_cell_formula_units_Z 64
_cell_length_a 16.804424
_cell_length_b 11.611702
_cell_length_c 12.606584
_cell_angle_alpha 90.000000
_cell_angle_beta 90.000000
_cell_angle_gamma 90.000000
_cell_volume 2459.897066
_symmetry_space_group_name_H-M "I B C A "
_symmetry_group_IT_number 73
_symmetry_cell_setting 'orthorhombic'
loop_
_space_group_symop_operation_xyz
x,y,z
-x,1/2-y,z
x,-y,1/2-z
1/2-x,y,-z
-x,-y,-z
x,1/2+y,-z
-x,y,1/2+z
1/2+x,-y,z
1/2+x,1/2+y,1/2+z
1/2-x,-y,1/2+z
1/2+x,1/2-y,-z
-x,1/2+y,1/2-z
1/2-x,1/2-y,1/2-z
1/2+x,y,1/2-z
1/2-x,1/2+y,z
x,1/2-y,1/2+z
loop_
_atom_site_type_symbol
_atom_site_label
_atom_site_fract_x
_atom_site_fract_y
_atom_site_fract_z
Si Si1 0.415429 0.022604 0.945758
Si Si2 0.853391 0.044106 0.140641
Si Si3 0.411785 0.232775 0.785170
Si Si4 0.799899 0.676136 0.106759
O O1 0.410740 0.113376 0.851115
O O2 0.377836 0.900501 0.915735
O O3 0.500000 0.000000 0.000000
O O4 0.362159 0.050565 0.049248
O O5 0.899801 0.165476 0.128889
O O6 0.762469 0.080929 0.148403
O O7 0.887543 0.000000 0.250000
O O8 0.500000 0.250000 0.737159
O O9 0.337081 0.247410 0.704651
O O10 0.750000 0.718014 0.000000
#
# Coordination Sequence:
#
# PCOD9533050 Si02
#       4
#    16  16  16  16
#     4  11  24  45  71 107 156 200 263 322 395 480
#     4  11  25  46  71 109 153 204 265 328 397 476
#     4  12  25  44  78 115 155 210 264 331 411 486
#     4  10  25  49  75 107 154 208 263 332 399 484
#
# _framework density 26.017347999999998
#
# number of rings (size 3 to 8) (size 9 to 14) (size 15 to 20)
#    0.000    1.000    2.500    3.000    3.500    4.000 
#    0.000    7.500    0.000    0.000    0.000    0.000 
#    0.000    0.000    0.000    0.000    0.000    0.000 
#
# Total GULP energy -178358.776238 kJ/mol
# GULP energy per Si atom -5573.711757 kJ/mol
# Density = 2.595813 g / cm^3
# Si number density = 26.017348 Si / 1000 Ang^3
#
#
#
# Elastic Constant Matrix: (Units=GPa)
#
#
# Indices 1 2 3 4 5 6 
#
# 1 162.6006 33.6854 25.4659 0.0000 0.0000 0.0000
# 2 33.6854 57.1626 53.0244 0.0000 0.0000 0.0000
# 3 25.4659 53.0244 136.1230 0.0000 0.0000 0.0000
# 4 0.0000 0.0000 0.0000 50.3442 0.0000 0.0000
# 5 0.0000 0.0000 0.0000 0.0000 58.4332 0.0000
# 6 0.0000 0.0000 0.0000 0.0000 0.0000 36.7271
#
#
#
# Elastic Compliance Matrix: (Units=1/GPa)
#
#
# Indices 1 2 3 4 5 6 
#
# 1 0.007024 -0.004573 0.000467 0.000000 0.000000 0.000000
# 2 -0.004573 0.030368 -0.010974 0.000000 0.000000 0.000000
# 3 0.000467 -0.010974 0.011534 0.000000 0.000000 0.000000
# 4 0.000000 0.000000 0.000000 0.019863 0.000000 0.000000
# 5 0.000000 0.000000 0.000000 0.000000 0.017114 0.000000
# 6 0.000000 0.000000 0.000000 0.000000 0.000000 0.027228
#
#
# Mechanical properties :
#
#
# Convention : Reuss Voigt Hill
#
# Bulk Modulus (GPa) = 53.28494 64.47083 58.87788
# Shear Modulus (GPa) = 33.43482 45.34829 39.39155
#
# Velocity S-wave (km/s) = 3.58871 4.17946 3.89530
# Velocity P-wave (km/s) = 6.13977 6.93716 6.55061
#
# Compressibility (1/GPa) = 0.01876703
#
# Stress axis : x y z
#
# Youngs Moduli (GPa) = 142.36574 32.92946 86.70312
#
# Poissons Ratio (x) = 0.15057 -0.04050
# Poissons Ratio (y) = 0.65097 0.95147
# Poissons Ratio (z) = -0.06649 0.36136
#
# Static dielectric constant tensor:
#      x y z
#    x 2.135180 0.000000 0.000000 
#    y 0.000000 2.027680 0.000000 
#    z 0.000000 0.000000 2.426960 
# 
# From -- ./inp_files/17620.got.cif
#   From: 2010.05.17/outbox.cif.g08.bks.cpg/sg73_9_cif.got.tgz:17620.got - 2010.06.03 17:35:07.
