data_PCOD9533619
_publ_section_title
;
Structure prediction by ZEFSAII (Michael W. Deem and Ramdas Pophale) SiO2 
 PCOD9533619
Probable space group: I B C A 
;
_chemical_formula_sum "Si O2"
_cell_formula_units_Z 104
_cell_length_a 17.827717
_cell_length_b 25.701766
_cell_length_c 8.998431
_cell_angle_alpha 90.000000
_cell_angle_beta 90.000000
_cell_angle_gamma 90.000000
_cell_volume 4123.115374
_symmetry_space_group_name_H-M "I B C A "
_symmetry_group_IT_number 73
_symmetry_cell_setting 'orthorhombic'
loop_
_space_group_symop_operation_xyz
x,y,z
-x,1/2-y,z
x,-y,1/2-z
1/2-x,y,-z
-x,-y,-z
x,1/2+y,-z
-x,y,1/2+z
1/2+x,-y,z
1/2+x,1/2+y,1/2+z
1/2-x,-y,1/2+z
1/2+x,1/2-y,-z
-x,1/2+y,1/2-z
1/2-x,1/2-y,1/2-z
1/2+x,y,1/2-z
1/2-x,1/2+y,z
x,1/2-y,1/2+z
loop_
_atom_site_type_symbol
_atom_site_label
_atom_site_fract_x
_atom_site_fract_y
_atom_site_fract_z
Si Si1 0.900020 0.187646 0.618407
Si Si2 0.918384 0.713447 0.704749
Si Si3 0.237545 0.833778 0.689238
Si Si4 0.998576 0.889878 0.766108
Si Si5 0.250000 0.929945 0.500000
Si Si6 0.338696 0.500000 0.250000
Si Si7 0.912080 0.568848 0.003471
Si Si8 0.750000 0.119175 0.000000
O O1 0.929757 0.228127 0.740446
O O2 0.936027 0.206663 0.467067
O O3 0.810406 0.189347 0.609494
O O4 0.921770 0.128465 0.655019
O O5 0.829122 0.705411 0.714074
O O6 0.950369 0.661960 0.785071
O O7 0.208471 0.886820 0.606383
O O8 0.266738 0.849186 0.852127
O O9 0.972195 0.897002 0.597528
O O10 0.044054 0.935774 0.847227
O O11 0.288854 0.965052 0.631633
O O12 0.393145 0.472978 0.130196
O O13 0.827667 0.588762 0.970028
#
# Coordination Sequence:
#
# PCOD9533619 Si02
#       8
#    16  16  16  16   8   8  16   8
#     4  12  26  45  67 109 151 198 264 314 370 461
#     4  12  27  42  71 107 148 203 257 316 375 455
#     4  12  25  46  75 107 155 201 252 321 397 461
#     4  12  26  47  74 101 157 206 247 313 396 456
#     4  12  25  48  79 118 156 192 256 341 404 469
#     4  12  28  48  80 120 150 196 270 334 396 484
#     4  12  27  50  77 114 152 204 258 324 398 470
#     4  12  23  46  81 108 140 206 256 311 384 475
#
# _framework density 25.223645000000001
#
# number of rings (size 3 to 8) (size 9 to 14) (size 15 to 20)
#    0.000    0.000    7.692    1.385    4.308    1.846 
#    0.000    0.000    0.000    0.000    0.000    0.000 
#    0.000    0.000    0.000    0.000    0.000    0.000 
#
# Total GULP energy -290039.689920 kJ/mol
# GULP energy per Si atom -5577.686345 kJ/mol
# Density = 2.516623 g / cm^3
# Si number density = 25.223645 Si / 1000 Ang^3
#
#
#
# Elastic Constant Matrix: (Units=GPa)
#
#
# Indices 1 2 3 4 5 6 
#
# 1 94.8438 13.1349 8.3243 0.0000 0.0000 0.0000
# 2 13.1349 68.2880 26.4465 0.0000 0.0000 0.0000
# 3 8.3243 26.4465 107.7804 0.0000 0.0000 0.0000
# 4 0.0000 0.0000 0.0000 40.9784 0.0000 0.0000
# 5 0.0000 0.0000 0.0000 0.0000 46.0217 0.0000
# 6 0.0000 0.0000 0.0000 0.0000 0.0000 25.2808
#
#
#
# Elastic Compliance Matrix: (Units=1/GPa)
#
#
# Indices 1 2 3 4 5 6 
#
# 1 0.010845 -0.001947 -0.000360 0.000000 0.000000 0.000000
# 2 -0.001947 0.016531 -0.003906 0.000000 0.000000 0.000000
# 3 -0.000360 -0.003906 0.010264 0.000000 0.000000 0.000000
# 4 0.000000 0.000000 0.000000 0.024403 0.000000 0.000000
# 5 0.000000 0.000000 0.000000 0.000000 0.021729 0.000000
# 6 0.000000 0.000000 0.000000 0.000000 0.000000 0.039556
#
#
# Mechanical properties :
#
#
# Convention : Reuss Voigt Hill
#
# Bulk Modulus (GPa) = 39.65853 40.74706 40.20280
# Shear Modulus (GPa) = 34.68422 37.32328 36.00375
#
# Velocity S-wave (km/s) = 3.71221 3.85085 3.78217
# Velocity P-wave (km/s) = 5.84217 5.99679 5.91998
#
# Compressibility (1/GPa) = 0.02521525
#
# Stress axis : x y z
#
# Youngs Moduli (GPa) = 92.20996 60.49259 97.42469
#
# Poissons Ratio (x) = 0.11775 0.03507
# Poissons Ratio (y) = 0.17949 0.38053
# Poissons Ratio (z) = 0.03319 0.23628
#
# Static dielectric constant tensor:
#      x y z
#    x 2.064750 0.000000 0.000000 
#    y 0.000000 2.049330 0.000000 
#    z 0.000000 0.000000 2.027340 
# 
# From -- ./inp_files/6595.got.cif
#   From: 2010.05.17/outbox.cif.g08.bks.cpg/sg73_4_cif.got.tgz:6595.got - 2010.06.03 17:35:07.
