data_PCOD9533124
_publ_section_title
;
Structure prediction by ZEFSAII (Michael W. Deem and Ramdas Pophale) SiO2 
 PCOD9533124
Probable space group: I B C A 
;
_chemical_formula_sum "Si O2"
_cell_formula_units_Z 56
_cell_length_a 9.965138
_cell_length_b 8.981694
_cell_length_c 23.795674
_cell_angle_alpha 90.000000
_cell_angle_beta 90.000000
_cell_angle_gamma 90.000000
_cell_volume 2129.803727
_symmetry_space_group_name_H-M "I B C A "
_symmetry_group_IT_number 73
_symmetry_cell_setting 'orthorhombic'
loop_
_space_group_symop_operation_xyz
x,y,z
-x,1/2-y,z
x,-y,1/2-z
1/2-x,y,-z
-x,-y,-z
x,1/2+y,-z
-x,y,1/2+z
1/2+x,-y,z
1/2+x,1/2+y,1/2+z
1/2-x,-y,1/2+z
1/2+x,1/2-y,-z
-x,1/2+y,1/2-z
1/2-x,1/2-y,1/2-z
1/2+x,y,1/2-z
1/2-x,1/2+y,z
x,1/2-y,1/2+z
loop_
_atom_site_type_symbol
_atom_site_label
_atom_site_fract_x
_atom_site_fract_y
_atom_site_fract_z
Si Si1 0.815172 0.500000 0.250000
Si Si2 0.000000 0.750000 0.519348
Si Si3 0.500000 0.750000 0.270745
Si Si4 0.395932 0.960672 0.574821
Si Si5 0.643082 0.485616 0.149746
O O1 0.912191 0.363846 0.234474
O O2 0.728262 0.564400 0.198880
O O3 0.085573 0.632998 0.555673
O O4 0.912500 0.645516 0.478529
O O5 0.584633 0.649057 0.313561
O O6 0.522393 0.936857 0.616670
O O7 0.254690 0.939191 0.604729
#
# Coordination Sequence:
#
# PCOD9533124 Si02
#       5
#     8   8   8  16  16
#     4  12  28  52  82 122 168 210 268 336 400 506
#     4  10  27  51  74 120 154 206 269 341 390 476
#     4  12  27  53  78 118 170 212 271 327 404 486
#     4  11  27  47  83 112 160 206 268 327 407 466
#     4  12  27  48  81 118 159 212 264 328 402 486
#
# _framework density 26.293503000000001
#
# number of rings (size 3 to 8) (size 9 to 14) (size 15 to 20)
#    0.000    0.571    2.857    2.571    4.000    8.000 
#    0.000    0.000    0.000    0.000    0.000    0.000 
#    0.000    0.000    0.000    0.000    0.000    0.000 
#
# Total GULP energy -157067.610426 kJ/mol
# GULP energy per Si atom -5609.557515 kJ/mol
# Density = 2.623366 g / cm^3
# Si number density = 26.293503 Si / 1000 Ang^3
#
#
#
# Elastic Constant Matrix: (Units=GPa)
#
#
# Indices 1 2 3 4 5 6 
#
# 1 141.8292 26.9761 45.9942 0.0000 0.0000 0.0000
# 2 26.9761 115.1171 19.2122 0.0000 0.0000 0.0000
# 3 45.9942 19.2122 123.3808 0.0000 0.0000 0.0000
# 4 0.0000 0.0000 0.0000 46.8080 0.0000 0.0000
# 5 0.0000 0.0000 0.0000 0.0000 17.5381 0.0000
# 6 0.0000 0.0000 0.0000 0.0000 0.0000 37.3207
#
#
#
# Elastic Compliance Matrix: (Units=1/GPa)
#
#
# Indices 1 2 3 4 5 6 
#
# 1 0.008252 -0.001458 -0.002849 0.000000 0.000000 0.000000
# 2 -0.001458 0.009176 -0.000885 0.000000 0.000000 0.000000
# 3 -0.002849 -0.000885 0.009305 0.000000 0.000000 0.000000
# 4 0.000000 0.000000 0.000000 0.021364 0.000000 0.000000
# 5 0.000000 0.000000 0.000000 0.000000 0.057019 0.000000
# 6 0.000000 0.000000 0.000000 0.000000 0.000000 0.026795
#
#
# Mechanical properties :
#
#
# Convention : Reuss Voigt Hill
#
# Bulk Modulus (GPa) = 61.16982 62.74358 61.95670
# Shear Modulus (GPa) = 33.84199 39.54299 36.69249
#
# Velocity S-wave (km/s) = 3.59149 3.88223 3.73969
# Velocity P-wave (km/s) = 6.36499 6.63402 6.50090
#
# Compressibility (1/GPa) = 0.01634793
#
# Stress axis : x y z
#
# Youngs Moduli (GPa) = 121.18197 108.97674 107.46973
#
# Poissons Ratio (x) = 0.15892 0.30620
# Poissons Ratio (y) = 0.17671 0.09514
# Poissons Ratio (z) = 0.34527 0.09647
#
# Static dielectric constant tensor:
#      x y z
#    x 2.143000 0.000000 0.000000 
#    y 0.000000 2.010590 0.000000 
#    z 0.000000 0.000000 2.020950 
# 
# From -- ./inp_files/8209.got.cif
#   From: 2010.05.17/outbox.cif.g08.bks.cpg/sg73_5_cif.got.tgz:8209.got - 2010.06.03 17:35:07.
