data_PCOD9533819
_publ_section_title
;
Structure prediction by ZEFSAII (Michael W. Deem and Ramdas Pophale) SiO2 
 PCOD9533819
Probable space group: I M M A
;
_chemical_formula_sum "Si O2"
_cell_formula_units_Z 96
_cell_length_a 24.921326
_cell_length_b 22.957003
_cell_length_c 7.173383
_cell_angle_alpha 90.000000
_cell_angle_beta 90.000000
_cell_angle_gamma 90.000000
_cell_volume 4104.028391
_symmetry_space_group_name_H-M "I M M A"
_symmetry_group_IT_number 74
_symmetry_cell_setting 'orthorhombic'
loop_
_space_group_symop_operation_xyz
x,y,z
-x,1/2-y,z
x,-y,-z
-x,1/2+y,-z
-x,-y,-z
x,1/2+y,-z
-x,y,z
x,1/2-y,z
1/2+x,1/2+y,1/2+z
1/2-x,-y,1/2+z
1/2+x,1/2-y,1/2-z
1/2-x,y,1/2-z
1/2-x,1/2-y,1/2-z
1/2+x,y,1/2-z
1/2-x,1/2+y,1/2+z
1/2+x,-y,1/2+z
loop_
_atom_site_type_symbol
_atom_site_label
_atom_site_fract_x
_atom_site_fract_y
_atom_site_fract_z
Si Si1 0.351783 0.413187 0.641738
Si Si2 0.058019 0.317726 0.387741
Si Si3 0.312364 0.473688 0.254242
Si Si4 0.786361 0.813833 0.032312
Si Si5 0.175761 0.848877 0.621685
Si Si6 0.061436 0.816748 0.063125
O O1 0.334546 0.443595 0.444685
O O2 0.348942 0.469379 0.774527
O O3 0.305879 0.364998 0.665367
O O4 0.404114 0.372346 0.629185
O O5 0.057158 0.250000 0.440692
O O6 0.115501 0.341364 0.450778
O O7 0.000000 0.343908 0.442845
O O8 0.060084 0.320257 0.162290
O O9 0.250000 0.493646 0.250000
O O10 0.311890 0.417431 0.123360
O O11 0.799051 0.750000 0.103402
O O12 0.817951 0.824368 0.834931
O O13 0.724302 0.817661 0.980674
O O14 0.079625 0.750000 0.108924
O O15 0.000000 0.821307 0.128095
#
# Coordination Sequence:
#
# PCOD9533819 Si02
#       6
#    16  16  16  16  16  16
#     4  10  18  27  43  61  83 121 144 173 212 259
#     4   9  15  22  34  54  83 112 134 163 211 262
#     4  10  18  30  39  55  85 115 148 175 206 250
#     4  10  16  23  40  62  80 102 136 181 216 252
#     4  10  15  25  37  57  81 110 137 172 208 253
#     4   9  16  26  40  60  87 114 142 175 210 253
#
# _framework density 23.391651
#
# number of rings (size 3 to 8) (size 9 to 14) (size 15 to 20)
#    0.000    2.333    6.667    3.500    0.000    0.000 
#    0.000    2.500    0.000    2.000    0.000    0.000 
#    0.000    5.333    0.000    3.833    0.000    2.833 
#
# Total GULP energy -267847.777834 kJ/mol
# GULP energy per Si atom -5580.162038 kJ/mol
# Density = 2.333841 g / cm^3
# Si number density = 23.391651 Si / 1000 Ang^3
#
#
#
# Elastic Constant Matrix: (Units=GPa)
#
#
# Indices 1 2 3 4 5 6 
#
# 1 207.8732 58.2473 -9.2501 0.0000 0.0000 0.0000
# 2 58.2473 199.6993 -2.0400 0.0000 0.0000 0.0000
# 3 -9.2501 -2.0400 65.0692 0.0000 0.0000 0.0000
# 4 0.0000 0.0000 0.0000 -20.6481 0.0000 0.0000
# 5 0.0000 0.0000 0.0000 0.0000 4.4122 0.0000
# 6 0.0000 0.0000 0.0000 0.0000 0.0000 40.5859
#
#
#
# Elastic Compliance Matrix: (Units=1/GPa)
#
#
# Indices 1 2 3 4 5 6 
#
# 1 0.005271 -0.001530 0.000701 0.000000 0.000000 0.000000
# 2 -0.001530 0.005453 -0.000047 0.000000 0.000000 0.000000
# 3 0.000701 -0.000047 0.015466 0.000000 0.000000 0.000000
# 4 0.000000 0.000000 0.000000 -0.048431 0.000000 0.000000
# 5 0.000000 0.000000 0.000000 0.000000 0.226645 0.000000
# 6 0.000000 0.000000 0.000000 0.000000 0.000000 0.024639
#
#
# Mechanical properties :
#
#
# Convention : Reuss Voigt Hill
#
# Bulk Modulus (GPa) = 40.91717 62.95067 51.93392
# Shear Modulus (GPa) = 20.92562 33.24895 27.08729
#
# Velocity S-wave (km/s) = 2.99419 3.77424 3.40662
# Velocity P-wave (km/s) = 5.42990 6.77962 6.14194
#
# Compressibility (1/GPa) = 0.02443962
#
# Stress axis : x y z
#
# Youngs Moduli (GPa) = 189.73231 183.37334 64.65595
#
# Poissons Ratio (x) = 0.28059 -0.04534
# Poissons Ratio (y) = 0.29032 0.00301
# Poissons Ratio (z) = -0.13306 0.00854
#
# Static dielectric constant tensor:
#      x y z
#    x 1.898030 0.000000 0.000000 
#    y 0.000000 1.842730 0.000000 
#    z 0.000000 0.000000 2.080660 
# 
# From -- ./inp_files/25491.got.cif
#   From: 2010.05.17/outbox.cif.g08.bks.cpg/sg74_13_cif.got.tgz:25491.got - 2010.06.03 17:57:02.
