data_PCOD9533603
_publ_section_title
;
Structure prediction by ZEFSAII (Michael W. Deem and Ramdas Pophale) SiO2 
 PCOD9533603
Probable space group: I B C A 
;
_chemical_formula_sum "Si O2"
_cell_formula_units_Z 64
_cell_length_a 14.745216
_cell_length_b 22.586299
_cell_length_c 8.849934
_cell_angle_alpha 90.000000
_cell_angle_beta 90.000000
_cell_angle_gamma 90.000000
_cell_volume 2947.380757
_symmetry_space_group_name_H-M "I B C A "
_symmetry_group_IT_number 73
_symmetry_cell_setting 'orthorhombic'
loop_
_space_group_symop_operation_xyz
x,y,z
-x,1/2-y,z
x,-y,1/2-z
1/2-x,y,-z
-x,-y,-z
x,1/2+y,-z
-x,y,1/2+z
1/2+x,-y,z
1/2+x,1/2+y,1/2+z
1/2-x,-y,1/2+z
1/2+x,1/2-y,-z
-x,1/2+y,1/2-z
1/2-x,1/2-y,1/2-z
1/2+x,y,1/2-z
1/2-x,1/2+y,z
x,1/2-y,1/2+z
loop_
_atom_site_type_symbol
_atom_site_label
_atom_site_fract_x
_atom_site_fract_y
_atom_site_fract_z
Si Si1 0.917823 0.933283 0.305942
Si Si2 0.073689 0.867009 0.491371
Si Si3 0.322104 0.197414 0.751917
Si Si4 0.250000 0.891081 0.000000
Si Si5 0.500000 0.750000 0.876556
O O1 0.829383 0.926976 0.413515
O O2 0.007377 0.909141 0.393036
O O3 0.931258 0.000000 0.250000
O O4 0.903700 0.895129 0.153355
O O5 0.159750 0.843361 0.397746
O O6 0.017923 0.807857 0.526216
O O7 0.250000 0.250000 0.750000
O O8 0.298810 0.151959 0.619146
O O9 0.414091 0.232936 0.721627
#
# Coordination Sequence:
#
# PCOD9533603 Si02
#       5
#    16  16  16   8   8
#     4  12  27  49  79 108 154 207 262 318 373 457
#     4  12  25  48  74 111 150 199 254 313 385 459
#     4  12  26  44  74 114 157 195 247 309 393 462
#     4  12  26  48  66 112 150 196 256 318 368 452
#     4  12  22  44  74 110 156 194 240 314 388 462
#
# _framework density 21.714195
#
# number of rings (size 3 to 8) (size 9 to 14) (size 15 to 20)
#    0.000    0.000    5.000    4.500    0.000    5.000 
#    0.000    1.250    0.000    0.000    0.000    0.000 
#    0.000    0.000    0.000    0.000    0.000    0.000 
#
# Total GULP energy -179095.409494 kJ/mol
# GULP energy per Si atom -5596.731547 kJ/mol
# Density = 2.166477 g / cm^3
# Si number density = 21.714195 Si / 1000 Ang^3
#
#
#
# Elastic Constant Matrix: (Units=GPa)
#
#
# Indices 1 2 3 4 5 6 
#
# 1 116.6462 33.1797 61.2422 0.0000 0.0000 0.0000
# 2 33.1797 139.9968 51.3113 0.0000 0.0000 0.0000
# 3 61.2422 51.3113 134.8037 -0.0001 0.0001 0.0000
# 4 0.0000 0.0000 -0.0001 54.9132 -0.0001 0.0000
# 5 0.0000 0.0000 0.0001 -0.0001 72.5103 0.0000
# 6 0.0000 0.0000 0.0000 0.0000 0.0000 26.7183
#
#
#
# Elastic Compliance Matrix: (Units=1/GPa)
#
#
# Indices 1 2 3 4 5 6 
#
# 1 0.011362 -0.000931 -0.004807 0.000000 0.000000 0.000000
# 2 -0.000931 0.008377 -0.002766 0.000000 0.000000 0.000000
# 3 -0.004807 -0.002766 0.010655 0.000000 0.000000 0.000000
# 4 0.000000 0.000000 0.000000 0.018211 0.000000 0.000000
# 5 0.000000 0.000000 0.000000 0.000000 0.013791 0.000000
# 6 0.000000 0.000000 0.000000 0.000000 0.000000 0.037427
#
#
# Mechanical properties :
#
#
# Convention : Reuss Voigt Hill
#
# Bulk Modulus (GPa) = 74.70504 75.87924 75.29214
# Shear Modulus (GPa) = 41.22237 47.20926 44.21581
#
# Velocity S-wave (km/s) = 4.36180 4.66780 4.51739
# Velocity P-wave (km/s) = 7.73599 8.00447 7.87138
#
# Compressibility (1/GPa) = 0.01338598
#
# Stress axis : x y z
#
# Youngs Moduli (GPa) = 88.01500 119.36935 93.85240
#
# Poissons Ratio (x) = 0.11110 0.45119
# Poissons Ratio (y) = 0.08192 0.25958
# Poissons Ratio (z) = 0.42312 0.33016
#
# Static dielectric constant tensor:
#      x y z
#    x 1.821450 0.000000 0.000000 
#    y 0.000000 1.748730 0.000000 
#    z 0.000000 0.000000 1.951200 
# 
# From -- ./inp_files/4668.got.cif
#   From: 2010.05.17/outbox.cif.g08.bks.cpg/sg73_3_cif.got.tgz:4668.got - 2010.06.03 17:35:07.
