data_PCOD9533455
_publ_section_title
;
Structure prediction by ZEFSAII (Michael W. Deem and Ramdas Pophale) SiO2 
 PCOD9533455
Probable space group: I B C A 
;
_chemical_formula_sum "Si O2"
_cell_formula_units_Z 88
_cell_length_a 19.900798
_cell_length_b 14.723900
_cell_length_c 14.230882
_cell_angle_alpha 90.000000
_cell_angle_beta 90.000000
_cell_angle_gamma 90.000000
_cell_volume 4169.895469
_symmetry_space_group_name_H-M "I B C A "
_symmetry_group_IT_number 73
_symmetry_cell_setting 'orthorhombic'
loop_
_space_group_symop_operation_xyz
x,y,z
-x,1/2-y,z
x,-y,1/2-z
1/2-x,y,-z
-x,-y,-z
x,1/2+y,-z
-x,y,1/2+z
1/2+x,-y,z
1/2+x,1/2+y,1/2+z
1/2-x,-y,1/2+z
1/2+x,1/2-y,-z
-x,1/2+y,1/2-z
1/2-x,1/2-y,1/2-z
1/2+x,y,1/2-z
1/2-x,1/2+y,z
x,1/2-y,1/2+z
loop_
_atom_site_type_symbol
_atom_site_label
_atom_site_fract_x
_atom_site_fract_y
_atom_site_fract_z
Si Si1 0.699023 0.682309 0.411843
Si Si2 0.200041 0.910125 0.296028
Si Si3 0.172949 0.504187 0.994241
Si Si4 0.000000 0.750000 0.377641
Si Si5 0.446757 0.894405 0.770574
Si Si6 0.410966 0.671600 0.459545
O O1 0.750000 0.696567 0.500000
O O2 0.746260 0.666692 0.321386
O O3 0.665504 0.583236 0.429179
O O4 0.643916 0.759404 0.416774
O O5 0.169103 0.943887 0.395001
O O6 0.134711 0.885903 0.236421
O O7 0.232416 0.000000 0.250000
O O8 0.123487 0.420955 0.994663
O O9 0.250000 0.470035 0.000000
O O10 0.021735 0.831545 0.309322
O O11 0.057612 0.719070 0.449643
O O12 0.461817 0.858314 0.875796
O O13 0.462899 0.000000 0.750000
#
# Coordination Sequence:
#
# PCOD9533455 Si02
#       6
#    16  16  16   8  16  16
#     4   9  20  36  61  99 130 162 211 260 328 410
#     4   9  16  37  62  90 135 161 198 267 333 399
#     4   9  18  36  62  94 128 162 205 257 335 401
#     4  12  28  46  64  96 126 174 248 274 316 398
#     4  11  24  46  68  96 132 177 222 280 344 386
#     4  12  23  42  69  90 129 179 218 276 333 388
#
# _framework density 21.103645
#
# number of rings (size 3 to 8) (size 9 to 14) (size 15 to 20)
#    0.000    2.182    3.636    3.273    0.000    1.455 
#    9.818    0.000    0.000    0.000    0.000    0.000 
#    0.000    0.000    0.000    0.000    0.000    0.000 
#
# Total GULP energy -245513.784468 kJ/mol
# GULP energy per Si atom -5579.858738 kJ/mol
# Density = 2.105561 g / cm^3
# Si number density = 21.103645 Si / 1000 Ang^3
#
#
#
# Elastic Constant Matrix: (Units=GPa)
#
#
# Indices 1 2 3 4 5 6 
#
# 1 27.9925 40.7531 8.6286 0.0000 0.0000 0.0000
# 2 40.7531 138.6419 44.0522 0.0000 0.0000 0.0000
# 3 8.6286 44.0522 69.9323 0.0000 0.0000 0.0000
# 4 0.0000 0.0000 0.0000 32.0088 0.0000 0.0000
# 5 0.0000 0.0000 0.0000 0.0000 21.6654 0.0000
# 6 0.0000 0.0000 0.0000 0.0000 0.0000 33.1764
#
#
#
# Elastic Compliance Matrix: (Units=1/GPa)
#
#
# Indices 1 2 3 4 5 6 
#
# 1 0.063777 -0.020312 0.004926 0.000000 0.000000 0.000000
# 2 -0.020312 0.015487 -0.007249 0.000000 0.000000 0.000000
# 3 0.004926 -0.007249 0.018258 0.000000 0.000000 0.000000
# 4 0.000000 0.000000 0.000000 0.031241 0.000000 0.000000
# 5 0.000000 0.000000 0.000000 0.000000 0.046157 0.000000
# 6 0.000000 0.000000 0.000000 0.000000 0.000000 0.030142
#
#
# Mechanical properties :
#
#
# Convention : Reuss Voigt Hill
#
# Bulk Modulus (GPa) = 19.13829 47.04829 33.09329
# Shear Modulus (GPa) = 18.67411 26.91232 22.79322
#
# Velocity S-wave (km/s) = 2.97791 3.57493 3.28999
# Velocity P-wave (km/s) = 4.57300 6.27555 5.49067
#
# Compressibility (1/GPa) = 0.05225129
#
# Stress axis : x y z
#
# Youngs Moduli (GPa) = 15.67961 64.57067 54.76950
#
# Poissons Ratio (x) = 1.31157 -0.26980
# Poissons Ratio (y) = 0.31849 0.39705
# Poissons Ratio (z) = -0.07724 0.46810
#
# Static dielectric constant tensor:
#      x y z
#    x 1.790010 0.000000 0.000000 
#    y 0.000000 1.756750 0.000000 
#    z 0.000000 0.000000 1.818220 
# 
# From -- ./inp_files/19328.got.cif
#   From: 2010.05.17/outbox.cif.g08.bks.cpg/sg73_10_cif.got.tgz:19328.got - 2010.06.03 17:35:07.
