data_PCOD9533924
_publ_section_title
;
Structure prediction by ZEFSAII (Michael W. Deem and Ramdas Pophale) SiO2 
 PCOD9533924
Probable space group: I M M A
;
_chemical_formula_sum "Si O2"
_cell_formula_units_Z 72
_cell_length_a 10.211412
_cell_length_b 25.424518
_cell_length_c 15.615418
_cell_angle_alpha 90.000000
_cell_angle_beta 90.000000
_cell_angle_gamma 90.000000
_cell_volume 4054.078385
_symmetry_space_group_name_H-M "I M M A"
_symmetry_group_IT_number 74
_symmetry_cell_setting 'orthorhombic'
loop_
_space_group_symop_operation_xyz
x,y,z
-x,1/2-y,z
x,-y,-z
-x,1/2+y,-z
-x,-y,-z
x,1/2+y,-z
-x,y,z
x,1/2-y,z
1/2+x,1/2+y,1/2+z
1/2-x,-y,1/2+z
1/2+x,1/2-y,1/2-z
1/2-x,y,1/2-z
1/2-x,1/2-y,1/2-z
1/2+x,y,1/2-z
1/2-x,1/2+y,1/2+z
1/2+x,-y,1/2+z
loop_
_atom_site_type_symbol
_atom_site_label
_atom_site_fract_x
_atom_site_fract_y
_atom_site_fract_z
Si Si1 0.500000 0.421944 0.373625
Si Si2 0.348271 0.750000 0.170404
Si Si3 0.723151 0.444499 0.043493
Si Si4 0.000000 0.309120 0.054205
Si Si5 0.500000 0.919463 0.821915
Si Si6 0.780464 0.831220 0.475572
Si Si7 0.000000 0.306642 0.385125
O O1 0.629362 0.441661 0.421406
O O2 0.500000 0.358217 0.381058
O O3 0.500000 0.438488 0.274908
O O4 0.500000 0.750000 0.197443
O O5 0.250000 0.750000 0.250000
O O6 0.322629 0.699198 0.109717
O O7 0.625715 0.436515 0.123217
O O8 0.696488 0.500000 0.000000
O O9 0.705009 0.394513 0.979826
O O10 0.000000 0.250000 0.090424
O O11 0.131335 0.316449 0.998173
O O12 0.500000 0.856039 0.823210
O O13 0.874820 0.811503 0.552155
O O14 0.000000 0.250000 0.342286
#
# Coordination Sequence:
#
# PCOD9533924 Si02
#       7
#     8   8  16   8   8  16   8
#     4  10  21  36  54  87 118 142 176 240 288 321
#     4  12  24  38  58  84 117 149 188 244 297 331
#     4  10  21  38  62  81 106 155 197 224 278 352
#     4  10  18  30  56  83 110 149 179 210 275 348
#     4  10  21  34  56  87 114 138 184 234 282 321
#     4  10  19  35  57  78 109 144 190 229 270 340
#     4  10  16  32  56  79 104 153 177 208 271 338
#
# _framework density 17.759893000000002
#
# number of rings (size 3 to 8) (size 9 to 14) (size 15 to 20)
#    0.000    1.778    3.333    1.333    1.556    0.444 
#    0.000    2.222    0.000    8.000    0.000    0.000 
#    0.000    0.000    0.000    0.000    0.000    0.000 
#
# Total GULP energy -200869.383616 kJ/mol
# GULP energy per Si atom -5579.705100 kJ/mol
# Density = 1.771947 g / cm^3
# Si number density = 17.759893 Si / 1000 Ang^3
#
#
#
# Elastic Constant Matrix: (Units=GPa)
#
#
# Indices 1 2 3 4 5 6 
#
# 1 113.5011 3.4956 11.0568 0.0000 0.0000 0.0000
# 2 3.4956 131.3238 26.3846 0.0000 0.0000 0.0000
# 3 11.0568 26.3846 68.6945 0.0000 0.0000 0.0000
# 4 0.0000 0.0000 0.0000 12.3569 0.0000 0.0000
# 5 0.0000 0.0000 0.0000 0.0000 15.5468 0.0000
# 6 0.0000 0.0000 0.0000 0.0000 0.0000 57.2082
#
#
#
# Elastic Compliance Matrix: (Units=1/GPa)
#
#
# Indices 1 2 3 4 5 6 
#
# 1 0.008951 0.000055 -0.001462 0.000000 0.000000 0.000000
# 2 0.000055 0.008252 -0.003178 0.000000 0.000000 0.000000
# 3 -0.001462 -0.003178 0.016013 0.000000 0.000000 0.000000
# 4 0.000000 0.000000 0.000000 0.080926 0.000000 0.000000
# 5 0.000000 0.000000 0.000000 0.000000 0.064322 0.000000
# 6 0.000000 0.000000 0.000000 0.000000 0.000000 0.017480
#
#
# Mechanical properties :
#
#
# Convention : Reuss Voigt Hill
#
# Bulk Modulus (GPa) = 41.58611 43.93260 42.75936
# Shear Modulus (GPa) = 23.45985 35.19454 29.32720
#
# Velocity S-wave (km/s) = 3.63842 4.45644 4.06805
# Velocity P-wave (km/s) = 6.41229 7.16034 6.79661
#
# Compressibility (1/GPa) = 0.02404649
#
# Stress axis : x y z
#
# Youngs Moduli (GPa) = 111.71677 121.18472 62.44813
#
# Poissons Ratio (x) = -0.00672 0.09130
# Poissons Ratio (y) = -0.00620 0.19848
# Poissons Ratio (z) = 0.16334 0.38517
#
# Static dielectric constant tensor:
#      x y z
#    x 1.611130 0.000000 0.000000 
#    y 0.000000 1.624430 0.000000 
#    z 0.000000 0.000000 1.551850 
# 
# From -- ./inp_files/29265.got.cif
#   From: 2010.05.17/outbox.cif.g08.bks.cpg/sg74_15_cif.got.tgz:29265.got - 2010.06.03 17:57:02.
