data_PCOD9533863
_publ_section_title
;
Structure prediction by ZEFSAII (Michael W. Deem and Ramdas Pophale) SiO2 
 PCOD9533863
Probable space group: I M M A
;
_chemical_formula_sum "Si O2"
_cell_formula_units_Z 80
_cell_length_a 17.641244
_cell_length_b 11.536994
_cell_length_c 22.636695
_cell_angle_alpha 90.000000
_cell_angle_beta 90.000000
_cell_angle_gamma 90.000000
_cell_volume 4607.176952
_symmetry_space_group_name_H-M "I M M A"
_symmetry_group_IT_number 74
_symmetry_cell_setting 'orthorhombic'
loop_
_space_group_symop_operation_xyz
x,y,z
-x,1/2-y,z
x,-y,-z
-x,1/2+y,-z
-x,-y,-z
x,1/2+y,-z
-x,y,z
x,1/2-y,z
1/2+x,1/2+y,1/2+z
1/2-x,-y,1/2+z
1/2+x,1/2-y,1/2-z
1/2-x,y,1/2-z
1/2-x,1/2-y,1/2-z
1/2+x,y,1/2-z
1/2-x,1/2+y,1/2+z
1/2+x,-y,1/2+z
loop_
_atom_site_type_symbol
_atom_site_label
_atom_site_fract_x
_atom_site_fract_y
_atom_site_fract_z
Si Si1 0.589302 0.379589 0.973160
Si Si2 0.411321 0.013213 0.276912
Si Si3 0.364666 0.002726 0.860290
Si Si4 0.339593 0.750000 0.736497
Si Si5 0.221125 0.880325 0.181885
Si Si6 0.090073 0.750000 0.633527
O O1 0.500000 0.377429 0.988769
O O2 0.619109 0.250000 0.987790
O O3 0.598250 0.403192 0.903174
O O4 0.622031 0.500000 0.000000
O O5 0.500000 0.021134 0.288668
O O6 0.366947 0.131819 0.292877
O O7 0.399444 0.994193 0.206035
O O8 0.366156 0.915872 0.312826
O O9 0.276205 0.032895 0.852752
O O10 0.379216 0.874457 0.886766
O O11 0.250000 0.750000 0.750000
O O12 0.385422 0.750000 0.797996
O O13 0.231481 0.750000 0.159752
O O14 0.250000 0.884498 0.250000
O O15 0.000000 0.750000 0.626934
#
# Coordination Sequence:
#
# PCOD9533863 Si02
#       6
#    16  16  16   8  16   8
#     4  10  21  34  48  67  91 121 156 197 240 281
#     4  10  18  28  44  67  93 123 156 193 231 276
#     4  10  18  31  47  64  90 124 157 189 230 282
#     4  10  16  26  40  60  90 122 158 190 224 269
#     4   9  18  30  43  61  86 118 155 191 227 271
#     4  10  18  26  42  66  86 112 152 192 225 265
#
# _framework density 17.364212999999999
#
# number of rings (size 3 to 8) (size 9 to 14) (size 15 to 20)
#    0.000    2.200    0.000    7.500    1.400    1.200 
#    0.000    0.000    0.000    0.000    0.000    0.000 
#    0.000    0.800    0.000    0.400    0.000    0.400 
#
# Total GULP energy -222788.034956 kJ/mol
# GULP energy per Si atom -5569.700874 kJ/mol
# Density = 1.732469 g / cm^3
# Si number density = 17.364213 Si / 1000 Ang^3
#
#
#
# Elastic Constant Matrix: (Units=GPa)
#
#
# Indices 1 2 3 4 5 6 
#
# 1 126.4600 51.7159 5.4665 0.0000 0.0000 0.0000
# 2 51.7159 136.5599 26.8322 0.0000 0.0000 0.0000
# 3 5.4665 26.8322 22.2724 0.0000 0.0000 0.0000
# 4 0.0000 0.0000 0.0000 11.5245 0.0000 0.0000
# 5 0.0000 0.0000 0.0000 0.0000 8.8342 0.0000
# 6 0.0000 0.0000 0.0000 0.0000 0.0000 24.6615
#
#
#
# Elastic Compliance Matrix: (Units=1/GPa)
#
#
# Indices 1 2 3 4 5 6 
#
# 1 0.009472 -0.004101 0.002616 0.000000 0.000000 0.000000
# 2 -0.004101 0.011369 -0.012690 0.000000 0.000000 0.000000
# 3 0.002616 -0.012690 0.059545 0.000000 0.000000 0.000000
# 4 0.000000 0.000000 0.000000 0.086772 0.000000 0.000000
# 5 0.000000 0.000000 0.000000 0.000000 0.113197 0.000000
# 6 0.000000 0.000000 0.000000 0.000000 0.000000 0.040549
#
#
# Mechanical properties :
#
#
# Convention : Reuss Voigt Hill
#
# Bulk Modulus (GPa) = 19.21786 50.36904 34.79345
# Shear Modulus (GPa) = 13.63886 22.42255 18.03070
#
# Velocity S-wave (km/s) = 2.80564 3.59738 3.22589
# Velocity P-wave (km/s) = 4.64619 6.80626 5.82719
#
# Compressibility (1/GPa) = 0.05203492
#
# Stress axis : x y z
#
# Youngs Moduli (GPa) = 105.57837 87.95601 16.79402
#
# Poissons Ratio (x) = 0.36070 -0.04393
# Poissons Ratio (y) = 0.43297 0.21312
# Poissons Ratio (z) = -0.27617 1.11620
#
# Static dielectric constant tensor:
#      x y z
#    x 1.569490 0.000000 0.000000 
#    y 0.000000 1.685230 0.000000 
#    z 0.000000 0.000000 1.592730 
# 
# From -- ./inp_files/59746.got.cif
#   From: 2010.05.17/outbox.cif.g08.bks.cpg/sg74_30_cif.got.tgz:59746.got - 2010.06.03 17:57:02.
