data_PCOD9533168
_publ_section_title
;
Structure prediction by ZEFSAII (Michael W. Deem and Ramdas Pophale) SiO2 
 PCOD9533168
Probable space group: I B C A 
;
_chemical_formula_sum "Si O2"
_cell_formula_units_Z 80
_cell_length_a 22.655737
_cell_length_b 8.888661
_cell_length_c 16.954176
_cell_angle_alpha 90.000000
_cell_angle_beta 90.000000
_cell_angle_gamma 90.000000
_cell_volume 3414.217821
_symmetry_space_group_name_H-M "I B C A "
_symmetry_group_IT_number 73
_symmetry_cell_setting 'orthorhombic'
loop_
_space_group_symop_operation_xyz
x,y,z
-x,1/2-y,z
x,-y,1/2-z
1/2-x,y,-z
-x,-y,-z
x,1/2+y,-z
-x,y,1/2+z
1/2+x,-y,z
1/2+x,1/2+y,1/2+z
1/2-x,-y,1/2+z
1/2+x,1/2-y,-z
-x,1/2+y,1/2-z
1/2-x,1/2-y,1/2-z
1/2+x,y,1/2-z
1/2-x,1/2+y,z
x,1/2-y,1/2+z
loop_
_atom_site_type_symbol
_atom_site_label
_atom_site_fract_x
_atom_site_fract_y
_atom_site_fract_z
Si Si1 0.624668 0.091912 0.133144
Si Si2 0.357610 0.078174 0.166594
Si Si3 0.363326 0.175807 0.452997
Si Si4 0.769609 0.904835 0.909164
Si Si5 0.534162 0.900501 0.067003
O O1 0.616606 0.254292 0.171153
O O2 0.683866 0.994962 0.147677
O O3 0.562254 0.004812 0.134604
O O4 0.638750 0.118463 0.040862
O O5 0.291430 0.105700 0.136035
O O6 0.358909 0.000000 0.250000
O O7 0.384237 0.957111 0.104688
O O8 0.302354 0.244944 0.421679
O O9 0.406621 0.317594 0.462969
O O10 0.750000 0.951296 0.000000
O O11 0.500000 0.750000 0.092648
O O12 0.500000 0.000000 0.000000
#
# Coordination Sequence:
#
# PCOD9533168 Si02
#       5
#    16  16  16  16  16
#     4  11  22  39  64 103 138 179 236 294 350 413
#     4  12  26  42  66 103 150 191 229 283 361 435
#     4  11  22  39  64 101 134 179 234 288 345 416
#     4  11  21  36  62  96 140 185 233 283 339 415
#     4  11  23  38  66 107 132 162 234 313 355 404
#
# _framework density 23.431428
#
# number of rings (size 3 to 8) (size 9 to 14) (size 15 to 20)
#    0.000    0.800    6.000    2.400    0.000    3.200 
#    0.000    3.000    0.000    2.400    0.000    0.000 
#    0.000    0.000    0.000    0.000    0.000    0.000 
#
# Total GULP energy -223099.752473 kJ/mol
# GULP energy per Si atom -5577.493812 kJ/mol
# Density = 2.337810 g / cm^3
# Si number density = 23.431428 Si / 1000 Ang^3
#
#
#
# Elastic Constant Matrix: (Units=GPa)
#
#
# Indices 1 2 3 4 5 6 
#
# 1 83.7257 67.1910 9.3513 0.0000 0.0000 0.0000
# 2 67.1910 177.1539 24.5021 0.0000 0.0000 0.0000
# 3 9.3513 24.5021 58.4606 0.0000 0.0000 0.0000
# 4 0.0000 0.0000 0.0000 25.3745 0.0000 0.0000
# 5 0.0000 0.0000 0.0000 0.0000 -0.1450 0.0000
# 6 0.0000 0.0000 0.0000 0.0000 0.0000 41.7246
#
#
#
# Elastic Compliance Matrix: (Units=1/GPa)
#
#
# Indices 1 2 3 4 5 6 
#
# 1 0.017170 -0.006510 -0.000018 0.000000 0.000000 0.000000
# 2 -0.006510 0.008460 -0.002505 0.000000 0.000000 0.000000
# 3 -0.000018 -0.002505 0.018158 0.000000 0.000000 0.000000
# 4 0.000000 0.000000 0.000000 0.039410 0.000000 0.000000
# 5 0.000000 0.000000 0.000000 0.000000 -6.896920 0.000000
# 6 0.000000 0.000000 0.000000 0.000000 0.000000 0.023967
#
#
# Mechanical properties :
#
#
# Convention : Reuss Voigt Hill
#
# Bulk Modulus (GPa) = 38.87499 57.93654 48.40577
# Shear Modulus (GPa) = -0.73930 27.94388 13.60229
#
# Velocity S-wave (km/s) = -0.56232 3.45712 2.41200
# Velocity P-wave (km/s) = 4.02559 6.38085 5.33482
#
# Compressibility (1/GPa) = 0.02572348
#
# Stress axis : x y z
#
# Youngs Moduli (GPa) = 58.24141 118.20025 55.07168
#
# Poissons Ratio (x) = 0.76945 0.00100
# Poissons Ratio (y) = 0.37913 0.13793
# Poissons Ratio (z) = 0.00106 0.29604
#
# Static dielectric constant tensor:
#      x y z
#    x 2.033090 0.000000 0.000000 
#    y 0.000000 2.199960 0.000000 
#    z 0.000000 0.000000 1.873810 
# 
# From -- ./inp_files/23821.got.cif
#   From: 2010.05.17/outbox.cif.g08.bks.cpg/sg73_12_cif.got.tgz:23821.got - 2010.06.03 17:35:07.
