data_PCOD9533696
_publ_section_title
;
Structure prediction by ZEFSAII (Michael W. Deem and Ramdas Pophale) SiO2 
 PCOD9533696
Probable space group: I B C A 
;
_chemical_formula_sum "Si O2"
_cell_formula_units_Z 64
_cell_length_a 20.783244
_cell_length_b 9.614569
_cell_length_c 12.488090
_cell_angle_alpha 90.000000
_cell_angle_beta 90.000000
_cell_angle_gamma 90.000000
_cell_volume 2495.394289
_symmetry_space_group_name_H-M "I B C A "
_symmetry_group_IT_number 73
_symmetry_cell_setting 'orthorhombic'
loop_
_space_group_symop_operation_xyz
x,y,z
-x,1/2-y,z
x,-y,1/2-z
1/2-x,y,-z
-x,-y,-z
x,1/2+y,-z
-x,y,1/2+z
1/2+x,-y,z
1/2+x,1/2+y,1/2+z
1/2-x,-y,1/2+z
1/2+x,1/2-y,-z
-x,1/2+y,1/2-z
1/2-x,1/2-y,1/2-z
1/2+x,y,1/2-z
1/2-x,1/2+y,z
x,1/2-y,1/2+z
loop_
_atom_site_type_symbol
_atom_site_label
_atom_site_fract_x
_atom_site_fract_y
_atom_site_fract_z
Si Si1 0.750000 0.577509 0.000000
Si Si2 0.470002 0.000000 0.250000
Si Si3 0.615141 0.518236 0.057369
Si Si4 0.421391 0.678567 0.137191
Si Si5 0.193891 0.844180 0.208240
O O1 0.807046 0.504636 0.932335
O O2 0.704116 0.659135 0.918589
O O3 0.423805 0.947456 0.345255
O O4 0.515545 0.115174 0.304822
O O5 0.589440 0.678326 0.069580
O O6 0.597220 0.444046 0.946284
O O7 0.371533 0.695868 0.234245
O O8 0.250000 0.750000 0.250000
O O9 0.204025 0.000000 0.250000
#
# Coordination Sequence:
#
# PCOD9533696 Si02
#       5
#     8   8  16  16  16
#     4  12  26  48  78 122 168 220 300 348 460 512
#     4  12  28  50  80 120 166 226 298 350 452 516
#     4  12  29  48  85 118 172 232 287 379 434 535
#     4  12  27  54  78 121 170 228 300 365 444 540
#     4  12  26  49  79 118 169 222 290 365 437 529
#
# _framework density 25.647248999999999
#
# number of rings (size 3 to 8) (size 9 to 14) (size 15 to 20)
#    0.000    0.000    6.250    1.500    1.750   10.000 
#    0.000    0.000    0.000    0.000    0.000    0.000 
#    0.000    0.000    0.000    0.000    0.000    0.000 
#
# Total GULP energy -178813.070281 kJ/mol
# GULP energy per Si atom -5587.908446 kJ/mol
# Density = 2.558887 g / cm^3
# Si number density = 25.647249 Si / 1000 Ang^3
#
#
#
# Elastic Constant Matrix: (Units=GPa)
#
#
# Indices 1 2 3 4 5 6 
#
# 1 210.0374 41.0113 84.0161 0.0000 0.0000 0.0000
# 2 41.0113 179.0778 40.4347 0.0000 0.0000 0.0000
# 3 84.0161 40.4347 169.6506 0.0000 0.0000 0.0000
# 4 0.0000 0.0000 0.0000 33.9036 0.0000 0.0000
# 5 0.0000 0.0000 0.0000 0.0000 76.1866 0.0000
# 6 0.0000 0.0000 0.0000 0.0000 0.0000 26.0294
#
#
#
# Elastic Compliance Matrix: (Units=1/GPa)
#
#
# Indices 1 2 3 4 5 6 
#
# 1 0.006030 -0.000747 -0.002808 0.000000 0.000000 0.000000
# 2 -0.000747 0.005994 -0.001059 0.000000 0.000000 0.000000
# 3 -0.002808 -0.001059 0.007538 0.000000 0.000000 0.000000
# 4 0.000000 0.000000 0.000000 0.029495 0.000000 0.000000
# 5 0.000000 0.000000 0.000000 0.000000 0.013126 0.000000
# 6 0.000000 0.000000 0.000000 0.000000 0.000000 0.038418
#
#
# Mechanical properties :
#
#
# Convention : Reuss Voigt Hill
#
# Bulk Modulus (GPa) = 96.76750 98.85445 97.81098
# Shear Modulus (GPa) = 44.14073 53.44417 48.79245
#
# Velocity S-wave (km/s) = 4.15308 4.56984 4.36643
# Velocity P-wave (km/s) = 7.79805 8.15304 7.97752
#
# Compressibility (1/GPa) = 0.01033405
#
# Stress axis : x y z
#
# Youngs Moduli (GPa) = 165.83066 166.82559 132.66825
#
# Poissons Ratio (x) = 0.12460 0.37258
# Poissons Ratio (y) = 0.12386 0.14047
# Poissons Ratio (z) = 0.46571 0.17663
#
# Static dielectric constant tensor:
#      x y z
#    x 2.161370 0.000000 0.000000 
#    y 0.000000 2.245190 0.000000 
#    z 0.000000 0.000000 1.954540 
# 
# From -- ./inp_files/12492.got.cif
#   From: 2010.05.17/outbox.cif.g08.bks.cpg/sg73_7_cif.got.tgz:12492.got - 2010.06.03 17:35:07.
