data_PCOD9533637
_publ_section_title
;
Structure prediction by ZEFSAII (Michael W. Deem and Ramdas Pophale) SiO2 
 PCOD9533637
Probable space group: I B C A 
;
_chemical_formula_sum "Si O2"
_cell_formula_units_Z 80
_cell_length_a 8.772169
_cell_length_b 23.417915
_cell_length_c 18.051230
_cell_angle_alpha 90.000000
_cell_angle_beta 90.000000
_cell_angle_gamma 90.000000
_cell_volume 3708.190313
_symmetry_space_group_name_H-M "I B C A "
_symmetry_group_IT_number 73
_symmetry_cell_setting 'orthorhombic'
loop_
_space_group_symop_operation_xyz
x,y,z
-x,1/2-y,z
x,-y,1/2-z
1/2-x,y,-z
-x,-y,-z
x,1/2+y,-z
-x,y,1/2+z
1/2+x,-y,z
1/2+x,1/2+y,1/2+z
1/2-x,-y,1/2+z
1/2+x,1/2-y,-z
-x,1/2+y,1/2-z
1/2-x,1/2-y,1/2-z
1/2+x,y,1/2-z
1/2-x,1/2+y,z
x,1/2-y,1/2+z
loop_
_atom_site_type_symbol
_atom_site_label
_atom_site_fract_x
_atom_site_fract_y
_atom_site_fract_z
Si Si1 0.371710 0.514266 0.558532
Si Si2 0.627839 0.795472 0.941089
Si Si3 0.791253 0.594988 0.816003
Si Si4 0.327707 0.228713 0.325200
Si Si5 0.565269 0.408148 0.152949
O O1 0.250000 0.537915 0.500000
O O2 0.500000 0.500000 0.500000
O O3 0.389686 0.558399 0.625672
O O4 0.350870 0.454114 0.600634
O O5 0.500000 0.750000 0.970033
O O6 0.732023 0.756777 0.889447
O O7 0.566028 0.847286 0.889985
O O8 0.750000 0.819354 0.000000
O O9 0.815794 0.661249 0.832512
O O10 0.613354 0.578390 0.829474
O O11 0.846130 0.589444 0.731186
O O12 0.500000 0.250000 0.325726
O O13 0.250000 0.250000 0.250000
#
# Coordination Sequence:
#
# PCOD9533637 Si02
#       5
#    16  16  16  16  16
#     4  12  28  50  74 105 150 195 249 313 376 441
#     4  12  26  47  73 109 149 194 248 309 382 459
#     4  12  27  47  80 107 151 196 252 309 371 455
#     4  12  24  45  74 110 150 193 242 303 372 454
#     4  12  27  49  75 109 148 195 253 309 379 453
#
# _framework density 21.573867
#
# number of rings (size 3 to 8) (size 9 to 14) (size 15 to 20)
#    0.000    0.000    6.000    3.600    2.800    5.600 
#    0.000    0.000    0.000    0.000    0.000    0.000 
#    0.000    0.000    0.000    0.000    0.000    0.000 
#
# Total GULP energy -223409.673639 kJ/mol
# GULP energy per Si atom -5585.241841 kJ/mol
# Density = 2.152476 g / cm^3
# Si number density = 21.573867 Si / 1000 Ang^3
#
#
#
# Elastic Constant Matrix: (Units=GPa)
#
#
# Indices 1 2 3 4 5 6 
#
# 1 62.7771 -10.9097 18.7351 0.0000 0.0000 0.0000
# 2 -10.9097 119.2011 41.8243 0.0000 0.0000 0.0000
# 3 18.7351 41.8243 124.5616 0.0000 0.0000 0.0000
# 4 0.0000 0.0000 0.0000 37.7471 0.0000 0.0000
# 5 0.0000 0.0000 0.0000 0.0000 46.9069 0.0000
# 6 0.0000 0.0000 0.0000 0.0000 0.0000 23.0298
#
#
#
# Elastic Compliance Matrix: (Units=1/GPa)
#
#
# Indices 1 2 3 4 5 6 
#
# 1 0.017499 0.002862 -0.003593 0.000000 0.000000 0.000000
# 2 0.002862 0.009978 -0.003781 0.000000 0.000000 0.000000
# 3 -0.003593 -0.003781 0.009838 0.000000 0.000000 0.000000
# 4 0.000000 0.000000 0.000000 0.026492 0.000000 0.000000
# 5 0.000000 0.000000 0.000000 0.000000 0.021319 0.000000
# 6 0.000000 0.000000 0.000000 0.000000 0.000000 0.043422
#
#
# Mechanical properties :
#
#
# Convention : Reuss Voigt Hill
#
# Bulk Modulus (GPa) = 35.34594 45.09323 40.21958
# Shear Modulus (GPa) = 34.01327 38.66278 36.33802
#
# Velocity S-wave (km/s) = 3.97494 4.23793 4.10854
# Velocity P-wave (km/s) = 6.12259 6.70029 6.41794
#
# Compressibility (1/GPa) = 0.02829180
#
# Stress axis : x y z
#
# Youngs Moduli (GPa) = 57.14575 100.22343 101.64613
#
# Poissons Ratio (x) = -0.28687 0.36522
# Poissons Ratio (y) = -0.16357 0.38430
# Poissons Ratio (z) = 0.20533 0.37892
#
# Static dielectric constant tensor:
#      x y z
#    x 1.817010 0.000000 0.000000 
#    y 0.000000 1.781690 0.000000 
#    z 0.000000 0.000000 1.798280 
# 
# From -- ./inp_files/20745.got.cif
#   From: 2010.05.17/outbox.cif.g08.bks.cpg/sg73_11_cif.got.tgz:20745.got - 2010.06.03 17:35:07.
