data_PCOD9533833
_publ_section_title
;
Structure prediction by ZEFSAII (Michael W. Deem and Ramdas Pophale) SiO2 
 PCOD9533833
Probable space group: I M M A
;
_chemical_formula_sum "Si O2"
_cell_formula_units_Z 36
_cell_length_a 5.446740
_cell_length_b 7.316367
_cell_length_c 43.194237
_cell_angle_alpha 90.000000
_cell_angle_beta 90.000000
_cell_angle_gamma 90.000000
_cell_volume 1721.305410
_symmetry_space_group_name_H-M "I M M A"
_symmetry_group_IT_number 74
_symmetry_cell_setting 'orthorhombic'
loop_
_space_group_symop_operation_xyz
x,y,z
-x,1/2-y,z
x,-y,-z
-x,1/2+y,-z
-x,-y,-z
x,1/2+y,-z
-x,y,z
x,1/2-y,z
1/2+x,1/2+y,1/2+z
1/2-x,-y,1/2+z
1/2+x,1/2-y,1/2-z
1/2-x,y,1/2-z
1/2-x,1/2-y,1/2-z
1/2+x,y,1/2-z
1/2-x,1/2+y,1/2+z
1/2+x,-y,1/2+z
loop_
_atom_site_type_symbol
_atom_site_label
_atom_site_fract_x
_atom_site_fract_y
_atom_site_fract_z
Si Si1 0.000000 0.027255 0.068877
Si Si2 0.000000 0.959050 0.669926
Si Si3 0.000000 0.473586 0.140978
Si Si4 0.500000 0.967713 0.963410
Si Si5 0.500000 0.250000 0.230386
O O1 0.000000 0.977837 0.104935
O O2 0.248620 0.963670 0.052093
O O3 0.000000 0.250000 0.067558
O O4 0.747239 0.039471 0.657652
O O5 0.000000 0.750000 0.656811
O O6 0.000000 0.922486 0.706698
O O7 0.000000 0.250000 0.143405
O O8 0.500000 0.750000 0.958416
O O9 0.500000 0.000000 0.000000
O O10 0.250000 0.250000 0.250000
#
# Coordination Sequence:
#
# PCOD9533833 Si02
#       5
#     8   8   8   8   4
#     4   9  17  26  42  58  75  97 123 161 205 249
#     4   8  15  20  30  42  59  85 113 151 195 227
#     4   9  13  23  33  48  64  81 113 151 195 239
#     4  10  19  31  43  61  81 105 131 161 205 255
#     4  10  16  22  28  40  62  90 124 154 198 238
#
# _framework density 20.914358
#
# number of rings (size 3 to 8) (size 9 to 14) (size 15 to 20)
#    0.667    2.222    0.000    3.333    0.000    5.333 
#    0.000    0.000    0.000    0.000    0.000    0.000 
#    0.000    0.000    0.000    0.000    0.000    0.000 
#
# Total GULP energy -100364.174860 kJ/mol
# GULP energy per Si atom -5575.787492 kJ/mol
# Density = 2.086676 g / cm^3
# Si number density = 20.914358 Si / 1000 Ang^3
#
#
#
# Elastic Constant Matrix: (Units=GPa)
#
#
# Indices 1 2 3 4 5 6 
#
# 1 296.3465 13.6046 159.2020 0.0000 0.0000 0.0000
# 2 13.6046 75.3531 2.1305 0.0000 0.0000 0.0000
# 3 159.2020 2.1305 197.0730 0.0000 0.0000 0.0000
# 4 0.0000 0.0000 0.0000 6.7018 0.0000 0.0000
# 5 0.0000 0.0000 0.0000 0.0000 53.0149 0.0000
# 6 0.0000 0.0000 0.0000 0.0000 0.0000 -18.1908
#
#
#
# Elastic Compliance Matrix: (Units=1/GPa)
#
#
# Indices 1 2 3 4 5 6 
#
# 1 0.006029 -0.000951 -0.004860 0.000000 0.000000 0.000000
# 2 -0.000951 0.013425 0.000623 0.000000 0.000000 0.000000
# 3 -0.004860 0.000623 0.008994 0.000000 0.000000 0.000000
# 4 0.000000 0.000000 0.000000 0.149213 0.000000 0.000000
# 5 0.000000 0.000000 0.000000 0.000000 0.018863 0.000000
# 6 0.000000 0.000000 0.000000 0.000000 0.000000 -0.054973
#
#
# Mechanical properties :
#
#
# Convention : Reuss Voigt Hill
#
# Bulk Modulus (GPa) = 55.33555 102.07187 78.70371
# Shear Modulus (GPa) = 31.65540 34.56087 33.10814
#
# Velocity S-wave (km/s) = 3.89469 4.06950 3.98305
# Velocity P-wave (km/s) = 6.83669 8.42566 7.67242
#
# Compressibility (1/GPa) = 0.01807156
#
# Stress axis : x y z
#
# Youngs Moduli (GPa) = 165.86334 74.48816 111.18844
#
# Poissons Ratio (x) = 0.07085 0.54040
# Poissons Ratio (y) = 0.15775 -0.06929
# Poissons Ratio (z) = 0.80613 -0.04642
#
# Static dielectric constant tensor:
#      x y z
#    x 1.771220 0.000000 0.000000 
#    y 0.000000 1.798520 0.000000 
#    z 0.000000 0.000000 1.694150 
# 
# From -- ./inp_files/69293.got.cif
#   From: 2010.05.17/outbox.cif.g08.bks.cpg/sg74_35_cif.got.tgz:69293.got - 2010.06.03 17:57:02.
