data_PCOD9533453
_publ_section_title
;
Structure prediction by ZEFSAII (Michael W. Deem and Ramdas Pophale) SiO2 
 PCOD9533453
Probable space group: I B C A 
;
_chemical_formula_sum "Si O2"
_cell_formula_units_Z 112
_cell_length_a 14.085242
_cell_length_b 30.414707
_cell_length_c 12.731259
_cell_angle_alpha 90.000000
_cell_angle_beta 90.000000
_cell_angle_gamma 90.000000
_cell_volume 5454.052366
_symmetry_space_group_name_H-M "I B C A "
_symmetry_group_IT_number 73
_symmetry_cell_setting 'orthorhombic'
loop_
_space_group_symop_operation_xyz
x,y,z
-x,1/2-y,z
x,-y,1/2-z
1/2-x,y,-z
-x,-y,-z
x,1/2+y,-z
-x,y,1/2+z
1/2+x,-y,z
1/2+x,1/2+y,1/2+z
1/2-x,-y,1/2+z
1/2+x,1/2-y,-z
-x,1/2+y,1/2-z
1/2-x,1/2-y,1/2-z
1/2+x,y,1/2-z
1/2-x,1/2+y,z
x,1/2-y,1/2+z
loop_
_atom_site_type_symbol
_atom_site_label
_atom_site_fract_x
_atom_site_fract_y
_atom_site_fract_z
Si Si1 0.204196 0.791231 0.615458
Si Si2 0.750000 0.865605 0.500000
Si Si3 0.385944 0.082154 0.343853
Si Si4 0.770511 0.500000 0.750000
Si Si5 0.156385 0.503938 0.944892
Si Si6 0.161106 0.807473 0.188064
Si Si7 0.507868 0.437221 0.025665
Si Si8 0.035917 0.354126 0.333278
O O1 0.250000 0.788859 0.500000
O O2 0.277727 0.809107 0.704293
O O3 0.168618 0.743150 0.651852
O O4 0.113518 0.822659 0.615454
O O5 0.676274 0.895369 0.564695
O O6 0.796403 0.835797 0.591380
O O7 0.480193 0.066399 0.403537
O O8 0.414339 0.118826 0.260130
O O9 0.333940 0.040082 0.293675
O O10 0.699621 0.479648 0.836634
O O11 0.072891 0.468915 0.926718
O O12 0.250000 0.484622 0.000000
O O13 0.110120 0.539546 0.023153
O O14 0.054974 0.826043 0.203688
O O15 0.506380 0.391270 0.083481
#
# Coordination Sequence:
#
# PCOD9533453 Si02
#       8
#    16   8  16   8  16  16  16  16
#     4  11  26  48  75 111 150 188 240 305 368 444
#     4  12  22  50  76 102 150 198 242 294 376 440
#     4  12  26  44  71 106 141 194 243 303 360 438
#     4  12  26  42  74  96 140 192 248 290 372 426
#     4  11  24  46  65  95 132 186 234 302 354 424
#     4  11  25  48  76 108 148 194 239 303 373 441
#     4  11  26  43  67  98 142 179 242 302 367 428
#     4  12  27  44  71 109 140 189 244 297 366 444
#
# _framework density 20.53519
#
# number of rings (size 3 to 8) (size 9 to 14) (size 15 to 20)
#    0.000    0.571    5.000    2.143    6.000    1.714 
#    0.000    1.429    0.000    0.000    0.000    0.000 
#    0.000    0.000    0.000    0.000    0.000    0.000 
#
# Total GULP energy -312935.223792 kJ/mol
# GULP energy per Si atom -5588.128996 kJ/mol
# Density = 2.048845 g / cm^3
# Si number density = 20.535190 Si / 1000 Ang^3
#
#
#
# Elastic Constant Matrix: (Units=GPa)
#
#
# Indices 1 2 3 4 5 6 
#
# 1 122.4867 66.8267 49.0742 0.0000 0.0000 0.0000
# 2 66.8267 118.0421 46.1656 -0.0001 0.0000 0.0000
# 3 49.0742 46.1656 110.8036 0.0003 -0.0001 0.0001
# 4 0.0000 -0.0001 0.0003 42.6284 0.0000 0.0000
# 5 0.0000 0.0000 -0.0001 0.0000 38.1773 0.0000
# 6 0.0000 0.0000 0.0001 0.0000 0.0000 26.1197
#
#
#
# Elastic Compliance Matrix: (Units=1/GPa)
#
#
# Indices 1 2 3 4 5 6 
#
# 1 0.012661 -0.005943 -0.003131 0.000000 0.000000 0.000000
# 2 -0.005943 0.012910 -0.002747 0.000000 0.000000 0.000000
# 3 -0.003131 -0.002747 0.011556 0.000000 0.000000 0.000000
# 4 0.000000 0.000000 0.000000 0.023459 0.000000 0.000000
# 5 0.000000 0.000000 0.000000 0.000000 0.026194 0.000000
# 6 0.000000 0.000000 0.000000 0.000000 0.000000 0.038285
#
#
# Mechanical properties :
#
#
# Convention : Reuss Voigt Hill
#
# Bulk Modulus (GPa) = 74.15580 75.05172 74.60376
# Shear Modulus (GPa) = 32.63637 34.00280 33.31959
#
# Velocity S-wave (km/s) = 3.99092 4.07360 4.03247
# Velocity P-wave (km/s) = 7.57803 7.66504 7.62166
#
# Compressibility (1/GPa) = 0.01348512
#
# Stress axis : x y z
#
# Youngs Moduli (GPa) = 78.98116 77.45674 86.53282
#
# Poissons Ratio (x) = 0.46034 0.27097
# Poissons Ratio (y) = 0.46940 0.23769
# Poissons Ratio (z) = 0.24732 0.21276
#
# Static dielectric constant tensor:
#      x y z
#    x 1.763910 0.000000 0.000000 
#    y 0.000000 1.727650 0.000000 
#    z 0.000000 0.000000 1.764080 
# 
# From -- ./inp_files/11308.got.cif
#   From: 2010.05.17/outbox.cif.g08.bks.cpg/sg73_6_cif.got.tgz:11308.got - 2010.06.03 17:35:07.
