data_PCOD9533767
_publ_section_title
;
Structure prediction by ZEFSAII (Michael W. Deem and Ramdas Pophale) SiO2 
 PCOD9533767
Probable space group: I B C A 
;
_chemical_formula_sum "Si O2"
_cell_formula_units_Z 56
_cell_length_a 12.000000
_cell_length_b 30.000000
_cell_length_c 15.000000
_cell_angle_alpha 90.000000
_cell_angle_beta 90.000000
_cell_angle_gamma 90.000000
_cell_volume 5400.000000
_symmetry_space_group_name_H-M "I B C A "
_symmetry_group_IT_number 73
_symmetry_cell_setting 'orthorhombic'
loop_
_space_group_symop_operation_xyz
x,y,z
-x,1/2-y,z
x,-y,1/2-z
1/2-x,y,-z
-x,-y,-z
x,1/2+y,-z
-x,y,1/2+z
1/2+x,-y,z
1/2+x,1/2+y,1/2+z
1/2-x,-y,1/2+z
1/2+x,1/2-y,-z
-x,1/2+y,1/2-z
1/2-x,1/2-y,1/2-z
1/2+x,y,1/2-z
1/2-x,1/2+y,z
x,1/2-y,1/2+z
loop_
_atom_site_type_symbol
_atom_site_label
_atom_site_fract_x
_atom_site_fract_y
_atom_site_fract_z
Si Si1 0.913323 0.825233 0.316619
Si Si2 0.361372 0.928248 0.469970
Si Si3 0.265012 0.489076 0.856298
Si Si4 0.064484 0.926960 0.165419
Si Si5 0.145354 0.171878 0.304632
Si Si6 0.380817 0.224127 0.507564
Si Si7 0.524127 0.427460 0.359207
O O1 0.781152 0.820679 0.277949
O O2 0.903983 0.798941 0.410831
O O3 0.937966 0.876413 0.343506
O O4 0.031068 0.814556 0.257169
O O5 0.250000 0.900124 0.500000
O O6 0.298419 0.968516 0.416566
O O7 0.457341 0.915648 0.396893
O O8 0.435618 0.933402 0.560255
O O9 0.266619 0.500000 0.750000
O O10 0.147034 0.464427 0.875052
O O11 0.364994 0.455191 0.876767
O O12 0.131756 0.881272 0.182923
O O13 0.025592 0.942542 0.263646
O O14 0.129949 0.193959 0.402534
O O15 0.500000 0.250000 0.522049
O O16 0.250000 0.243389 0.500000
#
# Coordination Sequence:
#
# PCOD9533767 Si02
#       7
#    16  16  16  16  16  16  16
#     4  10  22  43  70 101 137 178 230 274 337 416
#     4  12  28  41  61  90 123 169 228 286 341 407
#     4  12  25  41  62  90 130 170 224 281 345 385
#     4  11  25  44  66  90 132 175 222 288 337 405
#     4  10  22  44  72 101 135 182 227 273 340 413
#     4  10  23  44  70 105 143 178 220 276 340 412
#     4  11  24  43  64  93 127 173 225 275 342 395
#
# _framework density 10.370369999999999
#
# number of rings (size 3 to 8) (size 9 to 14) (size 15 to 20)
#    0.000    1.143    2.857    2.143    6.000    2.857 
#    0.000    4.286    0.000    0.000    0.000    0.000 
#    0.000    0.000    0.000    0.000    0.000    0.000 
#
# Total GULP energy -311789.146417 kJ/mol
# GULP energy per Si atom -5567.663329 kJ/mol
# Density = 1.034677 g / cm^3
# Si number density = 10.370370 Si / 1000 Ang^3
#
#
#
# Elastic Constant Matrix: (Units=GPa)
#
#
# Indices 1 2 3 4 5 6 
#
# 1 180.1296 15.4642 40.9236 0.0000 0.0000 0.0000
# 2 15.4642 25.5649 -2.4966 -0.0001 0.0000 0.0000
# 3 40.9236 -2.4966 117.5984 -0.0004 0.0000 0.0000
# 4 0.0000 -0.0001 -0.0004 25.9196 0.0000 0.0000
# 5 0.0000 0.0000 0.0000 0.0000 61.1373 0.0000
# 6 0.0000 0.0000 0.0000 0.0000 0.0000 41.7286
#
#
#
# Elastic Compliance Matrix: (Units=1/GPa)
#
#
# Indices 1 2 3 4 5 6 
#
# 1 0.006434 -0.004119 -0.002326 0.000000 0.000000 0.000000
# 2 -0.004119 0.041834 0.002322 0.000000 0.000000 0.000000
# 3 -0.002326 0.002322 0.009362 0.000000 0.000000 0.000000
# 4 0.000000 0.000000 0.000000 0.038581 0.000000 0.000000
# 5 0.000000 0.000000 0.000000 0.000000 0.016357 0.000000
# 6 0.000000 0.000000 0.000000 0.000000 0.000000 0.023964
#
#
# Mechanical properties :
#
#
# Convention : Reuss Voigt Hill
#
# Bulk Modulus (GPa) = 20.24992 47.89726 34.07359
# Shear Modulus (GPa) = 31.00954 43.71720 37.36337
#
# Velocity S-wave (km/s) = 3.87085 4.59605 4.24895
# Velocity P-wave (km/s) = 5.45550 7.16299 6.36675
#
# Compressibility (1/GPa) = 0.04938290
#
# Stress axis : x y z
#
# Youngs Moduli (GPa) = 155.43183 23.90380 106.81070
#
# Poissons Ratio (x) = 0.09846 0.24848
# Poissons Ratio (y) = 0.64021 -0.24796
# Poissons Ratio (z) = 0.36159 -0.05549
#
# Static dielectric constant tensor:
#      x y z
#    x 1.819520 0.000000 0.000000 
#    y 0.000000 1.789120 0.000000 
#    z 0.000000 0.000000 1.760000 
# 
# From -- ./inp_files/16363.got.cif
#   From: 2010.05.17/outbox.ucp.g08.bks.cvg/sg73_9_cif.got.tgz:16363.got - 2010.06.11 16:36:03.
