data_PCOD9533079
_publ_section_title
;
Structure prediction by ZEFSAII (Michael W. Deem and Ramdas Pophale) SiO2 
 PCOD9533079
Probable space group: I B C A 
;
_chemical_formula_sum "Si O2"
_cell_formula_units_Z 104
_cell_length_a 19.328351
_cell_length_b 8.831559
_cell_length_c 28.513132
_cell_angle_alpha 90.000000
_cell_angle_beta 90.000000
_cell_angle_gamma 90.000000
_cell_volume 4867.176584
_symmetry_space_group_name_H-M "I B C A "
_symmetry_group_IT_number 73
_symmetry_cell_setting 'orthorhombic'
loop_
_space_group_symop_operation_xyz
x,y,z
-x,1/2-y,z
x,-y,1/2-z
1/2-x,y,-z
-x,-y,-z
x,1/2+y,-z
-x,y,1/2+z
1/2+x,-y,z
1/2+x,1/2+y,1/2+z
1/2-x,-y,1/2+z
1/2+x,1/2-y,-z
-x,1/2+y,1/2-z
1/2-x,1/2-y,1/2-z
1/2+x,y,1/2-z
1/2-x,1/2+y,z
x,1/2-y,1/2+z
loop_
_atom_site_type_symbol
_atom_site_label
_atom_site_fract_x
_atom_site_fract_y
_atom_site_fract_z
Si Si1 0.379889 0.945965 0.296523
Si Si2 0.228961 0.214278 0.304167
Si Si3 0.885395 0.047033 0.852652
Si Si4 0.675071 0.683426 0.948155
Si Si5 0.000000 0.250000 0.806650
Si Si6 0.830369 0.049539 0.045759
Si Si7 0.872607 0.198652 0.139223
O O1 0.321386 0.849601 0.322555
O O2 0.442053 0.840984 0.279072
O O3 0.343046 0.000000 0.250000
O O4 0.409944 0.078934 0.327397
O O5 0.250000 0.250000 0.250000
O O6 0.176298 0.074126 0.313928
O O7 0.295534 0.200439 0.337122
O O8 0.859964 0.120412 0.901310
O O9 0.953817 0.134832 0.836667
O O10 0.897485 0.869607 0.859223
O O11 0.753648 0.620845 0.947970
O O12 0.673097 0.866627 0.951351
O O13 0.643913 0.607890 0.995218
O O14 0.871995 0.124938 0.088146
#
# Coordination Sequence:
#
# PCOD9533079 Si02
#       7
#    16  16  16  16   8  16  16
#     4  11  24  43  63  90 126 173 219 274 316 389
#     4  11  22  40  62  94 131 163 205 263 334 386
#     4  11  24  41  65  90 129 171 209 269 313 388
#     4  11  21  37  60  93 131 168 201 258 327 385
#     4  10  26  46  60  84 124 176 228 260 314 370
#     4  11  21  35  60  95 131 160 203 258 327 404
#     4  12  23  37  66  98 127 164 210 267 336 386
#
# _framework density 21.367623999999999
#
# number of rings (size 3 to 8) (size 9 to 14) (size 15 to 20)
#    0.000    0.923    3.077    6.462    0.000    1.846 
#    0.000    0.000    0.000    8.308    0.000    0.000 
#    0.000    0.000    0.000    0.000    0.000    0.000 
#
# Total GULP energy -290322.305909 kJ/mol
# GULP energy per Si atom -5583.121267 kJ/mol
# Density = 2.131899 g / cm^3
# Si number density = 21.367624 Si / 1000 Ang^3
#
#
#
# Elastic Constant Matrix: (Units=GPa)
#
#
# Indices 1 2 3 4 5 6 
#
# 1 46.6861 0.4072 -10.7973 0.0000 0.0000 0.0000
# 2 0.4072 155.1920 20.5137 0.0000 0.0000 0.0000
# 3 -10.7973 20.5137 109.0630 0.0000 0.0000 0.0000
# 4 0.0000 0.0000 0.0000 32.6930 0.0000 0.0000
# 5 0.0000 0.0000 0.0000 0.0000 14.8273 0.0000
# 6 0.0000 0.0000 0.0000 0.0000 0.0000 24.9557
#
#
#
# Elastic Compliance Matrix: (Units=1/GPa)
#
#
# Indices 1 2 3 4 5 6 
#
# 1 0.021940 -0.000353 0.002239 0.000000 0.000000 0.000000
# 2 -0.000353 0.006614 -0.001279 0.000000 0.000000 0.000000
# 3 0.002239 -0.001279 0.009631 0.000000 0.000000 0.000000
# 4 0.000000 0.000000 0.000000 0.030588 0.000000 0.000000
# 5 0.000000 0.000000 0.000000 0.000000 0.067443 0.000000
# 6 0.000000 0.000000 0.000000 0.000000 0.000000 0.040071
#
#
# Mechanical properties :
#
#
# Convention : Reuss Voigt Hill
#
# Bulk Modulus (GPa) = 25.38224 36.79872 31.09048
# Shear Modulus (GPa) = 26.56649 34.54972 30.55810
#
# Velocity S-wave (km/s) = 3.52988 4.02546 3.78579
# Velocity P-wave (km/s) = 5.34023 6.23417 5.80443
#
# Compressibility (1/GPa) = 0.03939763
#
# Stress axis : x y z
#
# Youngs Moduli (GPa) = 45.57787 151.20330 103.82929
#
# Poissons Ratio (x) = 0.05345 -0.23243
# Poissons Ratio (y) = 0.01611 0.13279
# Poissons Ratio (z) = -0.10203 0.19338
#
# Static dielectric constant tensor:
#      x y z
#    x 1.773480 0.000000 0.000000 
#    y 0.000000 1.834000 0.000000 
#    z 0.000000 0.000000 1.785520 
# 
# From -- ./inp_files/34683.got.cif
#   From: 2010.05.17/outbox.cif.g08.bks.cpg/sg73_18_cif.got.tgz:34683.got - 2010.06.03 17:35:07.
