data_PCOD9533841
_publ_section_title
;
Structure prediction by ZEFSAII (Michael W. Deem and Ramdas Pophale) SiO2 
 PCOD9533841
Probable space group: I M M A
;
_chemical_formula_sum "Si O2"
_cell_formula_units_Z 64
_cell_length_a 34.468244
_cell_length_b 11.300252
_cell_length_c 7.175640
_cell_angle_alpha 90.000000
_cell_angle_beta 90.000000
_cell_angle_gamma 90.000000
_cell_volume 2794.910655
_symmetry_space_group_name_H-M "I M M A"
_symmetry_group_IT_number 74
_symmetry_cell_setting 'orthorhombic'
loop_
_space_group_symop_operation_xyz
x,y,z
-x,1/2-y,z
x,-y,-z
-x,1/2+y,-z
-x,-y,-z
x,1/2+y,-z
-x,y,z
x,1/2-y,z
1/2+x,1/2+y,1/2+z
1/2-x,-y,1/2+z
1/2+x,1/2-y,1/2-z
1/2-x,y,1/2-z
1/2-x,1/2-y,1/2-z
1/2+x,y,1/2-z
1/2-x,1/2+y,1/2+z
1/2+x,-y,1/2+z
loop_
_atom_site_type_symbol
_atom_site_label
_atom_site_fract_x
_atom_site_fract_y
_atom_site_fract_z
Si Si1 0.084002 0.750000 0.271512
Si Si2 0.955223 0.992805 0.273171
Si Si3 0.203280 0.250000 0.218070
Si Si4 0.952559 0.250000 0.316900
Si Si5 0.825345 0.750000 0.210433
Si Si6 0.296112 0.497312 0.721153
O O1 0.067181 0.623096 0.207685
O O2 0.071696 0.750000 0.491031
O O3 0.128733 0.750000 0.220107
O O4 0.000000 0.974874 0.223335
O O5 0.953172 0.000000 0.500000
O O6 0.943626 0.126085 0.215724
O O7 0.250000 0.250000 0.250000
O O8 0.188421 0.376127 0.292109
O O9 0.193211 0.250000 0.997746
O O10 0.000000 0.250000 0.355793
O O11 0.811476 0.873733 0.296812
O O12 0.304063 0.500000 0.500000
O O13 0.250000 0.495936 0.750000
#
# Coordination Sequence:
#
# PCOD9533841 Si02
#       6
#     8  16   8   8   8  16
#     4  10  16  23  36  62 100 126 150 202 257 289
#     4   8  13  23  40  59  84 128 179 211 232 270
#     4   8  16  33  56  71  82 112 157 200 237 292
#     4   8  14  26  44  61  84 133 190 216 228 270
#     4  10  19  28  44  74 101 117 145 196 257 305
#     4   9  17  32  52  70  89 117 158 202 243 294
#
# _framework density 22.898765999999998
#
# number of rings (size 3 to 8) (size 9 to 14) (size 15 to 20)
#    0.000    3.250    0.000    3.000    0.000    0.000 
#    0.000    5.000    0.000    0.000    0.000    0.000 
#    0.000   81.000    0.000    0.000    0.000    6.750 
#
# Total GULP energy -178318.724363 kJ/mol
# GULP energy per Si atom -5572.460136 kJ/mol
# Density = 2.284665 g / cm^3
# Si number density = 22.898766 Si / 1000 Ang^3
#
#
#
# Elastic Constant Matrix: (Units=GPa)
#
#
# Indices 1 2 3 4 5 6 
#
# 1 57.3931 71.5055 15.9095 0.0000 0.0000 0.0000
# 2 71.5055 334.7331 13.1472 0.0004 0.0003 0.0001
# 3 15.9095 13.1472 118.3867 0.0007 0.0004 0.0002
# 4 0.0000 0.0004 0.0007 -39.7956 0.0005 0.0002
# 5 0.0000 0.0003 0.0004 0.0005 -14.7849 0.0000
# 6 0.0000 0.0001 0.0002 0.0002 0.0000 26.1295
#
#
#
# Elastic Compliance Matrix: (Units=1/GPa)
#
#
# Indices 1 2 3 4 5 6 
#
# 1 0.024593 -0.005146 -0.002733 0.000000 0.000000 0.000000
# 2 -0.005146 0.004077 0.000239 0.000000 0.000000 0.000000
# 3 -0.002733 0.000239 0.008788 0.000000 0.000000 0.000000
# 4 0.000000 0.000000 0.000000 -0.025128 -0.000001 0.000000
# 5 0.000000 0.000000 0.000000 -0.000001 -0.067637 0.000000
# 6 0.000000 0.000000 0.000000 0.000000 0.000000 0.038271
#
#
# Mechanical properties :
#
#
# Convention : Reuss Voigt Hill
#
# Bulk Modulus (GPa) = 45.09307 79.07082 62.08194
# Shear Modulus (GPa) = 886.86444 21.63986 454.25215
#
# Velocity S-wave (km/s) = 19.70124 3.07746 14.09981
# Velocity P-wave (km/s) = 23.17873 6.87264 17.09513
#
# Compressibility (1/GPa) = 0.02217636
#
# Stress axis : x y z
#
# Youngs Moduli (GPa) = 40.66205 245.25444 113.79523
#
# Poissons Ratio (x) = 1.26212 0.31105
# Poissons Ratio (y) = 0.20925 -0.02717
# Poissons Ratio (z) = 0.11115 -0.05856
#
# Static dielectric constant tensor:
#      x y z
#    x 1.758670 0.000000 0.000000 
#    y 0.000000 1.953440 0.000000 
#    z 0.000000 0.000000 1.928330 
# 
# From -- ./inp_files/15849.got.cif
#   From: 2010.05.17/outbox.cif.g08.bks.cpg/sg74_8_cif.got.tgz:15849.got - 2010.06.03 17:57:02.
