data_PCOD9533884
_publ_section_title
;
Structure prediction by ZEFSAII (Michael W. Deem and Ramdas Pophale) SiO2 
 PCOD9533884
Probable space group: I M M A
;
_chemical_formula_sum "Si O2"
_cell_formula_units_Z 96
_cell_length_a 18.502754
_cell_length_b 26.620918
_cell_length_c 12.435392
_cell_angle_alpha 90.000000
_cell_angle_beta 90.000000
_cell_angle_gamma 90.000000
_cell_volume 6125.180377
_symmetry_space_group_name_H-M "I M M A"
_symmetry_group_IT_number 74
_symmetry_cell_setting 'orthorhombic'
loop_
_space_group_symop_operation_xyz
x,y,z
-x,1/2-y,z
x,-y,-z
-x,1/2+y,-z
-x,-y,-z
x,1/2+y,-z
-x,y,z
x,1/2-y,z
1/2+x,1/2+y,1/2+z
1/2-x,-y,1/2+z
1/2+x,1/2-y,1/2-z
1/2-x,y,1/2-z
1/2-x,1/2-y,1/2-z
1/2+x,y,1/2-z
1/2-x,1/2+y,1/2+z
1/2+x,-y,1/2+z
loop_
_atom_site_type_symbol
_atom_site_label
_atom_site_fract_x
_atom_site_fract_y
_atom_site_fract_z
Si Si1 0.668922 0.052527 0.802026
Si Si2 0.365028 0.443347 0.453896
Si Si3 0.918721 0.619591 0.137780
Si Si4 0.290043 0.608774 0.991950
Si Si5 0.333589 0.438416 0.213775
Si Si6 0.783757 0.690584 0.131256
O O1 0.750000 0.054776 0.750000
O O2 0.615112 0.077905 0.717611
O O3 0.652809 0.994699 0.827916
O O4 0.667488 0.084201 0.910013
O O5 0.371832 0.500000 0.500000
O O6 0.415558 0.407063 0.522098
O O7 0.282862 0.424828 0.477926
O O8 0.376408 0.436086 0.326429
O O9 0.862930 0.665691 0.134735
O O10 0.000000 0.633221 0.167523
O O11 0.335411 0.602419 0.881880
O O12 0.261633 0.661930 0.038073
O O13 0.250000 0.436898 0.250000
O O14 0.785376 0.750000 0.113698
O O15 0.750000 0.680800 0.250000
#
# Coordination Sequence:
#
# PCOD9533884 Si02
#       6
#    16  16  16  16  16  16
#     4  11  15  29  47  71  99 135 162 202 249 301
#     4  10  16  29  44  70 100 133 170 201 240 292
#     4  11  21  31  48  71 104 137 164 204 254 303
#     4  10  16  27  49  74  96 127 160 211 260 297
#     4   9  17  24  45  72 100 129 168 198 239 298
#     4  10  19  34  55  77  99 126 168 219 265 301
#
# _framework density 15.673009
#
# number of rings (size 3 to 8) (size 9 to 14) (size 15 to 20)
#    0.000    1.833    6.667    2.500    0.000    0.667 
#    0.000    0.000    0.000   15.500    0.000    0.000 
#    0.000    0.000    0.000    0.000    0.000    0.000 
#
# Total GULP energy -267205.728191 kJ/mol
# GULP energy per Si atom -5566.786004 kJ/mol
# Density = 1.563734 g / cm^3
# Si number density = 15.673009 Si / 1000 Ang^3
#
#
#
# Elastic Constant Matrix: (Units=GPa)
#
#
# Indices 1 2 3 4 5 6 
#
# 1 52.1543 29.2067 34.9547 0.0000 0.0000 0.0000
# 2 29.2067 104.8285 48.3327 0.0000 0.0000 0.0000
# 3 34.9547 48.3327 99.1517 0.0000 0.0000 0.0000
# 4 0.0000 0.0000 0.0000 21.2569 0.0000 0.0000
# 5 0.0000 0.0000 0.0000 0.0000 7.5759 0.0000
# 6 0.0000 0.0000 0.0000 0.0000 0.0000 3.0920
#
#
#
# Elastic Compliance Matrix: (Units=1/GPa)
#
#
# Indices 1 2 3 4 5 6 
#
# 1 0.026309 -0.003939 -0.007355 0.000000 0.000000 0.000000
# 2 -0.003939 0.012895 -0.004897 0.000000 0.000000 0.000000
# 3 -0.007355 -0.004897 0.015066 0.000000 0.000000 0.000000
# 4 0.000000 0.000000 0.000000 0.047044 0.000000 0.000000
# 5 0.000000 0.000000 0.000000 0.000000 0.131998 0.000000
# 6 0.000000 0.000000 0.000000 0.000000 0.000000 0.323415
#
#
# Mechanical properties :
#
#
# Convention : Reuss Voigt Hill
#
# Bulk Modulus (GPa) = 45.68805 53.45808 49.57306
# Shear Modulus (GPa) = 8.38359 15.96097 12.17228
#
# Velocity S-wave (km/s) = 2.31531 3.19466 2.78985
# Velocity P-wave (km/s) = 6.03006 6.91305 6.48660
#
# Compressibility (1/GPa) = 0.02188756
#
# Stress axis : x y z
#
# Youngs Moduli (GPa) = 38.00963 77.55120 66.37670
#
# Poissons Ratio (x) = 0.30548 0.48819
# Poissons Ratio (y) = 0.14972 0.32505
# Poissons Ratio (z) = 0.27955 0.37977
#
# Static dielectric constant tensor:
#      x y z
#    x 1.530400 0.000000 0.000000 
#    y 0.000000 1.514730 0.000000 
#    z 0.000000 0.000000 1.582660 
# 
# From -- ./inp_files/22634.got.cif
#   From: 2010.05.17/outbox.cif.g08.bks.cpg/sg74_12_cif.got.tgz:22634.got - 2010.06.03 17:57:02.
