data_PCOD9533225
_publ_section_title
;
Structure prediction by ZEFSAII (Michael W. Deem and Ramdas Pophale) SiO2 
 PCOD9533225
Probable space group: I B C A 
;
_chemical_formula_sum "Si O2"
_cell_formula_units_Z 120
_cell_length_a 11.073479
_cell_length_b 25.167778
_cell_length_c 19.595226
_cell_angle_alpha 90.000000
_cell_angle_beta 90.000000
_cell_angle_gamma 90.000000
_cell_volume 5461.088789
_symmetry_space_group_name_H-M "I B C A "
_symmetry_group_IT_number 73
_symmetry_cell_setting 'orthorhombic'
loop_
_space_group_symop_operation_xyz
x,y,z
-x,1/2-y,z
x,-y,1/2-z
1/2-x,y,-z
-x,-y,-z
x,1/2+y,-z
-x,y,1/2+z
1/2+x,-y,z
1/2+x,1/2+y,1/2+z
1/2-x,-y,1/2+z
1/2+x,1/2-y,-z
-x,1/2+y,1/2-z
1/2-x,1/2-y,1/2-z
1/2+x,y,1/2-z
1/2-x,1/2+y,z
x,1/2-y,1/2+z
loop_
_atom_site_type_symbol
_atom_site_label
_atom_site_fract_x
_atom_site_fract_y
_atom_site_fract_z
Si Si1 0.211232 0.080457 0.873216
Si Si2 0.500000 0.250000 0.559683
Si Si3 0.498383 0.061464 0.018197
Si Si4 0.437218 0.601975 0.624617
Si Si5 0.755310 0.694575 0.581054
Si Si6 0.306414 0.037914 0.626493
Si Si7 0.860940 0.799288 0.448116
Si Si8 0.006808 0.061263 0.764887
O O1 0.265015 0.139579 0.880417
O O2 0.121326 0.080700 0.808396
O O3 0.117752 0.074406 0.936601
O O4 0.293507 0.026744 0.873926
O O5 0.384401 0.275768 0.596923
O O6 0.462429 0.204101 0.506305
O O7 0.621003 0.064413 0.063159
O O8 0.496657 0.091350 0.946797
O O9 0.500000 0.000000 0.000000
O O10 0.328645 0.559323 0.627569
O O11 0.379127 0.658842 0.610897
O O12 0.505813 0.593831 0.695260
O O13 0.750000 0.682727 0.500000
O O14 0.659289 0.742071 0.586901
O O15 0.384744 0.057728 0.690791
O O16 0.750000 0.810442 0.500000
O O17 0.034923 0.000000 0.750000
#
# Coordination Sequence:
#
# PCOD9533225 Si02
#       8
#    16   8  16  16  16  16  16  16
#     4  11  23  42  63  91 136 169 220 269 331 403
#     4   8  16  38  60  88 140 160 198 268 346 384
#     4  11  22  37  60 104 125 157 216 276 332 392
#     4  12  22  41  67  93 130 169 220 271 322 399
#     4   9  20  35  62  96 125 168 215 264 339 389
#     4  11  24  40  64  87 135 167 213 266 338 390
#     4   9  19  37  61  98 127 163 216 266 337 388
#     4  11  25  45  56  91 126 182 214 253 332 412
#
# _framework density 21.97364
#
# number of rings (size 3 to 8) (size 9 to 14) (size 15 to 20)
#    0.000    1.867    2.667    2.800    3.733    3.200 
#    4.800    0.667    0.000    0.800    0.000    0.000 
#    0.000    0.000    0.000    0.000    0.000    0.000 
#
# Total GULP energy -334984.109072 kJ/mol
# GULP energy per Si atom -5583.068485 kJ/mol
# Density = 2.192363 g / cm^3
# Si number density = 21.973640 Si / 1000 Ang^3
#
#
#
# Elastic Constant Matrix: (Units=GPa)
#
#
# Indices 1 2 3 4 5 6 
#
# 1 63.0631 5.7139 28.7447 0.0000 0.0000 0.0000
# 2 5.7139 118.8093 36.4363 0.0000 0.0000 0.0000
# 3 28.7447 36.4363 125.3572 0.0000 0.0000 0.0000
# 4 0.0000 0.0000 0.0000 25.3402 0.0000 0.0000
# 5 0.0000 0.0000 0.0000 0.0000 20.0795 0.0000
# 6 0.0000 0.0000 0.0000 0.0000 0.0000 22.5397
#
#
#
# Elastic Compliance Matrix: (Units=1/GPa)
#
#
# Indices 1 2 3 4 5 6 
#
# 1 0.017728 0.000433 -0.004191 0.000000 0.000000 0.000000
# 2 0.000433 0.009251 -0.002788 0.000000 0.000000 0.000000
# 3 -0.004191 -0.002788 0.009749 0.000000 0.000000 0.000000
# 4 0.000000 0.000000 0.000000 0.039463 0.000000 0.000000
# 5 0.000000 0.000000 0.000000 0.000000 0.049802 0.000000
# 6 0.000000 0.000000 0.000000 0.000000 0.000000 0.044366
#
#
# Mechanical properties :
#
#
# Convention : Reuss Voigt Hill
#
# Bulk Modulus (GPa) = 42.30985 49.89104 46.10044
# Shear Modulus (GPa) = 26.13284 29.34752 27.74018
#
# Velocity S-wave (km/s) = 3.45234 3.65852 3.55692
# Velocity P-wave (km/s) = 5.93196 6.37186 6.15584
#
# Compressibility (1/GPa) = 0.02363516
#
# Stress axis : x y z
#
# Youngs Moduli (GPa) = 56.40737 108.09523 102.57905
#
# Poissons Ratio (x) = -0.04677 0.42990
# Poissons Ratio (y) = -0.02440 0.28600
# Poissons Ratio (z) = 0.23640 0.30138
#
# Static dielectric constant tensor:
#      x y z
#    x 1.998640 0.000000 0.000000 
#    y 0.000000 1.836340 0.000000 
#    z 0.000000 0.000000 1.842080 
# 
# From -- ./inp_files/25708.got.cif
#   From: 2010.05.17/outbox.cif.g08.bks.cpg/sg73_13_cif.got.tgz:25708.got - 2010.06.03 17:35:07.
