data_PCOD9533088
_publ_section_title
;
Structure prediction by ZEFSAII (Michael W. Deem and Ramdas Pophale) SiO2 
 PCOD9533088
Probable space group: I B C A 
;
_chemical_formula_sum "Si O2"
_cell_formula_units_Z 120
_cell_length_a 22.614490
_cell_length_b 9.726104
_cell_length_c 21.647787
_cell_angle_alpha 90.000000
_cell_angle_beta 90.000000
_cell_angle_gamma 90.000000
_cell_volume 4761.449836
_symmetry_space_group_name_H-M "I B C A "
_symmetry_group_IT_number 73
_symmetry_cell_setting 'orthorhombic'
loop_
_space_group_symop_operation_xyz
x,y,z
-x,1/2-y,z
x,-y,1/2-z
1/2-x,y,-z
-x,-y,-z
x,1/2+y,-z
-x,y,1/2+z
1/2+x,-y,z
1/2+x,1/2+y,1/2+z
1/2-x,-y,1/2+z
1/2+x,1/2-y,-z
-x,1/2+y,1/2-z
1/2-x,1/2-y,1/2-z
1/2+x,y,1/2-z
1/2-x,1/2+y,z
x,1/2-y,1/2+z
loop_
_atom_site_type_symbol
_atom_site_label
_atom_site_fract_x
_atom_site_fract_y
_atom_site_fract_z
Si Si1 0.704022 0.233045 0.058864
Si Si2 0.320508 0.274949 0.874927
Si Si3 0.731633 0.000000 0.250000
Si Si4 0.884883 0.483943 0.945113
Si Si5 0.611527 0.009081 0.414303
Si Si6 0.549835 0.844144 0.753725
Si Si7 0.176603 0.215313 0.771316
Si Si8 0.988855 0.392817 0.621454
O O1 0.751422 0.216298 0.112267
O O2 0.668457 0.375337 0.060479
O O3 0.652108 0.124507 0.073359
O O4 0.750000 0.223623 0.000000
O O5 0.354129 0.373830 0.923067
O O6 0.327452 0.307589 0.803049
O O7 0.343912 0.123501 0.888817
O O8 0.776021 0.901909 0.210178
O O9 0.691454 0.877282 0.278292
O O10 0.944203 0.493387 0.904888
O O11 0.906961 0.463810 0.014880
O O12 0.552072 0.029128 0.373612
O O13 0.500000 0.750000 0.781735
O O14 0.610484 0.822268 0.789729
O O15 0.547715 0.822426 0.679182
O O16 0.530666 0.000000 0.750000
O O17 0.000000 0.250000 0.583055
#
# Coordination Sequence:
#
# PCOD9533088 Si02
#       8
#    16  16   8  16  16  16  16  16
#     4  12  26  41  64 102 142 179 234 282 336 408
#     4  12  24  42  70  98 139 189 227 280 350 417
#     4  10  26  46  74 106 138 182 230 300 376 438
#     4  12  23  43  68  95 138 187 228 288 340 406
#     4  12  24  44  67  96 139 185 231 287 338 408
#     4  11  24  48  73 100 136 180 233 301 360 424
#     4  11  24  48  72 103 141 178 235 295 365 434
#     4  11  24  47  70  97 133 181 239 284 352 413
#
# _framework density 25.202408999999999
#
# number of rings (size 3 to 8) (size 9 to 14) (size 15 to 20)
#    0.000    0.533    6.000    2.000    4.667    0.533 
#    2.400    0.000    0.000    0.000    0.000    0.000 
#    0.000    0.000    0.000    0.000    0.000    0.000 
#
# Total GULP energy -334596.441396 kJ/mol
# GULP energy per Si atom -5576.607357 kJ/mol
# Density = 2.514505 g / cm^3
# Si number density = 25.202409 Si / 1000 Ang^3
#
#
#
# Elastic Constant Matrix: (Units=GPa)
#
#
# Indices 1 2 3 4 5 6 
#
# 1 154.9668 38.8193 0.0681 0.0000 0.0000 0.0000
# 2 38.8193 130.6654 5.5442 0.0000 0.0000 0.0000
# 3 0.0681 5.5442 62.1059 0.0000 0.0000 0.0000
# 4 0.0000 0.0000 0.0000 68.7814 0.0000 0.0000
# 5 0.0000 0.0000 0.0000 0.0000 27.7882 0.0000
# 6 0.0000 0.0000 0.0000 0.0000 0.0000 64.5808
#
#
#
# Elastic Compliance Matrix: (Units=1/GPa)
#
#
# Indices 1 2 3 4 5 6 
#
# 1 0.006974 -0.002079 0.000178 0.000000 0.000000 0.000000
# 2 -0.002079 0.008302 -0.000739 0.000000 0.000000 0.000000
# 3 0.000178 -0.000739 0.016167 0.000000 0.000000 0.000000
# 4 0.000000 0.000000 0.000000 0.014539 0.000000 0.000000
# 5 0.000000 0.000000 0.000000 0.000000 0.035987 0.000000
# 6 0.000000 0.000000 0.000000 0.000000 0.000000 0.015484
#
#
# Mechanical properties :
#
#
# Convention : Reuss Voigt Hill
#
# Bulk Modulus (GPa) = 38.22223 48.51127 43.36675
# Shear Modulus (GPa) = 44.86128 52.45050 48.65589
#
# Velocity S-wave (km/s) = 4.22363 4.56693 4.39863
# Velocity P-wave (km/s) = 6.24375 6.86292 6.56064
#
# Compressibility (1/GPa) = 0.02616279
#
# Stress axis : x y z
#
# Youngs Moduli (GPa) = 143.39371 120.44926 61.85329
#
# Poissons Ratio (x) = 0.25046 -0.01101
# Poissons Ratio (y) = 0.29817 0.04570
# Poissons Ratio (z) = -0.02552 0.08900
#
# Static dielectric constant tensor:
#      x y z
#    x 2.188020 0.000000 0.000000 
#    y 0.000000 2.198310 0.000000 
#    z 0.000000 0.000000 2.985830 
# 
# From -- ./inp_files/32893.got.cif
#   From: 2010.05.17/outbox.cif.g08.bks.cpg/sg73_17_cif.got.tgz:32893.got - 2010.06.03 17:35:07.
