data_PCOD9533934
_publ_section_title
;
Structure prediction by ZEFSAII (Michael W. Deem and Ramdas Pophale) SiO2 
 PCOD9533934
Probable space group: I M M A
;
_chemical_formula_sum "Si O2"
_cell_formula_units_Z 80
_cell_length_a 24.142825
_cell_length_b 17.169593
_cell_length_c 12.877397
_cell_angle_alpha 90.000000
_cell_angle_beta 90.000000
_cell_angle_gamma 90.000000
_cell_volume 5337.970529
_symmetry_space_group_name_H-M "I M M A"
_symmetry_group_IT_number 74
_symmetry_cell_setting 'orthorhombic'
loop_
_space_group_symop_operation_xyz
x,y,z
-x,1/2-y,z
x,-y,-z
-x,1/2+y,-z
-x,-y,-z
x,1/2+y,-z
-x,y,z
x,1/2-y,z
1/2+x,1/2+y,1/2+z
1/2-x,-y,1/2+z
1/2+x,1/2-y,1/2-z
1/2-x,y,1/2-z
1/2-x,1/2-y,1/2-z
1/2+x,y,1/2-z
1/2-x,1/2+y,1/2+z
1/2+x,-y,1/2+z
loop_
_atom_site_type_symbol
_atom_site_label
_atom_site_fract_x
_atom_site_fract_y
_atom_site_fract_z
Si Si1 0.500000 0.657728 0.689854
Si Si2 0.500000 0.157525 0.560753
Si Si3 0.815354 0.157220 0.029041
Si Si4 0.118010 0.088708 0.226545
Si Si5 0.106183 0.558113 0.097484
Si Si6 0.209929 0.659778 0.648727
O O1 0.500000 0.750000 0.707962
O O2 0.500000 0.645662 0.564573
O O3 0.555787 0.620064 0.734281
O O4 0.500000 0.250000 0.579150
O O5 0.554231 0.115433 0.605294
O O6 0.819474 0.250000 0.014600
O O7 0.853429 0.134114 0.128606
O O8 0.751930 0.137056 0.056974
O O9 0.840583 0.108484 0.934957
O O10 0.157007 0.108257 0.323834
O O11 0.116195 0.998541 0.193915
O O12 0.094494 0.500000 0.000000
O O13 0.193014 0.750000 0.635289
O O14 0.250000 0.657548 0.750000
#
# Coordination Sequence:
#
# PCOD9533934 Si02
#       6
#     8   8  16  16  16  16
#     4  11  17  21  33  47  68 100 126 145 168 205
#     4  11  18  24  32  44  70 102 127 146 168 201
#     4   9  15  24  36  48  66  93 125 152 177 212
#     4  10  17  23  33  49  73  95 120 149 178 209
#     4  10  17  23  32  49  72  96 121 151 177 206
#     4   8  14  24  36  48  65  93 124 151 178 213
#
# _framework density 14.986969
#
# number of rings (size 3 to 8) (size 9 to 14) (size 15 to 20)
#    0.000    2.400    4.000    4.500    0.000    0.000 
#    0.000    0.000    0.000    0.000    0.000    0.000 
#    0.000  123.200    0.000   45.900    0.000   40.800 
#
# Total GULP energy -222747.771517 kJ/mol
# GULP energy per Si atom -5568.694288 kJ/mol
# Density = 1.495286 g / cm^3
# Si number density = 14.986969 Si / 1000 Ang^3
#
#
#
# Elastic Constant Matrix: (Units=GPa)
#
#
# Indices 1 2 3 4 5 6 
#
# 1 138.1186 74.4258 37.0553 0.0000 0.0000 0.0000
# 2 74.4258 102.8423 27.8677 0.0000 0.0000 0.0000
# 3 37.0553 27.8677 16.1873 0.0000 0.0000 0.0000
# 4 0.0000 0.0000 0.0000 -0.0878 0.0000 0.0000
# 5 0.0000 0.0000 0.0000 0.0000 1.8498 0.0000
# 6 0.0000 0.0000 0.0000 0.0000 0.0000 -10.2842
#
#
#
# Elastic Compliance Matrix: (Units=1/GPa)
#
#
# Indices 1 2 3 4 5 6 
#
# 1 0.019519 -0.003782 -0.038170 0.000000 0.000000 0.000000
# 2 -0.003782 0.018959 -0.023981 0.000000 0.000000 0.000000
# 3 -0.038170 -0.023981 0.190439 0.000000 0.000000 0.000000
# 4 0.000000 0.000000 0.000000-11.394567 0.000000 0.000000
# 5 0.000000 0.000000 0.000000 0.000000 0.540599 0.000000
# 6 0.000000 0.000000 0.000000 0.000000 0.000000 -0.097236
#
#
# Mechanical properties :
#
#
# Convention : Reuss Voigt Hill
#
# Bulk Modulus (GPa) = 10.30396 59.53841 34.92118
# Shear Modulus (GPa) = -0.47357 6.14886 2.83765
#
# Velocity S-wave (km/s) = -0.56274 2.02774 1.37750
# Velocity P-wave (km/s) = 2.54322 6.73018 5.08740
#
# Compressibility (1/GPa) = 0.09705011
#
# Stress axis : x y z
#
# Youngs Moduli (GPa) = 51.23296 52.74468 5.25103
#
# Poissons Ratio (x) = 0.19950 0.20043
# Poissons Ratio (y) = 0.19379 0.12593
# Poissons Ratio (z) = 1.95554 1.26489
#
# Static dielectric constant tensor:
#      x y z
#    x 1.514030 0.000000 0.000000 
#    y 0.000000 1.503960 0.000000 
#    z 0.000000 0.000000 1.471160 
# 
# From -- ./inp_files/22347.got.cif
#   From: 2010.05.17/outbox.cif.g08.bks.cpg/sg74_12_cif.got.tgz:22347.got - 2010.06.03 17:57:02.
