data_PCOD9533410
_publ_section_title
;
Structure prediction by ZEFSAII (Michael W. Deem and Ramdas Pophale) SiO2 
 PCOD9533410
Probable space group: I B C A 
;
_chemical_formula_sum "Si O2"
_cell_formula_units_Z 120
_cell_length_a 11.260758
_cell_length_b 21.953147
_cell_length_c 22.143366
_cell_angle_alpha 90.000000
_cell_angle_beta 90.000000
_cell_angle_gamma 90.000000
_cell_volume 5474.041042
_symmetry_space_group_name_H-M "I B C A "
_symmetry_group_IT_number 73
_symmetry_cell_setting 'orthorhombic'
loop_
_space_group_symop_operation_xyz
x,y,z
-x,1/2-y,z
x,-y,1/2-z
1/2-x,y,-z
-x,-y,-z
x,1/2+y,-z
-x,y,1/2+z
1/2+x,-y,z
1/2+x,1/2+y,1/2+z
1/2-x,-y,1/2+z
1/2+x,1/2-y,-z
-x,1/2+y,1/2-z
1/2-x,1/2-y,1/2-z
1/2+x,y,1/2-z
1/2-x,1/2+y,z
x,1/2-y,1/2+z
loop_
_atom_site_type_symbol
_atom_site_label
_atom_site_fract_x
_atom_site_fract_y
_atom_site_fract_z
Si Si1 0.751436 0.256019 0.428758
Si Si2 0.208519 0.088044 0.300259
Si Si3 0.177517 0.447233 0.668711
Si Si4 0.925480 0.863899 0.597098
Si Si5 0.552818 0.615554 0.131355
Si Si6 0.500000 0.750000 0.622289
Si Si7 0.382478 0.044671 0.494328
Si Si8 0.697661 0.375700 0.067621
O O1 0.750000 0.253633 0.500000
O O2 0.856480 0.300480 0.409758
O O3 0.617267 0.271037 0.412809
O O4 0.765424 0.188664 0.404084
O O5 0.209488 0.091282 0.228395
O O6 0.094415 0.116902 0.333712
O O7 0.325573 0.116186 0.330773
O O8 0.203858 0.016972 0.316970
O O9 0.252927 0.427279 0.610924
O O10 0.039565 0.435540 0.654423
O O11 0.865823 0.912590 0.552852
O O12 0.057112 0.868793 0.571287
O O13 0.482876 0.680076 0.146372
O O14 0.588239 0.589584 0.063518
O O15 0.250000 0.013419 0.500000
O O16 0.500000 0.000000 0.500000
O O17 0.750000 0.379132 0.000000
#
# Coordination Sequence:
#
# PCOD9533410 Si02
#       8
#    16  16  16  16  16   8  16  16
#     4  11  24  41  68 100 142 188 236 293 363 428
#     4  11  27  46  73 100 142 190 241 296 367 435
#     4  11  27  48  71 106 138 190 244 303 363 442
#     4  12  24  44  67 102 142 187 237 291 367 431
#     4  12  25  47  74 103 145 191 243 299 369 437
#     4  12  22  46  68 102 144 186 240 294 364 442
#     4  12  26  44  71 108 151 189 240 304 362 433
#     4  11  26  44  71 105 143 186 239 304 361 434
#
# _framework density 21.921648000000001
#
# number of rings (size 3 to 8) (size 9 to 14) (size 15 to 20)
#    0.000    0.533    4.000    3.200   11.200    1.600 
#    0.000    2.667    0.000    0.000    0.000    0.000 
#    0.000    0.000    0.000    0.000    0.000    0.000 
#
# Total GULP energy -334271.819853 kJ/mol
# GULP energy per Si atom -5571.196998 kJ/mol
# Density = 2.187175 g / cm^3
# Si number density = 21.921648 Si / 1000 Ang^3
#
#
#
# Elastic Constant Matrix: (Units=GPa)
#
#
# Indices 1 2 3 4 5 6 
#
# 1 137.2480 10.6838 24.7754 0.0000 0.0000 0.0000
# 2 10.6838 83.4212 18.7549 0.0000 0.0000 0.0000
# 3 24.7754 18.7549 81.3539 0.0000 0.0000 0.0000
# 4 0.0000 0.0000 0.0000 35.9209 0.0000 0.0000
# 5 0.0000 0.0000 0.0000 0.0000 18.4800 0.0000
# 6 0.0000 0.0000 0.0000 0.0000 0.0000 -111.1782
#
#
#
# Elastic Compliance Matrix: (Units=1/GPa)
#
#
# Indices 1 2 3 4 5 6 
#
# 1 0.007729 -0.000486 -0.002242 0.000000 0.000000 0.000000
# 2 -0.000486 0.012673 -0.002774 0.000000 0.000000 0.000000
# 3 -0.002242 -0.002774 0.013614 0.000000 0.000000 0.000000
# 4 0.000000 0.000000 0.000000 0.027839 0.000000 0.000000
# 5 0.000000 0.000000 0.000000 0.000000 0.054113 0.000000
# 6 0.000000 0.000000 0.000000 0.000000 0.000000 -0.008995
#
#
# Mechanical properties :
#
#
# Convention : Reuss Voigt Hill
#
# Bulk Modulus (GPa) = 43.45269 45.60569 44.52919
# Shear Modulus (GPa) = 39.79429 5.16515 22.47972
#
# Velocity S-wave (km/s) = 4.26525 1.53665 3.20575
# Velocity P-wave (km/s) = 6.64239 4.89873 5.83605
#
# Compressibility (1/GPa) = 0.02301354
#
# Stress axis : x y z
#
# Youngs Moduli (GPa) = 129.39033 78.90693 73.45348
#
# Poissons Ratio (x) = 0.03834 0.16466
# Poissons Ratio (y) = 0.06286 0.20373
# Poissons Ratio (z) = 0.29005 0.21886
#
# Static dielectric constant tensor:
#      x y z
#    x 0.000000 0.000000 0.000000 
#    y 0.000000 0.000000 0.000000 
#    z 0.000000 0.000000 0.000000 
# 
# From -- ./inp_files/25619.got.cif
#   From: 2010.05.17/outbox.cif.g08.bks.cpg/sg73_13_cif.got.tgz:25619.got - 2010.06.03 17:35:07.
