data_PCOD9533520
_publ_section_title
;
Structure prediction by ZEFSAII (Michael W. Deem and Ramdas Pophale) SiO2 
 PCOD9533520
Probable space group: I B C A 
;
_chemical_formula_sum "Si O2"
_cell_formula_units_Z 64
_cell_length_a 15.806349
_cell_length_b 11.623446
_cell_length_c 14.872882
_cell_angle_alpha 90.000000
_cell_angle_beta 90.000000
_cell_angle_gamma 90.000000
_cell_volume 2732.509002
_symmetry_space_group_name_H-M "I B C A "
_symmetry_group_IT_number 73
_symmetry_cell_setting 'orthorhombic'
loop_
_space_group_symop_operation_xyz
x,y,z
-x,1/2-y,z
x,-y,1/2-z
1/2-x,y,-z
-x,-y,-z
x,1/2+y,-z
-x,y,1/2+z
1/2+x,-y,z
1/2+x,1/2+y,1/2+z
1/2-x,-y,1/2+z
1/2+x,1/2-y,-z
-x,1/2+y,1/2-z
1/2-x,1/2-y,1/2-z
1/2+x,y,1/2-z
1/2-x,1/2+y,z
x,1/2-y,1/2+z
loop_
_atom_site_type_symbol
_atom_site_label
_atom_site_fract_x
_atom_site_fract_y
_atom_site_fract_z
Si Si1 0.347685 0.506771 0.848663
Si Si2 0.836776 0.605184 0.302750
Si Si3 0.599419 0.777605 0.551583
Si Si4 0.902321 0.251622 0.855105
O O1 0.387681 0.500000 0.750000
O O2 0.250803 0.544475 0.832127
O O3 0.366252 0.388152 0.895511
O O4 0.388345 0.618901 0.890760
O O5 0.884642 0.500000 0.250000
O O6 0.864376 0.667722 0.394256
O O7 0.843545 0.705461 0.225700
O O8 0.500000 0.750000 0.554842
O O9 0.617233 0.812254 0.447876
O O10 0.000000 0.250000 0.824949
#
# Coordination Sequence:
#
# PCOD9533520 Si02
#       4
#    16  16  16  16
#     4  11  25  47  70 102 146 191 246 302 369 446
#     4  11  26  46  70 104 148 190 241 307 368 441
#     4  11  27  47  73 110 147 194 253 302 374 451
#     4  11  26  45  74 108 145 193 249 305 372 444
#
# _framework density 23.421697999999999
#
# number of rings (size 3 to 8) (size 9 to 14) (size 15 to 20)
#    0.000    1.000    2.500    1.500   10.500    3.000 
#    4.500    0.000    0.000    0.000    0.000    0.000 
#    0.000    0.000    0.000    0.000    0.000    0.000 
#
# Total GULP energy -178289.873700 kJ/mol
# GULP energy per Si atom -5571.558553 kJ/mol
# Density = 2.336839 g / cm^3
# Si number density = 23.421698 Si / 1000 Ang^3
#
#
#
# Elastic Constant Matrix: (Units=GPa)
#
#
# Indices 1 2 3 4 5 6 
#
# 1 72.9914 26.2354 45.5376 0.0000 0.0000 0.0000
# 2 26.2354 77.6736 -1.6353 0.0000 0.0000 0.0000
# 3 45.5376 -1.6353 104.9263 0.0000 0.0000 0.0000
# 4 0.0000 0.0000 0.0000 40.0946 0.0000 0.0000
# 5 0.0000 0.0000 0.0000 0.0000 6.6161 0.0000
# 6 0.0000 0.0000 0.0000 0.0000 0.0000 189.7940
#
#
#
# Elastic Compliance Matrix: (Units=1/GPa)
#
#
# Indices 1 2 3 4 5 6 
#
# 1 0.022791 -0.007909 -0.010014 0.000000 0.000000 0.000000
# 2 -0.007909 0.015623 0.003676 0.000000 0.000000 0.000000
# 3 -0.010014 0.003676 0.013934 0.000000 0.000000 0.000000
# 4 0.000000 0.000000 0.000000 0.024941 0.000000 0.000000
# 5 0.000000 0.000000 0.000000 0.000000 0.151147 0.000000
# 6 0.000000 0.000000 0.000000 0.000000 0.000000 0.005269
#
#
# Mechanical properties :
#
#
# Convention : Reuss Voigt Hill
#
# Bulk Modulus (GPa) = 41.92294 43.98519 42.95406
# Shear Modulus (GPa) = 18.50826 59.66452 39.08639
#
# Velocity S-wave (km/s) = 2.81413 5.05266 4.08954
# Velocity P-wave (km/s) = 5.33827 7.27046 6.37796
#
# Compressibility (1/GPa) = 0.02385329
#
# Stress axis : x y z
#
# Youngs Moduli (GPa) = 43.87789 64.00803 71.76728
#
# Poissons Ratio (x) = 0.50622 0.71870
# Poissons Ratio (y) = 0.34702 -0.26380
# Poissons Ratio (z) = 0.43940 -0.23528
#
# Static dielectric constant tensor:
#      x y z
#    x 1.964010 0.000000 0.000000 
#    y 0.000000 -3.872210 0.000000 
#    z 0.000000 0.000000 2.046950 
# 
# From -- ./inp_files/10461.got.cif
#   From: 2010.05.17/outbox.cif.g08.bks.cpg/sg73_6_cif.got.tgz:10461.got - 2010.06.03 17:35:07.
