data_PCOD9533518
_publ_section_title
;
Structure prediction by ZEFSAII (Michael W. Deem and Ramdas Pophale) SiO2 
 PCOD9533518
Probable space group: I B C A 
;
_chemical_formula_sum "Si O2"
_cell_formula_units_Z 48
_cell_length_a 10.796610
_cell_length_b 10.009110
_cell_length_c 17.629555
_cell_angle_alpha 90.000000
_cell_angle_beta 90.000000
_cell_angle_gamma 90.000000
_cell_volume 1905.128290
_symmetry_space_group_name_H-M "I B C A "
_symmetry_group_IT_number 73
_symmetry_cell_setting 'orthorhombic'
loop_
_space_group_symop_operation_xyz
x,y,z
-x,1/2-y,z
x,-y,1/2-z
1/2-x,y,-z
-x,-y,-z
x,1/2+y,-z
-x,y,1/2+z
1/2+x,-y,z
1/2+x,1/2+y,1/2+z
1/2-x,-y,1/2+z
1/2+x,1/2-y,-z
-x,1/2+y,1/2-z
1/2-x,1/2-y,1/2-z
1/2+x,y,1/2-z
1/2-x,1/2+y,z
x,1/2-y,1/2+z
loop_
_atom_site_type_symbol
_atom_site_label
_atom_site_fract_x
_atom_site_fract_y
_atom_site_fract_z
Si Si1 0.209801 0.254230 0.589322
Si Si2 0.987359 0.043238 0.085506
Si Si3 0.914247 0.638876 0.704881
O O1 0.250000 0.266697 0.500000
O O2 0.148310 0.108116 0.597091
O O3 0.302500 0.293444 0.657620
O O4 0.096034 0.354266 0.599077
O O5 0.002325 0.916809 0.138456
O O6 0.000000 0.000000 0.000000
O O7 0.884476 0.500000 0.750000
O O8 0.000000 0.750000 0.746412
#
# Coordination Sequence:
#
# PCOD9533518 Si02
#       3
#    16  16  16
#     4  11  25  46  79 114 155 205 262 333 395 471
#     4  11  25  47  77 116 153 203 268 324 399 474
#     4  12  30  51  78 115 161 211 265 327 404 477
#
# _framework density 25.195153000000001
#
# number of rings (size 3 to 8) (size 9 to 14) (size 15 to 20)
#    0.000    0.667    3.333    2.000   14.000    2.667 
#    0.000    0.000    0.000    0.000    0.000    0.000 
#    0.000    0.000    0.000    0.000    0.000    0.000 
#
# Total GULP energy -134179.641682 kJ/mol
# GULP energy per Si atom -5590.818403 kJ/mol
# Density = 2.513781 g / cm^3
# Si number density = 25.195153 Si / 1000 Ang^3
#
#
#
# Elastic Constant Matrix: (Units=GPa)
#
#
# Indices 1 2 3 4 5 6 
#
# 1 128.0063 71.8655 58.3180 0.0000 0.0000 0.0000
# 2 71.8655 126.6656 55.3214 0.0000 0.0000 0.0000
# 3 58.3180 55.3214 167.4207 0.0000 0.0000 0.0000
# 4 0.0000 0.0000 0.0000 55.5138 0.0000 0.0000
# 5 0.0000 0.0000 0.0000 0.0000 17.2075 0.0000
# 6 0.0000 0.0000 0.0000 0.0000 0.0000 54.1532
#
#
#
# Elastic Compliance Matrix: (Units=1/GPa)
#
#
# Indices 1 2 3 4 5 6 
#
# 1 0.012170 -0.005906 -0.002288 0.000000 0.000000 0.000000
# 2 -0.005906 0.012092 -0.001939 0.000000 0.000000 0.000000
# 3 -0.002288 -0.001939 0.007410 0.000000 0.000000 0.000000
# 4 0.000000 0.000000 0.000000 0.018014 0.000000 0.000000
# 5 0.000000 0.000000 0.000000 0.000000 0.058114 0.000000
# 6 0.000000 0.000000 0.000000 0.000000 0.000000 0.018466
#
#
# Mechanical properties :
#
#
# Convention : Reuss Voigt Hill
#
# Bulk Modulus (GPa) = 87.65261 88.12247 87.88754
# Shear Modulus (GPa) = 33.25948 41.14740 37.20344
#
# Velocity S-wave (km/s) = 3.63722 4.04561 3.84684
# Velocity P-wave (km/s) = 7.24598 7.54152 7.39522
#
# Compressibility (1/GPa) = 0.01140867
#
# Stress axis : x y z
#
# Youngs Moduli (GPa) = 82.16990 82.69884 134.94493
#
# Poissons Ratio (x) = 0.48838 0.30872
# Poissons Ratio (y) = 0.48526 0.26159
# Poissons Ratio (z) = 0.18799 0.16031
#
# Static dielectric constant tensor:
#      x y z
#    x 1.972780 0.000000 0.000000 
#    y 0.000000 1.972880 0.000000 
#    z 0.000000 0.000000 2.023700 
# 
# From -- ./inp_files/20954.got.cif
#   From: 2010.05.17/outbox.cif.g08.bks.cpg/sg73_11_cif.got.tgz:20954.got - 2010.06.03 17:35:07.
