data_PCOD9533070
_publ_section_title
;
Structure prediction by ZEFSAII (Michael W. Deem and Ramdas Pophale) SiO2 
 PCOD9533070
Probable space group: I B C A 
;
_chemical_formula_sum "Si O2"
_cell_formula_units_Z 88
_cell_length_a 11.774296
_cell_length_b 24.630219
_cell_length_c 13.394647
_cell_angle_alpha 90.000000
_cell_angle_beta 90.000000
_cell_angle_gamma 90.000000
_cell_volume 3884.494365
_symmetry_space_group_name_H-M "I B C A "
_symmetry_group_IT_number 73
_symmetry_cell_setting 'orthorhombic'
loop_
_space_group_symop_operation_xyz
x,y,z
-x,1/2-y,z
x,-y,1/2-z
1/2-x,y,-z
-x,-y,-z
x,1/2+y,-z
-x,y,1/2+z
1/2+x,-y,z
1/2+x,1/2+y,1/2+z
1/2-x,-y,1/2+z
1/2+x,1/2-y,-z
-x,1/2+y,1/2-z
1/2-x,1/2-y,1/2-z
1/2+x,y,1/2-z
1/2-x,1/2+y,z
x,1/2-y,1/2+z
loop_
_atom_site_type_symbol
_atom_site_label
_atom_site_fract_x
_atom_site_fract_y
_atom_site_fract_z
Si Si1 0.224893 0.829748 0.257968
Si Si2 0.192091 0.421077 0.106838
Si Si3 0.574629 0.597075 0.621621
Si Si4 0.651262 0.287655 0.570041
Si Si5 0.904071 0.667367 0.562807
Si Si6 0.308459 0.500000 0.250000
O O1 0.255536 0.873514 0.173501
O O2 0.111389 0.850222 0.313813
O O3 0.193753 0.780418 0.183611
O O4 0.326925 0.835896 0.338087
O O5 0.227416 0.473814 0.168028
O O6 0.057920 0.412442 0.105631
O O7 0.250000 0.425450 0.000000
O O8 0.618155 0.617121 0.511779
O O9 0.621711 0.545760 0.686188
O O10 0.750000 0.309777 0.500000
O O11 0.539594 0.325097 0.576172
O O12 0.625306 0.228195 0.523539
#
# Coordination Sequence:
#
# PCOD9533070 Si02
#       6
#    16  16  16  16  16   8
#     4  11  22  40  64  95 135 179 228 281 336 405
#     4  11  24  42  66  96 129 173 224 283 349 414
#     4  11  23  44  68  97 136 178 227 288 347 408
#     4  11  23  41  64  99 140 185 232 278 337 403
#     4  11  24  40  67  99 137 184 231 282 336 405
#     4  10  26  44  70 100 130 176 232 288 354 416
#
# _framework density 22.654170000000001
#
# number of rings (size 3 to 8) (size 9 to 14) (size 15 to 20)
#    0.000    1.091    0.000    6.545    0.000    5.091 
#    0.000    3.636    0.000    0.000    0.000    0.000 
#    0.000    0.000    0.000    0.000    0.000    0.000 
#
# Total GULP energy -245292.115614 kJ/mol
# GULP energy per Si atom -5574.820809 kJ/mol
# Density = 2.260261 g / cm^3
# Si number density = 22.654170 Si / 1000 Ang^3
#
#
#
# Elastic Constant Matrix: (Units=GPa)
#
#
# Indices 1 2 3 4 5 6 
#
# 1 188.5457 27.4855 93.5753 0.0000 0.0000 0.0000
# 2 27.4855 53.6973 61.9436 0.0000 0.0000 0.0000
# 3 93.5753 61.9436 178.9792 0.0002 -0.0001 0.0001
# 4 0.0000 0.0000 0.0002 54.5472 0.0000 0.0000
# 5 0.0000 0.0000 -0.0001 0.0000 36.1280 0.0000
# 6 0.0000 0.0000 0.0001 0.0000 0.0000 14.8135
#
#
#
# Elastic Compliance Matrix: (Units=1/GPa)
#
#
# Indices 1 2 3 4 5 6 
#
# 1 0.007201 0.001094 -0.004143 0.000000 0.000000 0.000000
# 2 0.001094 0.031165 -0.011358 0.000000 0.000000 0.000000
# 3 -0.004143 -0.011358 0.011684 0.000000 0.000000 0.000000
# 4 0.000000 0.000000 0.000000 0.018333 0.000000 0.000000
# 5 0.000000 0.000000 0.000000 0.000000 0.027679 0.000000
# 6 0.000000 0.000000 0.000000 0.000000 0.000000 0.067506
#
#
# Mechanical properties :
#
#
# Convention : Reuss Voigt Hill
#
# Bulk Modulus (GPa) = 47.09111 87.47009 67.28060
# Shear Modulus (GPa) = 25.06746 36.97891 31.02319
#
# Velocity S-wave (km/s) = 3.33006 4.04458 3.70459
# Velocity P-wave (km/s) = 5.96807 7.77859 6.93268
#
# Compressibility (1/GPa) = 0.02123543
#
# Stress axis : x y z
#
# Youngs Moduli (GPa) = 138.87758 32.08699 85.58446
#
# Poissons Ratio (x) = -0.03510 0.35460
# Poissons Ratio (y) = -0.15191 0.97207
# Poissons Ratio (z) = 0.57540 0.36444
#
# Static dielectric constant tensor:
#      x y z
#    x 1.858980 0.000000 0.000000 
#    y 0.000000 1.950820 0.000000 
#    z 0.000000 0.000000 1.887980 
# 
# From -- ./inp_files/9884.got.cif
#   From: 2010.05.17/outbox.cif.g08.bks.cpg/sg73_5_cif.got.tgz:9884.got - 2010.06.03 17:35:07.
