data_PCOD9533348
_publ_section_title
;
Structure prediction by ZEFSAII (Michael W. Deem and Ramdas Pophale) SiO2 
 PCOD9533348
Probable space group: I B C A 
;
_chemical_formula_sum "Si O2"
_cell_formula_units_Z 48
_cell_length_a 24.363145
_cell_length_b 9.444645
_cell_length_c 9.894545
_cell_angle_alpha 90.000000
_cell_angle_beta 90.000000
_cell_angle_gamma 90.000000
_cell_volume 2276.747228
_symmetry_space_group_name_H-M "I B C A "
_symmetry_group_IT_number 73
_symmetry_cell_setting 'orthorhombic'
loop_
_space_group_symop_operation_xyz
x,y,z
-x,1/2-y,z
x,-y,1/2-z
1/2-x,y,-z
-x,-y,-z
x,1/2+y,-z
-x,y,1/2+z
1/2+x,-y,z
1/2+x,1/2+y,1/2+z
1/2-x,-y,1/2+z
1/2+x,1/2-y,-z
-x,1/2+y,1/2-z
1/2-x,1/2-y,1/2-z
1/2+x,y,1/2-z
1/2-x,1/2+y,z
x,1/2-y,1/2+z
loop_
_atom_site_type_symbol
_atom_site_label
_atom_site_fract_x
_atom_site_fract_y
_atom_site_fract_z
Si Si1 0.147786 0.830021 0.851628
Si Si2 0.688952 0.381201 0.051736
Si Si3 0.478978 0.090589 0.375166
O O1 0.150786 0.685610 0.935839
O O2 0.086479 0.891662 0.858709
O O3 0.170792 0.180890 0.801500
O O4 0.183204 0.950601 0.927700
O O5 0.750000 0.347766 0.000000
O O6 0.500000 0.250000 0.380188
O O7 0.500308 0.000000 0.250000
O O8 0.500000 0.000000 0.500000
#
# Coordination Sequence:
#
# PCOD9533348 Si02
#       3
#    16  16  16
#     4  11  25  45  66 104 140 175 242 279 349 426
#     4  11  23  43  69  97 139 182 226 288 345 415
#     4  12  26  46  73 103 145 187 236 295 359 424
#
# _framework density 21.082709999999999
#
# number of rings (size 3 to 8) (size 9 to 14) (size 15 to 20)
#    0.000    0.667    3.333    5.000    4.667    4.000 
#    0.000    0.000    0.000    0.000    0.000    0.000 
#    0.000    0.000    0.000    0.000    0.000    0.000 
#
# Total GULP energy -134077.341153 kJ/mol
# GULP energy per Si atom -5586.555881 kJ/mol
# Density = 2.103473 g / cm^3
# Si number density = 21.082710 Si / 1000 Ang^3
#
#
#
# Elastic Constant Matrix: (Units=GPa)
#
#
# Indices 1 2 3 4 5 6 
#
# 1 108.2489 31.7769 65.6911 0.0000 0.0000 0.0000
# 2 31.7769 108.4493 69.8647 0.0000 0.0000 0.0000
# 3 65.6911 69.8647 173.0613 0.0000 0.0000 0.0000
# 4 0.0000 0.0000 0.0000 44.6863 0.0000 0.0000
# 5 0.0000 0.0000 0.0000 0.0000 23.5729 0.0000
# 6 0.0000 0.0000 0.0000 0.0000 0.0000 23.3418
#
#
#
# Elastic Compliance Matrix: (Units=1/GPa)
#
#
# Indices 1 2 3 4 5 6 
#
# 1 0.012053 -0.000790 -0.004256 0.000000 0.000000 0.000000
# 2 -0.000790 0.012514 -0.004752 0.000000 0.000000 0.000000
# 3 -0.004256 -0.004752 0.009312 0.000000 0.000000 0.000000
# 4 0.000000 0.000000 0.000000 0.022378 0.000000 0.000000
# 5 0.000000 0.000000 0.000000 0.000000 0.042422 0.000000
# 6 0.000000 0.000000 0.000000 0.000000 0.000000 0.042842
#
#
# Mechanical properties :
#
#
# Convention : Reuss Voigt Hill
#
# Bulk Modulus (GPa) = 70.01420 80.49163 75.25292
# Shear Modulus (GPa) = 30.14291 33.14866 31.64578
#
# Velocity S-wave (km/s) = 3.78530 3.96954 3.87852
# Velocity P-wave (km/s) = 7.23782 7.69880 7.47187
#
# Compressibility (1/GPa) = 0.01428282
#
# Stress axis : x y z
#
# Youngs Moduli (GPa) = 82.96926 79.91320 107.38550
#
# Poissons Ratio (x) = 0.06310 0.45705
# Poissons Ratio (y) = 0.06552 0.51029
# Poissons Ratio (z) = 0.35313 0.37975
#
# Static dielectric constant tensor:
#      x y z
#    x 1.887500 0.000000 0.000000 
#    y 0.000000 1.743560 0.000000 
#    z 0.000000 0.000000 1.830090 
# 
# From -- ./inp_files/13270.got.cif
#   From: 2010.05.17/outbox.cif.g08.bks.cpg/sg73_7_cif.got.tgz:13270.got - 2010.06.03 17:35:07.
