data_PCOD9533257
_publ_section_title
;
Structure prediction by ZEFSAII (Michael W. Deem and Ramdas Pophale) SiO2 
 PCOD9533257
Probable space group: I B C A 
;
_chemical_formula_sum "Si O2"
_cell_formula_units_Z 96
_cell_length_a 20.842790
_cell_length_b 14.606733
_cell_length_c 14.160608
_cell_angle_alpha 90.000000
_cell_angle_beta 90.000000
_cell_angle_gamma 90.000000
_cell_volume 4311.127273
_symmetry_space_group_name_H-M "I B C A "
_symmetry_group_IT_number 73
_symmetry_cell_setting 'orthorhombic'
loop_
_space_group_symop_operation_xyz
x,y,z
-x,1/2-y,z
x,-y,1/2-z
1/2-x,y,-z
-x,-y,-z
x,1/2+y,-z
-x,y,1/2+z
1/2+x,-y,z
1/2+x,1/2+y,1/2+z
1/2-x,-y,1/2+z
1/2+x,1/2-y,-z
-x,1/2+y,1/2-z
1/2-x,1/2-y,1/2-z
1/2+x,y,1/2-z
1/2-x,1/2+y,z
x,1/2-y,1/2+z
loop_
_atom_site_type_symbol
_atom_site_label
_atom_site_fract_x
_atom_site_fract_y
_atom_site_fract_z
Si Si1 0.718555 0.683694 0.175095
Si Si2 0.183480 0.149404 0.053086
Si Si3 0.412320 0.103539 0.277782
Si Si4 0.433427 0.163828 0.075084
Si Si5 0.938406 0.630362 0.993497
Si Si6 0.191868 0.044128 0.425477
O O1 0.750000 0.750000 0.250000
O O2 0.679306 0.753679 0.106428
O O3 0.664392 0.615939 0.213226
O O4 0.777626 0.625847 0.134452
O O5 0.183335 0.057830 0.117502
O O6 0.250000 0.160110 0.000000
O O7 0.131607 0.127699 0.972147
O O8 0.432947 0.164144 0.188113
O O9 0.441335 0.126828 0.379949
O O10 0.427998 0.000000 0.250000
O O11 0.434204 0.266138 0.033290
O O12 0.492945 0.103558 0.038073
O O13 0.875132 0.577294 0.029127
O O14 0.250000 0.031061 0.500000
#
# Coordination Sequence:
#
# PCOD9533257 Si02
#       6
#    16  16  16  16  16  16
#     4  12  25  41  69 100 146 181 241 293 355 423
#     4  11  23  42  70 100 140 185 227 293 357 417
#     4  12  26  44  72 104 138 187 242 291 360 431
#     4  11  25  46  74 102 148 190 234 294 364 424
#     4  11  24  47  74 102 146 191 238 295 358 429
#     4  11  22  41  70 102 137 181 238 288 354 422
#
# _framework density 22.267958
#
# number of rings (size 3 to 8) (size 9 to 14) (size 15 to 20)
#    0.000    0.667    3.333    4.500    4.667    5.333 
#    3.000    0.000    0.000    0.000    0.000    0.000 
#    0.000    0.000    0.000    0.000    0.000    0.000 
#
# Total GULP energy -268008.523311 kJ/mol
# GULP energy per Si atom -5583.510902 kJ/mol
# Density = 2.221727 g / cm^3
# Si number density = 22.267958 Si / 1000 Ang^3
#
#
#
# Elastic Constant Matrix: (Units=GPa)
#
#
# Indices 1 2 3 4 5 6 
#
# 1 138.9316 -9.4249 35.0585 0.0000 0.0000 0.0000
# 2 -9.4249 116.4504 32.6863 0.0000 0.0000 0.0000
# 3 35.0585 32.6863 128.5254 0.0000 0.0000 0.0000
# 4 0.0000 0.0000 0.0000 27.8963 0.0000 0.0000
# 5 0.0000 0.0000 0.0000 0.0000 25.7903 0.0000
# 6 0.0000 0.0000 0.0000 0.0000 0.0000 -171.6514
#
#
#
# Elastic Compliance Matrix: (Units=1/GPa)
#
#
# Indices 1 2 3 4 5 6 
#
# 1 0.007920 0.001343 -0.002502 0.000000 0.000000 0.000000
# 2 0.001343 0.009475 -0.002776 0.000000 0.000000 0.000000
# 3 -0.002502 -0.002776 0.009169 0.000000 0.000000 0.000000
# 4 0.000000 0.000000 0.000000 0.035847 0.000000 0.000000
# 5 0.000000 0.000000 0.000000 0.000000 0.038774 0.000000
# 6 0.000000 0.000000 0.000000 0.000000 0.000000 -0.005826
#
#
# Mechanical properties :
#
#
# Convention : Reuss Voigt Hill
#
# Bulk Modulus (GPa) = 53.49063 55.61636 54.55349
# Shear Modulus (GPa) = 45.67805 -1.88713 21.89546
#
# Velocity S-wave (km/s) = 4.53403 -0.92158 3.13912
# Velocity P-wave (km/s) = 7.17519 4.88853 6.13927
#
# Compressibility (1/GPa) = 0.01869486
#
# Stress axis : x y z
#
# Youngs Moduli (GPa) = 126.25775 105.53743 109.06191
#
# Poissons Ratio (x) = -0.14177 0.27288
# Poissons Ratio (y) = -0.16961 0.30277
# Poissons Ratio (z) = 0.31591 0.29299
#
# Static dielectric constant tensor:
#      x y z
#    x 1.885720 0.000000 0.000000 
#    y 0.000000 1.784190 0.000000 
#    z 0.000000 0.000000 1.149600 
# 
# From -- ./inp_files/18642.got.cif
#   From: 2010.05.17/outbox.cif.g08.bks.cpg/sg73_10_cif.got.tgz:18642.got - 2010.06.03 17:35:07.
