data_PCOD9533802
_publ_section_title
;
Structure prediction by ZEFSAII (Michael W. Deem and Ramdas Pophale) SiO2 
 PCOD9533802
Probable space group: I M M A
;
_chemical_formula_sum "Si O2"
_cell_formula_units_Z 64
_cell_length_a 15.443382
_cell_length_b 25.346894
_cell_length_c 7.182835
_cell_angle_alpha 90.000000
_cell_angle_beta 90.000000
_cell_angle_gamma 90.000000
_cell_volume 2811.661621
_symmetry_space_group_name_H-M "I M M A"
_symmetry_group_IT_number 74
_symmetry_cell_setting 'orthorhombic'
loop_
_space_group_symop_operation_xyz
x,y,z
-x,1/2-y,z
x,-y,-z
-x,1/2+y,-z
-x,-y,-z
x,1/2+y,-z
-x,y,z
x,1/2-y,z
1/2+x,1/2+y,1/2+z
1/2-x,-y,1/2+z
1/2+x,1/2-y,1/2-z
1/2-x,y,1/2-z
1/2-x,1/2-y,1/2-z
1/2+x,y,1/2-z
1/2-x,1/2+y,1/2+z
1/2+x,-y,1/2+z
loop_
_atom_site_type_symbol
_atom_site_label
_atom_site_fract_x
_atom_site_fract_y
_atom_site_fract_z
Si Si1 0.742796 0.937870 0.971244
Si Si2 0.842389 0.750000 0.648068
Si Si3 0.096928 0.250000 0.948801
Si Si4 0.401077 0.359285 0.065051
Si Si5 0.100785 0.367045 0.982120
O O1 0.750000 0.929908 0.750000
O O2 0.657096 0.905056 0.021196
O O3 0.828403 0.911707 0.060125
O O4 0.736448 0.000000 0.000000
O O5 0.750000 0.750000 0.750000
O O6 0.906924 0.750000 0.824290
O O7 0.857943 0.802488 0.532595
O O8 0.131943 0.308978 0.911724
O O9 0.000000 0.250000 0.870979
O O10 0.500000 0.360169 0.003174
O O11 0.400999 0.364697 0.290971
O O12 0.000000 0.376020 0.927229
#
# Coordination Sequence:
#
# PCOD9533802 Si02
#       5
#    16   8   8  16  16
#     4  10  20  32  45  63  88 119 154 188 220 260
#     4  10  14  20  38  64  92 115 138 175 228 275
#     4   8  12  20  36  60  88 109 127 163 221 275
#     4   9  16  26  41  63  91 119 146 180 224 272
#     4   8  14  25  42  65  90 112 137 178 230 274
#
# _framework density 22.762342
#
# number of rings (size 3 to 8) (size 9 to 14) (size 15 to 20)
#    0.000    3.000    0.000    6.375    0.000    1.000 
#    0.000    0.000    0.000    0.000    0.000    3.500 
#    0.000    4.000    0.000    0.000    0.000    0.000 
#
# Total GULP energy -178548.350366 kJ/mol
# GULP energy per Si atom -5579.635949 kJ/mol
# Density = 2.271053 g / cm^3
# Si number density = 22.762342 Si / 1000 Ang^3
#
#
#
# Elastic Constant Matrix: (Units=GPa)
#
#
# Indices 1 2 3 4 5 6 
#
# 1 199.6279 137.6709 12.1023 -0.0001 0.0000 0.0000
# 2 137.6709 247.8395 -1.3585 -0.0001 0.0000 0.0000
# 3 12.1023 -1.3585 90.5314 -0.0002 -0.0001 -0.0004
# 4 -0.0001 -0.0001 -0.0002 9.2366 -0.0001 0.0000
# 5 0.0000 0.0000 -0.0001 -0.0001 -11.1400 0.0003
# 6 0.0000 0.0000 -0.0004 0.0000 0.0003 -27.1208
#
#
#
# Elastic Compliance Matrix: (Units=1/GPa)
#
#
# Indices 1 2 3 4 5 6 
#
# 1 0.008242 -0.004585 -0.001171 0.000000 0.000000 0.000000
# 2 -0.004585 0.006586 0.000712 0.000000 0.000000 0.000000
# 3 -0.001171 0.000712 0.011213 0.000000 0.000000 0.000000
# 4 0.000000 0.000000 0.000000 0.108265 -0.000001 0.000000
# 5 0.000000 0.000000 0.000000 -0.000001 -0.089767 -0.000001
# 6 0.000000 0.000000 0.000000 0.000000 -0.000001 -0.036872
#
#
# Mechanical properties :
#
#
# Convention : Reuss Voigt Hill
#
# Bulk Modulus (GPa) = 62.68267 92.75869 77.72068
# Shear Modulus (GPa) = 216.70845 20.16744 118.43795
#
# Velocity S-wave (km/s) = 9.76788 2.97980 7.22117
# Velocity P-wave (km/s) = 12.44239 7.25799 10.18556
#
# Compressibility (1/GPa) = 0.01595337
#
# Stress axis : x y z
#
# Youngs Moduli (GPa) = 121.32795 151.84774 89.18175
#
# Poissons Ratio (x) = 0.69619 0.10440
# Poissons Ratio (y) = 0.55626 -0.06347
# Poissons Ratio (z) = 0.14203 -0.10807
#
# Static dielectric constant tensor:
#      x y z
#    x 1.847590 0.000000 0.000000 
#    y 0.000000 1.851090 0.000000 
#    z 0.000000 0.000000 1.954470 
# 
# From -- ./inp_files/10604.got.cif
#   From: 2010.05.17/outbox.cif.g08.bks.cpg/sg74_6_cif.got.tgz:10604.got - 2010.06.03 17:57:02.
