data_PCOD9533413
_publ_section_title
;
Structure prediction by ZEFSAII (Michael W. Deem and Ramdas Pophale) SiO2 
 PCOD9533413
Probable space group: I B C A 
;
_chemical_formula_sum "Si O2"
_cell_formula_units_Z 64
_cell_length_a 9.612510
_cell_length_b 13.162259
_cell_length_c 22.651062
_cell_angle_alpha 90.000000
_cell_angle_beta 90.000000
_cell_angle_gamma 90.000000
_cell_volume 2865.865510
_symmetry_space_group_name_H-M "I B C A "
_symmetry_group_IT_number 73
_symmetry_cell_setting 'orthorhombic'
loop_
_space_group_symop_operation_xyz
x,y,z
-x,1/2-y,z
x,-y,1/2-z
1/2-x,y,-z
-x,-y,-z
x,1/2+y,-z
-x,y,1/2+z
1/2+x,-y,z
1/2+x,1/2+y,1/2+z
1/2-x,-y,1/2+z
1/2+x,1/2-y,-z
-x,1/2+y,1/2-z
1/2-x,1/2-y,1/2-z
1/2+x,y,1/2-z
1/2-x,1/2+y,z
x,1/2-y,1/2+z
loop_
_atom_site_type_symbol
_atom_site_label
_atom_site_fract_x
_atom_site_fract_y
_atom_site_fract_z
Si Si1 0.992408 0.491512 0.097566
Si Si2 0.404850 0.152467 0.800411
Si Si3 0.417233 0.650170 0.814893
Si Si4 0.402769 0.153638 0.505733
O O1 0.915363 0.428947 0.147878
O O2 0.906158 0.570595 0.057916
O O3 0.092313 0.565095 0.135065
O O4 0.057013 0.410386 0.052522
O O5 0.500000 0.250000 0.817711
O O6 0.483207 0.118498 0.740134
O O7 0.239916 0.172896 0.793957
O O8 0.500000 0.750000 0.837647
O O9 0.500000 0.250000 0.515057
O O10 0.250000 0.196673 0.500000
#
# Coordination Sequence:
#
# PCOD9533413 Si02
#       4
#    16  16  16  16
#     4  11  25  42  68  96 127 169 218 266 316 379
#     4  11  24  42  66  97 133 171 212 262 318 379
#     4  11  24  42  66  97 133 171 212 262 318 379
#     4  11  26  46  67  95 129 167 215 269 324 380
#
# _framework density 22.331821000000001
#
# number of rings (size 3 to 8) (size 9 to 14) (size 15 to 20)
#    0.000    1.000    0.000    6.750    0.000   20.000 
#    0.000    0.000    0.000    0.000    0.000    0.000 
#    0.000    0.000    0.000    0.000    0.000    0.000 
#
# Total GULP energy -178713.746643 kJ/mol
# GULP energy per Si atom -5584.804583 kJ/mol
# Density = 2.228099 g / cm^3
# Si number density = 22.331821 Si / 1000 Ang^3
#
#
#
# Elastic Constant Matrix: (Units=GPa)
#
#
# Indices 1 2 3 4 5 6 
#
# 1 118.2376 7.3252 -1.4054 0.0000 0.0000 0.0000
# 2 7.3252 101.0747 35.1329 0.0000 0.0000 0.0000
# 3 -1.4054 35.1329 102.3846 0.0000 0.0000 0.0000
# 4 0.0000 0.0000 0.0000 -30.1898 0.0000 0.0000
# 5 0.0000 0.0000 0.0000 0.0000 3.8865 0.0000
# 6 0.0000 0.0000 0.0000 0.0000 0.0000 14.9579
#
#
#
# Elastic Compliance Matrix: (Units=1/GPa)
#
#
# Indices 1 2 3 4 5 6 
#
# 1 0.008508 -0.000746 0.000373 0.000000 0.000000 0.000000
# 2 -0.000746 0.011299 -0.003887 0.000000 0.000000 0.000000
# 3 0.000373 -0.003887 0.011106 0.000000 0.000000 0.000000
# 4 0.000000 0.000000 0.000000 -0.033124 0.000000 0.000000
# 5 0.000000 0.000000 0.000000 0.000000 0.257300 0.000000
# 6 0.000000 0.000000 0.000000 0.000000 0.000000 0.066854
#
#
# Mechanical properties :
#
#
# Convention : Reuss Voigt Hill
#
# Bulk Modulus (GPa) = 44.65930 44.86692 44.76311
# Shear Modulus (GPa) = 14.79599 16.44053 15.61826
#
# Velocity S-wave (km/s) = 2.57680 2.71623 2.64743
# Velocity P-wave (km/s) = 5.37538 5.47466 5.42524
#
# Compressibility (1/GPa) = 0.02239175
#
# Stress axis : x y z
#
# Youngs Moduli (GPa) = 117.53359 88.50328 90.03990
#
# Poissons Ratio (x) = 0.06604 -0.03357
# Poissons Ratio (y) = 0.08771 0.35003
# Poissons Ratio (z) = -0.04382 0.34405
#
# Static dielectric constant tensor:
#      x y z
#    x 1.778520 0.000000 0.000000 
#    y 0.000000 1.840490 0.000000 
#    z 0.000000 0.000000 1.846320 
# 
# From -- ./inp_files/6844.got.cif
#   From: 2010.05.17/outbox.cif.g08.bks.cpg/sg73_4_cif.got.tgz:6844.got - 2010.06.03 17:35:07.
