data_PCOD9533223
_publ_section_title
;
Structure prediction by ZEFSAII (Michael W. Deem and Ramdas Pophale) SiO2 
 PCOD9533223
Probable space group: I B C A 
;
_chemical_formula_sum "Si O2"
_cell_formula_units_Z 96
_cell_length_a 9.700401
_cell_length_b 20.954488
_cell_length_c 25.016527
_cell_angle_alpha 90.000000
_cell_angle_beta 90.000000
_cell_angle_gamma 90.000000
_cell_volume 5085.032801
_symmetry_space_group_name_H-M "I B C A "
_symmetry_group_IT_number 73
_symmetry_cell_setting 'orthorhombic'
loop_
_space_group_symop_operation_xyz
x,y,z
-x,1/2-y,z
x,-y,1/2-z
1/2-x,y,-z
-x,-y,-z
x,1/2+y,-z
-x,y,1/2+z
1/2+x,-y,z
1/2+x,1/2+y,1/2+z
1/2-x,-y,1/2+z
1/2+x,1/2-y,-z
-x,1/2+y,1/2-z
1/2-x,1/2-y,1/2-z
1/2+x,y,1/2-z
1/2-x,1/2+y,z
x,1/2-y,1/2+z
loop_
_atom_site_type_symbol
_atom_site_label
_atom_site_fract_x
_atom_site_fract_y
_atom_site_fract_z
Si Si1 0.644482 0.756723 0.875283
Si Si2 0.054424 0.398916 0.128425
Si Si3 0.677045 0.862535 0.303878
Si Si4 0.631923 0.796257 0.545311
Si Si5 0.769701 0.372483 0.180442
Si Si6 0.950456 0.026496 0.311118
O O1 0.500000 0.750000 0.906438
O O2 0.632174 0.704178 0.828957
O O3 0.778535 0.739338 0.909227
O O4 0.668162 0.825252 0.850041
O O5 0.183306 0.381989 0.166052
O O6 0.083747 0.364253 0.071518
O O7 0.032789 0.474096 0.142002
O O8 0.914782 0.369142 0.151085
O O9 0.707035 0.854229 0.241650
O O10 0.565410 0.918190 0.312943
O O11 0.500000 0.750000 0.532917
O O12 0.750000 0.806077 0.500000
O O13 0.699317 0.441682 0.181505
O O14 0.958015 0.000000 0.250000
#
# Coordination Sequence:
#
# PCOD9533223 Si02
#       6
#    16  16  16  16  16  16
#     4  11  23  40  60  96 126 165 219 272 331 377
#     4  11  24  37  62  96 128 167 226 263 315 386
#     4  11  22  36  58  88 135 184 213 261 302 385
#     4  11  24  47  73  93 119 161 217 290 347 392
#     4  12  21  38  59  90 137 178 217 257 315 383
#     4  12  22  37  60  88 137 189 222 245 303 392
#
# _framework density 18.878934999999998
#
# number of rings (size 3 to 8) (size 9 to 14) (size 15 to 20)
#    0.000    0.667    6.667    2.000    0.000    0.000 
#    0.000    0.000    0.000   10.000    0.000    0.000 
#    0.000    0.000    0.000    0.000    0.000    0.000 
#
# Total GULP energy -267684.627910 kJ/mol
# GULP energy per Si atom -5576.763081 kJ/mol
# Density = 1.883597 g / cm^3
# Si number density = 18.878935 Si / 1000 Ang^3
#
#
#
# Elastic Constant Matrix: (Units=GPa)
#
#
# Indices 1 2 3 4 5 6 
#
# 1 107.0357 9.1438 24.4661 0.0000 0.0000 0.0000
# 2 9.1438 69.7782 35.4320 0.0000 0.0000 0.0000
# 3 24.4661 35.4320 86.8550 0.0000 0.0000 0.0000
# 4 0.0000 0.0000 0.0000 10.9330 0.0000 0.0000
# 5 0.0000 0.0000 0.0000 0.0000 24.2660 0.0000
# 6 0.0000 0.0000 0.0000 0.0000 0.0000 36.7265
#
#
#
# Elastic Compliance Matrix: (Units=1/GPa)
#
#
# Indices 1 2 3 4 5 6 
#
# 1 0.009987 0.000151 -0.002875 0.000000 0.000000 0.000000
# 2 0.000151 0.018078 -0.007417 0.000000 0.000000 0.000000
# 3 -0.002875 -0.007417 0.015349 0.000000 0.000000 0.000000
# 4 0.000000 0.000000 0.000000 0.091466 0.000000 0.000000
# 5 0.000000 0.000000 0.000000 0.000000 0.041210 0.000000
# 6 0.000000 0.000000 0.000000 0.000000 0.000000 0.027228
#
#
# Mechanical properties :
#
#
# Convention : Reuss Voigt Hill
#
# Bulk Modulus (GPa) = 43.23081 44.63920 43.93500
# Shear Modulus (GPa) = 21.61598 27.36023 24.48810
#
# Velocity S-wave (km/s) = 3.38742 3.81103 3.60545
# Velocity P-wave (km/s) = 6.18451 6.56213 6.37612
#
# Compressibility (1/GPa) = 0.02313165
#
# Stress axis : x y z
#
# Youngs Moduli (GPa) = 100.13116 55.31691 65.15050
#
# Poissons Ratio (x) = -0.00836 0.18730
# Poissons Ratio (y) = -0.01513 0.48324
# Poissons Ratio (z) = 0.28786 0.41030
#
# Static dielectric constant tensor:
#      x y z
#    x 1.705820 0.000000 0.000000 
#    y 0.000000 1.677390 0.000000 
#    z 0.000000 0.000000 1.638520 
# 
# From -- ./inp_files/6442.got.cif
#   From: 2010.05.17/outbox.cif.g08.bks.cpg/sg73_4_cif.got.tgz:6442.got - 2010.06.03 17:35:07.
