data_PCOD9533324
_publ_section_title
;
Structure prediction by ZEFSAII (Michael W. Deem and Ramdas Pophale) SiO2 
 PCOD9533324
Probable space group: I B C A 
;
_chemical_formula_sum "Si O2"
_cell_formula_units_Z 72
_cell_length_a 20.942697
_cell_length_b 12.035641
_cell_length_c 14.495953
_cell_angle_alpha 90.000000
_cell_angle_beta 90.000000
_cell_angle_gamma 90.000000
_cell_volume 3653.832267
_symmetry_space_group_name_H-M "I B C A "
_symmetry_group_IT_number 73
_symmetry_cell_setting 'orthorhombic'
loop_
_space_group_symop_operation_xyz
x,y,z
-x,1/2-y,z
x,-y,1/2-z
1/2-x,y,-z
-x,-y,-z
x,1/2+y,-z
-x,y,1/2+z
1/2+x,-y,z
1/2+x,1/2+y,1/2+z
1/2-x,-y,1/2+z
1/2+x,1/2-y,-z
-x,1/2+y,1/2-z
1/2-x,1/2-y,1/2-z
1/2+x,y,1/2-z
1/2-x,1/2+y,z
x,1/2-y,1/2+z
loop_
_atom_site_type_symbol
_atom_site_label
_atom_site_fract_x
_atom_site_fract_y
_atom_site_fract_z
Si Si1 0.184447 0.116950 0.208184
Si Si2 0.019667 0.366108 0.090663
Si Si3 0.327097 0.669383 0.833443
Si Si4 0.107930 0.693340 0.972166
Si Si5 0.926435 0.000000 0.250000
O O1 0.258501 0.111117 0.177378
O O2 0.179127 0.210376 0.286809
O O3 0.144309 0.156473 0.119857
O O4 0.163184 0.000000 0.250000
O O5 0.082240 0.320796 0.037705
O O6 0.032507 0.460880 0.162938
O O7 0.000000 0.250000 0.143597
O O8 0.958241 0.378075 0.024943
O O9 0.380600 0.600704 0.778928
O O10 0.349298 0.677839 0.938744
#
# Coordination Sequence:
#
# PCOD9533324 Si02
#       5
#    16  16  16  16   8
#     4  11  23  42  64  98 133 173 225 269 335 391
#     4   8  21  41  61  98 128 166 222 262 330 393
#     4  11  23  41  67  92 133 178 218 281 325 393
#     4   9  21  43  60 100 129 169 224 266 331 399
#     4  12  20  42  68  94 138 170 218 282 324 392
#
# _framework density 19.705338000000001
#
# number of rings (size 3 to 8) (size 9 to 14) (size 15 to 20)
#    1.333    0.444    3.333    0.667    1.556    2.667 
#   12.000    2.222    0.000    0.000    0.000    0.000 
#    0.000    0.000    0.000    0.000    0.000    0.000 
#
# Total GULP energy -200669.518844 kJ/mol
# GULP energy per Si atom -5574.153301 kJ/mol
# Density = 1.966049 g / cm^3
# Si number density = 19.705338 Si / 1000 Ang^3
#
#
#
# Elastic Constant Matrix: (Units=GPa)
#
#
# Indices 1 2 3 4 5 6 
#
# 1 73.5060 15.1486 48.2683 0.0000 0.0000 0.0000
# 2 15.1486 35.8263 11.3552 0.0000 0.0000 0.0000
# 3 48.2683 11.3552 108.6798 0.0000 0.0000 0.0000
# 4 0.0000 0.0000 0.0000 9.0132 0.0000 0.0000
# 5 0.0000 0.0000 0.0000 0.0000 70.2323 0.0000
# 6 0.0000 0.0000 0.0000 0.0000 0.0000 13.2747
#
#
#
# Elastic Compliance Matrix: (Units=1/GPa)
#
#
# Indices 1 2 3 4 5 6 
#
# 1 0.020358 -0.005939 -0.008421 0.000000 0.000000 0.000000
# 2 -0.005939 0.030601 -0.000560 0.000000 0.000000 0.000000
# 3 -0.008421 -0.000560 0.013000 0.000000 0.000000 0.000000
# 4 0.000000 0.000000 0.000000 0.110949 0.000000 0.000000
# 5 0.000000 0.000000 0.000000 0.000000 0.014238 0.000000
# 6 0.000000 0.000000 0.000000 0.000000 0.000000 0.075331
#
#
# Mechanical properties :
#
#
# Convention : Reuss Voigt Hill
#
# Bulk Modulus (GPa) = 29.30873 40.83959 35.07416
# Shear Modulus (GPa) = 16.35641 28.05335 22.20488
#
# Velocity S-wave (km/s) = 2.88418 3.77721 3.36049
# Velocity P-wave (km/s) = 5.09874 6.30819 5.73543
#
# Compressibility (1/GPa) = 0.03411952
#
# Stress axis : x y z
#
# Youngs Moduli (GPa) = 49.12036 32.67865 76.92338
#
# Poissons Ratio (x) = 0.19408 0.64779
# Poissons Ratio (y) = 0.29173 0.04304
# Poissons Ratio (z) = 0.41365 0.01829
#
# Static dielectric constant tensor:
#      x y z
#    x 1.724600 0.000000 0.000000 
#    y 0.000000 1.717560 0.000000 
#    z 0.000000 0.000000 1.661270 
# 
# From -- ./inp_files/12564.got.cif
#   From: 2010.05.17/outbox.cif.g08.bks.cpg/sg73_7_cif.got.tgz:12564.got - 2010.06.03 17:35:07.
