data_PCOD9533385
_publ_section_title
;
Structure prediction by ZEFSAII (Michael W. Deem and Ramdas Pophale) SiO2 
 PCOD9533385
Probable space group: I B C A 
;
_chemical_formula_sum "Si O2"
_cell_formula_units_Z 64
_cell_length_a 10.516888
_cell_length_b 10.971399
_cell_length_c 23.259174
_cell_angle_alpha 90.000000
_cell_angle_beta 90.000000
_cell_angle_gamma 90.000000
_cell_volume 2683.759199
_symmetry_space_group_name_H-M "I B C A "
_symmetry_group_IT_number 73
_symmetry_cell_setting 'orthorhombic'
loop_
_space_group_symop_operation_xyz
x,y,z
-x,1/2-y,z
x,-y,1/2-z
1/2-x,y,-z
-x,-y,-z
x,1/2+y,-z
-x,y,1/2+z
1/2+x,-y,z
1/2+x,1/2+y,1/2+z
1/2-x,-y,1/2+z
1/2+x,1/2-y,-z
-x,1/2+y,1/2-z
1/2-x,1/2-y,1/2-z
1/2+x,y,1/2-z
1/2-x,1/2+y,z
x,1/2-y,1/2+z
loop_
_atom_site_type_symbol
_atom_site_label
_atom_site_fract_x
_atom_site_fract_y
_atom_site_fract_z
Si Si1 0.000000 0.250000 0.323901
Si Si2 0.329378 0.630363 0.736437
Si Si3 0.367354 0.610487 0.602399
Si Si4 0.500000 0.750000 0.019416
Si Si5 0.591667 0.922656 0.419292
O O1 0.056626 0.352787 0.281971
O O2 0.090612 0.178118 0.367910
O O3 0.266406 0.500000 0.750000
O O4 0.250000 0.750000 0.750000
O O5 0.363891 0.634725 0.669972
O O6 0.383521 0.732829 0.564265
O O7 0.492920 0.529041 0.593810
O O8 0.240223 0.543470 0.579395
O O9 0.466453 0.858875 0.975775
#
# Coordination Sequence:
#
# PCOD9533385 Si02
#       5
#     8  16  16   8  16
#     4  11  23  46  70 112 159 213 270 340 410 499
#     4  12  26  47  79 119 165 219 278 347 418 512
#     4  12  26  49  79 114 160 219 273 349 421 501
#     4  11  27  46  74 114 153 209 274 342 412 503
#     4  11  26  48  76 112 159 211 276 344 419 500
#
# _framework density 23.847148000000001
#
# number of rings (size 3 to 8) (size 9 to 14) (size 15 to 20)
#    0.000    0.500    5.000    2.250    0.000   11.000 
#    0.000    0.000    0.000    0.000    0.000    0.000 
#    0.000    0.000    0.000    0.000    0.000    0.000 
#
# Total GULP energy -178638.428585 kJ/mol
# GULP energy per Si atom -5582.450893 kJ/mol
# Density = 2.379287 g / cm^3
# Si number density = 23.847148 Si / 1000 Ang^3
#
#
#
# Elastic Constant Matrix: (Units=GPa)
#
#
# Indices 1 2 3 4 5 6 
#
# 1 128.8430 49.7570 33.9553 0.0000 0.0000 0.0000
# 2 49.7570 120.5064 63.1406 0.0000 0.0000 0.0000
# 3 33.9553 63.1406 210.2671 0.0000 0.0000 0.0000
# 4 0.0000 0.0000 0.0000 15.1457 0.0000 0.0000
# 5 0.0000 0.0000 0.0000 0.0000 6.7876 0.0000
# 6 0.0000 0.0000 0.0000 0.0000 0.0000 44.3486
#
#
#
# Elastic Compliance Matrix: (Units=1/GPa)
#
#
# Indices 1 2 3 4 5 6 
#
# 1 0.009264 -0.003609 -0.000412 0.000000 0.000000 0.000000
# 2 -0.003609 0.011254 -0.002797 0.000000 0.000000 0.000000
# 3 -0.000412 -0.002797 0.005662 0.000000 0.000000 0.000000
# 4 0.000000 0.000000 0.000000 0.066025 0.000000 0.000000
# 5 0.000000 0.000000 0.000000 0.000000 0.147327 0.000000
# 6 0.000000 0.000000 0.000000 0.000000 0.000000 0.022549
#
#
# Mechanical properties :
#
#
# Convention : Reuss Voigt Hill
#
# Bulk Modulus (GPa) = 79.71862 83.70248 81.71055
# Shear Modulus (GPa) = 17.86365 34.10729 25.98547
#
# Velocity S-wave (km/s) = 2.73992 3.78596 3.30459
# Velocity P-wave (km/s) = 6.59629 7.36798 6.99279
#
# Compressibility (1/GPa) = 0.01254412
#
# Stress axis : x y z
#
# Youngs Moduli (GPa) = 107.94750 88.85924 176.60992
#
# Poissons Ratio (x) = 0.32069 0.07280
# Poissons Ratio (y) = 0.38958 0.49390
# Poissons Ratio (z) = 0.04450 0.24850
#
# Static dielectric constant tensor:
#      x y z
#    x 2.021570 0.000000 0.000000 
#    y 0.000000 1.964260 0.000000 
#    z 0.000000 0.000000 1.919560 
# 
# From -- ./inp_files/9616.got.cif
#   From: 2010.05.17/outbox.cif.g08.bks.cpg/sg73_5_cif.got.tgz:9616.got - 2010.06.03 17:35:07.
