data_PCOD9533956
_publ_section_title
;
Structure prediction by ZEFSAII (Michael W. Deem and Ramdas Pophale) SiO2 
 PCOD9533956
Probable space group: I M M A
;
_chemical_formula_sum "Si O2"
_cell_formula_units_Z 72
_cell_length_a 23.902216
_cell_length_b 8.764520
_cell_length_c 23.738031
_cell_angle_alpha 90.000000
_cell_angle_beta 90.000000
_cell_angle_gamma 90.000000
_cell_volume 4972.914539
_symmetry_space_group_name_H-M "I M M A"
_symmetry_group_IT_number 74
_symmetry_cell_setting 'orthorhombic'
loop_
_space_group_symop_operation_xyz
x,y,z
-x,1/2-y,z
x,-y,-z
-x,1/2+y,-z
-x,-y,-z
x,1/2+y,-z
-x,y,z
x,1/2-y,z
1/2+x,1/2+y,1/2+z
1/2-x,-y,1/2+z
1/2+x,1/2-y,1/2-z
1/2-x,y,1/2-z
1/2-x,1/2-y,1/2-z
1/2+x,y,1/2-z
1/2-x,1/2+y,1/2+z
1/2+x,-y,1/2+z
loop_
_atom_site_type_symbol
_atom_site_label
_atom_site_fract_x
_atom_site_fract_y
_atom_site_fract_z
Si Si1 0.830356 0.566934 0.769870
Si Si2 0.391647 0.567583 0.620736
Si Si3 0.720508 0.432384 0.832050
Si Si4 0.500000 0.569426 0.437593
Si Si5 0.272663 0.433222 0.437782
O O1 0.823708 0.750000 0.766952
O O2 0.880485 0.533222 0.813226
O O3 0.776498 0.496175 0.801557
O O4 0.829068 0.497231 0.707417
O O5 0.399034 0.750000 0.615517
O O6 0.444780 0.485454 0.594995
O O7 0.334670 0.528065 0.586701
O O8 0.720284 0.250000 0.831480
O O9 0.727169 0.496510 0.894916
O O10 0.500000 0.750000 0.442203
O O11 0.500000 0.500000 0.500000
O O12 0.267172 0.500000 0.500000
O O13 0.268140 0.250000 0.437623
#
# Coordination Sequence:
#
# PCOD9533956 Si02
#       5
#    16  16  16   8  16
#     4   9  16  28  44  60  78 102 132 169 207 245
#     4   9  19  33  47  60  78 105 139 177 215 250
#     4  10  17  25  40  61  83 106 131 164 202 246
#     4  12  24  34  46  60  80 108 141 180 217 252
#     4  10  19  30  43  60  82 110 141 173 207 247
#
# _framework density 14.478429999999999
#
# number of rings (size 3 to 8) (size 9 to 14) (size 15 to 20)
#    0.000    2.222    0.000    7.667    0.000    7.111 
#    0.000    0.000    0.000    0.000    0.000    0.000 
#    0.000    0.000    0.000    1.000    0.000   13.111 
#
# Total GULP energy -200589.880198 kJ/mol
# GULP energy per Si atom -5571.941117 kJ/mol
# Density = 1.444548 g / cm^3
# Si number density = 14.478430 Si / 1000 Ang^3
#
#
#
# Elastic Constant Matrix: (Units=GPa)
#
#
# Indices 1 2 3 4 5 6 
#
# 1 47.8548 37.2220 57.4510 0.0000 0.0000 0.0000
# 2 37.2220 85.9282 67.0048 0.0000 0.0000 0.0000
# 3 57.4510 67.0048 147.2399 0.0000 0.0000 0.0000
# 4 0.0000 0.0000 0.0000 28.3980 0.0000 0.0000
# 5 0.0000 0.0000 0.0000 0.0000 20.1583 0.0000
# 6 0.0000 0.0000 0.0000 0.0000 0.0000 18.8153
#
#
#
# Elastic Compliance Matrix: (Units=1/GPa)
#
#
# Indices 1 2 3 4 5 6 
#
# 1 0.043058 -0.008604 -0.012885 0.000000 0.000000 0.000000
# 2 -0.008604 0.019758 -0.005634 0.000000 0.000000 0.000000
# 3 -0.012885 -0.005634 0.014383 0.000000 0.000000 0.000000
# 4 0.000000 0.000000 0.000000 0.035214 0.000000 0.000000
# 5 0.000000 0.000000 0.000000 0.000000 0.049607 0.000000
# 6 0.000000 0.000000 0.000000 0.000000 0.000000 0.053148
#
#
# Mechanical properties :
#
#
# Convention : Reuss Voigt Hill
#
# Bulk Modulus (GPa) = 43.56848 67.15316 55.36082
# Shear Modulus (GPa) = 18.04627 21.43067 19.73847
#
# Velocity S-wave (km/s) = 3.53430 3.85148 3.69630
# Velocity P-wave (km/s) = 6.84196 8.14007 7.51908
#
# Compressibility (1/GPa) = 0.02295237
#
# Stress axis : x y z
#
# Youngs Moduli (GPa) = 23.22464 50.61215 69.52583
#
# Poissons Ratio (x) = 0.43547 0.89584
# Poissons Ratio (y) = 0.19983 0.39172
# Poissons Ratio (z) = 0.29925 0.28516
#
# Static dielectric constant tensor:
#      x y z
#    x 1.465300 0.000000 0.000000 
#    y 0.000000 1.477740 0.000000 
#    z 0.000000 0.000000 1.523810 
# 
# From -- ./inp_files/56807.got.cif
#   From: 2010.05.17/outbox.cif.g08.bks.cpg/sg74_29_cif.got.tgz:56807.got - 2010.06.03 17:57:02.
