data_PCOD9533239
_publ_section_title
;
Structure prediction by ZEFSAII (Michael W. Deem and Ramdas Pophale) SiO2 
 PCOD9533239
Probable space group: I B C A 
;
_chemical_formula_sum "Si O2"
_cell_formula_units_Z 72
_cell_length_a 17.442108
_cell_length_b 21.168568
_cell_length_c 9.857655
_cell_angle_alpha 90.000000
_cell_angle_beta 90.000000
_cell_angle_gamma 90.000000
_cell_volume 3639.687238
_symmetry_space_group_name_H-M "I B C A "
_symmetry_group_IT_number 73
_symmetry_cell_setting 'orthorhombic'
loop_
_space_group_symop_operation_xyz
x,y,z
-x,1/2-y,z
x,-y,1/2-z
1/2-x,y,-z
-x,-y,-z
x,1/2+y,-z
-x,y,1/2+z
1/2+x,-y,z
1/2+x,1/2+y,1/2+z
1/2-x,-y,1/2+z
1/2+x,1/2-y,-z
-x,1/2+y,1/2-z
1/2-x,1/2-y,1/2-z
1/2+x,y,1/2-z
1/2-x,1/2+y,z
x,1/2-y,1/2+z
loop_
_atom_site_type_symbol
_atom_site_label
_atom_site_fract_x
_atom_site_fract_y
_atom_site_fract_z
Si Si1 0.000000 0.750000 0.127345
Si Si2 0.027527 0.872056 0.468403
Si Si3 0.720759 0.161751 0.861777
Si Si4 0.910381 0.073820 0.253882
Si Si5 0.639829 0.216632 0.311671
O O1 0.924953 0.751754 0.221217
O O2 0.012679 0.811176 0.035725
O O3 0.055633 0.911771 0.597171
O O4 0.098338 0.838952 0.392395
O O5 0.973570 0.907297 0.360791
O O6 0.663676 0.116635 0.779323
O O7 0.793020 0.184672 0.774608
O O8 0.676574 0.226988 0.898794
O O9 0.750000 0.130537 0.000000
O O10 0.892070 0.000000 0.250000
#
# Coordination Sequence:
#
# PCOD9533239 Si02
#       5
#     8  16  16  16  16
#     4  12  20  42  72 108 136 168 224 296 350 408
#     4  12  23  43  71 101 133 173 235 283 341 403
#     4  11  24  42  66  99 140 171 220 280 356 413
#     4  12  27  47  67  96 138 188 235 277 331 417
#     4  11  22  39  70 104 135 170 215 291 359 406
#
# _framework density 19.781918999999998
#
# number of rings (size 3 to 8) (size 9 to 14) (size 15 to 20)
#    0.000    0.444    4.444    5.333    3.111    0.000 
#    4.000    0.000    0.000    0.000    0.000    0.000 
#    0.000    0.000    0.000    0.000    0.000    0.000 
#
# Total GULP energy -201250.229367 kJ/mol
# GULP energy per Si atom -5590.284149 kJ/mol
# Density = 1.973689 g / cm^3
# Si number density = 19.781919 Si / 1000 Ang^3
#
#
#
# Elastic Constant Matrix: (Units=GPa)
#
#
# Indices 1 2 3 4 5 6 
#
# 1 122.8120 35.4749 55.2318 0.0000 0.0000 0.0000
# 2 35.4749 96.0463 28.2010 0.0000 0.0000 0.0000
# 3 55.2318 28.2010 101.7456 0.0000 0.0000 0.0000
# 4 0.0000 0.0000 0.0000 267.2056 0.0000 0.0000
# 5 0.0000 0.0000 0.0000 0.0000 38.2132 0.0000
# 6 0.0000 0.0000 0.0000 0.0000 0.0000 12.6848
#
#
#
# Elastic Compliance Matrix: (Units=1/GPa)
#
#
# Indices 1 2 3 4 5 6 
#
# 1 0.011335 -0.002591 -0.005435 0.000000 0.000000 0.000000
# 2 -0.002591 0.011926 -0.001899 0.000000 0.000000 0.000000
# 3 -0.005435 -0.001899 0.013305 0.000000 0.000000 0.000000
# 4 0.000000 0.000000 0.000000 0.003742 0.000000 0.000000
# 5 0.000000 0.000000 0.000000 0.000000 0.026169 0.000000
# 6 0.000000 0.000000 0.000000 0.000000 0.000000 0.078834
#
#
# Mechanical properties :
#
#
# Convention : Reuss Voigt Hill
#
# Bulk Modulus (GPa) = 59.82159 62.04658 60.93408
# Shear Modulus (GPa) = 29.28516 77.06713 53.17615
#
# Velocity S-wave (km/s) = 3.85177 6.24844 5.19033
# Velocity P-wave (km/s) = 7.07727 9.13732 8.17246
#
# Compressibility (1/GPa) = 0.01671637
#
# Stress axis : x y z
#
# Youngs Moduli (GPa) = 88.22058 83.84894 75.15825
#
# Poissons Ratio (x) = 0.21724 0.40849
# Poissons Ratio (y) = 0.22856 0.14274
# Poissons Ratio (z) = 0.47949 0.15925
#
# Static dielectric constant tensor:
#      x y z
#    x 1.750850 0.000000 0.000000 
#    y 0.000000 1.662740 0.000000 
#    z 0.000000 0.000000 1.733010 
# 
# From -- ./inp_files/5358.got.cif
#   From: 2010.05.17/outbox.cif.g08.bks.cpg/sg73_3_cif.got.tgz:5358.got - 2010.06.03 17:35:07.
