data_PCOD9533773
_publ_section_title
;
Structure prediction by ZEFSAII (Michael W. Deem and Ramdas Pophale) SiO2 
 PCOD9533773
Probable space group: I B C A 
;
_chemical_formula_sum "Si O2"
_cell_formula_units_Z 56
_cell_length_a 12.000000
_cell_length_b 30.000000
_cell_length_c 15.000000
_cell_angle_alpha 90.000000
_cell_angle_beta 90.000000
_cell_angle_gamma 90.000000
_cell_volume 5400.000000
_symmetry_space_group_name_H-M "I B C A "
_symmetry_group_IT_number 73
_symmetry_cell_setting 'orthorhombic'
loop_
_space_group_symop_operation_xyz
x,y,z
-x,1/2-y,z
x,-y,1/2-z
1/2-x,y,-z
-x,-y,-z
x,1/2+y,-z
-x,y,1/2+z
1/2+x,-y,z
1/2+x,1/2+y,1/2+z
1/2-x,-y,1/2+z
1/2+x,1/2-y,-z
-x,1/2+y,1/2-z
1/2-x,1/2-y,1/2-z
1/2+x,y,1/2-z
1/2-x,1/2+y,z
x,1/2-y,1/2+z
loop_
_atom_site_type_symbol
_atom_site_label
_atom_site_fract_x
_atom_site_fract_y
_atom_site_fract_z
Si Si1 0.833517 0.000000 0.250000
Si Si2 0.750000 0.593123 0.500000
Si Si3 0.677590 0.366628 0.410982
Si Si4 0.570592 0.378879 0.856778
Si Si5 0.959654 0.964916 0.076831
Si Si6 0.242025 0.768327 0.896940
Si Si7 0.598811 0.785692 0.240315
Si Si8 0.157977 0.425953 0.809270
O O1 0.911360 0.013263 0.332887
O O2 0.748014 0.036060 0.210002
O O3 0.677080 0.619984 0.575152
O O4 0.648106 0.563541 0.458291
O O5 0.750000 0.376479 0.500000
O O6 0.550780 0.384852 0.403856
O O7 0.668729 0.313231 0.403553
O O8 0.760107 0.384976 0.334712
O O9 0.564633 0.333826 0.797288
O O10 0.592929 0.416590 0.782683
O O11 0.068152 0.937465 0.113183
O O12 0.000000 0.000000 0.000000
O O13 0.351288 0.784098 0.841001
O O14 0.188489 0.732009 0.831947
O O15 0.250000 0.752797 0.000000
O O16 0.500000 0.750000 0.238114
#
# Coordination Sequence:
#
# PCOD9533773 Si02
#       8
#     8   8  16  16  16  16  16  16
#     4  12  26  48  72 108 144 188 242 294 376 444
#     4  12  28  50  68 112 144 192 254 304 382 448
#     4  11  24  45  70 103 142 188 242 298 368 437
#     4  12  26  47  73 107 151 192 250 306 366 445
#     4  12  28  48  76 106 145 189 247 308 375 451
#     4  10  23  44  67 104 144 185 245 296 363 440
#     4  11  23  45  70 106 146 196 239 305 369 432
#     4  12  26  46  73 103 139 193 234 306 369 433
#
# _framework density 10.370369999999999
#
# number of rings (size 3 to 8) (size 9 to 14) (size 15 to 20)
#    0.000    0.571    4.286    3.000    7.000    0.571 
#    0.000    0.000    0.000    0.000    0.000    0.000 
#    0.000    0.000    0.000    0.000    0.000    0.000 
#
# Total GULP energy -312634.252038 kJ/mol
# GULP energy per Si atom -5582.754501 kJ/mol
# Density = 1.034677 g / cm^3
# Si number density = 10.370370 Si / 1000 Ang^3
#
#
#
# Elastic Constant Matrix: (Units=GPa)
#
#
# Indices 1 2 3 4 5 6 
#
# 1 136.4516 21.3711 41.3350 0.0000 0.0000 0.0000
# 2 21.3711 36.5674 6.8566 0.0000 0.0000 0.0000
# 3 41.3350 6.8566 127.7860 0.0000 0.0000 -0.0001
# 4 0.0000 0.0000 0.0000 33.2706 0.0000 0.0000
# 5 0.0000 0.0000 0.0000 0.0000 52.4734 0.0000
# 6 0.0000 0.0000 -0.0001 0.0000 0.0000 35.3061
#
#
#
# Elastic Compliance Matrix: (Units=1/GPa)
#
#
# Indices 1 2 3 4 5 6 
#
# 1 0.008854 -0.004685 -0.002613 0.000000 0.000000 0.000000
# 2 -0.004685 0.030103 -0.000100 0.000000 0.000000 0.000000
# 3 -0.002613 -0.000100 0.008676 0.000000 0.000000 0.000000
# 4 0.000000 0.000000 0.000000 0.030057 0.000000 0.000000
# 5 0.000000 0.000000 0.000000 0.000000 0.019057 0.000000
# 6 0.000000 0.000000 0.000000 0.000000 0.000000 0.028324
#
#
# Mechanical properties :
#
#
# Convention : Reuss Voigt Hill
#
# Bulk Modulus (GPa) = 30.45160 48.88114 39.66637
# Shear Modulus (GPa) = 33.15410 39.62618 36.39014
#
# Velocity S-wave (km/s) = 4.00246 4.37572 4.19325
# Velocity P-wave (km/s) = 6.00612 7.01057 6.52770
#
# Compressibility (1/GPa) = 0.03283900
#
# Stress axis : x y z
#
# Youngs Moduli (GPa) = 112.94700 33.21898 115.26004
#
# Poissons Ratio (x) = 0.15561 0.30112
# Poissons Ratio (y) = 0.52910 0.01152
# Poissons Ratio (z) = 0.29508 0.00332
#
# Static dielectric constant tensor:
#      x y z
#    x 1.732100 0.000000 0.000000 
#    y 0.000000 1.791050 0.000000 
#    z 0.000000 0.000000 1.762350 
# 
# From -- ./inp_files/16382.got.cif
#   From: 2010.05.17/outbox.ucp.g08.bks.cvg/sg73_9_cif.got.tgz:16382.got - 2010.06.11 16:36:03.
