data_PCOD9533006
_publ_section_title
;
Structure prediction by ZEFSAII (Michael W. Deem and Ramdas Pophale) SiO2 
 PCOD9533006
Probable space group: I B C A 
;
_chemical_formula_sum "Si O2"
_cell_formula_units_Z 64
_cell_length_a 25.405095
_cell_length_b 8.721348
_cell_length_c 12.884765
_cell_angle_alpha 90.000000
_cell_angle_beta 90.000000
_cell_angle_gamma 90.000000
_cell_volume 2854.834532
_symmetry_space_group_name_H-M "I B C A "
_symmetry_group_IT_number 73
_symmetry_cell_setting 'orthorhombic'
loop_
_space_group_symop_operation_xyz
x,y,z
-x,1/2-y,z
x,-y,1/2-z
1/2-x,y,-z
-x,-y,-z
x,1/2+y,-z
-x,y,1/2+z
1/2+x,-y,z
1/2+x,1/2+y,1/2+z
1/2-x,-y,1/2+z
1/2+x,1/2-y,-z
-x,1/2+y,1/2-z
1/2-x,1/2-y,1/2-z
1/2+x,y,1/2-z
1/2-x,1/2+y,z
x,1/2-y,1/2+z
loop_
_atom_site_type_symbol
_atom_site_label
_atom_site_fract_x
_atom_site_fract_y
_atom_site_fract_z
Si Si1 0.591405 0.295265 0.121851
Si Si2 0.447906 0.463692 0.430742
Si Si3 0.000000 0.750000 0.763355
Si Si4 0.702194 0.926720 0.856412
Si Si5 0.750000 0.330968 0.500000
O O1 0.540687 0.339473 0.190151
O O2 0.644374 0.361407 0.169243
O O3 0.582615 0.113853 0.107240
O O4 0.588022 0.366309 0.007712
O O5 0.500000 0.500000 0.500000
O O6 0.466289 0.359684 0.336176
O O7 0.730550 0.780592 0.908346
O O8 0.724381 0.000000 0.750000
O O9 0.706895 0.057727 0.945798
#
# Coordination Sequence:
#
# PCOD9533006 Si02
#       5
#    16  16   8  16   8
#     4  12  26  40  68 101 136 183 232 277 336 416
#     4  12  23  43  61  93 142 188 225 275 331 396
#     4  12  24  40  66  92 144 186 230 274 334 406
#     4  11  25  45  78 106 139 183 239 297 367 432
#     4  10  24  52  74 104 142 180 232 312 374 428
#
# _framework density 22.418111
#
# number of rings (size 3 to 8) (size 9 to 14) (size 15 to 20)
#    0.000    0.500    5.000    3.000    3.500    2.000 
#    0.000    7.500    0.000    0.000    0.000    0.000 
#    0.000    0.000    0.000    0.000    0.000    0.000 
#
# Total GULP energy -178899.184372 kJ/mol
# GULP energy per Si atom -5590.599512 kJ/mol
# Density = 2.236709 g / cm^3
# Si number density = 22.418111 Si / 1000 Ang^3
#
#
#
# Elastic Constant Matrix: (Units=GPa)
#
#
# Indices 1 2 3 4 5 6 
#
# 1 62.2004 19.5235 5.8228 0.0000 0.0000 0.0000
# 2 19.5235 142.1806 45.7147 0.0000 0.0000 0.0000
# 3 5.8228 45.7147 109.8274 0.0000 0.0000 0.0000
# 4 0.0000 0.0000 0.0000 57.6099 0.0000 0.0000
# 5 0.0000 0.0000 0.0000 0.0000 22.3923 0.0000
# 6 0.0000 0.0000 0.0000 0.0000 0.0000 17.1677
#
#
#
# Elastic Compliance Matrix: (Units=1/GPa)
#
#
# Indices 1 2 3 4 5 6 
#
# 1 0.016802 -0.002333 0.000080 0.000000 0.000000 0.000000
# 2 -0.002333 0.008444 -0.003391 0.000000 0.000000 0.000000
# 3 0.000080 -0.003391 0.010512 0.000000 0.000000 0.000000
# 4 0.000000 0.000000 0.000000 0.017358 0.000000 0.000000
# 5 0.000000 0.000000 0.000000 0.000000 0.044658 0.000000
# 6 0.000000 0.000000 0.000000 0.000000 0.000000 0.058249
#
#
# Mechanical properties :
#
#
# Convention : Reuss Voigt Hill
#
# Bulk Modulus (GPa) = 40.86506 50.70337 45.78421
# Shear Modulus (GPa) = 28.49526 35.64383 32.06954
#
# Velocity S-wave (km/s) = 3.56909 3.99175 3.78632
# Velocity P-wave (km/s) = 5.93740 6.62659 6.29144
#
# Compressibility (1/GPa) = 0.02447079
#
# Stress axis : x y z
#
# Youngs Moduli (GPa) = 59.51742 118.42790 95.12552
#
# Poissons Ratio (x) = 0.27629 -0.00764
# Poissons Ratio (y) = 0.13885 0.32257
# Poissons Ratio (z) = -0.00478 0.40159
#
# Static dielectric constant tensor:
#      x y z
#    x 1.815530 0.000000 0.000000 
#    y 0.000000 1.671270 0.000000 
#    z 0.000000 0.000000 1.823320 
# 
# From -- ./inp_files/4028.got.cif
#   From: 2010.05.17/outbox.cif.g08.bks.cpg/sg73_3_cif.got.tgz:4028.got - 2010.06.03 17:35:07.
