data_PCOD9533931
_publ_section_title
;
Structure prediction by ZEFSAII (Michael W. Deem and Ramdas Pophale) SiO2 
 PCOD9533931
Probable space group: I M M A
;
_chemical_formula_sum "Si O2"
_cell_formula_units_Z 44
_cell_length_a 23.271950
_cell_length_b 14.675255
_cell_length_c 7.012346
_cell_angle_alpha 90.000000
_cell_angle_beta 90.000000
_cell_angle_gamma 90.000000
_cell_volume 2394.869032
_symmetry_space_group_name_H-M "I M M A"
_symmetry_group_IT_number 74
_symmetry_cell_setting 'orthorhombic'
loop_
_space_group_symop_operation_xyz
x,y,z
-x,1/2-y,z
x,-y,-z
-x,1/2+y,-z
-x,-y,-z
x,1/2+y,-z
-x,y,z
x,1/2-y,z
1/2+x,1/2+y,1/2+z
1/2-x,-y,1/2+z
1/2+x,1/2-y,1/2-z
1/2-x,y,1/2-z
1/2-x,1/2-y,1/2-z
1/2+x,y,1/2-z
1/2-x,1/2+y,1/2+z
1/2+x,-y,1/2+z
loop_
_atom_site_type_symbol
_atom_site_label
_atom_site_fract_x
_atom_site_fract_y
_atom_site_fract_z
Si Si1 0.500000 0.750000 0.492265
Si Si2 0.500000 0.645714 0.866336
Si Si3 0.626405 0.102663 0.018866
Si Si4 0.375307 0.250000 0.695089
Si Si5 0.182624 0.250000 0.210533
O O1 0.500000 0.663943 0.638520
O O2 0.441368 0.750000 0.375540
O O3 0.500000 0.750000 0.944327
O O4 0.441530 0.600635 0.933373
O O5 0.655051 0.161823 0.186686
O O6 0.634609 0.161890 0.827706
O O7 0.648202 0.000000 0.000000
O O8 0.335115 0.250000 0.509965
O O9 0.250000 0.250000 0.250000
#
# Coordination Sequence:
#
# PCOD9533931 Si02
#       5
#     4   8  16   8   8
#     4  10  16  34  66  86 116 172 196 236 320 386
#     4  10  16  38  61  84 137 154 194 264 306 378
#     4  11  23  40  63  96 122 157 211 260 309 374
#     4  11  20  40  68  81 128 166 191 256 323 358
#     4  11  24  46  61  86 126 165 209 253 307 373
#
# _framework density 18.372610999999999
#
# number of rings (size 3 to 8) (size 9 to 14) (size 15 to 20)
#    0.545    0.727    7.273    1.636    0.000    4.364 
#    6.545    1.818    0.000    0.000    0.000    0.000 
#    0.000    0.000    0.000    0.000    0.000    0.000 
#
# Total GULP energy -122785.016355 kJ/mol
# GULP energy per Si atom -5581.137107 kJ/mol
# Density = 1.833079 g / cm^3
# Si number density = 18.372611 Si / 1000 Ang^3
#
#
#
# Elastic Constant Matrix: (Units=GPa)
#
#
# Indices 1 2 3 4 5 6 
#
# 1 102.1979 23.4039 41.2583 0.0000 0.0000 0.0000
# 2 23.4039 153.5237 61.5505 0.0000 0.0000 0.0000
# 3 41.2583 61.5505 158.2116 0.0000 0.0000 0.0000
# 4 0.0000 0.0000 0.0000 -8.7002 0.0000 0.0000
# 5 0.0000 0.0000 0.0000 0.0000 -3.1694 0.0000
# 6 0.0000 0.0000 0.0000 0.0000 0.0000 -3.4574
#
#
#
# Elastic Compliance Matrix: (Units=1/GPa)
#
#
# Indices 1 2 3 4 5 6 
#
# 1 0.010986 -0.000623 -0.002622 0.000000 0.000000 0.000000
# 2 -0.000623 0.007753 -0.002854 0.000000 0.000000 0.000000
# 3 -0.002622 -0.002854 0.008115 0.000000 0.000000 0.000000
# 4 0.000000 0.000000 0.000000 -0.114939 0.000000 0.000000
# 5 0.000000 0.000000 0.000000 0.000000 -0.315520 0.000000
# 6 0.000000 0.000000 0.000000 0.000000 0.000000 -0.289233
#
#
# Mechanical properties :
#
#
# Convention : Reuss Voigt Hill
#
# Bulk Modulus (GPa) = 68.23642 74.03983 71.13813
# Shear Modulus (GPa) = -7.39913 16.11596 4.35841
#
# Velocity S-wave (km/s) = -2.00898 2.96492 1.54188
# Velocity P-wave (km/s) = 5.64266 7.21856 6.47870
#
# Compressibility (1/GPa) = 0.01465493
#
# Stress axis : x y z
#
# Youngs Moduli (GPa) = 91.02133 128.98686 123.23345
#
# Poissons Ratio (x) = 0.08041 0.32318
# Poissons Ratio (y) = 0.05674 0.35165
# Poissons Ratio (z) = 0.23870 0.36807
#
# Static dielectric constant tensor:
#      x y z
#    x 1.650620 0.000000 0.000000 
#    y 0.000000 1.621630 0.000000 
#    z 0.000000 0.000000 1.637460 
# 
# From -- ./inp_files/4129.got.cif
#   From: 2010.05.17/outbox.cif.g08.bks.cpg/sg74_3_cif.got.tgz:4129.got - 2010.06.03 17:57:02.
