data_PCOD9533601
_publ_section_title
;
Structure prediction by ZEFSAII (Michael W. Deem and Ramdas Pophale) SiO2 
 PCOD9533601
Probable space group: I B C A 
;
_chemical_formula_sum "Si O2"
_cell_formula_units_Z 88
_cell_length_a 12.808429
_cell_length_b 12.685228
_cell_length_c 24.670091
_cell_angle_alpha 90.000000
_cell_angle_beta 90.000000
_cell_angle_gamma 90.000000
_cell_volume 4008.343152
_symmetry_space_group_name_H-M "I B C A "
_symmetry_group_IT_number 73
_symmetry_cell_setting 'orthorhombic'
loop_
_space_group_symop_operation_xyz
x,y,z
-x,1/2-y,z
x,-y,1/2-z
1/2-x,y,-z
-x,-y,-z
x,1/2+y,-z
-x,y,1/2+z
1/2+x,-y,z
1/2+x,1/2+y,1/2+z
1/2-x,-y,1/2+z
1/2+x,1/2-y,-z
-x,1/2+y,1/2-z
1/2-x,1/2-y,1/2-z
1/2+x,y,1/2-z
1/2-x,1/2+y,z
x,1/2-y,1/2+z
loop_
_atom_site_type_symbol
_atom_site_label
_atom_site_fract_x
_atom_site_fract_y
_atom_site_fract_z
Si Si1 0.174087 0.500000 0.250000
Si Si2 0.578908 0.498557 0.051349
Si Si3 0.664569 0.152689 0.304783
Si Si4 0.250000 0.644125 0.000000
Si Si5 0.624047 0.269235 0.411114
Si Si6 0.500000 0.250000 0.227545
Si Si7 0.497483 0.972835 0.332696
O O1 0.243148 0.402977 0.271623
O O2 0.099328 0.473074 0.199115
O O3 0.676221 0.426068 0.037413
O O4 0.626146 0.609427 0.071616
O O5 0.516378 0.460172 0.103704
O O6 0.500000 0.500000 0.000000
O O7 0.684073 0.221899 0.358793
O O8 0.598058 0.227997 0.266106
O O9 0.593728 0.050784 0.321343
O O10 0.171503 0.709329 0.962471
O O11 0.500000 0.250000 0.401534
O O12 0.499211 0.143449 0.192690
#
# Coordination Sequence:
#
# PCOD9533601 Si02
#       7
#     8  16  16   8  16   8  16
#     4  12  24  44  70 104 148 188 240 308 360 450
#     4  12  26  50  77 104 151 195 250 317 372 452
#     4  12  23  48  70 101 151 198 235 293 390 447
#     4  12  26  48  74 116 138 188 266 306 374 450
#     4  12  24  47  81  99 146 208 239 309 385 443
#     4  12  22  44  70 102 144 184 236 300 358 452
#     4  12  25  45  70 108 147 184 251 306 364 450
#
# _framework density 21.954208999999999
#
# number of rings (size 3 to 8) (size 9 to 14) (size 15 to 20)
#    0.000    0.000    8.182    1.636    0.000    2.182 
#    3.273    0.000    0.000    0.000    0.000    0.000 
#    0.000    0.000    0.000    0.000    0.000    0.000 
#
# Total GULP energy -246076.983398 kJ/mol
# GULP energy per Si atom -5592.658714 kJ/mol
# Density = 2.190424 g / cm^3
# Si number density = 21.954209 Si / 1000 Ang^3
#
#
#
# Elastic Constant Matrix: (Units=GPa)
#
#
# Indices 1 2 3 4 5 6 
#
# 1 51.5921 3.9677 23.1780 0.0000 0.0000 0.0000
# 2 3.9677 145.4783 55.7278 0.0000 0.0000 0.0000
# 3 23.1780 55.7278 169.1982 0.0000 0.0000 0.0000
# 4 0.0000 0.0000 0.0000 46.1207 0.0000 0.0000
# 5 0.0000 0.0000 0.0000 0.0000 -8.6199 0.0000
# 6 0.0000 0.0000 0.0000 0.0000 0.0000 29.3339
#
#
#
# Elastic Compliance Matrix: (Units=1/GPa)
#
#
# Indices 1 2 3 4 5 6 
#
# 1 0.020699 0.000597 -0.003032 0.000000 0.000000 0.000000
# 2 0.000597 0.007884 -0.002678 0.000000 0.000000 0.000000
# 3 -0.003032 -0.002678 0.007208 0.000000 0.000000 0.000000
# 4 0.000000 0.000000 0.000000 0.021682 0.000000 0.000000
# 5 0.000000 0.000000 0.000000 0.000000 -0.116010 0.000000
# 6 0.000000 0.000000 0.000000 0.000000 0.000000 0.034090
#
#
# Mechanical properties :
#
#
# Convention : Reuss Voigt Hill
#
# Bulk Modulus (GPa) = 39.11844 59.11285 49.11565
# Shear Modulus (GPa) = -877.31293 32.25992 -422.52650
#
# Velocity S-wave (km/s) = -20.01194 3.83746 -13.88798
# Velocity P-wave (km/s) = 22.71813 6.82779 15.32147
#
# Compressibility (1/GPa) = 0.02556339
#
# Stress axis : x y z
#
# Youngs Moduli (GPa) = 48.31132 126.84593 138.73972
#
# Poissons Ratio (x) = -0.07572 0.42068
# Poissons Ratio (y) = -0.02884 0.37159
# Poissons Ratio (z) = 0.14649 0.33974
#
# Static dielectric constant tensor:
#      x y z
#    x 1.828450 0.000000 0.000000 
#    y 0.000000 1.935770 0.000000 
#    z 0.000000 0.000000 1.860480 
# 
# From -- ./inp_files/13567.got.cif
#   From: 2010.05.17/outbox.cif.g08.bks.cpg/sg73_7_cif.got.tgz:13567.got - 2010.06.03 17:35:07.
