data_PCOD9533031
_publ_section_title
;
Structure prediction by ZEFSAII (Michael W. Deem and Ramdas Pophale) SiO2 
 PCOD9533031
Probable space group: I B C A 
;
_chemical_formula_sum "Si O2"
_cell_formula_units_Z 112
_cell_length_a 15.326827
_cell_length_b 10.203680
_cell_length_c 31.235938
_cell_angle_alpha 90.000000
_cell_angle_beta 90.000000
_cell_angle_gamma 90.000000
_cell_volume 4884.989535
_symmetry_space_group_name_H-M "I B C A "
_symmetry_group_IT_number 73
_symmetry_cell_setting 'orthorhombic'
loop_
_space_group_symop_operation_xyz
x,y,z
-x,1/2-y,z
x,-y,1/2-z
1/2-x,y,-z
-x,-y,-z
x,1/2+y,-z
-x,y,1/2+z
1/2+x,-y,z
1/2+x,1/2+y,1/2+z
1/2-x,-y,1/2+z
1/2+x,1/2-y,-z
-x,1/2+y,1/2-z
1/2-x,1/2-y,1/2-z
1/2+x,y,1/2-z
1/2-x,1/2+y,z
x,1/2-y,1/2+z
loop_
_atom_site_type_symbol
_atom_site_label
_atom_site_fract_x
_atom_site_fract_y
_atom_site_fract_z
Si Si1 0.867376 0.035352 0.073808
Si Si2 0.446100 0.587413 0.413375
Si Si3 0.338560 0.537333 0.832718
Si Si4 0.384334 0.827624 0.557409
Si Si5 0.500000 0.750000 0.983962
Si Si6 0.750000 0.935589 0.000000
Si Si7 0.533447 0.616645 0.816570
Si Si8 0.715891 0.316466 0.706607
O O1 0.894004 0.187451 0.078556
O O2 0.820915 0.989498 0.117081
O O3 0.815955 0.019462 0.029346
O O4 0.954804 0.950242 0.075076
O O5 0.394949 0.452316 0.412920
O O6 0.427992 0.682444 0.453245
O O7 0.440241 0.643948 0.366237
O O8 0.443908 0.531786 0.821454
O O9 0.305453 0.684398 0.821337
O O10 0.288808 0.419466 0.808979
O O11 0.451969 0.843869 0.517797
O O12 0.292847 0.841968 0.534784
O O13 0.500000 0.750000 0.795480
O O14 0.626091 0.596325 0.793429
O O15 0.750000 0.250000 0.750000
#
# Coordination Sequence:
#
# PCOD9533031 Si02
#       8
#    16  16  16  16   8   8  16  16
#     4  11  24  43  59  97 137 182 248 293 359 432
#     4  11  21  39  66  88 129 184 238 294 356 434
#     4  10  25  46  76 108 149 194 243 305 372 454
#     4  12  24  38  60  89 131 185 242 302 353 409
#     4  12  20  38  62  90 134 186 246 302 356 424
#     4  12  26  38  56  96 138 186 234 304 368 410
#     4   9  21  44  71 105 139 188 231 285 371 442
#     4  11  24  48  78 112 146 182 236 303 376 462
#
# _framework density 22.927377
#
# number of rings (size 3 to 8) (size 9 to 14) (size 15 to 20)
#    0.000    1.143    3.571    2.143    4.000    0.000 
#    0.000   10.714    0.000    0.000    0.000    0.000 
#    0.000    0.000    0.000    0.000    0.000    0.000 
#
# Total GULP energy -312205.249924 kJ/mol
# GULP energy per Si atom -5575.093749 kJ/mol
# Density = 2.287519 g / cm^3
# Si number density = 22.927377 Si / 1000 Ang^3
#
#
#
# Elastic Constant Matrix: (Units=GPa)
#
#
# Indices 1 2 3 4 5 6 
#
# 1 100.3079 24.1570 52.8046 0.0000 0.0000 0.0000
# 2 24.1570 114.9848 43.9959 0.0000 0.0000 0.0000
# 3 52.8046 43.9959 84.5644 0.0000 0.0000 0.0000
# 4 0.0000 0.0000 0.0000 30.7019 0.0000 0.0000
# 5 0.0000 0.0000 0.0000 0.0000 28.0082 0.0000
# 6 0.0000 0.0000 0.0000 0.0000 0.0000 37.4196
#
#
#
# Elastic Compliance Matrix: (Units=1/GPa)
#
#
# Indices 1 2 3 4 5 6 
#
# 1 0.014877 0.000536 -0.009569 0.000000 0.000000 0.000000
# 2 0.000536 0.010878 -0.005994 0.000000 0.000000 0.000000
# 3 -0.009569 -0.005994 0.020919 0.000000 0.000000 0.000000
# 4 0.000000 0.000000 0.000000 0.032571 0.000000 0.000000
# 5 0.000000 0.000000 0.000000 0.000000 0.035704 0.000000
# 6 0.000000 0.000000 0.000000 0.000000 0.000000 0.026724
#
#
# Mechanical properties :
#
#
# Convention : Reuss Voigt Hill
#
# Bulk Modulus (GPa) = 60.16763 60.19691 60.18227
# Shear Modulus (GPa) = 28.20619 31.15258 29.67939
#
# Velocity S-wave (km/s) = 3.51128 3.69012 3.60181
# Velocity P-wave (km/s) = 6.53747 6.66847 6.60329
#
# Compressibility (1/GPa) = 0.01662023
#
# Stress axis : x y z
#
# Youngs Moduli (GPa) = 67.21579 91.93204 47.80452
#
# Poissons Ratio (x) = -0.04924 0.45742
# Poissons Ratio (y) = -0.03600 0.28652
# Poissons Ratio (z) = 0.64316 0.55101
#
# Static dielectric constant tensor:
#      x y z
#    x 1.998930 0.000000 0.000000 
#    y 0.000000 1.922680 0.000000 
#    z 0.000000 0.000000 1.897340 
# 
# From -- ./inp_files/34343.got.cif
#   From: 2010.05.17/outbox.cif.g08.bks.cpg/sg73_18_cif.got.tgz:34343.got - 2010.06.03 17:35:07.
