data_PCOD9533146
_publ_section_title
;
Structure prediction by ZEFSAII (Michael W. Deem and Ramdas Pophale) SiO2 
 PCOD9533146
Probable space group: I B C A 
;
_chemical_formula_sum "Si O2"
_cell_formula_units_Z 72
_cell_length_a 5.004336
_cell_length_b 29.149881
_cell_length_c 22.862363
_cell_angle_alpha 90.000000
_cell_angle_beta 90.000000
_cell_angle_gamma 90.000000
_cell_volume 3335.065467
_symmetry_space_group_name_H-M "I B C A "
_symmetry_group_IT_number 73
_symmetry_cell_setting 'orthorhombic'
loop_
_space_group_symop_operation_xyz
x,y,z
-x,1/2-y,z
x,-y,1/2-z
1/2-x,y,-z
-x,-y,-z
x,1/2+y,-z
-x,y,1/2+z
1/2+x,-y,z
1/2+x,1/2+y,1/2+z
1/2-x,-y,1/2+z
1/2+x,1/2-y,-z
-x,1/2+y,1/2-z
1/2-x,1/2-y,1/2-z
1/2+x,y,1/2-z
1/2-x,1/2+y,z
x,1/2-y,1/2+z
loop_
_atom_site_type_symbol
_atom_site_label
_atom_site_fract_x
_atom_site_fract_y
_atom_site_fract_z
Si Si1 0.293507 0.641763 0.911616
Si Si2 0.948170 0.635272 0.284281
Si Si3 0.310790 0.918660 0.063115
Si Si4 0.250000 0.219653 0.000000
Si Si5 0.995271 0.968101 0.322872
O O1 0.178869 0.649230 0.846283
O O2 0.546216 0.606917 0.911777
O O3 0.353307 0.687819 0.946757
O O4 0.042732 0.618942 0.945492
O O5 0.744447 0.650169 0.233408
O O6 0.978495 0.579887 0.289125
O O7 0.436790 0.952688 0.110267
O O8 0.250000 0.939607 0.000000
O O9 0.500000 0.250000 0.980010
O O10 0.757560 0.002975 0.311983
#
# Coordination Sequence:
#
# PCOD9533146 Si02
#       5
#    16  16  16   8  16
#     4  11  22  41  63  94 128 159 211 258 303 394
#     4  11  23  40  63  85 115 171 219 255 306 361
#     4  11  20  37  61  83 123 175 209 252 320 379
#     4  12  24  40  70 104 130 156 190 254 336 382
#     4  11  23  36  53  86 122 158 213 271 314 350
#
# _framework density 21.588781999999998
#
# number of rings (size 3 to 8) (size 9 to 14) (size 15 to 20)
#    0.000    0.889    2.222    8.000    0.000    3.556 
#    0.000    0.000    0.000    4.000    0.000    0.000 
#    0.000    0.000    0.000    0.000    0.000    0.000 
#
# Total GULP energy -201213.613189 kJ/mol
# GULP energy per Si atom -5589.267033 kJ/mol
# Density = 2.153965 g / cm^3
# Si number density = 21.588782 Si / 1000 Ang^3
#
#
#
# Elastic Constant Matrix: (Units=GPa)
#
#
# Indices 1 2 3 4 5 6 
#
# 1 166.9984 21.4620 46.2980 0.0000 0.0000 0.0000
# 2 21.4620 46.7791 25.9166 0.0000 0.0000 0.0000
# 3 46.2980 25.9166 140.2864 0.0000 0.0000 0.0000
# 4 0.0000 0.0000 0.0000 13.7063 0.0000 0.0000
# 5 0.0000 0.0000 0.0000 0.0000 37.6592 0.0000
# 6 0.0000 0.0000 0.0000 0.0000 0.0000 -55.0705
#
#
#
# Elastic Compliance Matrix: (Units=1/GPa)
#
#
# Indices 1 2 3 4 5 6 
#
# 1 0.006768 -0.002081 -0.001849 0.000000 0.000000 0.000000
# 2 -0.002081 0.024454 -0.003831 0.000000 0.000000 0.000000
# 3 -0.001849 -0.003831 0.008446 0.000000 0.000000 0.000000
# 4 0.000000 0.000000 0.000000 0.072959 0.000000 0.000000
# 5 0.000000 0.000000 0.000000 0.000000 0.026554 0.000000
# 6 0.000000 0.000000 0.000000 0.000000 0.000000 -0.018159
#
#
# Mechanical properties :
#
#
# Convention : Reuss Voigt Hill
#
# Bulk Modulus (GPa) = 41.41348 60.15748 50.78548
# Shear Modulus (GPa) = 34.57953 16.61815 25.59884
#
# Velocity S-wave (km/s) = 4.00651 2.77746 3.44720
# Velocity P-wave (km/s) = 6.37396 6.18153 6.27848
#
# Compressibility (1/GPa) = 0.02414673
#
# Stress axis : x y z
#
# Youngs Moduli (GPa) = 147.75045 40.89287 118.39470
#
# Poissons Ratio (x) = 0.08508 0.21894
# Poissons Ratio (y) = 0.30742 0.45357
# Poissons Ratio (z) = 0.27323 0.15666
#
# Static dielectric constant tensor:
#      x y z
#    x 1.759610 0.000000 0.000000 
#    y 0.000000 1.835680 0.000000 
#    z 0.000000 0.000000 1.841310 
# 
# From -- ./inp_files/1671.got.cif
#   From: 2010.05.17/outbox.cif.g08.bks.cpg/sg73_1_cif.got.tgz:1671.got - 2010.06.03 17:35:07.
