data_PCOD9533298
_publ_section_title
;
Structure prediction by ZEFSAII (Michael W. Deem and Ramdas Pophale) SiO2 
 PCOD9533298
Probable space group: I B C A 
;
_chemical_formula_sum "Si O2"
_cell_formula_units_Z 112
_cell_length_a 29.895354
_cell_length_b 10.518015
_cell_length_c 14.862904
_cell_angle_alpha 90.000000
_cell_angle_beta 90.000000
_cell_angle_gamma 90.000000
_cell_volume 4673.488291
_symmetry_space_group_name_H-M "I B C A "
_symmetry_group_IT_number 73
_symmetry_cell_setting 'orthorhombic'
loop_
_space_group_symop_operation_xyz
x,y,z
-x,1/2-y,z
x,-y,1/2-z
1/2-x,y,-z
-x,-y,-z
x,1/2+y,-z
-x,y,1/2+z
1/2+x,-y,z
1/2+x,1/2+y,1/2+z
1/2-x,-y,1/2+z
1/2+x,1/2-y,-z
-x,1/2+y,1/2-z
1/2-x,1/2-y,1/2-z
1/2+x,y,1/2-z
1/2-x,1/2+y,z
x,1/2-y,1/2+z
loop_
_atom_site_type_symbol
_atom_site_label
_atom_site_fract_x
_atom_site_fract_y
_atom_site_fract_z
Si Si1 0.254114 0.618325 0.305991
Si Si2 0.655505 0.581227 0.127330
Si Si3 0.564448 0.044681 0.653657
Si Si4 0.575745 0.830222 0.326004
Si Si5 0.456234 0.665378 0.509416
Si Si6 0.161158 0.582140 0.586324
Si Si7 0.106766 0.670018 0.865944
O O1 0.273765 0.500000 0.250000
O O2 0.250000 0.750000 0.250000
O O3 0.205640 0.570605 0.338402
O O4 0.289116 0.623969 0.387283
O O5 0.618407 0.475449 0.148400
O O6 0.635259 0.709860 0.168150
O O7 0.656389 0.595734 0.019925
O O8 0.555266 0.192520 0.654896
O O9 0.547956 0.000000 0.750000
O O10 0.544719 0.951879 0.578788
O O11 0.554018 0.900074 0.412464
O O12 0.627574 0.832651 0.355348
O O13 0.575330 0.864127 0.220293
O O14 0.500000 0.750000 0.509480
O O15 0.419950 0.768186 0.549934
O O16 0.141458 0.441208 0.609446
#
# Coordination Sequence:
#
# PCOD9533298 Si02
#       7
#    16  16  16  16  16  16  16
#     4  12  27  43  65 104 149 192 252 309 366 435
#     4  11  23  42  72  99 137 198 246 299 357 435
#     4  11  22  46  73 101 139 194 240 289 367 447
#     4  12  23  44  74 100 143 193 239 291 373 442
#     4  11  26  46  74 110 144 181 245 309 366 442
#     4  12  25  44  69 106 145 189 247 307 367 437
#     4  11  24  48  72 105 149 195 243 302 376 445
#
# _framework density 23.964969
#
# number of rings (size 3 to 8) (size 9 to 14) (size 15 to 20)
#    0.000    0.571    5.714    4.714    2.000    1.143 
#    0.000    2.857    0.000    0.000    0.000    0.000 
#    0.000    0.000    0.000    0.000    0.000    0.000 
#
# Total GULP energy -312912.793675 kJ/mol
# GULP energy per Si atom -5587.728458 kJ/mol
# Density = 2.391042 g / cm^3
# Si number density = 23.964969 Si / 1000 Ang^3
#
#
#
# Elastic Constant Matrix: (Units=GPa)
#
#
# Indices 1 2 3 4 5 6 
#
# 1 97.1338 -2.4846 8.8491 0.0000 0.0000 0.0000
# 2 -2.4846 89.7473 19.1433 0.0000 0.0000 0.0000
# 3 8.8491 19.1433 150.1722 0.0000 0.0000 0.0000
# 4 0.0000 0.0000 0.0000 33.8907 0.0000 0.0000
# 5 0.0000 0.0000 0.0000 0.0000 17.7704 0.0000
# 6 0.0000 0.0000 0.0000 0.0000 0.0000 23.3864
#
#
#
# Elastic Compliance Matrix: (Units=1/GPa)
#
#
# Indices 1 2 3 4 5 6 
#
# 1 0.010367 0.000429 -0.000666 0.000000 0.000000 0.000000
# 2 0.000429 0.011472 -0.001488 0.000000 0.000000 0.000000
# 3 -0.000666 -0.001488 0.006888 0.000000 0.000000 0.000000
# 4 0.000000 0.000000 0.000000 0.029507 0.000000 0.000000
# 5 0.000000 0.000000 0.000000 0.000000 0.056273 0.000000
# 6 0.000000 0.000000 0.000000 0.000000 0.000000 0.042760
#
#
# Mechanical properties :
#
#
# Convention : Reuss Voigt Hill
#
# Bulk Modulus (GPa) = 39.56057 43.11878 41.33967
# Shear Modulus (GPa) = 29.56126 35.77921 32.67024
#
# Velocity S-wave (km/s) = 3.51596 3.86810 3.69623
# Velocity P-wave (km/s) = 5.74684 6.16288 5.95849
#
# Compressibility (1/GPa) = 0.02527770
#
# Stress axis : x y z
#
# Youngs Moduli (GPa) = 96.46288 87.17190 145.18267
#
# Poissons Ratio (x) = -0.03739 0.09663
# Poissons Ratio (y) = -0.04138 0.21598
# Poissons Ratio (z) = 0.06420 0.12968
#
# Static dielectric constant tensor:
#      x y z
#    x 1.961130 0.000000 0.000000 
#    y 0.000000 2.182420 0.000000 
#    z 0.000000 0.000000 2.000480 
# 
# From -- ./inp_files/20057.got.cif
#   From: 2010.05.17/outbox.cif.g08.bks.cpg/sg73_11_cif.got.tgz:20057.got - 2010.06.03 17:35:07.
