data_PCOD9533842
_publ_section_title
;
Structure prediction by ZEFSAII (Michael W. Deem and Ramdas Pophale) SiO2 
 PCOD9533842
Probable space group: I M M A
;
_chemical_formula_sum "Si O2"
_cell_formula_units_Z 64
_cell_length_a 10.871584
_cell_length_b 35.074879
_cell_length_c 7.186744
_cell_angle_alpha 90.000000
_cell_angle_beta 90.000000
_cell_angle_gamma 90.000000
_cell_volume 2740.445581
_symmetry_space_group_name_H-M "I M M A"
_symmetry_group_IT_number 74
_symmetry_cell_setting 'orthorhombic'
loop_
_space_group_symop_operation_xyz
x,y,z
-x,1/2-y,z
x,-y,-z
-x,1/2+y,-z
-x,-y,-z
x,1/2+y,-z
-x,y,z
x,1/2-y,z
1/2+x,1/2+y,1/2+z
1/2-x,-y,1/2+z
1/2+x,1/2-y,1/2-z
1/2-x,y,1/2-z
1/2-x,1/2-y,1/2-z
1/2+x,y,1/2-z
1/2-x,1/2+y,1/2+z
1/2+x,-y,1/2+z
loop_
_atom_site_type_symbol
_atom_site_label
_atom_site_fract_x
_atom_site_fract_y
_atom_site_fract_z
Si Si1 0.500000 0.546276 0.526583
Si Si2 0.000000 0.544237 0.531658
Si Si3 0.140294 0.831801 0.523769
Si Si4 0.754956 0.084395 0.474561
Si Si5 0.630580 0.293920 0.427843
O O1 0.500000 0.500000 0.500000
O O2 0.500000 0.552350 0.748627
O O3 0.375155 0.567242 0.458993
O O4 0.000000 0.500000 0.500000
O O5 0.872335 0.560622 0.457446
O O6 0.206199 0.872140 0.487194
O O7 0.244409 0.801931 0.463380
O O8 0.128139 0.821248 0.745358
O O9 0.000000 0.831171 0.453518
O O10 0.750000 0.081448 0.250000
O O11 0.500000 0.300251 0.527583
O O12 0.631576 0.250000 0.364381
#
# Coordination Sequence:
#
# PCOD9533842 Si02
#       5
#     8   8  16  16  16
#     4  10  22  34  48  68  90 114 152 196 240 284
#     4  10  20  34  50  66  90 116 148 192 242 284
#     4  10  16  23  37  55  78 108 151 188 216 256
#     4  10  18  28  45  65  84 112 150 195 224 271
#     4   9  17  24  34  53  84 118 155 185 219 263
#
# _framework density 23.353866
#
# number of rings (size 3 to 8) (size 9 to 14) (size 15 to 20)
#    0.000    2.250    3.750    2.250    1.750    1.500 
#    0.000    0.000    0.000    0.000    0.000    0.000 
#    0.000    0.000    0.000    0.000    0.000   30.000 
#
# Total GULP energy -178312.909901 kJ/mol
# GULP energy per Si atom -5572.278434 kJ/mol
# Density = 2.330071 g / cm^3
# Si number density = 23.353866 Si / 1000 Ang^3
#
#
#
# Elastic Constant Matrix: (Units=GPa)
#
#
# Indices 1 2 3 4 5 6 
#
# 1 303.8493 91.1423 12.1278 0.0080 0.0008 0.0024
# 2 91.1423 154.8776 -3.0450 0.0069 0.0030 0.0055
# 3 12.1278 -3.0450 84.2356 0.0192 -0.0027 0.0024
# 4 0.0080 0.0069 0.0192 8.6745 -0.0015 -0.0002
# 5 0.0008 0.0030 -0.0027 -0.0015 -25.5956 -0.0043
# 6 0.0024 0.0055 0.0024 -0.0002 -0.0043 46.8159
#
#
#
# Elastic Compliance Matrix: (Units=1/GPa)
#
#
# Indices 1 2 3 4 5 6 
#
# 1 0.004034 -0.002387 -0.000667 0.000000 0.000000 0.000000
# 2 -0.002387 0.007874 0.000628 -0.000005 0.000001 -0.000001
# 3 -0.000667 0.000628 0.011990 -0.000026 -0.000001 -0.000001
# 4 0.000000 -0.000005 -0.000026 0.115280 -0.000007 0.000000
# 5 0.000000 0.000001 -0.000001 -0.000007 -0.039069 -0.000004
# 6 0.000000 -0.000001 -0.000001 0.000000 -0.000004 0.021360
#
#
# Mechanical properties :
#
#
# Convention : Reuss Voigt Hill
#
# Bulk Modulus (GPa) = 52.50350 82.60140 67.55245
# Shear Modulus (GPa) = 37.68788 35.49479 36.59133
#
# Velocity S-wave (km/s) = 4.02154 3.90278 3.96260
# Velocity P-wave (km/s) = 6.64035 7.46694 7.06574
#
# Compressibility (1/GPa) = 0.01904635
#
# Stress axis : x y z
#
# Youngs Moduli (GPa) = 247.91215 127.00539 83.40137
#
# Poissons Ratio (x) = 0.30314 0.05563
# Poissons Ratio (y) = 0.59173 -0.05240
# Poissons Ratio (z) = 0.16536 -0.07979
#
# Static dielectric constant tensor:
#      x y z
#    x 1.937890 0.000000 -0.000020 
#    y 0.000000 1.838940 0.000080 
#    z -0.000020 0.000080 1.988980 
# 
# From -- ./inp_files/18760.got.cif
#   From: 2010.05.17/outbox.cif.g08.bks.cpg/sg74_10_cif.got.tgz:18760.got - 2010.06.03 17:57:02.
