data_PCOD9533467
_publ_section_title
;
Structure prediction by ZEFSAII (Michael W. Deem and Ramdas Pophale) SiO2 
 PCOD9533467
Probable space group: I B C A 
;
_chemical_formula_sum "Si O2"
_cell_formula_units_Z 64
_cell_length_a 14.430783
_cell_length_b 13.555808
_cell_length_c 13.660171
_cell_angle_alpha 90.000000
_cell_angle_beta 90.000000
_cell_angle_gamma 90.000000
_cell_volume 2672.215268
_symmetry_space_group_name_H-M "I B C A "
_symmetry_group_IT_number 73
_symmetry_cell_setting 'orthorhombic'
loop_
_space_group_symop_operation_xyz
x,y,z
-x,1/2-y,z
x,-y,1/2-z
1/2-x,y,-z
-x,-y,-z
x,1/2+y,-z
-x,y,1/2+z
1/2+x,-y,z
1/2+x,1/2+y,1/2+z
1/2-x,-y,1/2+z
1/2+x,1/2-y,-z
-x,1/2+y,1/2-z
1/2-x,1/2-y,1/2-z
1/2+x,y,1/2-z
1/2-x,1/2+y,z
x,1/2-y,1/2+z
loop_
_atom_site_type_symbol
_atom_site_label
_atom_site_fract_x
_atom_site_fract_y
_atom_site_fract_z
Si Si1 0.278383 0.068106 0.340647
Si Si2 0.062763 0.899754 0.204823
Si Si3 0.359550 0.778309 0.619515
Si Si4 0.500000 0.750000 0.447676
Si Si5 0.750000 0.435542 0.000000
O O1 0.165635 0.075719 0.337748
O O2 0.313734 0.179563 0.339243
O O3 0.305126 0.000000 0.250000
O O4 0.312282 0.011649 0.438010
O O5 0.078830 0.826653 0.296067
O O6 0.004559 0.845000 0.122115
O O7 0.023442 0.000000 0.250000
O O8 0.413703 0.751887 0.520643
O O9 0.290706 0.863985 0.582917
#
# Coordination Sequence:
#
# PCOD9533467 Si02
#       5
#    16  16  16   8   8
#     4  11  24  46  77 106 140 186 249 309 359 418
#     4  11  24  50  71 104 147 190 246 301 359 436
#     4  12  26  45  72 107 142 189 247 295 364 436
#     4  12  28  46  68 104 152 196 228 302 368 444
#     4  12  22  44  76 106 134 186 244 310 352 424
#
# _framework density 23.950167
#
# number of rings (size 3 to 8) (size 9 to 14) (size 15 to 20)
#    0.000    0.500    5.000    5.250    3.500    1.000 
#    4.500    0.000    0.000    0.000    0.000    0.000 
#    0.000    0.000    0.000    0.000    0.000    0.000 
#
# Total GULP energy -179172.708152 kJ/mol
# GULP energy per Si atom -5599.147130 kJ/mol
# Density = 2.389566 g / cm^3
# Si number density = 23.950167 Si / 1000 Ang^3
#
#
#
# Elastic Constant Matrix: (Units=GPa)
#
#
# Indices 1 2 3 4 5 6 
#
# 1 32.8036 18.0303 8.3447 0.0000 0.0000 0.0000
# 2 18.0303 178.5469 65.9010 0.0000 0.0000 0.0000
# 3 8.3447 65.9010 150.2932 0.0000 0.0000 0.0000
# 4 0.0000 0.0000 0.0000 62.9550 0.0000 0.0000
# 5 0.0000 0.0000 0.0000 0.0000 15.4844 0.0000
# 6 0.0000 0.0000 0.0000 0.0000 0.0000 8.7917
#
#
#
# Elastic Compliance Matrix: (Units=1/GPa)
#
#
# Indices 1 2 3 4 5 6 
#
# 1 0.032300 -0.003102 -0.000433 0.000000 0.000000 0.000000
# 2 -0.003102 0.006980 -0.002888 0.000000 0.000000 0.000000
# 3 -0.000433 -0.002888 0.007944 0.000000 0.000000 0.000000
# 4 0.000000 0.000000 0.000000 0.015884 0.000000 0.000000
# 5 0.000000 0.000000 0.000000 0.000000 0.064581 0.000000
# 6 0.000000 0.000000 0.000000 0.000000 0.000000 0.113743
#
#
# Mechanical properties :
#
#
# Convention : Reuss Voigt Hill
#
# Bulk Modulus (GPa) = 29.08933 60.68840 44.88886
# Shear Modulus (GPa) = 18.81546 35.40406 27.10976
#
# Velocity S-wave (km/s) = 2.80591 3.84896 3.36806
# Velocity P-wave (km/s) = 4.76127 6.71916 5.82309
#
# Compressibility (1/GPa) = 0.03437687
#
# Stress axis : x y z
#
# Youngs Moduli (GPa) = 30.96020 143.26418 125.87725
#
# Poissons Ratio (x) = 0.44438 0.05454
# Poissons Ratio (y) = 0.09603 0.36359
# Poissons Ratio (z) = 0.01341 0.41381
#
# Static dielectric constant tensor:
#      x y z
#    x 1.984180 0.000000 0.000000 
#    y 0.000000 1.887160 0.000000 
#    z 0.000000 0.000000 1.900550 
# 
# From -- ./inp_files/11535.got.cif
#   From: 2010.05.17/outbox.cif.g08.bks.cpg/sg73_6_cif.got.tgz:11535.got - 2010.06.03 17:35:07.
