data_PCOD9533974
_publ_section_title
;
Structure prediction by ZEFSAII (Michael W. Deem and Ramdas Pophale) SiO2 
 PCOD9533974
Probable space group: I M M A
;
_chemical_formula_sum "Si O2"
_cell_formula_units_Z 80
_cell_length_a 18.744345
_cell_length_b 8.025950
_cell_length_c 27.547888
_cell_angle_alpha 90.000000
_cell_angle_beta 90.000000
_cell_angle_gamma 90.000000
_cell_volume 4144.336660
_symmetry_space_group_name_H-M "I M M A"
_symmetry_group_IT_number 74
_symmetry_cell_setting 'orthorhombic'
loop_
_space_group_symop_operation_xyz
x,y,z
-x,1/2-y,z
x,-y,-z
-x,1/2+y,-z
-x,-y,-z
x,1/2+y,-z
-x,y,z
x,1/2-y,z
1/2+x,1/2+y,1/2+z
1/2-x,-y,1/2+z
1/2+x,1/2-y,1/2-z
1/2-x,y,1/2-z
1/2-x,1/2-y,1/2-z
1/2+x,y,1/2-z
1/2-x,1/2+y,1/2+z
1/2+x,-y,1/2+z
loop_
_atom_site_type_symbol
_atom_site_label
_atom_site_fract_x
_atom_site_fract_y
_atom_site_fract_z
Si Si1 0.657084 0.548762 0.345902
Si Si2 0.830594 0.445496 0.050298
Si Si3 0.667831 0.558668 0.052488
Si Si4 0.677064 0.045535 0.842674
Si Si5 0.418579 0.953895 0.247665
O O1 0.655614 0.750000 0.347310
O O2 0.632644 0.485767 0.398659
O O3 0.739826 0.497170 0.338624
O O4 0.611748 0.492449 0.299788
O O5 0.815263 0.250000 0.047914
O O6 0.754226 0.540093 0.051582
O O7 0.867062 0.500000 0.000000
O O8 0.648141 0.750000 0.055050
O O9 0.648101 0.483634 0.104975
O O10 0.641640 0.500000 0.000000
O O11 0.676172 0.250000 0.843282
O O12 0.631305 0.991107 0.796708
O O13 0.500000 0.005962 0.240938
O O14 0.417010 0.750000 0.247687
#
# Coordination Sequence:
#
# PCOD9533974 Si02
#       5
#    16  16  16  16  16
#     4   9  16  27  44  66  91 116 143 178 219 260
#     4  10  17  26  42  65  92 117 143 177 216 259
#     4   9  15  24  40  63  91 118 144 178 219 259
#     4   8  14  24  40  63  89 116 144 177 218 259
#     4   9  16  26  43  66  88 112 147 188 222 254
#
# _framework density 19.303450999999999
#
# number of rings (size 3 to 8) (size 9 to 14) (size 15 to 20)
#    0.000    3.000    0.000    5.400    0.000    2.400 
#    0.000    0.000    0.000   12.600    0.000    0.000 
#    0.000    0.000    0.000    0.000    0.000    7.200 
#
# Total GULP energy -222737.163869 kJ/mol
# GULP energy per Si atom -5568.429097 kJ/mol
# Density = 1.925952 g / cm^3
# Si number density = 19.303451 Si / 1000 Ang^3
#
#
#
# Elastic Constant Matrix: (Units=GPa)
#
#
# Indices 1 2 3 4 5 6 
#
# 1 305.9172 -12.3517 496.0904 0.0000 0.0000 0.0000
# 2 -12.3517 12.5394 -20.0657 0.0000 0.0000 0.0000
# 3 496.0904 -20.0657 959.8377 0.0000 0.0000 0.0000
# 4 0.0000 0.0000 0.0000 23.2483 0.0000 0.0000
# 5 0.0000 0.0000 0.0000 0.0000 -3.5977 0.0000
# 6 0.0000 0.0000 0.0000 0.0000 0.0000 -2.2726
#
#
#
# Elastic Compliance Matrix: (Units=1/GPa)
#
#
# Indices 1 2 3 4 5 6 
#
# 1 0.020329 0.003322 -0.010438 0.000000 0.000000 0.000000
# 2 0.003322 0.083052 0.000019 0.000000 0.000000 0.000000
# 3 -0.010438 0.000019 0.006437 0.000000 0.000000 0.000000
# 4 0.000000 0.000000 0.000000 0.043014 0.000000 0.000000
# 5 0.000000 0.000000 0.000000 0.000000 -0.277955 0.000000
# 6 0.000000 0.000000 0.000000 0.000000 0.000000 -0.440019
#
#
# Mechanical properties :
#
#
# Convention : Reuss Voigt Hill
#
# Bulk Modulus (GPa) = 10.45747 245.07114 127.76430
# Shear Modulus (GPa) = -9.63254 57.78368 24.07557
#
# Velocity S-wave (km/s) = -2.23627 5.47717 3.53543
# Velocity P-wave (km/s) = 1.11296 12.93182 9.11025
#
# Compressibility (1/GPa) = 0.09562546
#
# Stress axis : x y z
#
# Youngs Moduli (GPa) = 49.19008 12.04069 155.35304
#
# Poissons Ratio (x) = -0.04000 1.62153
# Poissons Ratio (y) = -0.16343 -0.00296
# Poissons Ratio (z) = 0.51343 -0.00023
#
# Static dielectric constant tensor:
#      x y z
#    x 1.625560 0.000000 0.000000 
#    y 0.000000 1.701500 0.000000 
#    z 0.000000 0.000000 1.744620 
# 
# From -- ./inp_files/63981.got.cif
#   From: 2010.05.17/outbox.cif.g08.bks.cpg/sg74_32_cif.got.tgz:63981.got - 2010.06.03 17:57:02.
