data_PCOD9533788
_publ_section_title
;
Structure prediction by ZEFSAII (Michael W. Deem and Ramdas Pophale) SiO2 
 PCOD9533788
Probable space group: I B C A 
;
_chemical_formula_sum "Si O2"
_cell_formula_units_Z 48
_cell_length_a 21.000000
_cell_length_b 27.000000
_cell_length_c 9.000000
_cell_angle_alpha 90.000000
_cell_angle_beta 90.000000
_cell_angle_gamma 90.000000
_cell_volume 5103.000000
_symmetry_space_group_name_H-M "I B C A "
_symmetry_group_IT_number 73
_symmetry_cell_setting 'orthorhombic'
loop_
_space_group_symop_operation_xyz
x,y,z
-x,1/2-y,z
x,-y,1/2-z
1/2-x,y,-z
-x,-y,-z
x,1/2+y,-z
-x,y,1/2+z
1/2+x,-y,z
1/2+x,1/2+y,1/2+z
1/2-x,-y,1/2+z
1/2+x,1/2-y,-z
-x,1/2+y,1/2-z
1/2-x,1/2-y,1/2-z
1/2+x,y,1/2-z
1/2-x,1/2+y,z
x,1/2-y,1/2+z
loop_
_atom_site_type_symbol
_atom_site_label
_atom_site_fract_x
_atom_site_fract_y
_atom_site_fract_z
Si Si1 0.501577 0.375893 0.218164
Si Si2 0.193911 0.460756 0.615869
Si Si3 0.623667 0.809827 0.689048
Si Si4 0.956004 0.049658 0.536671
Si Si5 0.881733 0.700595 0.166464
Si Si6 0.758872 0.651725 0.325483
O O1 0.562663 0.345913 0.283204
O O2 0.476709 0.423439 0.311257
O O3 0.442788 0.336288 0.198326
O O4 0.527964 0.404810 0.074244
O O5 0.191838 0.500000 0.750000
O O6 0.250000 0.475677 0.500000
O O7 0.121299 0.459395 0.546737
O O8 0.217949 0.406168 0.671810
O O9 0.610566 0.757166 0.773109
O O10 0.628020 0.799868 0.511948
O O11 0.690585 0.834708 0.747582
O O12 0.000000 0.000000 0.500000
O O13 0.817627 0.680261 0.247233
O O14 0.750000 0.665451 0.500000
#
# Coordination Sequence:
#
# PCOD9533788 Si02
#       6
#    16  16  16  16  16  16
#     4  12  25  46  71 104 144 187 237 295 363 425
#     4  11  25  45  72 105 144 190 241 297 352 426
#     4  12  27  43  73 103 141 193 236 300 360 430
#     4  12  26  47  74 105 145 190 238 297 360 428
#     4  12  26  45  70 104 143 189 246 295 360 431
#     4  11  24  46  71 100 146 187 240 298 358 426
#
# _framework density 9.4062319999999993
#
# number of rings (size 3 to 8) (size 9 to 14) (size 15 to 20)
#    0.000    0.333    3.333    6.000    2.333    5.333 
#    0.000    0.000    0.000    0.000    0.000    0.000 
#    0.000    0.000    0.000    0.000    0.000    0.000 
#
# Total GULP energy -267956.863784 kJ/mol
# GULP energy per Si atom -5582.434662 kJ/mol
# Density = 0.938482 g / cm^3
# Si number density = 9.406232 Si / 1000 Ang^3
#
#
#
# Elastic Constant Matrix: (Units=GPa)
#
#
# Indices 1 2 3 4 5 6 
#
# 1 204.9543 60.2286 51.4086 0.0000 0.0000 0.0000
# 2 60.2286 118.0453 28.0927 0.0000 0.0000 0.0000
# 3 51.4086 28.0927 118.9779 0.0000 0.0000 0.0000
# 4 0.0000 0.0000 0.0000 47.9472 0.0000 0.0000
# 5 0.0000 0.0000 0.0000 0.0000 39.3453 0.0000
# 6 0.0000 0.0000 0.0000 0.0000 0.0000 48.3961
#
#
#
# Elastic Compliance Matrix: (Units=1/GPa)
#
#
# Indices 1 2 3 4 5 6 
#
# 1 0.006173 -0.002665 -0.002038 0.000000 0.000000 0.000000
# 2 -0.002665 0.010126 -0.001240 0.000000 0.000000 0.000000
# 3 -0.002038 -0.001240 0.009578 0.000000 0.000000 0.000000
# 4 0.000000 0.000000 0.000000 0.020856 0.000000 0.000000
# 5 0.000000 0.000000 0.000000 0.000000 0.025416 0.000000
# 6 0.000000 0.000000 0.000000 0.000000 0.000000 0.020663
#
#
# Mechanical properties :
#
#
# Convention : Reuss Voigt Hill
#
# Bulk Modulus (GPa) = 71.46612 80.15969 75.81291
# Shear Modulus (GPa) = 45.71973 47.28756 46.50364
#
# Velocity S-wave (km/s) = 4.93514 5.01905 4.97727
# Velocity P-wave (km/s) = 8.39913 8.73443 8.56842
#
# Compressibility (1/GPa) = 0.01399264
#
# Stress axis : x y z
#
# Youngs Moduli (GPa) = 161.98369 98.75674 104.40264
#
# Poissons Ratio (x) = 0.26316 0.21280
# Poissons Ratio (y) = 0.43164 0.12941
# Poissons Ratio (z) = 0.33017 0.12241
#
# Static dielectric constant tensor:
#      x y z
#    x 1.639940 0.000000 0.000000 
#    y 0.000000 1.644490 0.000000 
#    z 0.000000 0.000000 1.716190 
# 
# From -- ./inp_files/6417.got.cif
#   From: 2010.05.17/outbox.ucp.g08.bks.cvg/sg73_4_cif.got.tgz:6417.got - 2010.06.11 16:36:03.
