data_PCOD9533140
_publ_section_title
;
Structure prediction by ZEFSAII (Michael W. Deem and Ramdas Pophale) SiO2 
 PCOD9533140
Probable space group: I B C A 
;
_chemical_formula_sum "Si O2"
_cell_formula_units_Z 64
_cell_length_a 9.856460
_cell_length_b 17.763154
_cell_length_c 13.640046
_cell_angle_alpha 90.000000
_cell_angle_beta 90.000000
_cell_angle_gamma 90.000000
_cell_volume 2388.124036
_symmetry_space_group_name_H-M "I B C A "
_symmetry_group_IT_number 73
_symmetry_cell_setting 'orthorhombic'
loop_
_space_group_symop_operation_xyz
x,y,z
-x,1/2-y,z
x,-y,1/2-z
1/2-x,y,-z
-x,-y,-z
x,1/2+y,-z
-x,y,1/2+z
1/2+x,-y,z
1/2+x,1/2+y,1/2+z
1/2-x,-y,1/2+z
1/2+x,1/2-y,-z
-x,1/2+y,1/2-z
1/2-x,1/2-y,1/2-z
1/2+x,y,1/2-z
1/2-x,1/2+y,z
x,1/2-y,1/2+z
loop_
_atom_site_type_symbol
_atom_site_label
_atom_site_fract_x
_atom_site_fract_y
_atom_site_fract_z
Si Si1 0.479374 0.500000 0.750000
Si Si2 0.500000 0.250000 0.142782
Si Si3 0.466996 0.872502 0.627417
Si Si4 0.110642 0.589632 0.062929
Si Si5 0.218173 0.725588 0.384202
O O1 0.569741 0.566634 0.707082
O O2 0.399026 0.537889 0.841270
O O3 0.568667 0.324105 0.092876
O O4 0.356087 0.282145 0.178120
O O5 0.250000 0.919754 0.500000
O O6 0.494726 0.917723 0.526793
O O7 0.358595 0.805982 0.614313
O O8 0.106703 0.667856 0.344622
O O9 0.250000 0.708629 0.500000
#
# Coordination Sequence:
#
# PCOD9533140 Si02
#       5
#     8   8  16  16  16
#     4  12  32  50  74 126 168 224 260 318 428 512
#     4  12  20  46  86 118 148 212 278 342 400 462
#     4  11  23  49  81 116 161 210 270 337 405 477
#     4  12  25  52  83 116 163 214 270 341 400 482
#     4  11  19  43  86 115 149 209 278 339 396 458
#
# _framework density 26.799275999999999
#
# number of rings (size 3 to 8) (size 9 to 14) (size 15 to 20)
#    0.000    0.500    7.500    0.750    0.000    4.000 
#    9.000    2.500    0.000    0.000    0.000    0.000 
#    0.000    0.000    0.000    0.000    0.000    0.000 
#
# Total GULP energy -178543.519232 kJ/mol
# GULP energy per Si atom -5579.484976 kJ/mol
# Density = 2.673828 g / cm^3
# Si number density = 26.799276 Si / 1000 Ang^3
#
#
#
# Elastic Constant Matrix: (Units=GPa)
#
#
# Indices 1 2 3 4 5 6 
#
# 1 187.8779 28.6939 8.5675 0.0000 0.0000 0.0000
# 2 28.6939 145.2024 59.6967 0.0000 0.0000 0.0000
# 3 8.5675 59.6967 142.4338 0.0001 0.0000 0.0000
# 4 0.0000 0.0000 0.0001 63.9092 0.0000 0.0000
# 5 0.0000 0.0000 0.0000 0.0000 13.3697 0.0000
# 6 0.0000 0.0000 0.0000 0.0000 0.0000 5.1526
#
#
#
# Elastic Compliance Matrix: (Units=1/GPa)
#
#
# Indices 1 2 3 4 5 6 
#
# 1 0.005491 -0.001147 0.000150 0.000000 0.000000 0.000000
# 2 -0.001147 0.008560 -0.003519 0.000000 0.000000 0.000000
# 3 0.000150 -0.003519 0.008487 0.000000 0.000000 0.000000
# 4 0.000000 0.000000 0.000000 0.015647 0.000000 0.000000
# 5 0.000000 0.000000 0.000000 0.000000 0.074796 0.000000
# 6 0.000000 0.000000 0.000000 0.000000 0.000000 0.194078
#
#
# Mechanical properties :
#
#
# Convention : Reuss Voigt Hill
#
# Bulk Modulus (GPa) = 74.03490 74.38117 74.20803
# Shear Modulus (GPa) = 15.59613 41.72335 28.65974
#
# Velocity S-wave (km/s) = 2.41500 3.95002 3.27375
# Velocity P-wave (km/s) = 5.95500 6.97271 6.48385
#
# Compressibility (1/GPa) = 0.01350714
#
# Stress axis : x y z
#
# Youngs Moduli (GPa) = 182.11913 116.81904 117.83365
#
# Poissons Ratio (x) = 0.13398 -0.01772
# Poissons Ratio (y) = 0.20888 0.41463
# Poissons Ratio (z) = -0.02739 0.41106
#
# Static dielectric constant tensor:
#      x y z
#    x 2.134580 0.000000 0.000000 
#    y 0.000000 2.131240 0.000000 
#    z 0.000000 0.000000 2.275150 
# 
# From -- ./inp_files/16702.got.cif
#   From: 2010.05.17/outbox.cif.g08.bks.cpg/sg73_9_cif.got.tgz:16702.got - 2010.06.03 17:35:07.
