data_PCOD9533352
_publ_section_title
;
Structure prediction by ZEFSAII (Michael W. Deem and Ramdas Pophale) SiO2 
 PCOD9533352
Probable space group: I B C A 
;
_chemical_formula_sum "Si O2"
_cell_formula_units_Z 48
_cell_length_a 15.351530
_cell_length_b 8.071276
_cell_length_c 15.530979
_cell_angle_alpha 90.000000
_cell_angle_beta 90.000000
_cell_angle_gamma 90.000000
_cell_volume 1924.388250
_symmetry_space_group_name_H-M "I B C A "
_symmetry_group_IT_number 73
_symmetry_cell_setting 'orthorhombic'
loop_
_space_group_symop_operation_xyz
x,y,z
-x,1/2-y,z
x,-y,1/2-z
1/2-x,y,-z
-x,-y,-z
x,1/2+y,-z
-x,y,1/2+z
1/2+x,-y,z
1/2+x,1/2+y,1/2+z
1/2-x,-y,1/2+z
1/2+x,1/2-y,-z
-x,1/2+y,1/2-z
1/2-x,1/2-y,1/2-z
1/2+x,y,1/2-z
1/2-x,1/2+y,z
x,1/2-y,1/2+z
loop_
_atom_site_type_symbol
_atom_site_label
_atom_site_fract_x
_atom_site_fract_y
_atom_site_fract_z
Si Si1 0.705943 0.902859 0.407789
Si Si2 0.954845 0.431310 0.153707
Si Si3 0.875488 0.065149 0.343580
O O1 0.750000 0.869429 0.500000
O O2 0.658273 0.746426 0.365785
O O3 0.633536 0.048911 0.401954
O O4 0.791425 0.953079 0.356973
O O5 0.929471 0.500000 0.250000
O O6 0.000000 0.250000 0.159128
O O7 0.032163 0.538497 0.109952
O O8 0.902754 0.000000 0.250000
#
# Coordination Sequence:
#
# PCOD9533352 Si02
#       3
#    16  16  16
#     4  12  25  43  68 106 151 190 235 297 367 433
#     4  11  23  44  75 107 141 187 245 301 356 427
#     4  11  23  43  71 102 139 190 247 297 352 426
#
# _framework density 24.942990000000002
#
# number of rings (size 3 to 8) (size 9 to 14) (size 15 to 20)
#    0.000    0.667    0.000   10.000    0.000    1.333 
#    0.000    5.000    0.000    0.000    0.000    0.000 
#    0.000    0.000    0.000    0.000    0.000    0.000 
#
# Total GULP energy -133942.624685 kJ/mol
# GULP energy per Si atom -5580.942695 kJ/mol
# Density = 2.488622 g / cm^3
# Si number density = 24.942990 Si / 1000 Ang^3
#
#
#
# Elastic Constant Matrix: (Units=GPa)
#
#
# Indices 1 2 3 4 5 6 
#
# 1 188.3944 26.4733 36.8041 0.0000 0.0000 0.0000
# 2 26.4733 114.6485 41.1565 0.0000 0.0000 0.0000
# 3 36.8041 41.1565 60.2839 0.0000 0.0000 0.0000
# 4 0.0000 0.0000 0.0000 -1.0343 0.0000 0.0000
# 5 0.0000 0.0000 0.0000 0.0000 212.1469 0.0000
# 6 0.0000 0.0000 0.0000 0.0000 0.0000 50.1797
#
#
#
# Elastic Compliance Matrix: (Units=1/GPa)
#
#
# Indices 1 2 3 4 5 6 
#
# 1 0.006028 -0.000094 -0.003616 0.000000 0.000000 0.000000
# 2 -0.000094 0.011555 -0.007832 0.000000 0.000000 0.000000
# 3 -0.003616 -0.007832 0.024143 0.000000 0.000000 0.000000
# 4 0.000000 0.000000 0.000000 -0.966795 0.000000 0.000000
# 5 0.000000 0.000000 0.000000 0.000000 0.004714 0.000000
# 6 0.000000 0.000000 0.000000 0.000000 0.000000 0.019928
#
#
# Mechanical properties :
#
#
# Convention : Reuss Voigt Hill
#
# Bulk Modulus (GPa) = 53.64031 63.57717 58.60874
# Shear Modulus (GPa) = -5.73967 69.51795 31.88914
#
# Velocity S-wave (km/s) = -1.51859 5.28500 3.57946
# Velocity P-wave (km/s) = 4.29849 7.92376 6.37429
#
# Compressibility (1/GPa) = 0.01864270
#
# Stress axis : x y z
#
# Youngs Moduli (GPa) = 165.90404 86.53952 41.42062
#
# Poissons Ratio (x) = 0.00812 0.14977
# Poissons Ratio (y) = 0.01556 0.32440
# Poissons Ratio (z) = 0.59989 0.67776
#
# Static dielectric constant tensor:
#      x y z
#    x 2.008320 0.000000 0.000000 
#    y 0.000000 2.060330 0.000000 
#    z 0.000000 0.000000 2.408450 
# 
# From -- ./inp_files/4286.got.cif
#   From: 2010.05.17/outbox.cif.g08.bks.cpg/sg73_3_cif.got.tgz:4286.got - 2010.06.03 17:35:07.
