data_PCOD9533098
_publ_section_title
;
Structure prediction by ZEFSAII (Michael W. Deem and Ramdas Pophale) SiO2 
 PCOD9533098
Probable space group: I B C A 
;
_chemical_formula_sum "Si O2"
_cell_formula_units_Z 80
_cell_length_a 20.554643
_cell_length_b 10.739995
_cell_length_c 15.227138
_cell_angle_alpha 90.000000
_cell_angle_beta 90.000000
_cell_angle_gamma 90.000000
_cell_volume 3361.493695
_symmetry_space_group_name_H-M "I B C A "
_symmetry_group_IT_number 73
_symmetry_cell_setting 'orthorhombic'
loop_
_space_group_symop_operation_xyz
x,y,z
-x,1/2-y,z
x,-y,1/2-z
1/2-x,y,-z
-x,-y,-z
x,1/2+y,-z
-x,y,1/2+z
1/2+x,-y,z
1/2+x,1/2+y,1/2+z
1/2-x,-y,1/2+z
1/2+x,1/2-y,-z
-x,1/2+y,1/2-z
1/2-x,1/2-y,1/2-z
1/2+x,y,1/2-z
1/2-x,1/2+y,z
x,1/2-y,1/2+z
loop_
_atom_site_type_symbol
_atom_site_label
_atom_site_fract_x
_atom_site_fract_y
_atom_site_fract_z
Si Si1 0.775255 0.720797 0.154660
Si Si2 0.590115 0.860293 0.858773
Si Si3 0.067836 0.629064 0.943193
Si Si4 0.937447 0.377611 0.659521
Si Si5 0.792018 0.959587 0.918055
O O1 0.750000 0.750000 0.250000
O O2 0.848510 0.770140 0.140411
O O3 0.731306 0.817780 0.098969
O O4 0.776514 0.571827 0.147572
O O5 0.555345 0.847668 0.763277
O O6 0.610131 0.006238 0.853460
O O7 0.555331 0.847545 0.953360
O O8 0.084205 0.758230 0.894410
O O9 0.130908 0.543534 0.935217
O O10 0.005492 0.583768 0.887423
O O11 0.750000 0.002553 0.000000
#
# Coordination Sequence:
#
# PCOD9533098 Si02
#       5
#    16  16  16  16  16
#     4  12  28  47  75 111 152 199 255 318 390 453
#     4  11  25  47  77 102 155 203 247 318 378 459
#     4  11  25  48  76 112 152 201 258 317 378 469
#     4  10  26  48  74 110 151 198 261 305 390 451
#     4  12  27  47  77 112 149 195 258 314 383 463
#
# _framework density 23.798943000000001
#
# number of rings (size 3 to 8) (size 9 to 14) (size 15 to 20)
#    0.000    0.800    2.000    3.000   11.200    3.200 
#   21.600    0.000    0.000    0.000    0.000    0.000 
#    0.000    0.000    0.000    0.000    0.000    0.000 
#
# Total GULP energy -223292.256277 kJ/mol
# GULP energy per Si atom -5582.306407 kJ/mol
# Density = 2.374478 g / cm^3
# Si number density = 23.798943 Si / 1000 Ang^3
#
#
#
# Elastic Constant Matrix: (Units=GPa)
#
#
# Indices 1 2 3 4 5 6 
#
# 1 120.3304 13.3799 36.8543 0.0000 0.0000 0.0000
# 2 13.3799 110.2648 20.9927 0.0000 0.0000 0.0000
# 3 36.8543 20.9927 194.3489 0.0000 0.0000 0.0000
# 4 0.0000 0.0000 0.0000 40.1927 0.0000 0.0000
# 5 0.0000 0.0000 0.0000 0.0000 29.4742 0.0000
# 6 0.0000 0.0000 0.0000 0.0000 0.0000 15.3161
#
#
#
# Elastic Compliance Matrix: (Units=1/GPa)
#
#
# Indices 1 2 3 4 5 6 
#
# 1 0.008887 -0.000773 -0.001602 0.000000 0.000000 0.000000
# 2 -0.000773 0.009327 -0.000861 0.000000 0.000000 0.000000
# 3 -0.001602 -0.000861 0.005542 0.000000 0.000000 0.000000
# 4 0.000000 0.000000 0.000000 0.024880 0.000000 0.000000
# 5 0.000000 0.000000 0.000000 0.000000 0.033928 0.000000
# 6 0.000000 0.000000 0.000000 0.000000 0.000000 0.065291
#
#
# Mechanical properties :
#
#
# Convention : Reuss Voigt Hill
#
# Bulk Modulus (GPa) = 57.85667 63.04421 60.45044
# Shear Modulus (GPa) = 31.23281 40.57773 35.90527
#
# Velocity S-wave (km/s) = 3.62658 4.13367 3.88840
# Velocity P-wave (km/s) = 6.47298 7.02359 6.75390
#
# Compressibility (1/GPa) = 0.01728409
#
# Stress axis : x y z
#
# Youngs Moduli (GPa) = 112.52369 107.21782 180.43725
#
# Poissons Ratio (x) = 0.08293 0.28901
# Poissons Ratio (y) = 0.08703 0.15532
# Poissons Ratio (z) = 0.18023 0.09229
#
# Static dielectric constant tensor:
#      x y z
#    x 2.084120 0.000000 0.000000 
#    y 0.000000 1.925780 0.000000 
#    z 0.000000 0.000000 1.097160 
# 
# From -- ./inp_files/19172.got.cif
#   From: 2010.05.17/outbox.cif.g08.bks.cpg/sg73_10_cif.got.tgz:19172.got - 2010.06.03 17:35:07.
