data_PCOD9533221
_publ_section_title
;
Structure prediction by ZEFSAII (Michael W. Deem and Ramdas Pophale) SiO2 
 PCOD9533221
Probable space group: I B C A 
;
_chemical_formula_sum "Si O2"
_cell_formula_units_Z 72
_cell_length_a 14.618637
_cell_length_b 13.659263
_cell_length_c 18.616698
_cell_angle_alpha 90.000000
_cell_angle_beta 90.000000
_cell_angle_gamma 90.000000
_cell_volume 3717.378673
_symmetry_space_group_name_H-M "I B C A "
_symmetry_group_IT_number 73
_symmetry_cell_setting 'orthorhombic'
loop_
_space_group_symop_operation_xyz
x,y,z
-x,1/2-y,z
x,-y,1/2-z
1/2-x,y,-z
-x,-y,-z
x,1/2+y,-z
-x,y,1/2+z
1/2+x,-y,z
1/2+x,1/2+y,1/2+z
1/2-x,-y,1/2+z
1/2+x,1/2-y,-z
-x,1/2+y,1/2-z
1/2-x,1/2-y,1/2-z
1/2+x,y,1/2-z
1/2-x,1/2+y,z
x,1/2-y,1/2+z
loop_
_atom_site_type_symbol
_atom_site_label
_atom_site_fract_x
_atom_site_fract_y
_atom_site_fract_z
Si Si1 0.249830 0.854214 0.159535
Si Si2 0.500000 0.250000 0.750676
Si Si3 0.901211 0.724077 0.392260
Si Si4 0.654830 0.351427 0.189730
Si Si5 0.723938 0.959683 0.080941
O O1 0.332659 0.816239 0.108250
O O2 0.189723 0.757755 0.170933
O O3 0.294542 0.881429 0.236295
O O4 0.196578 0.943002 0.123678
O O5 0.424873 0.209023 0.807184
O O6 0.451766 0.335353 0.706065
O O7 0.850168 0.627734 0.418778
O O8 0.000000 0.750000 0.425386
O O9 0.688405 0.419725 0.125821
O O10 0.750000 0.982663 0.000000
#
# Coordination Sequence:
#
# PCOD9533221 Si02
#       5
#    16   8  16  16  16
#     4   9  18  35  60  83 111 152 203 242 290 348
#     4   8  16  36  60  86 108 142 202 252 288 330
#     4   8  18  39  60  81 118 154 193 252 294 338
#     4   9  18  36  59  82 112 153 194 247 297 342
#     4  11  22  36  56  90 122 161 194 231 304 363
#
# _framework density 19.368486999999998
#
# number of rings (size 3 to 8) (size 9 to 14) (size 15 to 20)
#    0.667    2.222    0.000    2.000    0.000    3.556 
#    6.000    3.333    0.000    0.000    0.000    0.000 
#    0.000    0.000    0.000    0.000    0.000    0.000 
#
# Total GULP energy -200418.669322 kJ/mol
# GULP energy per Si atom -5567.185259 kJ/mol
# Density = 1.932440 g / cm^3
# Si number density = 19.368487 Si / 1000 Ang^3
#
#
#
# Elastic Constant Matrix: (Units=GPa)
#
#
# Indices 1 2 3 4 5 6 
#
# 1 33.7453 -0.9561 -6.4979 0.0000 0.0000 0.0000
# 2 -0.9561 74.8971 29.2556 0.0000 0.0000 0.0000
# 3 -6.4979 29.2556 69.2826 0.0000 0.0000 0.0000
# 4 0.0000 0.0000 0.0000 -22.6180 0.0000 0.0000
# 5 0.0000 0.0000 0.0000 0.0000 12.7577 0.0000
# 6 0.0000 0.0000 0.0000 0.0000 0.0000 8.2363
#
#
#
# Elastic Compliance Matrix: (Units=1/GPa)
#
#
# Indices 1 2 3 4 5 6 
#
# 1 0.030225 -0.000864 0.003200 0.000000 0.000000 0.000000
# 2 -0.000864 0.016014 -0.006843 0.000000 0.000000 0.000000
# 3 0.003200 -0.006843 0.017623 0.000000 0.000000 0.000000
# 4 0.000000 0.000000 0.000000 -0.044213 0.000000 0.000000
# 5 0.000000 0.000000 0.000000 0.000000 0.078384 0.000000
# 6 0.000000 0.000000 0.000000 0.000000 0.000000 0.121414
#
#
# Mechanical properties :
#
#
# Convention : Reuss Voigt Hill
#
# Bulk Modulus (GPa) = 18.23234 24.61422 21.42328
# Shear Modulus (GPa) = 20.26383 10.08342 15.17363
#
# Velocity S-wave (km/s) = 3.23805 2.28416 2.80200
# Velocity P-wave (km/s) = 4.83878 4.43762 4.64254
#
# Compressibility (1/GPa) = 0.05484759
#
# Stress axis : x y z
#
# Youngs Moduli (GPa) = 33.08478 62.44703 56.74309
#
# Poissons Ratio (x) = 0.05395 -0.18156
# Poissons Ratio (y) = 0.02858 0.38829
# Poissons Ratio (z) = -0.10586 0.42732
#
# Static dielectric constant tensor:
#      x y z
#    x 1.735170 0.000000 0.000000 
#    y 0.000000 1.685980 0.000000 
#    z 0.000000 0.000000 1.669890 
# 
# From -- ./inp_files/26374.got.cif
#   From: 2010.05.17/outbox.cif.g08.bks.cpg/sg73_14_cif.got.tgz:26374.got - 2010.06.03 17:35:07.
