data_PCOD9533393
_publ_section_title
;
Structure prediction by ZEFSAII (Michael W. Deem and Ramdas Pophale) SiO2 
 PCOD9533393
Probable space group: I B C A 
;
_chemical_formula_sum "Si O2"
_cell_formula_units_Z 64
_cell_length_a 22.167307
_cell_length_b 12.124785
_cell_length_c 10.625682
_cell_angle_alpha 90.000000
_cell_angle_beta 90.000000
_cell_angle_gamma 90.000000
_cell_volume 2855.905262
_symmetry_space_group_name_H-M "I B C A "
_symmetry_group_IT_number 73
_symmetry_cell_setting 'orthorhombic'
loop_
_space_group_symop_operation_xyz
x,y,z
-x,1/2-y,z
x,-y,1/2-z
1/2-x,y,-z
-x,-y,-z
x,1/2+y,-z
-x,y,1/2+z
1/2+x,-y,z
1/2+x,1/2+y,1/2+z
1/2-x,-y,1/2+z
1/2+x,1/2-y,-z
-x,1/2+y,1/2-z
1/2-x,1/2-y,1/2-z
1/2+x,y,1/2-z
1/2-x,1/2+y,z
x,1/2-y,1/2+z
loop_
_atom_site_type_symbol
_atom_site_label
_atom_site_fract_x
_atom_site_fract_y
_atom_site_fract_z
Si Si1 0.026188 0.897552 0.843556
Si Si2 0.320961 0.171832 0.979690
Si Si3 0.384274 0.770606 0.772190
Si Si4 0.092861 0.511823 0.579251
O O1 0.055675 0.795796 0.768403
O O2 0.958637 0.916624 0.899885
O O3 0.032420 0.000000 0.750000
O O4 0.067761 0.916988 0.963872
O O5 0.354309 0.216821 0.104384
O O6 0.250000 0.177760 0.000000
O O7 0.340953 0.231279 0.849746
O O8 0.345763 0.048212 0.957759
O O9 0.397716 0.896890 0.813019
#
# Coordination Sequence:
#
# PCOD9533393 Si02
#       4
#    16  16  16  16
#     4  11  23  47  76 107 152 195 242 313 386 450
#     4  12  27  49  75 109 153 205 258 312 368 453
#     4  12  25  51  76 113 151 200 255 309 387 450
#     4  11  26  48  74 112 148 199 249 308 386 452
#
# _framework density 22.409706
#
# number of rings (size 3 to 8) (size 9 to 14) (size 15 to 20)
#    0.000    0.500    5.000    3.000    0.000    5.000 
#    9.000    0.000    0.000    0.000    0.000    0.000 
#    0.000    0.000    0.000    0.000    0.000    0.000 
#
# Total GULP energy -178810.808772 kJ/mol
# GULP energy per Si atom -5587.837774 kJ/mol
# Density = 2.235870 g / cm^3
# Si number density = 22.409706 Si / 1000 Ang^3
#
#
#
# Elastic Constant Matrix: (Units=GPa)
#
#
# Indices 1 2 3 4 5 6 
#
# 1 137.1624 51.8549 62.3288 0.0000 0.0000 0.0000
# 2 51.8549 117.3213 24.3721 0.0000 0.0000 0.0000
# 3 62.3288 24.3721 161.3014 0.0000 0.0000 0.0000
# 4 0.0000 0.0000 0.0000 52.1269 0.0000 0.0000
# 5 0.0000 0.0000 0.0000 0.0000 26.3211 0.0000
# 6 0.0000 0.0000 0.0000 0.0000 0.0000 75.1237
#
#
#
# Elastic Compliance Matrix: (Units=1/GPa)
#
#
# Indices 1 2 3 4 5 6 
#
# 1 0.010285 -0.003841 -0.003394 0.000000 0.000000 0.000000
# 2 -0.003841 0.010234 -0.000062 0.000000 0.000000 0.000000
# 3 -0.003394 -0.000062 0.007520 0.000000 0.000000 0.000000
# 4 0.000000 0.000000 0.000000 0.019184 0.000000 0.000000
# 5 0.000000 0.000000 0.000000 0.000000 0.037992 0.000000
# 6 0.000000 0.000000 0.000000 0.000000 0.000000 0.013311
#
#
# Mechanical properties :
#
#
# Convention : Reuss Voigt Hill
#
# Bulk Modulus (GPa) = 74.37342 76.98852 75.68097
# Shear Modulus (GPa) = 42.51607 49.19631 45.85619
#
# Velocity S-wave (km/s) = 4.36043 4.69050 4.52847
# Velocity P-wave (km/s) = 7.65580 7.98523 7.82225
#
# Compressibility (1/GPa) = 0.01344566
#
# Stress axis : x y z
#
# Youngs Moduli (GPa) = 97.23014 97.71246 132.97155
#
# Poissons Ratio (x) = 0.37529 0.45129
# Poissons Ratio (y) = 0.37344 0.00827
# Poissons Ratio (z) = 0.32999 0.00608
#
# Static dielectric constant tensor:
#      x y z
#    x 1.793300 0.000000 0.000000 
#    y 0.000000 1.865290 0.000000 
#    z 0.000000 0.000000 1.945820 
# 
# From -- ./inp_files/12606.got.cif
#   From: 2010.05.17/outbox.cif.g08.bks.cpg/sg73_7_cif.got.tgz:12606.got - 2010.06.03 17:35:07.
