data_PCOD9533771
_publ_section_title
;
Structure prediction by ZEFSAII (Michael W. Deem and Ramdas Pophale) SiO2 
 PCOD9533771
Probable space group: I B C A 
;
_chemical_formula_sum "Si O2"
_cell_formula_units_Z 56
_cell_length_a 15.000000
_cell_length_b 12.000000
_cell_length_c 30.000000
_cell_angle_alpha 90.000000
_cell_angle_beta 90.000000
_cell_angle_gamma 90.000000
_cell_volume 5400.000000
_symmetry_space_group_name_H-M "I B C A "
_symmetry_group_IT_number 73
_symmetry_cell_setting 'orthorhombic'
loop_
_space_group_symop_operation_xyz
x,y,z
-x,1/2-y,z
x,-y,1/2-z
1/2-x,y,-z
-x,-y,-z
x,1/2+y,-z
-x,y,1/2+z
1/2+x,-y,z
1/2+x,1/2+y,1/2+z
1/2-x,-y,1/2+z
1/2+x,1/2-y,-z
-x,1/2+y,1/2-z
1/2-x,1/2-y,1/2-z
1/2+x,y,1/2-z
1/2-x,1/2+y,z
x,1/2-y,1/2+z
loop_
_atom_site_type_symbol
_atom_site_label
_atom_site_fract_x
_atom_site_fract_y
_atom_site_fract_z
Si Si1 0.241089 0.040697 0.947676
Si Si2 0.753232 0.500000 0.250000
Si Si3 0.414415 0.457767 0.900059
Si Si4 0.104521 0.870308 0.187763
Si Si5 0.653394 0.750378 0.479018
Si Si6 0.593888 0.945465 0.414298
Si Si7 0.900609 0.604332 0.689437
Si Si8 0.500000 0.250000 0.946515
O O1 0.178799 0.148943 0.946207
O O2 0.181953 0.950708 0.922491
O O3 0.337957 0.045152 0.926026
O O4 0.250000 0.019793 0.000000
O O5 0.818736 0.576001 0.218990
O O6 0.682835 0.570253 0.279762
O O7 0.490075 0.534757 0.922645
O O8 0.400766 0.515988 0.851884
O O9 0.461269 0.341278 0.912007
O O10 0.106969 0.919215 0.137663
O O11 0.112573 0.736662 0.180717
O O12 0.004345 0.898125 0.206315
O O13 0.750000 0.774781 0.500000
O O14 0.621159 0.849779 0.448316
O O15 0.581026 0.725554 0.517860
#
# Coordination Sequence:
#
# PCOD9533771 Si02
#       8
#    16   8  16  16  16  16  16   8
#     4  11  22  36  55  84 120 162 210 261 310 367
#     4  12  22  42  72 102 128 164 212 266 332 408
#     4  11  23  41  61  86 123 165 213 267 323 384
#     4  10  23  42  67  98 130 167 213 265 329 406
#     4  11  23  36  56  86 122 165 216 267 315 376
#     4  11  22  39  61  85 120 165 209 258 320 384
#     4  10  23  44  67  95 131 168 209 266 336 405
#     4  12  24  38  60  92 124 170 226 268 316 378
#
# _framework density 10.370369999999999
#
# number of rings (size 3 to 8) (size 9 to 14) (size 15 to 20)
#    0.000    1.143    0.000    7.286    0.000    4.000 
#    0.000   10.000    0.000    0.000    0.000    0.000 
#    0.000    0.000    0.000    0.000    0.000    0.000 
#
# Total GULP energy -312043.716670 kJ/mol
# GULP energy per Si atom -5572.209226 kJ/mol
# Density = 1.034677 g / cm^3
# Si number density = 10.370370 Si / 1000 Ang^3
#
#
#
# Elastic Constant Matrix: (Units=GPa)
#
#
# Indices 1 2 3 4 5 6 
#
# 1 136.9898 17.7965 42.9641 0.0000 0.0000 0.0000
# 2 17.7965 71.1602 29.6660 0.0000 0.0000 0.0000
# 3 42.9641 29.6660 66.6213 0.0000 0.0000 0.0000
# 4 0.0000 0.0000 0.0000 20.9207 0.0000 0.0000
# 5 0.0000 0.0000 0.0000 0.0000 45.7221 0.0000
# 6 0.0000 0.0000 0.0000 0.0000 0.0000 28.8786
#
#
#
# Elastic Compliance Matrix: (Units=1/GPa)
#
#
# Indices 1 2 3 4 5 6 
#
# 1 0.009153 0.000211 -0.005997 0.000000 0.000000 0.000000
# 2 0.000211 0.017261 -0.007822 0.000000 0.000000 0.000000
# 3 -0.005997 -0.007822 0.022361 0.000000 0.000000 0.000000
# 4 0.000000 0.000000 0.000000 0.047800 0.000000 0.000000
# 5 0.000000 0.000000 0.000000 0.000000 0.021871 0.000000
# 6 0.000000 0.000000 0.000000 0.000000 0.000000 0.034628
#
#
# Mechanical properties :
#
#
# Convention : Reuss Voigt Hill
#
# Bulk Modulus (GPa) = 46.38499 50.62495 48.50497
# Shear Modulus (GPa) = 26.67005 31.39391 29.03198
#
# Velocity S-wave (km/s) = 3.58980 3.89477 3.74539
# Velocity P-wave (km/s) = 6.29246 6.68484 6.49161
#
# Compressibility (1/GPa) = 0.02155870
#
# Stress axis : x y z
#
# Youngs Moduli (GPa) = 109.25137 57.93376 44.72116
#
# Poissons Ratio (x) = -0.01222 0.26818
# Poissons Ratio (y) = -0.02304 0.34982
# Poissons Ratio (z) = 0.65516 0.45317
#
# Static dielectric constant tensor:
#      x y z
#    x 1.761190 0.000000 0.000000 
#    y 0.000000 1.873150 0.000000 
#    z 0.000000 0.000000 1.713960 
# 
# From -- ./inp_files/34338.got.cif
#   From: 2010.05.17/outbox.ucp.g08.bks.cvg/sg73_18_cif.got.tgz:34338.got - 2010.06.11 16:36:03.
