data_PCOD9533866
_publ_section_title
;
Structure prediction by ZEFSAII (Michael W. Deem and Ramdas Pophale) SiO2 
 PCOD9533866
Probable space group: I M M A
;
_chemical_formula_sum "Si O2"
_cell_formula_units_Z 80
_cell_length_a 7.590394
_cell_length_b 20.125911
_cell_length_c 34.332295
_cell_angle_alpha 90.000000
_cell_angle_beta 90.000000
_cell_angle_gamma 90.000000
_cell_volume 5244.724778
_symmetry_space_group_name_H-M "I M M A"
_symmetry_group_IT_number 74
_symmetry_cell_setting 'orthorhombic'
loop_
_space_group_symop_operation_xyz
x,y,z
-x,1/2-y,z
x,-y,-z
-x,1/2+y,-z
-x,-y,-z
x,1/2+y,-z
-x,y,z
x,1/2-y,z
1/2+x,1/2+y,1/2+z
1/2-x,-y,1/2+z
1/2+x,1/2-y,1/2-z
1/2-x,y,1/2-z
1/2-x,1/2-y,1/2-z
1/2+x,y,1/2-z
1/2-x,1/2+y,1/2+z
1/2+x,-y,1/2+z
loop_
_atom_site_type_symbol
_atom_site_label
_atom_site_fract_x
_atom_site_fract_y
_atom_site_fract_z
Si Si1 0.711281 0.826365 0.206553
Si Si2 0.285514 0.750000 0.076994
Si Si3 0.789977 0.972899 0.058973
Si Si4 0.783802 0.104286 0.017639
Si Si5 0.295687 0.750000 0.513499
Si Si6 0.289024 0.378552 0.874169
O O1 0.500000 0.822825 0.203512
O O2 0.777716 0.750000 0.203355
O O3 0.750000 0.851062 0.250000
O O4 0.776459 0.869285 0.169972
O O5 0.500000 0.750000 0.074954
O O6 0.227621 0.684697 0.100484
O O7 0.213523 0.750000 0.033486
O O8 0.751755 0.944193 0.101334
O O9 0.000000 0.974668 0.054684
O O10 0.728054 0.046667 0.047593
O O11 0.726635 0.922100 0.025142
O O12 0.719361 0.178686 0.025769
O O13 0.000000 0.106867 0.017199
O O14 0.500000 0.750000 0.525789
O O15 0.500000 0.373904 0.872813
#
# Coordination Sequence:
#
# PCOD9533866 Si02
#       6
#    16   8  16  16   8  16
#     4   9  17  29  41  54  74  98 124 156 191 223
#     4  10  18  26  35  53  77  98 124 159 195 220
#     4   9  16  27  39  54  75  97 124 160 193 221
#     4   8  15  25  38  55  75  96 123 161 195 218
#     4  10  16  26  42  55  69  98 134 161 188 224
#     4  10  18  28  40  54  75 101 126 157 194 226
#
# _framework density 15.253420999999999
#
# number of rings (size 3 to 8) (size 9 to 14) (size 15 to 20)
#    0.000    2.800    3.000    1.200    0.000    0.800 
#    0.000    3.000    0.000    0.000    0.000    0.000 
#    0.000    0.000    0.000    0.900    0.000    9.400 
#
# Total GULP energy -222849.758443 kJ/mol
# GULP energy per Si atom -5571.243961 kJ/mol
# Density = 1.521870 g / cm^3
# Si number density = 15.253421 Si / 1000 Ang^3
#
#
#
# Elastic Constant Matrix: (Units=GPa)
#
#
# Indices 1 2 3 4 5 6 
#
# 1 30.5656 3.9623 -2.3368 0.0000 0.0000 0.0000
# 2 3.9623 123.2294 58.4096 0.0000 0.0000 0.0000
# 3 -2.3368 58.4096 103.3609 0.0000 0.0000 0.0000
# 4 0.0000 0.0000 0.0000 22.1255 0.0000 0.0000
# 5 0.0000 0.0000 0.0000 0.0000 15.5877 0.0000
# 6 0.0000 0.0000 0.0000 0.0000 0.0000 7.1050
#
#
#
# Elastic Compliance Matrix: (Units=1/GPa)
#
#
# Indices 1 2 3 4 5 6 
#
# 1 0.033109 -0.001939 0.001844 0.000000 0.000000 0.000000
# 2 -0.001939 0.011197 -0.006371 0.000000 0.000000 0.000000
# 3 0.001844 -0.006371 0.013317 0.000000 0.000000 0.000000
# 4 0.000000 0.000000 0.000000 0.045197 0.000000 0.000000
# 5 0.000000 0.000000 0.000000 0.000000 0.064153 0.000000
# 6 0.000000 0.000000 0.000000 0.000000 0.000000 0.140746
#
#
# Mechanical properties :
#
#
# Convention : Reuss Voigt Hill
#
# Bulk Modulus (GPa) = 22.37582 41.91402 32.14492
# Shear Modulus (GPa) = 14.90098 22.10503 18.50300
#
# Velocity S-wave (km/s) = 3.12892 3.81095 3.48665
# Velocity P-wave (km/s) = 5.26828 6.84854 6.10972
#
# Compressibility (1/GPa) = 0.04469110
#
# Stress axis : x y z
#
# Youngs Moduli (GPa) = 30.20343 89.30728 75.09157
#
# Poissons Ratio (x) = 0.17313 -0.13847
# Poissons Ratio (y) = 0.05855 0.47844
# Poissons Ratio (z) = -0.05570 0.56902
#
# Static dielectric constant tensor:
#      x y z
#    x 1.569970 0.000000 0.000000 
#    y 0.000000 1.530660 0.000000 
#    z 0.000000 0.000000 1.513480 
# 
# From -- ./inp_files/52801.got.cif
#   From: 2010.05.17/outbox.cif.g08.bks.cpg/sg74_27_cif.got.tgz:52801.got - 2010.06.03 17:57:02.
