data_PCOD9533493
_publ_section_title
;
Structure prediction by ZEFSAII (Michael W. Deem and Ramdas Pophale) SiO2 
 PCOD9533493
Probable space group: I B C A 
;
_chemical_formula_sum "Si O2"
_cell_formula_units_Z 96
_cell_length_a 14.481861
_cell_length_b 17.342902
_cell_length_c 15.071818
_cell_angle_alpha 90.000000
_cell_angle_beta 90.000000
_cell_angle_gamma 90.000000
_cell_volume 3785.400071
_symmetry_space_group_name_H-M "I B C A "
_symmetry_group_IT_number 73
_symmetry_cell_setting 'orthorhombic'
loop_
_space_group_symop_operation_xyz
x,y,z
-x,1/2-y,z
x,-y,1/2-z
1/2-x,y,-z
-x,-y,-z
x,1/2+y,-z
-x,y,1/2+z
1/2+x,-y,z
1/2+x,1/2+y,1/2+z
1/2-x,-y,1/2+z
1/2+x,1/2-y,-z
-x,1/2+y,1/2-z
1/2-x,1/2-y,1/2-z
1/2+x,y,1/2-z
1/2-x,1/2+y,z
x,1/2-y,1/2+z
loop_
_atom_site_type_symbol
_atom_site_label
_atom_site_fract_x
_atom_site_fract_y
_atom_site_fract_z
Si Si1 0.555840 0.998726 0.592853
Si Si2 0.895821 0.249584 0.275899
Si Si3 0.663791 0.645327 0.907339
Si Si4 0.784745 0.867884 0.096511
Si Si5 0.357218 0.487119 0.346132
Si Si6 0.625205 0.172653 0.909107
O O1 0.598146 0.915039 0.612711
O O2 0.500000 0.000000 0.500000
O O3 0.634156 0.065449 0.592211
O O4 0.466971 0.001385 0.657112
O O5 0.866429 0.334147 0.307888
O O6 0.829032 0.191913 0.332152
O O7 0.900112 0.227722 0.172439
O O8 0.172562 0.053753 0.414973
O O9 0.500000 0.750000 0.809538
O O10 0.600112 0.680295 0.985981
O O11 0.688520 0.907794 0.124862
O O12 0.750000 0.837018 0.000000
O O13 0.314757 0.500000 0.250000
O O14 0.234381 0.676946 0.412161
#
# Coordination Sequence:
#
# PCOD9533493 Si02
#       6
#    16  16  16  16  16  16
#     4  12  24  45  75 114 149 202 268 329 399 465
#     4  12  30  49  75 114 159 210 263 323 401 482
#     4  11  24  51  76 107 152 210 255 325 402 472
#     4  12  26  50  76 115 155 204 265 331 399 479
#     4  12  26  44  80 112 152 203 266 331 398 470
#     4  11  25  47  77 105 154 202 262 324 392 470
#
# _framework density 25.360595
#
# number of rings (size 3 to 8) (size 9 to 14) (size 15 to 20)
#    0.000    0.333    5.000    2.500    7.000    0.667 
#    0.000    0.000    0.000    0.000    0.000    0.000 
#    0.000    0.000    0.000    0.000    0.000    0.000 
#
# Total GULP energy -267741.582956 kJ/mol
# GULP energy per Si atom -5577.949645 kJ/mol
# Density = 2.530287 g / cm^3
# Si number density = 25.360595 Si / 1000 Ang^3
#
#
#
# Elastic Constant Matrix: (Units=GPa)
#
#
# Indices 1 2 3 4 5 6 
#
# 1 84.9249 27.1543 15.3912 0.0000 0.0000 0.0000
# 2 27.1543 92.3525 37.5315 0.0000 0.0000 0.0000
# 3 15.3912 37.5315 154.5949 0.0000 0.0000 0.0000
# 4 0.0000 0.0000 0.0000 26.6730 0.0000 0.0000
# 5 0.0000 0.0000 0.0000 0.0000 31.4080 0.0000
# 6 0.0000 0.0000 0.0000 0.0000 0.0000 40.0676
#
#
#
# Elastic Compliance Matrix: (Units=1/GPa)
#
#
# Indices 1 2 3 4 5 6 
#
# 1 0.013020 -0.003663 -0.000407 0.000000 0.000000 0.000000
# 2 -0.003663 0.013044 -0.002802 0.000000 0.000000 0.000000
# 3 -0.000407 -0.002802 0.007189 0.000000 0.000000 0.000000
# 4 0.000000 0.000000 0.000000 0.037491 0.000000 0.000000
# 5 0.000000 0.000000 0.000000 0.000000 0.031839 0.000000
# 6 0.000000 0.000000 0.000000 0.000000 0.000000 0.024958
#
#
# Mechanical properties :
#
#
# Convention : Reuss Voigt Hill
#
# Bulk Modulus (GPa) = 51.25746 54.66959 52.96352
# Shear Modulus (GPa) = 33.83227 36.41609 35.12418
#
# Velocity S-wave (km/s) = 3.65643 3.79348 3.72558
# Velocity P-wave (km/s) = 6.17100 6.38679 6.27982
#
# Compressibility (1/GPa) = 0.01950936
#
# Stress axis : x y z
#
# Youngs Moduli (GPa) = 76.80460 76.66486 139.09580
#
# Poissons Ratio (x) = 0.28081 0.05661
# Poissons Ratio (y) = 0.28133 0.38975
# Poissons Ratio (z) = 0.03126 0.21482
#
# Static dielectric constant tensor:
#      x y z
#    x 2.799760 0.000000 0.000000 
#    y 0.000000 2.055580 0.000000 
#    z 0.000000 0.000000 2.160990 
# 
# From -- ./inp_files/17049.got.cif
#   From: 2010.05.17/outbox.cif.g08.bks.cpg/sg73_9_cif.got.tgz:17049.got - 2010.06.03 17:35:07.
