data_PCOD9533629
_publ_section_title
;
Structure prediction by ZEFSAII (Michael W. Deem and Ramdas Pophale) SiO2 
 PCOD9533629
Probable space group: I B C A 
;
_chemical_formula_sum "Si O2"
_cell_formula_units_Z 72
_cell_length_a 9.431348
_cell_length_b 24.534906
_cell_length_c 13.374005
_cell_angle_alpha 90.000000
_cell_angle_beta 90.000000
_cell_angle_gamma 90.000000
_cell_volume 3094.707800
_symmetry_space_group_name_H-M "I B C A "
_symmetry_group_IT_number 73
_symmetry_cell_setting 'orthorhombic'
loop_
_space_group_symop_operation_xyz
x,y,z
-x,1/2-y,z
x,-y,1/2-z
1/2-x,y,-z
-x,-y,-z
x,1/2+y,-z
-x,y,1/2+z
1/2+x,-y,z
1/2+x,1/2+y,1/2+z
1/2-x,-y,1/2+z
1/2+x,1/2-y,-z
-x,1/2+y,1/2-z
1/2-x,1/2-y,1/2-z
1/2+x,y,1/2-z
1/2-x,1/2+y,z
x,1/2-y,1/2+z
loop_
_atom_site_type_symbol
_atom_site_label
_atom_site_fract_x
_atom_site_fract_y
_atom_site_fract_z
Si Si1 0.777187 0.850313 0.795818
Si Si2 0.808302 0.546611 0.820682
Si Si3 0.250000 0.476256 0.500000
Si Si4 0.023339 0.609885 0.961594
Si Si5 0.473198 0.810973 0.869865
O O1 0.775950 0.910870 0.747696
O O2 0.867112 0.853680 0.897423
O O3 0.618230 0.832479 0.819466
O O4 0.852098 0.812689 0.713794
O O5 0.872909 0.500000 0.750000
O O6 0.720711 0.514084 0.904740
O O7 0.921237 0.581045 0.883004
O O8 0.116145 0.436707 0.483875
O O9 0.942589 0.647332 0.040517
O O10 0.500000 0.750000 0.906774
#
# Coordination Sequence:
#
# PCOD9533629 Si02
#       5
#    16  16   8  16  16
#     4  12  25  50  73 110 145 182 249 299 347 448
#     4  12  25  42  72 105 144 195 229 288 364 426
#     4  12  24  42  70 104 148 196 232 298 360 428
#     4  12  25  47  69 108 150 181 250 298 348 441
#     4  12  27  51  77 102 142 192 239 307 368 408
#
# _framework density 23.265523000000002
#
# number of rings (size 3 to 8) (size 9 to 14) (size 15 to 20)
#    0.000    0.000    6.667    2.667    3.111    0.889 
#    8.000    0.000    0.000    0.000    0.000    0.000 
#    0.000    0.000    0.000    0.000    0.000    0.000 
#
# Total GULP energy -201780.769703 kJ/mol
# GULP energy per Si atom -5605.021381 kJ/mol
# Density = 2.321257 g / cm^3
# Si number density = 23.265523 Si / 1000 Ang^3
#
#
#
# Elastic Constant Matrix: (Units=GPa)
#
#
# Indices 1 2 3 4 5 6 
#
# 1 37.9544 0.6631 17.6844 0.0000 0.0000 0.0000
# 2 0.6631 97.2713 25.7892 0.0000 0.0000 0.0000
# 3 17.6844 25.7892 91.5926 0.0001 0.0000 0.0000
# 4 0.0000 0.0000 0.0001 28.6495 0.0000 0.0000
# 5 0.0000 0.0000 0.0000 0.0000 29.9844 0.0000
# 6 0.0000 0.0000 0.0000 0.0000 0.0000 17.7230
#
#
#
# Elastic Compliance Matrix: (Units=1/GPa)
#
#
# Indices 1 2 3 4 5 6 
#
# 1 0.029127 0.001397 -0.006017 0.000000 0.000000 0.000000
# 2 0.001397 0.011177 -0.003417 0.000000 0.000000 0.000000
# 3 -0.006017 -0.003417 0.013042 0.000000 0.000000 0.000000
# 4 0.000000 0.000000 0.000000 0.034905 0.000000 0.000000
# 5 0.000000 0.000000 0.000000 0.000000 0.033351 0.000000
# 6 0.000000 0.000000 0.000000 0.000000 0.000000 0.056424
#
#
# Mechanical properties :
#
#
# Convention : Reuss Voigt Hill
#
# Bulk Modulus (GPa) = 26.83034 35.01019 30.92027
# Shear Modulus (GPa) = 24.21053 27.45016 25.83034
#
# Velocity S-wave (km/s) = 3.22936 3.43864 3.33564
# Velocity P-wave (km/s) = 5.04602 5.55396 5.30607
#
# Compressibility (1/GPa) = 0.03727124
#
# Stress axis : x y z
#
# Youngs Moduli (GPa) = 34.33296 89.47062 76.67734
#
# Poissons Ratio (x) = -0.12496 0.46136
# Poissons Ratio (y) = -0.04795 0.26198
# Poissons Ratio (z) = 0.20658 0.30569
#
# Static dielectric constant tensor:
#      x y z
#    x 1.863120 0.000000 0.000000 
#    y 0.000000 1.856680 0.000000 
#    z 0.000000 0.000000 1.879360 
# 
# From -- ./inp_files/10617.got.cif
#   From: 2010.05.17/outbox.cif.g08.bks.cpg/sg73_6_cif.got.tgz:10617.got - 2010.06.03 17:35:07.
