data_PCOD9533750
_publ_section_title
;
Structure prediction by ZEFSAII (Michael W. Deem and Ramdas Pophale) SiO2 
 PCOD9533750
Probable space group: I B C A 
;
_chemical_formula_sum "Si O2"
_cell_formula_units_Z 44
_cell_length_a 9.000000
_cell_length_b 24.000000
_cell_length_c 21.000000
_cell_angle_alpha 90.000000
_cell_angle_beta 90.000000
_cell_angle_gamma 90.000000
_cell_volume 4536.000000
_symmetry_space_group_name_H-M "I B C A "
_symmetry_group_IT_number 73
_symmetry_cell_setting 'orthorhombic'
loop_
_space_group_symop_operation_xyz
x,y,z
-x,1/2-y,z
x,-y,1/2-z
1/2-x,y,-z
-x,-y,-z
x,1/2+y,-z
-x,y,1/2+z
1/2+x,-y,z
1/2+x,1/2+y,1/2+z
1/2-x,-y,1/2+z
1/2+x,1/2-y,-z
-x,1/2+y,1/2-z
1/2-x,1/2-y,1/2-z
1/2+x,y,1/2-z
1/2-x,1/2+y,z
x,1/2-y,1/2+z
loop_
_atom_site_type_symbol
_atom_site_label
_atom_site_fract_x
_atom_site_fract_y
_atom_site_fract_z
Si Si1 0.028865 0.500000 0.750000
Si Si2 0.778459 0.437165 0.831486
Si Si3 0.971321 0.490879 0.925625
Si Si4 0.198865 0.308781 0.830313
Si Si5 0.151788 0.315321 0.306533
Si Si6 0.756808 0.912631 0.422772
O O1 0.136537 0.533955 0.798131
O O2 0.918677 0.459175 0.788804
O O3 0.828138 0.455293 0.902376
O O4 0.770439 0.371022 0.831174
O O5 0.907611 0.552587 0.905084
O O6 0.114888 0.452945 0.905851
O O7 0.000000 0.500000 0.000000
O O8 0.301398 0.313400 0.767642
O O9 0.199340 0.241749 0.842515
O O10 0.244258 0.354762 0.883326
O O11 0.026250 0.320809 0.812883
O O12 0.750000 0.904023 0.500000
#
# Coordination Sequence:
#
# PCOD9533750 Si02
#       6
#     8  16  16  16  16  16
#     4  10  24  30  54  88 124 148 188 240 304 346
#     4  11  20  36  52  88 117 153 190 242 291 363
#     4  10  21  36  58  85 115 154 194 246 294 358
#     4  10  21  40  58  90 114 163 191 251 288 356
#     4  10  21  36  63  82 122 150 203 234 302 345
#     4  10  21  40  62  85 119 156 202 239 300 355
#
# _framework density 9.7001760000000008
#
# number of rings (size 3 to 8) (size 9 to 14) (size 15 to 20)
#    0.000    1.818    1.818    2.182    5.091    0.000 
#    3.273    0.000    0.000   14.182    0.000    0.000 
#    0.000    0.000    0.000    0.000    0.000    0.000 
#
# Total GULP energy -245229.726134 kJ/mol
# GULP energy per Si atom -5573.402867 kJ/mol
# Density = 0.967810 g / cm^3
# Si number density = 9.700176 Si / 1000 Ang^3
#
#
#
# Elastic Constant Matrix: (Units=GPa)
#
#
# Indices 1 2 3 4 5 6 
#
# 1 73.9562 42.2336 27.2130 0.0000 0.0000 0.0000
# 2 42.2336 178.1119 58.7486 0.0000 0.0000 0.0000
# 3 27.2130 58.7486 79.6549 0.0000 0.0000 0.0000
# 4 0.0000 0.0000 0.0000 44.6538 0.0000 0.0000
# 5 0.0000 0.0000 0.0000 0.0000 32.7412 0.0000
# 6 0.0000 0.0000 0.0000 0.0000 0.0000 30.6709
#
#
#
# Elastic Compliance Matrix: (Units=1/GPa)
#
#
# Indices 1 2 3 4 5 6 
#
# 1 0.016389 -0.002695 -0.003612 0.000000 0.000000 0.000000
# 2 -0.002695 0.007863 -0.004878 0.000000 0.000000 0.000000
# 3 -0.003612 -0.004878 0.017386 0.000000 0.000000 0.000000
# 4 0.000000 0.000000 0.000000 0.022395 0.000000 0.000000
# 5 0.000000 0.000000 0.000000 0.000000 0.030543 0.000000
# 6 0.000000 0.000000 0.000000 0.000000 0.000000 0.032604
#
#
# Mechanical properties :
#
#
# Convention : Reuss Voigt Hill
#
# Bulk Modulus (GPa) = 51.89873 65.34593 58.62233
# Shear Modulus (GPa) = 32.05718 35.18170 33.61944
#
# Velocity S-wave (km/s) = 4.06938 4.26309 4.16736
# Velocity P-wave (km/s) = 6.99209 7.61498 7.31017
#
# Compressibility (1/GPa) = 0.01926829
#
# Stress axis : x y z
#
# Youngs Moduli (GPa) = 61.01496 127.18589 57.51808
#
# Poissons Ratio (x) = 0.34277 0.20773
# Poissons Ratio (y) = 0.16444 0.28058
# Poissons Ratio (z) = 0.22036 0.62044
#
# Static dielectric constant tensor:
#      x y z
#    x 1.715620 0.000000 0.000000 
#    y 0.000000 1.710930 0.000000 
#    z 0.000000 0.000000 1.741740 
# 
# From -- ./inp_files/6269.got.cif
#   From: 2010.05.17/outbox.ucp.g08.bks.cvg/sg73_4_cif.got.tgz:6269.got - 2010.06.11 16:36:03.
