data_PCOD9533174
_publ_section_title
;
Structure prediction by ZEFSAII (Michael W. Deem and Ramdas Pophale) SiO2 
 PCOD9533174
Probable space group: I B C A 
;
_chemical_formula_sum "Si O2"
_cell_formula_units_Z 96
_cell_length_a 13.326933
_cell_length_b 14.810342
_cell_length_c 22.615214
_cell_angle_alpha 90.000000
_cell_angle_beta 90.000000
_cell_angle_gamma 90.000000
_cell_volume 4463.710328
_symmetry_space_group_name_H-M "I B C A "
_symmetry_group_IT_number 73
_symmetry_cell_setting 'orthorhombic'
loop_
_space_group_symop_operation_xyz
x,y,z
-x,1/2-y,z
x,-y,1/2-z
1/2-x,y,-z
-x,-y,-z
x,1/2+y,-z
-x,y,1/2+z
1/2+x,-y,z
1/2+x,1/2+y,1/2+z
1/2-x,-y,1/2+z
1/2+x,1/2-y,-z
-x,1/2+y,1/2-z
1/2-x,1/2-y,1/2-z
1/2+x,y,1/2-z
1/2-x,1/2+y,z
x,1/2-y,1/2+z
loop_
_atom_site_type_symbol
_atom_site_label
_atom_site_fract_x
_atom_site_fract_y
_atom_site_fract_z
Si Si1 0.525032 0.657154 0.602600
Si Si2 0.108480 0.608088 0.111975
Si Si3 0.770565 0.241000 0.570801
Si Si4 0.550777 0.518411 0.818580
Si Si5 0.763601 0.439985 0.401380
Si Si6 0.053947 0.592325 0.515491
O O1 0.500000 0.750000 0.635415
O O2 0.637650 0.672192 0.579417
O O3 0.520238 0.570270 0.643368
O O4 0.457597 0.650463 0.543330
O O5 0.179587 0.693550 0.105614
O O6 0.180558 0.520164 0.097432
O O7 0.018570 0.628690 0.066049
O O8 0.043350 0.585331 0.169951
O O9 0.750000 0.247642 0.500000
O O10 0.782115 0.339609 0.600073
O O11 0.563292 0.500000 0.750000
O O12 0.656868 0.546901 0.847966
O O13 0.838106 0.432365 0.458352
O O14 0.000000 0.500000 0.500000
#
# Coordination Sequence:
#
# PCOD9533174 Si02
#       6
#    16  16  16  16  16  16
#     4  12  23  42  63  99 135 170 225 273 335 415
#     4  11  23  42  65  97 137 171 224 275 341 409
#     4  12  24  36  67 106 138 172 211 273 352 429
#     4  11  26  48  69  88 130 186 234 288 335 387
#     4  11  25  42  67  99 139 177 221 275 346 406
#     4  11  21  37  63  95 138 173 205 268 341 414
#
# _framework density 21.506772000000002
#
# number of rings (size 3 to 8) (size 9 to 14) (size 15 to 20)
#    0.000    0.667    6.667    2.000    2.333    2.667 
#    3.000    0.833    0.000    0.000    0.000    0.000 
#    0.000    0.000    0.000    0.000    0.000    0.000 
#
# Total GULP energy -268030.272971 kJ/mol
# GULP energy per Si atom -5583.964020 kJ/mol
# Density = 2.145782 g / cm^3
# Si number density = 21.506772 Si / 1000 Ang^3
#
#
#
# Elastic Constant Matrix: (Units=GPa)
#
#
# Indices 1 2 3 4 5 6 
#
# 1 128.9618 13.7524 49.2053 0.0000 0.0000 0.0000
# 2 13.7524 76.8161 19.8674 0.0000 0.0000 0.0000
# 3 49.2053 19.8674 123.7227 0.0000 0.0000 0.0000
# 4 0.0000 0.0000 0.0000 15.3437 0.0000 0.0000
# 5 0.0000 0.0000 0.0000 0.0000 22.2695 0.0000
# 6 0.0000 0.0000 0.0000 0.0000 0.0000 40.5219
#
#
#
# Elastic Compliance Matrix: (Units=1/GPa)
#
#
# Indices 1 2 3 4 5 6 
#
# 1 0.009180 -0.000730 -0.003534 0.000000 0.000000 0.000000
# 2 -0.000730 0.013640 -0.001900 0.000000 0.000000 0.000000
# 3 -0.003534 -0.001900 0.009793 0.000000 0.000000 0.000000
# 4 0.000000 0.000000 0.000000 0.065173 0.000000 0.000000
# 5 0.000000 0.000000 0.000000 0.000000 0.044904 0.000000
# 6 0.000000 0.000000 0.000000 0.000000 0.000000 0.024678
#
#
# Mechanical properties :
#
#
# Convention : Reuss Voigt Hill
#
# Bulk Modulus (GPa) = 49.29418 55.01676 52.15547
# Shear Modulus (GPa) = 26.81554 32.07206 29.44380
#
# Velocity S-wave (km/s) = 3.53490 3.86587 3.70408
# Velocity P-wave (km/s) = 6.29529 6.75005 6.52664
#
# Compressibility (1/GPa) = 0.02028637
#
# Stress axis : x y z
#
# Youngs Moduli (GPa) = 108.92754 73.31286 102.11170
#
# Poissons Ratio (x) = 0.05349 0.36086
# Poissons Ratio (y) = 0.07947 0.19403
# Poissons Ratio (z) = 0.38494 0.13931
#
# Static dielectric constant tensor:
#      x y z
#    x 1.981130 0.000000 0.000000 
#    y 0.000000 1.861980 0.000000 
#    z 0.000000 0.000000 1.787780 
# 
# From -- ./inp_files/25970.got.cif
#   From: 2010.05.17/outbox.cif.g08.bks.cpg/sg73_13_cif.got.tgz:25970.got - 2010.06.03 17:35:07.
