data_PCOD9533859
_publ_section_title
;
Structure prediction by ZEFSAII (Michael W. Deem and Ramdas Pophale) SiO2 
 PCOD9533859
Probable space group: I M M A
;
_chemical_formula_sum "Si O2"
_cell_formula_units_Z 80
_cell_length_a 7.669017
_cell_length_b 25.001595
_cell_length_c 26.683170
_cell_angle_alpha 90.000000
_cell_angle_beta 90.000000
_cell_angle_gamma 90.000000
_cell_volume 5116.168499
_symmetry_space_group_name_H-M "I M M A"
_symmetry_group_IT_number 74
_symmetry_cell_setting 'orthorhombic'
loop_
_space_group_symop_operation_xyz
x,y,z
-x,1/2-y,z
x,-y,-z
-x,1/2+y,-z
-x,-y,-z
x,1/2+y,-z
-x,y,z
x,1/2-y,z
1/2+x,1/2+y,1/2+z
1/2-x,-y,1/2+z
1/2+x,1/2-y,1/2-z
1/2-x,y,1/2-z
1/2-x,1/2-y,1/2-z
1/2+x,y,1/2-z
1/2-x,1/2+y,1/2+z
1/2+x,-y,1/2+z
loop_
_atom_site_type_symbol
_atom_site_label
_atom_site_fract_x
_atom_site_fract_y
_atom_site_fract_z
Si Si1 0.213326 0.933866 0.106621
Si Si2 0.295982 0.465694 0.448286
Si Si3 0.714365 0.132449 0.507616
Si Si4 0.292310 0.643186 0.308309
Si Si5 0.699080 0.750000 0.477906
Si Si6 0.695820 0.250000 0.866652
O O1 0.262696 0.894269 0.060926
O O2 0.270593 0.906711 0.158145
O O3 0.000000 0.936192 0.106237
O O4 0.277278 0.993485 0.092981
O O5 0.290442 0.500000 0.500000
O O6 0.500000 0.457418 0.436104
O O7 0.224395 0.407901 0.463970
O O8 0.500000 0.132601 0.507126
O O9 0.776872 0.193307 0.505464
O O10 0.500000 0.645401 0.313499
O O11 0.250000 0.639200 0.250000
O O12 0.224155 0.697813 0.332900
O O13 0.500000 0.750000 0.496600
O O14 0.692752 0.750000 0.417219
O O15 0.500000 0.250000 0.885968
#
# Coordination Sequence:
#
# PCOD9533859 Si02
#       6
#    16  16  16  16   8   8
#     4   8  13  22  37  54  73  96 120 152 188 223
#     4   7  10  17  31  54  77  93 115 147 182 220
#     4   8  12  19  34  56  78  97 120 150 183 222
#     4  11  21  33  45  57  73  96 128 165 200 230
#     4  10  16  25  41  60  80 104 128 157 193 221
#     4  12  23  33  42  54  73 102 134 165 195 225
#
# _framework density 15.636703000000001
#
# number of rings (size 3 to 8) (size 9 to 14) (size 15 to 20)
#    0.000    3.000    2.000    4.200    0.000    0.000 
#    0.000    0.000    0.000    0.000    0.000    4.200 
#    0.000    0.000    0.000    0.900    0.000    4.400 
#
# Total GULP energy -222707.461594 kJ/mol
# GULP energy per Si atom -5567.686540 kJ/mol
# Density = 1.560111 g / cm^3
# Si number density = 15.636703 Si / 1000 Ang^3
#
#
#
# Elastic Constant Matrix: (Units=GPa)
#
#
# Indices 1 2 3 4 5 6 
#
# 1 33.7599 2.4612 -0.3082 0.0000 0.0000 0.0000
# 2 2.4612 157.0304 63.2120 0.0000 0.0000 0.0000
# 3 -0.3082 63.2120 54.5330 0.0000 0.0000 0.0000
# 4 0.0000 0.0000 0.0000 18.8744 0.0000 0.0000
# 5 0.0000 0.0000 0.0000 0.0000 8.0205 0.0000
# 6 0.0000 0.0000 0.0000 0.0000 0.0000 -7.6661
#
#
#
# Elastic Compliance Matrix: (Units=1/GPa)
#
#
# Indices 1 2 3 4 5 6 
#
# 1 0.029706 -0.001000 0.001327 0.000000 0.000000 0.000000
# 2 -0.001000 0.011973 -0.013884 0.000000 0.000000 0.000000
# 3 0.001327 -0.013884 0.034439 0.000000 0.000000 0.000000
# 4 0.000000 0.000000 0.000000 0.052982 0.000000 0.000000
# 5 0.000000 0.000000 0.000000 0.000000 0.124680 0.000000
# 6 0.000000 0.000000 0.000000 0.000000 0.000000 -0.130445
#
#
# Mechanical properties :
#
#
# Convention : Reuss Voigt Hill
#
# Bulk Modulus (GPa) = 20.40673 41.78369 31.09521
# Shear Modulus (GPa) = 29.97916 15.84299 22.91107
#
# Velocity S-wave (km/s) = 4.38337 3.18652 3.83196
# Velocity P-wave (km/s) = 6.22073 6.34965 6.28552
#
# Compressibility (1/GPa) = 0.04900344
#
# Stress axis : x y z
#
# Youngs Moduli (GPa) = 33.66327 83.52283 29.03722
#
# Poissons Ratio (x) = 0.08349 -0.03852
# Poissons Ratio (y) = 0.03365 0.40315
# Poissons Ratio (z) = -0.04466 1.15962
#
# Static dielectric constant tensor:
#      x y z
#    x 1.598480 0.000000 0.000000 
#    y 0.000000 1.566880 0.000000 
#    z 0.000000 0.000000 1.753110 
# 
# From -- ./inp_files/57438.got.cif
#   From: 2010.05.17/outbox.cif.g08.bks.cpg/sg74_29_cif.got.tgz:57438.got - 2010.06.03 17:57:02.
