data_PCOD9533980
_publ_section_title
;
Structure prediction by ZEFSAII (Michael W. Deem and Ramdas Pophale) SiO2 
 PCOD9533980
Probable space group: I M M A
;
_chemical_formula_sum "Si O2"
_cell_formula_units_Z 88
_cell_length_a 13.776900
_cell_length_b 19.336275
_cell_length_c 20.079146
_cell_angle_alpha 90.000000
_cell_angle_beta 90.000000
_cell_angle_gamma 90.000000
_cell_volume 5348.962555
_symmetry_space_group_name_H-M "I M M A"
_symmetry_group_IT_number 74
_symmetry_cell_setting 'orthorhombic'
loop_
_space_group_symop_operation_xyz
x,y,z
-x,1/2-y,z
x,-y,-z
-x,1/2+y,-z
-x,-y,-z
x,1/2+y,-z
-x,y,z
x,1/2-y,z
1/2+x,1/2+y,1/2+z
1/2-x,-y,1/2+z
1/2+x,1/2-y,1/2-z
1/2-x,y,1/2-z
1/2-x,1/2-y,1/2-z
1/2+x,y,1/2-z
1/2-x,1/2+y,1/2+z
1/2+x,-y,1/2+z
loop_
_atom_site_type_symbol
_atom_site_label
_atom_site_fract_x
_atom_site_fract_y
_atom_site_fract_z
Si Si1 0.117602 0.250000 0.144206
Si Si2 0.613225 0.604287 0.872915
Si Si3 0.198081 0.529635 0.902062
Si Si4 0.611554 0.750000 0.947844
Si Si5 0.616052 0.391262 0.284184
Si Si6 0.614876 0.398491 0.530449
Si Si7 0.809327 0.750000 0.007860
O O1 0.148243 0.181517 0.183768
O O2 0.158236 0.250000 0.069857
O O3 0.000000 0.250000 0.140092
O O4 0.500000 0.584935 0.881413
O O5 0.689869 0.552473 0.906247
O O6 0.625325 0.680864 0.903777
O O7 0.635558 0.606466 0.794148
O O8 0.161655 0.548493 0.828572
O O9 0.173556 0.452101 0.923633
O O10 0.139461 0.577513 0.954850
O O11 0.500000 0.750000 0.971455
O O12 0.692830 0.750000 0.004660
O O13 0.500000 0.394769 0.291810
O O14 0.500000 0.405835 0.541307
O O15 0.648509 0.319910 0.538703
#
# Coordination Sequence:
#
# PCOD9533980 Si02
#       7
#     8  16  16   8  16  16   8
#     4  10  17  26  44  73 105 135 166 198 237 293
#     4  10  20  33  50  73 103 140 174 206 240 294
#     4  11  20  33  48  72 102 133 166 207 255 295
#     4  10  19  34  48  70 107 140 172 203 233 283
#     4  10  18  29  48  74 104 135 168 201 245 298
#     4  11  22  35  52  72  98 129 167 212 257 300
#     4  12  20  34  53  73  97 134 176 205 246 298
#
# _framework density 16.451788000000001
#
# number of rings (size 3 to 8) (size 9 to 14) (size 15 to 20)
#    0.000    1.455    3.636    4.091    0.000    2.182 
#    0.000    5.455    0.000    0.000    0.000    2.545 
#    0.000    2.909    0.000    0.000    0.000    0.000 
#
# Total GULP energy -245715.040496 kJ/mol
# GULP energy per Si atom -5584.432739 kJ/mol
# Density = 1.641434 g / cm^3
# Si number density = 16.451788 Si / 1000 Ang^3
#
#
#
# Elastic Constant Matrix: (Units=GPa)
#
#
# Indices 1 2 3 4 5 6 
#
# 1 118.7364 64.4334 37.2179 0.0000 0.0000 0.0000
# 2 64.4334 127.9966 28.3245 0.0000 0.0000 0.0000
# 3 37.2179 28.3245 23.1971 0.0000 0.0000 0.0000
# 4 0.0000 0.0000 0.0000 18.7032 0.0000 0.0000
# 5 0.0000 0.0000 0.0000 0.0000 23.2885 0.0000
# 6 0.0000 0.0000 0.0000 0.0000 0.0000 26.2355
#
#
#
# Elastic Compliance Matrix: (Units=1/GPa)
#
#
# Indices 1 2 3 4 5 6 
#
# 1 0.018128 -0.003685 -0.024585 0.000000 0.000000 0.000000
# 2 -0.003685 0.011454 -0.008074 0.000000 0.000000 0.000000
# 3 -0.024585 -0.008074 0.092413 0.000000 0.000000 0.000000
# 4 0.000000 0.000000 0.000000 0.053467 0.000000 0.000000
# 5 0.000000 0.000000 0.000000 0.000000 0.042940 0.000000
# 6 0.000000 0.000000 0.000000 0.000000 0.000000 0.038116
#
#
# Mechanical properties :
#
#
# Convention : Reuss Voigt Hill
#
# Bulk Modulus (GPa) = 20.28128 58.87573 39.57851
# Shear Modulus (GPa) = 14.46583 22.97572 18.72077
#
# Velocity S-wave (km/s) = 2.96849 3.74110 3.37696
# Velocity P-wave (km/s) = 4.90956 7.38414 6.27014
#
# Compressibility (1/GPa) = 0.04930655
#
# Stress axis : x y z
#
# Youngs Moduli (GPa) = 55.16300 87.30220 10.82103
#
# Poissons Ratio (x) = 0.32172 0.26604
# Poissons Ratio (y) = 0.20328 0.08737
# Poissons Ratio (z) = 1.35621 0.70486
#
# Static dielectric constant tensor:
#      x y z
#    x 1.602200 0.000000 0.000000 
#    y 0.000000 1.543210 0.000000 
#    z 0.000000 0.000000 1.534080 
# 
# From -- ./inp_files/42832.got.cif
#   From: 2010.05.17/outbox.cif.g08.bks.cpg/sg74_22_cif.got.tgz:42832.got - 2010.06.03 17:57:02.
