data_PCOD9533822
_publ_section_title
;
Structure prediction by ZEFSAII (Michael W. Deem and Ramdas Pophale) SiO2 
 PCOD9533822
Probable space group: I M M A
;
_chemical_formula_sum "Si O2"
_cell_formula_units_Z 128
_cell_length_a 24.651999
_cell_length_b 17.903777
_cell_length_c 20.836204
_cell_angle_alpha 90.000000
_cell_angle_beta 90.000000
_cell_angle_gamma 90.000000
_cell_volume 9196.348107
_symmetry_space_group_name_H-M "I M M A"
_symmetry_group_IT_number 74
_symmetry_cell_setting 'orthorhombic'
loop_
_space_group_symop_operation_xyz
x,y,z
-x,1/2-y,z
x,-y,-z
-x,1/2+y,-z
-x,-y,-z
x,1/2+y,-z
-x,y,z
x,1/2-y,z
1/2+x,1/2+y,1/2+z
1/2-x,-y,1/2+z
1/2+x,1/2-y,1/2-z
1/2-x,y,1/2-z
1/2-x,1/2-y,1/2-z
1/2+x,y,1/2-z
1/2-x,1/2+y,1/2+z
1/2+x,-y,1/2+z
loop_
_atom_site_type_symbol
_atom_site_label
_atom_site_fract_x
_atom_site_fract_y
_atom_site_fract_z
Si Si1 0.337421 0.494197 0.240034
Si Si2 0.939499 0.467437 0.661393
Si Si3 0.093814 0.336008 0.565523
Si Si4 0.693401 0.832486 0.788495
Si Si5 0.275283 0.835055 0.064262
Si Si6 0.094592 0.065975 0.450789
Si Si7 0.717924 0.604549 0.925593
Si Si8 0.763701 0.528249 0.144890
O O1 0.392592 0.529502 0.214338
O O2 0.340435 0.403981 0.234932
O O3 0.289160 0.515989 0.190409
O O4 0.315488 0.519833 0.309123
O O5 0.930991 0.395409 0.615140
O O6 0.931798 0.540714 0.615702
O O7 0.000000 0.466283 0.687663
O O8 0.078770 0.250000 0.576957
O O9 0.159336 0.343422 0.572366
O O10 0.080443 0.360558 0.491965
O O11 0.669606 0.750000 0.778724
O O12 0.750000 0.836764 0.750000
O O13 0.707489 0.844280 0.863456
O O14 0.261094 0.750000 0.079604
O O15 0.244532 0.894361 0.108346
O O16 0.265082 0.852700 0.989417
O O17 0.159315 0.067135 0.439608
O O18 0.081193 0.000000 0.500000
O O19 0.759179 0.539614 0.905416
#
# Coordination Sequence:
#
# PCOD9533822 Si02
#       8
#    16  16  16  16  16  16  16  16
#     4  10  18  32  45  63  83 115 154 185 218 266
#     4  11  20  32  47  60  81 114 157 197 224 259
#     4   9  18  30  43  62  88 117 150 190 225 253
#     4  10  17  26  43  67  89 113 143 176 214 257
#     4  10  18  27  42  68  97 118 143 181 225 265
#     4   9  16  27  42  60  82 112 148 180 213 253
#     4  10  15  26  44  66  90 116 142 172 212 265
#     4  10  16  29  48  61  85 120 148 179 216 272
#
# _framework density 13.918568
#
# number of rings (size 3 to 8) (size 9 to 14) (size 15 to 20)
#    0.000    2.125    6.250    2.250    0.000    3.000 
#    0.000    1.875    0.000    1.125    0.000    0.000 
#    0.000    2.000    0.000    0.250    0.000    0.000 
#
# Total GULP energy -356419.282824 kJ/mol
# GULP energy per Si atom -5569.051294 kJ/mol
# Density = 1.388689 g / cm^3
# Si number density = 13.918568 Si / 1000 Ang^3
#
#
#
# Elastic Constant Matrix: (Units=GPa)
#
#
# Indices 1 2 3 4 5 6 
#
# 1 57.0340 20.0298 24.1120 0.0000 0.0000 0.0000
# 2 20.0298 82.6553 24.0959 0.0000 0.0000 0.0000
# 3 24.1120 24.0959 38.2978 0.0000 0.0000 0.0000
# 4 0.0000 0.0000 0.0000 15.0392 0.0000 0.0000
# 5 0.0000 0.0000 0.0000 0.0000 10.4071 0.0000
# 6 0.0000 0.0000 0.0000 0.0000 0.0000 21.6863
#
#
#
# Elastic Compliance Matrix: (Units=1/GPa)
#
#
# Indices 1 2 3 4 5 6 
#
# 1 0.024094 -0.001735 -0.014078 0.000000 0.000000 0.000000
# 2 -0.001735 0.014941 -0.008308 0.000000 0.000000 0.000000
# 3 -0.014078 -0.008308 0.040202 0.000000 0.000000 0.000000
# 4 0.000000 0.000000 0.000000 0.066493 0.000000 0.000000
# 5 0.000000 0.000000 0.000000 0.000000 0.096088 0.000000
# 6 0.000000 0.000000 0.000000 0.000000 0.000000 0.046112
#
#
# Mechanical properties :
#
#
# Convention : Reuss Voigt Hill
#
# Bulk Modulus (GPa) = 32.26328 34.94027 33.60178
# Shear Modulus (GPa) = 14.42985 16.74315 15.58650
#
# Velocity S-wave (km/s) = 3.22333 3.47210 3.35002
# Velocity P-wave (km/s) = 6.08962 6.42120 6.25761
#
# Compressibility (1/GPa) = 0.03099499
#
# Stress axis : x y z
#
# Youngs Moduli (GPa) = 41.50343 66.93067 24.87442
#
# Poissons Ratio (x) = 0.11610 0.35019
# Poissons Ratio (y) = 0.07199 0.20666
# Poissons Ratio (z) = 0.58429 0.55607
#
# Static dielectric constant tensor:
#      x y z
#    x 1.444630 0.000000 0.000000 
#    y 0.000000 1.489960 0.000000 
#    z 0.000000 0.000000 1.466460 
# 
# From -- ./inp_files/53474.got.cif
#   From: 2010.05.17/outbox.cif.g08.bks.cpg/sg74_27_cif.got.tgz:53474.got - 2010.06.03 17:57:02.
