data_PCOD9533699
_publ_section_title
;
Structure prediction by ZEFSAII (Michael W. Deem and Ramdas Pophale) SiO2 
 PCOD9533699
Probable space group: I B C A 
;
_chemical_formula_sum "Si O2"
_cell_formula_units_Z 72
_cell_length_a 14.332044
_cell_length_b 14.469803
_cell_length_c 13.426883
_cell_angle_alpha 90.000000
_cell_angle_beta 90.000000
_cell_angle_gamma 90.000000
_cell_volume 2784.491880
_symmetry_space_group_name_H-M "I B C A "
_symmetry_group_IT_number 73
_symmetry_cell_setting 'orthorhombic'
loop_
_space_group_symop_operation_xyz
x,y,z
-x,1/2-y,z
x,-y,1/2-z
1/2-x,y,-z
-x,-y,-z
x,1/2+y,-z
-x,y,1/2+z
1/2+x,-y,z
1/2+x,1/2+y,1/2+z
1/2-x,-y,1/2+z
1/2+x,1/2-y,-z
-x,1/2+y,1/2-z
1/2-x,1/2-y,1/2-z
1/2+x,y,1/2-z
1/2-x,1/2+y,z
x,1/2-y,1/2+z
loop_
_atom_site_type_symbol
_atom_site_label
_atom_site_fract_x
_atom_site_fract_y
_atom_site_fract_z
Si Si1 0.750000 0.595210 0.000000
Si Si2 0.282235 0.000000 0.750000
Si Si3 0.364484 0.746430 0.529540
Si Si4 0.500000 0.250000 0.295063
Si Si5 0.637633 0.941649 0.920765
Si Si6 0.446246 0.608120 0.361440
O O1 0.714537 0.676145 0.074084
O O2 0.711290 0.454975 0.169466
O O3 0.333401 0.021802 0.497768
O O4 0.354548 0.931801 0.806833
O O5 0.418422 0.771448 0.628442
O O6 0.348183 0.841467 0.470578
O O7 0.418027 0.680266 0.449541
O O8 0.505339 0.335897 0.222033
O O9 0.529276 0.958881 0.896171
#
# Coordination Sequence:
#
# PCOD9533699 Si02
#       6
#     8   8  16   8  16  16
#     4  12  30  46  78 118 160 212 254 336 400 472
#     4  12  30  46  78 118 160 212 254 336 400 472
#     4  12  27  52  78 116 158 211 269 326 399 469
#     4  12  26  48  84 110 156 220 266 324 396 470
#     4  12  27  54  76 119 160 204 272 322 396 475
#     4  12  27  52  78 116 158 211 269 326 399 469
#
# _framework density 25.857500999999999
#
# number of rings (size 3 to 8) (size 9 to 14) (size 15 to 20)
#    0.000    0.000    6.667    1.333   12.444    1.778 
#    0.000    0.000    0.000    0.000    0.000    0.000 
#    0.000    0.000    0.000    0.000    0.000    0.000 
#
# Total GULP energy -200813.251706 kJ/mol
# GULP energy per Si atom -5578.145881 kJ/mol
# Density = 2.579865 g / cm^3
# Si number density = 25.857501 Si / 1000 Ang^3
#
#
#
# Elastic Constant Matrix: (Units=GPa)
#
#
# Indices 1 2 3 4 5 6 
#
# 1 151.5034 30.4757 26.6261 0.0000 0.0000 0.0000
# 2 30.4757 147.8236 29.7736 0.0000 0.0000 0.0000
# 3 26.6261 29.7736 130.0779 0.0000 0.0000 0.0000
# 4 0.0000 0.0000 0.0000 39.5833 0.0000 0.0000
# 5 0.0000 0.0000 0.0000 0.0000 47.3155 0.0000
# 6 0.0000 0.0000 0.0000 0.0000 0.0000 48.3782
#
#
#
# Elastic Compliance Matrix: (Units=1/GPa)
#
#
# Indices 1 2 3 4 5 6 
#
# 1 0.007050 -0.001219 -0.001164 0.000000 0.000000 0.000000
# 2 -0.001219 0.007303 -0.001422 0.000000 0.000000 0.000000
# 3 -0.001164 -0.001422 0.008251 0.000000 0.000000 0.000000
# 4 0.000000 0.000000 0.000000 0.025263 0.000000 0.000000
# 5 0.000000 0.000000 0.000000 0.000000 0.021135 0.000000
# 6 0.000000 0.000000 0.000000 0.000000 0.000000 0.020670
#
#
# Mechanical properties :
#
#
# Convention : Reuss Voigt Hill
#
# Bulk Modulus (GPa) = 66.69300 67.01730 66.85515
# Shear Modulus (GPa) = 48.88496 49.89070 49.38783
#
# Velocity S-wave (km/s) = 4.35277 4.39731 4.37510
# Velocity P-wave (km/s) = 7.14917 7.19417 7.17170
#
# Compressibility (1/GPa) = 0.01499408
#
# Stress axis : x y z
#
# Youngs Moduli (GPa) = 141.83752 136.93866 121.19061
#
# Poissons Ratio (x) = 0.16693 0.14108
# Poissons Ratio (y) = 0.17291 0.17233
# Poissons Ratio (z) = 0.16512 0.19472
#
# Static dielectric constant tensor:
#      x y z
#    x 4.256710 0.000000 0.000000 
#    y 0.000000 1.986120 0.000000 
#    z 0.000000 0.000000 2.141170 
# 
# From -- ./inp_files/11698.got.cif
#   From: 2010.05.17/outbox.cif.g08.bks.cpg/sg73_6_cif.got.tgz:11698.got - 2010.06.03 17:35:07.
