data_PCOD9533581
_publ_section_title
;
Structure prediction by ZEFSAII (Michael W. Deem and Ramdas Pophale) SiO2 
 PCOD9533581
Probable space group: I B C A 
;
_chemical_formula_sum "Si O2"
_cell_formula_units_Z 80
_cell_length_a 12.275514
_cell_length_b 15.398319
_cell_length_c 18.530661
_cell_angle_alpha 90.000000
_cell_angle_beta 90.000000
_cell_angle_gamma 90.000000
_cell_volume 3502.707801
_symmetry_space_group_name_H-M "I B C A "
_symmetry_group_IT_number 73
_symmetry_cell_setting 'orthorhombic'
loop_
_space_group_symop_operation_xyz
x,y,z
-x,1/2-y,z
x,-y,1/2-z
1/2-x,y,-z
-x,-y,-z
x,1/2+y,-z
-x,y,1/2+z
1/2+x,-y,z
1/2+x,1/2+y,1/2+z
1/2-x,-y,1/2+z
1/2+x,1/2-y,-z
-x,1/2+y,1/2-z
1/2-x,1/2-y,1/2-z
1/2+x,y,1/2-z
1/2-x,1/2+y,z
x,1/2-y,1/2+z
loop_
_atom_site_type_symbol
_atom_site_label
_atom_site_fract_x
_atom_site_fract_y
_atom_site_fract_z
Si Si1 0.037177 0.656735 0.022160
Si Si2 0.635729 0.612612 0.859627
Si Si3 0.034985 0.845061 0.767018
Si Si4 0.791997 0.798514 0.149299
Si Si5 0.900949 0.576138 0.377166
O O1 0.132341 0.674879 0.080782
O O2 0.000000 0.750000 0.990305
O O3 0.934699 0.623800 0.067761
O O4 0.072618 0.590822 0.960686
O O5 0.552632 0.628987 0.794189
O O6 0.717083 0.693836 0.854963
O O7 0.664229 0.511841 0.859068
O O8 0.145030 0.830840 0.721183
O O9 0.000000 0.750000 0.793668
O O10 0.012453 0.913596 0.830720
O O11 0.678808 0.846140 0.144157
#
# Coordination Sequence:
#
# PCOD9533581 Si02
#       5
#    16  16  16  16  16
#     4   9  19  39  61  84 120 159 194 248 309 355
#     4   9  20  39  58  83 125 160 189 248 310 350
#     4   9  20  39  57  81 118 156 193 247 304 349
#     4   9  21  41  59  82 125 162 189 245 313 358
#     4  12  20  35  65  94 113 155 215 244 287 370
#
# _framework density 22.839473000000002
#
# number of rings (size 3 to 8) (size 9 to 14) (size 15 to 20)
#    0.000    2.400    0.000    4.800    0.000    3.200 
#    0.000   28.000    0.000    0.000    0.000    0.000 
#    0.000    0.000    0.000    0.000    0.000    0.000 
#
# Total GULP energy -223409.278479 kJ/mol
# GULP energy per Si atom -5585.231962 kJ/mol
# Density = 2.278749 g / cm^3
# Si number density = 22.839473 Si / 1000 Ang^3
#
#
#
# Elastic Constant Matrix: (Units=GPa)
#
#
# Indices 1 2 3 4 5 6 
#
# 1 51.0404 37.5523 26.2018 0.0000 0.0000 0.0000
# 2 37.5523 146.7921 53.8667 -0.0001 0.0000 0.0000
# 3 26.2018 53.8667 81.5093 0.0000 0.0000 0.0000
# 4 0.0000 -0.0001 0.0000 -636.2076 0.0000 0.0000
# 5 0.0000 0.0000 0.0000 0.0000 24.6686 0.0000
# 6 0.0000 0.0000 0.0000 0.0000 0.0000 23.6985
#
#
#
# Elastic Compliance Matrix: (Units=1/GPa)
#
#
# Indices 1 2 3 4 5 6 
#
# 1 0.025684 -0.004674 -0.005167 0.000000 0.000000 0.000000
# 2 -0.004674 0.009844 -0.005003 0.000000 0.000000 0.000000
# 3 -0.005167 -0.005003 0.017236 0.000000 0.000000 0.000000
# 4 0.000000 0.000000 0.000000 -0.001572 0.000000 0.000000
# 5 0.000000 0.000000 0.000000 0.000000 0.040537 0.000000
# 6 0.000000 0.000000 0.000000 0.000000 0.000000 0.042197
#
#
# Mechanical properties :
#
#
# Convention : Reuss Voigt Hill
#
# Bulk Modulus (GPa) = 43.33722 57.17593 50.25658
# Shear Modulus (GPa) = 29.18738 -106.78671 -38.79967
#
# Velocity S-wave (km/s) = 3.57870 -6.84521 -4.12612
# Velocity P-wave (km/s) = 6.00766 6.11454 0.80485
#
# Compressibility (1/GPa) = 0.02307485
#
# Stress axis : x y z
#
# Youngs Moduli (GPa) = 38.93474 101.58441 58.01841
#
# Poissons Ratio (x) = 0.47484 0.29980
# Poissons Ratio (y) = 0.18199 0.29027
# Poissons Ratio (z) = 0.20119 0.50823
#
# Static dielectric constant tensor:
#      x y z
#    x 1.846100 0.000000 0.000000 
#    y 0.000000 1.903760 0.000000 
#    z 0.000000 0.000000 1.878940 
# 
# From -- ./inp_files/16870.got.cif
#   From: 2010.05.17/outbox.cif.g08.bks.cpg/sg73_9_cif.got.tgz:16870.got - 2010.06.03 17:35:07.
