data_PCOD9533893
_publ_section_title
;
Structure prediction by ZEFSAII (Michael W. Deem and Ramdas Pophale) SiO2 
 PCOD9533893
Probable space group: I M M A
;
_chemical_formula_sum "Si O2"
_cell_formula_units_Z 104
_cell_length_a 18.616675
_cell_length_b 14.372342
_cell_length_c 24.487077
_cell_angle_alpha 90.000000
_cell_angle_beta 90.000000
_cell_angle_gamma 90.000000
_cell_volume 6551.890145
_symmetry_space_group_name_H-M "I M M A"
_symmetry_group_IT_number 74
_symmetry_cell_setting 'orthorhombic'
loop_
_space_group_symop_operation_xyz
x,y,z
-x,1/2-y,z
x,-y,-z
-x,1/2+y,-z
-x,-y,-z
x,1/2+y,-z
-x,y,z
x,1/2-y,z
1/2+x,1/2+y,1/2+z
1/2-x,-y,1/2+z
1/2+x,1/2-y,1/2-z
1/2-x,y,1/2-z
1/2-x,1/2-y,1/2-z
1/2+x,y,1/2-z
1/2-x,1/2+y,1/2+z
1/2+x,-y,1/2+z
loop_
_atom_site_type_symbol
_atom_site_label
_atom_site_fract_x
_atom_site_fract_y
_atom_site_fract_z
Si Si1 0.162715 0.642663 0.408192
Si Si2 0.164753 0.358278 0.911273
Si Si3 0.686477 0.861171 0.970547
Si Si4 0.414530 0.462307 0.810542
Si Si5 0.914409 0.141036 0.797920
Si Si6 0.583640 0.356817 0.131939
Si Si7 0.809118 0.000000 0.000000
O O1 0.141810 0.750000 0.400985
O O2 0.249099 0.635997 0.402890
O O3 0.148615 0.616480 0.471367
O O4 0.123603 0.584547 0.362161
O O5 0.148844 0.250000 0.926591
O O6 0.125266 0.378674 0.854591
O O7 0.148436 0.434555 0.957732
O O8 0.704851 0.750000 0.972968
O O9 0.634903 0.876497 0.919403
O O10 0.756170 0.927139 0.968768
O O11 0.500000 0.443516 0.813726
O O12 0.389336 0.420614 0.753125
O O13 0.402901 0.571788 0.819179
O O14 0.902293 0.250000 0.784559
O O15 0.000000 0.127949 0.805155
O O16 0.500000 0.368031 0.115342
O O17 0.594365 0.250000 0.148081
#
# Coordination Sequence:
#
# PCOD9533893 Si02
#       7
#    16  16  16  16  16  16   8
#     4   9  17  28  42  64  91 116 146 183 218 254
#     4   9  18  31  48  70  92 115 142 171 211 263
#     4   9  17  28  42  61  88 120 150 181 220 261
#     4  10  19  29  43  63  87 118 154 185 216 255
#     4   9  18  33  50  67  89 114 139 173 220 269
#     4   9  17  28  41  58  82 116 156 190 216 247
#     4  10  16  28  48  68  88 112 138 174 216 258
#
# _framework density 15.873282
#
# number of rings (size 3 to 8) (size 9 to 14) (size 15 to 20)
#    0.000    2.769    0.000    3.692    0.000    2.154 
#    0.000    6.154    0.000    1.846    0.000    3.231 
#    0.000    0.000    0.000    0.000    0.000    0.000 
#
# Total GULP energy -289623.909967 kJ/mol
# GULP energy per Si atom -5569.690576 kJ/mol
# Density = 1.583715 g / cm^3
# Si number density = 15.873282 Si / 1000 Ang^3
#
#
#
# Elastic Constant Matrix: (Units=GPa)
#
#
# Indices 1 2 3 4 5 6 
#
# 1 14.8928 24.6153 32.3167 0.0000 0.0000 0.0000
# 2 24.6153 88.4039 77.4601 0.0000 0.0000 0.0000
# 3 32.3167 77.4601 116.0909 0.0000 0.0000 0.0000
# 4 0.0000 0.0000 0.0000 33.6655 0.0000 0.0000
# 5 0.0000 0.0000 0.0000 0.0000 21.7326 0.0000
# 6 0.0000 0.0000 0.0000 0.0000 0.0000 14.9466
#
#
#
# Elastic Compliance Matrix: (Units=1/GPa)
#
#
# Indices 1 2 3 4 5 6 
#
# 1 0.177211 -0.014731 -0.039502 0.000000 0.000000 0.000000
# 2 -0.014731 0.028458 -0.014887 0.000000 0.000000 0.000000
# 3 -0.039502 -0.014887 0.029544 0.000000 0.000000 0.000000
# 4 0.000000 0.000000 0.000000 0.029704 0.000000 0.000000
# 5 0.000000 0.000000 0.000000 0.000000 0.046014 0.000000
# 6 0.000000 0.000000 0.000000 0.000000 0.000000 0.066905
#
#
# Mechanical properties :
#
#
# Convention : Reuss Voigt Hill
#
# Bulk Modulus (GPa) = 10.31224 54.24131 32.27678
# Shear Modulus (GPa) = 9.11744 19.73533 14.42638
#
# Velocity S-wave (km/s) = 2.39924 3.52988 3.01798
# Velocity P-wave (km/s) = 3.76641 7.13155 5.70284
#
# Compressibility (1/GPa) = 0.09697211
#
# Stress axis : x y z
#
# Youngs Moduli (GPa) = 5.64298 35.13966 33.84832
#
# Poissons Ratio (x) = 0.51765 1.33707
# Poissons Ratio (y) = 0.08313 0.50391
# Poissons Ratio (z) = 0.22291 0.52314
#
# Static dielectric constant tensor:
#      x y z
#    x 1.519750 0.000000 0.000000 
#    y 0.000000 1.572420 0.000000 
#    z 0.000000 0.000000 1.515410 
# 
# From -- ./inp_files/54026.got.cif
#   From: 2010.05.17/outbox.cif.g08.bks.cpg/sg74_28_cif.got.tgz:54026.got - 2010.06.03 17:57:02.
