data_PCOD9533029
_publ_section_title
;
Structure prediction by ZEFSAII (Michael W. Deem and Ramdas Pophale) SiO2 
 PCOD9533029
Probable space group: I B C A 
;
_chemical_formula_sum "Si O2"
_cell_formula_units_Z 112
_cell_length_a 14.474719
_cell_length_b 15.506922
_cell_length_c 24.839282
_cell_angle_alpha 90.000000
_cell_angle_beta 90.000000
_cell_angle_gamma 90.000000
_cell_volume 5575.383967
_symmetry_space_group_name_H-M "I B C A "
_symmetry_group_IT_number 73
_symmetry_cell_setting 'orthorhombic'
loop_
_space_group_symop_operation_xyz
x,y,z
-x,1/2-y,z
x,-y,1/2-z
1/2-x,y,-z
-x,-y,-z
x,1/2+y,-z
-x,y,1/2+z
1/2+x,-y,z
1/2+x,1/2+y,1/2+z
1/2-x,-y,1/2+z
1/2+x,1/2-y,-z
-x,1/2+y,1/2-z
1/2-x,1/2-y,1/2-z
1/2+x,y,1/2-z
1/2-x,1/2+y,z
x,1/2-y,1/2+z
loop_
_atom_site_type_symbol
_atom_site_label
_atom_site_fract_x
_atom_site_fract_y
_atom_site_fract_z
Si Si1 0.353722 0.600299 0.542676
Si Si2 0.680331 0.097513 0.119559
Si Si3 0.530840 0.339298 0.547561
Si Si4 0.850184 0.091204 0.640329
Si Si5 0.352992 0.086940 0.988045
Si Si6 0.039184 0.842987 0.856206
Si Si7 0.223202 0.264589 0.188739
O O1 0.254765 0.609527 0.571099
O O2 0.393823 0.670209 0.500841
O O3 0.354908 0.511116 0.510274
O O4 0.421297 0.603574 0.593795
O O5 0.579715 0.103319 0.092663
O O6 0.701665 0.175695 0.159334
O O7 0.690986 0.004335 0.147556
O O8 0.500000 0.250000 0.572723
O O9 0.439434 0.374102 0.519156
O O10 0.864373 0.095817 0.575778
O O11 0.789199 0.171865 0.659723
O O12 0.950977 0.106587 0.666879
O O13 0.250000 0.121740 0.000000
O O14 0.125693 0.816219 0.818875
O O15 0.000000 0.750000 0.875609
O O16 0.250000 0.250000 0.250000
#
# Coordination Sequence:
#
# PCOD9533029 Si02
#       7
#    16  16  16  16  16  16  16
#     4  11  19  37  59  92 136 177 219 258 324 411
#     4  11  24  41  66 101 133 180 230 281 345 418
#     4  12  25  34  55  94 142 182 220 267 324 414
#     4  11  21  42  69  99 136 179 227 273 339 430
#     4  12  23  36  59  93 141 186 213 259 330 410
#     4   9  19  37  67  97 125 179 221 268 342 417
#     4  10  25  46  72  96 129 174 241 307 348 396
#
# _framework density 20.088303
#
# number of rings (size 3 to 8) (size 9 to 14) (size 15 to 20)
#    0.000    1.143    4.286    2.143    6.000    0.571 
#    0.000    2.143    0.000    8.571    0.000    0.000 
#    0.000    0.000    0.000    0.000    0.000    0.000 
#
# Total GULP energy -312375.756847 kJ/mol
# GULP energy per Si atom -5578.138515 kJ/mol
# Density = 2.004258 g / cm^3
# Si number density = 20.088303 Si / 1000 Ang^3
#
#
#
# Elastic Constant Matrix: (Units=GPa)
#
#
# Indices 1 2 3 4 5 6 
#
# 1 93.8483 44.0629 41.6598 0.0000 0.0000 0.0000
# 2 44.0629 98.8772 52.0777 0.0000 0.0000 0.0000
# 3 41.6598 52.0777 96.8456 0.0000 0.0000 0.0000
# 4 0.0000 0.0000 0.0000 18.7072 0.0000 0.0000
# 5 0.0000 0.0000 0.0000 0.0000 15.5572 0.0000
# 6 0.0000 0.0000 0.0000 0.0000 0.0000 30.0359
#
#
#
# Elastic Compliance Matrix: (Units=1/GPa)
#
#
# Indices 1 2 3 4 5 6 
#
# 1 0.014428 -0.004410 -0.003835 0.000000 0.000000 0.000000
# 2 -0.004410 0.015458 -0.006415 0.000000 0.000000 0.000000
# 3 -0.003835 -0.006415 0.015425 0.000000 0.000000 0.000000
# 4 0.000000 0.000000 0.000000 0.053455 0.000000 0.000000
# 5 0.000000 0.000000 0.000000 0.000000 0.064279 0.000000
# 6 0.000000 0.000000 0.000000 0.000000 0.000000 0.033293
#
#
# Mechanical properties :
#
#
# Convention : Reuss Voigt Hill
#
# Bulk Modulus (GPa) = 62.53654 62.79687 62.66670
# Shear Modulus (GPa) = 21.64599 22.97811 22.31205
#
# Velocity S-wave (km/s) = 3.28615 3.38576 3.33633
# Velocity P-wave (km/s) = 6.75254 6.82736 6.79005
#
# Compressibility (1/GPa) = 0.01599065
#
# Stress axis : x y z
#
# Youngs Moduli (GPa) = 69.30750 64.69351 64.82875
#
# Poissons Ratio (x) = 0.28528 0.24864
# Poissons Ratio (y) = 0.30563 0.41589
# Poissons Ratio (z) = 0.26582 0.41502
#
# Static dielectric constant tensor:
#      x y z
#    x 1.785110 0.000000 0.000000 
#    y 0.000000 1.736390 0.000000 
#    z 0.000000 0.000000 1.674810 
# 
# From -- ./inp_files/29553.got.cif
#   From: 2010.05.17/outbox.cif.g08.bks.cpg/sg73_15_cif.got.tgz:29553.got - 2010.06.03 17:35:07.
