data_PCOD9533304
_publ_section_title
;
Structure prediction by ZEFSAII (Michael W. Deem and Ramdas Pophale) SiO2 
 PCOD9533304
Probable space group: I B C A 
;
_chemical_formula_sum "Si O2"
_cell_formula_units_Z 120
_cell_length_a 25.762820
_cell_length_b 17.789973
_cell_length_c 11.028337
_cell_angle_alpha 90.000000
_cell_angle_beta 90.000000
_cell_angle_gamma 90.000000
_cell_volume 5054.506004
_symmetry_space_group_name_H-M "I B C A "
_symmetry_group_IT_number 73
_symmetry_cell_setting 'orthorhombic'
loop_
_space_group_symop_operation_xyz
x,y,z
-x,1/2-y,z
x,-y,1/2-z
1/2-x,y,-z
-x,-y,-z
x,1/2+y,-z
-x,y,1/2+z
1/2+x,-y,z
1/2+x,1/2+y,1/2+z
1/2-x,-y,1/2+z
1/2+x,1/2-y,-z
-x,1/2+y,1/2-z
1/2-x,1/2-y,1/2-z
1/2+x,y,1/2-z
1/2-x,1/2+y,z
x,1/2-y,1/2+z
loop_
_atom_site_type_symbol
_atom_site_label
_atom_site_fract_x
_atom_site_fract_y
_atom_site_fract_z
Si Si1 0.524503 0.583386 0.298104
Si Si2 0.950660 0.700495 0.228075
Si Si3 0.382715 0.623747 0.627386
Si Si4 0.281503 0.000000 0.750000
Si Si5 0.354192 0.752754 0.924536
Si Si6 0.300310 0.881634 0.344847
Si Si7 0.853491 0.009821 0.540005
Si Si8 0.574631 0.130414 0.458322
O O1 0.524968 0.500000 0.250000
O O2 0.467420 0.617372 0.310036
O O3 0.562208 0.629059 0.201459
O O4 0.544360 0.590988 0.434211
O O5 0.893155 0.720211 0.183214
O O6 0.953120 0.689402 0.372000
O O7 0.000000 0.750000 0.182863
O O8 0.360942 0.687271 0.534043
O O9 0.341795 0.614408 0.735784
O O10 0.382015 0.548973 0.546449
O O11 0.249489 0.926485 0.706372
O O12 0.316338 0.026935 0.637851
O O13 0.301505 0.708142 0.882346
O O14 0.384092 0.681053 0.974291
O O15 0.318659 0.936828 0.453120
O O16 0.893980 0.064501 0.607017
#
# Coordination Sequence:
#
# PCOD9533304 Si02
#       8
#    16  16  16   8  16  16  16  16
#     4  12  24  43  69 103 141 202 256 303 355 433
#     4  12  26  42  66 103 151 194 254 299 354 430
#     4  12  22  44  73 103 143 199 240 294 386 446
#     4  12  26  44  84 114 132 178 258 312 364 462
#     4  11  25  42  71 103 145 199 239 297 375 438
#     4  11  22  48  76 104 146 189 244 302 376 450
#     4  11  24  45  76 104 142 189 241 305 380 444
#     4  11  24  44  67  96 145 194 242 302 371 434
#
# _framework density 23.741192000000002
#
# number of rings (size 3 to 8) (size 9 to 14) (size 15 to 20)
#    0.000    0.533    6.667    2.000    5.600    1.600 
#    0.000    0.667    5.867    0.000    0.000    0.000 
#    0.000    0.000    0.000    0.000    0.000    0.000 
#
# Total GULP energy -334442.433904 kJ/mol
# GULP energy per Si atom -5574.040565 kJ/mol
# Density = 2.368716 g / cm^3
# Si number density = 23.741192 Si / 1000 Ang^3
#
#
#
# Elastic Constant Matrix: (Units=GPa)
#
#
# Indices 1 2 3 4 5 6 
#
# 1 54.6511 16.6342 29.7088 0.0000 0.0000 0.0000
# 2 16.6342 57.0680 34.0497 0.0000 0.0000 0.0000
# 3 29.7088 34.0497 82.1944 0.0000 0.0000 0.0000
# 4 0.0000 0.0000 0.0000 19.7447 0.0000 0.0000
# 5 0.0000 0.0000 0.0000 0.0000 52.8089 0.0000
# 6 0.0000 0.0000 0.0000 0.0000 0.0000 79.4743
#
#
#
# Elastic Compliance Matrix: (Units=1/GPa)
#
#
# Indices 1 2 3 4 5 6 
#
# 1 0.023001 -0.002317 -0.007354 0.000000 0.000000 0.000000
# 2 -0.002317 0.023509 -0.008902 0.000000 0.000000 0.000000
# 3 -0.007354 -0.008902 0.018512 0.000000 0.000000 0.000000
# 4 0.000000 0.000000 0.000000 0.050647 0.000000 0.000000
# 5 0.000000 0.000000 0.000000 0.000000 0.018936 0.000000
# 6 0.000000 0.000000 0.000000 0.000000 0.000000 0.012583
#
#
# Mechanical properties :
#
#
# Convention : Reuss Voigt Hill
#
# Bulk Modulus (GPa) = 35.87085 39.41100 37.64093
# Shear Modulus (GPa) = 25.82325 37.97362 31.89843
#
# Velocity S-wave (km/s) = 3.30160 4.00369 3.66948
# Velocity P-wave (km/s) = 5.44757 6.16515 5.81743
#
# Compressibility (1/GPa) = 0.02787779
#
# Stress axis : x y z
#
# Youngs Moduli (GPa) = 43.47712 42.53627 54.01936
#
# Poissons Ratio (x) = 0.09854 0.39725
# Poissons Ratio (y) = 0.10072 0.48086
# Poissons Ratio (z) = 0.31972 0.37864
#
# Static dielectric constant tensor:
#      x y z
#    x 2.038740 0.000000 0.000000 
#    y 0.000000 1.957170 0.000000 
#    z 0.000000 0.000000 3.103030 
# 
# From -- ./inp_files/14353.got.cif
#   From: 2010.05.17/outbox.cif.g08.bks.cpg/sg73_8_cif.got.tgz:14353.got - 2010.06.03 17:35:07.
