data_PCOD9533093
_publ_section_title
;
Structure prediction by ZEFSAII (Michael W. Deem and Ramdas Pophale) SiO2 
 PCOD9533093
Probable space group: I B C A 
;
_chemical_formula_sum "Si O2"
_cell_formula_units_Z 120
_cell_length_a 13.684365
_cell_length_b 22.858801
_cell_length_c 19.655247
_cell_angle_alpha 90.000000
_cell_angle_beta 90.000000
_cell_angle_gamma 90.000000
_cell_volume 6148.321970
_symmetry_space_group_name_H-M "I B C A "
_symmetry_group_IT_number 73
_symmetry_cell_setting 'orthorhombic'
loop_
_space_group_symop_operation_xyz
x,y,z
-x,1/2-y,z
x,-y,1/2-z
1/2-x,y,-z
-x,-y,-z
x,1/2+y,-z
-x,y,1/2+z
1/2+x,-y,z
1/2+x,1/2+y,1/2+z
1/2-x,-y,1/2+z
1/2+x,1/2-y,-z
-x,1/2+y,1/2-z
1/2-x,1/2-y,1/2-z
1/2+x,y,1/2-z
1/2-x,1/2+y,z
x,1/2-y,1/2+z
loop_
_atom_site_type_symbol
_atom_site_label
_atom_site_fract_x
_atom_site_fract_y
_atom_site_fract_z
Si Si1 0.323270 0.665053 0.710547
Si Si2 0.118116 0.757464 0.394873
Si Si3 0.750000 0.686377 0.000000
Si Si4 0.295397 0.032775 0.072889
Si Si5 0.701907 0.910065 0.395052
Si Si6 0.496341 0.531426 0.861839
Si Si7 0.702730 0.368675 0.833885
Si Si8 0.994103 0.086307 0.715293
O O1 0.337388 0.726620 0.673105
O O2 0.250518 0.622891 0.668552
O O3 0.285183 0.662442 0.787645
O O4 0.429253 0.636617 0.701932
O O5 0.173599 0.725212 0.457026
O O6 0.153519 0.824248 0.387566
O O7 0.000000 0.750000 0.398363
O O8 0.805370 0.641368 0.049778
O O9 0.410922 0.041275 0.083907
O O10 0.245795 0.074369 0.129165
O O11 0.271576 0.964357 0.085040
O O12 0.250000 0.048229 0.000000
O O13 0.598092 0.940550 0.383872
O O14 0.503467 0.463075 0.842955
O O15 0.475241 0.559773 0.787957
O O16 0.614745 0.389101 0.785177
#
# Coordination Sequence:
#
# PCOD9533093 Si02
#       8
#    16  16   8  16  16  16  16  16
#     4  11  22  42  68  96 131 168 221 281 335 384
#     4  11  25  45  71  93 125 181 231 275 332 401
#     4  10  26  48  66  88 132 180 220 276 334 398
#     4  12  26  40  61  98 138 175 212 272 327 406
#     4  11  22  42  67  94 130 174 218 265 335 397
#     4  11  23  38  64 102 134 169 213 267 336 404
#     4  12  24  42  68  99 131 168 224 282 330 393
#     4  11  21  37  68 100 130 167 211 269 342 387
#
# _framework density 19.517520999999999
#
# number of rings (size 3 to 8) (size 9 to 14) (size 15 to 20)
#    0.000    0.800    7.333    0.400    0.933    2.133 
#    0.000    0.000    0.000    0.000    0.000    0.000 
#    0.000    0.000    0.000    0.000    0.000    0.000 
#
# Total GULP energy -334828.445813 kJ/mol
# GULP energy per Si atom -5580.474097 kJ/mol
# Density = 1.947310 g / cm^3
# Si number density = 19.517521 Si / 1000 Ang^3
#
#
#
# Elastic Constant Matrix: (Units=GPa)
#
#
# Indices 1 2 3 4 5 6 
#
# 1 92.8846 -1.4294 11.7640 0.0000 0.0000 0.0000
# 2 -1.4294 54.7288 -0.5400 0.0000 0.0000 0.0000
# 3 11.7640 -0.5400 59.0776 0.0000 0.0000 0.0000
# 4 0.0000 0.0000 0.0000 -8.4355 0.0000 0.0000
# 5 0.0000 0.0000 0.0000 0.0000 32.2030 0.0000
# 6 0.0000 0.0000 0.0000 0.0000 0.0000 30.8269
#
#
#
# Elastic Compliance Matrix: (Units=1/GPa)
#
#
# Indices 1 2 3 4 5 6 
#
# 1 0.011048 0.000267 -0.002198 0.000000 0.000000 0.000000
# 2 0.000267 0.018280 0.000114 0.000000 0.000000 0.000000
# 3 -0.002198 0.000114 0.017366 0.000000 0.000000 0.000000
# 4 0.000000 0.000000 0.000000 -0.118547 0.000000 0.000000
# 5 0.000000 0.000000 0.000000 0.000000 0.031053 0.000000
# 6 0.000000 0.000000 0.000000 0.000000 0.000000 0.032439
#
#
# Mechanical properties :
#
#
# Convention : Reuss Voigt Hill
#
# Bulk Modulus (GPa) = 23.22319 25.14226 24.18273
# Shear Modulus (GPa) = 519.41321 24.04532 271.72927
#
# Velocity S-wave (km/s) = 16.33109 3.51377 11.81209
# Velocity P-wave (km/s) = 19.17108 5.41959 14.08727
#
# Compressibility (1/GPa) = 0.04306040
#
# Stress axis : x y z
#
# Youngs Moduli (GPa) = 90.51017 54.70460 57.58534
#
# Poissons Ratio (x) = -0.01460 0.12655
# Poissons Ratio (y) = -0.02415 -0.00656
# Poissons Ratio (z) = 0.19891 -0.00623
#
# Static dielectric constant tensor:
#      x y z
#    x 1.671900 0.000000 0.000000 
#    y 0.000000 1.685470 0.000000 
#    z 0.000000 0.000000 1.697110 
# 
# From -- ./inp_files/25617.got.cif
#   From: 2010.05.17/outbox.cif.g08.bks.cpg/sg73_13_cif.got.tgz:25617.got - 2010.06.03 17:35:07.
