data_PCOD9533557
_publ_section_title
;
Structure prediction by ZEFSAII (Michael W. Deem and Ramdas Pophale) SiO2 
 PCOD9533557
Probable space group: I B C A 
;
_chemical_formula_sum "Si O2"
_cell_formula_units_Z 72
_cell_length_a 13.619557
_cell_length_b 9.499122
_cell_length_c 26.194021
_cell_angle_alpha 90.000000
_cell_angle_beta 90.000000
_cell_angle_gamma 90.000000
_cell_volume 3388.820912
_symmetry_space_group_name_H-M "I B C A "
_symmetry_group_IT_number 73
_symmetry_cell_setting 'orthorhombic'
loop_
_space_group_symop_operation_xyz
x,y,z
-x,1/2-y,z
x,-y,1/2-z
1/2-x,y,-z
-x,-y,-z
x,1/2+y,-z
-x,y,1/2+z
1/2+x,-y,z
1/2+x,1/2+y,1/2+z
1/2-x,-y,1/2+z
1/2+x,1/2-y,-z
-x,1/2+y,1/2-z
1/2-x,1/2-y,1/2-z
1/2+x,y,1/2-z
1/2-x,1/2+y,z
x,1/2-y,1/2+z
loop_
_atom_site_type_symbol
_atom_site_label
_atom_site_fract_x
_atom_site_fract_y
_atom_site_fract_z
Si Si1 0.750000 0.300172 0.500000
Si Si2 0.274949 0.240232 0.833616
Si Si3 0.282708 0.515830 0.595895
Si Si4 0.599734 0.663654 0.764766
Si Si5 0.568843 0.376643 0.022062
O O1 0.770737 0.399993 0.450951
O O2 0.843966 0.199948 0.510875
O O3 0.319995 0.362995 0.867263
O O4 0.169544 0.299863 0.813368
O O5 0.339577 0.217068 0.784019
O O6 0.268573 0.101203 0.868748
O O7 0.371881 0.439215 0.568745
O O8 0.500000 0.750000 0.770493
O O9 0.582179 0.500000 0.750000
O O10 0.500000 0.250000 0.037866
O O11 0.500000 0.500000 0.000000
#
# Coordination Sequence:
#
# PCOD9533557 Si02
#       5
#     8  16  16  16  16
#     4  12  26  48  76 102 160 200 250 310 372 430
#     4  11  26  49  75 104 147 188 243 303 372 444
#     4  12  25  47  74 105 145 201 245 300 368 439
#     4  11  26  49  76 109 143 183 236 308 378 448
#     4  12  27  46  71 107 150 206 254 310 366 433
#
# _framework density 21.246327000000001
#
# number of rings (size 3 to 8) (size 9 to 14) (size 15 to 20)
#    0.000    0.444    6.667    0.667    3.111    0.889 
#    8.000    0.000    0.000    0.000    0.000    0.000 
#    0.000    0.000    0.000    0.000    0.000    0.000 
#
# Total GULP energy -201006.633019 kJ/mol
# GULP energy per Si atom -5583.517584 kJ/mol
# Density = 2.119797 g / cm^3
# Si number density = 21.246327 Si / 1000 Ang^3
#
#
#
# Elastic Constant Matrix: (Units=GPa)
#
#
# Indices 1 2 3 4 5 6 
#
# 1 94.1705 21.8906 5.1681 0.0000 0.0000 0.0000
# 2 21.8906 136.3227 27.0759 0.0000 0.0000 0.0000
# 3 5.1681 27.0759 83.1286 0.0000 0.0000 0.0000
# 4 0.0000 0.0000 0.0000 40.2637 0.0000 0.0000
# 5 0.0000 0.0000 0.0000 0.0000 21.5431 0.0000
# 6 0.0000 0.0000 0.0000 0.0000 0.0000 35.8865
#
#
#
# Elastic Compliance Matrix: (Units=1/GPa)
#
#
# Indices 1 2 3 4 5 6 
#
# 1 0.011032 -0.001748 -0.000116 0.000000 0.000000 0.000000
# 2 -0.001748 0.008120 -0.002536 0.000000 0.000000 0.000000
# 3 -0.000116 -0.002536 0.012863 0.000000 0.000000 0.000000
# 4 0.000000 0.000000 0.000000 0.024836 0.000000 0.000000
# 5 0.000000 0.000000 0.000000 0.000000 0.046419 0.000000
# 6 0.000000 0.000000 0.000000 0.000000 0.000000 0.027866
#
#
# Mechanical properties :
#
#
# Convention : Reuss Voigt Hill
#
# Bulk Modulus (GPa) = 43.07932 46.87678 44.97805
# Shear Modulus (GPa) = 33.85825 36.83780 35.34802
#
# Velocity S-wave (km/s) = 3.99633 4.16846 4.08330
# Velocity P-wave (km/s) = 6.45092 6.72900 6.59143
#
# Compressibility (1/GPa) = 0.02321299
#
# Stress axis : x y z
#
# Youngs Moduli (GPa) = 90.64671 123.15284 77.74347
#
# Poissons Ratio (x) = 0.21532 0.00905
# Poissons Ratio (y) = 0.15848 0.19716
# Poissons Ratio (z) = 0.01055 0.31232
#
# Static dielectric constant tensor:
#      x y z
#    x 1.764270 0.000000 0.000000 
#    y 0.000000 1.659990 0.000000 
#    z 0.000000 0.000000 1.751670 
# 
# From -- ./inp_files/4811.got.cif
#   From: 2010.05.17/outbox.cif.g08.bks.cpg/sg73_3_cif.got.tgz:4811.got - 2010.06.03 17:35:07.
