data_PCOD9533690
_publ_section_title
;
Structure prediction by ZEFSAII (Michael W. Deem and Ramdas Pophale) SiO2 
 PCOD9533690
Probable space group: I B C A 
;
_chemical_formula_sum "Si O2"
_cell_formula_units_Z 80
_cell_length_a 9.443675
_cell_length_b 16.228081
_cell_length_c 23.539261
_cell_angle_alpha 90.000000
_cell_angle_beta 90.000000
_cell_angle_gamma 90.000000
_cell_volume 3607.455842
_symmetry_space_group_name_H-M "I B C A "
_symmetry_group_IT_number 73
_symmetry_cell_setting 'orthorhombic'
loop_
_space_group_symop_operation_xyz
x,y,z
-x,1/2-y,z
x,-y,1/2-z
1/2-x,y,-z
-x,-y,-z
x,1/2+y,-z
-x,y,1/2+z
1/2+x,-y,z
1/2+x,1/2+y,1/2+z
1/2-x,-y,1/2+z
1/2+x,1/2-y,-z
-x,1/2+y,1/2-z
1/2-x,1/2-y,1/2-z
1/2+x,y,1/2-z
1/2-x,1/2+y,z
x,1/2-y,1/2+z
loop_
_atom_site_type_symbol
_atom_site_label
_atom_site_fract_x
_atom_site_fract_y
_atom_site_fract_z
Si Si1 0.740789 0.171188 0.708899
Si Si2 0.376616 0.537363 0.038857
Si Si3 0.494778 0.343131 0.869032
Si Si4 0.500000 0.750000 0.867331
Si Si5 0.318239 0.092083 0.634225
Si Si6 0.290173 0.500000 0.250000
O O1 0.750000 0.250000 0.750000
O O2 0.897516 0.156419 0.683796
O O3 0.624532 0.201957 0.665250
O O4 0.702232 0.079573 0.729486
O O5 0.444615 0.602803 0.080632
O O6 0.311872 0.470115 0.081810
O O7 0.250000 0.570627 0.000000
O O8 0.500000 0.500000 0.000000
O O9 0.500000 0.250000 0.889466
O O10 0.337955 0.372200 0.853738
O O11 0.413556 0.831128 0.887994
O O12 0.362388 0.041550 0.692421
#
# Coordination Sequence:
#
# PCOD9533690 Si02
#       6
#    16  16  16   8  16   8
#     4  12  27  45  74 112 162 202 254 321 385 477
#     4  12  28  53  79 111 153 201 267 329 386 471
#     4  12  26  52  75 112 153 201 257 318 397 465
#     4  12  28  46  70 112 156 198 260 316 384 474
#     4  12  28  48  80 113 152 207 259 322 402 473
#     4  12  26  46  78 110 154 208 258 308 406 476
#
# _framework density 22.176293000000001
#
# number of rings (size 3 to 8) (size 9 to 14) (size 15 to 20)
#    0.000    0.000    8.000    0.000    9.800    1.600 
#    5.400    0.000    0.000    0.000    0.000    0.000 
#    0.000    0.000    0.000    0.000    0.000    0.000 
#
# Total GULP energy -223146.059100 kJ/mol
# GULP energy per Si atom -5578.651477 kJ/mol
# Density = 2.212582 g / cm^3
# Si number density = 22.176293 Si / 1000 Ang^3
#
#
#
# Elastic Constant Matrix: (Units=GPa)
#
#
# Indices 1 2 3 4 5 6 
#
# 1 119.5673 25.6529 23.8478 0.0000 0.0000 0.0000
# 2 25.6529 170.2732 29.4834 0.0000 0.0000 0.0000
# 3 23.8478 29.4834 73.4578 0.0000 0.0000 0.0000
# 4 0.0000 0.0000 0.0000 -286.5278 0.0000 0.0000
# 5 0.0000 0.0000 0.0000 0.0000 44.1249 0.0000
# 6 0.0000 0.0000 0.0000 0.0000 0.0000 34.4155
#
#
#
# Elastic Compliance Matrix: (Units=1/GPa)
#
#
# Indices 1 2 3 4 5 6 
#
# 1 0.009075 -0.000921 -0.002576 0.000000 0.000000 0.000000
# 2 -0.000921 0.006405 -0.002272 0.000000 0.000000 0.000000
# 3 -0.002576 -0.002272 0.015362 0.000000 0.000000 0.000000
# 4 0.000000 0.000000 0.000000 -0.003490 0.000000 0.000000
# 5 0.000000 0.000000 0.000000 0.000000 0.022663 0.000000
# 6 0.000000 0.000000 0.000000 0.000000 0.000000 0.029057
#
#
# Mechanical properties :
#
#
# Convention : Reuss Voigt Hill
#
# Bulk Modulus (GPa) = 51.80557 57.91850 54.86203
# Shear Modulus (GPa) = 51.52305 -22.64320 14.43992
#
# Velocity S-wave (km/s) = 4.82533 -3.19886 2.55452
# Velocity P-wave (km/s) = 7.37947 3.53983 5.78736
#
# Compressibility (1/GPa) = 0.01930294
#
# Stress axis : x y z
#
# Youngs Moduli (GPa) = 110.19296 156.12697 65.09781
#
# Poissons Ratio (x) = 0.14381 0.16772
# Poissons Ratio (y) = 0.10150 0.14788
# Poissons Ratio (z) = 0.28391 0.35468
#
# Static dielectric constant tensor:
#      x y z
#    x 1.809000 0.000000 0.000000 
#    y 0.000000 1.813110 0.000000 
#    z 0.000000 0.000000 2.041350 
# 
# From -- ./inp_files/31132.got.cif
#   From: 2010.05.17/outbox.cif.g08.bks.cpg/sg73_16_cif.got.tgz:31132.got - 2010.06.03 17:35:07.
