data_PCOD9533989
_publ_section_title
;
Structure prediction by ZEFSAII (Michael W. Deem and Ramdas Pophale) SiO2 
 PCOD9533989
Probable space group: I M M A
;
_chemical_formula_sum "Si O2"
_cell_formula_units_Z 96
_cell_length_a 7.339181
_cell_length_b 25.393713
_cell_length_c 31.218780
_cell_angle_alpha 90.000000
_cell_angle_beta 90.000000
_cell_angle_gamma 90.000000
_cell_volume 5818.214557
_symmetry_space_group_name_H-M "I M M A"
_symmetry_group_IT_number 74
_symmetry_cell_setting 'orthorhombic'
loop_
_space_group_symop_operation_xyz
x,y,z
-x,1/2-y,z
x,-y,-z
-x,1/2+y,-z
-x,-y,-z
x,1/2+y,-z
-x,y,z
x,1/2-y,z
1/2+x,1/2+y,1/2+z
1/2-x,-y,1/2+z
1/2+x,1/2-y,1/2-z
1/2-x,y,1/2-z
1/2-x,1/2-y,1/2-z
1/2+x,y,1/2-z
1/2-x,1/2+y,1/2+z
1/2+x,-y,1/2+z
loop_
_atom_site_type_symbol
_atom_site_label
_atom_site_fract_x
_atom_site_fract_y
_atom_site_fract_z
Si Si1 0.222339 0.578579 0.026955
Si Si2 0.777577 0.532549 0.935665
Si Si3 0.710773 0.192543 0.534049
Si Si4 0.704228 0.393649 0.365429
Si Si5 0.781435 0.307879 0.433406
Si Si6 0.282168 0.191084 0.300473
O O1 0.274732 0.527463 0.054342
O O2 0.287396 0.634821 0.044791
O O3 0.000000 0.580333 0.026180
O O4 0.278857 0.566343 0.977720
O O5 0.712912 0.556659 0.890647
O O6 0.000000 0.534425 0.934928
O O7 0.500000 0.193209 0.547775
O O8 0.789947 0.250000 0.546376
O O9 0.717437 0.190860 0.482273
O O10 0.500000 0.408778 0.351339
O O11 0.695765 0.351938 0.404302
O O12 0.790112 0.358246 0.327882
O O13 0.736243 0.250000 0.416077
O O14 0.000000 0.313852 0.433166
O O15 0.500000 0.191992 0.307852
O O16 0.212711 0.250000 0.311751
O O17 0.250000 0.183925 0.250000
#
# Coordination Sequence:
#
# PCOD9533989 Si02
#       6
#    16  16  16  16  16  16
#     4   8  12  20  33  51  71  89 111 141 175 203
#     4   8  13  20  34  53  70  87 110 142 175 202
#     4   9  15  23  36  50  64  87 119 148 170 198
#     4  10  17  27  42  56  66  84 117 148 171 205
#     4  10  19  26  32  47  70  91 110 140 182 214
#     4   9  18  30  42  55  70  88 111 141 178 216
#
# _framework density 16.499905999999999
#
# number of rings (size 3 to 8) (size 9 to 14) (size 15 to 20)
#    0.000    3.000    1.667    2.000    0.000    2.333 
#    0.000    1.667    0.000    2.000    0.000    0.000 
#    0.000    0.000    0.000    0.000    0.000    0.833 
#
# Total GULP energy -267286.287431 kJ/mol
# GULP energy per Si atom -5568.464321 kJ/mol
# Density = 1.646235 g / cm^3
# Si number density = 16.499906 Si / 1000 Ang^3
#
#
#
# Elastic Constant Matrix: (Units=GPa)
#
#
# Indices 1 2 3 4 5 6 
#
# 1 67.5747 4.4749 -2.0846 0.0000 0.0000 0.0000
# 2 4.4749 150.5711 41.1348 0.0000 0.0000 0.0000
# 3 -2.0846 41.1348 60.6649 0.0000 0.0000 0.0000
# 4 0.0000 0.0000 0.0000 28.2782 0.0000 0.0000
# 5 0.0000 0.0000 0.0000 0.0000 -3.7080 0.0000
# 6 0.0000 0.0000 0.0000 0.0000 0.0000 0.9424
#
#
#
# Elastic Compliance Matrix: (Units=1/GPa)
#
#
# Indices 1 2 3 4 5 6 
#
# 1 0.014876 -0.000714 0.000995 0.000000 0.000000 0.000000
# 2 -0.000714 0.008186 -0.005575 0.000000 0.000000 0.000000
# 3 0.000995 -0.005575 0.020298 0.000000 0.000000 0.000000
# 4 0.000000 0.000000 0.000000 0.035363 0.000000 0.000000
# 5 0.000000 0.000000 0.000000 0.000000 -0.269688 0.000000
# 6 0.000000 0.000000 0.000000 0.000000 0.000000 1.061164
#
#
# Mechanical properties :
#
#
# Convention : Reuss Voigt Hill
#
# Bulk Modulus (GPa) = 30.51276 40.65122 35.58199
# Shear Modulus (GPa) = 5.60720 20.78822 13.19771
#
# Velocity S-wave (km/s) = 1.84545 3.55336 2.83126
# Velocity P-wave (km/s) = 4.80352 6.44406 5.68329
#
# Compressibility (1/GPa) = 0.03277317
#
# Stress axis : x y z
#
# Youngs Moduli (GPa) = 67.22047 122.16533 49.26505
#
# Poissons Ratio (x) = 0.08723 -0.04904
# Poissons Ratio (y) = 0.04800 0.27465
# Poissons Ratio (z) = -0.06691 0.68106
#
# Static dielectric constant tensor:
#      x y z
#    x 1.525420 0.000000 0.000000 
#    y 0.000000 1.639300 0.000000 
#    z 0.000000 0.000000 1.529220 
# 
# From -- ./inp_files/64907.got.cif
#   From: 2010.05.17/outbox.cif.g08.bks.cpg/sg74_33_cif.got.tgz:64907.got - 2010.06.03 17:57:02.
