data_PCOD9533236
_publ_section_title
;
Structure prediction by ZEFSAII (Michael W. Deem and Ramdas Pophale) SiO2 
 PCOD9533236
Probable space group: I B C A 
;
_chemical_formula_sum "Si O2"
_cell_formula_units_Z 96
_cell_length_a 19.846998
_cell_length_b 27.738236
_cell_length_c 8.722044
_cell_angle_alpha 90.000000
_cell_angle_beta 90.000000
_cell_angle_gamma 90.000000
_cell_volume 4801.665894
_symmetry_space_group_name_H-M "I B C A "
_symmetry_group_IT_number 73
_symmetry_cell_setting 'orthorhombic'
loop_
_space_group_symop_operation_xyz
x,y,z
-x,1/2-y,z
x,-y,1/2-z
1/2-x,y,-z
-x,-y,-z
x,1/2+y,-z
-x,y,1/2+z
1/2+x,-y,z
1/2+x,1/2+y,1/2+z
1/2-x,-y,1/2+z
1/2+x,1/2-y,-z
-x,1/2+y,1/2-z
1/2-x,1/2-y,1/2-z
1/2+x,y,1/2-z
1/2-x,1/2+y,z
x,1/2-y,1/2+z
loop_
_atom_site_type_symbol
_atom_site_label
_atom_site_fract_x
_atom_site_fract_y
_atom_site_fract_z
Si Si1 0.872651 0.403911 0.223001
Si Si2 0.427762 0.695910 0.357004
Si Si3 0.235003 0.052795 0.679879
Si Si4 0.383233 0.105173 0.142140
Si Si5 0.003520 0.537090 0.641735
Si Si6 0.079556 0.203756 0.726322
O O1 0.895799 0.353375 0.295893
O O2 0.796584 0.414904 0.264606
O O3 0.923772 0.445206 0.292577
O O4 0.871012 0.401324 0.038676
O O5 0.504762 0.697513 0.297645
O O6 0.395713 0.743780 0.280694
O O7 0.424578 0.699464 0.541862
O O8 0.250000 0.048995 0.500000
O O9 0.165833 0.075306 0.745382
O O10 0.240847 0.000000 0.750000
O O11 0.459617 0.085116 0.146853
O O12 0.379517 0.159837 0.200192
O O13 0.965507 0.500000 0.750000
O O14 0.000000 0.500000 0.500000
#
# Coordination Sequence:
#
# PCOD9533236 Si02
#       6
#    16  16  16  16  16  16
#     4  12  25  44  67  98 135 178 224 276 337 398
#     4  11  22  39  65  98 134 171 219 277 339 399
#     4  12  28  46  68  95 136 183 227 273 334 402
#     4  12  25  44  68  98 135 178 224 276 338 399
#     4  12  26  40  66  99 134 173 226 284 331 392
#     4  11  22  39  65  98 133 171 218 277 341 397
#
# _framework density 19.99306
#
# number of rings (size 3 to 8) (size 9 to 14) (size 15 to 20)
#    0.000    0.333    3.333    7.500    7.000    0.000 
#    0.000    0.833    0.000    0.000    0.000    0.000 
#    0.000    0.000    0.000    0.000    0.000    0.000 
#
# Total GULP energy -267592.994675 kJ/mol
# GULP energy per Si atom -5574.854056 kJ/mol
# Density = 1.994756 g / cm^3
# Si number density = 19.993060 Si / 1000 Ang^3
#
#
#
# Elastic Constant Matrix: (Units=GPa)
#
#
# Indices 1 2 3 4 5 6 
#
# 1 55.5903 11.3806 19.2425 0.0000 0.0000 0.0000
# 2 11.3806 133.5658 32.0886 0.0000 0.0000 0.0000
# 3 19.2425 32.0886 165.8255 0.0000 0.0000 0.0000
# 4 0.0000 0.0000 0.0000 14.2645 0.0000 0.0000
# 5 0.0000 0.0000 0.0000 0.0000 14.9263 0.0000
# 6 0.0000 0.0000 0.0000 0.0000 0.0000 66.1954
#
#
#
# Elastic Compliance Matrix: (Units=1/GPa)
#
#
# Indices 1 2 3 4 5 6 
#
# 1 0.018905 -0.001137 -0.001974 0.000000 0.000000 0.000000
# 2 -0.001137 0.007920 -0.001401 0.000000 0.000000 0.000000
# 3 -0.001974 -0.001401 0.006531 0.000000 0.000000 0.000000
# 4 0.000000 0.000000 0.000000 0.070104 0.000000 0.000000
# 5 0.000000 0.000000 0.000000 0.000000 0.066996 0.000000
# 6 0.000000 0.000000 0.000000 0.000000 0.000000 0.015107
#
#
# Mechanical properties :
#
#
# Convention : Reuss Voigt Hill
#
# Bulk Modulus (GPa) = 41.09603 53.37835 47.23719
# Shear Modulus (GPa) = 24.66756 38.56191 31.61473
#
# Velocity S-wave (km/s) = 3.51637 4.39653 3.98085
# Velocity P-wave (km/s) = 6.08985 7.24770 6.69385
#
# Compressibility (1/GPa) = 0.02433325
#
# Stress axis : x y z
#
# Youngs Moduli (GPa) = 52.89701 126.25761 153.12690
#
# Poissons Ratio (x) = 0.14350 0.30224
# Poissons Ratio (y) = 0.06012 0.21449
# Poissons Ratio (z) = 0.10441 0.17686
#
# Static dielectric constant tensor:
#      x y z
#    x 1.734150 0.000000 0.000000 
#    y 0.000000 1.717240 0.000000 
#    z 0.000000 0.000000 -9.516740 
# 
# From -- ./inp_files/6460.got.cif
#   From: 2010.05.17/outbox.cif.g08.bks.cpg/sg73_4_cif.got.tgz:6460.got - 2010.06.03 17:35:07.
