data_PCOD9533935
_publ_section_title
;
Structure prediction by ZEFSAII (Michael W. Deem and Ramdas Pophale) SiO2 
 PCOD9533935
Probable space group: I M M A
;
_chemical_formula_sum "Si O2"
_cell_formula_units_Z 68
_cell_length_a 16.315431
_cell_length_b 23.641857
_cell_length_c 6.770295
_cell_angle_alpha 90.000000
_cell_angle_beta 90.000000
_cell_angle_gamma 90.000000
_cell_volume 2611.486166
_symmetry_space_group_name_H-M "I M M A"
_symmetry_group_IT_number 74
_symmetry_cell_setting 'orthorhombic'
loop_
_space_group_symop_operation_xyz
x,y,z
-x,1/2-y,z
x,-y,-z
-x,1/2+y,-z
-x,-y,-z
x,1/2+y,-z
-x,y,z
x,1/2-y,z
1/2+x,1/2+y,1/2+z
1/2-x,-y,1/2+z
1/2+x,1/2-y,1/2-z
1/2-x,y,1/2-z
1/2-x,1/2-y,1/2-z
1/2+x,y,1/2-z
1/2-x,1/2+y,1/2+z
1/2+x,-y,1/2+z
loop_
_atom_site_type_symbol
_atom_site_label
_atom_site_fract_x
_atom_site_fract_y
_atom_site_fract_z
Si Si1 0.326042 0.312697 0.040537
Si Si2 0.358544 0.165801 0.592028
Si Si3 0.596678 0.544802 0.287837
Si Si4 0.597051 0.576492 0.823989
Si Si5 0.000000 0.750000 0.975188
O O1 0.344299 0.250000 0.117813
O O2 0.368297 0.318046 0.825443
O O3 0.230602 0.317129 0.985496
O O4 0.354321 0.364612 0.177054
O O5 0.364797 0.097641 0.597690
O O6 0.429372 0.200413 0.489043
O O7 0.500000 0.544734 0.333402
O O8 0.603710 0.559732 0.055485
O O9 0.625686 0.479560 0.294837
O O10 0.500000 0.585084 0.783936
#
# Coordination Sequence:
#
# PCOD9533935 Si02
#       5
#    16  16  16  16   4
#     4  10  17  24  31  52  82 105 125 159 189 243
#     4  10  17  23  34  52  79 107 133 155 190 239
#     4   8  13  23  35  49  67 100 135 163 185 232
#     4   8  15  23  35  49  70 103 134 158 194 230
#     4  12  16  22  36  54  78 118 126 152 198 234
#
# _framework density 26.038813999999999
#
# number of rings (size 3 to 8) (size 9 to 14) (size 15 to 20)
#    0.000    2.824    3.529    2.118    1.647    0.471 
#    0.000    0.000    0.000    0.000    0.000    0.000 
#    3.529    6.824    4.000   19.529    0.235   19.294 
#
# Total GULP energy -189923.787536 kJ/mol
# GULP energy per Si atom -5585.993751 kJ/mol
# Density = 2.597955 g / cm^3
# Si number density = 26.038814 Si / 1000 Ang^3
#
#
#
# Elastic Constant Matrix: (Units=GPa)
#
#
# Indices 1 2 3 4 5 6 
#
# 1 60.8123 74.5884 22.7546 0.0000 0.0000 0.0000
# 2 74.5884 313.2468 87.0442 0.0000 0.0000 0.0000
# 3 22.7546 87.0442 97.3127 0.0000 0.0000 0.0000
# 4 0.0000 0.0000 0.0000 57.1783 0.0000 0.0000
# 5 0.0000 0.0000 0.0000 0.0000 -16.5611 0.0000
# 6 0.0000 0.0000 0.0000 0.0000 0.0000 33.6115
#
#
#
# Elastic Compliance Matrix: (Units=1/GPa)
#
#
# Indices 1 2 3 4 5 6 
#
# 1 0.023258 -0.005359 -0.000645 0.000000 0.000000 0.000000
# 2 -0.005359 0.005483 -0.003651 0.000000 0.000000 0.000000
# 3 -0.000645 -0.003651 0.013693 0.000000 0.000000 0.000000
# 4 0.000000 0.000000 0.000000 0.017489 0.000000 0.000000
# 5 0.000000 0.000000 0.000000 0.000000 -0.060383 0.000000
# 6 0.000000 0.000000 0.000000 0.000000 0.000000 0.029752
#
#
# Mechanical properties :
#
#
# Convention : Reuss Voigt Hill
#
# Bulk Modulus (GPa) = 43.24568 93.34957 68.29763
# Shear Modulus (GPa) = 88.79232 33.97807 61.38519
#
# Velocity S-wave (km/s) = 5.84585 3.61626 4.86063
# Velocity P-wave (km/s) = 7.88730 7.30510 7.60178
#
# Compressibility (1/GPa) = 0.02312370
#
# Stress axis : x y z
#
# Youngs Moduli (GPa) = 42.99553 182.38098 73.02957
#
# Poissons Ratio (x) = 0.97735 0.04711
# Poissons Ratio (y) = 0.23041 0.26666
# Poissons Ratio (z) = 0.02774 0.66595
#
# Static dielectric constant tensor:
#      x y z
#    x 1.918860 0.000000 0.000000 
#    y 0.000000 2.046960 0.000000 
#    z 0.000000 0.000000 2.185110 
# 
# From -- ./inp_files/33894.got.cif
#   From: 2010.05.17/outbox.cif.g08.bks.cpg/sg74_17_cif.got.tgz:33894.got - 2010.06.03 17:57:02.
