data_PCOD9533530
_publ_section_title
;
Structure prediction by ZEFSAII (Michael W. Deem and Ramdas Pophale) SiO2 
 PCOD9533530
Probable space group: I B C A 
;
_chemical_formula_sum "Si O2"
_cell_formula_units_Z 48
_cell_length_a 9.056436
_cell_length_b 15.764811
_cell_length_c 13.716125
_cell_angle_alpha 90.000000
_cell_angle_beta 90.000000
_cell_angle_gamma 90.000000
_cell_volume 1958.292340
_symmetry_space_group_name_H-M "I B C A "
_symmetry_group_IT_number 73
_symmetry_cell_setting 'orthorhombic'
loop_
_space_group_symop_operation_xyz
x,y,z
-x,1/2-y,z
x,-y,1/2-z
1/2-x,y,-z
-x,-y,-z
x,1/2+y,-z
-x,y,1/2+z
1/2+x,-y,z
1/2+x,1/2+y,1/2+z
1/2-x,-y,1/2+z
1/2+x,1/2-y,-z
-x,1/2+y,1/2-z
1/2-x,1/2-y,1/2-z
1/2+x,y,1/2-z
1/2-x,1/2+y,z
x,1/2-y,1/2+z
loop_
_atom_site_type_symbol
_atom_site_label
_atom_site_fract_x
_atom_site_fract_y
_atom_site_fract_z
Si Si1 0.329662 0.177050 0.100915
Si Si2 0.622649 0.817665 0.696605
Si Si3 0.073752 0.090879 0.509569
O O1 0.320838 0.133346 0.207907
O O2 0.243520 0.263029 0.135744
O O3 0.250000 0.150915 0.000000
O O4 0.496732 0.157087 0.064865
O O5 0.500000 0.750000 0.732138
O O6 0.545496 0.876021 0.618221
O O7 0.250000 0.084236 0.500000
O O8 0.000000 0.000000 0.500000
#
# Coordination Sequence:
#
# PCOD9533530 Si02
#       3
#    16  16  16
#     4  11  25  47  77 115 158 202 270 331 406 480
#     4  11  26  43  81 115 154 207 269 337 400 493
#     4  12  29  49  76 111 162 211 263 334 407 487
#
# _framework density 24.511150000000001
#
# number of rings (size 3 to 8) (size 9 to 14) (size 15 to 20)
#    0.000    0.667    3.333    2.000   14.000    1.333 
#    0.000    3.333    0.000    0.000    0.000    0.000 
#    0.000    0.000    0.000    0.000    0.000    0.000 
#
# Total GULP energy -133742.808824 kJ/mol
# GULP energy per Si atom -5572.617034 kJ/mol
# Density = 2.445536 g / cm^3
# Si number density = 24.511150 Si / 1000 Ang^3
#
#
#
# Elastic Constant Matrix: (Units=GPa)
#
#
# Indices 1 2 3 4 5 6 
#
# 1 177.9400 55.7620 37.1869 0.0000 0.0000 0.0000
# 2 55.7620 91.0381 79.7128 0.0000 0.0000 0.0000
# 3 37.1869 79.7128 212.8075 0.0000 0.0000 0.0000
# 4 0.0000 0.0000 0.0000 13.2659 0.0000 0.0000
# 5 0.0000 0.0000 0.0000 0.0000 53.1151 0.0000
# 6 0.0000 0.0000 0.0000 0.0000 0.0000 48.3332
#
#
#
# Elastic Compliance Matrix: (Units=1/GPa)
#
#
# Indices 1 2 3 4 5 6 
#
# 1 0.007001 -0.004787 0.000570 0.000000 0.000000 0.000000
# 2 -0.004787 0.019619 -0.006512 0.000000 0.000000 0.000000
# 3 0.000570 -0.006512 0.007039 0.000000 0.000000 0.000000
# 4 0.000000 0.000000 0.000000 0.075381 0.000000 0.000000
# 5 0.000000 0.000000 0.000000 0.000000 0.018827 0.000000
# 6 0.000000 0.000000 0.000000 0.000000 0.000000 0.020690
#
#
# Mechanical properties :
#
#
# Convention : Reuss Voigt Hill
#
# Bulk Modulus (GPa) = 81.97101 91.90102 86.93601
# Shear Modulus (GPa) = 28.72217 43.55109 36.13663
#
# Velocity S-wave (km/s) = 3.42687 4.21977 3.84382
# Velocity P-wave (km/s) = 7.01234 7.83051 7.43269
#
# Compressibility (1/GPa) = 0.01219944
#
# Stress axis : x y z
#
# Youngs Moduli (GPa) = 142.83788 50.97206 142.06898
#
# Poissons Ratio (x) = 0.24401 -0.08094
# Poissons Ratio (y) = 0.68377 0.92518
# Poissons Ratio (z) = -0.08138 0.33194
#
# Static dielectric constant tensor:
#      x y z
#    x 2.070250 0.000000 0.000000 
#    y 0.000000 2.021840 0.000000 
#    z 0.000000 0.000000 1.976630 
# 
# From -- ./inp_files/3749.got.cif
#   From: 2010.05.17/outbox.cif.g08.bks.cpg/sg73_2_cif.got.tgz:3749.got - 2010.06.03 17:35:07.
