data_PCOD9533885
_publ_section_title
;
Structure prediction by ZEFSAII (Michael W. Deem and Ramdas Pophale) SiO2 
 PCOD9533885
Probable space group: I M M A
;
_chemical_formula_sum "Si O2"
_cell_formula_units_Z 80
_cell_length_a 19.060200
_cell_length_b 24.444497
_cell_length_c 9.259925
_cell_angle_alpha 90.000000
_cell_angle_beta 90.000000
_cell_angle_gamma 90.000000
_cell_volume 4314.356492
_symmetry_space_group_name_H-M "I M M A"
_symmetry_group_IT_number 74
_symmetry_cell_setting 'orthorhombic'
loop_
_space_group_symop_operation_xyz
x,y,z
-x,1/2-y,z
x,-y,-z
-x,1/2+y,-z
-x,-y,-z
x,1/2+y,-z
-x,y,z
x,1/2-y,z
1/2+x,1/2+y,1/2+z
1/2-x,-y,1/2+z
1/2+x,1/2-y,1/2-z
1/2-x,y,1/2-z
1/2-x,1/2-y,1/2-z
1/2+x,y,1/2-z
1/2-x,1/2+y,1/2+z
1/2+x,-y,1/2+z
loop_
_atom_site_type_symbol
_atom_site_label
_atom_site_fract_x
_atom_site_fract_y
_atom_site_fract_z
Si Si1 0.919301 0.141430 0.718547
Si Si2 0.921694 0.250000 0.917139
Si Si3 0.831412 0.250000 0.202197
Si Si4 0.312047 0.864002 0.656722
Si Si5 0.918145 0.435442 0.983197
Si Si6 0.786115 0.685828 0.407841
O O1 0.858164 0.151663 0.603283
O O2 0.000000 0.137469 0.665587
O O3 0.915797 0.196051 0.819206
O O4 0.904368 0.090153 0.824172
O O5 0.863860 0.250000 0.040471
O O6 0.000000 0.250000 0.982827
O O7 0.750000 0.250000 0.250000
O O8 0.848370 0.313055 0.242769
O O9 0.250000 0.890266 0.750000
O O10 0.369313 0.904046 0.595010
O O11 0.268514 0.837904 0.522720
O O12 0.000000 0.423493 0.011687
O O13 0.907209 0.500000 0.000000
O O14 0.801028 0.750000 0.438342
O O15 0.750000 0.683238 0.250000
#
# Coordination Sequence:
#
# PCOD9533885 Si02
#       6
#    16   8   8  16  16  16
#     4  10  19  32  54  82 110 141 184 233 278 327
#     4  10  16  27  51  79 102 134 183 230 270 320
#     4  10  18  29  49  75 107 144 177 208 265 328
#     4  11  22  37  54  83 118 152 182 223 278 340
#     4  10  21  39  60  80 106 146 198 242 274 321
#     4  11  19  31  55  85 115 145 181 223 284 338
#
# _framework density 18.542743000000002
#
# number of rings (size 3 to 8) (size 9 to 14) (size 15 to 20)
#    0.000    1.600    6.000    0.000    0.000    0.000 
#    3.600    1.000    0.000    1.200    0.000    4.200 
#    0.000    0.000    0.000    0.000    0.000    0.000 
#
# Total GULP energy -222836.303068 kJ/mol
# GULP energy per Si atom -5570.907577 kJ/mol
# Density = 1.850054 g / cm^3
# Si number density = 18.542743 Si / 1000 Ang^3
#
#
#
# Elastic Constant Matrix: (Units=GPa)
#
#
# Indices 1 2 3 4 5 6 
#
# 1 105.0185 59.1409 29.3542 0.0000 0.0000 0.0000
# 2 59.1409 95.5007 23.2283 0.0000 0.0000 0.0000
# 3 29.3542 23.2283 43.8754 0.0000 0.0000 0.0000
# 4 0.0000 0.0000 0.0000 12.1693 0.0000 0.0000
# 5 0.0000 0.0000 0.0000 0.0000 36.3806 0.0000
# 6 0.0000 0.0000 0.0000 0.0000 0.0000 28.5350
#
#
#
# Elastic Compliance Matrix: (Units=1/GPa)
#
#
# Indices 1 2 3 4 5 6 
#
# 1 0.015992 -0.008380 -0.006263 0.000000 0.000000 0.000000
# 2 -0.008380 0.016410 -0.003081 0.000000 0.000000 0.000000
# 3 -0.006263 -0.003081 0.028613 0.000000 0.000000 0.000000
# 4 0.000000 0.000000 0.000000 0.082174 0.000000 0.000000
# 5 0.000000 0.000000 0.000000 0.000000 0.027487 0.000000
# 6 0.000000 0.000000 0.000000 0.000000 0.000000 0.035045
#
#
# Mechanical properties :
#
#
# Convention : Reuss Voigt Hill
#
# Bulk Modulus (GPa) = 39.11259 51.98237 45.54748
# Shear Modulus (GPa) = 20.02478 24.26173 22.14325
#
# Velocity S-wave (km/s) = 3.28979 3.62114 3.45943
# Velocity P-wave (km/s) = 5.96400 6.75116 6.36975
#
# Compressibility (1/GPa) = 0.02556722
#
# Stress axis : x y z
#
# Youngs Moduli (GPa) = 62.53202 60.93821 34.94922
#
# Poissons Ratio (x) = 0.51066 0.21887
# Poissons Ratio (y) = 0.52402 0.10768
# Poissons Ratio (z) = 0.39161 0.18776
#
# Static dielectric constant tensor:
#      x y z
#    x 1.670000 0.000000 0.000000 
#    y 0.000000 1.648900 0.000000 
#    z 0.000000 0.000000 1.704780 
# 
# From -- ./inp_files/12313.got.cif
#   From: 2010.05.17/outbox.cif.g08.bks.cpg/sg74_7_cif.got.tgz:12313.got - 2010.06.03 17:57:02.
