data_PCOD9533248
_publ_section_title
;
Structure prediction by ZEFSAII (Michael W. Deem and Ramdas Pophale) SiO2 
 PCOD9533248
Probable space group: I B C A 
;
_chemical_formula_sum "Si O2"
_cell_formula_units_Z 80
_cell_length_a 20.069220
_cell_length_b 21.102712
_cell_length_c 8.577275
_cell_angle_alpha 90.000000
_cell_angle_beta 90.000000
_cell_angle_gamma 90.000000
_cell_volume 3632.604362
_symmetry_space_group_name_H-M "I B C A "
_symmetry_group_IT_number 73
_symmetry_cell_setting 'orthorhombic'
loop_
_space_group_symop_operation_xyz
x,y,z
-x,1/2-y,z
x,-y,1/2-z
1/2-x,y,-z
-x,-y,-z
x,1/2+y,-z
-x,y,1/2+z
1/2+x,-y,z
1/2+x,1/2+y,1/2+z
1/2-x,-y,1/2+z
1/2+x,1/2-y,-z
-x,1/2+y,1/2-z
1/2-x,1/2-y,1/2-z
1/2+x,y,1/2-z
1/2-x,1/2+y,z
x,1/2-y,1/2+z
loop_
_atom_site_type_symbol
_atom_site_label
_atom_site_fract_x
_atom_site_fract_y
_atom_site_fract_z
Si Si1 0.823242 0.281363 0.523430
Si Si2 0.136641 0.167868 0.856081
Si Si3 0.665301 0.500000 0.750000
Si Si4 0.250000 0.421747 0.500000
Si Si5 0.489063 0.173154 0.342519
Si Si6 0.595630 0.878845 0.363653
O O1 0.750000 0.255711 0.500000
O O2 0.831360 0.303378 0.698645
O O3 0.871953 0.225239 0.476428
O O4 0.838327 0.338342 0.404156
O O5 0.189154 0.118323 0.924105
O O6 0.063647 0.151489 0.792432
O O7 0.713236 0.537298 0.631863
O O8 0.618755 0.450845 0.654556
O O9 0.500000 0.250000 0.341662
O O10 0.558451 0.141309 0.294081
O O11 0.453070 0.144693 0.496007
#
# Coordination Sequence:
#
# PCOD9533248 Si02
#       6
#    16  16   8   8  16  16
#     4  11  22  40  71 108 140 180 236 308 386 451
#     4  11  25  41  73 107 148 181 235 311 388 442
#     4  12  32  52  72 102 148 210 266 314 368 450
#     4  12  30  52  74 104 148 204 264 324 372 446
#     4  11  24  45  75 117 149 189 242 317 388 463
#     4  11  27  45  73 104 154 194 249 301 377 451
#
# _framework density 22.022767000000002
#
# number of rings (size 3 to 8) (size 9 to 14) (size 15 to 20)
#    0.000    0.800    3.000    2.400   15.400    0.800 
#    0.000    0.000    0.000    0.000    0.000    0.000 
#    0.000    0.000    0.000    0.000    0.000    0.000 
#
# Total GULP energy -223459.432815 kJ/mol
# GULP energy per Si atom -5586.485820 kJ/mol
# Density = 2.197264 g / cm^3
# Si number density = 22.022767 Si / 1000 Ang^3
#
#
#
# Elastic Constant Matrix: (Units=GPa)
#
#
# Indices 1 2 3 4 5 6 
#
# 1 77.2781 38.3307 46.4948 0.0000 0.0000 0.0000
# 2 38.3307 135.7594 57.2611 0.0000 0.0000 0.0000
# 3 46.4948 57.2611 76.2597 0.0000 0.0000 0.0000
# 4 0.0000 0.0000 0.0000 21.5727 0.0000 0.0000
# 5 0.0000 0.0000 0.0000 0.0000 46.5978 0.0000
# 6 0.0000 0.0000 0.0000 0.0000 0.0000 34.3390
#
#
#
# Elastic Compliance Matrix: (Units=1/GPa)
#
#
# Indices 1 2 3 4 5 6 
#
# 1 0.020490 -0.000755 -0.011925 0.000000 0.000000 0.000000
# 2 -0.000755 0.010808 -0.007655 0.000000 0.000000 0.000000
# 3 -0.011925 -0.007655 0.026132 0.000000 0.000000 0.000000
# 4 0.000000 0.000000 0.000000 0.046355 0.000000 0.000000
# 5 0.000000 0.000000 0.000000 0.000000 0.021460 0.000000
# 6 0.000000 0.000000 0.000000 0.000000 0.000000 0.029121
#
#
# Mechanical properties :
#
#
# Convention : Reuss Voigt Hill
#
# Bulk Modulus (GPa) = 59.67131 63.71894 61.69512
# Shear Modulus (GPa) = 24.92237 30.31594 27.61916
#
# Velocity S-wave (km/s) = 3.36767 3.71424 3.54520
# Velocity P-wave (km/s) = 6.50198 6.88405 6.69574
#
# Compressibility (1/GPa) = 0.01675847
#
# Stress axis : x y z
#
# Youngs Moduli (GPa) = 48.80472 92.52487 38.26779
#
# Poissons Ratio (x) = 0.06988 0.45636
# Poissons Ratio (y) = 0.03686 0.29293
# Poissons Ratio (z) = 0.58201 0.70827
#
# Static dielectric constant tensor:
#      x y z
#    x 1.814790 0.000000 0.000000 
#    y 0.000000 1.765940 0.000000 
#    z 0.000000 0.000000 1.861900 
# 
# From -- ./inp_files/7014.got.cif
#   From: 2010.05.17/outbox.cif.g08.bks.cpg/sg73_4_cif.got.tgz:7014.got - 2010.06.03 17:35:07.
