data_PCOD9533965
_publ_section_title
;
Structure prediction by ZEFSAII (Michael W. Deem and Ramdas Pophale) SiO2 
 PCOD9533965
Probable space group: I M M A
;
_chemical_formula_sum "Si O2"
_cell_formula_units_Z 96
_cell_length_a 30.794501
_cell_length_b 7.962535
_cell_length_c 34.802359
_cell_angle_alpha 90.000000
_cell_angle_beta 90.000000
_cell_angle_gamma 90.000000
_cell_volume 8533.618195
_symmetry_space_group_name_H-M "I M M A"
_symmetry_group_IT_number 74
_symmetry_cell_setting 'orthorhombic'
loop_
_space_group_symop_operation_xyz
x,y,z
-x,1/2-y,z
x,-y,-z
-x,1/2+y,-z
-x,-y,-z
x,1/2+y,-z
-x,y,z
x,1/2-y,z
1/2+x,1/2+y,1/2+z
1/2-x,-y,1/2+z
1/2+x,1/2-y,1/2-z
1/2-x,y,1/2-z
1/2-x,1/2-y,1/2-z
1/2+x,y,1/2-z
1/2-x,1/2+y,1/2+z
1/2+x,-y,1/2+z
loop_
_atom_site_type_symbol
_atom_site_label
_atom_site_fract_x
_atom_site_fract_y
_atom_site_fract_z
Si Si1 0.871156 0.557776 0.739160
Si Si2 0.685586 0.065004 0.160349
Si Si3 0.234683 0.750000 0.313101
Si Si4 0.179683 0.750000 0.232902
Si Si5 0.049533 0.047520 0.543357
Si Si6 0.394969 0.551559 0.114793
Si Si7 0.450234 0.047035 0.188228
O O1 0.871824 0.750000 0.753972
O O2 0.842282 0.561363 0.700034
O O3 0.849598 0.417417 0.765812
O O4 0.918794 0.506071 0.723936
O O5 0.705175 0.250000 0.156765
O O6 0.719693 0.915123 0.164040
O O7 0.649728 0.034601 0.127506
O O8 0.206888 0.750000 0.273172
O O9 0.284590 0.750000 0.300450
O O10 0.048532 0.250000 0.546028
O O11 0.082398 0.986925 0.576048
O O12 0.000000 0.986460 0.550113
O O13 0.061741 0.000000 0.500000
O O14 0.386357 0.750000 0.111157
O O15 0.428879 0.526355 0.149735
O O16 0.500000 0.994369 0.192773
O O17 0.448789 0.250000 0.184538
#
# Coordination Sequence:
#
# PCOD9533965 Si02
#       7
#    16  16   8   8  16  16  16
#     4   8  15  25  34  47  66  84 105 129 151 185
#     4   9  16  26  38  51  66  82 100 125 156 188
#     4   9  16  26  36  52  66  80 102 128 148 188
#     4   9  16  24  37  48  64  86 103 120 158 187
#     4   9  18  29  38  49  65  84 106 132 159 192
#     4  10  17  26  38  51  66  82 104 132 164 199
#     4   9  17  26  35  49  66  84 108 135 162 193
#
# _framework density 11.249624000000001
#
# number of rings (size 3 to 8) (size 9 to 14) (size 15 to 20)
#    0.000    3.000    0.833    2.000    3.500    3.000 
#    0.000    5.000    0.000    0.000    0.000    0.000 
#    0.000    0.000    0.000    0.000    0.000    0.000 
#
# Total GULP energy -267226.661633 kJ/mol
# GULP energy per Si atom -5567.222117 kJ/mol
# Density = 1.122402 g / cm^3
# Si number density = 11.249624 Si / 1000 Ang^3
#
#
#
# Elastic Constant Matrix: (Units=GPa)
#
#
# Indices 1 2 3 4 5 6 
#
# 1 51.7001 31.7667 35.1897 0.0000 0.0000 0.0000
# 2 31.7667 59.5551 25.7356 0.0000 0.0000 0.0000
# 3 35.1897 25.7356 36.2278 0.0000 0.0000 0.0000
# 4 0.0000 0.0000 0.0000 8.6982 0.0000 0.0000
# 5 0.0000 0.0000 0.0000 0.0000 18.3517 0.0000
# 6 0.0000 0.0000 0.0000 0.0000 0.0000 10.7551
#
#
#
# Elastic Compliance Matrix: (Units=1/GPa)
#
#
# Indices 1 2 3 4 5 6 
#
# 1 0.060943 -0.009994 -0.052097 0.000000 0.000000 0.000000
# 2 -0.009994 0.025868 -0.008668 0.000000 0.000000 0.000000
# 3 -0.052097 -0.008668 0.084365 0.000000 0.000000 0.000000
# 4 0.000000 0.000000 0.000000 0.114966 0.000000 0.000000
# 5 0.000000 0.000000 0.000000 0.000000 0.054491 0.000000
# 6 0.000000 0.000000 0.000000 0.000000 0.000000 0.092979
#
#
# Mechanical properties :
#
#
# Convention : Reuss Voigt Hill
#
# Bulk Modulus (GPa) = 33.71885 36.98523 35.35204
# Shear Modulus (GPa) = 8.54676 11.21375 9.88025
#
# Velocity S-wave (km/s) = 2.75932 3.16066 2.96678
# Velocity P-wave (km/s) = 6.33957 6.80205 6.57488
#
# Compressibility (1/GPa) = 0.02965701
#
# Stress axis : x y z
#
# Youngs Moduli (GPa) = 16.40873 38.65788 11.85322
#
# Poissons Ratio (x) = 0.38636 0.61752
# Poissons Ratio (y) = 0.16399 0.10275
# Poissons Ratio (z) = 0.85485 0.33510
#
# Static dielectric constant tensor:
#      x y z
#    x 1.358930 0.000000 0.000000 
#    y 0.000000 1.397480 0.000000 
#    z 0.000000 0.000000 1.334970 
# 
# From -- ./inp_files/71104.got.cif
#   From: 2010.05.17/outbox.cif.g08.bks.cpg/sg74_36_cif.got.tgz:71104.got - 2010.06.03 17:57:02.
