data_PCOD9533421
_publ_section_title
;
Structure prediction by ZEFSAII (Michael W. Deem and Ramdas Pophale) SiO2 
 PCOD9533421
Probable space group: I B C A 
;
_chemical_formula_sum "Si O2"
_cell_formula_units_Z 88
_cell_length_a 21.845317
_cell_length_b 8.489373
_cell_length_c 20.702867
_cell_angle_alpha 90.000000
_cell_angle_beta 90.000000
_cell_angle_gamma 90.000000
_cell_volume 3839.409711
_symmetry_space_group_name_H-M "I B C A "
_symmetry_group_IT_number 73
_symmetry_cell_setting 'orthorhombic'
loop_
_space_group_symop_operation_xyz
x,y,z
-x,1/2-y,z
x,-y,1/2-z
1/2-x,y,-z
-x,-y,-z
x,1/2+y,-z
-x,y,1/2+z
1/2+x,-y,z
1/2+x,1/2+y,1/2+z
1/2-x,-y,1/2+z
1/2+x,1/2-y,-z
-x,1/2+y,1/2-z
1/2-x,1/2-y,1/2-z
1/2+x,y,1/2-z
1/2-x,1/2+y,z
x,1/2-y,1/2+z
loop_
_atom_site_type_symbol
_atom_site_label
_atom_site_fract_x
_atom_site_fract_y
_atom_site_fract_z
Si Si1 0.350362 0.998144 0.522162
Si Si2 0.566868 0.325031 0.284410
Si Si3 0.929269 0.727952 0.934547
Si Si4 0.754663 0.157924 0.816528
Si Si5 0.860051 0.500000 0.250000
Si Si6 0.773234 0.939610 0.094747
O O1 0.391009 0.132687 0.488452
O O2 0.394941 0.895307 0.566092
O O3 0.285941 0.018086 0.559976
O O4 0.324649 0.912381 0.457751
O O5 0.500000 0.250000 0.269490
O O6 0.574583 0.500000 0.250000
O O7 0.570926 0.344026 0.362423
O O8 0.607897 0.168982 0.265677
O O9 0.000000 0.750000 0.953843
O O10 0.750000 0.250000 0.750000
O O11 0.814790 0.051423 0.807855
O O12 0.753130 0.279634 0.873877
O O13 0.704065 0.036531 0.842052
#
# Coordination Sequence:
#
# PCOD9533421 Si02
#       6
#    16  16  16  16   8  16
#     4  11  24  45  71 100 142 198 258 310 386 461
#     4  11  26  51  80 117 158 204 264 328 404 475
#     4  11  25  46  72 107 146 197 262 324 389 469
#     4  12  24  42  66 108 147 191 254 314 389 472
#     4  12  26  44  76 112 160 202 252 320 400 478
#     4  11  24  43  69 102 145 196 251 318 388 466
#
# _framework density 22.920192
#
# number of rings (size 3 to 8) (size 9 to 14) (size 15 to 20)
#    0.000    0.727    2.727    3.818    5.091    2.909 
#    0.000    0.909    0.000    0.000    0.000    0.000 
#    0.000    0.000    0.000    0.000    0.000    0.000 
#
# Total GULP energy -244943.789135 kJ/mol
# GULP energy per Si atom -5566.904299 kJ/mol
# Density = 2.286802 g / cm^3
# Si number density = 22.920192 Si / 1000 Ang^3
#
#
#
# Elastic Constant Matrix: (Units=GPa)
#
#
# Indices 1 2 3 4 5 6 
#
# 1 133.3684 47.9361 37.4817 0.0000 0.0000 0.0000
# 2 47.9361 140.5957 56.4763 0.0000 0.0000 0.0000
# 3 37.4817 56.4763 118.5100 0.0000 0.0000 0.0000
# 4 0.0000 0.0000 0.0000 42.9424 0.0000 0.0000
# 5 0.0000 0.0000 0.0000 0.0000 30.6272 0.0000
# 6 0.0000 0.0000 0.0000 0.0000 0.0000 46.5500
#
#
#
# Elastic Compliance Matrix: (Units=1/GPa)
#
#
# Indices 1 2 3 4 5 6 
#
# 1 0.008806 -0.002330 -0.001675 0.000000 0.000000 0.000000
# 2 -0.002330 0.009413 -0.003749 0.000000 0.000000 0.000000
# 3 -0.001675 -0.003749 0.010754 0.000000 0.000000 0.000000
# 4 0.000000 0.000000 0.000000 0.023287 0.000000 0.000000
# 5 0.000000 0.000000 0.000000 0.000000 0.032651 0.000000
# 6 0.000000 0.000000 0.000000 0.000000 0.000000 0.021482
#
#
# Mechanical properties :
#
#
# Convention : Reuss Voigt Hill
#
# Bulk Modulus (GPa) = 74.25926 75.14027 74.69976
# Shear Modulus (GPa) = 39.56043 40.72927 40.14485
#
# Velocity S-wave (km/s) = 4.15903 4.22003 4.18964
# Velocity P-wave (km/s) = 7.45203 7.52326 7.48773
#
# Compressibility (1/GPa) = 0.01346633
#
# Stress axis : x y z
#
# Youngs Moduli (GPa) = 113.55791 106.23859 92.98520
#
# Poissons Ratio (x) = 0.24749 0.15575
# Poissons Ratio (y) = 0.26455 0.34859
# Poissons Ratio (z) = 0.19020 0.39828
#
# Static dielectric constant tensor:
#      x y z
#    x 1.907940 0.000000 0.000000 
#    y 0.000000 1.888040 0.000000 
#    z 0.000000 0.000000 1.865280 
# 
# From -- ./inp_files/27206.got.cif
#   From: 2010.05.17/outbox.cif.g08.bks.cpg/sg73_14_cif.got.tgz:27206.got - 2010.06.03 17:35:07.
