data_PCOD9533411
_publ_section_title
;
Structure prediction by ZEFSAII (Michael W. Deem and Ramdas Pophale) SiO2 
 PCOD9533411
Probable space group: I B C A 
;
_chemical_formula_sum "Si O2"
_cell_formula_units_Z 64
_cell_length_a 27.547548
_cell_length_b 8.919430
_cell_length_c 11.286999
_cell_angle_alpha 90.000000
_cell_angle_beta 90.000000
_cell_angle_gamma 90.000000
_cell_volume 2773.310759
_symmetry_space_group_name_H-M "I B C A "
_symmetry_group_IT_number 73
_symmetry_cell_setting 'orthorhombic'
loop_
_space_group_symop_operation_xyz
x,y,z
-x,1/2-y,z
x,-y,1/2-z
1/2-x,y,-z
-x,-y,-z
x,1/2+y,-z
-x,y,1/2+z
1/2+x,-y,z
1/2+x,1/2+y,1/2+z
1/2-x,-y,1/2+z
1/2+x,1/2-y,-z
-x,1/2+y,1/2-z
1/2-x,1/2-y,1/2-z
1/2+x,y,1/2-z
1/2-x,1/2+y,z
x,1/2-y,1/2+z
loop_
_atom_site_type_symbol
_atom_site_label
_atom_site_fract_x
_atom_site_fract_y
_atom_site_fract_z
Si Si1 0.447299 0.322451 0.403250
Si Si2 0.206373 0.014479 0.874865
Si Si3 0.415049 0.837154 0.859088
Si Si4 0.691324 0.143678 0.098622
O O1 0.500000 0.250000 0.423982
O O2 0.418839 0.267361 0.522837
O O3 0.434149 0.273729 0.267026
O O4 0.440916 0.503874 0.392215
O O5 0.208065 0.186325 0.907681
O O6 0.181383 0.000000 0.750000
O O7 0.260969 0.949270 0.866422
O O8 0.178695 0.918411 0.970073
O O9 0.358146 0.866154 0.831348
#
# Coordination Sequence:
#
# PCOD9533411 Si02
#       4
#    16  16  16  16
#     4  11  25  47  73 107 140 183 231 300 371 425
#     4  11  24  41  69  94 146 191 232 296 343 423
#     4  11  26  45  77 103 147 184 240 299 344 447
#     4  11  24  43  65 104 139 189 244 278 362 403
#
# _framework density 23.077112
#
# number of rings (size 3 to 8) (size 9 to 14) (size 15 to 20)
#    0.000    1.000    0.000    6.750    7.000    3.000 
#    0.000    0.000    0.000    0.000    0.000    0.000 
#    0.000    0.000    0.000    0.000    0.000    0.000 
#
# Total GULP energy -178582.355512 kJ/mol
# GULP energy per Si atom -5580.698610 kJ/mol
# Density = 2.302459 g / cm^3
# Si number density = 23.077112 Si / 1000 Ang^3
#
#
#
# Elastic Constant Matrix: (Units=GPa)
#
#
# Indices 1 2 3 4 5 6 
#
# 1 71.5289 15.3704 -39.9379 0.0000 0.0000 0.0000
# 2 15.3704 149.2627 47.8746 0.0000 0.0000 0.0000
# 3 -39.9379 47.8746 135.4954 0.0000 0.0000 0.0000
# 4 0.0000 0.0000 0.0000 79.3810 0.0000 0.0000
# 5 0.0000 0.0000 0.0000 0.0000 -9.1048 0.0000
# 6 0.0000 0.0000 0.0000 0.0000 0.0000 15.9799
#
#
#
# Elastic Compliance Matrix: (Units=1/GPa)
#
#
# Indices 1 2 3 4 5 6 
#
# 1 0.018801 -0.004188 0.007021 0.000000 0.000000 0.000000
# 2 -0.004188 0.008489 -0.004234 0.000000 0.000000 0.000000
# 3 0.007021 -0.004234 0.010946 0.000000 0.000000 0.000000
# 4 0.000000 0.000000 0.000000 0.012597 0.000000 0.000000
# 5 0.000000 0.000000 0.000000 0.000000 -0.109832 0.000000
# 6 0.000000 0.000000 0.000000 0.000000 0.000000 0.062578
#
#
# Mechanical properties :
#
#
# Convention : Reuss Voigt Hill
#
# Bulk Modulus (GPa) = 28.22127 44.76682 36.49405
# Shear Modulus (GPa) = 274.85226 39.44988 157.15107
#
# Velocity S-wave (km/s) = 10.92521 4.13907 8.26112
# Velocity P-wave (km/s) = 13.09208 6.50257 10.33649
#
# Compressibility (1/GPa) = 0.03543427
#
# Stress axis : x y z
#
# Youngs Moduli (GPa) = 53.18968 117.80206 91.35908
#
# Poissons Ratio (x) = 0.49336 -0.64146
# Poissons Ratio (y) = 0.22276 0.38680
# Poissons Ratio (z) = -0.37346 0.49875
#
# Static dielectric constant tensor:
#      x y z
#    x 1.833280 0.000000 0.000000 
#    y 0.000000 1.847080 0.000000 
#    z 0.000000 0.000000 1.919250 
# 
# From -- ./inp_files/3969.got.cif
#   From: 2010.05.17/outbox.cif.g08.bks.cpg/sg73_2_cif.got.tgz:3969.got - 2010.06.03 17:35:07.
