data_PCOD9533170
_publ_section_title
;
Structure prediction by ZEFSAII (Michael W. Deem and Ramdas Pophale) SiO2 
 PCOD9533170
Probable space group: I B C A 
;
_chemical_formula_sum "Si O2"
_cell_formula_units_Z 80
_cell_length_a 14.457822
_cell_length_b 12.086236
_cell_length_c 18.925950
_cell_angle_alpha 90.000000
_cell_angle_beta 90.000000
_cell_angle_gamma 90.000000
_cell_volume 3307.132781
_symmetry_space_group_name_H-M "I B C A "
_symmetry_group_IT_number 73
_symmetry_cell_setting 'orthorhombic'
loop_
_space_group_symop_operation_xyz
x,y,z
-x,1/2-y,z
x,-y,1/2-z
1/2-x,y,-z
-x,-y,-z
x,1/2+y,-z
-x,y,1/2+z
1/2+x,-y,z
1/2+x,1/2+y,1/2+z
1/2-x,-y,1/2+z
1/2+x,1/2-y,-z
-x,1/2+y,1/2-z
1/2-x,1/2-y,1/2-z
1/2+x,y,1/2-z
1/2-x,1/2+y,z
x,1/2-y,1/2+z
loop_
_atom_site_type_symbol
_atom_site_label
_atom_site_fract_x
_atom_site_fract_y
_atom_site_fract_z
Si Si1 0.000000 0.250000 0.749440
Si Si2 0.741160 0.962756 0.587997
Si Si3 0.092095 0.403766 0.636760
Si Si4 0.333091 0.742734 0.447839
Si Si5 0.929876 0.572738 0.641302
Si Si6 0.500000 0.750000 0.023704
O O1 0.068789 0.324877 0.702458
O O2 0.058448 0.160669 0.795009
O O3 0.750000 0.968577 0.500000
O O4 0.785464 0.843078 0.604574
O O5 0.804359 0.057198 0.622879
O O6 0.643655 0.973525 0.628516
O O7 0.027899 0.512355 0.639649
O O8 0.058295 0.333353 0.570507
O O9 0.250000 0.774019 0.500000
O O10 0.388739 0.846831 0.418820
O O11 0.419964 0.681084 0.484279
#
# Coordination Sequence:
#
# PCOD9533170 Si02
#       6
#     8  16  16  16  16   8
#     4  11  27  46  66  94 133 185 242 288 334 399
#     4  11  24  41  69 105 138 174 222 283 354 419
#     4  11  24  44  66  96 136 181 231 284 343 407
#     4  11  23  39  64 104 138 171 223 280 346 420
#     4  12  24  44  71  98 139 189 233 284 344 406
#     4  11  21  36  64  96 137 177 218 282 346 413
#
# _framework density 24.19014
#
# number of rings (size 3 to 8) (size 9 to 14) (size 15 to 20)
#    0.000    0.800    0.000    9.000    0.000    4.800 
#    0.000    6.000    0.000    0.000    0.000    0.000 
#    0.000    0.000    0.000    0.000    0.000    0.000 
#
# Total GULP energy -223267.684094 kJ/mol
# GULP energy per Si atom -5581.692102 kJ/mol
# Density = 2.413508 g / cm^3
# Si number density = 24.190140 Si / 1000 Ang^3
#
#
#
# Elastic Constant Matrix: (Units=GPa)
#
#
# Indices 1 2 3 4 5 6 
#
# 1 111.4586 -2.5020 33.6784 0.0000 0.0000 0.0000
# 2 -2.5020 88.8689 25.5333 0.0000 0.0000 0.0000
# 3 33.6784 25.5333 76.7253 0.0000 0.0000 0.0000
# 4 0.0000 0.0000 0.0000 92.0335 0.0000 0.0000
# 5 0.0000 0.0000 0.0000 0.0000 16.3958 0.0000
# 6 0.0000 0.0000 0.0000 0.0000 0.0000 49.8574
#
#
#
# Elastic Compliance Matrix: (Units=1/GPa)
#
#
# Indices 1 2 3 4 5 6 
#
# 1 0.010600 0.001808 -0.005255 0.000000 0.000000 0.000000
# 2 0.001808 0.012751 -0.005037 0.000000 0.000000 0.000000
# 3 -0.005255 -0.005037 0.017016 0.000000 0.000000 0.000000
# 4 0.000000 0.000000 0.000000 0.010866 0.000000 0.000000
# 5 0.000000 0.000000 0.000000 0.000000 0.060991 0.000000
# 6 0.000000 0.000000 0.000000 0.000000 0.000000 0.020057
#
#
# Mechanical properties :
#
#
# Convention : Reuss Voigt Hill
#
# Bulk Modulus (GPa) = 42.73460 43.38580 43.06020
# Shear Modulus (GPa) = 31.83738 46.34689 39.09213
#
# Velocity S-wave (km/s) = 3.63179 4.38190 4.02436
# Velocity P-wave (km/s) = 5.94062 6.60118 6.27959
#
# Compressibility (1/GPa) = 0.02340024
#
# Stress axis : x y z
#
# Youngs Moduli (GPa) = 94.33697 78.42758 58.76724
#
# Poissons Ratio (x) = -0.14181 0.30881
# Poissons Ratio (y) = -0.17058 0.29601
# Poissons Ratio (z) = 0.49571 0.39504
#
# Static dielectric constant tensor:
#      x y z
#    x 2.164170 0.000000 0.000000 
#    y 0.000000 2.016990 0.000000 
#    z 0.000000 0.000000 2.032320 
# 
# From -- ./inp_files/29368.got.cif
#   From: 2010.05.17/outbox.cif.g08.bks.cpg/sg73_15_cif.got.tgz:29368.got - 2010.06.03 17:35:07.
