data_PCOD9533373
_publ_section_title
;
Structure prediction by ZEFSAII (Michael W. Deem and Ramdas Pophale) SiO2 
 PCOD9533373
Probable space group: I B C A 
;
_chemical_formula_sum "Si O2"
_cell_formula_units_Z 88
_cell_length_a 15.949685
_cell_length_b 19.064229
_cell_length_c 12.858029
_cell_angle_alpha 90.000000
_cell_angle_beta 90.000000
_cell_angle_gamma 90.000000
_cell_volume 3909.720914
_symmetry_space_group_name_H-M "I B C A "
_symmetry_group_IT_number 73
_symmetry_cell_setting 'orthorhombic'
loop_
_space_group_symop_operation_xyz
x,y,z
-x,1/2-y,z
x,-y,1/2-z
1/2-x,y,-z
-x,-y,-z
x,1/2+y,-z
-x,y,1/2+z
1/2+x,-y,z
1/2+x,1/2+y,1/2+z
1/2-x,-y,1/2+z
1/2+x,1/2-y,-z
-x,1/2+y,1/2-z
1/2-x,1/2-y,1/2-z
1/2+x,y,1/2-z
1/2-x,1/2+y,z
x,1/2-y,1/2+z
loop_
_atom_site_type_symbol
_atom_site_label
_atom_site_fract_x
_atom_site_fract_y
_atom_site_fract_z
Si Si1 0.758459 0.347780 0.261452
Si Si2 0.685547 0.500000 0.250000
Si Si3 0.000000 0.250000 0.975521
Si Si4 0.180170 0.253453 0.588849
Si Si5 0.545898 0.000000 0.250000
Si Si6 0.091461 0.374801 0.896309
Si Si7 0.435830 0.462693 0.919879
O O1 0.735838 0.428936 0.262371
O O2 0.787058 0.323142 0.148007
O O3 0.685372 0.302722 0.316047
O O4 0.836103 0.334190 0.338143
O O5 0.631690 0.491581 0.143088
O O6 0.014200 0.321159 0.908590
O O7 0.086506 0.241889 0.041408
O O8 0.250000 0.238750 0.500000
O O9 0.586366 0.053344 0.169674
O O10 0.493964 0.055126 0.321631
O O11 0.107223 0.401945 0.013795
O O12 0.500000 0.500000 0.000000
#
# Coordination Sequence:
#
# PCOD9533373 Si02
#       7
#    16   8   8  16   8  16  16
#     4  11  26  49  71 106 151 189 250 314 372 460
#     4  11  23  44  76 106 138 206 238 303 397 442
#     4  12  26  44  80 106 142 210 248 300 382 438
#     4  11  26  52  72 106 153 194 250 316 370 451
#     4   9  21  42  66 106 150 178 236 311 363 436
#     4  11  23  45  71 107 147 194 246 305 377 445
#     4   9  21  41  66 103 145 178 238 304 358 440
#
# _framework density 22.507999999999999
#
# number of rings (size 3 to 8) (size 9 to 14) (size 15 to 20)
#    0.000    1.455    1.818    1.636    2.545    5.091 
#   13.091    0.000    0.000    0.000    0.000    0.000 
#    0.000    0.000    0.000    0.000    0.000    0.000 
#
# Total GULP energy -244983.936241 kJ/mol
# GULP energy per Si atom -5567.816733 kJ/mol
# Density = 2.245677 g / cm^3
# Si number density = 22.508000 Si / 1000 Ang^3
#
#
#
# Elastic Constant Matrix: (Units=GPa)
#
#
# Indices 1 2 3 4 5 6 
#
# 1 97.6224 36.8326 38.4771 0.0000 0.0000 0.0000
# 2 36.8326 103.6594 34.5653 0.0000 0.0000 0.0000
# 3 38.4771 34.5653 106.6183 0.0000 0.0000 0.0000
# 4 0.0000 0.0000 0.0000 48.7510 0.0000 0.0000
# 5 0.0000 0.0000 0.0000 0.0000 114.3069 0.0000
# 6 0.0000 0.0000 0.0000 0.0000 0.0000 27.9347
#
#
#
# Elastic Compliance Matrix: (Units=1/GPa)
#
#
# Indices 1 2 3 4 5 6 
#
# 1 0.012933 -0.003408 -0.003563 0.000000 0.000000 0.000000
# 2 -0.003408 0.011714 -0.002568 0.000000 0.000000 0.000000
# 3 -0.003563 -0.002568 0.011498 0.000000 0.000000 0.000000
# 4 0.000000 0.000000 0.000000 0.020512 0.000000 0.000000
# 5 0.000000 0.000000 0.000000 0.000000 0.008748 0.000000
# 6 0.000000 0.000000 0.000000 0.000000 0.000000 0.035798
#
#
# Mechanical properties :
#
#
# Convention : Reuss Voigt Hill
#
# Bulk Modulus (GPa) = 58.58745 58.62781 58.60763
# Shear Modulus (GPa) = 39.69211 51.40019 45.54615
#
# Velocity S-wave (km/s) = 4.20392 4.78393 4.50327
# Velocity P-wave (km/s) = 7.04628 7.52454 7.28933
#
# Compressibility (1/GPa) = 0.01706850
#
# Stress axis : x y z
#
# Youngs Moduli (GPa) = 77.31880 85.36770 86.97522
#
# Poissons Ratio (x) = 0.29089 0.30988
# Poissons Ratio (y) = 0.26347 0.22334
# Poissons Ratio (z) = 0.27547 0.21922
#
# Static dielectric constant tensor:
#      x y z
#    x 1.936070 0.000000 0.000000 
#    y 0.000000 3.632490 0.000000 
#    z 0.000000 0.000000 1.801350 
# 
# From -- ./inp_files/11940.got.cif
#   From: 2010.05.17/outbox.cif.g08.bks.cpg/sg73_6_cif.got.tgz:11940.got - 2010.06.03 17:35:07.
