data_PCOD9533136
_publ_section_title
;
Structure prediction by ZEFSAII (Michael W. Deem and Ramdas Pophale) SiO2 
 PCOD9533136
Probable space group: I B C A 
;
_chemical_formula_sum "Si O2"
_cell_formula_units_Z 96
_cell_length_a 21.622634
_cell_length_b 14.435075
_cell_length_c 13.908043
_cell_angle_alpha 90.000000
_cell_angle_beta 90.000000
_cell_angle_gamma 90.000000
_cell_volume 4341.038791
_symmetry_space_group_name_H-M "I B C A "
_symmetry_group_IT_number 73
_symmetry_cell_setting 'orthorhombic'
loop_
_space_group_symop_operation_xyz
x,y,z
-x,1/2-y,z
x,-y,1/2-z
1/2-x,y,-z
-x,-y,-z
x,1/2+y,-z
-x,y,1/2+z
1/2+x,-y,z
1/2+x,1/2+y,1/2+z
1/2-x,-y,1/2+z
1/2+x,1/2-y,-z
-x,1/2+y,1/2-z
1/2-x,1/2-y,1/2-z
1/2+x,y,1/2-z
1/2-x,1/2+y,z
x,1/2-y,1/2+z
loop_
_atom_site_type_symbol
_atom_site_label
_atom_site_fract_x
_atom_site_fract_y
_atom_site_fract_z
Si Si1 0.319632 0.963740 0.981711
Si Si2 0.098791 0.155260 0.591582
Si Si3 0.971254 0.891008 0.219207
Si Si4 0.477558 0.106654 0.004829
Si Si5 0.614099 0.603504 0.792420
Si Si6 0.855285 0.154877 0.598155
O O1 0.352831 0.909068 0.894102
O O2 0.319057 0.072519 0.953515
O O3 0.250000 0.933839 0.000000
O O4 0.363757 0.938960 0.071276
O O5 0.068944 0.157179 0.697916
O O6 0.145277 0.238833 0.568165
O O7 0.039581 0.161429 0.521531
O O8 0.949198 0.876696 0.109814
O O9 0.043453 0.861590 0.208634
O O10 0.970895 0.000000 0.250000
O O11 0.426485 0.124689 0.924240
O O12 0.500000 0.000000 0.000000
O O13 0.610149 0.500000 0.750000
O O14 0.654402 0.654880 0.712458
#
# Coordination Sequence:
#
# PCOD9533136 Si02
#       6
#    16  16  16  16  16  16
#     4  11  24  46  70  93 135 194 243 287 343 415
#     4  12  24  39  65 105 139 177 234 289 360 432
#     4  11  19  34  62  96 138 175 217 285 353 426
#     4  12  19  38  65  98 143 180 221 287 366 433
#     4   9  18  37  63  89 124 177 221 270 349 404
#     4  11  23  41  63  99 136 178 229 290 354 426
#
# _framework density 22.114522000000001
#
# number of rings (size 3 to 8) (size 9 to 14) (size 15 to 20)
#    0.000    1.000    6.667    1.500    0.000    2.000 
#    3.000    8.333    0.000    0.000    0.000    0.000 
#    0.000    0.000    0.000    0.000    0.000    0.000 
#
# Total GULP energy -267980.969138 kJ/mol
# GULP energy per Si atom -5582.936857 kJ/mol
# Density = 2.206419 g / cm^3
# Si number density = 22.114522 Si / 1000 Ang^3
#
#
#
# Elastic Constant Matrix: (Units=GPa)
#
#
# Indices 1 2 3 4 5 6 
#
# 1 96.8288 4.1271 38.1114 0.0000 0.0000 0.0000
# 2 4.1271 71.7947 24.5965 0.0000 0.0000 0.0000
# 3 38.1114 24.5965 142.0104 0.0000 0.0000 0.0000
# 4 0.0000 0.0000 0.0000 24.0552 0.0000 0.0000
# 5 0.0000 0.0000 0.0000 0.0000 13.1575 0.0000
# 6 0.0000 0.0000 0.0000 0.0000 0.0000 18.4653
#
#
#
# Elastic Compliance Matrix: (Units=1/GPa)
#
#
# Indices 1 2 3 4 5 6 
#
# 1 0.011559 0.000423 -0.003176 0.000000 0.000000 0.000000
# 2 0.000423 0.014823 -0.002681 0.000000 0.000000 0.000000
# 3 -0.003176 -0.002681 0.008358 0.000000 0.000000 0.000000
# 4 0.000000 0.000000 0.000000 0.041571 0.000000 0.000000
# 5 0.000000 0.000000 0.000000 0.000000 0.076002 0.000000
# 6 0.000000 0.000000 0.000000 0.000000 0.000000 0.054156
#
#
# Mechanical properties :
#
#
# Convention : Reuss Voigt Hill
#
# Bulk Modulus (GPa) = 41.88611 49.36709 45.62660
# Shear Modulus (GPa) = 22.19326 27.38886 24.79106
#
# Velocity S-wave (km/s) = 3.17134 3.52305 3.35181
# Velocity P-wave (km/s) = 5.69135 6.23867 5.97129
#
# Compressibility (1/GPa) = 0.02387426
#
# Stress axis : x y z
#
# Youngs Moduli (GPa) = 86.51018 67.46389 119.64154
#
# Poissons Ratio (x) = -0.02857 0.37992
# Poissons Ratio (y) = -0.03663 0.32075
# Poissons Ratio (z) = 0.27471 0.18087
#
# Static dielectric constant tensor:
#      x y z
#    x 1.766930 0.000000 0.000000 
#    y 0.000000 1.900630 0.000000 
#    z 0.000000 0.000000 1.860890 
# 
# From -- ./inp_files/18646.got.cif
#   From: 2010.05.17/outbox.cif.g08.bks.cpg/sg73_10_cif.got.tgz:18646.got - 2010.06.03 17:35:07.
