data_PCOD9533279
_publ_section_title
;
Structure prediction by ZEFSAII (Michael W. Deem and Ramdas Pophale) SiO2 
 PCOD9533279
Probable space group: I B C A 
;
_chemical_formula_sum "Si O2"
_cell_formula_units_Z 88
_cell_length_a 21.184582
_cell_length_b 22.231157
_cell_length_c 8.041880
_cell_angle_alpha 90.000000
_cell_angle_beta 90.000000
_cell_angle_gamma 90.000000
_cell_volume 3787.385859
_symmetry_space_group_name_H-M "I B C A "
_symmetry_group_IT_number 73
_symmetry_cell_setting 'orthorhombic'
loop_
_space_group_symop_operation_xyz
x,y,z
-x,1/2-y,z
x,-y,1/2-z
1/2-x,y,-z
-x,-y,-z
x,1/2+y,-z
-x,y,1/2+z
1/2+x,-y,z
1/2+x,1/2+y,1/2+z
1/2-x,-y,1/2+z
1/2+x,1/2-y,-z
-x,1/2+y,1/2-z
1/2-x,1/2-y,1/2-z
1/2+x,y,1/2-z
1/2-x,1/2+y,z
x,1/2-y,1/2+z
loop_
_atom_site_type_symbol
_atom_site_label
_atom_site_fract_x
_atom_site_fract_y
_atom_site_fract_z
Si Si1 0.250000 0.899723 0.000000
Si Si2 0.911030 0.124533 0.509246
Si Si3 0.485812 0.069531 0.693399
Si Si4 0.793887 0.053453 0.653771
Si Si5 0.073697 0.739428 0.818894
Si Si6 0.611443 0.652354 0.980805
O O1 0.249257 0.926015 0.190995
O O2 0.183180 0.867210 0.009386
O O3 0.960691 0.105729 0.650534
O O4 0.843605 0.099370 0.571404
O O5 0.915051 0.196425 0.518092
O O6 0.943634 0.090104 0.356399
O O7 0.434365 0.094931 0.556760
O O8 0.484291 0.000000 0.750000
O O9 0.750000 0.033327 0.500000
O O10 0.831339 0.000000 0.750000
O O11 0.102231 0.698074 0.674456
O O12 0.000000 0.750000 0.789911
O O13 0.099196 0.805215 0.861347
#
# Coordination Sequence:
#
# PCOD9533279 Si02
#       6
#     8  16  16  16  16  16
#     4  12  26  52  72 110 150 206 262 324 380 474
#     4  11  25  44  70 112 144 193 259 313 387 474
#     4  11  23  42  70 105 150 189 246 326 389 465
#     4  12  27  49  79 109 155 206 261 316 394 479
#     4  11  22  43  71 101 149 194 248 318 388 461
#     4  11  26  43  73 105 147 202 256 316 390 460
#
# _framework density 23.235023000000002
#
# number of rings (size 3 to 8) (size 9 to 14) (size 15 to 20)
#    0.000    0.727    6.364    1.636    2.545    4.364 
#    1.636    0.000    0.000    0.000    0.000    0.000 
#    0.000    0.000    0.000    0.000    0.000    0.000 
#
# Total GULP energy -245225.786969 kJ/mol
# GULP energy per Si atom -5573.313340 kJ/mol
# Density = 2.318214 g / cm^3
# Si number density = 23.235023 Si / 1000 Ang^3
#
#
#
# Elastic Constant Matrix: (Units=GPa)
#
#
# Indices 1 2 3 4 5 6 
#
# 1 114.5883 53.6317 45.7751 0.0000 0.0000 0.0000
# 2 53.6317 142.6414 40.1894 0.0000 0.0000 0.0000
# 3 45.7751 40.1894 122.1003 0.0000 0.0000 0.0000
# 4 0.0000 0.0000 0.0000 33.3050 0.0000 0.0000
# 5 0.0000 0.0000 0.0000 0.0000 36.8336 0.0000
# 6 0.0000 0.0000 0.0000 0.0000 0.0000 32.1455
#
#
#
# Elastic Compliance Matrix: (Units=1/GPa)
#
#
# Indices 1 2 3 4 5 6 
#
# 1 0.011637 -0.003468 -0.003221 0.000000 0.000000 0.000000
# 2 -0.003468 0.008761 -0.001584 0.000000 0.000000 0.000000
# 3 -0.003221 -0.001584 0.009919 0.000000 0.000000 0.000000
# 4 0.000000 0.000000 0.000000 0.030026 0.000000 0.000000
# 5 0.000000 0.000000 0.000000 0.000000 0.027149 0.000000
# 6 0.000000 0.000000 0.000000 0.000000 0.000000 0.031109
#
#
# Mechanical properties :
#
#
# Convention : Reuss Voigt Hill
#
# Bulk Modulus (GPa) = 72.61483 73.16916 72.89200
# Shear Modulus (GPa) = 35.78215 36.43907 36.11061
#
# Velocity S-wave (km/s) = 3.92855 3.96445 3.94654
# Velocity P-wave (km/s) = 7.20404 7.24673 7.22542
#
# Compressibility (1/GPa) = 0.01377129
#
# Stress axis : x y z
#
# Youngs Moduli (GPa) = 85.93507 114.14786 100.81855
#
# Poissons Ratio (x) = 0.39583 0.32475
# Poissons Ratio (y) = 0.29800 0.15965
# Poissons Ratio (z) = 0.27681 0.18075
#
# Static dielectric constant tensor:
#      x y z
#    x 1.809970 0.000000 0.000000 
#    y 0.000000 1.612400 0.000000 
#    z 0.000000 0.000000 2.103370 
# 
# From -- ./inp_files/6320.got.cif
#   From: 2010.05.17/outbox.cif.g08.bks.cpg/sg73_4_cif.got.tgz:6320.got - 2010.06.03 17:35:07.
