data_PCOD9533897
_publ_section_title
;
Structure prediction by ZEFSAII (Michael W. Deem and Ramdas Pophale) SiO2 
 PCOD9533897
Probable space group: I M M A
;
_chemical_formula_sum "Si O2"
_cell_formula_units_Z 56
_cell_length_a 14.346467
_cell_length_b 19.736658
_cell_length_c 7.208128
_cell_angle_alpha 90.000000
_cell_angle_beta 90.000000
_cell_angle_gamma 90.000000
_cell_volume 2040.990905
_symmetry_space_group_name_H-M "I M M A"
_symmetry_group_IT_number 74
_symmetry_cell_setting 'orthorhombic'
loop_
_space_group_symop_operation_xyz
x,y,z
-x,1/2-y,z
x,-y,-z
-x,1/2+y,-z
-x,-y,-z
x,1/2+y,-z
-x,y,z
x,1/2-y,z
1/2+x,1/2+y,1/2+z
1/2-x,-y,1/2+z
1/2+x,1/2-y,1/2-z
1/2-x,y,1/2-z
1/2-x,1/2-y,1/2-z
1/2+x,y,1/2-z
1/2-x,1/2+y,1/2+z
1/2+x,-y,1/2+z
loop_
_atom_site_type_symbol
_atom_site_label
_atom_site_fract_x
_atom_site_fract_y
_atom_site_fract_z
Si Si1 0.108284 0.102183 0.602618
Si Si2 0.245595 0.000000 0.500000
Si Si3 0.396594 0.602698 0.653551
Si Si4 0.895206 0.250000 0.638718
Si Si5 0.140563 0.750000 0.791992
O O1 0.109397 0.103954 0.377595
O O2 0.144185 0.174936 0.675479
O O3 0.000000 0.092874 0.657711
O O4 0.172842 0.038018 0.640357
O O5 0.313135 0.940225 0.569406
O O6 0.500000 0.578347 0.602230
O O7 0.386267 0.681810 0.603406
O O8 0.902880 0.250000 0.413343
O O9 0.000000 0.250000 0.714020
O O10 0.250000 0.750000 0.750000
#
# Coordination Sequence:
#
# PCOD9533897 Si02
#       5
#    16   8  16   8   8
#     4   9  18  32  50  72  98 125 156 198 245 289
#     4  12  20  28  44  72 104 132 158 188 232 296
#     4  10  20  33  48  70 101 132 159 194 241 290
#     4   8  14  28  48  68  90 116 147 190 244 292
#     4  10  16  28  50  72  92 120 156 198 243 290
#
# _framework density 27.437653000000001
#
# number of rings (size 3 to 8) (size 9 to 14) (size 15 to 20)
#    0.000    2.286    0.000    8.143    0.000    0.000 
#    0.000    0.000    0.000    0.000    0.000   16.000 
#    0.000   36.571    0.000    0.000    0.000    0.000 
#
# Total GULP energy -156790.998060 kJ/mol
# GULP energy per Si atom -5599.678502 kJ/mol
# Density = 2.737520 g / cm^3
# Si number density = 27.437653 Si / 1000 Ang^3
#
#
#
# Elastic Constant Matrix: (Units=GPa)
#
#
# Indices 1 2 3 4 5 6 
#
# 1 206.5176 72.6838 3.0151 0.0000 0.0000 0.0000
# 2 72.6838 245.9054 5.1371 0.0000 0.0000 0.0000
# 3 3.0151 5.1371 100.1596 0.0000 0.0000 0.0000
# 4 0.0000 0.0000 0.0000 15.7743 0.0000 0.0000
# 5 0.0000 0.0000 0.0000 0.0000 32.8091 0.0000
# 6 0.0000 0.0000 0.0000 0.0000 0.0000 41.5852
#
#
#
# Elastic Compliance Matrix: (Units=1/GPa)
#
#
# Indices 1 2 3 4 5 6 
#
# 1 0.005405 -0.001596 -0.000081 0.000000 0.000000 0.000000
# 2 -0.001596 0.004542 -0.000185 0.000000 0.000000 0.000000
# 3 -0.000081 -0.000185 0.009996 0.000000 0.000000 0.000000
# 4 0.000000 0.000000 0.000000 0.063394 0.000000 0.000000
# 5 0.000000 0.000000 0.000000 0.000000 0.030479 0.000000
# 6 0.000000 0.000000 0.000000 0.000000 0.000000 0.024047
#
#
# Mechanical properties :
#
#
# Convention : Reuss Voigt Hill
#
# Bulk Modulus (GPa) = 61.65290 79.36163 70.50726
# Shear Modulus (GPa) = 34.01506 49.48350 41.74928
#
# Velocity S-wave (km/s) = 3.52479 4.25136 3.90501
# Velocity P-wave (km/s) = 6.25176 7.28600 6.78861
#
# Compressibility (1/GPa) = 0.01621984
#
# Stress axis : x y z
#
# Youngs Moduli (GPa) = 185.01163 220.15836 100.04017
#
# Poissons Ratio (x) = 0.35136 0.00809
# Poissons Ratio (y) = 0.29526 0.01850
# Poissons Ratio (z) = 0.01496 0.04071
#
# Static dielectric constant tensor:
#      x y z
#    x 1.938790 0.000000 0.000000 
#    y 0.000000 2.150870 0.000000 
#    z 0.000000 0.000000 2.219690 
# 
# From -- ./inp_files/8480.got.cif
#   From: 2010.05.17/outbox.cif.g08.bks.cpg/sg74_5_cif.got.tgz:8480.got - 2010.06.03 17:57:02.
