data_PCOD9533228
_publ_section_title
;
Structure prediction by ZEFSAII (Michael W. Deem and Ramdas Pophale) SiO2 
 PCOD9533228
Probable space group: I B C A 
;
_chemical_formula_sum "Si O2"
_cell_formula_units_Z 72
_cell_length_a 8.131546
_cell_length_b 16.347806
_cell_length_c 26.492267
_cell_angle_alpha 90.000000
_cell_angle_beta 90.000000
_cell_angle_gamma 90.000000
_cell_volume 3521.694847
_symmetry_space_group_name_H-M "I B C A "
_symmetry_group_IT_number 73
_symmetry_cell_setting 'orthorhombic'
loop_
_space_group_symop_operation_xyz
x,y,z
-x,1/2-y,z
x,-y,1/2-z
1/2-x,y,-z
-x,-y,-z
x,1/2+y,-z
-x,y,1/2+z
1/2+x,-y,z
1/2+x,1/2+y,1/2+z
1/2-x,-y,1/2+z
1/2+x,1/2-y,-z
-x,1/2+y,1/2-z
1/2-x,1/2-y,1/2-z
1/2+x,y,1/2-z
1/2-x,1/2+y,z
x,1/2-y,1/2+z
loop_
_atom_site_type_symbol
_atom_site_label
_atom_site_fract_x
_atom_site_fract_y
_atom_site_fract_z
Si Si1 0.339161 0.082987 0.099251
Si Si2 0.185059 0.923938 0.057320
Si Si3 0.193165 0.249075 0.057828
Si Si4 0.361195 0.185735 0.188355
Si Si5 0.000000 0.750000 0.785600
O O1 0.490234 0.076972 0.060724
O O2 0.251590 0.167118 0.084134
O O3 0.382850 0.102552 0.157114
O O4 0.240512 0.000494 0.090563
O O5 0.243584 0.836121 0.078019
O O6 0.250000 0.932450 0.000000
O O7 0.000000 0.250000 0.059386
O O8 0.250000 0.245514 0.000000
O O9 0.500000 0.250000 0.166927
O O10 0.420868 0.183316 0.246739
O O11 0.167599 0.215717 0.187759
#
# Coordination Sequence:
#
# PCOD9533228 Si02
#       5
#    16  16  16  16   8
#     4  12  23  39  63  94 122 171 217 265 310 394
#     4  11  23  40  58  88 134 170 208 264 316 368
#     4  11  22  38  60  87 120 167 212 257 314 372
#     4   9  18  37  65  99 124 160 213 260 329 404
#     4   8  18  38  66 100 124 162 202 272 348 382
#
# _framework density 20.444701999999999
#
# number of rings (size 3 to 8) (size 9 to 14) (size 15 to 20)
#    0.667    0.889    0.000    7.333    1.556    0.000 
#    4.000    0.000    0.000    4.000    0.000    0.000 
#    0.000    0.000    0.000    0.000    0.000    0.000 
#
# Total GULP energy -200577.326790 kJ/mol
# GULP energy per Si atom -5571.592411 kJ/mol
# Density = 2.039817 g / cm^3
# Si number density = 20.444702 Si / 1000 Ang^3
#
#
#
# Elastic Constant Matrix: (Units=GPa)
#
#
# Indices 1 2 3 4 5 6 
#
# 1 138.2157 31.7259 19.4873 0.0000 0.0000 0.0000
# 2 31.7259 163.9895 44.4724 0.0000 0.0000 0.0000
# 3 19.4873 44.4724 77.8195 0.0000 0.0000 0.0000
# 4 0.0000 0.0000 0.0000 461.8186 0.0000 0.0000
# 5 0.0000 0.0000 0.0000 0.0000 14.8286 0.0000
# 6 0.0000 0.0000 0.0000 0.0000 0.0000 32.8659
#
#
#
# Elastic Compliance Matrix: (Units=1/GPa)
#
#
# Indices 1 2 3 4 5 6 
#
# 1 0.007676 -0.001140 -0.001270 0.000000 0.000000 0.000000
# 2 -0.001140 0.007386 -0.003935 0.000000 0.000000 0.000000
# 3 -0.001270 -0.003935 0.015417 0.000000 0.000000 0.000000
# 4 0.000000 0.000000 0.000000 0.002165 0.000000 0.000000
# 5 0.000000 0.000000 0.000000 0.000000 0.067437 0.000000
# 6 0.000000 0.000000 0.000000 0.000000 0.000000 0.030427
#
#
# Mechanical properties :
#
#
# Convention : Reuss Voigt Hill
#
# Bulk Modulus (GPa) = 56.22161 63.48844 59.85502
# Shear Modulus (GPa) = 33.52789 120.85856 77.19322
#
# Velocity S-wave (km/s) = 4.05400 7.69696 6.15135
# Velocity P-wave (km/s) = 7.03365 10.49343 8.93265
#
# Compressibility (1/GPa) = 0.01778676
#
# Stress axis : x y z
#
# Youngs Moduli (GPa) = 130.27664 135.39503 64.86213
#
# Poissons Ratio (x) = 0.15442 0.08240
# Poissons Ratio (y) = 0.14858 0.25525
# Poissons Ratio (z) = 0.16551 0.53281
#
# Static dielectric constant tensor:
#      x y z
#    x 1.857690 0.000000 0.000000 
#    y 0.000000 1.637740 0.000000 
#    z 0.000000 0.000000 1.860680 
# 
# From -- ./inp_files/7668.got.cif
#   From: 2010.05.17/outbox.cif.g08.bks.cpg/sg73_4_cif.got.tgz:7668.got - 2010.06.03 17:35:07.
