data_PCOD9533743
_publ_section_title
;
Structure prediction by ZEFSAII (Michael W. Deem and Ramdas Pophale) SiO2 
 PCOD9533743
Probable space group: I B C A 
;
_chemical_formula_sum "Si O2"
_cell_formula_units_Z 44
_cell_length_a 12.000000
_cell_length_b 21.000000
_cell_length_c 18.000000
_cell_angle_alpha 90.000000
_cell_angle_beta 90.000000
_cell_angle_gamma 90.000000
_cell_volume 4536.000000
_symmetry_space_group_name_H-M "I B C A "
_symmetry_group_IT_number 73
_symmetry_cell_setting 'orthorhombic'
loop_
_space_group_symop_operation_xyz
x,y,z
-x,1/2-y,z
x,-y,1/2-z
1/2-x,y,-z
-x,-y,-z
x,1/2+y,-z
-x,y,1/2+z
1/2+x,-y,z
1/2+x,1/2+y,1/2+z
1/2-x,-y,1/2+z
1/2+x,1/2-y,-z
-x,1/2+y,1/2-z
1/2-x,1/2-y,1/2-z
1/2+x,y,1/2-z
1/2-x,1/2+y,z
x,1/2-y,1/2+z
loop_
_atom_site_type_symbol
_atom_site_label
_atom_site_fract_x
_atom_site_fract_y
_atom_site_fract_z
Si Si1 0.297179 0.957105 0.619005
Si Si2 0.724789 0.150270 0.256872
Si Si3 0.367639 0.767542 0.147671
Si Si4 0.750000 0.677658 0.000000
Si Si5 0.584259 0.944933 0.974956
Si Si6 0.894492 0.599012 0.118098
O O1 0.271074 0.913164 0.690671
O O2 0.368500 0.920064 0.554263
O O3 0.184262 0.972592 0.574257
O O4 0.356766 0.025317 0.633321
O O5 0.829525 0.174113 0.204444
O O6 0.693594 0.207137 0.313551
O O7 0.629739 0.136686 0.194279
O O8 0.500000 0.750000 0.146064
O O9 0.320624 0.783136 0.063788
O O10 0.676164 0.631739 0.947779
O O11 0.517583 0.900460 0.917604
O O12 0.500000 0.000000 0.000000
#
# Coordination Sequence:
#
# PCOD9533743 Si02
#       6
#    16  16  16   8  16  16
#     4  10  20  37  61  95 132 159 204 262 317 397
#     4  10  23  41  62  95 130 159 214 269 319 391
#     4  10  24  45  65  90 126 176 219 268 316 375
#     4  10  22  42  66  88 124 168 220 262 314 380
#     4   9  19  34  57  89 126 168 201 243 309 389
#     4  10  20  39  61  93 125 162 203 261 326 386
#
# _framework density 9.7001760000000008
#
# number of rings (size 3 to 8) (size 9 to 14) (size 15 to 20)
#    0.000    2.182    0.000    2.727    5.091    1.455 
#    3.273    5.455    0.000    0.000    0.000    0.000 
#    0.000    0.000    0.000    0.000    0.000    0.000 
#
# Total GULP energy -244997.419159 kJ/mol
# GULP energy per Si atom -5568.123163 kJ/mol
# Density = 0.967810 g / cm^3
# Si number density = 9.700176 Si / 1000 Ang^3
#
#
#
# Elastic Constant Matrix: (Units=GPa)
#
#
# Indices 1 2 3 4 5 6 
#
# 1 87.9879 10.5329 31.9532 0.0000 0.0000 0.0000
# 2 10.5329 71.5300 40.6835 0.0000 0.0000 0.0000
# 3 31.9532 40.6835 152.8010 0.0000 0.0000 0.0000
# 4 0.0000 0.0000 0.0000 44.7929 0.0000 0.0000
# 5 0.0000 0.0000 0.0000 0.0000 33.2445 0.0000
# 6 0.0000 0.0000 0.0000 0.0000 0.0000 25.8574
#
#
#
# Elastic Compliance Matrix: (Units=1/GPa)
#
#
# Indices 1 2 3 4 5 6 
#
# 1 0.012309 -0.000411 -0.002465 0.000000 0.000000 0.000000
# 2 -0.000411 0.016489 -0.004304 0.000000 0.000000 0.000000
# 3 -0.002465 -0.004304 0.008206 0.000000 0.000000 0.000000
# 4 0.000000 0.000000 0.000000 0.022325 0.000000 0.000000
# 5 0.000000 0.000000 0.000000 0.000000 0.030080 0.000000
# 6 0.000000 0.000000 0.000000 0.000000 0.000000 0.038674
#
#
# Mechanical properties :
#
#
# Convention : Reuss Voigt Hill
#
# Bulk Modulus (GPa) = 44.16065 53.18423 48.67244
# Shear Modulus (GPa) = 33.33544 36.05557 34.69551
#
# Velocity S-wave (km/s) = 4.14972 4.31571 4.23353
# Velocity P-wave (km/s) = 6.76554 7.23238 7.00285
#
# Compressibility (1/GPa) = 0.02264459
#
# Stress axis : x y z
#
# Youngs Moduli (GPa) = 81.23836 60.64751 121.86362
#
# Poissons Ratio (x) = 0.02491 0.30036
# Poissons Ratio (y) = 0.03337 0.52453
# Poissons Ratio (z) = 0.20023 0.26104
#
# Static dielectric constant tensor:
#      x y z
#    x 1.738250 0.000000 0.000000 
#    y 0.000000 1.703780 0.000000 
#    z 0.000000 0.000000 1.680650 
# 
# From -- ./inp_files/21268.got.cif
#   From: 2010.05.17/outbox.ucp.g08.bks.cvg/sg73_11_cif.got.tgz:21268.got - 2010.06.11 16:36:03.
