data_PCOD9533857
_publ_section_title
;
Structure prediction by ZEFSAII (Michael W. Deem and Ramdas Pophale) SiO2 
 PCOD9533857
Probable space group: I M M A
;
_chemical_formula_sum "Si O2"
_cell_formula_units_Z 128
_cell_length_a 20.160980
_cell_length_b 17.322346
_cell_length_c 27.694517
_cell_angle_alpha 90.000000
_cell_angle_beta 90.000000
_cell_angle_gamma 90.000000
_cell_volume 9671.907696
_symmetry_space_group_name_H-M "I M M A"
_symmetry_group_IT_number 74
_symmetry_cell_setting 'orthorhombic'
loop_
_space_group_symop_operation_xyz
x,y,z
-x,1/2-y,z
x,-y,-z
-x,1/2+y,-z
-x,-y,-z
x,1/2+y,-z
-x,y,z
x,1/2-y,z
1/2+x,1/2+y,1/2+z
1/2-x,-y,1/2+z
1/2+x,1/2-y,1/2-z
1/2-x,y,1/2-z
1/2-x,1/2-y,1/2-z
1/2+x,y,1/2-z
1/2-x,1/2+y,1/2+z
1/2+x,-y,1/2+z
loop_
_atom_site_type_symbol
_atom_site_label
_atom_site_fract_x
_atom_site_fract_y
_atom_site_fract_z
Si Si1 0.926248 0.156213 0.445417
Si Si2 0.423765 0.340392 0.536496
Si Si3 0.211815 0.841275 0.513011
Si Si4 0.426609 0.343552 0.167116
Si Si5 0.304614 0.553402 0.452912
Si Si6 0.715880 0.656882 0.800964
Si Si7 0.712459 0.093330 0.394646
Si Si8 0.925397 0.341266 0.079942
O O1 0.925535 0.250000 0.446073
O O2 0.863362 0.131664 0.476740
O O3 0.917052 0.134080 0.389184
O O4 0.000000 0.131294 0.460944
O O5 0.500000 0.357919 0.549468
O O6 0.410961 0.250000 0.547119
O O7 0.369730 0.397015 0.558770
O O8 0.418269 0.348838 0.478170
O O9 0.213148 0.750000 0.503403
O O10 0.247653 0.888883 0.471175
O O11 0.252536 0.857651 0.562389
O O12 0.500000 0.370349 0.182811
O O13 0.428436 0.250000 0.167795
O O14 0.361725 0.366095 0.196878
O O15 0.319826 0.500000 0.500000
O O16 0.282347 0.495400 0.411184
O O17 0.719609 0.750000 0.808867
O O18 0.750000 0.640137 0.750000
O O19 0.753396 0.615679 0.844853
O O20 0.634855 0.115119 0.395303
O O21 0.920349 0.250000 0.090687
O O22 0.000000 0.367050 0.092671
#
# Coordination Sequence:
#
# PCOD9533857 Si02
#       8
#    16  16  16  16  16  16  16  16
#     4   8  13  21  37  59  76  96 128 160 192 227
#     4   9  16  26  39  55  77 106 143 176 192 217
#     4  10  16  25  41  57  78 104 130 160 192 229
#     4   8  13  23  39  58  76  95 126 166 199 228
#     4  10  19  25  35  56  80 108 136 161 194 240
#     4  10  19  30  45  62  76  99 137 174 205 238
#     4  11  19  28  39  56  81 107 130 165 204 238
#     4   9  16  25  38  54  74 106 140 165 194 229
#
# _framework density 13.234204
#
# number of rings (size 3 to 8) (size 9 to 14) (size 15 to 20)
#    0.000    2.625    3.750    3.000    0.000    0.750 
#    0.000    0.625    0.000    6.375    0.000    0.000 
#    0.000    2.000    0.000    0.000    0.000    5.750 
#
# Total GULP energy -356292.929807 kJ/mol
# GULP energy per Si atom -5567.077028 kJ/mol
# Density = 1.320408 g / cm^3
# Si number density = 13.234204 Si / 1000 Ang^3
#
#
#
# Elastic Constant Matrix: (Units=GPa)
#
#
# Indices 1 2 3 4 5 6 
#
# 1 118.0754 39.8363 39.0041 0.0000 0.0000 0.0000
# 2 39.8363 44.0506 25.3443 0.0000 0.0000 0.0000
# 3 39.0041 25.3443 49.0709 0.0000 0.0000 0.0000
# 4 0.0000 0.0000 0.0000 -33.2951 0.0000 0.0000
# 5 0.0000 0.0000 0.0000 0.0000 11.8811 0.0000
# 6 0.0000 0.0000 0.0000 0.0000 0.0000 1.8525
#
#
#
# Elastic Compliance Matrix: (Units=1/GPa)
#
#
# Indices 1 2 3 4 5 6 
#
# 1 0.013414 -0.008531 -0.006256 0.000000 0.000000 0.000000
# 2 -0.008531 0.037725 -0.012703 0.000000 0.000000 0.000000
# 3 -0.006256 -0.012703 0.031912 0.000000 0.000000 0.000000
# 4 0.000000 0.000000 0.000000 -0.030034 0.000000 0.000000
# 5 0.000000 0.000000 0.000000 0.000000 0.084167 0.000000
# 6 0.000000 0.000000 0.000000 0.000000 0.000000 0.539823
#
#
# Mechanical properties :
#
#
# Convention : Reuss Voigt Hill
#
# Bulk Modulus (GPa) = 35.62470 46.61846 41.12158
# Shear Modulus (GPa) = 6.74450 3.22184 4.98317
#
# Velocity S-wave (km/s) = 2.25994 1.56197 1.94256
# Velocity P-wave (km/s) = 5.81265 6.20929 6.01424
#
# Compressibility (1/GPa) = 0.02807041
#
# Stress axis : x y z
#
# Youngs Moduli (GPa) = 74.54907 26.50751 31.33606
#
# Poissons Ratio (x) = 0.22615 0.19603
# Poissons Ratio (y) = 0.63601 0.39807
# Poissons Ratio (z) = 0.46636 0.33673
#
# Static dielectric constant tensor:
#      x y z
#    x 1.475450 0.000000 0.000000 
#    y 0.000000 1.427230 0.000000 
#    z 0.000000 0.000000 1.401360 
# 
# From -- ./inp_files/61774.got.cif
#   From: 2010.05.17/outbox.cif.g08.bks.cpg/sg74_31_cif.got.tgz:61774.got - 2010.06.03 17:57:02.
