data_PCOD9533985
_publ_section_title
;
Structure prediction by ZEFSAII (Michael W. Deem and Ramdas Pophale) SiO2 
 PCOD9533985
Probable space group: I M M A
;
_chemical_formula_sum "Si O2"
_cell_formula_units_Z 80
_cell_length_a 29.763164
_cell_length_b 8.602381
_cell_length_c 23.426142
_cell_angle_alpha 90.000000
_cell_angle_beta 90.000000
_cell_angle_gamma 90.000000
_cell_volume 5997.890633
_symmetry_space_group_name_H-M "I M M A"
_symmetry_group_IT_number 74
_symmetry_cell_setting 'orthorhombic'
loop_
_space_group_symop_operation_xyz
x,y,z
-x,1/2-y,z
x,-y,-z
-x,1/2+y,-z
-x,-y,-z
x,1/2+y,-z
-x,y,z
x,1/2-y,z
1/2+x,1/2+y,1/2+z
1/2-x,-y,1/2+z
1/2+x,1/2-y,1/2-z
1/2-x,y,1/2-z
1/2-x,1/2-y,1/2-z
1/2+x,y,1/2-z
1/2-x,1/2+y,1/2+z
1/2+x,-y,1/2+z
loop_
_atom_site_type_symbol
_atom_site_label
_atom_site_fract_x
_atom_site_fract_y
_atom_site_fract_z
Si Si1 0.947225 0.435632 0.062922
Si Si2 0.817408 0.435755 0.236023
Si Si3 0.131735 0.935228 0.136334
Si Si4 0.767974 0.935801 0.335674
Si Si5 0.783967 0.563881 0.936099
O O1 0.940597 0.250000 0.063523
O O2 0.915228 0.514386 0.109090
O O3 0.000000 0.468223 0.072718
O O4 0.935710 0.500000 0.000000
O O5 0.814629 0.250000 0.235558
O O6 0.859514 0.493690 0.199099
O O7 0.810128 0.498785 0.299974
O O8 0.775442 0.505654 0.200204
O O9 0.136168 0.750000 0.138807
O O10 0.170797 0.001609 0.094697
O O11 0.768750 0.750000 0.336303
O O12 0.757819 0.002542 0.398195
O O13 0.784858 0.750000 0.935412
O O14 0.782153 0.500000 0.000000
#
# Coordination Sequence:
#
# PCOD9533985 Si02
#       5
#    16  16  16  16  16
#     4  10  20  33  46  59  76  99 127 160 199 241
#     4  10  17  27  41  57  75  97 124 155 191 228
#     4  11  20  30  43  59  77  98 127 163 199 234
#     4  10  17  27  40  56  76  98 124 155 191 228
#     4  11  20  30  41  56  77 102 131 162 196 231
#
# _framework density 13.338022
#
# number of rings (size 3 to 8) (size 9 to 14) (size 15 to 20)
#    0.000    1.600    0.000   12.000    0.000    1.200 
#    0.000    0.000    0.000    0.000    0.000    0.000 
#    0.000    0.000    0.000    0.000    0.000    1.000 
#
# Total GULP energy -223117.342161 kJ/mol
# GULP energy per Si atom -5577.933554 kJ/mol
# Density = 1.330766 g / cm^3
# Si number density = 13.338022 Si / 1000 Ang^3
#
#
#
# Elastic Constant Matrix: (Units=GPa)
#
#
# Indices 1 2 3 4 5 6 
#
# 1 39.2146 27.6617 28.5452 0.0000 0.0000 0.0000
# 2 27.6617 134.8606 36.3367 0.0000 0.0000 0.0000
# 3 28.5452 36.3367 63.3639 0.0000 0.0000 0.0000
# 4 0.0000 0.0000 0.0000 21.6952 0.0000 0.0000
# 5 0.0000 0.0000 0.0000 0.0000 22.7307 0.0000
# 6 0.0000 0.0000 0.0000 0.0000 0.0000 17.5097
#
#
#
# Elastic Compliance Matrix: (Units=1/GPa)
#
#
# Indices 1 2 3 4 5 6 
#
# 1 0.039625 -0.003924 -0.015600 0.000000 0.000000 0.000000
# 2 -0.003924 0.009159 -0.003484 0.000000 0.000000 0.000000
# 3 -0.015600 -0.003484 0.024808 0.000000 0.000000 0.000000
# 4 0.000000 0.000000 0.000000 0.046093 0.000000 0.000000
# 5 0.000000 0.000000 0.000000 0.000000 0.043993 0.000000
# 6 0.000000 0.000000 0.000000 0.000000 0.000000 0.057111
#
#
# Mechanical properties :
#
#
# Convention : Reuss Voigt Hill
#
# Bulk Modulus (GPa) = 36.26673 46.94738 41.60705
# Shear Modulus (GPa) = 18.11605 22.04682 20.08143
#
# Velocity S-wave (km/s) = 3.68941 4.07004 3.88439
# Velocity P-wave (km/s) = 6.73784 7.57374 7.16798
#
# Compressibility (1/GPa) = 0.02757348
#
# Stress axis : x y z
#
# Youngs Moduli (GPa) = 25.23675 109.18470 40.30966
#
# Poissons Ratio (x) = 0.42846 0.62885
# Poissons Ratio (y) = 0.09903 0.14045
# Poissons Ratio (z) = 0.39370 0.38044
#
# Static dielectric constant tensor:
#      x y z
#    x 1.438770 0.000000 0.000000 
#    y 0.000000 1.441580 0.000000 
#    z 0.000000 0.000000 1.465030 
# 
# From -- ./inp_files/62559.got.cif
#   From: 2010.05.17/outbox.cif.g08.bks.cpg/sg74_32_cif.got.tgz:62559.got - 2010.06.03 17:57:02.
