data_PCOD9533484
_publ_section_title
;
Structure prediction by ZEFSAII (Michael W. Deem and Ramdas Pophale) SiO2 
 PCOD9533484
Probable space group: I B C A 
;
_chemical_formula_sum "Si O2"
_cell_formula_units_Z 120
_cell_length_a 17.719839
_cell_length_b 25.027920
_cell_length_c 11.345405
_cell_angle_alpha 90.000000
_cell_angle_beta 90.000000
_cell_angle_gamma 90.000000
_cell_volume 5031.581752
_symmetry_space_group_name_H-M "I B C A "
_symmetry_group_IT_number 73
_symmetry_cell_setting 'orthorhombic'
loop_
_space_group_symop_operation_xyz
x,y,z
-x,1/2-y,z
x,-y,1/2-z
1/2-x,y,-z
-x,-y,-z
x,1/2+y,-z
-x,y,1/2+z
1/2+x,-y,z
1/2+x,1/2+y,1/2+z
1/2-x,-y,1/2+z
1/2+x,1/2-y,-z
-x,1/2+y,1/2-z
1/2-x,1/2-y,1/2-z
1/2+x,y,1/2-z
1/2-x,1/2+y,z
x,1/2-y,1/2+z
loop_
_atom_site_type_symbol
_atom_site_label
_atom_site_fract_x
_atom_site_fract_y
_atom_site_fract_z
Si Si1 0.489848 0.314439 0.311327
Si Si2 0.723642 0.407478 0.370154
Si Si3 0.442888 0.839341 0.445268
Si Si4 0.196368 0.235238 0.916946
Si Si5 0.316232 0.177346 0.776452
Si Si6 0.091306 0.051407 0.061088
Si Si7 0.921899 0.037216 0.135753
Si Si8 0.696083 0.500000 0.750000
O O1 0.500000 0.250000 0.302605
O O2 0.505199 0.328422 0.450845
O O3 0.402781 0.334905 0.303575
O O4 0.527867 0.337274 0.190532
O O5 0.750000 0.396071 0.500000
O O6 0.768406 0.367017 0.289202
O O7 0.633932 0.412427 0.357199
O O8 0.752167 0.466199 0.336052
O O9 0.380785 0.792212 0.455868
O O10 0.404262 0.896331 0.477661
O O11 0.260891 0.192647 0.882151
O O12 0.177099 0.269954 0.803580
O O13 0.250000 0.271530 0.000000
O O14 0.147412 0.040141 0.169022
O O15 0.008188 0.053510 0.117713
O O16 0.097458 0.999295 0.977669
O O17 0.915816 0.000000 0.250000
#
# Coordination Sequence:
#
# PCOD9533484 Si02
#       8
#    16  16  16  16  16  16  16   8
#     4  12  26  50  74 112 155 197 251 318 388 460
#     4  12  26  45  71 109 144 196 249 311 384 446
#     4  12  28  45  82 111 151 205 256 314 389 470
#     4  11  24  48  70 107 146 199 248 313 376 451
#     4  11  26  46  74 105 151 194 254 314 377 461
#     4  11  27  47  74 106 155 198 256 313 387 466
#     4  11  25  46  71 106 150 195 252 317 375 451
#     4  12  24  46  72 106 154 194 254 318 374 460
#
# _framework density 23.849360000000001
#
# number of rings (size 3 to 8) (size 9 to 14) (size 15 to 20)
#    0.000    0.533    5.333    1.600    5.600    0.000 
#    0.000    0.000    0.000    0.000    0.000    0.000 
#    0.000    0.000    0.000    0.000    0.000    0.000 
#
# Total GULP energy -335245.956008 kJ/mol
# GULP energy per Si atom -5587.432600 kJ/mol
# Density = 2.379508 g / cm^3
# Si number density = 23.849360 Si / 1000 Ang^3
#
#
#
# Elastic Constant Matrix: (Units=GPa)
#
#
# Indices 1 2 3 4 5 6 
#
# 1 105.1204 24.2937 41.1531 0.0000 0.0000 0.0000
# 2 24.2937 75.1915 21.0027 0.0000 0.0000 0.0000
# 3 41.1531 21.0027 130.7936 -0.0001 0.0000 0.0000
# 4 0.0000 0.0000 -0.0001 118.9785 0.0000 0.0000
# 5 0.0000 0.0000 0.0000 0.0000 37.8642 0.0000
# 6 0.0000 0.0000 0.0000 0.0000 0.0000 24.1193
#
#
#
# Elastic Compliance Matrix: (Units=1/GPa)
#
#
# Indices 1 2 3 4 5 6 
#
# 1 0.011387 -0.002804 -0.003133 0.000000 0.000000 0.000000
# 2 -0.002804 0.014614 -0.001464 0.000000 0.000000 0.000000
# 3 -0.003133 -0.001464 0.008866 0.000000 0.000000 0.000000
# 4 0.000000 0.000000 0.000000 0.008405 0.000000 0.000000
# 5 0.000000 0.000000 0.000000 0.000000 0.026410 0.000000
# 6 0.000000 0.000000 0.000000 0.000000 0.000000 0.041460
#
#
# Mechanical properties :
#
#
# Convention : Reuss Voigt Hill
#
# Bulk Modulus (GPa) = 49.83623 53.77828 51.80725
# Shear Modulus (GPa) = 37.69750 51.16949 44.43349
#
# Velocity S-wave (km/s) = 3.98005 4.63701 4.32103
# Velocity P-wave (km/s) = 6.48558 7.16012 6.83118
#
# Compressibility (1/GPa) = 0.02006573
#
# Stress axis : x y z
#
# Youngs Moduli (GPa) = 87.81687 68.42558 112.78458
#
# Poissons Ratio (x) = 0.19187 0.35331
# Poissons Ratio (y) = 0.24625 0.16517
# Poissons Ratio (z) = 0.27510 0.10021
#
# Static dielectric constant tensor:
#      x y z
#    x 1.909210 0.000000 0.000000 
#    y 0.000000 2.007420 0.000000 
#    z 0.000000 0.000000 1.438240 
# 
# From -- ./inp_files/12259.got.cif
#   From: 2010.05.17/outbox.cif.g08.bks.cpg/sg73_7_cif.got.tgz:12259.got - 2010.06.03 17:35:07.
