data_PCOD9533116
_publ_section_title
;
Structure prediction by ZEFSAII (Michael W. Deem and Ramdas Pophale) SiO2 
 PCOD9533116
Probable space group: I B C A 
;
_chemical_formula_sum "Si O2"
_cell_formula_units_Z 120
_cell_length_a 13.233658
_cell_length_b 25.182218
_cell_length_c 16.895064
_cell_angle_alpha 90.000000
_cell_angle_beta 90.000000
_cell_angle_gamma 90.000000
_cell_volume 5630.328410
_symmetry_space_group_name_H-M "I B C A "
_symmetry_group_IT_number 73
_symmetry_cell_setting 'orthorhombic'
loop_
_space_group_symop_operation_xyz
x,y,z
-x,1/2-y,z
x,-y,1/2-z
1/2-x,y,-z
-x,-y,-z
x,1/2+y,-z
-x,y,1/2+z
1/2+x,-y,z
1/2+x,1/2+y,1/2+z
1/2-x,-y,1/2+z
1/2+x,1/2-y,-z
-x,1/2+y,1/2-z
1/2-x,1/2-y,1/2-z
1/2+x,y,1/2-z
1/2-x,1/2+y,z
x,1/2-y,1/2+z
loop_
_atom_site_type_symbol
_atom_site_label
_atom_site_fract_x
_atom_site_fract_y
_atom_site_fract_z
Si Si1 0.443803 0.070400 0.912778
Si Si2 0.368749 0.336415 0.515364
Si Si3 0.584894 0.156117 0.828089
Si Si4 0.734233 0.496918 0.905394
Si Si5 0.711466 0.877929 0.407834
Si Si6 0.493800 0.856321 0.343768
Si Si7 0.049416 0.519449 0.161691
Si Si8 0.000000 0.250000 0.576072
O O1 0.517754 0.108833 0.865443
O O2 0.339214 0.049975 0.876018
O O3 0.500374 0.014106 0.910403
O O4 0.413573 0.106451 0.986959
O O5 0.250000 0.335557 0.500000
O O6 0.404920 0.331373 0.604233
O O7 0.426122 0.289204 0.470918
O O8 0.700427 0.138885 0.845970
O O9 0.532165 0.163488 0.743494
O O10 0.568898 0.210731 0.873631
O O11 0.698030 0.558092 0.900100
O O12 0.833533 0.490829 0.853733
O O13 0.750000 0.487866 0.000000
O O14 0.750000 0.868174 0.500000
O O15 0.605090 0.849949 0.383937
O O16 0.476998 0.919425 0.341483
O O17 0.019978 0.500000 0.250000
#
# Coordination Sequence:
#
# PCOD9533116 Si02
#       8
#    16  16  16  16  16  16  16   8
#     4  11  21  41  62  94 145 185 232 281 356 435
#     4  11  26  47  72 105 136 187 240 309 365 436
#     4  11  25  47  67 102 134 186 238 305 364 430
#     4  11  23  35  62  94 134 195 237 279 342 429
#     4  11  23  41  67 102 143 191 242 291 357 447
#     4  12  25  42  70 105 145 183 238 297 364 442
#     4  12  23  38  59  99 146 192 229 283 357 443
#     4  10  26  50  78  92 136 184 242 308 380 420
#
# _framework density 21.313144000000001
#
# number of rings (size 3 to 8) (size 9 to 14) (size 15 to 20)
#    0.000    0.800    4.000    3.600    1.867    8.000 
#    0.000    1.333    0.000    0.000    0.000    0.000 
#    0.000    0.000    0.000    0.000    0.000    0.000 
#
# Total GULP energy -334680.846008 kJ/mol
# GULP energy per Si atom -5578.014100 kJ/mol
# Density = 2.126463 g / cm^3
# Si number density = 21.313144 Si / 1000 Ang^3
#
#
#
# Elastic Constant Matrix: (Units=GPa)
#
#
# Indices 1 2 3 4 5 6 
#
# 1 95.8914 -6.2731 24.0210 0.0000 0.0000 0.0000
# 2 -6.2731 73.1755 5.2498 0.0000 0.0000 0.0000
# 3 24.0210 5.2498 69.0907 0.0000 0.0000 0.0000
# 4 0.0000 0.0000 0.0000 12.7487 0.0000 0.0000
# 5 0.0000 0.0000 0.0000 0.0000 22.3600 0.0000
# 6 0.0000 0.0000 0.0000 0.0000 0.0000 9.8161
#
#
#
# Elastic Compliance Matrix: (Units=1/GPa)
#
#
# Indices 1 2 3 4 5 6 
#
# 1 0.011542 0.001284 -0.004110 0.000000 0.000000 0.000000
# 2 0.001284 0.013884 -0.001501 0.000000 0.000000 0.000000
# 3 -0.004110 -0.001501 0.016017 0.000000 0.000000 0.000000
# 4 0.000000 0.000000 0.000000 0.078439 0.000000 0.000000
# 5 0.000000 0.000000 0.000000 0.000000 0.044723 0.000000
# 6 0.000000 0.000000 0.000000 0.000000 0.000000 0.101874
#
#
# Mechanical properties :
#
#
# Convention : Reuss Voigt Hill
#
# Bulk Modulus (GPa) = 30.49941 31.57254 31.03598
# Shear Modulus (GPa) = 17.47869 23.32895 20.40382
#
# Velocity S-wave (km/s) = 2.86683 3.31203 3.09744
# Velocity P-wave (km/s) = 5.02986 5.42880 5.23313
#
# Compressibility (1/GPa) = 0.03278751
#
# Stress axis : x y z
#
# Youngs Moduli (GPa) = 86.63878 72.02745 62.43394
#
# Poissons Ratio (x) = -0.09251 0.25663
# Poissons Ratio (y) = -0.11128 0.09374
# Poissons Ratio (z) = 0.35613 0.10815
#
# Static dielectric constant tensor:
#      x y z
#    x 1.836930 0.000000 0.000000 
#    y 0.000000 1.747940 0.000000 
#    z 0.000000 0.000000 1.833110 
# 
# From -- ./inp_files/21504.got.cif
#   From: 2010.05.17/outbox.cif.g08.bks.cpg/sg73_11_cif.got.tgz:21504.got - 2010.06.03 17:35:07.
