data_PCOD9533129
_publ_section_title
;
Structure prediction by ZEFSAII (Michael W. Deem and Ramdas Pophale) SiO2 
 PCOD9533129
Probable space group: I B C A 
;
_chemical_formula_sum "Si O2"
_cell_formula_units_Z 56
_cell_length_a 9.934447
_cell_length_b 22.884515
_cell_length_c 9.995227
_cell_angle_alpha 90.000000
_cell_angle_beta 90.000000
_cell_angle_gamma 90.000000
_cell_volume 2272.364896
_symmetry_space_group_name_H-M "I B C A "
_symmetry_group_IT_number 73
_symmetry_cell_setting 'orthorhombic'
loop_
_space_group_symop_operation_xyz
x,y,z
-x,1/2-y,z
x,-y,1/2-z
1/2-x,y,-z
-x,-y,-z
x,1/2+y,-z
-x,y,1/2+z
1/2+x,-y,z
1/2+x,1/2+y,1/2+z
1/2-x,-y,1/2+z
1/2+x,1/2-y,-z
-x,1/2+y,1/2-z
1/2-x,1/2-y,1/2-z
1/2+x,y,1/2-z
1/2-x,1/2+y,z
x,1/2-y,1/2+z
loop_
_atom_site_type_symbol
_atom_site_label
_atom_site_fract_x
_atom_site_fract_y
_atom_site_fract_z
Si Si1 0.203547 0.000000 0.250000
Si Si2 0.036238 0.352254 0.096203
Si Si3 0.057014 0.572184 0.154993
Si Si4 0.827046 0.766132 0.880033
O O1 0.313243 0.971129 0.353170
O O2 0.090826 0.956731 0.184406
O O3 0.098514 0.392523 0.210128
O O4 0.117884 0.294120 0.053394
O O5 0.924261 0.315863 0.174728
O O6 0.973622 0.389171 0.975629
O O7 0.750000 0.750000 0.750000
O O8 0.750000 0.796187 0.000000
#
# Coordination Sequence:
#
# PCOD9533129 Si02
#       4
#     8  16  16  16
#     4  10  28  48  72 106 144 188 260 300 364 418
#     4  11  26  43  72 105 141 187 237 290 376 424
#     4  11  26  47  74 103 143 193 238 308 355 430
#     4  11  24  43  70 107 141 181 232 290 351 458
#
# _framework density 24.643927999999999
#
# number of rings (size 3 to 8) (size 9 to 14) (size 15 to 20)
#    0.000    1.143    0.000    3.429   12.000   11.429 
#    0.000    0.000    0.000    0.000    0.000    0.000 
#    0.000    0.000    0.000    0.000    0.000    0.000 
#
# Total GULP energy -155904.066645 kJ/mol
# GULP energy per Si atom -5568.002380 kJ/mol
# Density = 2.458784 g / cm^3
# Si number density = 24.643928 Si / 1000 Ang^3
#
#
#
# Elastic Constant Matrix: (Units=GPa)
#
#
# Indices 1 2 3 4 5 6 
#
# 1 111.3691 33.0835 11.0015 0.0000 0.0003 -0.0017
# 2 33.0835 99.4960 27.1566 0.0001 0.0004 -0.0010
# 3 11.0015 27.1566 79.4756 0.0006 0.0016 -0.0045
# 4 0.0000 0.0001 0.0006 -24.4682 0.0004 -0.0006
# 5 0.0003 0.0004 0.0016 0.0004 13.3112 -0.0007
# 6 -0.0017 -0.0010 -0.0045 -0.0006 -0.0007 113.3839
#
#
#
# Elastic Compliance Matrix: (Units=1/GPa)
#
#
# Indices 1 2 3 4 5 6 
#
# 1 0.009969 -0.003240 -0.000273 0.000000 0.000000 0.000000
# 2 -0.003240 0.012138 -0.003699 0.000000 0.000000 0.000000
# 3 -0.000273 -0.003699 0.013884 0.000000 -0.000002 0.000001
# 4 0.000000 0.000000 0.000000 -0.040869 0.000001 0.000000
# 5 0.000000 0.000000 -0.000002 0.000001 0.075124 0.000000
# 6 0.000000 0.000000 0.000001 0.000000 0.000000 0.008820
#
#
# Mechanical properties :
#
#
# Convention : Reuss Voigt Hill
#
# Bulk Modulus (GPa) = 46.36773 48.09154 47.22963
# Shear Modulus (GPa) = 49.66341 35.05199 42.35770
#
# Velocity S-wave (km/s) = 4.49401 3.77548 4.15032
# Velocity P-wave (km/s) = 6.76640 6.20988 6.49410
#
# Compressibility (1/GPa) = 0.02156672
#
# Stress axis : x y z
#
# Youngs Moduli (GPa) = 100.31454 82.38836 72.02473
#
# Poissons Ratio (x) = 0.26696 0.01964
# Poissons Ratio (y) = 0.32504 0.26641
# Poissons Ratio (z) = 0.02736 0.30474
#
# Static dielectric constant tensor:
#      x y z
#    x 0.047330 0.000020 -0.000030 
#    y 0.000020 1.942830 0.000000 
#    z -0.000030 0.000000 1.740500 
# 
# From -- ./inp_files/3860.got.cif
#   From: 2010.05.17/outbox.cif.g08.bks.cpg/sg73_2_cif.got.tgz:3860.got - 2010.06.03 17:35:07.
