data_PCOD9533801
_publ_section_title
;
Structure prediction by ZEFSAII (Michael W. Deem and Ramdas Pophale) SiO2 
 PCOD9533801
Probable space group: I M M A
;
_chemical_formula_sum "Si O2"
_cell_formula_units_Z 80
_cell_length_a 23.589819
_cell_length_b 10.972033
_cell_length_c 12.211400
_cell_angle_alpha 90.000000
_cell_angle_beta 90.000000
_cell_angle_gamma 90.000000
_cell_volume 3160.655567
_symmetry_space_group_name_H-M "I M M A"
_symmetry_group_IT_number 74
_symmetry_cell_setting 'orthorhombic'
loop_
_space_group_symop_operation_xyz
x,y,z
-x,1/2-y,z
x,-y,-z
-x,1/2+y,-z
-x,-y,-z
x,1/2+y,-z
-x,y,z
x,1/2-y,z
1/2+x,1/2+y,1/2+z
1/2-x,-y,1/2+z
1/2+x,1/2-y,1/2-z
1/2-x,y,1/2-z
1/2-x,1/2-y,1/2-z
1/2+x,y,1/2-z
1/2-x,1/2+y,1/2+z
1/2+x,-y,1/2+z
loop_
_atom_site_type_symbol
_atom_site_label
_atom_site_fract_x
_atom_site_fract_y
_atom_site_fract_z
Si Si1 0.202232 0.886414 0.868851
Si Si2 0.438883 0.029879 0.177090
Si Si3 0.063206 0.250000 0.746887
Si Si4 0.319190 0.986550 0.863721
Si Si5 0.312915 0.750000 0.197370
Si Si6 0.920038 0.112244 0.071414
O O1 0.202571 0.750000 0.822895
O O2 0.264316 0.919055 0.909689
O O3 0.188466 0.974077 0.768024
O O4 0.148098 0.888073 0.945630
O O5 0.500000 0.068693 0.132024
O O6 0.381608 0.065408 0.113841
O O7 0.433193 0.083541 0.301028
O O8 0.438751 0.882199 0.187978
O O9 0.131294 0.250000 0.779534
O O10 0.000000 0.250000 0.806156
O O11 0.317569 0.130500 0.877264
O O12 0.250000 0.750000 0.250000
O O13 0.938462 0.250000 0.045520
O O14 0.941602 0.000000 0.000000
#
# Coordination Sequence:
#
# PCOD9533801 Si02
#       6
#    16  16   8  16   8  16
#     4   9  16  28  44  61  84 110 142 180 230 279
#     4   9  18  31  47  66  92 124 156 189 226 274
#     4   8  16  28  42  62  90 126 156 181 226 275
#     4   9  15  25  42  66  87 112 139 180 233 278
#     4  10  14  20  36  64  92 104 142 188 218 264
#     4  10  22  36  47  65  89 121 161 199 230 265
#
# _framework density 25.311204
#
# number of rings (size 3 to 8) (size 9 to 14) (size 15 to 20)
#    0.000    2.800    2.000    1.200    1.400    1.600 
#    3.600    0.000    0.000    0.000    0.000    0.000 
#    0.000    0.800    0.000    0.600    0.000    0.800 
#
# Total GULP energy -222897.847283 kJ/mol
# GULP energy per Si atom -5572.446182 kJ/mol
# Density = 2.525359 g / cm^3
# Si number density = 25.311204 Si / 1000 Ang^3
#
#
#
# Elastic Constant Matrix: (Units=GPa)
#
#
# Indices 1 2 3 4 5 6 
#
# 1 311.5551 18.9537 14.4969 0.0000 0.0000 0.0000
# 2 18.9537 130.3218 19.9041 0.0000 0.0000 0.0000
# 3 14.4969 19.9041 66.8723 0.0000 0.0000 0.0000
# 4 0.0000 0.0000 0.0000 -1.4603 0.0000 0.0000
# 5 0.0000 0.0000 0.0000 0.0000 -6.3753 0.0000
# 6 0.0000 0.0000 0.0000 0.0000 0.0000 58.0761
#
#
#
# Elastic Compliance Matrix: (Units=1/GPa)
#
#
# Indices 1 2 3 4 5 6 
#
# 1 0.003261 -0.000384 -0.000593 0.000000 0.000000 0.000000
# 2 -0.000384 0.008084 -0.002323 0.000000 0.000000 0.000000
# 3 -0.000593 -0.002323 0.015774 0.000000 0.000000 0.000000
# 4 0.000000 0.000000 0.000000 -0.684780 0.000000 0.000000
# 5 0.000000 0.000000 0.000000 0.000000 -0.156854 0.000000
# 6 0.000000 0.000000 0.000000 0.000000 0.000000 0.017219
#
#
# Mechanical properties :
#
#
# Convention : Reuss Voigt Hill
#
# Bulk Modulus (GPa) = 48.73366 68.38429 58.55898
# Shear Modulus (GPa) = -6.37870 40.40771 17.01451
#
# Velocity S-wave (km/s) = -1.58921 3.99988 2.59552
# Velocity P-wave (km/s) = 3.99101 6.95759 5.67169
#
# Compressibility (1/GPa) = 0.02051970
#
# Stress axis : x y z
#
# Youngs Moduli (GPa) = 306.68973 123.70266 63.39643
#
# Poissons Ratio (x) = 0.04746 0.03757
# Poissons Ratio (y) = 0.11768 0.14727
# Poissons Ratio (z) = 0.18176 0.28735
#
# Static dielectric constant tensor:
#      x y z
#    x 2.079880 0.000000 0.000000 
#    y 0.000000 1.918220 0.000000 
#    z 0.000000 0.000000 2.023080 
# 
# From -- ./inp_files/45928.got.cif
#   From: 2010.05.17/outbox.cif.g08.bks.cpg/sg74_23_cif.got.tgz:45928.got - 2010.06.03 17:57:02.
