data_PCOD9533829
_publ_section_title
;
Structure prediction by ZEFSAII (Michael W. Deem and Ramdas Pophale) SiO2 
 PCOD9533829
Probable space group: I M M A
;
_chemical_formula_sum "Si O2"
_cell_formula_units_Z 64
_cell_length_a 11.098970
_cell_length_b 31.178416
_cell_length_c 7.087830
_cell_angle_alpha 90.000000
_cell_angle_beta 90.000000
_cell_angle_gamma 90.000000
_cell_volume 2452.731549
_symmetry_space_group_name_H-M "I M M A"
_symmetry_group_IT_number 74
_symmetry_cell_setting 'orthorhombic'
loop_
_space_group_symop_operation_xyz
x,y,z
-x,1/2-y,z
x,-y,-z
-x,1/2+y,-z
-x,-y,-z
x,1/2+y,-z
-x,y,z
x,1/2-y,z
1/2+x,1/2+y,1/2+z
1/2-x,-y,1/2+z
1/2+x,1/2-y,1/2-z
1/2-x,y,1/2-z
1/2-x,1/2-y,1/2-z
1/2+x,y,1/2-z
1/2-x,1/2+y,1/2+z
1/2+x,-y,1/2+z
loop_
_atom_site_type_symbol
_atom_site_label
_atom_site_fract_x
_atom_site_fract_y
_atom_site_fract_z
Si Si1 0.239222 0.551585 0.026902
Si Si2 0.237553 0.699738 0.477653
Si Si3 0.000000 0.167267 0.627473
Si Si4 0.500000 0.950162 0.030075
Si Si5 0.500000 0.701915 0.518544
Si Si6 0.500000 0.087014 0.580709
O O1 0.250000 0.559901 0.250000
O O2 0.371201 0.565646 0.954814
O O3 0.122541 0.578662 0.968658
O O4 0.223572 0.500000 0.000000
O O5 0.220452 0.750000 0.528525
O O6 0.250000 0.697858 0.250000
O O7 0.366006 0.684278 0.560816
O O8 0.117388 0.672161 0.501114
O O9 0.000000 0.204345 0.787927
O O10 0.000000 0.250000 0.096254
O O11 0.500000 0.949146 0.257930
O O12 0.500000 0.000000 0.000000
O O13 0.500000 0.627506 0.275003
#
# Coordination Sequence:
#
# PCOD9533829 Si02
#       6
#    16  16   8   8   8   8
#     4   9  17  30  45  60  78 101 130 165 203 245
#     4   8  13  21  31  42  61  92 127 157 183 218
#     4  10  16  21  30  48  70  91 120 157 196 228
#     4   8  16  29  41  52  70  97 128 159 194 238
#     4   8  14  22  31  43  62  93 130 161 184 215
#     4  10  19  26  38  59  79  99 126 165 211 243
#
# _framework density 26.093357999999998
#
# number of rings (size 3 to 8) (size 9 to 14) (size 15 to 20)
#    0.000    3.250    0.000    3.000    0.000    9.000 
#    0.000    0.000    0.000    0.000    0.000    0.000 
#    0.000    0.000    0.000    0.000    0.000   11.250 
#
# Total GULP energy -178245.654854 kJ/mol
# GULP energy per Si atom -5570.176714 kJ/mol
# Density = 2.603397 g / cm^3
# Si number density = 26.093358 Si / 1000 Ang^3
#
#
#
# Elastic Constant Matrix: (Units=GPa)
#
#
# Indices 1 2 3 4 5 6 
#
# 1 393.2963 70.1952 9.4830 0.0000 -0.0005 0.0012
# 2 70.1952 83.3685 8.9362 0.0009 0.0004 0.0000
# 3 9.4830 8.9362 99.5545 0.0011 0.0011 0.0047
# 4 0.0000 0.0009 0.0011 -11.7552 0.0009 -0.0007
# 5 -0.0005 0.0004 0.0011 0.0009 -14.1050 -0.0018
# 6 0.0012 0.0000 0.0047 -0.0007 -0.0018 -18.8640
#
#
#
# Elastic Compliance Matrix: (Units=1/GPa)
#
#
# Indices 1 2 3 4 5 6 
#
# 1 0.002993 -0.002513 -0.000059 0.000000 0.000000 0.000000
# 2 -0.002513 0.014222 -0.001037 0.000001 0.000000 0.000000
# 3 -0.000059 -0.001037 0.010144 0.000001 0.000001 0.000003
# 4 0.000000 0.000001 0.000001 -0.085069 -0.000006 0.000003
# 5 0.000000 0.000000 0.000001 -0.000006 -0.070897 0.000007
# 6 0.000000 0.000000 0.000003 0.000003 0.000007 -0.053011
#
#
# Mechanical properties :
#
#
# Convention : Reuss Voigt Hill
#
# Bulk Modulus (GPa) = 49.65641 83.71647 66.68644
# Shear Modulus (GPa) = -29.81779 23.56215 -3.12782
#
# Velocity S-wave (km/s) = -3.38410 3.00825 -1.09604
# Velocity P-wave (km/s) = 1.94989 6.64975 4.90006
#
# Compressibility (1/GPa) = 0.02013839
#
# Stress axis : x y z
#
# Youngs Moduli (GPa) = 334.15389 70.31179 98.58516
#
# Poissons Ratio (x) = 0.17672 0.00586
# Poissons Ratio (y) = 0.83986 0.10225
# Poissons Ratio (z) = 0.01987 0.07293
#
# Static dielectric constant tensor:
#      x y z
#    x 2.356310 0.000010 0.000010 
#    y 0.000010 2.154920 -0.000010 
#    z 0.000010 -0.000010 2.020910 
# 
# From -- ./inp_files/7380.got.cif
#   From: 2010.05.17/outbox.cif.g08.bks.cpg/sg74_4_cif.got.tgz:7380.got - 2010.06.03 17:57:02.
