data_PCOD9533165
_publ_section_title
;
Structure prediction by ZEFSAII (Michael W. Deem and Ramdas Pophale) SiO2 
 PCOD9533165
Probable space group: I B C A 
;
_chemical_formula_sum "Si O2"
_cell_formula_units_Z 72
_cell_length_a 22.599000
_cell_length_b 27.631514
_cell_length_c 4.961604
_cell_angle_alpha 90.000000
_cell_angle_beta 90.000000
_cell_angle_gamma 90.000000
_cell_volume 3098.246750
_symmetry_space_group_name_H-M "I B C A "
_symmetry_group_IT_number 73
_symmetry_cell_setting 'orthorhombic'
loop_
_space_group_symop_operation_xyz
x,y,z
-x,1/2-y,z
x,-y,1/2-z
1/2-x,y,-z
-x,-y,-z
x,1/2+y,-z
-x,y,1/2+z
1/2+x,-y,z
1/2+x,1/2+y,1/2+z
1/2-x,-y,1/2+z
1/2+x,1/2-y,-z
-x,1/2+y,1/2-z
1/2-x,1/2-y,1/2-z
1/2+x,y,1/2-z
1/2-x,1/2+y,z
x,1/2-y,1/2+z
loop_
_atom_site_type_symbol
_atom_site_label
_atom_site_fract_x
_atom_site_fract_y
_atom_site_fract_z
Si Si1 0.172490 0.221253 0.123974
Si Si2 0.687330 0.381797 0.613128
Si Si3 0.541332 0.184593 0.389251
Si Si4 0.386767 0.095109 0.097612
Si Si5 0.956138 0.000000 0.250000
O O1 0.189954 0.264350 0.324464
O O2 0.193889 0.170637 0.245847
O O3 0.101160 0.215535 0.108849
O O4 0.750000 0.398826 0.500000
O O5 0.643957 0.378845 0.354179
O O6 0.659581 0.413700 0.854357
O O7 0.490919 0.192613 0.608728
O O8 0.565228 0.130514 0.458465
O O9 0.415822 0.047165 0.215043
O O10 0.000000 0.000000 0.500000
#
# Coordination Sequence:
#
# PCOD9533165 Si02
#       5
#    16  16  16  16   8
#     4  11  23  38  58  90 124 161 219 272 310 375
#     4  11  24  44  67  90 128 176 217 272 336 381
#     4  11  21  36  58  84 124 169 203 251 323 389
#     4  11  23  42  65  98 130 163 218 267 319 398
#     4  12  24  42  72 104 136 168 206 262 326 394
#
# _framework density 23.238949000000002
#
# number of rings (size 3 to 8) (size 9 to 14) (size 15 to 20)
#    0.000    0.889    0.000   10.000    0.000    3.556 
#    0.000    2.222    0.000    0.000    0.000    0.000 
#    0.000    0.000    0.000    0.000    0.000    0.000 
#
# Total GULP energy -201653.812879 kJ/mol
# GULP energy per Si atom -5601.494802 kJ/mol
# Density = 2.318606 g / cm^3
# Si number density = 23.238949 Si / 1000 Ang^3
#
#
#
# Elastic Constant Matrix: (Units=GPa)
#
#
# Indices 1 2 3 4 5 6 
#
# 1 114.1230 37.9160 34.4484 0.0000 0.0000 0.0000
# 2 37.9160 97.9590 32.7427 0.0000 0.0000 0.0000
# 3 34.4484 32.7427 77.0262 0.0000 0.0000 0.0000
# 4 0.0000 0.0000 0.0000 34.2426 0.0000 0.0000
# 5 0.0000 0.0000 0.0000 0.0000 50.0355 0.0000
# 6 0.0000 0.0000 0.0000 0.0000 0.0000 25.6831
#
#
#
# Elastic Compliance Matrix: (Units=1/GPa)
#
#
# Indices 1 2 3 4 5 6 
#
# 1 0.010838 -0.003001 -0.003571 0.000000 0.000000 0.000000
# 2 -0.003001 0.012730 -0.004069 0.000000 0.000000 0.000000
# 3 -0.003571 -0.004069 0.016309 0.000000 0.000000 0.000000
# 4 0.000000 0.000000 0.000000 0.029203 0.000000 0.000000
# 5 0.000000 0.000000 0.000000 0.000000 0.019986 0.000000
# 6 0.000000 0.000000 0.000000 0.000000 0.000000 0.038936
#
#
# Mechanical properties :
#
#
# Convention : Reuss Voigt Hill
#
# Bulk Modulus (GPa) = 53.78019 55.48025 54.63022
# Shear Modulus (GPa) = 32.15780 34.25899 33.20839
#
# Velocity S-wave (km/s) = 3.72397 3.84370 3.78431
# Velocity P-wave (km/s) = 6.45624 6.60488 6.53098
#
# Compressibility (1/GPa) = 0.01859421
#
# Stress axis : x y z
#
# Youngs Moduli (GPa) = 92.27201 78.55407 61.31408
#
# Poissons Ratio (x) = 0.23575 0.21896
# Poissons Ratio (y) = 0.27692 0.24950
# Poissons Ratio (z) = 0.32952 0.31965
#
# Static dielectric constant tensor:
#      x y z
#    x 1.883520 0.000000 0.000000 
#    y 0.000000 1.953000 0.000000 
#    z 0.000000 0.000000 1.825510 
# 
# From -- ./inp_files/1708.got.cif
#   From: 2010.05.17/outbox.cif.g08.bks.cpg/sg73_1_cif.got.tgz:1708.got - 2010.06.03 17:35:07.
