data_PCOD9533707
_publ_section_title
;
Structure prediction by ZEFSAII (Michael W. Deem and Ramdas Pophale) SiO2 
 PCOD9533707
Probable space group: I B C A 
;
_chemical_formula_sum "Si O2"
_cell_formula_units_Z 56
_cell_length_a 9.757757
_cell_length_b 10.840378
_cell_length_c 24.073206
_cell_angle_alpha 90.000000
_cell_angle_beta 90.000000
_cell_angle_gamma 90.000000
_cell_volume 2546.410151
_symmetry_space_group_name_H-M "I B C A "
_symmetry_group_IT_number 73
_symmetry_cell_setting 'orthorhombic'
loop_
_space_group_symop_operation_xyz
x,y,z
-x,1/2-y,z
x,-y,1/2-z
1/2-x,y,-z
-x,-y,-z
x,1/2+y,-z
-x,y,1/2+z
1/2+x,-y,z
1/2+x,1/2+y,1/2+z
1/2-x,-y,1/2+z
1/2+x,1/2-y,-z
-x,1/2+y,1/2-z
1/2-x,1/2-y,1/2-z
1/2+x,y,1/2-z
1/2-x,1/2+y,z
x,1/2-y,1/2+z
loop_
_atom_site_type_symbol
_atom_site_label
_atom_site_fract_x
_atom_site_fract_y
_atom_site_fract_z
Si Si1 0.734844 0.113024 0.648137
Si Si2 0.875245 0.029934 0.040969
Si Si3 0.000000 0.250000 0.787855
Si Si4 0.000000 0.250000 0.606511
Si Si5 0.637505 0.500000 0.750000
O O1 0.628785 0.208304 0.675060
O O2 0.883362 0.172652 0.637560
O O3 0.667606 0.061230 0.591464
O O4 0.767480 0.010681 0.695187
O O5 0.913560 0.156666 0.069752
O O6 0.750000 0.041738 0.000000
O O7 0.000000 0.000000 0.000000
O O8 0.048345 0.374304 0.755851
#
# Coordination Sequence:
#
# PCOD9533707 Si02
#       5
#    16  16   8   8   8
#     4  12  27  50  76 117 153 209 261 328 393 477
#     4  12  28  50  74 111 152 204 265 323 391 465
#     4  12  27  47  86 110 166 204 268 324 402 470
#     4  12  27  47  78 104 158 200 260 324 400 462
#     4  12  26  52  78 122 160 210 264 330 402 478
#
# _framework density 21.991743
#
# number of rings (size 3 to 8) (size 9 to 14) (size 15 to 20)
#    0.000    0.000    2.857    6.000    8.000    0.000 
#    0.000    0.000    0.000    0.000    0.000    0.000 
#    0.000    0.000    0.000    0.000    0.000    0.000 
#
# Total GULP energy -156587.948618 kJ/mol
# GULP energy per Si atom -5592.426736 kJ/mol
# Density = 2.194169 g / cm^3
# Si number density = 21.991743 Si / 1000 Ang^3
#
#
#
# Elastic Constant Matrix: (Units=GPa)
#
#
# Indices 1 2 3 4 5 6 
#
# 1 152.4442 49.9723 86.0026 0.0000 0.0000 0.0000
# 2 49.9723 125.0174 72.2944 0.0000 0.0000 0.0000
# 3 86.0026 72.2944 169.8411 0.0000 0.0000 0.0000
# 4 0.0000 0.0000 0.0000 1072.9422 0.0000 0.0000
# 5 0.0000 0.0000 0.0000 0.0000 70.6618 0.0000
# 6 0.0000 0.0000 0.0000 0.0000 0.0000 52.4064
#
#
#
# Elastic Compliance Matrix: (Units=1/GPa)
#
#
# Indices 1 2 3 4 5 6 
#
# 1 0.009346 -0.001325 -0.004168 0.000000 0.000000 0.000000
# 2 -0.001325 0.010799 -0.003925 0.000000 0.000000 0.000000
# 3 -0.004168 -0.003925 0.009669 0.000000 0.000000 0.000000
# 4 0.000000 0.000000 0.000000 0.000932 0.000000 0.000000
# 5 0.000000 0.000000 0.000000 0.000000 0.014152 0.000000
# 6 0.000000 0.000000 0.000000 0.000000 0.000000 0.019082
#
#
# Mechanical properties :
#
#
# Convention : Reuss Voigt Hill
#
# Bulk Modulus (GPa) = 91.10964 95.98237 93.54601
# Shear Modulus (GPa) = 57.81937 255.13764 156.47851
#
# Velocity S-wave (km/s) = 5.13308 10.78272 8.44439
# Velocity P-wave (km/s) = 8.75501 14.09831 11.73483
#
# Compressibility (1/GPa) = 0.01097579
#
# Stress axis : x y z
#
# Youngs Moduli (GPa) = 106.99973 92.60444 103.41821
#
# Poissons Ratio (x) = 0.12273 0.43108
# Poissons Ratio (y) = 0.14181 0.40596
# Poissons Ratio (z) = 0.44601 0.36351
#
# Static dielectric constant tensor:
#      x y z
#    x 1.848150 0.000000 0.000000 
#    y 0.000000 1.793030 0.000000 
#    z 0.000000 0.000000 1.831740 
# 
# From -- ./inp_files/3882.got.cif
#   From: 2010.05.17/outbox.cif.g08.bks.cpg/sg73_2_cif.got.tgz:3882.got - 2010.06.03 17:35:07.
