data_PCOD9533481
_publ_section_title
;
Structure prediction by ZEFSAII (Michael W. Deem and Ramdas Pophale) SiO2 
 PCOD9533481
Probable space group: I B C A 
;
_chemical_formula_sum "Si O2"
_cell_formula_units_Z 64
_cell_length_a 28.798656
_cell_length_b 9.268206
_cell_length_c 10.633591
_cell_angle_alpha 90.000000
_cell_angle_beta 90.000000
_cell_angle_gamma 90.000000
_cell_volume 2838.231726
_symmetry_space_group_name_H-M "I B C A "
_symmetry_group_IT_number 73
_symmetry_cell_setting 'orthorhombic'
loop_
_space_group_symop_operation_xyz
x,y,z
-x,1/2-y,z
x,-y,1/2-z
1/2-x,y,-z
-x,-y,-z
x,1/2+y,-z
-x,y,1/2+z
1/2+x,-y,z
1/2+x,1/2+y,1/2+z
1/2-x,-y,1/2+z
1/2+x,1/2-y,-z
-x,1/2+y,1/2-z
1/2-x,1/2-y,1/2-z
1/2+x,y,1/2-z
1/2-x,1/2+y,z
x,1/2-y,1/2+z
loop_
_atom_site_type_symbol
_atom_site_label
_atom_site_fract_x
_atom_site_fract_y
_atom_site_fract_z
Si Si1 0.515707 0.916441 0.374894
Si Si2 0.121117 0.491340 0.614249
Si Si3 0.792456 0.000000 0.250000
Si Si4 0.750000 0.885316 0.000000
Si Si5 0.161080 0.795634 0.915600
O O1 0.500000 0.750000 0.374976
O O2 0.498009 0.000000 0.250000
O O3 0.500000 0.000000 0.500000
O O4 0.571458 0.933075 0.373062
O O5 0.145531 0.500000 0.750000
O O6 0.119793 0.320862 0.587006
O O7 0.148310 0.573275 0.506060
O O8 0.762215 0.025947 0.374348
O O9 0.824945 0.136899 0.218504
O O10 0.705671 0.788047 0.032379
#
# Coordination Sequence:
#
# PCOD9533481 Si02
#       5
#    16  16   8   8  16
#     4  11  24  47  76 109 148 188 237 295 366 440
#     4  11  26  45  71 104 144 184 236 298 355 426
#     4  12  26  46  72 104 138 202 240 304 356 422
#     4  12  26  46  72 100 146 194 244 298 358 424
#     4  12  25  46  70 104 144 187 248 292 362 418
#
# _framework density 22.549251999999999
#
# number of rings (size 3 to 8) (size 9 to 14) (size 15 to 20)
#    0.000    0.500    2.500    5.250    1.750    2.000 
#    2.250    0.000    0.000    0.000    0.000    0.000 
#    0.000    0.000    0.000    0.000    0.000    0.000 
#
# Total GULP energy -179089.090844 kJ/mol
# GULP energy per Si atom -5596.534089 kJ/mol
# Density = 2.249793 g / cm^3
# Si number density = 22.549252 Si / 1000 Ang^3
#
#
#
# Elastic Constant Matrix: (Units=GPa)
#
#
# Indices 1 2 3 4 5 6 
#
# 1 74.3270 41.7746 22.0787 0.0000 0.0000 0.0000
# 2 41.7746 183.7282 76.5113 0.0000 0.0000 0.0000
# 3 22.0787 76.5113 163.9936 0.0000 0.0000 0.0000
# 4 0.0000 0.0000 0.0000 51.1019 0.0000 0.0000
# 5 0.0000 0.0000 0.0000 0.0000 30.3493 0.0000
# 6 0.0000 0.0000 0.0000 0.0000 0.0000 16.9110
#
#
#
# Elastic Compliance Matrix: (Units=1/GPa)
#
#
# Indices 1 2 3 4 5 6 
#
# 1 0.015465 -0.003288 -0.000548 0.000000 0.000000 0.000000
# 2 -0.003288 0.007454 -0.003035 0.000000 0.000000 0.000000
# 3 -0.000548 -0.003035 0.007588 0.000000 0.000000 0.000000
# 4 0.000000 0.000000 0.000000 0.019569 0.000000 0.000000
# 5 0.000000 0.000000 0.000000 0.000000 0.032950 0.000000
# 6 0.000000 0.000000 0.000000 0.000000 0.000000 0.059133
#
#
# Mechanical properties :
#
#
# Convention : Reuss Voigt Hill
#
# Bulk Modulus (GPa) = 59.65018 78.08645 68.86832
# Shear Modulus (GPa) = 30.96184 38.45139 34.70662
#
# Velocity S-wave (km/s) = 3.70952 4.13391 3.92745
# Velocity P-wave (km/s) = 6.69762 7.58222 7.15361
#
# Compressibility (1/GPa) = 0.01676441
#
# Stress axis : x y z
#
# Youngs Moduli (GPa) = 64.66270 134.14891 131.79323
#
# Poissons Ratio (x) = 0.44109 0.07222
# Poissons Ratio (y) = 0.21262 0.40002
# Poissons Ratio (z) = 0.03544 0.40717
#
# Static dielectric constant tensor:
#      x y z
#    x 1.864360 0.000000 0.000000 
#    y 0.000000 1.869560 0.000000 
#    z 0.000000 0.000000 1.886220 
# 
# From -- ./inp_files/9060.got.cif
#   From: 2010.05.17/outbox.cif.g08.bks.cpg/sg73_5_cif.got.tgz:9060.got - 2010.06.03 17:35:07.
