data_PCOD9533570
_publ_section_title
;
Structure prediction by ZEFSAII (Michael W. Deem and Ramdas Pophale) SiO2 
 PCOD9533570
Probable space group: I B C A 
;
_chemical_formula_sum "Si O2"
_cell_formula_units_Z 112
_cell_length_a 29.262590
_cell_length_b 14.004665
_cell_length_c 11.038506
_cell_angle_alpha 90.000000
_cell_angle_beta 90.000000
_cell_angle_gamma 90.000000
_cell_volume 4523.720720
_symmetry_space_group_name_H-M "I B C A "
_symmetry_group_IT_number 73
_symmetry_cell_setting 'orthorhombic'
loop_
_space_group_symop_operation_xyz
x,y,z
-x,1/2-y,z
x,-y,1/2-z
1/2-x,y,-z
-x,-y,-z
x,1/2+y,-z
-x,y,1/2+z
1/2+x,-y,z
1/2+x,1/2+y,1/2+z
1/2-x,-y,1/2+z
1/2+x,1/2-y,-z
-x,1/2+y,1/2-z
1/2-x,1/2-y,1/2-z
1/2+x,y,1/2-z
1/2-x,1/2+y,z
x,1/2-y,1/2+z
loop_
_atom_site_type_symbol
_atom_site_label
_atom_site_fract_x
_atom_site_fract_y
_atom_site_fract_z
Si Si1 0.736306 0.151197 0.628756
Si Si2 0.609460 0.188845 0.360853
Si Si3 0.857072 0.502153 0.024012
Si Si4 0.500000 0.750000 0.350364
Si Si5 0.185258 0.334454 0.825768
Si Si6 0.172103 0.500000 0.250000
Si Si7 0.989164 0.905898 0.822669
Si Si8 0.431634 0.361784 0.991895
O O1 0.750000 0.105643 0.500000
O O2 0.781173 0.161841 0.710113
O O3 0.708914 0.249096 0.599155
O O4 0.703751 0.089206 0.714690
O O5 0.636485 0.193388 0.233437
O O6 0.557812 0.148044 0.352433
O O7 0.603373 0.294236 0.416921
O O8 0.636894 0.107934 0.438042
O O9 0.820376 0.566701 0.099044
O O10 0.853382 0.513094 0.878380
O O11 0.903686 0.556380 0.057736
O O12 0.483883 0.835891 0.267764
O O13 0.457987 0.713243 0.426149
O O14 0.026093 0.915207 0.927437
O O15 0.979212 0.000000 0.750000
#
# Coordination Sequence:
#
# PCOD9533570 Si02
#       8
#    16  16  16   8  16   8  16  16
#     4  11  28  50  82 115 155 203 251 321 401 475
#     4  12  24  51  75 112 155 207 263 320 401 475
#     4  12  30  46  79 114 154 209 259 324 396 468
#     4  12  22  46  70 106 144 208 250 314 392 454
#     4  11  27  50  79 111 154 202 255 320 392 474
#     4  12  30  50  76 122 150 200 258 322 390 482
#     4  12  26  46  74 107 151 201 261 323 396 462
#     4  12  27  45  71 110 151 202 260 325 383 470
#
# _framework density 24.758381
#
# number of rings (size 3 to 8) (size 9 to 14) (size 15 to 20)
#    0.000    0.286    2.857    4.714   15.000    1.143 
#    0.000    0.000    0.000    0.000    0.000    0.000 
#    0.000    0.000    0.000    0.000    0.000    0.000 
#
# Total GULP energy -313269.483041 kJ/mol
# GULP energy per Si atom -5594.097911 kJ/mol
# Density = 2.470203 g / cm^3
# Si number density = 24.758381 Si / 1000 Ang^3
#
#
#
# Elastic Constant Matrix: (Units=GPa)
#
#
# Indices 1 2 3 4 5 6 
#
# 1 100.1568 32.3718 24.7287 0.0000 0.0000 0.0000
# 2 32.3718 105.8616 18.1836 0.0000 0.0000 0.0000
# 3 24.7287 18.1836 88.6539 0.0000 0.0000 0.0000
# 4 0.0000 0.0000 0.0000 30.8177 0.0000 0.0000
# 5 0.0000 0.0000 0.0000 0.0000 32.4222 0.0000
# 6 0.0000 0.0000 0.0000 0.0000 0.0000 -32.5938
#
#
#
# Elastic Compliance Matrix: (Units=1/GPa)
#
#
# Indices 1 2 3 4 5 6 
#
# 1 0.011633 -0.003110 -0.002607 0.000000 0.000000 0.000000
# 2 -0.003110 0.010622 -0.001311 0.000000 0.000000 0.000000
# 3 -0.002607 -0.001311 0.012276 0.000000 0.000000 0.000000
# 4 0.000000 0.000000 0.000000 0.032449 0.000000 0.000000
# 5 0.000000 0.000000 0.000000 0.000000 0.030843 0.000000
# 6 0.000000 0.000000 0.000000 0.000000 0.000000 -0.030681
#
#
# Mechanical properties :
#
#
# Convention : Reuss Voigt Hill
#
# Bulk Modulus (GPa) = 48.83879 49.47115 49.15497
# Shear Modulus (GPa) = 56.80276 20.75510 38.77893
#
# Velocity S-wave (km/s) = 4.79506 2.89849 3.96194
# Velocity P-wave (km/s) = 7.10112 5.58808 6.38954
#
# Compressibility (1/GPa) = 0.02047553
#
# Stress axis : x y z
#
# Youngs Moduli (GPa) = 85.96192 94.14051 81.45974
#
# Poissons Ratio (x) = 0.29273 0.21237
# Poissons Ratio (y) = 0.26730 0.10683
# Poissons Ratio (z) = 0.22411 0.12345
#
# Static dielectric constant tensor:
#      x y z
#    x 2.045300 0.000000 0.000000 
#    y 0.000000 1.921370 0.000000 
#    z 0.000000 0.000000 2.070720 
# 
# From -- ./inp_files/14845.got.cif
#   From: 2010.05.17/outbox.cif.g08.bks.cpg/sg73_8_cif.got.tgz:14845.got - 2010.06.03 17:35:07.
