data_PCOD9533660
_publ_section_title
;
Structure prediction by ZEFSAII (Michael W. Deem and Ramdas Pophale) SiO2 
 PCOD9533660
Probable space group: I B C A 
;
_chemical_formula_sum "Si O2"
_cell_formula_units_Z 88
_cell_length_a 28.639145
_cell_length_b 13.339533
_cell_length_c 12.062331
_cell_angle_alpha 90.000000
_cell_angle_beta 90.000000
_cell_angle_gamma 90.000000
_cell_volume 4608.206326
_symmetry_space_group_name_H-M "I B C A "
_symmetry_group_IT_number 73
_symmetry_cell_setting 'orthorhombic'
loop_
_space_group_symop_operation_xyz
x,y,z
-x,1/2-y,z
x,-y,1/2-z
1/2-x,y,-z
-x,-y,-z
x,1/2+y,-z
-x,y,1/2+z
1/2+x,-y,z
1/2+x,1/2+y,1/2+z
1/2-x,-y,1/2+z
1/2+x,1/2-y,-z
-x,1/2+y,1/2-z
1/2-x,1/2-y,1/2-z
1/2+x,y,1/2-z
1/2-x,1/2+y,z
x,1/2-y,1/2+z
loop_
_atom_site_type_symbol
_atom_site_label
_atom_site_fract_x
_atom_site_fract_y
_atom_site_fract_z
Si Si1 0.837342 0.104842 0.768592
Si Si2 0.299266 0.031910 0.942416
Si Si3 0.533583 0.090648 0.964840
Si Si4 0.083317 0.256701 0.860917
Si Si5 0.000000 0.250000 0.691582
Si Si6 0.880127 0.031892 0.375130
O O1 0.813060 0.117270 0.648976
O O2 0.870869 0.188499 0.813629
O O3 0.866278 0.000000 0.750000
O O4 0.801287 0.067187 0.863153
O O5 0.250000 0.047703 0.000000
O O6 0.338445 0.021369 0.036485
O O7 0.556780 0.170340 0.051305
O O8 0.500684 0.153795 0.884833
O O9 0.500000 0.000000 0.000000
O O10 0.577762 0.042345 0.904324
O O11 0.099680 0.144685 0.891452
O O12 0.045724 0.245030 0.764785
O O13 0.865394 0.000000 0.250000
#
# Coordination Sequence:
#
# PCOD9533660 Si02
#       6
#    16  16  16  16   8  16
#     4   8  21  41  69  93 128 178 212 276 337 395
#     4   9  21  43  71  97 127 174 220 280 345 397
#     4  12  26  42  65  97 132 182 224 279 328 398
#     4  12  25  44  62  99 133 179 226 271 341 397
#     4  12  26  40  66  94 138 178 230 268 324 410
#     4  12  25  43  65  99 135 173 221 282 338 394
#
# _framework density 19.096367999999998
#
# number of rings (size 3 to 8) (size 9 to 14) (size 15 to 20)
#    1.091    0.000    3.636    2.727   10.182    0.000 
#    0.000    1.818    0.000    0.000    0.000    0.000 
#    0.000    0.000    0.000    0.000    0.000    0.000 
#
# Total GULP energy -245014.433723 kJ/mol
# GULP energy per Si atom -5568.509857 kJ/mol
# Density = 1.905290 g / cm^3
# Si number density = 19.096368 Si / 1000 Ang^3
#
#
#
# Elastic Constant Matrix: (Units=GPa)
#
#
# Indices 1 2 3 4 5 6 
#
# 1 71.2603 0.4070 36.5576 0.0000 0.0000 0.0000
# 2 0.4070 76.4672 19.3663 0.0000 0.0000 0.0000
# 3 36.5576 19.3663 115.4653 0.0000 0.0000 0.0000
# 4 0.0000 0.0000 0.0000 24.8757 0.0000 0.0000
# 5 0.0000 0.0000 0.0000 0.0000 -75.9290 0.0000
# 6 0.0000 0.0000 0.0000 0.0000 0.0000 19.4916
#
#
#
# Elastic Compliance Matrix: (Units=1/GPa)
#
#
# Indices 1 2 3 4 5 6 
#
# 1 0.016881 0.001320 -0.005566 0.000000 0.000000 0.000000
# 2 0.001320 0.013761 -0.002726 0.000000 0.000000 0.000000
# 3 -0.005566 -0.002726 0.010880 0.000000 0.000000 0.000000
# 4 0.000000 0.000000 0.000000 0.040200 0.000000 0.000000
# 5 0.000000 0.000000 0.000000 0.000000 -0.013170 0.000000
# 6 0.000000 0.000000 0.000000 0.000000 0.000000 0.051304
#
#
# Mechanical properties :
#
#
# Convention : Reuss Voigt Hill
#
# Bulk Modulus (GPa) = 36.26127 41.76163 39.01145
# Shear Modulus (GPa) = 34.96680 7.47844 21.22262
#
# Velocity S-wave (km/s) = 4.28374 1.98108 3.33730
# Velocity P-wave (km/s) = 6.59523 5.21049 5.94333
#
# Compressibility (1/GPa) = 0.02757763
#
# Stress axis : x y z
#
# Youngs Moduli (GPa) = 59.23815 72.67000 91.91100
#
# Poissons Ratio (x) = -0.09591 0.51158
# Poissons Ratio (y) = -0.07818 0.25054
# Poissons Ratio (z) = 0.32972 0.19809
#
# Static dielectric constant tensor:
#      x y z
#    x 1.607250 0.000000 0.000000 
#    y 0.000000 1.707850 0.000000 
#    z 0.000000 0.000000 1.748310 
# 
# From -- ./inp_files/14662.got.cif
#   From: 2010.05.17/outbox.cif.g08.bks.cpg/sg73_8_cif.got.tgz:14662.got - 2010.06.03 17:35:07.
