data_PCOD9533513
_publ_section_title
;
Structure prediction by ZEFSAII (Michael W. Deem and Ramdas Pophale) SiO2 
 PCOD9533513
Probable space group: I B C A 
;
_chemical_formula_sum "Si O2"
_cell_formula_units_Z 112
_cell_length_a 14.583112
_cell_length_b 12.090231
_cell_length_c 29.219608
_cell_angle_alpha 90.000000
_cell_angle_beta 90.000000
_cell_angle_gamma 90.000000
_cell_volume 5151.802378
_symmetry_space_group_name_H-M "I B C A "
_symmetry_group_IT_number 73
_symmetry_cell_setting 'orthorhombic'
loop_
_space_group_symop_operation_xyz
x,y,z
-x,1/2-y,z
x,-y,1/2-z
1/2-x,y,-z
-x,-y,-z
x,1/2+y,-z
-x,y,1/2+z
1/2+x,-y,z
1/2+x,1/2+y,1/2+z
1/2-x,-y,1/2+z
1/2+x,1/2-y,-z
-x,1/2+y,1/2-z
1/2-x,1/2-y,1/2-z
1/2+x,y,1/2-z
1/2-x,1/2+y,z
x,1/2-y,1/2+z
loop_
_atom_site_type_symbol
_atom_site_label
_atom_site_fract_x
_atom_site_fract_y
_atom_site_fract_z
Si Si1 0.500000 0.750000 0.723219
Si Si2 0.398451 0.292512 0.131235
Si Si3 0.597284 0.963189 0.980513
Si Si4 0.860897 0.577368 0.793047
Si Si5 0.750000 0.217534 0.500000
Si Si6 0.342749 0.383076 0.224264
Si Si7 0.305615 0.095255 0.555497
Si Si8 0.173974 0.444587 0.385895
O O1 0.553783 0.844017 0.696058
O O2 0.582891 0.697658 0.752704
O O3 0.500000 0.250000 0.140084
O O4 0.369119 0.375532 0.171164
O O5 0.390343 0.357070 0.084037
O O6 0.332464 0.184464 0.128000
O O7 0.655882 0.852585 0.993972
O O8 0.597747 0.963998 0.925463
O O9 0.500000 0.000000 0.000000
O O10 0.659936 0.051228 0.007158
O O11 0.887784 0.500000 0.750000
O O12 0.767096 0.637954 0.776536
O O13 0.838007 0.509036 0.838525
O O14 0.754415 0.295397 0.544857
O O15 0.352599 0.500000 0.250000
O O16 0.259071 0.998677 0.585875
#
# Coordination Sequence:
#
# PCOD9533513 Si02
#       8
#     8  16  16  16   8  16  16  16
#     4  12  24  46  72 100 140 184 232 306 366 416
#     4  12  25  44  75 105 139 191 244 291 367 444
#     4  12  25  45  71 108 148 190 247 298 354 439
#     4  11  26  48  70 101 144 183 239 303 359 440
#     4  12  22  46  72 100 154 196 226 306 368 418
#     4  11  25  46  72 104 142 189 239 297 362 437
#     4  12  23  46  72 104 146 191 239 301 367 430
#     4  12  24  47  72 103 144 191 241 299 364 433
#
# _framework density 21.739962999999999
#
# number of rings (size 3 to 8) (size 9 to 14) (size 15 to 20)
#    0.000    0.286    6.429    2.571    2.000    1.143 
#    2.571    0.000    0.000    0.000    0.000    0.000 
#    0.000    0.000    0.000    0.000    0.000    0.000 
#
# Total GULP energy -312087.370049 kJ/mol
# GULP energy per Si atom -5572.988751 kJ/mol
# Density = 2.169048 g / cm^3
# Si number density = 21.739963 Si / 1000 Ang^3
#
#
#
# Elastic Constant Matrix: (Units=GPa)
#
#
# Indices 1 2 3 4 5 6 
#
# 1 119.8531 45.0733 15.5272 0.0000 0.0000 0.0000
# 2 45.0733 79.8802 49.5589 0.0000 0.0000 0.0000
# 3 15.5272 49.5589 115.9313 0.0000 0.0000 0.0000
# 4 0.0000 0.0000 0.0000 38.1108 0.0000 0.0000
# 5 0.0000 0.0000 0.0000 0.0000 33.0097 0.0000
# 6 0.0000 0.0000 0.0000 0.0000 0.0000 25.4546
#
#
#
# Elastic Compliance Matrix: (Units=1/GPa)
#
#
# Indices 1 2 3 4 5 6 
#
# 1 0.010799 -0.007071 0.001577 0.000000 0.000000 0.000000
# 2 -0.007071 0.021668 -0.008316 0.000000 0.000000 0.000000
# 3 0.001577 -0.008316 0.011969 0.000000 0.000000 0.000000
# 4 0.000000 0.000000 0.000000 0.026239 0.000000 0.000000
# 5 0.000000 0.000000 0.000000 0.000000 0.030294 0.000000
# 6 0.000000 0.000000 0.000000 0.000000 0.000000 0.039286
#
#
# Mechanical properties :
#
#
# Convention : Reuss Voigt Hill
#
# Bulk Modulus (GPa) = 59.46991 59.55370 59.51181
# Shear Modulus (GPa) = 28.82155 33.01536 30.91845
#
# Velocity S-wave (km/s) = 3.64502 3.90121 3.77529
# Velocity P-wave (km/s) = 6.71784 6.90983 6.81451
#
# Compressibility (1/GPa) = 0.01681523
#
# Stress axis : x y z
#
# Youngs Moduli (GPa) = 92.60406 46.15085 83.54596
#
# Poissons Ratio (x) = 0.32635 -0.13172
# Poissons Ratio (y) = 0.65484 0.69474
# Poissons Ratio (z) = -0.14600 0.38378
#
# Static dielectric constant tensor:
#      x y z
#    x 1.860930 0.000000 0.000000 
#    y 0.000000 1.868290 0.000000 
#    z 0.000000 0.000000 1.861800 
# 
# From -- ./inp_files/34336.got.cif
#   From: 2010.05.17/outbox.cif.g08.bks.cpg/sg73_18_cif.got.tgz:34336.got - 2010.06.03 17:35:07.
