data_PCOD9533188
_publ_section_title
;
Structure prediction by ZEFSAII (Michael W. Deem and Ramdas Pophale) SiO2 
 PCOD9533188
Probable space group: I B C A 
;
_chemical_formula_sum "Si O2"
_cell_formula_units_Z 120
_cell_length_a 29.402941
_cell_length_b 24.080830
_cell_length_c 8.466081
_cell_angle_alpha 90.000000
_cell_angle_beta 90.000000
_cell_angle_gamma 90.000000
_cell_volume 5994.385148
_symmetry_space_group_name_H-M "I B C A "
_symmetry_group_IT_number 73
_symmetry_cell_setting 'orthorhombic'
loop_
_space_group_symop_operation_xyz
x,y,z
-x,1/2-y,z
x,-y,1/2-z
1/2-x,y,-z
-x,-y,-z
x,1/2+y,-z
-x,y,1/2+z
1/2+x,-y,z
1/2+x,1/2+y,1/2+z
1/2-x,-y,1/2+z
1/2+x,1/2-y,-z
-x,1/2+y,1/2-z
1/2-x,1/2-y,1/2-z
1/2+x,y,1/2-z
1/2-x,1/2+y,z
x,1/2-y,1/2+z
loop_
_atom_site_type_symbol
_atom_site_label
_atom_site_fract_x
_atom_site_fract_y
_atom_site_fract_z
Si Si1 0.054745 0.161840 0.233913
Si Si2 0.152337 0.122135 0.207376
Si Si3 0.717627 0.287567 0.641276
Si Si4 0.362665 0.799025 0.432082
Si Si5 0.449448 0.982772 0.064272
Si Si6 0.925176 0.224239 0.159679
Si Si7 0.011942 0.632041 0.479526
Si Si8 0.615969 0.000000 0.250000
O O1 0.104934 0.144699 0.282194
O O2 0.049878 0.226968 0.254726
O O3 0.016636 0.130644 0.333320
O O4 0.040745 0.138328 0.063473
O O5 0.192831 0.158673 0.283357
O O6 0.146722 0.056011 0.230292
O O7 0.150424 0.145401 0.027088
O O8 0.750000 0.306486 0.500000
O O9 0.750000 0.250000 0.750000
O O10 0.679239 0.242958 0.591340
O O11 0.389427 0.807754 0.269476
O O12 0.395993 0.763072 0.543239
O O13 0.456626 0.917345 0.077283
O O14 0.440227 0.000000 0.250000
O O15 0.500000 0.000000 0.000000
O O16 0.414977 0.996089 0.914151
O O17 0.961927 0.186557 0.077920
#
# Coordination Sequence:
#
# PCOD9533188 Si02
#       8
#    16  16  16  16  16  16  16   8
#     4  11  23  38  57  90 131 180 219 286 332 399
#     4  11  24  44  69  98 139 181 227 287 363 418
#     4  12  22  42  75 110 131 169 220 283 360 449
#     4  11  21  40  66  98 135 168 216 280 352 419
#     4  12  25  45  65  95 131 191 263 304 328 394
#     4  11  22  37  58  91 135 173 220 274 345 417
#     4  12  24  38  59  87 130 180 239 275 338 396
#     4  12  26  48  72  98 148 194 242 302 360 408
#
# _framework density 20.018733000000001
#
# number of rings (size 3 to 8) (size 9 to 14) (size 15 to 20)
#    0.000    0.533    7.333    2.000    5.600    1.067 
#    0.000    0.000    2.933    0.000    0.000    0.000 
#    0.000    0.000    0.000    0.000    0.000    0.000 
#
# Total GULP energy -334180.383263 kJ/mol
# GULP energy per Si atom -5569.673054 kJ/mol
# Density = 1.997317 g / cm^3
# Si number density = 20.018733 Si / 1000 Ang^3
#
#
#
# Elastic Constant Matrix: (Units=GPa)
#
#
# Indices 1 2 3 4 5 6 
#
# 1 90.3295 32.4173 32.9843 0.0000 0.0000 0.0000
# 2 32.4173 136.3245 26.3436 0.0000 0.0000 0.0000
# 3 32.9843 26.3436 76.9501 0.0000 0.0000 0.0000
# 4 0.0000 0.0000 0.0000 25.6204 0.0000 0.0000
# 5 0.0000 0.0000 0.0000 0.0000 28.5165 0.0000
# 6 0.0000 0.0000 0.0000 0.0000 0.0000 30.1018
#
#
#
# Elastic Compliance Matrix: (Units=1/GPa)
#
#
# Indices 1 2 3 4 5 6 
#
# 1 0.013758 -0.002283 -0.005116 0.000000 0.000000 0.000000
# 2 -0.002283 0.008234 -0.001840 0.000000 0.000000 0.000000
# 3 -0.005116 -0.001840 0.015818 0.000000 0.000000 0.000000
# 4 0.000000 0.000000 0.000000 0.039031 0.000000 0.000000
# 5 0.000000 0.000000 0.000000 0.000000 0.035067 0.000000
# 6 0.000000 0.000000 0.000000 0.000000 0.000000 0.033221
#
#
# Mechanical properties :
#
#
# Convention : Reuss Voigt Hill
#
# Bulk Modulus (GPa) = 51.72713 54.12160 52.92436
# Shear Modulus (GPa) = 29.40284 30.97165 30.18725
#
# Velocity S-wave (km/s) = 3.83661 3.93763 3.88745
# Velocity P-wave (km/s) = 6.74696 6.91140 6.82967
#
# Compressibility (1/GPa) = 0.01933222
#
# Stress axis : x y z
#
# Youngs Moduli (GPa) = 72.68535 121.44847 63.21808
#
# Poissons Ratio (x) = 0.27727 0.32340
# Poissons Ratio (y) = 0.16594 0.11634
# Poissons Ratio (z) = 0.37184 0.22350
#
# Static dielectric constant tensor:
#      x y z
#    x 1.424290 0.000000 0.000000 
#    y 0.000000 0.744450 0.000000 
#    z 0.000000 0.000000 2.048180 
# 
# From -- ./inp_files/8577.got.cif
#   From: 2010.05.17/outbox.cif.g08.bks.cpg/sg73_5_cif.got.tgz:8577.got - 2010.06.03 17:35:07.
