data_PCOD9533575
_publ_section_title
;
Structure prediction by ZEFSAII (Michael W. Deem and Ramdas Pophale) SiO2 
 PCOD9533575
Probable space group: I B C A 
;
_chemical_formula_sum "Si O2"
_cell_formula_units_Z 56
_cell_length_a 16.781623
_cell_length_b 9.528329
_cell_length_c 13.580536
_cell_angle_alpha 90.000000
_cell_angle_beta 90.000000
_cell_angle_gamma 90.000000
_cell_volume 2171.538912
_symmetry_space_group_name_H-M "I B C A "
_symmetry_group_IT_number 73
_symmetry_cell_setting 'orthorhombic'
loop_
_space_group_symop_operation_xyz
x,y,z
-x,1/2-y,z
x,-y,1/2-z
1/2-x,y,-z
-x,-y,-z
x,1/2+y,-z
-x,y,1/2+z
1/2+x,-y,z
1/2+x,1/2+y,1/2+z
1/2-x,-y,1/2+z
1/2+x,1/2-y,-z
-x,1/2+y,1/2-z
1/2-x,1/2-y,1/2-z
1/2+x,y,1/2-z
1/2-x,1/2+y,z
x,1/2-y,1/2+z
loop_
_atom_site_type_symbol
_atom_site_label
_atom_site_fract_x
_atom_site_fract_y
_atom_site_fract_z
Si Si1 0.414885 0.716097 0.225623
Si Si2 0.301061 0.459079 0.416116
Si Si3 0.051053 0.887550 0.059742
Si Si4 0.678526 0.500000 0.250000
O O1 0.500000 0.750000 0.178279
O O2 0.356771 0.643277 0.147906
O O3 0.436960 0.621589 0.320961
O O4 0.374355 0.860592 0.262929
O O5 0.250000 0.384223 0.500000
O O6 0.357983 0.574884 0.467257
O O7 0.237976 0.523905 0.340757
O O8 0.000000 0.750000 0.040593
O O9 0.000000 0.000000 0.000000
#
# Coordination Sequence:
#
# PCOD9533575 Si02
#       4
#    16  16  16   8
#     4  11  28  54  86 122 180 230 285 361 444 524
#     4  12  29  52  85 129 170 231 294 365 439 514
#     4  11  28  53  85 125 172 229 289 349 435 527
#     4  12  28  54  82 122 184 228 286 368 434 524
#
# _framework density 25.788162
#
# number of rings (size 3 to 8) (size 9 to 14) (size 15 to 20)
#    0.000    0.571    2.857    0.857   16.000    4.571 
#    0.000    1.429    0.000    0.000    0.000    0.000 
#    0.000    0.000    0.000    0.000    0.000    0.000 
#
# Total GULP energy -156690.530971 kJ/mol
# GULP energy per Si atom -5596.090392 kJ/mol
# Density = 2.572947 g / cm^3
# Si number density = 25.788162 Si / 1000 Ang^3
#
#
#
# Elastic Constant Matrix: (Units=GPa)
#
#
# Indices 1 2 3 4 5 6 
#
# 1 206.0276 84.2244 88.5433 0.0000 0.0000 0.0000
# 2 84.2244 165.4074 65.1674 0.0000 0.0000 0.0000
# 3 88.5433 65.1674 166.7507 0.0000 0.0000 0.0000
# 4 0.0000 0.0000 0.0000 22.8638 0.0000 0.0000
# 5 0.0000 0.0000 0.0000 0.0000 48.5679 0.0000
# 6 0.0000 0.0000 0.0000 0.0000 0.0000 46.4208
#
#
#
# Elastic Compliance Matrix: (Units=1/GPa)
#
#
# Indices 1 2 3 4 5 6 
#
# 1 0.007071 -0.002507 -0.002775 0.000000 0.000000 0.000000
# 2 -0.002507 0.008035 -0.001809 0.000000 0.000000 0.000000
# 3 -0.002775 -0.001809 0.008177 0.000000 0.000000 0.000000
# 4 0.000000 0.000000 0.000000 0.043737 0.000000 0.000000
# 5 0.000000 0.000000 0.000000 0.000000 0.020590 0.000000
# 6 0.000000 0.000000 0.000000 0.000000 0.000000 0.021542
#
#
# Mechanical properties :
#
#
# Convention : Reuss Voigt Hill
#
# Bulk Modulus (GPa) = 109.87131 112.67288 111.27210
# Shear Modulus (GPa) = 39.56681 43.58721 41.57701
#
# Velocity S-wave (km/s) = 3.92127 4.11567 4.01964
# Velocity P-wave (km/s) = 7.94982 8.14687 8.04895
#
# Compressibility (1/GPa) = 0.00910156
#
# Stress axis : x y z
#
# Youngs Moduli (GPa) = 141.41675 124.45476 122.28992
#
# Poissons Ratio (x) = 0.31206 0.33934
# Poissons Ratio (y) = 0.35459 0.22119
# Poissons Ratio (z) = 0.39242 0.22511
#
# Static dielectric constant tensor:
#      x y z
#    x 2.010690 0.000000 0.000000 
#    y 0.000000 2.135390 0.000000 
#    z 0.000000 0.000000 2.079980 
# 
# From -- ./inp_files/16536.got.cif
#   From: 2010.05.17/outbox.cif.g08.bks.cpg/sg73_9_cif.got.tgz:16536.got - 2010.06.03 17:35:07.
