data_PCOD9533792
_publ_section_title
;
Structure prediction by ZEFSAII (Michael W. Deem and Ramdas Pophale) SiO2 
 PCOD9533792
Probable space group: I M M A
;
_chemical_formula_sum "Si O2"
_cell_formula_units_Z 48
_cell_length_a 5.616828
_cell_length_b 24.636142
_cell_length_c 13.535221
_cell_angle_alpha 90.000000
_cell_angle_beta 90.000000
_cell_angle_gamma 90.000000
_cell_volume 1872.962900
_symmetry_space_group_name_H-M "I M M A"
_symmetry_group_IT_number 74
_symmetry_cell_setting 'orthorhombic'
loop_
_space_group_symop_operation_xyz
x,y,z
-x,1/2-y,z
x,-y,-z
-x,1/2+y,-z
-x,-y,-z
x,1/2+y,-z
-x,y,z
x,1/2-y,z
1/2+x,1/2+y,1/2+z
1/2-x,-y,1/2+z
1/2+x,1/2-y,1/2-z
1/2-x,y,1/2-z
1/2-x,1/2-y,1/2-z
1/2+x,y,1/2-z
1/2-x,1/2+y,1/2+z
1/2+x,-y,1/2+z
loop_
_atom_site_type_symbol
_atom_site_label
_atom_site_fract_x
_atom_site_fract_y
_atom_site_fract_z
Si Si1 0.000000 0.312120 0.782957
Si Si2 0.500000 0.558831 0.067736
Si Si3 0.000000 0.629254 0.618800
Si Si4 0.000000 0.750000 0.026354
Si Si5 0.000000 0.044829 0.881377
Si Si6 0.000000 0.250000 0.408954
Si Si7 0.000000 0.925797 0.879750
O O1 0.250000 0.335776 0.750000
O O2 0.000000 0.250000 0.738258
O O3 0.000000 0.301854 0.900296
O O4 0.500000 0.611258 0.996810
O O5 0.268546 0.562091 0.134402
O O6 0.500000 0.500000 0.000000
O O7 0.257191 0.604670 0.646230
O O8 0.000000 0.692372 0.644797
O O9 0.750894 0.750000 0.968843
O O10 0.000000 0.985000 0.834972
O O11 0.000000 0.057755 0.002945
#
# Coordination Sequence:
#
# PCOD9533792 Si02
#       7
#     8   8   8   4   8   4   8
#     4   8  13  24  42  56  54  60  88 130 148 142
#     4  10  12  22  34  47  47  60  82 128 149 147
#     4  10  18  24  31  38  58  73 100 103 122 166
#     4  10  18  29  36  42  64  80  98 104 128 168
#     4   9  12  18  34  48  50  50  74 114 168 154
#     4  12  22  27  28  42  64  98  94  94 120 188
#     4   9  13  23  33  42  49  62  82 121 134 155
#
# _framework density 25.627846000000002
#
# number of rings (size 3 to 8) (size 9 to 14) (size 15 to 20)
#    0.500    2.000    6.667    2.000    0.000    0.000 
#    0.000    0.000    0.000    0.000    0.000    0.000 
#    0.000    0.000    0.000    0.000    0.000    0.000 
#
# Total GULP energy -133644.252247 kJ/mol
# GULP energy per Si atom -5568.510510 kJ/mol
# Density = 2.556952 g / cm^3
# Si number density = 25.627846 Si / 1000 Ang^3
#
#
#
# Elastic Constant Matrix: (Units=GPa)
#
#
# Indices 1 2 3 4 5 6 
#
# 1 333.5292 54.4413 34.2567 0.0000 0.0000 0.0000
# 2 54.4413 157.4848 27.4908 0.0000 0.0000 0.0000
# 3 34.2567 27.4908 53.0204 0.0000 0.0000 0.0000
# 4 0.0000 0.0000 0.0000 17.7814 0.0000 0.0000
# 5 0.0000 0.0000 0.0000 0.0000 -0.3955 0.0000
# 6 0.0000 0.0000 0.0000 0.0000 0.0000 24.3431
#
#
#
# Elastic Compliance Matrix: (Units=1/GPa)
#
#
# Indices 1 2 3 4 5 6 
#
# 1 0.003311 -0.000848 -0.001700 0.000000 0.000000 0.000000
# 2 -0.000848 0.007199 -0.003185 0.000000 0.000000 0.000000
# 3 -0.001700 -0.003185 0.021610 0.000000 0.000000 0.000000
# 4 0.000000 0.000000 0.000000 0.056239 0.000000 0.000000
# 5 0.000000 0.000000 0.000000 0.000000 -2.528155 0.000000
# 6 0.000000 0.000000 0.000000 0.000000 0.000000 0.041079
#
#
# Mechanical properties :
#
#
# Convention : Reuss Voigt Hill
#
# Bulk Modulus (GPa) = 48.41347 86.26799 67.34073
# Shear Modulus (GPa) = -2.10052 36.86884 17.38416
#
# Velocity S-wave (km/s) = -0.90631 3.79704 2.60730
# Velocity P-wave (km/s) = 4.22336 7.27724 5.94958
#
# Compressibility (1/GPa) = 0.02065541
#
# Stress axis : x y z
#
# Youngs Moduli (GPa) = 302.00285 138.91043 46.27463
#
# Poissons Ratio (x) = 0.11779 0.07865
# Poissons Ratio (y) = 0.25609 0.14737
# Poissons Ratio (z) = 0.51332 0.44239
#
# Static dielectric constant tensor:
#      x y z
#    x 1.886400 0.000000 0.000000 
#    y 0.000000 2.062570 0.000000 
#    z 0.000000 0.000000 2.064930 
# 
# From -- ./inp_files/47477.got.cif
#   From: 2010.05.17/outbox.cif.g08.bks.cpg/sg74_24_cif.got.tgz:47477.got - 2010.06.03 17:57:02.
