data_PCOD9533118
_publ_section_title
;
Structure prediction by ZEFSAII (Michael W. Deem and Ramdas Pophale) SiO2 
 PCOD9533118
Probable space group: I B C A 
;
_chemical_formula_sum "Si O2"
_cell_formula_units_Z 64
_cell_length_a 8.329913
_cell_length_b 31.058526
_cell_length_c 9.930393
_cell_angle_alpha 90.000000
_cell_angle_beta 90.000000
_cell_angle_gamma 90.000000
_cell_volume 2569.139832
_symmetry_space_group_name_H-M "I B C A "
_symmetry_group_IT_number 73
_symmetry_cell_setting 'orthorhombic'
loop_
_space_group_symop_operation_xyz
x,y,z
-x,1/2-y,z
x,-y,1/2-z
1/2-x,y,-z
-x,-y,-z
x,1/2+y,-z
-x,y,1/2+z
1/2+x,-y,z
1/2+x,1/2+y,1/2+z
1/2-x,-y,1/2+z
1/2+x,1/2-y,-z
-x,1/2+y,1/2-z
1/2-x,1/2-y,1/2-z
1/2+x,y,1/2-z
1/2-x,1/2+y,z
x,1/2-y,1/2+z
loop_
_atom_site_type_symbol
_atom_site_label
_atom_site_fract_x
_atom_site_fract_y
_atom_site_fract_z
Si Si1 0.403493 0.463608 0.410800
Si Si2 0.039428 0.352936 0.847470
Si Si3 0.802999 0.916112 0.288478
Si Si4 0.418617 0.704177 0.080434
O O1 0.250000 0.452626 0.500000
O O2 0.500000 0.500000 0.500000
O O3 0.304432 0.456247 0.267077
O O4 0.550314 0.432444 0.376902
O O5 0.179873 0.386494 0.864058
O O6 0.080700 0.322923 0.718548
O O7 0.883855 0.383240 0.819789
O O8 0.020925 0.323288 0.975415
O O9 0.500000 0.750000 0.106997
O O10 0.250000 0.709713 0.000000
#
# Coordination Sequence:
#
# PCOD9533118 Si02
#       4
#    16  16  16  16
#     4  11  28  53  81 114 162 207 272 347 426 507
#     4  11  25  49  81 116 168 219 279 341 412 499
#     4  10  26  50  81 117 155 215 280 340 417 504
#     4  12  28  48  77 124 168 217 280 344 422 497
#
# _framework density 24.911062000000001
#
# number of rings (size 3 to 8) (size 9 to 14) (size 15 to 20)
#    0.000    1.000    2.500    0.750   10.500    9.000 
#    4.500    0.000    0.000    0.000    0.000    0.000 
#    0.000    0.000    0.000    0.000    0.000    0.000 
#
# Total GULP energy -178599.008573 kJ/mol
# GULP energy per Si atom -5581.219018 kJ/mol
# Density = 2.485436 g / cm^3
# Si number density = 24.911062 Si / 1000 Ang^3
#
#
#
# Elastic Constant Matrix: (Units=GPa)
#
#
# Indices 1 2 3 4 5 6 
#
# 1 154.7178 65.5500 25.0892 0.0000 0.0000 0.0002
# 2 65.5500 177.8915 60.0230 0.0001 0.0000 0.0002
# 3 25.0892 60.0230 111.1892 0.0002 0.0000 0.0001
# 4 0.0000 0.0001 0.0002 48.0826 0.0000 0.0001
# 5 0.0000 0.0000 0.0000 0.0000 44.5590 0.0001
# 6 0.0002 0.0002 0.0001 0.0001 0.0001 -51.2450
#
#
#
# Elastic Compliance Matrix: (Units=1/GPa)
#
#
# Indices 1 2 3 4 5 6 
#
# 1 0.007665 -0.002740 -0.000250 0.000000 0.000000 0.000000
# 2 -0.002740 0.007853 -0.003621 0.000000 0.000000 0.000000
# 3 -0.000250 -0.003621 0.011005 0.000000 0.000000 0.000000
# 4 0.000000 0.000000 0.000000 0.020798 0.000000 0.000000
# 5 0.000000 0.000000 0.000000 0.000000 0.022442 0.000000
# 6 0.000000 0.000000 0.000000 0.000000 0.000000 -0.019514
#
#
# Mechanical properties :
#
#
# Convention : Reuss Voigt Hill
#
# Bulk Modulus (GPa) = 75.18813 82.79144 78.98979
# Shear Modulus (GPa) = 73.63369 27.82174 50.72771
#
# Velocity S-wave (km/s) = 5.44268 3.34555 4.51749
# Velocity P-wave (km/s) = 8.35136 6.94482 7.68036
#
# Compressibility (1/GPa) = 0.01329997
#
# Stress axis : x y z
#
# Youngs Moduli (GPa) = 130.46655 127.34432 90.86897
#
# Poissons Ratio (x) = 0.34890 0.02276
# Poissons Ratio (y) = 0.35746 0.32903
# Poissons Ratio (z) = 0.03268 0.46110
#
# Static dielectric constant tensor:
#      x y z
#    x 1.987100 0.000000 0.000000 
#    y 0.000000 2.116410 0.000000 
#    z 0.000000 0.000000 2.092770 
# 
# From -- ./inp_files/9044.got.cif
#   From: 2010.05.17/outbox.cif.g08.bks.cpg/sg73_5_cif.got.tgz:9044.got - 2010.06.03 17:35:07.
