data_PCOD9533024
_publ_section_title
;
Structure prediction by ZEFSAII (Michael W. Deem and Ramdas Pophale) SiO2 
 PCOD9533024
Probable space group: I B C A 
;
_chemical_formula_sum "Si O2"
_cell_formula_units_Z 80
_cell_length_a 14.886514
_cell_length_b 11.691604
_cell_length_c 21.170558
_cell_angle_alpha 90.000000
_cell_angle_beta 90.000000
_cell_angle_gamma 90.000000
_cell_volume 3684.676906
_symmetry_space_group_name_H-M "I B C A "
_symmetry_group_IT_number 73
_symmetry_cell_setting 'orthorhombic'
loop_
_space_group_symop_operation_xyz
x,y,z
-x,1/2-y,z
x,-y,1/2-z
1/2-x,y,-z
-x,-y,-z
x,1/2+y,-z
-x,y,1/2+z
1/2+x,-y,z
1/2+x,1/2+y,1/2+z
1/2-x,-y,1/2+z
1/2+x,1/2-y,-z
-x,1/2+y,1/2-z
1/2-x,1/2-y,1/2-z
1/2+x,y,1/2-z
1/2-x,1/2+y,z
x,1/2-y,1/2+z
loop_
_atom_site_type_symbol
_atom_site_label
_atom_site_fract_x
_atom_site_fract_y
_atom_site_fract_z
Si Si1 0.343797 0.103510 0.016488
Si Si2 0.000000 0.750000 0.523836
Si Si3 0.857625 0.407733 0.196214
Si Si4 0.326989 0.304297 0.650237
Si Si5 0.500000 0.250000 0.236518
Si Si6 0.629805 0.579565 0.916360
O O1 0.344824 0.981899 0.981947
O O2 0.250000 0.160686 0.000000
O O3 0.421295 0.184572 0.988812
O O4 0.345628 0.107530 0.092391
O O5 0.041719 0.651083 0.566777
O O6 0.836715 0.500000 0.250000
O O7 0.765764 0.337288 0.184327
O O8 0.944528 0.338502 0.220179
O O9 0.879805 0.478290 0.133243
O O10 0.416980 0.298383 0.693485
O O11 0.313055 0.179619 0.617213
#
# Coordination Sequence:
#
# PCOD9533024 Si02
#       6
#    16   8  16  16   8  16
#     4  11  23  46  76 107 145 198 242 306 389 435
#     4  10  25  45  74 104 155 186 247 310 370 453
#     4  12  27  48  74 110 150 197 256 297 380 441
#     4  11  25  52  72 111 151 189 250 318 358 452
#     4  12  27  49  76 108 149 204 251 312 360 451
#     4  11  24  48  71 108 149 195 246 305 378 441
#
# _framework density 21.711535999999999
#
# number of rings (size 3 to 8) (size 9 to 14) (size 15 to 20)
#    0.000    0.800    4.000    3.600    0.000    4.800 
#    3.600    0.000    0.000    0.000    0.000    0.000 
#    0.000    0.000    0.000    0.000    0.000    0.000 
#
# Total GULP energy -223071.199397 kJ/mol
# GULP energy per Si atom -5576.779985 kJ/mol
# Density = 2.166212 g / cm^3
# Si number density = 21.711536 Si / 1000 Ang^3
#
#
#
# Elastic Constant Matrix: (Units=GPa)
#
#
# Indices 1 2 3 4 5 6 
#
# 1 169.6686 92.7098 46.7404 0.0000 0.0000 0.0000
# 2 92.7098 123.3397 70.3772 0.0000 0.0000 0.0000
# 3 46.7404 70.3772 93.2315 0.0000 0.0000 0.0000
# 4 0.0000 0.0000 0.0000 49.3984 0.0000 0.0000
# 5 0.0000 0.0000 0.0000 0.0000 -3.7782 0.0000
# 6 0.0000 0.0000 0.0000 0.0000 0.0000 36.0769
#
#
#
# Elastic Compliance Matrix: (Units=1/GPa)
#
#
# Indices 1 2 3 4 5 6 
#
# 1 0.010074 -0.008239 0.001169 0.000000 0.000000 0.000000
# 2 -0.008239 0.020981 -0.011707 0.000000 0.000000 0.000000
# 3 0.001169 -0.011707 0.018977 0.000000 0.000000 0.000000
# 4 0.000000 0.000000 0.000000 0.020244 0.000000 0.000000
# 5 0.000000 0.000000 0.000000 0.000000 -0.264679 0.000000
# 6 0.000000 0.000000 0.000000 0.000000 0.000000 0.027719
#
#
# Mechanical properties :
#
#
# Convention : Reuss Voigt Hill
#
# Bulk Modulus (GPa) = 80.14466 89.54385 84.84425
# Shear Modulus (GPa) = -40.00896 28.10025 -5.95435
#
# Velocity S-wave (km/s) = -4.29738 3.60148 -1.65784
# Velocity P-wave (km/s) = 3.51713 7.65678 5.95804
#
# Compressibility (1/GPa) = 0.01247744
#
# Stress axis : x y z
#
# Youngs Moduli (GPa) = 99.26734 47.66267 52.69502
#
# Poissons Ratio (x) = 0.39270 -0.06161
# Poissons Ratio (y) = 0.81788 0.61690
# Poissons Ratio (z) = -0.11605 0.55799
#
# Static dielectric constant tensor:
#      x y z
#    x 1.845460 0.000000 0.000000 
#    y 0.000000 1.810180 0.000000 
#    z 0.000000 0.000000 1.867060 
# 
# From -- ./inp_files/29355.got.cif
#   From: 2010.05.17/outbox.cif.g08.bks.cpg/sg73_15_cif.got.tgz:29355.got - 2010.06.03 17:35:07.
