data_PCOD9533331
_publ_section_title
;
Structure prediction by ZEFSAII (Michael W. Deem and Ramdas Pophale) SiO2 
 PCOD9533331
Probable space group: I B C A 
;
_chemical_formula_sum "Si O2"
_cell_formula_units_Z 120
_cell_length_a 12.616411
_cell_length_b 24.463284
_cell_length_c 18.529721
_cell_angle_alpha 90.000000
_cell_angle_beta 90.000000
_cell_angle_gamma 90.000000
_cell_volume 5718.991694
_symmetry_space_group_name_H-M "I B C A "
_symmetry_group_IT_number 73
_symmetry_cell_setting 'orthorhombic'
loop_
_space_group_symop_operation_xyz
x,y,z
-x,1/2-y,z
x,-y,1/2-z
1/2-x,y,-z
-x,-y,-z
x,1/2+y,-z
-x,y,1/2+z
1/2+x,-y,z
1/2+x,1/2+y,1/2+z
1/2-x,-y,1/2+z
1/2+x,1/2-y,-z
-x,1/2+y,1/2-z
1/2-x,1/2-y,1/2-z
1/2+x,y,1/2-z
1/2-x,1/2+y,z
x,1/2-y,1/2+z
loop_
_atom_site_type_symbol
_atom_site_label
_atom_site_fract_x
_atom_site_fract_y
_atom_site_fract_z
Si Si1 0.633766 0.684455 0.024949
Si Si2 0.854020 0.551257 0.539824
Si Si3 0.498788 0.943311 0.209154
Si Si4 0.456278 0.309330 0.133073
Si Si5 0.000000 0.750000 0.357972
Si Si6 0.641859 0.338270 0.770188
Si Si7 0.563616 0.065863 0.953772
Si Si8 0.355328 0.887198 0.315887
O O1 0.567072 0.688495 0.951197
O O2 0.750000 0.702410 0.000000
O O3 0.581791 0.718876 0.089167
O O4 0.630216 0.621155 0.048659
O O5 0.750000 0.572941 0.500000
O O6 0.867679 0.486725 0.525713
O O7 0.837877 0.567243 0.622872
O O8 0.964240 0.574142 0.507708
O O9 0.588353 0.897930 0.222542
O O10 0.484939 0.949202 0.124025
O O11 0.391916 0.917544 0.243313
O O12 0.521191 0.000000 0.250000
O O13 0.500000 0.250000 0.151023
O O14 0.357573 0.321963 0.185839
O O15 0.545650 0.352240 0.155932
O O16 0.933310 0.705784 0.311077
O O17 0.757567 0.346650 0.803262
#
# Coordination Sequence:
#
# PCOD9533331 Si02
#       8
#    16  16  16  16   8  16  16  16
#     4  12  27  44  70 102 139 187 231 288 354 413
#     4  11  23  41  70  98 132 181 223 284 350 411
#     4  11  23  45  67  99 140 175 229 288 345 418
#     4  11  25  46  66 101 140 179 234 290 339 424
#     4  12  26  46  66 106 136 180 240 286 344 414
#     4  11  26  44  72 100 137 188 225 291 350 418
#     4  11  23  45  66  99 142 173 230 286 343 424
#     4  11  25  44  69 100 134 179 232 278 351 414
#
# _framework density 20.982718999999999
#
# number of rings (size 3 to 8) (size 9 to 14) (size 15 to 20)
#    0.000    0.800    5.333    1.200    3.733    1.067 
#    2.400    0.000    0.000    0.000    0.000    0.000 
#    0.000    0.000    0.000    0.000    0.000    0.000 
#
# Total GULP energy -335328.170249 kJ/mol
# GULP energy per Si atom -5588.802837 kJ/mol
# Density = 2.093496 g / cm^3
# Si number density = 20.982719 Si / 1000 Ang^3
#
#
#
# Elastic Constant Matrix: (Units=GPa)
#
#
# Indices 1 2 3 4 5 6 
#
# 1 39.5900 18.0194 -4.1355 0.0000 0.0000 0.0000
# 2 18.0194 87.1700 13.4736 0.0000 0.0000 0.0000
# 3 -4.1355 13.4736 77.9312 0.0001 0.0000 0.0000
# 4 0.0000 0.0000 0.0001 67.2242 0.0000 0.0000
# 5 0.0000 0.0000 0.0000 0.0000 26.1518 0.0000
# 6 0.0000 0.0000 0.0000 0.0000 0.0000 12.4136
#
#
#
# Elastic Compliance Matrix: (Units=1/GPa)
#
#
# Indices 1 2 3 4 5 6 
#
# 1 0.028382 -0.006267 0.002590 0.000000 0.000000 0.000000
# 2 -0.006267 0.013171 -0.002610 0.000000 0.000000 0.000000
# 3 0.002590 -0.002610 0.013420 0.000000 0.000000 0.000000
# 4 0.000000 0.000000 0.000000 0.014876 0.000000 0.000000
# 5 0.000000 0.000000 0.000000 0.000000 0.038238 0.000000
# 6 0.000000 0.000000 0.000000 0.000000 0.000000 0.080557
#
#
# Mechanical properties :
#
#
# Convention : Reuss Voigt Hill
#
# Bulk Modulus (GPa) = 23.58566 28.82291 26.20429
# Shear Modulus (GPa) = 23.21789 32.98017 28.09903
#
# Velocity S-wave (km/s) = 3.33005 3.96887 3.66341
# Velocity P-wave (km/s) = 5.10398 5.89651 5.51450
#
# Compressibility (1/GPa) = 0.04239864
#
# Stress axis : x y z
#
# Youngs Moduli (GPa) = 35.23356 75.92580 74.51314
#
# Poissons Ratio (x) = 0.47585 -0.19297
# Poissons Ratio (y) = 0.22082 0.19446
# Poissons Ratio (z) = -0.09124 0.19814
#
# Static dielectric constant tensor:
#      x y z
#    x 1.791910 0.000000 0.000000 
#    y 0.000000 1.748680 0.000000 
#    z 0.000000 0.000000 1.752080 
# 
# From -- ./inp_files/21508.got.cif
#   From: 2010.05.17/outbox.cif.g08.bks.cpg/sg73_11_cif.got.tgz:21508.got - 2010.06.03 17:35:07.
