data_PCOD9533158
_publ_section_title
;
Structure prediction by ZEFSAII (Michael W. Deem and Ramdas Pophale) SiO2 
 PCOD9533158
Probable space group: I B C A 
;
_chemical_formula_sum "Si O2"
_cell_formula_units_Z 104
_cell_length_a 10.945558
_cell_length_b 13.486821
_cell_length_c 28.864634
_cell_angle_alpha 90.000000
_cell_angle_beta 90.000000
_cell_angle_gamma 90.000000
_cell_volume 4261.019829
_symmetry_space_group_name_H-M "I B C A "
_symmetry_group_IT_number 73
_symmetry_cell_setting 'orthorhombic'
loop_
_space_group_symop_operation_xyz
x,y,z
-x,1/2-y,z
x,-y,1/2-z
1/2-x,y,-z
-x,-y,-z
x,1/2+y,-z
-x,y,1/2+z
1/2+x,-y,z
1/2+x,1/2+y,1/2+z
1/2-x,-y,1/2+z
1/2+x,1/2-y,-z
-x,1/2+y,1/2-z
1/2-x,1/2-y,1/2-z
1/2+x,y,1/2-z
1/2-x,1/2+y,z
x,1/2-y,1/2+z
loop_
_atom_site_type_symbol
_atom_site_label
_atom_site_fract_x
_atom_site_fract_y
_atom_site_fract_z
Si Si1 0.946952 0.607686 0.223939
Si Si2 0.517136 0.631644 0.969009
Si Si3 0.694859 0.380680 0.256796
Si Si4 0.750000 0.875084 0.000000
Si Si5 0.602157 0.473363 0.624167
Si Si6 0.866562 0.211014 0.057950
Si Si7 0.850063 0.078760 0.139411
O O1 0.960163 0.500000 0.250000
O O2 0.831976 0.657900 0.249584
O O3 0.914592 0.594556 0.170068
O O4 0.081521 0.651857 0.226269
O O5 0.500000 0.750000 0.957908
O O6 0.384676 0.585619 0.984393
O O7 0.574504 0.575294 0.925659
O O8 0.605979 0.640507 0.013700
O O9 0.710326 0.500000 0.250000
O O10 0.655955 0.374276 0.310150
O O11 0.787813 0.803567 0.957896
O O12 0.489060 0.548264 0.629998
O O13 0.744416 0.505363 0.631481
O O14 0.810573 0.156228 0.100797
O O15 0.000000 0.250000 0.071205
#
# Coordination Sequence:
#
# PCOD9533158 Si02
#       7
#    16  16  16   8  16  16  16
#     4   9  16  30  49  73 103 137 174 212 260 318
#     4   9  19  36  56  76 104 145 185 222 266 321
#     4   9  16  29  48  72 102 138 174 212 259 317
#     4   8  16  36  58  72  98 144 192 220 260 322
#     4  11  22  33  54  85 113 141 178 226 273 317
#     4   9  19  36  56  76 105 147 183 219 267 322
#     4  11  21  33  53  84 113 140 180 225 270 320
#
# _framework density 24.407304
#
# number of rings (size 3 to 8) (size 9 to 14) (size 15 to 20)
#    0.000    2.769    3.077    1.846    0.000    3.077 
#    0.000    0.769    0.000    0.923    0.000    5.385 
#    0.000    0.000    0.000    0.000    0.000    0.000 
#
# Total GULP energy -289993.290803 kJ/mol
# GULP energy per Si atom -5576.794054 kJ/mol
# Density = 2.435175 g / cm^3
# Si number density = 24.407304 Si / 1000 Ang^3
#
#
#
# Elastic Constant Matrix: (Units=GPa)
#
#
# Indices 1 2 3 4 5 6 
#
# 1 95.1173 3.7849 -11.6377 0.0000 0.0000 0.0000
# 2 3.7849 21.3991 -8.0263 0.0000 0.0000 0.0000
# 3 -11.6377 -8.0263 111.5328 0.0000 0.0000 0.0000
# 4 0.0000 0.0000 0.0000 15.8465 0.0000 0.0000
# 5 0.0000 0.0000 0.0000 0.0000 227.2323 0.0000
# 6 0.0000 0.0000 0.0000 0.0000 0.0000 -3.7839
#
#
#
# Elastic Compliance Matrix: (Units=1/GPa)
#
#
# Indices 1 2 3 4 5 6 
#
# 1 0.010697 -0.001514 0.001007 0.000000 0.000000 0.000000
# 2 -0.001514 0.048242 0.003314 0.000000 0.000000 0.000000
# 3 0.001007 0.003314 0.009310 0.000000 0.000000 0.000000
# 4 0.000000 0.000000 0.000000 0.063106 0.000000 0.000000
# 5 0.000000 0.000000 0.000000 0.000000 0.004401 0.000000
# 6 0.000000 0.000000 0.000000 0.000000 0.000000 -0.264277
#
#
# Mechanical properties :
#
#
# Convention : Reuss Voigt Hill
#
# Bulk Modulus (GPa) = 13.53889 21.81010 17.67449
# Shear Modulus (GPa) = -45.65570 64.12085 9.23257
#
# Velocity S-wave (km/s) = -4.32971 5.13110 1.94703
# Velocity P-wave (km/s) = 4.40863 6.63774 3.50881
#
# Compressibility (1/GPa) = 0.07386129
#
# Stress axis : x y z
#
# Youngs Moduli (GPa) = 93.48575 20.72898 107.41681
#
# Poissons Ratio (x) = 0.03139 -0.10819
# Poissons Ratio (y) = 0.14155 -0.35594
# Poissons Ratio (z) = -0.09416 -0.06869
#
# Static dielectric constant tensor:
#      x y z
#    x 2.141910 0.000000 0.000000 
#    y 0.000000 2.038930 0.000000 
#    z 0.000000 0.000000 1.897230 
# 
# From -- ./inp_files/34098.got.cif
#   From: 2010.05.17/outbox.cif.g08.bks.cpg/sg73_18_cif.got.tgz:34098.got - 2010.06.03 17:35:07.
