data_PCOD9533926
_publ_section_title
;
Structure prediction by ZEFSAII (Michael W. Deem and Ramdas Pophale) SiO2 
 PCOD9533926
Probable space group: I M M A
;
_chemical_formula_sum "Si O2"
_cell_formula_units_Z 104
_cell_length_a 25.831867
_cell_length_b 24.766658
_cell_length_c 7.877615
_cell_angle_alpha 90.000000
_cell_angle_beta 90.000000
_cell_angle_gamma 90.000000
_cell_volume 5039.853993
_symmetry_space_group_name_H-M "I M M A"
_symmetry_group_IT_number 74
_symmetry_cell_setting 'orthorhombic'
loop_
_space_group_symop_operation_xyz
x,y,z
-x,1/2-y,z
x,-y,-z
-x,1/2+y,-z
-x,-y,-z
x,1/2+y,-z
-x,y,z
x,1/2-y,z
1/2+x,1/2+y,1/2+z
1/2-x,-y,1/2+z
1/2+x,1/2-y,1/2-z
1/2-x,y,1/2-z
1/2-x,1/2-y,1/2-z
1/2+x,y,1/2-z
1/2-x,1/2+y,1/2+z
1/2+x,-y,1/2+z
loop_
_atom_site_type_symbol
_atom_site_label
_atom_site_fract_x
_atom_site_fract_y
_atom_site_fract_z
Si Si1 0.891492 0.750000 0.526329
Si Si2 0.058300 0.137377 0.466607
Si Si3 0.651362 0.437814 0.947981
Si Si4 0.942180 0.133780 0.058053
Si Si5 0.937356 0.750000 0.900795
Si Si6 0.250379 0.868983 0.040710
Si Si7 0.347082 0.437590 0.545455
Si Si8 0.769561 0.250000 0.554294
O O1 0.918467 0.694253 0.468716
O O2 0.902061 0.750000 0.731131
O O3 0.831834 0.750000 0.469191
O O4 0.096836 0.088726 0.505379
O O5 0.055962 0.139912 0.261927
O O6 0.000000 0.129670 0.530601
O O7 0.697851 0.400241 0.015949
O O8 0.655272 0.434982 0.746882
O O9 0.656295 0.500000 0.000000
O O10 0.927878 0.194493 0.999033
O O11 0.000000 0.120015 0.998169
O O12 0.900142 0.089731 0.012686
O O13 0.000000 0.750000 0.855726
O O14 0.250000 0.868269 0.250000
O O15 0.200954 0.902404 0.979355
O O16 0.249913 0.806984 0.981972
O O17 0.343079 0.500000 0.500000
O O18 0.750000 0.250000 0.750000
#
# Coordination Sequence:
#
# PCOD9533926 Si02
#       8
#     8  16  16  16   8  16  16   8
#     4  10  16  32  61  87 116 154 190 231 285 356
#     4  10  20  36  60  89 118 152 192 238 291 347
#     4  11  22  38  60  83 115 152 197 248 289 336
#     4   9  19  37  60  86 118 154 193 238 292 349
#     4   8  16  33  60  88 119 159 196 237 291 352
#     4   9  20  37  57  84 115 153 189 231 290 349
#     4  11  23  39  59  83 112 157 202 239 289 350
#     4  10  18  33  59  88 120 151 184 225 296 350
#
# _framework density 20.635518000000001
#
# number of rings (size 3 to 8) (size 9 to 14) (size 15 to 20)
#    0.000    2.154    1.538    3.000    0.000    1.846 
#    0.000    3.846    0.000    3.692    0.000    0.000 
#    0.000    0.000    0.000    0.000    0.000    0.000 
#
# Total GULP energy -290287.680021 kJ/mol
# GULP energy per Si atom -5582.455385 kJ/mol
# Density = 2.058855 g / cm^3
# Si number density = 20.635518 Si / 1000 Ang^3
#
#
#
# Elastic Constant Matrix: (Units=GPa)
#
#
# Indices 1 2 3 4 5 6 
#
# 1 154.7039 102.2845 12.0573 0.0000 0.0000 0.0000
# 2 102.2845 209.0781 8.9880 0.0000 0.0000 0.0000
# 3 12.0573 8.9880 27.6004 0.0000 0.0000 0.0000
# 4 0.0000 0.0000 0.0000 -24.0075 0.0000 0.0000
# 5 0.0000 0.0000 0.0000 0.0000 29.9689 0.0000
# 6 0.0000 0.0000 0.0000 0.0000 0.0000 22.5676
#
#
#
# Elastic Compliance Matrix: (Units=1/GPa)
#
#
# Indices 1 2 3 4 5 6 
#
# 1 0.009755 -0.004654 -0.002746 0.000000 0.000000 0.000000
# 2 -0.004654 0.007072 -0.000270 0.000000 0.000000 0.000000
# 3 -0.002746 -0.000270 0.037519 0.000000 0.000000 0.000000
# 4 0.000000 0.000000 0.000000 -0.041654 0.000000 0.000000
# 5 0.000000 0.000000 0.000000 0.000000 0.033368 0.000000
# 6 0.000000 0.000000 0.000000 0.000000 0.000000 0.044311
#
#
# Mechanical properties :
#
#
# Convention : Reuss Voigt Hill
#
# Bulk Modulus (GPa) = 25.63723 70.89357 48.26540
# Shear Modulus (GPa) = 42.11854 23.57599 32.84726
#
# Velocity S-wave (km/s) = 4.52272 3.38375 3.99404
# Velocity P-wave (km/s) = 6.30271 7.04954 6.68656
#
# Compressibility (1/GPa) = 0.03900577
#
# Stress axis : x y z
#
# Youngs Moduli (GPa) = 102.50840 141.41256 26.65338
#
# Poissons Ratio (x) = 0.65819 0.07319
# Poissons Ratio (y) = 0.47712 0.00718
# Poissons Ratio (z) = 0.28148 0.03812
#
# Static dielectric constant tensor:
#      x y z
#    x 1.739600 0.000000 0.000000 
#    y 0.000000 1.580780 0.000000 
#    z 0.000000 0.000000 1.735430 
# 
# From -- ./inp_files/15254.got.cif
#   From: 2010.05.17/outbox.cif.g08.bks.cpg/sg74_8_cif.got.tgz:15254.got - 2010.06.03 17:57:02.
