data_PCOD9533255
_publ_section_title
;
Structure prediction by ZEFSAII (Michael W. Deem and Ramdas Pophale) SiO2 
 PCOD9533255
Probable space group: I B C A 
;
_chemical_formula_sum "Si O2"
_cell_formula_units_Z 96
_cell_length_a 13.383840
_cell_length_b 14.325592
_cell_length_c 23.656243
_cell_angle_alpha 90.000000
_cell_angle_beta 90.000000
_cell_angle_gamma 90.000000
_cell_volume 4535.645328
_symmetry_space_group_name_H-M "I B C A "
_symmetry_group_IT_number 73
_symmetry_cell_setting 'orthorhombic'
loop_
_space_group_symop_operation_xyz
x,y,z
-x,1/2-y,z
x,-y,1/2-z
1/2-x,y,-z
-x,-y,-z
x,1/2+y,-z
-x,y,1/2+z
1/2+x,-y,z
1/2+x,1/2+y,1/2+z
1/2-x,-y,1/2+z
1/2+x,1/2-y,-z
-x,1/2+y,1/2-z
1/2-x,1/2-y,1/2-z
1/2+x,y,1/2-z
1/2-x,1/2+y,z
x,1/2-y,1/2+z
loop_
_atom_site_type_symbol
_atom_site_label
_atom_site_fract_x
_atom_site_fract_y
_atom_site_fract_z
Si Si1 0.506438 0.486126 0.814589
Si Si2 0.519920 0.138506 0.522542
Si Si3 0.119736 0.379053 0.881701
Si Si4 0.780939 0.499139 0.684107
Si Si5 0.072721 0.161789 0.098189
Si Si6 0.803388 0.827980 0.105810
O O1 0.533609 0.500000 0.750000
O O2 0.527588 0.585871 0.843558
O O3 0.391705 0.456852 0.817546
O O4 0.566338 0.407966 0.848939
O O5 0.500000 0.250000 0.519731
O O6 0.422688 0.101463 0.555611
O O7 0.532379 0.109417 0.457894
O O8 0.622448 0.127714 0.558474
O O9 0.210384 0.439571 0.857075
O O10 0.148316 0.271129 0.878069
O O11 0.750187 0.500000 0.750000
O O12 0.793284 0.602079 0.658342
O O13 0.188322 0.188396 0.086344
O O14 0.000000 0.250000 0.108159
#
# Coordination Sequence:
#
# PCOD9533255 Si02
#       6
#    16  16  16  16  16  16
#     4  11  24  44  64  95 137 170 224 282 326 401
#     4   9  21  41  67  94 130 171 219 274 328 403
#     4  11  22  42  68  96 131 177 228 269 337 401
#     4  11  24  43  63  96 138 172 225 284 329 402
#     4  11  23  43  67  98 137 173 221 277 341 392
#     4  11  22  41  67  96 131 180 219 273 336 397
#
# _framework density 21.165676999999999
#
# number of rings (size 3 to 8) (size 9 to 14) (size 15 to 20)
#    0.000    1.333    3.333    2.000    0.000    1.333 
#    6.000    2.500    0.000    0.000    0.000    0.000 
#    0.000    0.000    0.000    0.000    0.000    0.000 
#
# Total GULP energy -267840.826030 kJ/mol
# GULP energy per Si atom -5580.017209 kJ/mol
# Density = 2.111750 g / cm^3
# Si number density = 21.165677 Si / 1000 Ang^3
#
#
#
# Elastic Constant Matrix: (Units=GPa)
#
#
# Indices 1 2 3 4 5 6 
#
# 1 124.2428 13.2152 28.8977 0.0000 0.0000 0.0000
# 2 13.2152 99.4727 54.0345 0.0000 0.0000 0.0000
# 3 28.8977 54.0345 131.6155 0.0000 0.0000 0.0000
# 4 0.0000 0.0000 0.0000 57.4034 0.0000 0.0000
# 5 0.0000 0.0000 0.0000 0.0000 20.8897 0.0000
# 6 0.0000 0.0000 0.0000 0.0000 0.0000 37.6463
#
#
#
# Elastic Compliance Matrix: (Units=1/GPa)
#
#
# Indices 1 2 3 4 5 6 
#
# 1 0.008484 -0.000148 -0.001802 0.000000 0.000000 0.000000
# 2 -0.000148 0.012941 -0.005280 0.000000 0.000000 0.000000
# 3 -0.001802 -0.005280 0.010161 0.000000 0.000000 0.000000
# 4 0.000000 0.000000 0.000000 0.017421 0.000000 0.000000
# 5 0.000000 0.000000 0.000000 0.000000 0.047871 0.000000
# 6 0.000000 0.000000 0.000000 0.000000 0.000000 0.026563
#
#
# Mechanical properties :
#
#
# Convention : Reuss Voigt Hill
#
# Bulk Modulus (GPa) = 58.39393 60.84732 59.62062
# Shear Modulus (GPa) = 34.81664 40.46677 37.64171
#
# Velocity S-wave (km/s) = 4.06021 4.37728 4.22172
# Velocity P-wave (km/s) = 7.04480 7.37278 7.21066
#
# Compressibility (1/GPa) = 0.01712507
#
# Stress axis : x y z
#
# Youngs Moduli (GPa) = 117.87438 77.27346 98.41231
#
# Poissons Ratio (x) = 0.01146 0.17732
# Poissons Ratio (y) = 0.01748 0.51965
# Poissons Ratio (z) = 0.21238 0.40803
#
# Static dielectric constant tensor:
#      x y z
#    x 1.824870 0.000000 0.000000 
#    y 0.000000 1.753450 0.000000 
#    z 0.000000 0.000000 1.773950 
# 
# From -- ./inp_files/18662.got.cif
#   From: 2010.05.17/outbox.cif.g08.bks.cpg/sg73_10_cif.got.tgz:18662.got - 2010.06.03 17:35:07.
