data_PCOD9533002
_publ_section_title
;
Structure prediction by ZEFSAII (Michael W. Deem and Ramdas Pophale) SiO2 
 PCOD9533002
Probable space group: I B C A 
;
_chemical_formula_sum "Si O2"
_cell_formula_units_Z 120
_cell_length_a 16.895102
_cell_length_b 23.289306
_cell_length_c 13.002757
_cell_angle_alpha 90.000000
_cell_angle_beta 90.000000
_cell_angle_gamma 90.000000
_cell_volume 5116.262416
_symmetry_space_group_name_H-M "I B C A "
_symmetry_group_IT_number 73
_symmetry_cell_setting 'orthorhombic'
loop_
_space_group_symop_operation_xyz
x,y,z
-x,1/2-y,z
x,-y,1/2-z
1/2-x,y,-z
-x,-y,-z
x,1/2+y,-z
-x,y,1/2+z
1/2+x,-y,z
1/2+x,1/2+y,1/2+z
1/2-x,-y,1/2+z
1/2+x,1/2-y,-z
-x,1/2+y,1/2-z
1/2-x,1/2-y,1/2-z
1/2+x,y,1/2-z
1/2-x,1/2+y,z
x,1/2-y,1/2+z
loop_
_atom_site_type_symbol
_atom_site_label
_atom_site_fract_x
_atom_site_fract_y
_atom_site_fract_z
Si Si1 0.628503 0.739413 0.175415
Si Si2 0.691178 0.548963 0.097694
Si Si3 0.093114 0.878339 0.044421
Si Si4 0.750000 0.165419 0.500000
Si Si5 0.922234 0.939595 0.762655
Si Si6 0.746162 0.429879 0.176174
Si Si7 0.189216 0.769278 0.106614
Si Si8 0.011823 0.837669 0.392643
O O1 0.637990 0.758081 0.292935
O O2 0.568479 0.687521 0.157396
O O3 0.581377 0.792350 0.124666
O O4 0.718342 0.726117 0.139866
O O5 0.885484 0.577469 0.952905
O O6 0.694391 0.481187 0.126134
O O7 0.716103 0.579187 0.206045
O O8 0.750000 0.556190 0.000000
O O9 0.089466 0.910745 0.151869
O O10 0.156735 0.826855 0.054691
O O11 0.010809 0.849398 0.010623
O O12 0.745995 0.124206 0.400174
O O13 0.685282 0.211956 0.538248
O O14 0.836154 0.951572 0.812225
O O15 0.963918 0.895018 0.835750
O O16 0.965406 0.000000 0.750000
#
# Coordination Sequence:
#
# PCOD9533002 Si02
#       8
#    16  16  16   8  16  16  16  16
#     4  10  24  51  76 111 159 208 262 325 402 470
#     4  11  22  44  77 112 146 206 263 328 396 462
#     4  12  27  48  84 114 151 210 273 327 403 488
#     4  12  26  38  66 126 160 192 248 340 404 452
#     4  12  25  51  75 105 153 212 258 323 401 480
#     4  11  24  45  73 113 160 199 260 339 401 469
#     4  11  25  48  82 116 151 207 271 329 387 483
#     4  11  26  49  74 111 161 207 255 327 402 484
#
# _framework density 23.454620999999999
#
# number of rings (size 3 to 8) (size 9 to 14) (size 15 to 20)
#    0.000    0.800    4.667    1.600    6.533    1.600 
#   12.000    0.000    0.000    0.000    0.000    0.000 
#    0.000    0.000    0.000    0.000    0.000    0.000 
#
# Total GULP energy -335365.619538 kJ/mol
# GULP energy per Si atom -5589.426992 kJ/mol
# Density = 2.340124 g / cm^3
# Si number density = 23.454621 Si / 1000 Ang^3
#
#
#
# Elastic Constant Matrix: (Units=GPa)
#
#
# Indices 1 2 3 4 5 6 
#
# 1 71.1144 39.1211 26.9663 0.0000 0.0000 0.0000
# 2 39.1211 153.5133 34.0627 0.0000 0.0000 0.0000
# 3 26.9663 34.0627 104.0942 0.0000 0.0000 0.0000
# 4 0.0000 0.0000 0.0000 38.3417 0.0000 0.0000
# 5 0.0000 0.0000 0.0000 0.0000 8.9477 0.0000
# 6 0.0000 0.0000 0.0000 0.0000 0.0000 21.0130
#
#
#
# Elastic Compliance Matrix: (Units=1/GPa)
#
#
# Indices 1 2 3 4 5 6 
#
# 1 0.017337 -0.003689 -0.003284 0.000000 0.000000 0.000000
# 2 -0.003689 0.007809 -0.001600 0.000000 0.000000 0.000000
# 3 -0.003284 -0.001600 0.010981 0.000000 0.000000 0.000000
# 4 0.000000 0.000000 0.000000 0.026081 0.000000 0.000000
# 5 0.000000 0.000000 0.000000 0.000000 0.111760 0.000000
# 6 0.000000 0.000000 0.000000 0.000000 0.000000 0.047589
#
#
# Mechanical properties :
#
#
# Convention : Reuss Voigt Hill
#
# Bulk Modulus (GPa) = 52.68464 58.78026 55.73245
# Shear Modulus (GPa) = 20.40562 28.89861 24.65211
#
# Velocity S-wave (km/s) = 2.95278 3.51395 3.24552
# Velocity P-wave (km/s) = 5.84263 6.44821 6.15288
#
# Compressibility (1/GPa) = 0.01898086
#
# Stress axis : x y z
#
# Youngs Moduli (GPa) = 57.68110 128.05350 91.06760
#
# Poissons Ratio (x) = 0.47244 0.29906
# Poissons Ratio (y) = 0.21281 0.14568
# Poissons Ratio (z) = 0.18942 0.20484
#
# Static dielectric constant tensor:
#      x y z
#    x 1.911100 0.000000 0.000000 
#    y 0.000000 1.906470 0.000000 
#    z 0.000000 0.000000 1.926500 
# 
# From -- ./inp_files/13858.got.cif
#   From: 2010.05.17/outbox.cif.g08.bks.cpg/sg73_7_cif.got.tgz:13858.got - 2010.06.03 17:35:07.
