data_PCOD9533645
_publ_section_title
;
Structure prediction by ZEFSAII (Michael W. Deem and Ramdas Pophale) SiO2 
 PCOD9533645
Probable space group: I B C A 
;
_chemical_formula_sum "Si O2"
_cell_formula_units_Z 56
_cell_length_a 9.419675
_cell_length_b 18.250295
_cell_length_c 13.942089
_cell_angle_alpha 90.000000
_cell_angle_beta 90.000000
_cell_angle_gamma 90.000000
_cell_volume 2396.810279
_symmetry_space_group_name_H-M "I B C A "
_symmetry_group_IT_number 73
_symmetry_cell_setting 'orthorhombic'
loop_
_space_group_symop_operation_xyz
x,y,z
-x,1/2-y,z
x,-y,1/2-z
1/2-x,y,-z
-x,-y,-z
x,1/2+y,-z
-x,y,1/2+z
1/2+x,-y,z
1/2+x,1/2+y,1/2+z
1/2-x,-y,1/2+z
1/2+x,1/2-y,-z
-x,1/2+y,1/2-z
1/2-x,1/2-y,1/2-z
1/2+x,y,1/2-z
1/2-x,1/2+y,z
x,1/2-y,1/2+z
loop_
_atom_site_type_symbol
_atom_site_label
_atom_site_fract_x
_atom_site_fract_y
_atom_site_fract_z
Si Si1 0.628685 0.502886 0.572563
Si Si2 0.750000 0.778598 0.500000
Si Si3 0.219624 0.839011 0.346602
Si Si4 0.439376 0.356528 0.154660
O O1 0.750000 0.478303 0.500000
O O2 0.500000 0.500000 0.500000
O O3 0.665115 0.582835 0.612824
O O4 0.596332 0.442938 0.652880
O O5 0.817260 0.724547 0.421258
O O6 0.868693 0.824003 0.558061
O O7 0.391858 0.843824 0.340181
O O8 0.143802 0.824710 0.245695
#
# Coordination Sequence:
#
# PCOD9533645 Si02
#       4
#    16   8  16  16
#     4  12  24  47  77 107 145 191 243 302 365 431
#     4  12  26  50  72 102 150 198 250 300 374 438
#     4  12  28  48  75 113 149 193 252 303 372 442
#     4  12  28  46  76 110 147 198 246 309 368 441
#
# _framework density 23.364386
#
# number of rings (size 3 to 8) (size 9 to 14) (size 15 to 20)
#    0.000    0.000    5.714    2.571    4.000    6.857 
#    0.000    0.000    0.000    0.000    0.000    0.000 
#    0.000    0.000    0.000    0.000    0.000    0.000 
#
# Total GULP energy -156870.151090 kJ/mol
# GULP energy per Si atom -5602.505396 kJ/mol
# Density = 2.331121 g / cm^3
# Si number density = 23.364386 Si / 1000 Ang^3
#
#
#
# Elastic Constant Matrix: (Units=GPa)
#
#
# Indices 1 2 3 4 5 6 
#
# 1 206.3404 53.9610 84.5953 0.0000 0.0000 0.0000
# 2 53.9610 136.5402 46.3484 0.0000 0.0000 0.0000
# 3 84.5953 46.3484 143.6593 -0.0001 0.0000 0.0000
# 4 0.0000 0.0000 -0.0001 40.2162 0.0000 0.0000
# 5 0.0000 0.0000 0.0000 0.0000 43.4191 0.0000
# 6 0.0000 0.0000 0.0000 0.0000 0.0000 14.1658
#
#
#
# Elastic Compliance Matrix: (Units=1/GPa)
#
#
# Indices 1 2 3 4 5 6 
#
# 1 0.006637 -0.001456 -0.003438 0.000000 0.000000 0.000000
# 2 -0.001456 0.008544 -0.001899 0.000000 0.000000 0.000000
# 3 -0.003438 -0.001899 0.009598 0.000000 0.000000 0.000000
# 4 0.000000 0.000000 0.000000 0.024866 0.000000 0.000000
# 5 0.000000 0.000000 0.000000 0.000000 0.023031 0.000000
# 6 0.000000 0.000000 0.000000 0.000000 0.000000 0.070592
#
#
# Mechanical properties :
#
#
# Convention : Reuss Voigt Hill
#
# Bulk Modulus (GPa) = 89.34815 95.14993 92.24904
# Shear Modulus (GPa) = 31.13597 39.66924 35.40261
#
# Velocity S-wave (km/s) = 3.65447 4.12497 3.89683
# Velocity P-wave (km/s) = 7.49207 7.96868 7.73405
#
# Compressibility (1/GPa) = 0.01119217
#
# Stress axis : x y z
#
# Youngs Moduli (GPa) = 150.67627 117.04337 104.18337
#
# Poissons Ratio (x) = 0.17038 0.35823
# Poissons Ratio (y) = 0.21933 0.19787
# Poissons Ratio (z) = 0.51810 0.22230
#
# Static dielectric constant tensor:
#      x y z
#    x 1.694680 0.000000 0.000000 
#    y 0.000000 1.909640 0.000000 
#    z 0.000000 0.000000 1.652050 
# 
# From -- ./inp_files/4430.got.cif
#   From: 2010.05.17/outbox.cif.g08.bks.cpg/sg73_3_cif.got.tgz:4430.got - 2010.06.03 17:35:07.
