data_PCOD9533896
_publ_section_title
;
Structure prediction by ZEFSAII (Michael W. Deem and Ramdas Pophale) SiO2 
 PCOD9533896
Probable space group: I M M A
;
_chemical_formula_sum "Si O2"
_cell_formula_units_Z 84
_cell_length_a 23.336494
_cell_length_b 22.906105
_cell_length_c 8.109957
_cell_angle_alpha 90.000000
_cell_angle_beta 90.000000
_cell_angle_gamma 90.000000
_cell_volume 4335.162770
_symmetry_space_group_name_H-M "I M M A"
_symmetry_group_IT_number 74
_symmetry_cell_setting 'orthorhombic'
loop_
_space_group_symop_operation_xyz
x,y,z
-x,1/2-y,z
x,-y,-z
-x,1/2+y,-z
-x,-y,-z
x,1/2+y,-z
-x,y,z
x,1/2-y,z
1/2+x,1/2+y,1/2+z
1/2-x,-y,1/2+z
1/2+x,1/2-y,1/2-z
1/2-x,y,1/2-z
1/2-x,1/2-y,1/2-z
1/2+x,y,1/2-z
1/2-x,1/2+y,1/2+z
1/2+x,-y,1/2+z
loop_
_atom_site_type_symbol
_atom_site_label
_atom_site_fract_x
_atom_site_fract_y
_atom_site_fract_z
Si Si1 0.567943 0.318879 0.069048
Si Si2 0.622871 0.877172 0.250274
Si Si3 0.931492 0.379819 0.083001
Si Si4 0.000000 0.000000 0.500000
Si Si5 0.750000 0.591830 0.250000
Si Si6 0.893582 0.016168 0.271904
Si Si7 0.209174 0.500000 0.500000
O O1 0.500000 0.327975 0.042665
O O2 0.579605 0.250000 0.064941
O O3 0.581338 0.343605 0.250863
O O4 0.599929 0.350142 0.918729
O O5 0.593279 0.852903 0.415011
O O6 0.691335 0.872923 0.257747
O O7 0.607509 0.946392 0.250237
O O8 0.902028 0.442596 0.116020
O O9 0.000000 0.386188 0.065047
O O10 0.949292 0.028385 0.383609
O O11 0.754504 0.548570 0.406982
O O12 0.834574 0.028981 0.368305
#
# Coordination Sequence:
#
# PCOD9533896 Si02
#       7
#    16  16  16   4   8  16   8
#     4  10  23  43  64  87 120 158 199 250 308 365
#     4  11  24  38  60  89 121 162 201 246 298 354
#     4  11  22  35  60  93 121 152 193 246 304 370
#     4  10  16  28  50  72 122 158 178 216 292 362
#     4  10  22  38  55  84 120 166 209 248 286 344
#     4  10  20  32  53  88 122 159 187 234 306 372
#     4   9  20  33  52  74 117 170 203 234 282 356
#
# _framework density 19.376434
#
# number of rings (size 3 to 8) (size 9 to 14) (size 15 to 20)
#    0.000    1.714    0.952    4.571   10.667    1.524 
#    0.000    2.381    0.000    1.143    0.000    0.000 
#    0.000    0.000    0.000    0.000    0.000    0.000 
#
# Total GULP energy -234067.320591 kJ/mol
# GULP energy per Si atom -5573.031443 kJ/mol
# Density = 1.933233 g / cm^3
# Si number density = 19.376434 Si / 1000 Ang^3
#
#
#
# Elastic Constant Matrix: (Units=GPa)
#
#
# Indices 1 2 3 4 5 6 
#
# 1 79.4997 50.7368 61.6944 0.0000 0.0000 0.0000
# 2 50.7368 65.2841 43.5812 0.0000 0.0000 0.0000
# 3 61.6944 43.5812 144.3481 0.0000 0.0000 0.0000
# 4 0.0000 0.0000 0.0000 13.0583 0.0000 0.0000
# 5 0.0000 0.0000 0.0000 0.0000 9.5511 0.0000
# 6 0.0000 0.0000 0.0000 0.0000 0.0000 28.4766
#
#
#
# Elastic Compliance Matrix: (Units=1/GPa)
#
#
# Indices 1 2 3 4 5 6 
#
# 1 0.029984 -0.018470 -0.007239 0.000000 0.000000 0.000000
# 2 -0.018470 0.030562 -0.001333 0.000000 0.000000 0.000000
# 3 -0.007239 -0.001333 0.010424 0.000000 0.000000 0.000000
# 4 0.000000 0.000000 0.000000 0.076580 0.000000 0.000000
# 5 0.000000 0.000000 0.000000 0.000000 0.104700 0.000000
# 6 0.000000 0.000000 0.000000 0.000000 0.000000 0.035117
#
#
# Mechanical properties :
#
#
# Convention : Reuss Voigt Hill
#
# Bulk Modulus (GPa) = 59.22052 66.79518 63.00785
# Shear Modulus (GPa) = 14.40594 19.09182 16.74888
#
# Velocity S-wave (km/s) = 2.72964 3.14237 2.94325
# Velocity P-wave (km/s) = 6.36899 6.90748 6.64369
#
# Compressibility (1/GPa) = 0.01688604
#
# Stress axis : x y z
#
# Youngs Moduli (GPa) = 33.35136 32.72029 95.93306
#
# Poissons Ratio (x) = 0.60435 0.69442
# Poissons Ratio (y) = 0.61601 0.12788
# Poissons Ratio (z) = 0.24142 0.04362
#
# Static dielectric constant tensor:
#      x y z
#    x 1.660430 0.000000 0.000000 
#    y 0.000000 1.708210 0.000000 
#    z 0.000000 0.000000 1.755350 
# 
# From -- ./inp_files/13867.got.cif
#   From: 2010.05.17/outbox.cif.g08.bks.cpg/sg74_7_cif.got.tgz:13867.got - 2010.06.03 17:57:02.
