data_PCOD9533937
_publ_section_title
;
Structure prediction by ZEFSAII (Michael W. Deem and Ramdas Pophale) SiO2 
 PCOD9533937
Probable space group: I M M A
;
_chemical_formula_sum "Si O2"
_cell_formula_units_Z 64
_cell_length_a 16.804988
_cell_length_b 22.531279
_cell_length_c 7.162123
_cell_angle_alpha 90.000000
_cell_angle_beta 90.000000
_cell_angle_gamma 90.000000
_cell_volume 2711.851020
_symmetry_space_group_name_H-M "I M M A"
_symmetry_group_IT_number 74
_symmetry_cell_setting 'orthorhombic'
loop_
_space_group_symop_operation_xyz
x,y,z
-x,1/2-y,z
x,-y,-z
-x,1/2+y,-z
-x,-y,-z
x,1/2+y,-z
-x,y,z
x,1/2-y,z
1/2+x,1/2+y,1/2+z
1/2-x,-y,1/2+z
1/2+x,1/2-y,1/2-z
1/2-x,y,1/2-z
1/2-x,1/2-y,1/2-z
1/2+x,y,1/2-z
1/2-x,1/2+y,1/2+z
1/2+x,-y,1/2+z
loop_
_atom_site_type_symbol
_atom_site_label
_atom_site_fract_x
_atom_site_fract_y
_atom_site_fract_z
Si Si1 0.341152 0.061626 0.794111
Si Si2 0.906465 0.185774 0.680295
Si Si3 0.094899 0.559962 0.715349
Si Si4 0.593770 0.685825 0.727491
O O1 0.250000 0.051139 0.750000
O O2 0.365332 0.128045 0.738368
O O3 0.388813 0.005894 0.709680
O O4 0.361194 0.061020 0.015254
O O5 0.875665 0.250000 0.742653
O O6 0.901532 0.185384 0.454241
O O7 0.000000 0.182291 0.724588
O O8 0.122925 0.619463 0.822812
O O9 0.000000 0.565868 0.683329
O O10 0.500000 0.687602 0.677443
O O11 0.628780 0.750000 0.668203
#
# Coordination Sequence:
#
# PCOD9533937 Si02
#       4
#    16  16  16  16
#     4  10  17  23  35  57  81 103 125 159 197 223
#     4   8  13  22  35  51  73 100 127 151 179 225
#     4   9  16  28  43  57  75 103 136 159 183 230
#     4   7  10  18  35  56  72  88 117 157 189 212
#
# _framework density 23.600114999999999
#
# number of rings (size 3 to 8) (size 9 to 14) (size 15 to 20)
#    0.000    3.500    0.000    6.000    0.000    0.500 
#    0.000    0.000    0.000    0.750    0.000   31.500 
#    0.000    0.000    0.000   27.000    0.000    6.000 
#
# Total GULP energy -178357.373666 kJ/mol
# GULP energy per Si atom -5573.667927 kJ/mol
# Density = 2.354640 g / cm^3
# Si number density = 23.600115 Si / 1000 Ang^3
#
#
#
# Elastic Constant Matrix: (Units=GPa)
#
#
# Indices 1 2 3 4 5 6 
#
# 1 55.6488 18.7853 0.5945 0.0000 0.0000 0.0000
# 2 18.7853 257.6700 -15.9278 0.0000 0.0000 0.0000
# 3 0.5945 -15.9278 96.2635 0.0000 0.0000 0.0000
# 4 0.0000 0.0000 0.0000 -26.6164 0.0000 0.0000
# 5 0.0000 0.0000 0.0000 0.0000 -58.1579 0.0000
# 6 0.0000 0.0000 0.0000 0.0000 0.0000 50.4752
#
#
#
# Elastic Compliance Matrix: (Units=1/GPa)
#
#
# Indices 1 2 3 4 5 6 
#
# 1 0.018434 -0.001365 -0.000340 0.000000 0.000000 0.000000
# 2 -0.001365 0.004022 0.000674 0.000000 0.000000 0.000000
# 3 -0.000340 0.000674 0.010502 0.000000 0.000000 0.000000
# 4 0.000000 0.000000 0.000000 -0.037571 0.000000 0.000000
# 5 0.000000 0.000000 0.000000 0.000000 -0.017195 0.000000
# 6 0.000000 0.000000 0.000000 0.000000 0.000000 0.019812
#
#
# Mechanical properties :
#
#
# Convention : Reuss Voigt Hill
#
# Bulk Modulus (GPa) = 32.36593 46.27626 39.32110
# Shear Modulus (GPa) = 482.40346 20.21553 251.30949
#
# Velocity S-wave (km/s) = 14.31262 2.92992 10.33043
# Velocity P-wave (km/s) = 16.93750 5.57647 12.60904
#
# Compressibility (1/GPa) = 0.03089669
#
# Stress axis : x y z
#
# Youngs Moduli (GPa) = 54.24689 248.62624 95.22214
#
# Poissons Ratio (x) = 0.33936 0.03235
# Poissons Ratio (y) = 0.07404 -0.06417
# Poissons Ratio (z) = 0.01843 -0.16756
#
# Static dielectric constant tensor:
#      x y z
#    x 1.795930 0.000000 0.000000 
#    y 0.000000 2.029920 0.000000 
#    z 0.000000 0.000000 1.920500 
# 
# From -- ./inp_files/8772.got.cif
#   From: 2010.05.17/outbox.cif.g08.bks.cpg/sg74_5_cif.got.tgz:8772.got - 2010.06.03 17:57:02.
