data_PCOD9533635
_publ_section_title
;
Structure prediction by ZEFSAII (Michael W. Deem and Ramdas Pophale) SiO2 
 PCOD9533635
Probable space group: I B C A 
;
_chemical_formula_sum "Si O2"
_cell_formula_units_Z 72
_cell_length_a 11.298003
_cell_length_b 14.637047
_cell_length_c 17.934299
_cell_angle_alpha 90.000000
_cell_angle_beta 90.000000
_cell_angle_gamma 90.000000
_cell_volume 2965.784281
_symmetry_space_group_name_H-M "I B C A "
_symmetry_group_IT_number 73
_symmetry_cell_setting 'orthorhombic'
loop_
_space_group_symop_operation_xyz
x,y,z
-x,1/2-y,z
x,-y,1/2-z
1/2-x,y,-z
-x,-y,-z
x,1/2+y,-z
-x,y,1/2+z
1/2+x,-y,z
1/2+x,1/2+y,1/2+z
1/2-x,-y,1/2+z
1/2+x,1/2-y,-z
-x,1/2+y,1/2-z
1/2-x,1/2-y,1/2-z
1/2+x,y,1/2-z
1/2-x,1/2+y,z
x,1/2-y,1/2+z
loop_
_atom_site_type_symbol
_atom_site_label
_atom_site_fract_x
_atom_site_fract_y
_atom_site_fract_z
Si Si1 0.426632 0.141347 0.694701
Si Si2 0.750000 0.917389 0.500000
Si Si3 0.000000 0.250000 0.676878
Si Si4 0.760395 0.748757 0.609189
Si Si5 0.763324 0.500000 0.750000
Si Si6 0.121694 0.562549 0.096154
O O1 0.503810 0.162136 0.768546
O O2 0.358477 0.234819 0.673260
O O3 0.493164 0.096431 0.624189
O O4 0.322197 0.080232 0.725195
O O5 0.776492 0.842533 0.563669
O O6 0.648658 0.984868 0.534168
O O7 0.122755 0.256576 0.631800
O O8 0.804968 0.653763 0.574732
O O9 0.830896 0.474313 0.824805
#
# Coordination Sequence:
#
# PCOD9533635 Si02
#       6
#    16   8   8  16   8  16
#     4  12  24  44  79 112 147 189 255 331 392 457
#     4  12  30  50  68 108 158 212 254 304 392 490
#     4  12  24  46  82 110 146 196 254 330 398 458
#     4  12  26  51  71 110 152 201 254 311 397 476
#     4  12  24  44  74 120 142 190 266 324 396 454
#     4  12  26  48  77 110 152 199 259 325 394 468
#
# _framework density 24.276883999999999
#
# number of rings (size 3 to 8) (size 9 to 14) (size 15 to 20)
#    0.000    0.000    6.667    3.333    3.111    0.889 
#    8.000    0.000    0.000    0.000    0.000    0.000 
#    0.000    0.000    0.000    0.000    0.000    0.000 
#
# Total GULP energy -200956.055679 kJ/mol
# GULP energy per Si atom -5582.112658 kJ/mol
# Density = 2.422163 g / cm^3
# Si number density = 24.276884 Si / 1000 Ang^3
#
#
#
# Elastic Constant Matrix: (Units=GPa)
#
#
# Indices 1 2 3 4 5 6 
#
# 1 100.9106 7.5456 47.7861 0.0000 0.0000 0.0000
# 2 7.5456 122.1072 33.9882 0.0000 0.0000 0.0000
# 3 47.7861 33.9882 84.6979 0.0000 0.0000 0.0000
# 4 0.0000 0.0000 0.0000 45.3190 0.0000 0.0000
# 5 0.0000 0.0000 0.0000 0.0000 17.7500 0.0000
# 6 0.0000 0.0000 0.0000 0.0000 0.0000 84.4721
#
#
#
# Elastic Compliance Matrix: (Units=1/GPa)
#
#
# Indices 1 2 3 4 5 6 
#
# 1 0.013755 0.001475 -0.008352 0.000000 0.000000 0.000000
# 2 0.001475 0.009377 -0.004595 0.000000 0.000000 0.000000
# 3 -0.008352 -0.004595 0.018363 0.000000 0.000000 0.000000
# 4 0.000000 0.000000 0.000000 0.022066 0.000000 0.000000
# 5 0.000000 0.000000 0.000000 0.000000 0.056338 0.000000
# 6 0.000000 0.000000 0.000000 0.000000 0.000000 0.011838
#
#
# Mechanical properties :
#
#
# Convention : Reuss Voigt Hill
#
# Bulk Modulus (GPa) = 53.90817 54.03949 53.97383
# Shear Modulus (GPa) = 31.08191 44.06792 37.57492
#
# Velocity S-wave (km/s) = 3.58202 4.26516 3.93843
# Velocity P-wave (km/s) = 6.27388 6.82374 6.55458
#
# Compressibility (1/GPa) = 0.01855007
#
# Stress axis : x y z
#
# Youngs Moduli (GPa) = 72.70288 106.63898 54.45774
#
# Poissons Ratio (x) = -0.15727 0.45484
# Poissons Ratio (y) = -0.10722 0.25024
# Poissons Ratio (z) = 0.60722 0.49002
#
# Static dielectric constant tensor:
#      x y z
#    x 2.086110 0.000000 0.000000 
#    y 0.000000 1.729280 0.000000 
#    z 0.000000 0.000000 2.561420 
# 
# From -- ./inp_files/25274.got.cif
#   From: 2010.05.17/outbox.cif.g08.bks.cpg/sg73_13_cif.got.tgz:25274.got - 2010.06.03 17:35:07.
