data_PCOD9533471
_publ_section_title
;
Structure prediction by ZEFSAII (Michael W. Deem and Ramdas Pophale) SiO2 
 PCOD9533471
Probable space group: I B C A 
;
_chemical_formula_sum "Si O2"
_cell_formula_units_Z 72
_cell_length_a 9.347260
_cell_length_b 19.184652
_cell_length_c 15.473977
_cell_angle_alpha 90.000000
_cell_angle_beta 90.000000
_cell_angle_gamma 90.000000
_cell_volume 2774.854372
_symmetry_space_group_name_H-M "I B C A "
_symmetry_group_IT_number 73
_symmetry_cell_setting 'orthorhombic'
loop_
_space_group_symop_operation_xyz
x,y,z
-x,1/2-y,z
x,-y,1/2-z
1/2-x,y,-z
-x,-y,-z
x,1/2+y,-z
-x,y,1/2+z
1/2+x,-y,z
1/2+x,1/2+y,1/2+z
1/2-x,-y,1/2+z
1/2+x,1/2-y,-z
-x,1/2+y,1/2-z
1/2-x,1/2-y,1/2-z
1/2+x,y,1/2-z
1/2-x,1/2+y,z
x,1/2-y,1/2+z
loop_
_atom_site_type_symbol
_atom_site_label
_atom_site_fract_x
_atom_site_fract_y
_atom_site_fract_z
Si Si1 0.057970 0.321131 0.018601
Si Si2 0.403860 0.000000 0.750000
Si Si3 0.698394 0.412297 0.909721
Si Si4 0.072919 0.136595 0.793952
Si Si5 0.208450 0.670268 0.644128
O O1 0.174323 0.289688 0.086289
O O2 0.000000 0.250000 0.977242
O O3 0.945452 0.369164 0.069080
O O4 0.128956 0.364382 0.939460
O O5 0.322033 0.966733 0.668181
O O6 0.499422 0.938484 0.787594
O O7 0.823336 0.360348 0.876664
O O8 0.750000 0.444644 0.000000
O O9 0.181811 0.140286 0.714105
O O10 0.932033 0.185832 0.798376
#
# Coordination Sequence:
#
# PCOD9533471 Si02
#       5
#    16   8  16  16  16
#     4  11  26  50  80 114 159 211 267 330 402 482
#     4  12  26  48  78 112 164 204 266 338 394 484
#     4  12  26  49  79 115 158 209 268 329 408 484
#     4  12  24  46  74 114 158 206 267 331 393 475
#     4  11  24  46  78 111 161 202 268 331 394 475
#
# _framework density 25.947306999999999
#
# number of rings (size 3 to 8) (size 9 to 14) (size 15 to 20)
#    0.000    0.444    6.667    0.667    3.111    0.889 
#    4.000   10.000    0.000    0.000    0.000    0.000 
#    0.000    0.000    0.000    0.000    0.000    0.000 
#
# Total GULP energy -200549.145078 kJ/mol
# GULP energy per Si atom -5570.809585 kJ/mol
# Density = 2.588825 g / cm^3
# Si number density = 25.947307 Si / 1000 Ang^3
#
#
#
# Elastic Constant Matrix: (Units=GPa)
#
#
# Indices 1 2 3 4 5 6 
#
# 1 195.8173 48.6499 86.0852 0.0000 0.0000 0.0000
# 2 48.6499 69.0252 59.4726 0.0000 0.0000 0.0000
# 3 86.0852 59.4726 188.0071 0.0000 0.0000 0.0000
# 4 0.0000 0.0000 0.0000 14.5767 0.0000 0.0000
# 5 0.0000 0.0000 0.0000 0.0000 76.6241 0.0000
# 6 0.0000 0.0000 0.0000 0.0000 0.0000 70.4996
#
#
#
# Elastic Compliance Matrix: (Units=1/GPa)
#
#
# Indices 1 2 3 4 5 6 
#
# 1 0.006791 -0.002897 -0.002193 0.000000 0.000000 0.000000
# 2 -0.002897 0.021151 -0.005364 0.000000 0.000000 0.000000
# 3 -0.002193 -0.005364 0.008020 0.000000 0.000000 0.000000
# 4 0.000000 0.000000 0.000000 0.068602 0.000000 0.000000
# 5 0.000000 0.000000 0.000000 0.000000 0.013051 0.000000
# 6 0.000000 0.000000 0.000000 0.000000 0.000000 0.014184
#
#
# Mechanical properties :
#
#
# Convention : Reuss Voigt Hill
#
# Bulk Modulus (GPa) = 66.42933 93.47388 79.95161
# Shear Modulus (GPa) = 31.70071 49.58289 40.64180
#
# Velocity S-wave (km/s) = 3.49912 4.37613 3.96197
# Velocity P-wave (km/s) = 6.47938 7.85091 7.19789
#
# Compressibility (1/GPa) = 0.01505359
#
# Stress axis : x y z
#
# Youngs Moduli (GPa) = 147.26424 47.27891 124.68771
#
# Poissons Ratio (x) = 0.13695 0.27344
# Poissons Ratio (y) = 0.42656 0.66888
# Poissons Ratio (z) = 0.32295 0.25363
#
# Static dielectric constant tensor:
#      x y z
#    x 2.111230 0.000000 0.000000 
#    y 0.000000 2.049550 0.000000 
#    z 0.000000 0.000000 2.073050 
# 
# From -- ./inp_files/15506.got.cif
#   From: 2010.05.17/outbox.cif.g08.bks.cpg/sg73_8_cif.got.tgz:15506.got - 2010.06.03 17:35:07.
