data_PCOD9533582
_publ_section_title
;
Structure prediction by ZEFSAII (Michael W. Deem and Ramdas Pophale) SiO2 
 PCOD9533582
Probable space group: I B C A 
;
_chemical_formula_sum "Si O2"
_cell_formula_units_Z 80
_cell_length_a 14.314933
_cell_length_b 12.525157
_cell_length_c 21.265629
_cell_angle_alpha 90.000000
_cell_angle_beta 90.000000
_cell_angle_gamma 90.000000
_cell_volume 3812.858874
_symmetry_space_group_name_H-M "I B C A "
_symmetry_group_IT_number 73
_symmetry_cell_setting 'orthorhombic'
loop_
_space_group_symop_operation_xyz
x,y,z
-x,1/2-y,z
x,-y,1/2-z
1/2-x,y,-z
-x,-y,-z
x,1/2+y,-z
-x,y,1/2+z
1/2+x,-y,z
1/2+x,1/2+y,1/2+z
1/2-x,-y,1/2+z
1/2+x,1/2-y,-z
-x,1/2+y,1/2-z
1/2-x,1/2-y,1/2-z
1/2+x,y,1/2-z
1/2-x,1/2+y,z
x,1/2-y,1/2+z
loop_
_atom_site_type_symbol
_atom_site_label
_atom_site_fract_x
_atom_site_fract_y
_atom_site_fract_z
Si Si1 0.608273 0.959563 0.179118
Si Si2 0.899378 0.871275 0.475689
Si Si3 0.000000 0.750000 0.364157
Si Si4 0.012176 0.125799 0.901490
Si Si5 0.715161 0.951846 0.902205
Si Si6 0.250000 0.711135 0.000000
O O1 0.563829 0.839299 0.171698
O O2 0.714776 0.974995 0.154249
O O3 0.600640 0.000000 0.250000
O O4 0.550706 0.041569 0.135592
O O5 0.937850 0.820113 0.411908
O O6 0.838120 0.784599 0.513184
O O7 0.983285 0.893831 0.524836
O O8 0.825333 0.958341 0.450038
O O9 0.117913 0.100088 0.882928
O O10 0.000000 0.250000 0.887287
O O11 0.772251 0.865439 0.942564
#
# Coordination Sequence:
#
# PCOD9533582 Si02
#       6
#    16  16   8  16  16   8
#     4  12  30  51  74 106 148 208 256 296 358 441
#     4  12  23  42  74 113 149 182 236 313 389 442
#     4  12  24  50  74 106 150 192 242 314 374 440
#     4  12  25  46  76 112 150 193 242 309 382 445
#     4  12  25  43  71 109 148 191 246 304 367 441
#     4  12  20  38  68 110 152 178 226 310 380 446
#
# _framework density 20.981632000000001
#
# number of rings (size 3 to 8) (size 9 to 14) (size 15 to 20)
#    0.000    0.000    7.000    3.600    1.400    0.800 
#    0.000    2.000    0.000    0.000    0.000    0.000 
#    0.000    0.000    0.000    0.000    0.000    0.000 
#
# Total GULP energy -223156.164971 kJ/mol
# GULP energy per Si atom -5578.904124 kJ/mol
# Density = 2.093388 g / cm^3
# Si number density = 20.981632 Si / 1000 Ang^3
#
#
#
# Elastic Constant Matrix: (Units=GPa)
#
#
# Indices 1 2 3 4 5 6 
#
# 1 128.2637 60.3787 42.3858 0.0000 0.0000 0.0000
# 2 60.3787 120.7955 41.2273 0.0000 0.0000 0.0000
# 3 42.3858 41.2273 86.9865 0.0000 0.0000 0.0000
# 4 0.0000 0.0000 0.0000 24.9845 0.0000 0.0000
# 5 0.0000 0.0000 0.0000 0.0000 -14.6193 0.0000
# 6 0.0000 0.0000 0.0000 0.0000 0.0000 29.2208
#
#
#
# Elastic Compliance Matrix: (Units=1/GPa)
#
#
# Indices 1 2 3 4 5 6 
#
# 1 0.010920 -0.004345 -0.003261 0.000000 0.000000 0.000000
# 2 -0.004345 0.011605 -0.003383 0.000000 0.000000 0.000000
# 3 -0.003261 -0.003383 0.014689 0.000000 0.000000 0.000000
# 4 0.000000 0.000000 0.000000 0.040025 0.000000 0.000000
# 5 0.000000 0.000000 0.000000 0.000000 -0.068403 0.000000
# 6 0.000000 0.000000 0.000000 0.000000 0.000000 0.034222
#
#
# Mechanical properties :
#
#
# Convention : Reuss Voigt Hill
#
# Bulk Modulus (GPa) = 65.64155 69.33660 67.48908
# Shear Modulus (GPa) = 71.31226 20.72079 46.01653
#
# Velocity S-wave (km/s) = 5.83624 3.14597 4.68822
# Velocity P-wave (km/s) = 8.76178 6.80546 7.84484
#
# Compressibility (1/GPa) = 0.01523425
#
# Stress axis : x y z
#
# Youngs Moduli (GPa) = 91.57894 86.17097 68.07993
#
# Poissons Ratio (x) = 0.37441 0.22204
# Poissons Ratio (y) = 0.39790 0.23031
# Poissons Ratio (z) = 0.29868 0.29151
#
# Static dielectric constant tensor:
#      x y z
#    x 1.797380 0.000000 0.000000 
#    y 0.000000 1.840170 0.000000 
#    z 0.000000 0.000000 1.729310 
# 
# From -- ./inp_files/26399.got.cif
#   From: 2010.05.17/outbox.cif.g08.bks.cpg/sg73_14_cif.got.tgz:26399.got - 2010.06.03 17:35:07.
