data_PCOD9533799
_publ_section_title
;
Structure prediction by ZEFSAII (Michael W. Deem and Ramdas Pophale) SiO2 
 PCOD9533799
Probable space group: I M M A
;
_chemical_formula_sum "Si O2"
_cell_formula_units_Z 104
_cell_length_a 22.058969
_cell_length_b 29.105550
_cell_length_c 6.971448
_cell_angle_alpha 90.000000
_cell_angle_beta 90.000000
_cell_angle_gamma 90.000000
_cell_volume 4475.937495
_symmetry_space_group_name_H-M "I M M A"
_symmetry_group_IT_number 74
_symmetry_cell_setting 'orthorhombic'
loop_
_space_group_symop_operation_xyz
x,y,z
-x,1/2-y,z
x,-y,-z
-x,1/2+y,-z
-x,-y,-z
x,1/2+y,-z
-x,y,z
x,1/2-y,z
1/2+x,1/2+y,1/2+z
1/2-x,-y,1/2+z
1/2+x,1/2-y,1/2-z
1/2-x,y,1/2-z
1/2-x,1/2-y,1/2-z
1/2+x,y,1/2-z
1/2-x,1/2+y,1/2+z
1/2+x,-y,1/2+z
loop_
_atom_site_type_symbol
_atom_site_label
_atom_site_fract_x
_atom_site_fract_y
_atom_site_fract_z
Si Si1 0.188374 0.699594 0.684394
Si Si2 0.127055 0.199577 0.903483
Si Si3 0.500000 0.699153 0.588847
Si Si4 0.500000 0.055079 0.494502
Si Si5 0.631859 0.597615 0.468338
Si Si6 0.131245 0.884557 0.564409
Si Si7 0.757872 0.553595 0.525444
Si Si8 0.000000 0.612366 0.619943
O O1 0.203478 0.750000 0.606322
O O2 0.250000 0.675081 0.750000
O O3 0.153649 0.704691 0.881990
O O4 0.151166 0.668241 0.543623
O O5 0.140577 0.250000 0.808694
O O6 0.056259 0.196312 0.946960
O O7 0.143355 0.146364 0.860515
O O8 0.500000 0.750000 0.682478
O O9 0.500000 0.659084 0.748309
O O10 0.434761 0.075111 0.571926
O O11 0.500000 0.071207 0.272802
O O12 0.500000 0.000000 0.500000
O O13 0.629805 0.607415 0.701214
O O14 0.692536 0.567255 0.437491
O O15 0.182292 0.917076 0.476813
O O16 0.062065 0.890199 0.503354
O O17 0.769668 0.500000 0.500000
O O18 0.750000 0.562069 0.750000
#
# Coordination Sequence:
#
# PCOD9533799 Si02
#       8
#    16  16   8   8  16  16  16   8
#     4   9  14  19  30  51  78 108 137 167 208 259
#     4   9  14  20  32  51  78 109 138 165 201 257
#     4  10  14  20  34  53  81 117 148 166 202 269
#     4  10  16  22  34  53  77 108 146 181 211 248
#     4   9  15  26  39  58  84 111 141 178 217 264
#     4   9  16  26  40  56  81 111 144 182 217 263
#     4  10  20  33  48  64  85 115 150 187 226 268
#     4  10  16  26  37  54  78 111 149 181 216 263
#
# _framework density 23.235354000000001
#
# number of rings (size 3 to 8) (size 9 to 14) (size 15 to 20)
#    0.000    2.615    4.615    2.769    0.000    0.000 
#    0.000    0.385    0.000    0.000    0.000    0.000 
#    0.000    2.462    0.000    0.000    0.000   10.462 
#
# Total GULP energy -289750.646053 kJ/mol
# GULP energy per Si atom -5572.127809 kJ/mol
# Density = 2.318247 g / cm^3
# Si number density = 23.235354 Si / 1000 Ang^3
#
#
#
# Elastic Constant Matrix: (Units=GPa)
#
#
# Indices 1 2 3 4 5 6 
#
# 1 163.1812 74.7596 3.2392 0.0000 0.0000 0.0000
# 2 74.7596 201.2417 9.6914 0.0000 0.0000 0.0000
# 3 3.2392 9.6914 65.9109 0.0000 0.0000 0.0000
# 4 0.0000 0.0000 0.0000 13.2599 0.0000 0.0000
# 5 0.0000 0.0000 0.0000 0.0000 -19.2524 0.0000
# 6 0.0000 0.0000 0.0000 0.0000 0.0000 32.4678
#
#
#
# Elastic Compliance Matrix: (Units=1/GPa)
#
#
# Indices 1 2 3 4 5 6 
#
# 1 0.007385 -0.002745 0.000041 0.000000 0.000000 0.000000
# 2 -0.002745 0.006025 -0.000751 0.000000 0.000000 0.000000
# 3 0.000041 -0.000751 0.015280 0.000000 0.000000 0.000000
# 4 0.000000 0.000000 0.000000 0.075416 0.000000 0.000000
# 5 0.000000 0.000000 0.000000 0.000000 -0.051942 0.000000
# 6 0.000000 0.000000 0.000000 0.000000 0.000000 0.030800
#
#
# Mechanical properties :
#
#
# Convention : Reuss Voigt Hill
#
# Bulk Modulus (GPa) = 45.91510 67.30157 56.60833
# Shear Modulus (GPa) = 51.47439 28.13797 39.80618
#
# Velocity S-wave (km/s) = 4.71185 3.48372 4.14354
# Velocity P-wave (km/s) = 7.02893 6.72382 6.87807
#
# Compressibility (1/GPa) = 0.02177933
#
# Stress axis : x y z
#
# Youngs Moduli (GPa) = 135.40665 165.96846 65.44320
#
# Poissons Ratio (x) = 0.45566 -0.00267
# Poissons Ratio (y) = 0.37176 0.04915
# Poissons Ratio (z) = -0.00552 0.12464
#
# Static dielectric constant tensor:
#      x y z
#    x 1.810430 0.000000 0.000000 
#    y 0.000000 1.933800 0.000000 
#    z 0.000000 0.000000 1.930930 
# 
# From -- ./inp_files/25705.got.cif
#   From: 2010.05.17/outbox.cif.g08.bks.cpg/sg74_13_cif.got.tgz:25705.got - 2010.06.03 17:57:02.
