data_PCOD9533803
_publ_section_title
;
Structure prediction by ZEFSAII (Michael W. Deem and Ramdas Pophale) SiO2 
 PCOD9533803
Probable space group: I M M A
;
_chemical_formula_sum "Si O2"
_cell_formula_units_Z 64
_cell_length_a 24.326692
_cell_length_b 16.197574
_cell_length_c 7.230856
_cell_angle_alpha 90.000000
_cell_angle_beta 90.000000
_cell_angle_gamma 90.000000
_cell_volume 2849.198730
_symmetry_space_group_name_H-M "I M M A"
_symmetry_group_IT_number 74
_symmetry_cell_setting 'orthorhombic'
loop_
_space_group_symop_operation_xyz
x,y,z
-x,1/2-y,z
x,-y,-z
-x,1/2+y,-z
-x,-y,-z
x,1/2+y,-z
-x,y,z
x,1/2-y,z
1/2+x,1/2+y,1/2+z
1/2-x,-y,1/2+z
1/2+x,1/2-y,1/2-z
1/2-x,y,1/2-z
1/2-x,1/2-y,1/2-z
1/2+x,y,1/2-z
1/2-x,1/2+y,1/2+z
1/2+x,-y,1/2+z
loop_
_atom_site_type_symbol
_atom_site_label
_atom_site_fract_x
_atom_site_fract_y
_atom_site_fract_z
Si Si1 0.000000 0.086515 0.621746
Si Si2 0.815126 0.750000 0.284810
Si Si3 0.380571 0.090365 0.788405
Si Si4 0.000000 0.844519 0.764532
Si Si5 0.314580 0.250000 0.224493
Si Si6 0.380374 0.908952 0.759950
O O1 0.054184 0.094659 0.743365
O O2 0.000000 0.155011 0.461231
O O3 0.000000 0.000000 0.500000
O O4 0.750000 0.750000 0.250000
O O5 0.845338 0.666965 0.218988
O O6 0.823985 0.750000 0.505016
O O7 0.361723 0.001471 0.714727
O O8 0.379503 0.090843 0.014191
O O9 0.057453 0.890071 0.806788
O O10 0.000000 0.750000 0.830942
O O11 0.250000 0.250000 0.250000
O O12 0.342391 0.166827 0.298875
#
# Coordination Sequence:
#
# PCOD9533803 Si02
#       6
#     8   8  16   8   8  16
#     4  10  14  22  40  72 100 118 143 191 260 301
#     4  10  22  35  47  63  93 138 171 192 224 282
#     4   9  16  27  43  66  96 124 153 190 241 294
#     4  10  14  20  38  65  99 121 136 173 248 315
#     4  10  20  31  47  69  91 118 161 206 234 266
#     4   9  15  26  42  67  95 120 141 191 245 287
#
# _framework density 22.462456
#
# number of rings (size 3 to 8) (size 9 to 14) (size 15 to 20)
#    0.000    2.500    6.250    0.000    5.250    1.000 
#    0.000    0.000    0.000    0.000    0.000    3.500 
#    0.000    4.000    0.000    0.000    0.000    0.000 
#
# Total GULP energy -178597.437262 kJ/mol
# GULP energy per Si atom -5581.169914 kJ/mol
# Density = 2.241133 g / cm^3
# Si number density = 22.462456 Si / 1000 Ang^3
#
#
#
# Elastic Constant Matrix: (Units=GPa)
#
#
# Indices 1 2 3 4 5 6 
#
# 1 178.9548 134.1875 0.7402 0.0000 0.0000 0.0000
# 2 134.1875 255.1171 9.1027 0.0000 0.0000 0.0000
# 3 0.7402 9.1027 90.3337 0.0000 0.0000 0.0000
# 4 0.0000 0.0000 0.0000 -17.7155 0.0000 0.0000
# 5 0.0000 0.0000 0.0000 0.0000 9.2322 0.0000
# 6 0.0000 0.0000 0.0000 0.0000 0.0000 13.5004
#
#
#
# Elastic Compliance Matrix: (Units=1/GPa)
#
#
# Indices 1 2 3 4 5 6 
#
# 1 0.009243 -0.004876 0.000416 0.000000 0.000000 0.000000
# 2 -0.004876 0.006507 -0.000616 0.000000 0.000000 0.000000
# 3 0.000416 -0.000616 0.011129 0.000000 0.000000 0.000000
# 4 0.000000 0.000000 0.000000 -0.056448 0.000000 0.000000
# 5 0.000000 0.000000 0.000000 0.000000 0.108316 0.000000
# 6 0.000000 0.000000 0.000000 0.000000 0.000000 0.074072
#
#
# Mechanical properties :
#
#
# Convention : Reuss Voigt Hill
#
# Bulk Modulus (GPa) = 59.78986 90.27405 75.03196
# Shear Modulus (GPa) = 29.66535 26.36176 28.01355
#
# Velocity S-wave (km/s) = 3.63804 3.42949 3.53530
# Velocity P-wave (km/s) = 6.65752 7.48051 7.08098
#
# Compressibility (1/GPa) = 0.01672524
#
# Stress axis : x y z
#
# Youngs Moduli (GPa) = 108.19222 153.68901 89.85774
#
# Poissons Ratio (x) = 0.74945 -0.03735
# Poissons Ratio (y) = 0.52759 0.05533
# Poissons Ratio (z) = -0.04497 0.09463
#
# Static dielectric constant tensor:
#      x y z
#    x 1.804400 0.000000 0.000000 
#    y 0.000000 1.849730 0.000000 
#    z 0.000000 0.000000 1.968060 
# 
# From -- ./inp_files/13436.got.cif
#   From: 2010.05.17/outbox.cif.g08.bks.cpg/sg74_7_cif.got.tgz:13436.got - 2010.06.03 17:57:02.
