data_PCOD9533962
_publ_section_title
;
Structure prediction by ZEFSAII (Michael W. Deem and Ramdas Pophale) SiO2 
 PCOD9533962
Probable space group: I M M A
;
_chemical_formula_sum "Si O2"
_cell_formula_units_Z 64
_cell_length_a 17.245774
_cell_length_b 22.193465
_cell_length_c 7.183442
_cell_angle_alpha 90.000000
_cell_angle_beta 90.000000
_cell_angle_gamma 90.000000
_cell_volume 2749.415601
_symmetry_space_group_name_H-M "I M M A"
_symmetry_group_IT_number 74
_symmetry_cell_setting 'orthorhombic'
loop_
_space_group_symop_operation_xyz
x,y,z
-x,1/2-y,z
x,-y,-z
-x,1/2+y,-z
-x,-y,-z
x,1/2+y,-z
-x,y,z
x,1/2-y,z
1/2+x,1/2+y,1/2+z
1/2-x,-y,1/2+z
1/2+x,1/2-y,1/2-z
1/2-x,y,1/2-z
1/2-x,1/2-y,1/2-z
1/2+x,y,1/2-z
1/2-x,1/2+y,1/2+z
1/2+x,-y,1/2+z
loop_
_atom_site_type_symbol
_atom_site_label
_atom_site_fract_x
_atom_site_fract_y
_atom_site_fract_z
Si Si1 0.658543 0.250000 0.720104
Si Si2 0.590769 0.750000 0.695771
Si Si3 0.910454 0.005050 0.226536
Si Si4 0.593301 0.873875 0.299746
Si Si5 0.660156 0.371207 0.282542
O O1 0.750000 0.250000 0.750000
O O2 0.637412 0.250000 0.499837
O O3 0.621650 0.187806 0.792550
O O4 0.500000 0.750000 0.653571
O O5 0.613449 0.687005 0.790084
O O6 0.888055 0.938148 0.293096
O O7 0.000000 0.016685 0.275611
O O8 0.861649 0.062367 0.288679
O O9 0.907730 0.000000 0.000000
O O10 0.500000 0.872170 0.327230
O O11 0.635666 0.874786 0.499979
O O12 0.750000 0.359607 0.250000
#
# Coordination Sequence:
#
# PCOD9533962 Si02
#       5
#     8   8  16  16  16
#     4  10  18  27  44  69  90 109 142 190 236 262
#     4  10  19  33  48  63  88 119 151 182 216 264
#     4   8  14  26  43  61  84 115 147 176 207 250
#     4   9  17  31  48  66  90 119 151 182 215 262
#     4  10  17  25  42  70  97 115 140 182 226 259
#
# _framework density 23.277671999999999
#
# number of rings (size 3 to 8) (size 9 to 14) (size 15 to 20)
#    0.000    2.750    0.000    6.750    0.000    1.000 
#    0.000    0.000    0.000    0.000    0.000   84.000 
#    0.000   97.000    0.000    0.000    0.000    0.000 
#
# Total GULP energy -178637.687959 kJ/mol
# GULP energy per Si atom -5582.427749 kJ/mol
# Density = 2.322469 g / cm^3
# Si number density = 23.277672 Si / 1000 Ang^3
#
#
#
# Elastic Constant Matrix: (Units=GPa)
#
#
# Indices 1 2 3 4 5 6 
#
# 1 138.7437 81.6522 31.2481 0.0000 0.0000 0.0000
# 2 81.6522 243.8495 1.0266 0.0000 0.0000 0.0000
# 3 31.2481 1.0266 102.4007 0.0000 0.0000 0.0000
# 4 0.0000 0.0000 0.0000 -30.0768 0.0000 0.0000
# 5 0.0000 0.0000 0.0000 0.0000 21.6597 0.0000
# 6 0.0000 0.0000 0.0000 0.0000 0.0000 70.0916
#
#
#
# Elastic Compliance Matrix: (Units=1/GPa)
#
#
# Indices 1 2 3 4 5 6 
#
# 1 0.009797 -0.003268 -0.002957 0.000000 0.000000 0.000000
# 2 -0.003268 0.005191 0.000945 0.000000 0.000000 0.000000
# 3 -0.002957 0.000945 0.010658 0.000000 0.000000 0.000000
# 4 0.000000 0.000000 0.000000 -0.033248 0.000000 0.000000
# 5 0.000000 0.000000 0.000000 0.000000 0.046169 0.000000
# 6 0.000000 0.000000 0.000000 0.000000 0.000000 0.014267
#
#
# Mechanical properties :
#
#
# Convention : Reuss Voigt Hill
#
# Bulk Modulus (GPa) = 66.28137 79.20532 72.74334
# Shear Modulus (GPa) = 73.07613 37.07270 55.07442
#
# Velocity S-wave (km/s) = 5.60904 3.99511 4.86941
# Velocity P-wave (km/s) = 8.39551 7.44186 7.93303
#
# Compressibility (1/GPa) = 0.01508720
#
# Stress axis : x y z
#
# Youngs Moduli (GPa) = 102.07544 192.63481 93.82318
#
# Poissons Ratio (x) = 0.62952 0.27741
# Poissons Ratio (y) = 0.33358 -0.08868
# Poissons Ratio (z) = 0.30181 -0.18208
#
# Static dielectric constant tensor:
#      x y z
#    x 1.783450 0.000000 0.000000 
#    y 0.000000 1.978150 0.000000 
#    z 0.000000 0.000000 1.423550 
# 
# From -- ./inp_files/8894.got.cif
#   From: 2010.05.17/outbox.cif.g08.bks.cpg/sg74_5_cif.got.tgz:8894.got - 2010.06.03 17:57:02.
