data_PCOD9533764
_publ_section_title
;
Structure prediction by ZEFSAII (Michael W. Deem and Ramdas Pophale) SiO2 
 PCOD9533764
Probable space group: I B C A 
;
_chemical_formula_sum "Si O2"
_cell_formula_units_Z 48
_cell_length_a 21.000000
_cell_length_b 15.000000
_cell_length_c 15.000000
_cell_angle_alpha 90.000000
_cell_angle_beta 90.000000
_cell_angle_gamma 90.000000
_cell_volume 4725.000000
_symmetry_space_group_name_H-M "I B C A "
_symmetry_group_IT_number 73
_symmetry_cell_setting 'orthorhombic'
loop_
_space_group_symop_operation_xyz
x,y,z
-x,1/2-y,z
x,-y,1/2-z
1/2-x,y,-z
-x,-y,-z
x,1/2+y,-z
-x,y,1/2+z
1/2+x,-y,z
1/2+x,1/2+y,1/2+z
1/2-x,-y,1/2+z
1/2+x,1/2-y,-z
-x,1/2+y,1/2-z
1/2-x,1/2-y,1/2-z
1/2+x,y,1/2-z
1/2-x,1/2+y,z
x,1/2-y,1/2+z
loop_
_atom_site_type_symbol
_atom_site_label
_atom_site_fract_x
_atom_site_fract_y
_atom_site_fract_z
Si Si1 0.213733 0.030737 0.651016
Si Si2 0.195328 0.761376 0.824354
Si Si3 0.166516 0.925253 0.412615
Si Si4 0.909093 0.420750 0.904301
Si Si5 0.953411 0.038487 0.842931
Si Si6 0.428451 0.240555 0.706783
O O1 0.206086 0.137841 0.638879
O O2 0.235022 0.000000 0.750000
O O3 0.271642 0.990168 0.591865
O O4 0.143545 0.985344 0.641980
O O5 0.250000 0.750000 0.750000
O O6 0.194229 0.671612 0.883781
O O7 0.126211 0.754461 0.778721
O O8 0.127789 0.909188 0.503205
O O9 0.108481 0.975717 0.360102
O O10 0.917251 0.322956 0.860524
O O11 0.981933 0.459106 0.903797
O O12 0.927928 0.140717 0.834721
O O13 0.979757 0.000000 0.750000
O O14 0.500000 0.250000 0.744385
#
# Coordination Sequence:
#
# PCOD9533764 Si02
#       6
#    16  16  16  16  16  16
#     4  12  23  41  70  96 133 181 231 278 338 415
#     4  12  23  40  67 100 127 178 234 279 331 411
#     4  12  25  43  66 103 138 175 228 291 348 402
#     4  11  25  43  64 100 143 175 221 288 348 399
#     4  11  22  42  73 100 134 183 230 278 336 420
#     4  10  22  40  66  97 132 176 226 278 334 403
#
# _framework density 10.15873
#
# number of rings (size 3 to 8) (size 9 to 14) (size 15 to 20)
#    0.000    0.667    5.000    3.000    2.333    1.333 
#    0.000    7.500    0.000    0.000    0.000    0.000 
#    0.000    0.000    0.000    0.000    0.000    0.000 
#
# Total GULP energy -267490.061148 kJ/mol
# GULP energy per Si atom -5572.709607 kJ/mol
# Density = 1.013561 g / cm^3
# Si number density = 10.158730 Si / 1000 Ang^3
#
#
#
# Elastic Constant Matrix: (Units=GPa)
#
#
# Indices 1 2 3 4 5 6 
#
# 1 163.3748 68.2553 38.7913 0.0000 0.0000 0.0000
# 2 68.2553 181.9279 49.0992 0.0000 0.0000 0.0000
# 3 38.7913 49.0992 62.0919 0.0000 0.0000 0.0000
# 4 0.0000 0.0000 0.0000 13.5560 0.0000 0.0000
# 5 0.0000 0.0000 0.0000 0.0000 32.1918 0.0000
# 6 0.0000 0.0000 0.0000 0.0000 0.0000 38.7357
#
#
#
# Elastic Compliance Matrix: (Units=1/GPa)
#
#
# Indices 1 2 3 4 5 6 
#
# 1 0.007736 -0.002032 -0.003226 0.000000 0.000000 0.000000
# 2 -0.002032 0.007522 -0.004678 0.000000 0.000000 0.000000
# 3 -0.003226 -0.004678 0.021820 0.000000 0.000000 0.000000
# 4 0.000000 0.000000 0.000000 0.073768 0.000000 0.000000
# 5 0.000000 0.000000 0.000000 0.000000 0.031064 0.000000
# 6 0.000000 0.000000 0.000000 0.000000 0.000000 0.025816
#
#
# Mechanical properties :
#
#
# Convention : Reuss Voigt Hill
#
# Bulk Modulus (GPa) = 58.12338 79.96515 69.04426
# Shear Modulus (GPa) = 25.86214 33.64663 29.75438
#
# Velocity S-wave (km/s) = 3.57165 4.07387 3.83100
# Velocity P-wave (km/s) = 6.75859 7.84677 7.32292
#
# Compressibility (1/GPa) = 0.01720478
#
# Stress axis : x y z
#
# Youngs Moduli (GPa) = 129.27090 132.95218 45.82889
#
# Poissons Ratio (x) = 0.27009 0.14786
# Poissons Ratio (y) = 0.26262 0.21441
# Poissons Ratio (z) = 0.41708 0.62201
#
# Static dielectric constant tensor:
#      x y z
#    x 1.701430 0.000000 0.000000 
#    y 0.000000 1.803030 0.000000 
#    z 0.000000 0.000000 1.865710 
# 
# From -- ./inp_files/18653.got.cif
#   From: 2010.05.17/outbox.ucp.g08.bks.cvg/sg73_10_cif.got.tgz:18653.got - 2010.06.11 16:36:03.
