data_PCOD9533964
_publ_section_title
;
Structure prediction by ZEFSAII (Michael W. Deem and Ramdas Pophale) SiO2 
 PCOD9533964
Probable space group: I M M A
;
_chemical_formula_sum "Si O2"
_cell_formula_units_Z 96
_cell_length_a 15.075577
_cell_length_b 28.587446
_cell_length_c 13.371746
_cell_angle_alpha 90.000000
_cell_angle_beta 90.000000
_cell_angle_gamma 90.000000
_cell_volume 5762.851372
_symmetry_space_group_name_H-M "I M M A"
_symmetry_group_IT_number 74
_symmetry_cell_setting 'orthorhombic'
loop_
_space_group_symop_operation_xyz
x,y,z
-x,1/2-y,z
x,-y,-z
-x,1/2+y,-z
-x,-y,-z
x,1/2+y,-z
-x,y,z
x,1/2-y,z
1/2+x,1/2+y,1/2+z
1/2-x,-y,1/2+z
1/2+x,1/2-y,1/2-z
1/2-x,y,1/2-z
1/2-x,1/2-y,1/2-z
1/2+x,y,1/2-z
1/2-x,1/2+y,1/2+z
1/2+x,-y,1/2+z
loop_
_atom_site_type_symbol
_atom_site_label
_atom_site_fract_x
_atom_site_fract_y
_atom_site_fract_z
Si Si1 0.207936 0.105269 0.016246
Si Si2 0.351313 0.804060 0.771073
Si Si3 0.100676 0.803994 0.957465
Si Si4 0.902531 0.964900 0.094840
Si Si5 0.597239 0.611111 0.901442
Si Si6 0.849587 0.050548 0.214653
O O1 0.170669 0.157696 0.005642
O O2 0.313618 0.103047 0.033958
O O3 0.160352 0.083766 0.116551
O O4 0.173138 0.072931 0.926089
O O5 0.348718 0.750000 0.803222
O O6 0.250000 0.819968 0.750000
O O7 0.397782 0.806544 0.663650
O O8 0.392846 0.837443 0.853055
O O9 0.122724 0.750000 0.982842
O O10 0.000000 0.814193 0.990935
O O11 0.000000 0.942540 0.097511
O O12 0.890375 0.000846 0.185403
O O13 0.900023 0.000000 0.000000
O O14 0.500000 0.605709 0.949131
O O15 0.603064 0.577107 0.804855
O O16 0.750000 0.041922 0.250000
#
# Coordination Sequence:
#
# PCOD9533964 Si02
#       6
#    16  16  16  16  16  16
#     4  10  18  29  40  59  83 110 138 171 206 245
#     4  10  17  26  37  53  79 111 147 182 206 227
#     4  10  18  26  38  56  80 110 141 174 210 242
#     4   9  17  28  45  63  80 104 135 171 210 251
#     4  11  19  27  41  58  81 113 146 177 204 239
#     4   9  17  29  44  61  81 103 133 173 212 247
#
# _framework density 16.65842
#
# number of rings (size 3 to 8) (size 9 to 14) (size 15 to 20)
#    0.000    2.167    3.333    2.000    0.000    2.333 
#    0.000    0.000    0.000   13.500    0.000    0.000 
#    0.000    0.667    0.000    0.000    0.000    0.000 
#
# Total GULP energy -267446.104461 kJ/mol
# GULP energy per Si atom -5571.793843 kJ/mol
# Density = 1.662050 g / cm^3
# Si number density = 16.658420 Si / 1000 Ang^3
#
#
#
# Elastic Constant Matrix: (Units=GPa)
#
#
# Indices 1 2 3 4 5 6 
#
# 1 124.8634 50.3925 10.1812 0.0000 0.0000 0.0000
# 2 50.3925 80.8968 18.6622 0.0000 0.0000 0.0000
# 3 10.1812 18.6622 8.5763 0.0002 0.0000 0.0001
# 4 0.0000 0.0000 0.0002 13.0113 0.0000 0.0000
# 5 0.0000 0.0000 0.0000 0.0000 3.1237 0.0000
# 6 0.0000 0.0000 0.0001 0.0000 0.0000 10.3259
#
#
#
# Elastic Compliance Matrix: (Units=1/GPa)
#
#
# Indices 1 2 3 4 5 6 
#
# 1 0.010754 -0.007538 0.003636 0.000000 0.000000 0.000000
# 2 -0.007538 0.030105 -0.056560 0.000001 0.000000 0.000000
# 3 0.003636 -0.056560 0.235358 -0.000004 -0.000002 -0.000001
# 4 0.000000 0.000001 -0.000004 0.076856 0.000000 0.000000
# 5 0.000000 0.000000 -0.000002 0.000000 0.320135 0.000000
# 6 0.000000 0.000000 -0.000001 0.000000 0.000000 0.096844
#
#
# Mechanical properties :
#
#
# Convention : Reuss Voigt Hill
#
# Bulk Modulus (GPa) = 6.43942 41.42315 23.93129
# Shear Modulus (GPa) = 5.30368 14.29888 9.80128
#
# Velocity S-wave (km/s) = 1.78625 2.93295 2.42826
# Velocity P-wave (km/s) = 2.85100 6.03240 4.71795
#
# Compressibility (1/GPa) = 0.15529344
#
# Stress axis : x y z
#
# Youngs Moduli (GPa) = 92.98456 33.21728 4.24884
#
# Poissons Ratio (x) = 0.25039 -0.01545
# Poissons Ratio (y) = 0.70091 0.24031
# Poissons Ratio (z) = -0.33805 1.87876
#
# Static dielectric constant tensor:
#      x y z
#    x 1.605850 0.000000 0.000000 
#    y 0.000000 1.586580 0.000000 
#    z 0.000000 0.000000 1.539800 
# 
# From -- ./inp_files/33055.got.cif
#   From: 2010.05.17/outbox.cif.g08.bks.cpg/sg74_17_cif.got.tgz:33055.got - 2010.06.03 17:57:02.
