data_PCOD9533954
_publ_section_title
;
Structure prediction by ZEFSAII (Michael W. Deem and Ramdas Pophale) SiO2 
 PCOD9533954
Probable space group: I M M A
;
_chemical_formula_sum "Si O2"
_cell_formula_units_Z 80
_cell_length_a 8.571172
_cell_length_b 28.782492
_cell_length_c 13.725927
_cell_angle_alpha 90.000000
_cell_angle_beta 90.000000
_cell_angle_gamma 90.000000
_cell_volume 3386.181929
_symmetry_space_group_name_H-M "I M M A"
_symmetry_group_IT_number 74
_symmetry_cell_setting 'orthorhombic'
loop_
_space_group_symop_operation_xyz
x,y,z
-x,1/2-y,z
x,-y,-z
-x,1/2+y,-z
-x,-y,-z
x,1/2+y,-z
-x,y,z
x,1/2-y,z
1/2+x,1/2+y,1/2+z
1/2-x,-y,1/2+z
1/2+x,1/2-y,1/2-z
1/2-x,y,1/2-z
1/2-x,1/2-y,1/2-z
1/2+x,y,1/2-z
1/2-x,1/2+y,1/2+z
1/2+x,-y,1/2+z
loop_
_atom_site_type_symbol
_atom_site_label
_atom_site_fract_x
_atom_site_fract_y
_atom_site_fract_z
Si Si1 0.826186 0.590407 0.879106
Si Si2 0.686310 0.301682 0.566395
Si Si3 0.315462 0.602849 0.085952
Si Si4 0.820999 0.317341 0.351063
Si Si5 0.325060 0.501984 0.118921
O O1 0.697353 0.626765 0.844280
O O2 0.795064 0.537481 0.850614
O O3 0.000000 0.605994 0.854238
O O4 0.799736 0.593974 0.995200
O O5 0.500000 0.306570 0.574503
O O6 0.731554 0.250000 0.601007
O O7 0.770084 0.345304 0.618484
O O8 0.732683 0.304237 0.450965
O O9 0.500000 0.603564 0.057405
O O10 0.296708 0.555478 0.146461
O O11 0.750000 0.299621 0.250000
O O12 0.000000 0.304306 0.360690
O O13 0.500000 0.488731 0.149211
O O14 0.325823 0.500000 0.000000
#
# Coordination Sequence:
#
# PCOD9533954 Si02
#       5
#    16  16  16  16  16
#     4  10  17  25  39  58  77  96 120 150 187 230
#     4  10  20  32  44  58  76  98 128 166 204 239
#     4   9  16  26  40  56  75  98 123 152 187 228
#     4  11  21  33  46  57  73  97 128 166 203 238
#     4   8  14  24  37  55  77  98 119 145 181 224
#
# _framework density 23.625429
#
# number of rings (size 3 to 8) (size 9 to 14) (size 15 to 20)
#    0.000    2.400    0.000    8.400    0.000    6.400 
#    0.000    0.000    0.000    0.000    0.000    0.000 
#    0.000    0.000    0.000    0.000    0.000    1.000 
#
# Total GULP energy -223195.001132 kJ/mol
# GULP energy per Si atom -5579.875028 kJ/mol
# Density = 2.357166 g / cm^3
# Si number density = 23.625429 Si / 1000 Ang^3
#
#
#
# Elastic Constant Matrix: (Units=GPa)
#
#
# Indices 1 2 3 4 5 6 
#
# 1 97.2639 50.5602 14.5261 0.0001 0.0000 0.0000
# 2 50.5602 215.7819 -11.7392 0.0000 0.0000 0.0001
# 3 14.5261 -11.7392 37.4594 0.0001 0.0001 0.0002
# 4 0.0001 0.0000 0.0001 -23.0051 0.0000 0.0001
# 5 0.0000 0.0000 0.0001 0.0000 10.4957 0.0000
# 6 0.0000 0.0001 0.0002 0.0001 0.0000 11.9836
#
#
#
# Elastic Compliance Matrix: (Units=1/GPa)
#
#
# Indices 1 2 3 4 5 6 
#
# 1 0.012935 -0.003361 -0.006069 0.000000 0.000000 0.000000
# 2 -0.003361 0.005588 0.003055 0.000000 0.000000 0.000000
# 3 -0.006069 0.003055 0.030006 0.000000 0.000000 -0.000001
# 4 0.000000 0.000000 0.000000 -0.043469 0.000000 0.000000
# 5 0.000000 0.000000 0.000000 0.000000 0.095277 0.000000
# 6 0.000000 0.000000 -0.000001 0.000000 0.000000 0.083448
#
#
# Mechanical properties :
#
#
# Convention : Reuss Voigt Hill
#
# Bulk Modulus (GPa) = 27.95020 50.79996 39.37508
# Shear Modulus (GPa) = 23.98507 19.70535 21.84521
#
# Velocity S-wave (km/s) = 3.18971 2.89117 3.04410
# Velocity P-wave (km/s) = 5.04202 5.71787 5.39055
#
# Compressibility (1/GPa) = 0.03577792
#
# Stress axis : x y z
#
# Youngs Moduli (GPa) = 77.31060 178.95498 33.32626
#
# Poissons Ratio (x) = 0.60146 0.20226
# Poissons Ratio (y) = 0.25984 -0.10180
# Poissons Ratio (z) = 0.46921 -0.54662
#
# Static dielectric constant tensor:
#      x y z
#    x 1.809180 0.000000 0.000000 
#    y 0.000000 1.979040 0.000000 
#    z 0.000000 0.000000 1.995960 
# 
# From -- ./inp_files/49395.got.cif
#   From: 2010.05.17/outbox.cif.g08.bks.cpg/sg74_25_cif.got.tgz:49395.got - 2010.06.03 17:57:02.
