data_PCOD9533576
_publ_section_title
;
Structure prediction by ZEFSAII (Michael W. Deem and Ramdas Pophale) SiO2 
 PCOD9533576
Probable space group: I B C A 
;
_chemical_formula_sum "Si O2"
_cell_formula_units_Z 88
_cell_length_a 11.664740
_cell_length_b 19.514130
_cell_length_c 18.437773
_cell_angle_alpha 90.000000
_cell_angle_beta 90.000000
_cell_angle_gamma 90.000000
_cell_volume 4196.939615
_symmetry_space_group_name_H-M "I B C A "
_symmetry_group_IT_number 73
_symmetry_cell_setting 'orthorhombic'
loop_
_space_group_symop_operation_xyz
x,y,z
-x,1/2-y,z
x,-y,1/2-z
1/2-x,y,-z
-x,-y,-z
x,1/2+y,-z
-x,y,1/2+z
1/2+x,-y,z
1/2+x,1/2+y,1/2+z
1/2-x,-y,1/2+z
1/2+x,1/2-y,-z
-x,1/2+y,1/2-z
1/2-x,1/2-y,1/2-z
1/2+x,y,1/2-z
1/2-x,1/2+y,z
x,1/2-y,1/2+z
loop_
_atom_site_type_symbol
_atom_site_label
_atom_site_fract_x
_atom_site_fract_y
_atom_site_fract_z
Si Si1 0.187885 0.059338 0.633605
Si Si2 0.465922 0.500000 0.750000
Si Si3 0.889105 0.386407 0.288845
Si Si4 0.715599 0.902355 0.127759
Si Si5 0.497775 0.420474 0.479233
Si Si6 0.951438 0.176930 0.389491
O O1 0.285585 0.112277 0.655198
O O2 0.110798 0.086875 0.569309
O O3 0.110040 0.051969 0.705407
O O4 0.230802 0.980038 0.623251
O O5 0.547539 0.458880 0.697214
O O6 0.841953 0.389455 0.206948
O O7 0.985111 0.333168 0.312018
O O8 0.615352 0.901069 0.067587
O O9 0.817785 0.846377 0.117458
O O10 0.500000 0.500000 0.500000
O O11 0.498171 0.376735 0.551692
O O12 0.000000 0.250000 0.414929
#
# Coordination Sequence:
#
# PCOD9533576 Si02
#       6
#    16   8  16  16  16  16
#     4  12  20  35  70 109 137 170 226 300 358 412
#     4  12  16  36  64 112 144 160 220 304 368 396
#     4  12  22  40  71 106 135 178 233 297 359 418
#     4  12  23  42  74 102 141 182 233 295 355 420
#     4  12  25  44  72 106 139 183 236 295 362 428
#     4  12  29  50  66  97 148 195 235 289 358 440
#
# _framework density 20.967659000000001
#
# number of rings (size 3 to 8) (size 9 to 14) (size 15 to 20)
#    0.000    0.000    9.091    1.636    0.000    2.909 
#    6.545    0.909    0.000    0.000    0.000    0.000 
#    0.000    0.000    0.000    0.000    0.000    0.000 
#
# Total GULP energy -245595.486268 kJ/mol
# GULP energy per Si atom -5581.715597 kJ/mol
# Density = 2.091994 g / cm^3
# Si number density = 20.967659 Si / 1000 Ang^3
#
#
#
# Elastic Constant Matrix: (Units=GPa)
#
#
# Indices 1 2 3 4 5 6 
#
# 1 102.3522 21.5069 51.2876 0.0000 0.0000 0.0000
# 2 21.5069 88.0315 23.5582 0.0000 0.0000 0.0000
# 3 51.2876 23.5582 99.6600 0.0000 0.0000 0.0000
# 4 0.0000 0.0000 0.0000 23.4405 0.0000 0.0000
# 5 0.0000 0.0000 0.0000 0.0000 11.9957 0.0000
# 6 0.0000 0.0000 0.0000 0.0000 0.0000 9.6344
#
#
#
# Elastic Compliance Matrix: (Units=1/GPa)
#
#
# Indices 1 2 3 4 5 6 
#
# 1 0.013353 -0.001519 -0.006513 0.000000 0.000000 0.000000
# 2 -0.001519 0.012300 -0.002126 0.000000 0.000000 0.000000
# 3 -0.006513 -0.002126 0.013888 0.000000 0.000000 0.000000
# 4 0.000000 0.000000 0.000000 0.042661 0.000000 0.000000
# 5 0.000000 0.000000 0.000000 0.000000 0.083363 0.000000
# 6 0.000000 0.000000 0.000000 0.000000 0.000000 0.103795
#
#
# Mechanical properties :
#
#
# Convention : Reuss Voigt Hill
#
# Bulk Modulus (GPa) = 52.01408 53.63880 52.82644
# Shear Modulus (GPa) = 16.88716 21.92686 19.40701
#
# Velocity S-wave (km/s) = 2.84102 3.23731 3.04562
# Velocity P-wave (km/s) = 5.96846 6.29371 6.13324
#
# Compressibility (1/GPa) = 0.01922556
#
# Stress axis : x y z
#
# Youngs Moduli (GPa) = 74.89057 81.30351 72.00415
#
# Poissons Ratio (x) = 0.12353 0.46893
# Poissons Ratio (y) = 0.11379 0.15305
# Poissons Ratio (z) = 0.48773 0.17281
#
# Static dielectric constant tensor:
#      x y z
#    x 1.840660 0.000000 0.000000 
#    y 0.000000 1.829200 0.000000 
#    z 0.000000 0.000000 1.796530 
# 
# From -- ./inp_files/21281.got.cif
#   From: 2010.05.17/outbox.cif.g08.bks.cpg/sg73_11_cif.got.tgz:21281.got - 2010.06.03 17:35:07.
