data_PCOD9533970
_publ_section_title
;
Structure prediction by ZEFSAII (Michael W. Deem and Ramdas Pophale) SiO2 
 PCOD9533970
Probable space group: I M M A
;
_chemical_formula_sum "Si O2"
_cell_formula_units_Z 96
_cell_length_a 20.011754
_cell_length_b 14.703862
_cell_length_c 18.657119
_cell_angle_alpha 90.000000
_cell_angle_beta 90.000000
_cell_angle_gamma 90.000000
_cell_volume 5489.858557
_symmetry_space_group_name_H-M "I M M A"
_symmetry_group_IT_number 74
_symmetry_cell_setting 'orthorhombic'
loop_
_space_group_symop_operation_xyz
x,y,z
-x,1/2-y,z
x,-y,-z
-x,1/2+y,-z
-x,-y,-z
x,1/2+y,-z
-x,y,z
x,1/2-y,z
1/2+x,1/2+y,1/2+z
1/2-x,-y,1/2+z
1/2+x,1/2-y,1/2-z
1/2-x,y,1/2-z
1/2-x,1/2-y,1/2-z
1/2+x,y,1/2-z
1/2-x,1/2+y,1/2+z
1/2+x,-y,1/2+z
loop_
_atom_site_type_symbol
_atom_site_label
_atom_site_fract_x
_atom_site_fract_y
_atom_site_fract_z
Si Si1 0.073173 0.107079 0.479456
Si Si2 0.214727 0.394575 0.525673
Si Si3 0.575567 0.459669 0.175511
Si Si4 0.216033 0.647347 0.883715
Si Si5 0.573199 0.141735 0.326560
Si Si6 0.717641 0.965097 0.174360
O O1 0.139786 0.143772 0.516241
O O2 0.083019 0.105963 0.393507
O O3 0.000000 0.145399 0.496736
O O4 0.070054 0.000000 0.500000
O O5 0.210030 0.500000 0.500000
O O6 0.263041 0.352176 0.466857
O O7 0.237055 0.400663 0.607766
O O8 0.500000 0.498356 0.169861
O O9 0.580460 0.405500 0.249581
O O10 0.637035 0.529310 0.174626
O O11 0.227095 0.750000 0.854920
O O12 0.138378 0.621780 0.873385
O O13 0.257956 0.568318 0.844346
O O14 0.500000 0.115457 0.356321
O O15 0.572690 0.250000 0.315997
O O16 0.750000 0.939778 0.250000
#
# Coordination Sequence:
#
# PCOD9533970 Si02
#       6
#    16  16  16  16  16  16
#     4   9  14  23  39  57  80 116 152 177 207 255
#     4   9  17  30  43  62  90 117 152 187 222 266
#     4  10  17  26  40  61  91 121 149 179 212 266
#     4  10  19  30  47  67  90 119 151 187 225 270
#     4   9  18  30  43  63  93 124 150 180 224 277
#     4  11  19  30  46  68  91 120 151 183 232 274
#
# _framework density 17.486789000000002
#
# number of rings (size 3 to 8) (size 9 to 14) (size 15 to 20)
#    0.000    2.333    6.667    0.000    0.000    1.000 
#    0.000    0.000    0.000    6.500    0.000    0.000 
#    0.000    0.000    0.000    0.000    0.000    0.000 
#
# Total GULP energy -267228.569185 kJ/mol
# GULP energy per Si atom -5567.261858 kJ/mol
# Density = 1.744699 g / cm^3
# Si number density = 17.486789 Si / 1000 Ang^3
#
#
#
# Elastic Constant Matrix: (Units=GPa)
#
#
# Indices 1 2 3 4 5 6 
#
# 1 103.7949 14.6357 53.1150 0.0000 0.0000 0.0000
# 2 14.6357 27.0415 6.2468 0.0000 0.0000 0.0000
# 3 53.1150 6.2468 114.1071 0.0000 0.0000 0.0000
# 4 0.0000 0.0000 0.0000 5.0684 0.0000 0.0000
# 5 0.0000 0.0000 0.0000 0.0000 -48.6922 0.0000
# 6 0.0000 0.0000 0.0000 0.0000 0.0000 0.2535
#
#
#
# Elastic Compliance Matrix: (Units=1/GPa)
#
#
# Indices 1 2 3 4 5 6 
#
# 1 0.013528 -0.005942 -0.005972 0.000000 0.000000 0.000000
# 2 -0.005942 0.040064 0.000573 0.000000 0.000000 0.000000
# 3 -0.005972 0.000573 0.011512 0.000000 0.000000 0.000000
# 4 0.000000 0.000000 0.000000 0.197300 0.000000 0.000000
# 5 0.000000 0.000000 0.000000 0.000000 -0.020537 0.000000
# 6 0.000000 0.000000 0.000000 0.000000 0.000000 3.944415
#
#
# Mechanical properties :
#
#
# Convention : Reuss Voigt Hill
#
# Bulk Modulus (GPa) = 23.57288 43.65981 33.61634
# Shear Modulus (GPa) = 1.18396 2.72235 1.95316
#
# Velocity S-wave (km/s) = 0.82373 1.24907 1.05800
# Velocity P-wave (km/s) = 3.79663 5.20593 4.55610
#
# Compressibility (1/GPa) = 0.04242163
#
# Stress axis : x y z
#
# Youngs Moduli (GPa) = 73.91915 24.95997 86.86471
#
# Poissons Ratio (x) = 0.14832 0.51875
# Poissons Ratio (y) = 0.43926 -0.04975
# Poissons Ratio (z) = 0.44144 -0.01430
#
# Static dielectric constant tensor:
#      x y z
#    x 1.650650 0.000000 0.000000 
#    y 0.000000 1.609350 0.000000 
#    z 0.000000 0.000000 1.607300 
# 
# From -- ./inp_files/44114.got.cif
#   From: 2010.05.17/outbox.cif.g08.bks.cpg/sg74_23_cif.got.tgz:44114.got - 2010.06.03 17:57:02.
