data_PCOD9533274
_publ_section_title
;
Structure prediction by ZEFSAII (Michael W. Deem and Ramdas Pophale) SiO2 
 PCOD9533274
Probable space group: I B C A 
;
_chemical_formula_sum "Si O2"
_cell_formula_units_Z 88
_cell_length_a 22.274398
_cell_length_b 13.155298
_cell_length_c 13.997727
_cell_angle_alpha 90.000000
_cell_angle_beta 90.000000
_cell_angle_gamma 90.000000
_cell_volume 4101.702760
_symmetry_space_group_name_H-M "I B C A "
_symmetry_group_IT_number 73
_symmetry_cell_setting 'orthorhombic'
loop_
_space_group_symop_operation_xyz
x,y,z
-x,1/2-y,z
x,-y,1/2-z
1/2-x,y,-z
-x,-y,-z
x,1/2+y,-z
-x,y,1/2+z
1/2+x,-y,z
1/2+x,1/2+y,1/2+z
1/2-x,-y,1/2+z
1/2+x,1/2-y,-z
-x,1/2+y,1/2-z
1/2-x,1/2-y,1/2-z
1/2+x,y,1/2-z
1/2-x,1/2+y,z
x,1/2-y,1/2+z
loop_
_atom_site_type_symbol
_atom_site_label
_atom_site_fract_x
_atom_site_fract_y
_atom_site_fract_z
Si Si1 0.250000 0.516350 0.000000
Si Si2 0.837892 0.264624 0.180500
Si Si3 0.040871 0.842117 0.776889
Si Si4 0.648080 0.332720 0.032664
Si Si5 0.466695 0.539762 0.904926
Si Si6 0.211470 0.651448 0.643531
O O1 0.202137 0.588977 0.048798
O O2 0.218195 0.446719 0.921328
O O3 0.891475 0.201638 0.230272
O O4 0.858254 0.306212 0.078827
O O5 0.817552 0.353717 0.252105
O O6 0.778558 0.196933 0.159480
O O7 0.008944 0.885944 0.680302
O O8 0.000000 0.750000 0.813851
O O9 0.047212 0.936192 0.848533
O O10 0.589479 0.392604 0.063579
O O11 0.669880 0.231168 0.085799
O O12 0.500000 0.500000 0.000000
#
# Coordination Sequence:
#
# PCOD9533274 Si02
#       6
#     8  16  16  16  16  16
#     4  12  22  40  64  98 144 178 224 286 350 426
#     4  11  22  43  67  98 139 178 228 291 344 417
#     4  11  25  46  74 101 137 186 240 291 359 429
#     4  12  23  44  68 103 140 181 239 285 358 433
#     4  11  26  46  71 104 138 184 237 295 355 427
#     4  11  23  41  65 101 139 180 229 284 355 420
#
# _framework density 21.454502999999999
#
# number of rings (size 3 to 8) (size 9 to 14) (size 15 to 20)
#    0.000    0.727    5.455    2.182    0.000    4.364 
#    0.000    0.000    0.000    0.000    0.000    0.000 
#    0.000    0.000    0.000    0.000    0.000    0.000 
#
# Total GULP energy -245647.717270 kJ/mol
# GULP energy per Si atom -5582.902665 kJ/mol
# Density = 2.140567 g / cm^3
# Si number density = 21.454503 Si / 1000 Ang^3
#
#
#
# Elastic Constant Matrix: (Units=GPa)
#
#
# Indices 1 2 3 4 5 6 
#
# 1 47.5168 6.2687 21.1044 0.0000 0.0000 0.0000
# 2 6.2687 73.3625 26.4046 0.0000 0.0000 0.0000
# 3 21.1044 26.4046 112.2641 0.0000 0.0000 0.0000
# 4 0.0000 0.0000 0.0000 7.3786 0.0000 0.0000
# 5 0.0000 0.0000 0.0000 0.0000 29.6416 0.0000
# 6 0.0000 0.0000 0.0000 0.0000 0.0000 43.3914
#
#
#
# Elastic Compliance Matrix: (Units=1/GPa)
#
#
# Indices 1 2 3 4 5 6 
#
# 1 0.022976 -0.000446 -0.004214 0.000000 0.000000 0.000000
# 2 -0.000446 0.014900 -0.003421 0.000000 0.000000 0.000000
# 3 -0.004214 -0.003421 0.010504 0.000000 0.000000 0.000000
# 4 0.000000 0.000000 0.000000 0.135528 0.000000 0.000000
# 5 0.000000 0.000000 0.000000 0.000000 0.033736 0.000000
# 6 0.000000 0.000000 0.000000 0.000000 0.000000 0.023046
#
#
# Mechanical properties :
#
#
# Convention : Reuss Voigt Hill
#
# Bulk Modulus (GPa) = 31.03873 37.85543 34.44708
# Shear Modulus (GPa) = 18.68516 28.04004 23.36260
#
# Velocity S-wave (km/s) = 2.95434 3.61910 3.30348
# Velocity P-wave (km/s) = 5.11235 5.92846 5.53547
#
# Compressibility (1/GPa) = 0.03221781
#
# Stress axis : x y z
#
# Youngs Moduli (GPa) = 43.52408 67.11305 95.19889
#
# Poissons Ratio (x) = 0.02996 0.40119
# Poissons Ratio (y) = 0.01943 0.32564
# Poissons Ratio (z) = 0.18342 0.22957
#
# Static dielectric constant tensor:
#      x y z
#    x 1.777610 0.000000 0.000000 
#    y 0.000000 1.739840 0.000000 
#    z 0.000000 0.000000 1.840170 
# 
# From -- ./inp_files/19270.got.cif
#   From: 2010.05.17/outbox.cif.g08.bks.cpg/sg73_10_cif.got.tgz:19270.got - 2010.06.03 17:35:07.
