data_PCOD9533349
_publ_section_title
;
Structure prediction by ZEFSAII (Michael W. Deem and Ramdas Pophale) SiO2 
 PCOD9533349
Probable space group: I B C A 
;
_chemical_formula_sum "Si O2"
_cell_formula_units_Z 96
_cell_length_a 15.171357
_cell_length_b 18.111864
_cell_length_c 17.534037
_cell_angle_alpha 90.000000
_cell_angle_beta 90.000000
_cell_angle_gamma 90.000000
_cell_volume 4818.029947
_symmetry_space_group_name_H-M "I B C A "
_symmetry_group_IT_number 73
_symmetry_cell_setting 'orthorhombic'
loop_
_space_group_symop_operation_xyz
x,y,z
-x,1/2-y,z
x,-y,1/2-z
1/2-x,y,-z
-x,-y,-z
x,1/2+y,-z
-x,y,1/2+z
1/2+x,-y,z
1/2+x,1/2+y,1/2+z
1/2-x,-y,1/2+z
1/2+x,1/2-y,-z
-x,1/2+y,1/2-z
1/2-x,1/2-y,1/2-z
1/2+x,y,1/2-z
1/2-x,1/2+y,z
x,1/2-y,1/2+z
loop_
_atom_site_type_symbol
_atom_site_label
_atom_site_fract_x
_atom_site_fract_y
_atom_site_fract_z
Si Si1 0.153237 0.435696 0.528952
Si Si2 0.681808 0.889637 0.438526
Si Si3 0.464656 0.671013 0.759926
Si Si4 0.731357 0.666241 0.220368
Si Si5 0.872452 0.576300 0.295035
Si Si6 0.483569 0.832550 0.438210
O O1 0.250000 0.408470 0.500000
O O2 0.166935 0.524877 0.535088
O O3 0.119392 0.422747 0.614664
O O4 0.081210 0.391670 0.478221
O O5 0.750000 0.857063 0.500000
O O6 0.724505 0.864032 0.357798
O O7 0.582703 0.861717 0.436159
O O8 0.500000 0.750000 0.733534
O O9 0.372807 0.653640 0.719678
O O10 0.543178 0.615597 0.741680
O O11 0.449755 0.675725 0.851002
O O12 0.750000 0.750000 0.250000
O O13 0.780329 0.617067 0.282280
O O14 0.865478 0.500000 0.250000
O O15 0.500000 0.750000 0.471918
#
# Coordination Sequence:
#
# PCOD9533349 Si02
#       6
#    16  16  16  16  16  16
#     4  11  25  45  70 100 139 183 232 293 353 423
#     4  11  25  45  67 100 140 183 231 286 361 423
#     4  11  23  43  70 102 139 188 237 294 362 419
#     4  12  23  44  72  97 139 185 234 293 351 424
#     4  12  24  44  67 104 138 177 238 289 345 429
#     4  11  23  44  69 102 141 181 233 293 354 422
#
# _framework density 19.925156000000001
#
# number of rings (size 3 to 8) (size 9 to 14) (size 15 to 20)
#    0.000    0.667    5.000    2.500    2.333    3.333 
#    3.000    0.000    0.000    0.000    0.000    0.000 
#    0.000    0.000    0.000    0.000    0.000    0.000 
#
# Total GULP energy -267319.819687 kJ/mol
# GULP energy per Si atom -5569.162910 kJ/mol
# Density = 1.987981 g / cm^3
# Si number density = 19.925156 Si / 1000 Ang^3
#
#
#
# Elastic Constant Matrix: (Units=GPa)
#
#
# Indices 1 2 3 4 5 6 
#
# 1 165.2758 60.4611 32.7086 0.0000 0.0000 0.0000
# 2 60.4611 115.9843 17.4109 0.0000 0.0000 0.0000
# 3 32.7086 17.4109 58.4322 0.0000 0.0000 0.0000
# 4 0.0000 0.0000 0.0000 20.4649 0.0000 0.0000
# 5 0.0000 0.0000 0.0000 0.0000 47.9345 0.0000
# 6 0.0000 0.0000 0.0000 0.0000 0.0000 17.5268
#
#
#
# Elastic Compliance Matrix: (Units=1/GPa)
#
#
# Indices 1 2 3 4 5 6 
#
# 1 0.008081 -0.003699 -0.003421 0.000000 0.000000 0.000000
# 2 -0.003699 0.010719 -0.001123 0.000000 0.000000 0.000000
# 3 -0.003421 -0.001123 0.019364 0.000000 0.000000 0.000000
# 4 0.000000 0.000000 0.000000 0.048864 0.000000 0.000000
# 5 0.000000 0.000000 0.000000 0.000000 0.020862 0.000000
# 6 0.000000 0.000000 0.000000 0.000000 0.000000 0.057055
#
#
# Mechanical properties :
#
#
# Convention : Reuss Voigt Hill
#
# Bulk Modulus (GPa) = 46.13328 62.31703 54.22516
# Shear Modulus (GPa) = 26.50324 32.45937 29.48130
#
# Velocity S-wave (km/s) = 3.65106 4.04055 3.85073
# Velocity P-wave (km/s) = 6.40135 7.28776 6.85889
#
# Compressibility (1/GPa) = 0.02167633
#
# Stress axis : x y z
#
# Youngs Moduli (GPa) = 123.75275 93.29580 51.64314
#
# Poissons Ratio (x) = 0.34508 0.17668
# Poissons Ratio (y) = 0.45773 0.05801
# Poissons Ratio (z) = 0.42338 0.10480
#
# Static dielectric constant tensor:
#      x y z
#    x 1.652930 0.000000 0.000000 
#    y 0.000000 1.813120 0.000000 
#    z 0.000000 0.000000 1.728620 
# 
# From -- ./inp_files/25972.got.cif
#   From: 2010.05.17/outbox.cif.g08.bks.cpg/sg73_13_cif.got.tgz:25972.got - 2010.06.03 17:35:07.
