data_PCOD9533532
_publ_section_title
;
Structure prediction by ZEFSAII (Michael W. Deem and Ramdas Pophale) SiO2 
 PCOD9533532
Probable space group: I B C A 
;
_chemical_formula_sum "Si O2"
_cell_formula_units_Z 112
_cell_length_a 13.453089
_cell_length_b 17.540017
_cell_length_c 22.138358
_cell_angle_alpha 90.000000
_cell_angle_beta 90.000000
_cell_angle_gamma 90.000000
_cell_volume 5223.930994
_symmetry_space_group_name_H-M "I B C A "
_symmetry_group_IT_number 73
_symmetry_cell_setting 'orthorhombic'
loop_
_space_group_symop_operation_xyz
x,y,z
-x,1/2-y,z
x,-y,1/2-z
1/2-x,y,-z
-x,-y,-z
x,1/2+y,-z
-x,y,1/2+z
1/2+x,-y,z
1/2+x,1/2+y,1/2+z
1/2-x,-y,1/2+z
1/2+x,1/2-y,-z
-x,1/2+y,1/2-z
1/2-x,1/2-y,1/2-z
1/2+x,y,1/2-z
1/2-x,1/2+y,z
x,1/2-y,1/2+z
loop_
_atom_site_type_symbol
_atom_site_label
_atom_site_fract_x
_atom_site_fract_y
_atom_site_fract_z
Si Si1 0.184394 0.025985 0.309071
Si Si2 0.309993 0.803876 0.411897
Si Si3 0.251918 0.196172 0.690997
Si Si4 0.965929 0.665187 0.780108
Si Si5 0.414985 0.311181 0.461795
Si Si6 0.885708 0.439098 0.829887
Si Si7 0.459860 0.560204 0.120387
O O1 0.196466 0.115247 0.301687
O O2 0.123829 0.000000 0.250000
O O3 0.288061 0.981821 0.307220
O O4 0.132868 0.995715 0.369310
O O5 0.308818 0.736969 0.363003
O O6 0.381712 0.795454 0.469339
O O7 0.193333 0.808643 0.429705
O O8 0.347598 0.878238 0.377849
O O9 0.250000 0.250000 0.750000
O O10 0.135705 0.177666 0.681738
O O11 0.938853 0.608876 0.724235
O O12 0.000000 0.750000 0.760304
O O13 0.040915 0.625897 0.827411
O O14 0.500000 0.250000 0.444500
O O15 0.457857 0.394029 0.442246
O O16 0.950547 0.504208 0.862081
#
# Coordination Sequence:
#
# PCOD9533532 Si02
#       7
#    16  16  16  16  16  16  16
#     4  12  23  41  67 104 152 189 227 301 381 448
#     4  11  25  48  75 104 141 194 245 308 369 434
#     4  12  24  42  70 105 146 187 231 297 377 445
#     4  12  25  39  67 106 148 189 240 298 374 455
#     4  11  26  49  76  99 141 198 256 304 354 438
#     4  12  24  44  68 106 153 184 241 308 375 447
#     4  12  25  42  70 103 138 200 247 298 367 442
#
# _framework density 21.439792000000001
#
# number of rings (size 3 to 8) (size 9 to 14) (size 15 to 20)
#    0.000    0.286    5.714    3.429    4.000    2.286 
#    0.000    0.000    0.000    0.000    0.000    0.000 
#    0.000    0.000    0.000    0.000    0.000    0.000 
#
# Total GULP energy -312822.431035 kJ/mol
# GULP energy per Si atom -5586.114840 kJ/mol
# Density = 2.139099 g / cm^3
# Si number density = 21.439792 Si / 1000 Ang^3
#
#
#
# Elastic Constant Matrix: (Units=GPa)
#
#
# Indices 1 2 3 4 5 6 
#
# 1 69.8031 23.1512 20.5357 0.0000 0.0000 0.0000
# 2 23.1512 149.9535 53.2552 0.0000 0.0000 0.0000
# 3 20.5357 53.2552 92.6701 0.0000 0.0000 0.0000
# 4 0.0000 0.0000 0.0000 7.8613 0.0000 0.0000
# 5 0.0000 0.0000 0.0000 0.0000 20.2332 0.0000
# 6 0.0000 0.0000 0.0000 0.0000 0.0000 30.2942
#
#
#
# Elastic Compliance Matrix: (Units=1/GPa)
#
#
# Indices 1 2 3 4 5 6 
#
# 1 0.015583 -0.001482 -0.002602 0.000000 0.000000 0.000000
# 2 -0.001482 0.008520 -0.004568 0.000000 0.000000 0.000000
# 3 -0.002602 -0.004568 0.013992 0.000000 0.000000 0.000000
# 4 0.000000 0.000000 0.000000 0.127205 0.000000 0.000000
# 5 0.000000 0.000000 0.000000 0.000000 0.049424 0.000000
# 6 0.000000 0.000000 0.000000 0.000000 0.000000 0.033010
#
#
# Mechanical properties :
#
#
# Convention : Reuss Voigt Hill
#
# Bulk Modulus (GPa) = 48.09375 56.25676 52.17526
# Shear Modulus (GPa) = 18.38462 26.04340 22.21401
#
# Velocity S-wave (km/s) = 2.93149 3.48907 3.22236
# Velocity P-wave (km/s) = 5.82571 6.52134 6.18331
#
# Compressibility (1/GPa) = 0.02079272
#
# Stress axis : x y z
#
# Youngs Moduli (GPa) = 64.17310 117.37488 71.46737
#
# Poissons Ratio (x) = 0.17394 0.18593
# Poissons Ratio (y) = 0.09510 0.32644
# Poissons Ratio (z) = 0.16695 0.53613
#
# Static dielectric constant tensor:
#      x y z
#    x 1.858160 0.000000 0.000000 
#    y 0.000000 1.796420 0.000000 
#    z 0.000000 0.000000 1.831920 
# 
# From -- ./inp_files/29518.got.cif
#   From: 2010.05.17/outbox.cif.g08.bks.cpg/sg73_15_cif.got.tgz:29518.got - 2010.06.03 17:35:07.
