data_PCOD9533595
_publ_section_title
;
Structure prediction by ZEFSAII (Michael W. Deem and Ramdas Pophale) SiO2 
 PCOD9533595
Probable space group: I B C A 
;
_chemical_formula_sum "Si O2"
_cell_formula_units_Z 72
_cell_length_a 18.992827
_cell_length_b 9.881428
_cell_length_c 19.115687
_cell_angle_alpha 90.000000
_cell_angle_beta 90.000000
_cell_angle_gamma 90.000000
_cell_volume 3587.560500
_symmetry_space_group_name_H-M "I B C A "
_symmetry_group_IT_number 73
_symmetry_cell_setting 'orthorhombic'
loop_
_space_group_symop_operation_xyz
x,y,z
-x,1/2-y,z
x,-y,1/2-z
1/2-x,y,-z
-x,-y,-z
x,1/2+y,-z
-x,y,1/2+z
1/2+x,-y,z
1/2+x,1/2+y,1/2+z
1/2-x,-y,1/2+z
1/2+x,1/2-y,-z
-x,1/2+y,1/2-z
1/2-x,1/2-y,1/2-z
1/2+x,y,1/2-z
1/2-x,1/2+y,z
x,1/2-y,1/2+z
loop_
_atom_site_type_symbol
_atom_site_label
_atom_site_fract_x
_atom_site_fract_y
_atom_site_fract_z
Si Si1 0.738956 0.621846 0.201776
Si Si2 0.893096 0.445464 0.355940
Si Si3 0.952036 0.130968 0.995060
Si Si4 0.100234 0.728068 0.354455
Si Si5 0.500000 0.750000 0.268920
O O1 0.712599 0.500000 0.250000
O O2 0.750000 0.750000 0.250000
O O3 0.815481 0.583455 0.173026
O O4 0.678618 0.668429 0.149115
O O5 0.894224 0.400946 0.436987
O O6 0.903540 0.607787 0.351817
O O7 0.953341 0.358215 0.314266
O O8 0.929474 0.175839 0.072120
O O9 0.000000 0.250000 0.965311
O O10 0.000000 0.000000 0.000000
O O11 0.055875 0.683150 0.285870
#
# Coordination Sequence:
#
# PCOD9533595 Si02
#       5
#    16  16  16  16   8
#     4  12  25  47  73 107 148 186 235 299 361 428
#     4  12  25  46  71 106 145 189 242 298 360 433
#     4  12  25  46  71 104 147 187 235 298 355 421
#     4  12  26  47  71 106 147 187 241 300 360 429
#     4  12  22  40  76 102 136 190 238 294 370 420
#
# _framework density 20.069348999999999
#
# number of rings (size 3 to 8) (size 9 to 14) (size 15 to 20)
#    0.000    0.000    8.889    0.667    0.000    6.222 
#    0.000    2.222    0.000    0.000    0.000    0.000 
#    0.000    0.000    0.000    0.000    0.000    0.000 
#
# Total GULP energy -201085.881294 kJ/mol
# GULP energy per Si atom -5585.718925 kJ/mol
# Density = 2.002367 g / cm^3
# Si number density = 20.069349 Si / 1000 Ang^3
#
#
#
# Elastic Constant Matrix: (Units=GPa)
#
#
# Indices 1 2 3 4 5 6 
#
# 1 128.5165 59.8720 63.4597 0.0000 0.0000 0.0000
# 2 59.8720 145.0236 59.1226 0.0000 0.0000 0.0000
# 3 63.4597 59.1226 141.0775 0.0000 0.0000 0.0000
# 4 0.0000 0.0000 0.0000 31.2906 0.0000 0.0000
# 5 0.0000 0.0000 0.0000 0.0000 43.3473 0.0000
# 6 0.0000 0.0000 0.0000 0.0000 0.0000 31.9052
#
#
#
# Elastic Compliance Matrix: (Units=1/GPa)
#
#
# Indices 1 2 3 4 5 6 
#
# 1 0.011018 -0.003049 -0.003678 0.000000 0.000000 0.000000
# 2 -0.003049 0.009160 -0.002467 0.000000 0.000000 0.000000
# 3 -0.003678 -0.002467 0.009777 0.000000 0.000000 0.000000
# 4 0.000000 0.000000 0.000000 0.031958 0.000000 0.000000
# 5 0.000000 0.000000 0.000000 0.000000 0.023069 0.000000
# 6 0.000000 0.000000 0.000000 0.000000 0.000000 0.031343
#
#
# Mechanical properties :
#
#
# Convention : Reuss Voigt Hill
#
# Bulk Modulus (GPa) = 86.46362 86.61400 86.53881
# Shear Modulus (GPa) = 36.08285 36.78617 36.43451
#
# Velocity S-wave (km/s) = 4.24477 4.28594 4.26541
# Velocity P-wave (km/s) = 8.19757 8.23064 8.21412
#
# Compressibility (1/GPa) = 0.01156556
#
# Stress axis : x y z
#
# Youngs Moduli (GPa) = 90.76169 109.16952 102.28274
#
# Poissons Ratio (x) = 0.33287 0.37622
# Poissons Ratio (y) = 0.27674 0.25236
# Poissons Ratio (z) = 0.33384 0.26935
#
# Static dielectric constant tensor:
#      x y z
#    x 1.665570 0.000000 0.000000 
#    y 0.000000 1.503670 0.000000 
#    z 0.000000 0.000000 1.769600 
# 
# From -- ./inp_files/6031.got.cif
#   From: 2010.05.17/outbox.cif.g08.bks.cpg/sg73_4_cif.got.tgz:6031.got - 2010.06.03 17:35:07.
