data_PCOD9533419
_publ_section_title
;
Structure prediction by ZEFSAII (Michael W. Deem and Ramdas Pophale) SiO2 
 PCOD9533419
Probable space group: I B C A 
;
_chemical_formula_sum "Si O2"
_cell_formula_units_Z 64
_cell_length_a 10.101460
_cell_length_b 7.820327
_cell_length_c 31.877867
_cell_angle_alpha 90.000000
_cell_angle_beta 90.000000
_cell_angle_gamma 90.000000
_cell_volume 2518.246946
_symmetry_space_group_name_H-M "I B C A "
_symmetry_group_IT_number 73
_symmetry_cell_setting 'orthorhombic'
loop_
_space_group_symop_operation_xyz
x,y,z
-x,1/2-y,z
x,-y,1/2-z
1/2-x,y,-z
-x,-y,-z
x,1/2+y,-z
-x,y,1/2+z
1/2+x,-y,z
1/2+x,1/2+y,1/2+z
1/2-x,-y,1/2+z
1/2+x,1/2-y,-z
-x,1/2+y,1/2-z
1/2-x,1/2-y,1/2-z
1/2+x,y,1/2-z
1/2-x,1/2+y,z
x,1/2-y,1/2+z
loop_
_atom_site_type_symbol
_atom_site_label
_atom_site_fract_x
_atom_site_fract_y
_atom_site_fract_z
Si Si1 0.710693 0.686202 0.951596
Si Si2 0.833378 0.931482 0.794072
Si Si3 0.915986 0.442310 0.673601
Si Si4 0.961963 0.492055 0.579144
O O1 0.855711 0.653358 0.932625
O O2 0.630635 0.842175 0.930797
O O3 0.600443 0.533747 0.944702
O O4 0.750000 0.711630 0.000000
O O5 0.874432 0.737364 0.804624
O O6 0.971723 0.030780 0.798422
O O7 0.777712 0.000000 0.750000
O O8 0.722345 0.964112 0.828364
O O9 0.983125 0.453670 0.628084
#
# Coordination Sequence:
#
# PCOD9533419 Si02
#       4
#    16  16  16  16
#     4  11  24  43  68 102 139 183 235 293 358 428
#     4  11  24  43  68 102 140 184 234 292 352 420
#     4  11  24  43  68 102 139 185 237 291 351 420
#     4  11  24  43  68 102 140 186 236 294 356 424
#
# _framework density 25.414507
#
# number of rings (size 3 to 8) (size 9 to 14) (size 15 to 20)
#    0.000    1.000    0.000    6.000    0.000   10.000 
#    0.000    0.000    0.000    0.000    0.000    0.000 
#    0.000    0.000    0.000    0.000    0.000    0.000 
#
# Total GULP energy -178388.522749 kJ/mol
# GULP energy per Si atom -5574.641336 kJ/mol
# Density = 2.535666 g / cm^3
# Si number density = 25.414507 Si / 1000 Ang^3
#
#
#
# Elastic Constant Matrix: (Units=GPa)
#
#
# Indices 1 2 3 4 5 6 
#
# 1 145.7164 23.8829 15.5520 0.0000 0.0000 0.0000
# 2 23.8829 65.9634 19.3181 0.0000 0.0000 0.0000
# 3 15.5520 19.3181 128.7450 0.0000 0.0000 0.0000
# 4 0.0000 0.0000 0.0000 31.0419 0.0000 0.0000
# 5 0.0000 0.0000 0.0000 0.0000 59.2646 0.0000
# 6 0.0000 0.0000 0.0000 0.0000 0.0000 39.4175
#
#
#
# Elastic Compliance Matrix: (Units=1/GPa)
#
#
# Indices 1 2 3 4 5 6 
#
# 1 0.007327 -0.002504 -0.000509 0.000000 0.000000 0.000000
# 2 -0.002504 0.016712 -0.002205 0.000000 0.000000 0.000000
# 3 -0.000509 -0.002205 0.008160 0.000000 0.000000 0.000000
# 4 0.000000 0.000000 0.000000 0.032214 0.000000 0.000000
# 5 0.000000 0.000000 0.000000 0.000000 0.016873 0.000000
# 6 0.000000 0.000000 0.000000 0.000000 0.000000 0.025369
#
#
# Mechanical properties :
#
#
# Convention : Reuss Voigt Hill
#
# Bulk Modulus (GPa) = 45.95057 50.88119 48.41588
# Shear Modulus (GPa) = 40.20980 44.72293 42.46637
#
# Velocity S-wave (km/s) = 3.98195 4.19948 4.09216
# Velocity P-wave (km/s) = 6.26586 6.60137 6.43580
#
# Compressibility (1/GPa) = 0.02176252
#
# Stress axis : x y z
#
# Youngs Moduli (GPa) = 136.47434 59.83632 122.55323
#
# Poissons Ratio (x) = 0.14982 0.06243
# Poissons Ratio (y) = 0.34170 0.27026
# Poissons Ratio (z) = 0.06953 0.13195
#
# Static dielectric constant tensor:
#      x y z
#    x 2.074620 0.000000 0.000000 
#    y 0.000000 2.319010 0.000000 
#    z 0.000000 0.000000 2.009450 
# 
# From -- ./inp_files/33768.got.cif
#   From: 2010.05.17/outbox.cif.g08.bks.cpg/sg73_17_cif.got.tgz:33768.got - 2010.06.03 17:35:07.
