data_PCOD9533152
_publ_section_title
;
Structure prediction by ZEFSAII (Michael W. Deem and Ramdas Pophale) SiO2 
 PCOD9533152
Probable space group: I B C A 
;
_chemical_formula_sum "Si O2"
_cell_formula_units_Z 64
_cell_length_a 21.712785
_cell_length_b 11.023095
_cell_length_c 12.141753
_cell_angle_alpha 90.000000
_cell_angle_beta 90.000000
_cell_angle_gamma 90.000000
_cell_volume 2906.032561
_symmetry_space_group_name_H-M "I B C A "
_symmetry_group_IT_number 73
_symmetry_cell_setting 'orthorhombic'
loop_
_space_group_symop_operation_xyz
x,y,z
-x,1/2-y,z
x,-y,1/2-z
1/2-x,y,-z
-x,-y,-z
x,1/2+y,-z
-x,y,1/2+z
1/2+x,-y,z
1/2+x,1/2+y,1/2+z
1/2-x,-y,1/2+z
1/2+x,1/2-y,-z
-x,1/2+y,1/2-z
1/2-x,1/2-y,1/2-z
1/2+x,y,1/2-z
1/2-x,1/2+y,z
x,1/2-y,1/2+z
loop_
_atom_site_type_symbol
_atom_site_label
_atom_site_fract_x
_atom_site_fract_y
_atom_site_fract_z
Si Si1 0.231000 0.373832 0.682045
Si Si2 0.864005 0.590239 0.646820
Si Si3 0.901983 0.433049 0.091615
Si Si4 0.061357 0.184388 0.295393
O O1 0.225905 0.500000 0.750000
O O2 0.250000 0.250000 0.750000
O O3 0.292653 0.400228 0.612353
O O4 0.165026 0.374667 0.622051
O O5 0.870478 0.500000 0.750000
O O6 0.904480 0.561464 0.539602
O O7 0.885381 0.718526 0.691873
O O8 0.947287 0.353857 0.167852
O O9 0.915186 0.567346 0.138189
O O10 0.000000 0.250000 0.336712
#
# Coordination Sequence:
#
# PCOD9533152 Si02
#       4
#    16  16  16  16
#     4  11  20  42  71 107 147 190 237 305 379 453
#     4  11  26  41  71 109 141 190 252 294 376 456
#     4  11  24  47  72 100 151 191 237 322 373 437
#     4  11  26  47  70 100 144 197 247 299 374 436
#
# _framework density 22.023153000000001
#
# number of rings (size 3 to 8) (size 9 to 14) (size 15 to 20)
#    0.000    1.000    5.000    0.750    7.000    2.000 
#    0.000    5.000    0.000    0.000    0.000    0.000 
#    0.000    0.000    0.000    0.000    0.000    0.000 
#
# Total GULP energy -178288.879027 kJ/mol
# GULP energy per Si atom -5571.527470 kJ/mol
# Density = 2.197303 g / cm^3
# Si number density = 22.023153 Si / 1000 Ang^3
#
#
#
# Elastic Constant Matrix: (Units=GPa)
#
#
# Indices 1 2 3 4 5 6 
#
# 1 62.8221 32.8785 16.6743 0.0000 0.0000 0.0000
# 2 32.8785 138.3764 64.3227 0.0000 0.0000 0.0000
# 3 16.6743 64.3227 142.4853 0.0000 0.0000 0.0000
# 4 0.0000 0.0000 0.0000 10.9678 0.0000 0.0000
# 5 0.0000 0.0000 0.0000 0.0000 9.7012 0.0000
# 6 0.0000 0.0000 0.0000 0.0000 0.0000 35.0755
#
#
#
# Elastic Compliance Matrix: (Units=1/GPa)
#
#
# Indices 1 2 3 4 5 6 
#
# 1 0.018184 -0.004216 -0.000225 0.000000 0.000000 0.000000
# 2 -0.004216 0.010123 -0.004077 0.000000 0.000000 0.000000
# 3 -0.000225 -0.004077 0.008885 0.000000 0.000000 0.000000
# 4 0.000000 0.000000 0.000000 0.091176 0.000000 0.000000
# 5 0.000000 0.000000 0.000000 0.000000 0.103080 0.000000
# 6 0.000000 0.000000 0.000000 0.000000 0.000000 0.028510
#
#
# Mechanical properties :
#
#
# Convention : Reuss Voigt Hill
#
# Bulk Modulus (GPa) = 49.60932 63.49275 56.55104
# Shear Modulus (GPa) = 17.62351 26.46947 22.04649
#
# Velocity S-wave (km/s) = 2.83190 3.47059 3.16739
# Velocity P-wave (km/s) = 5.76782 6.70467 6.25381
#
# Compressibility (1/GPa) = 0.02015750
#
# Stress axis : x y z
#
# Youngs Moduli (GPa) = 54.99289 98.78079 112.55046
#
# Poissons Ratio (x) = 0.41648 0.02529
# Poissons Ratio (y) = 0.23186 0.45883
# Poissons Ratio (z) = 0.01236 0.40270
#
# Static dielectric constant tensor:
#      x y z
#    x 1.894510 0.000000 0.000000 
#    y 0.000000 1.639130 0.000000 
#    z 0.000000 0.000000 2.045700 
# 
# From -- ./inp_files/13318.got.cif
#   From: 2010.05.17/outbox.cif.g08.bks.cpg/sg73_7_cif.got.tgz:13318.got - 2010.06.03 17:35:07.
