data_PCOD9533023
_publ_section_title
;
Structure prediction by ZEFSAII (Michael W. Deem and Ramdas Pophale) SiO2 
 PCOD9533023
Probable space group: I B C A 
;
_chemical_formula_sum "Si O2"
_cell_formula_units_Z 80
_cell_length_a 28.085604
_cell_length_b 5.253908
_cell_length_c 23.501528
_cell_angle_alpha 90.000000
_cell_angle_beta 90.000000
_cell_angle_gamma 90.000000
_cell_volume 3467.866190
_symmetry_space_group_name_H-M "I B C A "
_symmetry_group_IT_number 73
_symmetry_cell_setting 'orthorhombic'
loop_
_space_group_symop_operation_xyz
x,y,z
-x,1/2-y,z
x,-y,1/2-z
1/2-x,y,-z
-x,-y,-z
x,1/2+y,-z
-x,y,1/2+z
1/2+x,-y,z
1/2+x,1/2+y,1/2+z
1/2-x,-y,1/2+z
1/2+x,1/2-y,-z
-x,1/2+y,1/2-z
1/2-x,1/2-y,1/2-z
1/2+x,y,1/2-z
1/2-x,1/2+y,z
x,1/2-y,1/2+z
loop_
_atom_site_type_symbol
_atom_site_label
_atom_site_fract_x
_atom_site_fract_y
_atom_site_fract_z
Si Si1 0.377203 0.527952 0.368176
Si Si2 0.948130 0.158775 0.301647
Si Si3 0.632135 0.372228 0.031325
Si Si4 0.449570 0.135580 0.421299
Si Si5 0.278158 0.969852 0.681608
O O1 0.412733 0.617912 0.319115
O O2 0.360122 0.773374 0.404705
O O3 0.409494 0.350617 0.408625
O O4 0.329877 0.407801 0.343430
O O5 0.000000 0.250000 0.282844
O O6 0.926743 0.000000 0.250000
O O7 0.956255 0.000541 0.359863
O O8 0.574947 0.434302 0.035913
O O9 0.650432 0.638438 0.006934
O O10 0.500000 0.250000 0.438346
O O11 0.242994 0.742795 0.664177
O O12 0.282043 0.000000 0.750000
#
# Coordination Sequence:
#
# PCOD9533023 Si02
#       5
#    16  16  16  16  16
#     4  11  25  43  69  96 136 181 223 287 342 401
#     4  11  24  36  59  95 140 187 226 269 324 411
#     4  11  24  44  67  98 132 179 230 281 339 398
#     4  11  23  41  62  95 138 182 235 276 328 406
#     4  10  25  45  71 103 135 172 225 277 338 413
#
# _framework density 23.068939
#
# number of rings (size 3 to 8) (size 9 to 14) (size 15 to 20)
#    0.000    1.200    4.000    0.600    8.400    1.600 
#    0.000    0.000    0.000    3.600    0.000    0.000 
#    0.000    0.000    0.000    0.000    0.000    0.000 
#
# Total GULP energy -223467.849921 kJ/mol
# GULP energy per Si atom -5586.696248 kJ/mol
# Density = 2.301643 g / cm^3
# Si number density = 23.068939 Si / 1000 Ang^3
#
#
#
# Elastic Constant Matrix: (Units=GPa)
#
#
# Indices 1 2 3 4 5 6 
#
# 1 107.8504 26.8116 7.9803 0.0000 0.0000 0.0000
# 2 26.8116 121.0599 18.9574 0.0000 0.0000 0.0000
# 3 7.9803 18.9574 37.6406 0.0000 0.0000 0.0000
# 4 0.0000 0.0000 0.0000 42.4044 0.0000 0.0000
# 5 0.0000 0.0000 0.0000 0.0000 26.6415 0.0000
# 6 0.0000 0.0000 0.0000 0.0000 0.0000 26.0651
#
#
#
# Elastic Compliance Matrix: (Units=1/GPa)
#
#
# Indices 1 2 3 4 5 6 
#
# 1 0.009852 -0.002014 -0.001075 0.000000 0.000000 0.000000
# 2 -0.002014 0.009379 -0.004297 0.000000 0.000000 0.000000
# 3 -0.001075 -0.004297 0.028959 0.000000 0.000000 0.000000
# 4 0.000000 0.000000 0.000000 0.023582 0.000000 0.000000
# 5 0.000000 0.000000 0.000000 0.000000 0.037535 0.000000
# 6 0.000000 0.000000 0.000000 0.000000 0.000000 0.038365
#
#
# Mechanical properties :
#
#
# Convention : Reuss Voigt Hill
#
# Bulk Modulus (GPa) = 29.92215 41.56105 35.74160
# Shear Modulus (GPa) = 28.80448 33.20897 31.00672
#
# Velocity S-wave (km/s) = 3.53742 3.79826 3.67016
# Velocity P-wave (km/s) = 5.44825 6.10662 5.78681
#
# Compressibility (1/GPa) = 0.03342006
#
# Stress axis : x y z
#
# Youngs Moduli (GPa) = 101.49985 106.61857 34.53168
#
# Poissons Ratio (x) = 0.21470 0.03711
# Poissons Ratio (y) = 0.20439 0.14838
# Poissons Ratio (z) = 0.10907 0.45812
#
# Static dielectric constant tensor:
#      x y z
#    x 1.801820 0.000000 0.000000 
#    y 0.000000 1.945510 0.000000 
#    z 0.000000 0.000000 1.893010 
# 
# From -- ./inp_files/30923.got.cif
#   From: 2010.05.17/outbox.cif.g08.bks.cpg/sg73_16_cif.got.tgz:30923.got - 2010.06.03 17:35:07.
