data_PCOD9533973
_publ_section_title
;
Structure prediction by ZEFSAII (Michael W. Deem and Ramdas Pophale) SiO2 
 PCOD9533973
Probable space group: I M M A
;
_chemical_formula_sum "Si O2"
_cell_formula_units_Z 72
_cell_length_a 10.461977
_cell_length_b 20.412543
_cell_length_c 21.944864
_cell_angle_alpha 90.000000
_cell_angle_beta 90.000000
_cell_angle_gamma 90.000000
_cell_volume 4686.447619
_symmetry_space_group_name_H-M "I M M A"
_symmetry_group_IT_number 74
_symmetry_cell_setting 'orthorhombic'
loop_
_space_group_symop_operation_xyz
x,y,z
-x,1/2-y,z
x,-y,-z
-x,1/2+y,-z
-x,-y,-z
x,1/2+y,-z
-x,y,z
x,1/2-y,z
1/2+x,1/2+y,1/2+z
1/2-x,-y,1/2+z
1/2+x,1/2-y,1/2-z
1/2-x,y,1/2-z
1/2-x,1/2-y,1/2-z
1/2+x,y,1/2-z
1/2-x,1/2+y,1/2+z
1/2+x,-y,1/2+z
loop_
_atom_site_type_symbol
_atom_site_label
_atom_site_fract_x
_atom_site_fract_y
_atom_site_fract_z
Si Si1 0.000000 0.056628 0.407696
Si Si2 0.755858 0.172471 0.532295
Si Si3 0.000000 0.400208 0.947959
Si Si4 0.000000 0.043831 0.086834
Si Si5 0.500000 0.410814 0.946973
Si Si6 0.843692 0.750000 0.808233
Si Si7 0.259406 0.627789 0.609284
O O1 0.124977 0.091368 0.379986
O O2 0.000000 0.070869 0.480741
O O3 0.000000 0.977436 0.407521
O O4 0.768143 0.250000 0.540267
O O5 0.625060 0.143603 0.558874
O O6 0.873961 0.132856 0.560641
O O7 0.750112 0.156547 0.459645
O O8 0.000000 0.465926 0.908601
O O9 0.000000 0.430152 0.016727
O O10 0.871418 0.074458 0.113046
O O11 0.750000 0.750000 0.750000
O O12 0.801908 0.813469 0.847190
O O13 0.000000 0.750000 0.798013
#
# Coordination Sequence:
#
# PCOD9533973 Si02
#       7
#     8  16   8   8   8   8  16
#     4   9  18  29  46  65  86 115 156 198 231 267
#     4  10  17  26  42  64  92 126 158 188 229 271
#     4   9  17  24  41  64  88 110 155 199 226 266
#     4   9  16  29  44  63  82 115 150 198 239 271
#     4   9  17  28  39  64  94 118 153 197 222 264
#     4  12  26  40  52  70  92 116 160 212 258 294
#     4  10  19  32  50  62  85 119 159 197 241 281
#
# _framework density 15.363448999999999
#
# number of rings (size 3 to 8) (size 9 to 14) (size 15 to 20)
#    0.000    2.222    2.222    2.000    1.556    5.333 
#    0.000    0.000    0.000    0.000    0.000    0.000 
#    0.000    0.000    0.000    0.000    0.000   77.778 
#
# Total GULP energy -200509.825453 kJ/mol
# GULP energy per Si atom -5569.717374 kJ/mol
# Density = 1.532848 g / cm^3
# Si number density = 15.363449 Si / 1000 Ang^3
#
#
#
# Elastic Constant Matrix: (Units=GPa)
#
#
# Indices 1 2 3 4 5 6 
#
# 1 190.8693 97.3904 28.2592 0.0000 0.0000 0.0000
# 2 97.3904 158.5915 23.7364 0.0000 0.0000 0.0000
# 3 28.2592 23.7364 25.1021 0.0000 0.0000 0.0000
# 4 0.0000 0.0000 0.0000 6.3589 0.0000 0.0000
# 5 0.0000 0.0000 0.0000 0.0000 8.2293 0.0000
# 6 0.0000 0.0000 0.0000 0.0000 0.0000 -1.1438
#
#
#
# Elastic Compliance Matrix: (Units=1/GPa)
#
#
# Indices 1 2 3 4 5 6 
#
# 1 0.008172 -0.004242 -0.005189 0.000000 0.000000 0.000000
# 2 -0.004242 0.009547 -0.004252 0.000000 0.000000 0.000000
# 3 -0.005189 -0.004252 0.049699 0.000000 0.000000 0.000000
# 4 0.000000 0.000000 0.000000 0.157261 0.000000 0.000000
# 5 0.000000 0.000000 0.000000 0.000000 0.121518 0.000000
# 6 0.000000 0.000000 0.000000 0.000000 0.000000 -0.874301
#
#
# Mechanical properties :
#
#
# Convention : Reuss Voigt Hill
#
# Bulk Modulus (GPa) = 24.96701 74.81500 49.89101
# Shear Modulus (GPa) = -10.25875 17.70066 3.72096
#
# Velocity S-wave (km/s) = -2.58686 3.39798 1.55795
# Velocity P-wave (km/s) = 2.71361 8.01234 5.98169
#
# Compressibility (1/GPa) = 0.04005286
#
# Stress axis : x y z
#
# Youngs Moduli (GPa) = 122.37450 104.74831 20.12101
#
# Poissons Ratio (x) = 0.44430 0.10440
# Poissons Ratio (y) = 0.51906 0.08556
# Poissons Ratio (z) = 0.63494 0.44542
#
# Static dielectric constant tensor:
#      x y z
#    x 1.521350 0.000000 0.000000 
#    y 0.000000 1.503670 0.000000 
#    z 0.000000 0.000000 1.495020 
# 
# From -- ./inp_files/56847.got.cif
#   From: 2010.05.17/outbox.cif.g08.bks.cpg/sg74_29_cif.got.tgz:56847.got - 2010.06.03 17:57:02.
