data_PCOD9533008
_publ_section_title
;
Structure prediction by ZEFSAII (Michael W. Deem and Ramdas Pophale) SiO2 
 PCOD9533008
Probable space group: I B C A 
;
_chemical_formula_sum "Si O2"
_cell_formula_units_Z 72
_cell_length_a 15.034902
_cell_length_b 8.032644
_cell_length_c 22.610963
_cell_angle_alpha 90.000000
_cell_angle_beta 90.000000
_cell_angle_gamma 90.000000
_cell_volume 2730.726348
_symmetry_space_group_name_H-M "I B C A "
_symmetry_group_IT_number 73
_symmetry_cell_setting 'orthorhombic'
loop_
_space_group_symop_operation_xyz
x,y,z
-x,1/2-y,z
x,-y,1/2-z
1/2-x,y,-z
-x,-y,-z
x,1/2+y,-z
-x,y,1/2+z
1/2+x,-y,z
1/2+x,1/2+y,1/2+z
1/2-x,-y,1/2+z
1/2+x,1/2-y,-z
-x,1/2+y,1/2-z
1/2-x,1/2-y,1/2-z
1/2+x,y,1/2-z
1/2-x,1/2+y,z
x,1/2-y,1/2+z
loop_
_atom_site_type_symbol
_atom_site_label
_atom_site_fract_x
_atom_site_fract_y
_atom_site_fract_z
Si Si1 0.000000 0.250000 0.946878
Si Si2 0.535859 0.926911 0.634481
Si Si3 0.726718 0.544680 0.369279
Si Si4 0.321789 0.157692 0.547784
Si Si5 0.750000 0.250000 0.250000
Si Si6 0.416233 0.000000 0.750000
O O1 0.084568 0.312842 0.982481
O O2 0.978835 0.410083 0.906147
O O3 0.500000 0.750000 0.611903
O O4 0.644184 0.918000 0.640783
O O5 0.482328 0.961373 0.695126
O O6 0.702532 0.671222 0.420809
O O7 0.815501 0.463681 0.396076
O O8 0.737777 0.631701 0.307259
O O9 0.250000 0.110221 0.500000
O O10 0.850690 0.341938 0.261714
#
# Coordination Sequence:
#
# PCOD9533008 Si02
#       6
#     8  16  16  16   8   8
#     4  10  24  52  76 112 160 204 268 338 408 484
#     4  11  27  47  72 111 156 211 267 332 406 495
#     4  11  26  47  75 113 159 203 266 333 404 487
#     4  11  25  50  79 114 154 208 267 334 403 486
#     4  12  26  46  74 112 154 212 260 332 410 490
#     4  12  28  42  70 108 158 208 270 320 414 490
#
# _framework density 26.366612
#
# number of rings (size 3 to 8) (size 9 to 14) (size 15 to 20)
#    0.000    0.889    0.000    6.000   14.000    0.000 
#    2.000    3.333    0.000    0.000    0.000    0.000 
#    0.000    0.000    0.000    0.000    0.000    0.000 
#
# Total GULP energy -200634.285093 kJ/mol
# GULP energy per Si atom -5573.174586 kJ/mol
# Density = 2.630660 g / cm^3
# Si number density = 26.366612 Si / 1000 Ang^3
#
#
#
# Elastic Constant Matrix: (Units=GPa)
#
#
# Indices 1 2 3 4 5 6 
#
# 1 120.4256 21.7814 46.0580 0.0000 0.0000 0.0000
# 2 21.7814 116.0833 37.5181 0.0000 0.0000 0.0000
# 3 46.0580 37.5181 115.7877 0.0000 0.0000 0.0000
# 4 0.0000 0.0000 0.0000 25.5272 0.0000 0.0000
# 5 0.0000 0.0000 0.0000 0.0000 66.2812 0.0000
# 6 0.0000 0.0000 0.0000 0.0000 0.0000 37.0955
#
#
#
# Elastic Compliance Matrix: (Units=1/GPa)
#
#
# Indices 1 2 3 4 5 6 
#
# 1 0.009837 -0.000649 -0.003703 0.000000 0.000000 0.000000
# 2 -0.000649 0.009665 -0.002873 0.000000 0.000000 0.000000
# 3 -0.003703 -0.002873 0.011040 0.000000 0.000000 0.000000
# 4 0.000000 0.000000 0.000000 0.039174 0.000000 0.000000
# 5 0.000000 0.000000 0.000000 0.000000 0.015087 0.000000
# 6 0.000000 0.000000 0.000000 0.000000 0.000000 0.026957
#
#
# Mechanical properties :
#
#
# Convention : Reuss Voigt Hill
#
# Bulk Modulus (GPa) = 62.14226 62.55684 62.34955
# Shear Modulus (GPa) = 38.00071 42.24337 40.12204
#
# Velocity S-wave (km/s) = 3.80049 4.00703 3.90513
# Velocity P-wave (km/s) = 6.54813 6.72203 6.63565
#
# Compressibility (1/GPa) = 0.01609211
#
# Stress axis : x y z
#
# Youngs Moduli (GPa) = 101.65221 103.46595 90.57573
#
# Poissons Ratio (x) = 0.06716 0.33539
# Poissons Ratio (y) = 0.06598 0.26027
# Poissons Ratio (z) = 0.37640 0.29731
#
# Static dielectric constant tensor:
#      x y z
#    x 2.221000 0.000000 0.000000 
#    y 0.000000 2.098090 0.000000 
#    z 0.000000 0.000000 2.053150 
# 
# From -- ./inp_files/32045.got.cif
#   From: 2010.05.17/outbox.cif.g08.bks.cpg/sg73_17_cif.got.tgz:32045.got - 2010.06.03 17:35:07.
