data_PCOD9533996
_publ_section_title
;
Structure prediction by ZEFSAII (Michael W. Deem and Ramdas Pophale) SiO2 
 PCOD9533996
Probable space group: I M M A
;
_chemical_formula_sum "Si O2"
_cell_formula_units_Z 96
_cell_length_a 9.084897
_cell_length_b 26.991155
_cell_length_c 29.588461
_cell_angle_alpha 90.000000
_cell_angle_beta 90.000000
_cell_angle_gamma 90.000000
_cell_volume 7255.441648
_symmetry_space_group_name_H-M "I M M A"
_symmetry_group_IT_number 74
_symmetry_cell_setting 'orthorhombic'
loop_
_space_group_symop_operation_xyz
x,y,z
-x,1/2-y,z
x,-y,-z
-x,1/2+y,-z
-x,-y,-z
x,1/2+y,-z
-x,y,z
x,1/2-y,z
1/2+x,1/2+y,1/2+z
1/2-x,-y,1/2+z
1/2+x,1/2-y,1/2-z
1/2-x,y,1/2-z
1/2-x,1/2-y,1/2-z
1/2+x,y,1/2-z
1/2-x,1/2+y,1/2+z
1/2+x,-y,1/2+z
loop_
_atom_site_type_symbol
_atom_site_label
_atom_site_fract_x
_atom_site_fract_y
_atom_site_fract_z
Si Si1 0.322888 0.103848 0.554603
Si Si2 0.823802 0.010615 0.604991
Si Si3 0.676392 0.307382 0.894123
Si Si4 0.676087 0.152905 0.796255
Si Si5 0.669493 0.048889 0.467855
Si Si6 0.824128 0.963873 0.296055
O O1 0.500000 0.100876 0.558431
O O2 0.250500 0.059886 0.584143
O O3 0.261146 0.155099 0.573390
O O4 0.285014 0.092371 0.502142
O O5 0.768394 0.035157 0.425174
O O6 0.782623 0.008548 0.657769
O O7 0.000000 0.015697 0.601755
O O8 0.500000 0.316460 0.897508
O O9 0.704565 0.250000 0.904145
O O10 0.718783 0.319266 0.842116
O O11 0.500000 0.156628 0.791512
O O12 0.750000 0.170854 0.750000
O O13 0.714103 0.094554 0.801865
O O14 0.500000 0.056009 0.453821
O O15 0.672785 0.000000 0.500000
O O16 0.750000 0.981657 0.250000
O O17 0.000000 0.966466 0.291177
#
# Coordination Sequence:
#
# PCOD9533996 Si02
#       6
#    16  16  16  16  16  16
#     4  10  19  30  43  58  79 101 125 160 197 239
#     4  10  17  27  43  62  80 100 128 160 193 233
#     4  10  20  33  46  58  75  99 128 166 209 246
#     4   9  17  30  42  55  73  95 126 165 206 244
#     4   8  16  28  40  59  81 100 122 152 193 234
#     4   9  17  27  39  56  78 102 130 161 195 234
#
# _framework density 13.231449
#
# number of rings (size 3 to 8) (size 9 to 14) (size 15 to 20)
#    0.000    2.667    1.667    2.000    0.000    6.333 
#    0.000    0.000    0.000    0.000    0.000    0.000 
#    0.000    0.000    0.000    0.000    0.000    0.833 
#
# Total GULP energy -267368.806687 kJ/mol
# GULP energy per Si atom -5570.183473 kJ/mol
# Density = 1.320133 g / cm^3
# Si number density = 13.231449 Si / 1000 Ang^3
#
#
#
# Elastic Constant Matrix: (Units=GPa)
#
#
# Indices 1 2 3 4 5 6 
#
# 1 37.7464 28.6023 49.5365 0.0000 0.0000 0.0000
# 2 28.6023 50.3138 51.6888 0.0000 0.0000 0.0000
# 3 49.5365 51.6888 109.1432 0.0000 0.0000 0.0000
# 4 0.0000 0.0000 0.0000 18.2049 0.0000 0.0000
# 5 0.0000 0.0000 0.0000 0.0000 24.7551 0.0000
# 6 0.0000 0.0000 0.0000 0.0000 0.0000 90.1362
#
#
#
# Elastic Compliance Matrix: (Units=1/GPa)
#
#
# Indices 1 2 3 4 5 6 
#
# 1 0.070226 -0.013979 -0.025253 0.000000 0.000000 0.000000
# 2 -0.013979 0.041490 -0.013305 0.000000 0.000000 0.000000
# 3 -0.025253 -0.013305 0.026925 0.000000 0.000000 0.000000
# 4 0.000000 0.000000 0.000000 0.054930 0.000000 0.000000
# 5 0.000000 0.000000 0.000000 0.000000 0.040396 0.000000
# 6 0.000000 0.000000 0.000000 0.000000 0.000000 0.011094
#
#
# Mechanical properties :
#
#
# Convention : Reuss Voigt Hill
#
# Bulk Modulus (GPa) = 29.79052 50.76207 40.27629
# Shear Modulus (GPa) = 13.83805 31.11096 22.47450
#
# Velocity S-wave (km/s) = 3.23746 4.85427 4.12584
# Velocity P-wave (km/s) = 6.04472 8.35862 7.29401
#
# Compressibility (1/GPa) = 0.03356773
#
# Stress axis : x y z
#
# Youngs Moduli (GPa) = 14.23983 24.10214 37.14059
#
# Poissons Ratio (x) = 0.33691 0.93791
# Poissons Ratio (y) = 0.19905 0.49415
# Poissons Ratio (z) = 0.35960 0.32067
#
# Static dielectric constant tensor:
#      x y z
#    x 1.443060 0.000000 0.000000 
#    y 0.000000 1.416910 0.000000 
#    z 0.000000 0.000000 1.443620 
# 
# From -- ./inp_files/59232.got.cif
#   From: 2010.05.17/outbox.cif.g08.bks.cpg/sg74_30_cif.got.tgz:59232.got - 2010.06.03 17:57:02.
