data_PCOD9533375
_publ_section_title
;
Structure prediction by ZEFSAII (Michael W. Deem and Ramdas Pophale) SiO2 
 PCOD9533375
Probable space group: I B C A 
;
_chemical_formula_sum "Si O2"
_cell_formula_units_Z 72
_cell_length_a 15.988848
_cell_length_b 19.461473
_cell_length_c 11.092531
_cell_angle_alpha 90.000000
_cell_angle_beta 90.000000
_cell_angle_gamma 90.000000
_cell_volume 3451.624421
_symmetry_space_group_name_H-M "I B C A "
_symmetry_group_IT_number 73
_symmetry_cell_setting 'orthorhombic'
loop_
_space_group_symop_operation_xyz
x,y,z
-x,1/2-y,z
x,-y,1/2-z
1/2-x,y,-z
-x,-y,-z
x,1/2+y,-z
-x,y,1/2+z
1/2+x,-y,z
1/2+x,1/2+y,1/2+z
1/2-x,-y,1/2+z
1/2+x,1/2-y,-z
-x,1/2+y,1/2-z
1/2-x,1/2-y,1/2-z
1/2+x,y,1/2-z
1/2-x,1/2+y,z
x,1/2-y,1/2+z
loop_
_atom_site_type_symbol
_atom_site_label
_atom_site_fract_x
_atom_site_fract_y
_atom_site_fract_z
Si Si1 0.114114 0.397383 0.314066
Si Si2 0.160029 0.963877 0.938110
Si Si3 0.053444 0.634531 0.587315
Si Si4 0.000000 0.250000 0.095932
Si Si5 0.346264 0.250832 0.215070
O O1 0.151675 0.419524 0.185106
O O2 0.139342 0.457925 0.403930
O O3 0.143991 0.322121 0.351206
O O4 0.013693 0.388806 0.313141
O O5 0.250000 0.958337 0.000000
O O6 0.092141 0.931943 0.026863
O O7 0.007647 0.683110 0.489056
O O8 0.126532 0.683261 0.638346
O O9 0.083608 0.249989 0.178466
O O10 0.250000 0.250000 0.250000
#
# Coordination Sequence:
#
# PCOD9533375 Si02
#       5
#    16  16  16   8  16
#     4  11  23  45  65 101 139 182 241 287 347 442
#     4  11  25  44  69  99 143 185 233 292 357 427
#     4  12  22  44  72 100 139 188 229 296 362 420
#     4  12  22  42  68 100 144 176 234 294 358 410
#     4  12  24  41  69 105 138 184 241 294 348 425
#
# _framework density 20.859743000000002
#
# number of rings (size 3 to 8) (size 9 to 14) (size 15 to 20)
#    0.000    0.444    6.667    2.000    0.000    1.778 
#    0.000   13.333    0.000    0.000    0.000    0.000 
#    0.000    0.000    0.000    0.000    0.000    0.000 
#
# Total GULP energy -201150.684254 kJ/mol
# GULP energy per Si atom -5587.519007 kJ/mol
# Density = 2.081227 g / cm^3
# Si number density = 20.859743 Si / 1000 Ang^3
#
#
#
# Elastic Constant Matrix: (Units=GPa)
#
#
# Indices 1 2 3 4 5 6 
#
# 1 160.6179 60.2183 55.5607 0.0000 0.0000 0.0000
# 2 60.2183 85.3693 42.7305 0.0000 0.0000 0.0000
# 3 55.5607 42.7305 71.0160 0.0000 0.0000 0.0000
# 4 0.0000 0.0000 0.0000 32.8476 0.0000 0.0000
# 5 0.0000 0.0000 0.0000 0.0000 20.4563 0.0000
# 6 0.0000 0.0000 0.0000 0.0000 0.0000 30.2531
#
#
#
# Elastic Compliance Matrix: (Units=1/GPa)
#
#
# Indices 1 2 3 4 5 6 
#
# 1 0.009513 -0.004271 -0.004872 0.000000 0.000000 0.000000
# 2 -0.004271 0.018680 -0.007898 0.000000 0.000000 0.000000
# 3 -0.004872 -0.007898 0.022646 0.000000 0.000000 0.000000
# 4 0.000000 0.000000 0.000000 0.030444 0.000000 0.000000
# 5 0.000000 0.000000 0.000000 0.000000 0.048885 0.000000
# 6 0.000000 0.000000 0.000000 0.000000 0.000000 0.033054
#
#
# Mechanical properties :
#
#
# Convention : Reuss Voigt Hill
#
# Bulk Modulus (GPa) = 59.68439 70.44692 65.06566
# Shear Modulus (GPa) = 24.64392 27.27767 25.96079
#
# Velocity S-wave (km/s) = 3.44089 3.62010 3.53163
# Velocity P-wave (km/s) = 6.66788 7.16369 6.92023
#
# Compressibility (1/GPa) = 0.01675480
#
# Stress axis : x y z
#
# Youngs Moduli (GPa) = 105.12120 53.53307 44.15863
#
# Poissons Ratio (x) = 0.22866 0.21516
# Poissons Ratio (y) = 0.44901 0.34877
# Poissons Ratio (z) = 0.51220 0.42281
#
# Static dielectric constant tensor:
#      x y z
#    x 1.775610 0.000000 0.000000 
#    y 0.000000 1.649820 0.000000 
#    z 0.000000 0.000000 1.779520 
# 
# From -- ./inp_files/10654.got.cif
#   From: 2010.05.17/outbox.cif.g08.bks.cpg/sg73_6_cif.got.tgz:10654.got - 2010.06.03 17:35:07.
