data_PCOD9533861
_publ_section_title
;
Structure prediction by ZEFSAII (Michael W. Deem and Ramdas Pophale) SiO2 
 PCOD9533861
Probable space group: I M M A
;
_chemical_formula_sum "Si O2"
_cell_formula_units_Z 64
_cell_length_a 14.472735
_cell_length_b 22.132174
_cell_length_c 9.654036
_cell_angle_alpha 90.000000
_cell_angle_beta 90.000000
_cell_angle_gamma 90.000000
_cell_volume 3092.314095
_symmetry_space_group_name_H-M "I M M A"
_symmetry_group_IT_number 74
_symmetry_cell_setting 'orthorhombic'
loop_
_space_group_symop_operation_xyz
x,y,z
-x,1/2-y,z
x,-y,-z
-x,1/2+y,-z
-x,-y,-z
x,1/2+y,-z
-x,y,z
x,1/2-y,z
1/2+x,1/2+y,1/2+z
1/2-x,-y,1/2+z
1/2+x,1/2-y,1/2-z
1/2-x,y,1/2-z
1/2-x,1/2-y,1/2-z
1/2+x,y,1/2-z
1/2-x,1/2+y,1/2+z
1/2+x,-y,1/2+z
loop_
_atom_site_type_symbol
_atom_site_label
_atom_site_fract_x
_atom_site_fract_y
_atom_site_fract_z
Si Si1 0.391469 0.681048 0.318309
Si Si2 0.697862 0.593060 0.517851
Si Si3 0.394977 0.085979 0.934608
Si Si4 0.608275 0.002377 0.305044
O O1 0.500000 0.678216 0.353837
O O2 0.366558 0.750000 0.286310
O O3 0.336406 0.654872 0.449154
O O4 0.381668 0.637731 0.184410
O O5 0.807519 0.592955 0.532273
O O6 0.646417 0.567552 0.652578
O O7 0.666687 0.544673 0.398539
O O8 0.500000 0.090758 0.989104
O O9 0.386178 0.023043 0.849785
O O10 0.500000 0.997961 0.342045
#
# Coordination Sequence:
#
# PCOD9533861 Si02
#       4
#    16  16  16  16
#     4   9  16  25  38  58  82 107 135 165 197 235
#     4  10  16  25  42  59  79 107 136 164 199 239
#     4   9  18  29  40  57  84 113 137 165 200 239
#     4   9  16  27  42  59  78 103 136 169 204 241
#
# _framework density 20.696475
#
# number of rings (size 3 to 8) (size 9 to 14) (size 15 to 20)
#    0.000    2.750    0.000    7.500    0.000    2.000 
#    0.000    2.500    0.000    4.500    0.000    0.000 
#    0.000   36.000    0.000    9.000    0.000   16.250 
#
# Total GULP energy -178623.663964 kJ/mol
# GULP energy per Si atom -5581.989499 kJ/mol
# Density = 2.064937 g / cm^3
# Si number density = 20.696475 Si / 1000 Ang^3
#
#
#
# Elastic Constant Matrix: (Units=GPa)
#
#
# Indices 1 2 3 4 5 6 
#
# 1 140.9064 37.8877 26.4639 0.0000 0.0000 0.0000
# 2 37.8877 80.9224 6.9724 0.0000 0.0000 0.0000
# 3 26.4639 6.9724 41.7537 0.0001 0.0000 0.0000
# 4 0.0000 0.0000 0.0001 17.3274 0.0000 0.0000
# 5 0.0000 0.0000 0.0000 0.0000 14.1240 0.0000
# 6 0.0000 0.0000 0.0000 0.0000 0.0000 16.6341
#
#
#
# Elastic Compliance Matrix: (Units=1/GPa)
#
#
# Indices 1 2 3 4 5 6 
#
# 1 0.009084 -0.003812 -0.005121 0.000000 0.000000 0.000000
# 2 -0.003812 0.014137 0.000055 0.000000 0.000000 0.000000
# 3 -0.005121 0.000055 0.027186 0.000000 0.000000 0.000000
# 4 0.000000 0.000000 0.000000 0.057712 0.000000 0.000000
# 5 0.000000 0.000000 0.000000 0.000000 0.070802 0.000000
# 6 0.000000 0.000000 0.000000 0.000000 0.000000 0.060118
#
#
# Mechanical properties :
#
#
# Convention : Reuss Voigt Hill
#
# Bulk Modulus (GPa) = 30.62537 45.13670 37.88103
# Shear Modulus (GPa) = 18.67921 22.43433 20.55677
#
# Velocity S-wave (km/s) = 3.00747 3.29594 3.15501
# Velocity P-wave (km/s) = 5.18550 6.02831 5.62272
#
# Compressibility (1/GPa) = 0.03265267
#
# Stress axis : x y z
#
# Youngs Moduli (GPa) = 110.08912 70.73435 36.78317
#
# Poissons Ratio (x) = 0.26962 0.18836
# Poissons Ratio (y) = 0.41963 -0.00203
# Poissons Ratio (z) = 0.56374 -0.00390
#
# Static dielectric constant tensor:
#      x y z
#    x 1.760720 0.000000 0.000000 
#    y 0.000000 1.759660 0.000000 
#    z 0.000000 0.000000 1.801910 
# 
# From -- ./inp_files/8818.got.cif
#   From: 2010.05.17/outbox.cif.g08.bks.cpg/sg74_5_cif.got.tgz:8818.got - 2010.06.03 17:57:02.
