data_PCOD9533997
_publ_section_title
;
Structure prediction by ZEFSAII (Michael W. Deem and Ramdas Pophale) SiO2 
 PCOD9533997
Probable space group: I M M A
;
_chemical_formula_sum "Si O2"
_cell_formula_units_Z 96
_cell_length_a 9.338381
_cell_length_b 28.875363
_cell_length_c 26.748209
_cell_angle_alpha 90.000000
_cell_angle_beta 90.000000
_cell_angle_gamma 90.000000
_cell_volume 7212.631586
_symmetry_space_group_name_H-M "I M M A"
_symmetry_group_IT_number 74
_symmetry_cell_setting 'orthorhombic'
loop_
_space_group_symop_operation_xyz
x,y,z
-x,1/2-y,z
x,-y,-z
-x,1/2+y,-z
-x,-y,-z
x,1/2+y,-z
-x,y,z
x,1/2-y,z
1/2+x,1/2+y,1/2+z
1/2-x,-y,1/2+z
1/2+x,1/2-y,1/2-z
1/2-x,y,1/2-z
1/2-x,1/2-y,1/2-z
1/2+x,y,1/2-z
1/2-x,1/2+y,1/2+z
1/2+x,-y,1/2+z
loop_
_atom_site_type_symbol
_atom_site_label
_atom_site_fract_x
_atom_site_fract_y
_atom_site_fract_z
Si Si1 0.171125 0.108996 0.199702
Si Si2 0.169173 0.891441 0.996899
Si Si3 0.668430 0.452683 0.397004
Si Si4 0.169411 0.803109 0.537590
Si Si5 0.664873 0.030667 0.948961
Si Si6 0.169295 0.803377 0.657415
O O1 0.250000 0.093728 0.250000
O O2 0.202416 0.074308 0.153811
O O3 0.234313 0.159145 0.184909
O O4 0.000000 0.111494 0.206129
O O5 0.239195 0.841271 0.990884
O O6 0.246975 0.923353 0.037829
O O7 0.000000 0.889014 0.006079
O O8 0.190646 0.917547 0.943525
O O9 0.500000 0.464871 0.397103
O O10 0.761315 0.498082 0.407884
O O11 0.204480 0.750000 0.524376
O O12 0.191374 0.807788 0.597528
O O13 0.000000 0.810447 0.528774
O O14 0.500000 0.040784 0.937261
O O15 0.667646 0.000000 0.000000
O O16 0.200715 0.750000 0.671110
O O17 0.000000 0.811776 0.667082
#
# Coordination Sequence:
#
# PCOD9533997 Si02
#       6
#    16  16  16  16  16  16
#     4  11  22  34  46  61  78 102 134 170 213 255
#     4  10  17  27  43  62  83 105 130 163 201 241
#     4   9  18  31  43  58  80 102 127 164 206 245
#     4   9  17  28  42  60  82 107 135 168 205 244
#     4   9  17  27  42  63  81 101 128 157 196 242
#     4   9  18  32  47  60  75  99 132 172 216 255
#
# _framework density 13.309983000000001
#
# number of rings (size 3 to 8) (size 9 to 14) (size 15 to 20)
#    0.000    2.500    1.667    2.500    0.000    5.000 
#    0.000    1.667    0.000    0.000    0.000    0.000 
#    0.000    0.000    0.000    0.000    0.000    0.833 
#
# Total GULP energy -267596.802562 kJ/mol
# GULP energy per Si atom -5574.933387 kJ/mol
# Density = 1.327969 g / cm^3
# Si number density = 13.309983 Si / 1000 Ang^3
#
#
#
# Elastic Constant Matrix: (Units=GPa)
#
#
# Indices 1 2 3 4 5 6 
#
# 1 80.7896 69.1735 45.0016 0.0000 0.0000 0.0000
# 2 69.1735 84.0499 44.1486 0.0000 0.0000 0.0000
# 3 45.0016 44.1486 50.0426 0.0000 0.0000 0.0000
# 4 0.0000 0.0000 0.0000 13.0306 0.0000 0.0000
# 5 0.0000 0.0000 0.0000 0.0000 17.7267 0.0000
# 6 0.0000 0.0000 0.0000 0.0000 0.0000 27.6415
#
#
#
# Elastic Compliance Matrix: (Units=1/GPa)
#
#
# Indices 1 2 3 4 5 6 
#
# 1 0.047479 -0.031026 -0.015324 0.000000 0.000000 0.000000
# 2 -0.031026 0.042447 -0.009547 0.000000 0.000000 0.000000
# 3 -0.015324 -0.009547 0.042186 0.000000 0.000000 0.000000
# 4 0.000000 0.000000 0.000000 0.076742 0.000000 0.000000
# 5 0.000000 0.000000 0.000000 0.000000 0.056412 0.000000
# 6 0.000000 0.000000 0.000000 0.000000 0.000000 0.036178
#
#
# Mechanical properties :
#
#
# Convention : Reuss Voigt Hill
#
# Bulk Modulus (GPa) = 49.21899 59.05884 54.13892
# Shear Modulus (GPa) = 11.90446 15.45033 13.67739
#
# Velocity S-wave (km/s) = 2.99390 3.41076 3.20910
# Velocity P-wave (km/s) = 7.00075 7.74462 7.38206
#
# Compressibility (1/GPa) = 0.02031736
#
# Stress axis : x y z
#
# Youngs Moduli (GPa) = 21.06202 23.55876 23.70453
#
# Poissons Ratio (x) = 0.73094 0.36325
# Poissons Ratio (y) = 0.65347 0.22631
# Poissons Ratio (z) = 0.32276 0.22492
#
# Static dielectric constant tensor:
#      x y z
#    x 1.440610 0.000000 0.000000 
#    y 0.000000 1.424490 0.000000 
#    z 0.000000 0.000000 1.414830 
# 
# From -- ./inp_files/49033.got.cif
#   From: 2010.05.17/outbox.cif.g08.bks.cpg/sg74_25_cif.got.tgz:49033.got - 2010.06.03 17:57:02.
