data_PCOD9533862
_publ_section_title
;
Structure prediction by ZEFSAII (Michael W. Deem and Ramdas Pophale) SiO2 
 PCOD9533862
Probable space group: I M M A
;
_chemical_formula_sum "Si O2"
_cell_formula_units_Z 112
_cell_length_a 18.882523
_cell_length_b 24.333655
_cell_length_c 18.340566
_cell_angle_alpha 90.000000
_cell_angle_beta 90.000000
_cell_angle_gamma 90.000000
_cell_volume 8427.137942
_symmetry_space_group_name_H-M "I M M A"
_symmetry_group_IT_number 74
_symmetry_cell_setting 'orthorhombic'
loop_
_space_group_symop_operation_xyz
x,y,z
-x,1/2-y,z
x,-y,-z
-x,1/2+y,-z
-x,-y,-z
x,1/2+y,-z
-x,y,z
x,1/2-y,z
1/2+x,1/2+y,1/2+z
1/2-x,-y,1/2+z
1/2+x,1/2-y,1/2-z
1/2-x,y,1/2-z
1/2-x,1/2-y,1/2-z
1/2+x,y,1/2-z
1/2-x,1/2+y,1/2+z
1/2+x,-y,1/2+z
loop_
_atom_site_type_symbol
_atom_site_label
_atom_site_fract_x
_atom_site_fract_y
_atom_site_fract_z
Si Si1 0.141784 0.187773 0.104204
Si Si2 0.722062 0.979307 0.833847
Si Si3 0.915285 0.413193 0.016921
Si Si4 0.219260 0.647520 0.667389
Si Si5 0.918703 0.352781 0.258877
Si Si6 0.419176 0.514387 0.768237
Si Si7 0.134863 0.517146 0.112535
O O1 0.124037 0.250000 0.084961
O O2 0.117050 0.143397 0.045482
O O3 0.225808 0.181666 0.119836
O O4 0.103764 0.171708 0.180795
O O5 0.750000 0.978934 0.750000
O O6 0.780342 0.012797 0.878302
O O7 0.722416 0.915767 0.858450
O O8 0.641366 0.999274 0.827256
O O9 0.890963 0.461701 0.071842
O O10 0.000000 0.410625 0.018328
O O11 0.889116 0.432752 0.937756
O O12 0.250000 0.648153 0.750000
O O13 0.138229 0.665189 0.680079
O O14 0.912175 0.419513 0.254122
O O15 0.000000 0.339299 0.274897
O O16 0.500000 0.503535 0.789477
O O17 0.400105 0.484674 0.692389
#
# Coordination Sequence:
#
# PCOD9533862 Si02
#       7
#    16  16  16  16  16  16  16
#     4  11  20  29  38  49  73 106 137 164 187 220
#     4   8  13  23  39  56  77  99 122 154 191 225
#     4  11  20  27  37  55  74 100 133 160 186 216
#     4   8  14  26  37  51  72  98 130 161 190 219
#     4   9  16  25  38  55  76 101 130 162 193 216
#     4   9  14  23  40  61  82 101 120 153 193 228
#     4  10  16  26  40  56  77 100 126 158 185 223
#
# _framework density 13.290395999999999
#
# number of rings (size 3 to 8) (size 9 to 14) (size 15 to 20)
#    0.000    2.571    2.857    3.857    0.000    3.714 
#    0.000    0.000    0.000    0.000    0.000    3.000 
#    0.000    5.143    0.000    0.286    0.000    0.000 
#
# Total GULP energy -311779.894094 kJ/mol
# GULP energy per Si atom -5567.498109 kJ/mol
# Density = 1.326015 g / cm^3
# Si number density = 13.290396 Si / 1000 Ang^3
#
#
#
# Elastic Constant Matrix: (Units=GPa)
#
#
# Indices 1 2 3 4 5 6 
#
# 1 130.2523 35.7193 27.9530 0.0000 0.0000 0.0000
# 2 35.7193 58.5679 26.8817 0.0000 0.0000 0.0000
# 3 27.9530 26.8817 26.3140 0.0000 0.0000 0.0000
# 4 0.0000 0.0000 0.0000 9.1417 0.0000 0.0000
# 5 0.0000 0.0000 0.0000 0.0000 17.1024 0.0000
# 6 0.0000 0.0000 0.0000 0.0000 0.0000 5.1136
#
#
#
# Elastic Compliance Matrix: (Units=1/GPa)
#
#
# Indices 1 2 3 4 5 6 
#
# 1 0.010110 -0.002328 -0.008362 0.000000 0.000000 0.000000
# 2 -0.002328 0.032684 -0.030916 0.000000 0.000000 0.000000
# 3 -0.008362 -0.030916 0.078468 0.000000 0.000000 0.000000
# 4 0.000000 0.000000 0.000000 0.109389 0.000000 0.000000
# 5 0.000000 0.000000 0.000000 0.000000 0.058471 0.000000
# 6 0.000000 0.000000 0.000000 0.000000 0.000000 0.195558
#
#
# Mechanical properties :
#
#
# Convention : Reuss Voigt Hill
#
# Bulk Modulus (GPa) = 26.28066 44.02693 35.15379
# Shear Modulus (GPa) = 8.61213 14.57687 11.59450
#
# Velocity S-wave (km/s) = 2.54834 3.31539 2.95684
# Velocity P-wave (km/s) = 5.33627 6.91769 6.17780
#
# Compressibility (1/GPa) = 0.03805080
#
# Stress axis : x y z
#
# Youngs Moduli (GPa) = 98.90857 30.59596 12.74403
#
# Poissons Ratio (x) = 0.07123 0.10656
# Poissons Ratio (y) = 0.23028 0.39399
# Poissons Ratio (z) = 0.82704 0.94590
#
# Static dielectric constant tensor:
#      x y z
#    x 1.487470 0.000000 0.000000 
#    y 0.000000 1.428050 0.000000 
#    z 0.000000 0.000000 1.418250 
# 
# From -- ./inp_files/53373.got.cif
#   From: 2010.05.17/outbox.cif.g08.bks.cpg/sg74_27_cif.got.tgz:53373.got - 2010.06.03 17:57:02.
