data_PCOD9533294
_publ_section_title
;
Structure prediction by ZEFSAII (Michael W. Deem and Ramdas Pophale) SiO2 
 PCOD9533294
Probable space group: I B C A 
;
_chemical_formula_sum "Si O2"
_cell_formula_units_Z 72
_cell_length_a 14.293223
_cell_length_b 20.999211
_cell_length_c 12.062027
_cell_angle_alpha 90.000000
_cell_angle_beta 90.000000
_cell_angle_gamma 90.000000
_cell_volume 3620.374049
_symmetry_space_group_name_H-M "I B C A "
_symmetry_group_IT_number 73
_symmetry_cell_setting 'orthorhombic'
loop_
_space_group_symop_operation_xyz
x,y,z
-x,1/2-y,z
x,-y,1/2-z
1/2-x,y,-z
-x,-y,-z
x,1/2+y,-z
-x,y,1/2+z
1/2+x,-y,z
1/2+x,1/2+y,1/2+z
1/2-x,-y,1/2+z
1/2+x,1/2-y,-z
-x,1/2+y,1/2-z
1/2-x,1/2-y,1/2-z
1/2+x,y,1/2-z
1/2-x,1/2+y,z
x,1/2-y,1/2+z
loop_
_atom_site_type_symbol
_atom_site_label
_atom_site_fract_x
_atom_site_fract_y
_atom_site_fract_z
Si Si1 0.120778 0.600262 0.436470
Si Si2 0.643212 0.251195 0.489054
Si Si3 0.500000 0.750000 0.820092
Si Si4 0.055639 0.144052 0.167634
Si Si5 0.310290 0.564547 0.320297
O O1 0.137536 0.676592 0.445080
O O2 0.201750 0.575422 0.354130
O O3 0.137752 0.570471 0.559247
O O4 0.014519 0.594550 0.391961
O O5 0.750000 0.232991 0.500000
O O6 0.591237 0.253970 0.605315
O O7 0.592323 0.197393 0.417346
O O8 0.493796 0.685610 0.751470
O O9 0.140716 0.115168 0.238071
O O10 0.319195 0.500000 0.250000
#
# Coordination Sequence:
#
# PCOD9533294 Si02
#       5
#    16  16   8  16  16
#     4  11  22  46  68  94 138 173 227 290 339 406
#     4  12  22  38  65 105 138 170 214 285 345 421
#     4  12  20  38  64 106 142 168 218 266 370 410
#     4  12  23  40  72 104 133 177 225 282 357 403
#     4  11  26  46  66  91 135 193 232 276 339 399
#
# _framework density 19.887449
#
# number of rings (size 3 to 8) (size 9 to 14) (size 15 to 20)
#    0.000    0.444    8.889    0.000    3.111    3.556 
#    4.000    0.000    0.000    0.000    0.000    0.000 
#    0.000    0.000    0.000    0.000    0.000    0.000 
#
# Total GULP energy -200901.162288 kJ/mol
# GULP energy per Si atom -5580.587841 kJ/mol
# Density = 1.984218 g / cm^3
# Si number density = 19.887449 Si / 1000 Ang^3
#
#
#
# Elastic Constant Matrix: (Units=GPa)
#
#
# Indices 1 2 3 4 5 6 
#
# 1 101.3513 15.7057 52.4565 0.0000 0.0000 0.0000
# 2 15.7057 84.3838 51.2703 0.0000 0.0000 0.0000
# 3 52.4565 51.2703 111.0186 0.0000 0.0002 0.0000
# 4 0.0000 0.0000 0.0000 33.9030 0.0000 0.0000
# 5 0.0000 0.0000 0.0002 0.0000 30.6115 0.0000
# 6 0.0000 0.0000 0.0000 0.0000 0.0000 18.3790
#
#
#
# Elastic Compliance Matrix: (Units=1/GPa)
#
#
# Indices 1 2 3 4 5 6 
#
# 1 0.013268 0.001862 -0.007129 0.000000 0.000000 0.000000
# 2 0.001862 0.016734 -0.008608 0.000000 0.000000 0.000000
# 3 -0.007129 -0.008608 0.016351 0.000000 0.000000 0.000000
# 4 0.000000 0.000000 0.000000 0.029496 0.000000 0.000000
# 5 0.000000 0.000000 0.000000 0.000000 0.032668 0.000000
# 6 0.000000 0.000000 0.000000 0.000000 0.000000 0.054410
#
#
# Mechanical properties :
#
#
# Convention : Reuss Voigt Hill
#
# Bulk Modulus (GPa) = 53.75347 59.51318 56.63333
# Shear Modulus (GPa) = 25.39652 28.40011 26.89832
#
# Velocity S-wave (km/s) = 3.57741 3.78304 3.68166
# Velocity P-wave (km/s) = 6.64465 7.00513 6.82727
#
# Compressibility (1/GPa) = 0.01860345
#
# Stress axis : x y z
#
# Youngs Moduli (GPa) = 75.36986 59.75833 61.15744
#
# Poissons Ratio (x) = -0.11127 0.43599
# Poissons Ratio (y) = -0.14034 0.52644
# Poissons Ratio (z) = 0.53731 0.51439
#
# Static dielectric constant tensor:
#      x y z
#    x 1.715000 0.000000 0.000000 
#    y 0.000000 1.699860 0.000000 
#    z 0.000000 0.000000 1.732000 
# 
# From -- ./inp_files/10608.got.cif
#   From: 2010.05.17/outbox.cif.g08.bks.cpg/sg73_6_cif.got.tgz:10608.got - 2010.06.03 17:35:07.
