data_PCOD9533479
_publ_section_title
;
Structure prediction by ZEFSAII (Michael W. Deem and Ramdas Pophale) SiO2 
 PCOD9533479
Probable space group: I B C A 
;
_chemical_formula_sum "Si O2"
_cell_formula_units_Z 64
_cell_length_a 31.250912
_cell_length_b 9.429911
_cell_length_c 10.060233
_cell_angle_alpha 90.000000
_cell_angle_beta 90.000000
_cell_angle_gamma 90.000000
_cell_volume 2964.683451
_symmetry_space_group_name_H-M "I B C A "
_symmetry_group_IT_number 73
_symmetry_cell_setting 'orthorhombic'
loop_
_space_group_symop_operation_xyz
x,y,z
-x,1/2-y,z
x,-y,1/2-z
1/2-x,y,-z
-x,-y,-z
x,1/2+y,-z
-x,y,1/2+z
1/2+x,-y,z
1/2+x,1/2+y,1/2+z
1/2-x,-y,1/2+z
1/2+x,1/2-y,-z
-x,1/2+y,1/2-z
1/2-x,1/2-y,1/2-z
1/2+x,y,1/2-z
1/2-x,1/2+y,z
x,1/2-y,1/2+z
loop_
_atom_site_type_symbol
_atom_site_label
_atom_site_fract_x
_atom_site_fract_y
_atom_site_fract_z
Si Si1 0.520851 0.092191 0.384226
Si Si2 0.121784 0.425541 0.608121
Si Si3 0.762041 0.000000 0.250000
Si Si4 0.750000 0.824515 0.000000
Si Si5 0.174553 0.847023 0.943490
O O1 0.500000 0.250000 0.374058
O O2 0.571439 0.096574 0.416338
O O3 0.515410 0.000000 0.250000
O O4 0.500000 0.000000 0.500000
O O5 0.126487 0.500000 0.750000
O O6 0.142660 0.272024 0.606273
O O7 0.147214 0.525588 0.504872
O O8 0.794001 0.896751 0.327750
O O9 0.738240 0.080479 0.370811
O O10 0.791004 0.730610 0.039848
#
# Coordination Sequence:
#
# PCOD9533479 Si02
#       5
#    16  16   8   8  16
#     4  11  24  47  74 108 142 187 235 294 362 435
#     4  11  26  45  70 103 142 182 234 293 351 422
#     4  12  26  46  70 102 134 194 236 296 344 416
#     4  12  26  46  74 100 142 188 240 290 350 412
#     4  12  25  46  69 103 141 185 240 288 354 409
#
# _framework density 21.587464000000001
#
# number of rings (size 3 to 8) (size 9 to 14) (size 15 to 20)
#    0.000    0.500    2.500    5.250    1.750    2.000 
#    4.500    0.000    0.000    0.000    0.000    0.000 
#    0.000    0.000    0.000    0.000    0.000    0.000 
#
# Total GULP energy -179013.933502 kJ/mol
# GULP energy per Si atom -5594.185422 kJ/mol
# Density = 2.153833 g / cm^3
# Si number density = 21.587464 Si / 1000 Ang^3
#
#
#
# Elastic Constant Matrix: (Units=GPa)
#
#
# Indices 1 2 3 4 5 6 
#
# 1 133.2937 66.8805 41.2463 0.0000 0.0000 0.0000
# 2 66.8805 152.1571 30.4245 0.0000 0.0000 0.0000
# 3 41.2463 30.4245 70.2774 0.0000 0.0000 0.0000
# 4 0.0000 0.0000 0.0000 30.9392 0.0000 0.0000
# 5 0.0000 0.0000 0.0000 0.0000 21.9989 0.0000
# 6 0.0000 0.0000 0.0000 0.0000 0.0000 45.9153
#
#
#
# Elastic Compliance Matrix: (Units=1/GPa)
#
#
# Indices 1 2 3 4 5 6 
#
# 1 0.010894 -0.003843 -0.004730 0.000000 0.000000 0.000000
# 2 -0.003843 0.008550 -0.001446 0.000000 0.000000 0.000000
# 3 -0.004730 -0.001446 0.017632 0.000000 0.000000 0.000000
# 4 0.000000 0.000000 0.000000 0.032322 0.000000 0.000000
# 5 0.000000 0.000000 0.000000 0.000000 0.045457 0.000000
# 6 0.000000 0.000000 0.000000 0.000000 0.000000 0.021779
#
#
# Mechanical properties :
#
#
# Convention : Reuss Voigt Hill
#
# Bulk Modulus (GPa) = 58.69355 70.31454 64.50404
# Shear Modulus (GPa) = 30.79744 34.24914 32.52329
#
# Velocity S-wave (km/s) = 3.78118 3.98745 3.88568
# Velocity P-wave (km/s) = 6.80521 7.33773 7.07648
#
# Compressibility (1/GPa) = 0.01703765
#
# Stress axis : x y z
#
# Youngs Moduli (GPa) = 91.79378 116.95396 56.71608
#
# Poissons Ratio (x) = 0.44941 0.26828
# Poissons Ratio (y) = 0.35273 0.08203
# Poissons Ratio (z) = 0.43420 0.16916
#
# Static dielectric constant tensor:
#      x y z
#    x 1.776970 0.000000 0.000000 
#    y 0.000000 1.865300 0.000000 
#    z 0.000000 0.000000 1.838010 
# 
# From -- ./inp_files/8247.got.cif
#   From: 2010.05.17/outbox.cif.g08.bks.cpg/sg73_5_cif.got.tgz:8247.got - 2010.06.03 17:35:07.
