data_PCOD9533301
_publ_section_title
;
Structure prediction by ZEFSAII (Michael W. Deem and Ramdas Pophale) SiO2 
 PCOD9533301
Probable space group: I B C A 
;
_chemical_formula_sum "Si O2"
_cell_formula_units_Z 104
_cell_length_a 9.458307
_cell_length_b 19.006522
_cell_length_c 25.257368
_cell_angle_alpha 90.000000
_cell_angle_beta 90.000000
_cell_angle_gamma 90.000000
_cell_volume 4540.504924
_symmetry_space_group_name_H-M "I B C A "
_symmetry_group_IT_number 73
_symmetry_cell_setting 'orthorhombic'
loop_
_space_group_symop_operation_xyz
x,y,z
-x,1/2-y,z
x,-y,1/2-z
1/2-x,y,-z
-x,-y,-z
x,1/2+y,-z
-x,y,1/2+z
1/2+x,-y,z
1/2+x,1/2+y,1/2+z
1/2-x,-y,1/2+z
1/2+x,1/2-y,-z
-x,1/2+y,1/2-z
1/2-x,1/2-y,1/2-z
1/2+x,y,1/2-z
1/2-x,1/2+y,z
x,1/2-y,1/2+z
loop_
_atom_site_type_symbol
_atom_site_label
_atom_site_fract_x
_atom_site_fract_y
_atom_site_fract_z
Si Si1 0.919401 0.649856 0.747976
Si Si2 0.766614 0.289304 0.410749
Si Si3 0.295932 0.555075 0.593827
Si Si4 0.750000 0.175718 0.500000
Si Si5 0.500000 0.250000 0.338020
Si Si6 0.170863 0.064121 0.289178
Si Si7 0.000000 0.750000 0.162921
Si Si8 0.079909 0.952657 0.456542
O O1 0.003164 0.683834 0.797633
O O2 0.769801 0.627036 0.769450
O O3 0.901363 0.706394 0.701878
O O4 0.010319 0.588136 0.720764
O O5 0.735273 0.367826 0.430798
O O6 0.795927 0.228952 0.453609
O O7 0.634634 0.262607 0.375523
O O8 0.902752 0.297262 0.373575
O O9 0.226311 0.550481 0.651795
O O10 0.220216 0.493309 0.561551
O O11 0.465780 0.550527 0.591149
O O12 0.872799 0.123404 0.521322
O O13 0.198400 0.000000 0.250000
O O14 0.000000 0.000000 0.500000
#
# Coordination Sequence:
#
# PCOD9533301 Si02
#       8
#    16  16  16   8   8  16   8  16
#     4  11  23  45  68 108 146 192 243 291 373 436
#     4  12  27  46  75 113 143 191 254 318 372 439
#     4  12  28  51  78 110 155 199 252 310 384 443
#     4  12  30  46  80 110 142 194 254 314 378 450
#     4  11  22  47  76 100 152 193 232 307 378 438
#     4  12  27  42  71 107 149 195 246 300 351 454
#     4  11  24  43  76 100 146 187 240 307 366 438
#     4  12  28  54  76 106 150 204 248 313 385 455
#
# _framework density 22.904941999999998
#
# number of rings (size 3 to 8) (size 9 to 14) (size 15 to 20)
#    0.000    0.308    4.615    2.308    8.615    4.308 
#    0.000    0.000    0.000    0.000    0.000    0.000 
#    0.000    0.000    0.000    0.000    0.000    0.000 
#
# Total GULP energy -290906.707153 kJ/mol
# GULP energy per Si atom -5594.359753 kJ/mol
# Density = 2.285281 g / cm^3
# Si number density = 22.904942 Si / 1000 Ang^3
#
#
#
# Elastic Constant Matrix: (Units=GPa)
#
#
# Indices 1 2 3 4 5 6 
#
# 1 69.8827 3.1339 10.2479 0.0000 0.0000 0.0000
# 2 3.1339 107.7101 31.8952 0.0000 0.0000 0.0000
# 3 10.2479 31.8952 96.4456 0.0000 0.0000 0.0000
# 4 0.0000 0.0000 0.0000 30.8012 0.0000 0.0000
# 5 0.0000 0.0000 0.0000 0.0000 27.5030 0.0000
# 6 0.0000 0.0000 0.0000 0.0000 0.0000 39.3339
#
#
#
# Elastic Compliance Matrix: (Units=1/GPa)
#
#
# Indices 1 2 3 4 5 6 
#
# 1 0.014536 0.000038 -0.001557 0.000000 0.000000 0.000000
# 2 0.000038 0.010292 -0.003408 0.000000 0.000000 0.000000
# 3 -0.001557 -0.003408 0.011661 0.000000 0.000000 0.000000
# 4 0.000000 0.000000 0.000000 0.032466 0.000000 0.000000
# 5 0.000000 0.000000 0.000000 0.000000 0.036360 0.000000
# 6 0.000000 0.000000 0.000000 0.000000 0.000000 0.025423
#
#
# Mechanical properties :
#
#
# Convention : Reuss Voigt Hill
#
# Bulk Modulus (GPa) = 37.54326 40.51027 39.02677
# Shear Modulus (GPa) = 33.45130 34.77837 34.11484
#
# Velocity S-wave (km/s) = 3.82572 3.90087 3.86347
# Velocity P-wave (km/s) = 5.99511 6.16552 6.08091
#
# Compressibility (1/GPa) = 0.02663594
#
# Stress axis : x y z
#
# Youngs Moduli (GPa) = 68.79308 97.16120 85.75619
#
# Poissons Ratio (x) = -0.00371 0.13354
# Poissons Ratio (y) = -0.00263 0.29224
# Poissons Ratio (z) = 0.10712 0.33110
#
# Static dielectric constant tensor:
#      x y z
#    x 1.865770 0.000000 0.000000 
#    y 0.000000 1.859190 0.000000 
#    z 0.000000 0.000000 1.882130 
# 
# From -- ./inp_files/31288.got.cif
#   From: 2010.05.17/outbox.cif.g08.bks.cpg/sg73_16_cif.got.tgz:31288.got - 2010.06.03 17:35:07.
