data_PCOD9533016
_publ_section_title
;
Structure prediction by ZEFSAII (Michael W. Deem and Ramdas Pophale) SiO2 
 PCOD9533016
Probable space group: I B C A 
;
_chemical_formula_sum "Si O2"
_cell_formula_units_Z 64
_cell_length_a 8.924122
_cell_length_b 9.781588
_cell_length_c 28.982111
_cell_angle_alpha 90.000000
_cell_angle_beta 90.000000
_cell_angle_gamma 90.000000
_cell_volume 2529.908887
_symmetry_space_group_name_H-M "I B C A "
_symmetry_group_IT_number 73
_symmetry_cell_setting 'orthorhombic'
loop_
_space_group_symop_operation_xyz
x,y,z
-x,1/2-y,z
x,-y,1/2-z
1/2-x,y,-z
-x,-y,-z
x,1/2+y,-z
-x,y,1/2+z
1/2+x,-y,z
1/2+x,1/2+y,1/2+z
1/2-x,-y,1/2+z
1/2+x,1/2-y,-z
-x,1/2+y,1/2-z
1/2-x,1/2-y,1/2-z
1/2+x,y,1/2-z
1/2-x,1/2+y,z
x,1/2-y,1/2+z
loop_
_atom_site_type_symbol
_atom_site_label
_atom_site_fract_x
_atom_site_fract_y
_atom_site_fract_z
Si Si1 0.250000 0.353769 0.500000
Si Si2 0.928521 0.608504 0.211115
Si Si3 0.827357 0.043928 0.148127
Si Si4 0.076914 0.952077 0.412212
Si Si5 0.500000 0.250000 0.564244
O O1 0.137290 0.428540 0.536068
O O2 0.356360 0.267728 0.532318
O O3 0.882481 0.500000 0.250000
O O4 0.782845 0.634965 0.179305
O O5 0.000000 0.750000 0.228367
O O6 0.055732 0.530300 0.181561
O O7 0.715519 0.938647 0.122378
O O8 0.925168 0.116349 0.107474
O O9 0.028761 0.111355 0.409078
#
# Coordination Sequence:
#
# PCOD9533016 Si02
#       5
#     8  16  16  16   8
#     4  12  26  44  68  98 148 196 250 304 374 430
#     4  11  26  51  77 112 150 193 247 307 382 464
#     4  10  25  43  72 104 144 191 239 313 362 451
#     4  11  24  47  65 104 148 191 250 304 370 433
#     4  12  26  42  68 100 140 200 250 306 362 446
#
# _framework density 25.297353999999999
#
# number of rings (size 3 to 8) (size 9 to 14) (size 15 to 20)
#    0.000    1.000    2.500    2.250   10.500    4.000 
#    0.000    2.500    0.000    0.000    0.000    0.000 
#    0.000    0.000    0.000    0.000    0.000    0.000 
#
# Total GULP energy -179003.513307 kJ/mol
# GULP energy per Si atom -5593.859791 kJ/mol
# Density = 2.523978 g / cm^3
# Si number density = 25.297354 Si / 1000 Ang^3
#
#
#
# Elastic Constant Matrix: (Units=GPa)
#
#
# Indices 1 2 3 4 5 6 
#
# 1 166.9730 26.7306 48.4642 0.0000 0.0000 0.0000
# 2 26.7306 80.0640 25.7233 0.0000 0.0000 0.0000
# 3 48.4642 25.7233 109.7730 0.0000 0.0000 0.0000
# 4 0.0000 0.0000 0.0000 -42.7302 0.0000 0.0000
# 5 0.0000 0.0000 0.0000 0.0000 56.3017 0.0000
# 6 0.0000 0.0000 0.0000 0.0000 0.0000 24.2995
#
#
#
# Elastic Compliance Matrix: (Units=1/GPa)
#
#
# Indices 1 2 3 4 5 6 
#
# 1 0.007023 -0.001458 -0.002759 0.000000 0.000000 0.000000
# 2 -0.001458 0.013810 -0.002592 0.000000 0.000000 0.000000
# 3 -0.002759 -0.002592 0.010935 0.000000 0.000000 0.000000
# 4 0.000000 0.000000 0.000000 -0.023403 0.000000 0.000000
# 5 0.000000 0.000000 0.000000 0.000000 0.017761 0.000000
# 6 0.000000 0.000000 0.000000 0.000000 0.000000 0.041153
#
#
# Mechanical properties :
#
#
# Convention : Reuss Voigt Hill
#
# Bulk Modulus (GPa) = 55.09919 62.07180 58.58550
# Shear Modulus (GPa) = 57.50497 24.63366 41.06932
#
# Velocity S-wave (km/s) = 4.77294 3.12391 4.03359
# Velocity P-wave (km/s) = 7.22513 6.13203 6.70091
#
# Compressibility (1/GPa) = 0.01814909
#
# Stress axis : x y z
#
# Youngs Moduli (GPa) = 142.38384 72.41262 91.44766
#
# Poissons Ratio (x) = 0.10561 0.25230
# Poissons Ratio (y) = 0.20765 0.23705
# Poissons Ratio (z) = 0.39284 0.18771
#
# Static dielectric constant tensor:
#      x y z
#    x 2.036530 0.000000 0.000000 
#    y 0.000000 1.981680 0.000000 
#    z 0.000000 0.000000 2.071400 
# 
# From -- ./inp_files/4042.got.cif
#   From: 2010.05.17/outbox.cif.g08.bks.cpg/sg73_3_cif.got.tgz:4042.got - 2010.06.03 17:35:07.
