data_PCOD9533457
_publ_section_title
;
Structure prediction by ZEFSAII (Michael W. Deem and Ramdas Pophale) SiO2 
 PCOD9533457
Probable space group: I B C A 
;
_chemical_formula_sum "Si O2"
_cell_formula_units_Z 72
_cell_length_a 8.610815
_cell_length_b 18.773518
_cell_length_c 16.755391
_cell_angle_alpha 90.000000
_cell_angle_beta 90.000000
_cell_angle_gamma 90.000000
_cell_volume 2708.597598
_symmetry_space_group_name_H-M "I B C A "
_symmetry_group_IT_number 73
_symmetry_cell_setting 'orthorhombic'
loop_
_space_group_symop_operation_xyz
x,y,z
-x,1/2-y,z
x,-y,1/2-z
1/2-x,y,-z
-x,-y,-z
x,1/2+y,-z
-x,y,1/2+z
1/2+x,-y,z
1/2+x,1/2+y,1/2+z
1/2-x,-y,1/2+z
1/2+x,1/2-y,-z
-x,1/2+y,1/2-z
1/2-x,1/2-y,1/2-z
1/2+x,y,1/2-z
1/2-x,1/2+y,z
x,1/2-y,1/2+z
loop_
_atom_site_type_symbol
_atom_site_label
_atom_site_fract_x
_atom_site_fract_y
_atom_site_fract_z
Si Si1 0.750000 0.282876 0.000000
Si Si2 0.795917 0.478235 0.583277
Si Si3 0.109229 0.404506 0.614644
Si Si4 0.368088 0.832530 0.873409
Si Si5 0.579159 0.322766 0.260613
O O1 0.651843 0.337164 0.942443
O O2 0.836584 0.226212 0.941326
O O3 0.750000 0.513631 0.500000
O O4 0.749922 0.543256 0.640192
O O5 0.685450 0.409644 0.595479
O O6 0.969885 0.451556 0.577929
O O7 0.019120 0.381655 0.694134
O O8 0.538325 0.830084 0.833002
O O9 0.248968 0.820354 0.799052
O O10 0.500000 0.250000 0.287213
#
# Coordination Sequence:
#
# PCOD9533457 Si02
#       5
#     8  16  16  16  16
#     4  12  24  46  78 112 140 202 248 318 362 448
#     4  11  24  46  69 109 147 194 243 312 363 449
#     4  11  26  44  75 105 154 188 255 297 377 437
#     4  11  26  47  77 107 153 188 255 300 383 437
#     4  11  24  47  70 109 145 192 241 310 366 450
#
# _framework density 26.582021999999998
#
# number of rings (size 3 to 8) (size 9 to 14) (size 15 to 20)
#    0.000    0.889    4.444    1.333    0.000    4.444 
#    0.000    4.444    0.000    0.000    0.000    0.000 
#    0.000    0.000    0.000    0.000    0.000    0.000 
#
# Total GULP energy -201277.043029 kJ/mol
# GULP energy per Si atom -5591.028973 kJ/mol
# Density = 2.652152 g / cm^3
# Si number density = 26.582022 Si / 1000 Ang^3
#
#
#
# Elastic Constant Matrix: (Units=GPa)
#
#
# Indices 1 2 3 4 5 6 
#
# 1 95.5869 52.6860 60.5538 0.0000 0.0000 0.0000
# 2 52.6860 155.0701 36.2051 0.0000 0.0000 0.0000
# 3 60.5538 36.2051 97.8409 0.0000 0.0000 0.0000
# 4 0.0000 0.0000 0.0000 2.3682 0.0000 0.0000
# 5 0.0000 0.0000 0.0000 0.0000 47.0165 0.0000
# 6 0.0000 0.0000 0.0000 0.0000 0.0000 47.3323
#
#
#
# Elastic Compliance Matrix: (Units=1/GPa)
#
#
# Indices 1 2 3 4 5 6 
#
# 1 0.019365 -0.004139 -0.010454 0.000000 0.000000 0.000000
# 2 -0.004139 0.007943 -0.000378 0.000000 0.000000 0.000000
# 3 -0.010454 -0.000378 0.016830 0.000000 0.000000 0.000000
# 4 0.000000 0.000000 0.000000 0.422270 0.000000 0.000000
# 5 0.000000 0.000000 0.000000 0.000000 0.021269 0.000000
# 6 0.000000 0.000000 0.000000 0.000000 0.000000 0.021127
#
#
# Mechanical properties :
#
#
# Convention : Reuss Voigt Hill
#
# Bulk Modulus (GPa) = 70.43166 71.93197 71.18181
# Shear Modulus (GPa) = 9.20001 32.61359 20.90680
#
# Velocity S-wave (km/s) = 1.86239 3.50652 2.80751
# Velocity P-wave (km/s) = 5.58374 6.59647 6.11112
#
# Compressibility (1/GPa) = 0.01419816
#
# Stress axis : x y z
#
# Youngs Moduli (GPa) = 51.63892 125.89586 59.41694
#
# Poissons Ratio (x) = 0.52106 0.62112
# Poissons Ratio (y) = 0.21372 0.02245
# Poissons Ratio (z) = 0.53981 0.04756
#
# Static dielectric constant tensor:
#      x y z
#    x 2.195220 0.000000 0.000000 
#    y 0.000000 2.095910 0.000000 
#    z 0.000000 0.000000 2.127480 
# 
# From -- ./inp_files/20597.got.cif
#   From: 2010.05.17/outbox.cif.g08.bks.cpg/sg73_11_cif.got.tgz:20597.got - 2010.06.03 17:35:07.
