data_PCOD9533540
_publ_section_title
;
Structure prediction by ZEFSAII (Michael W. Deem and Ramdas Pophale) SiO2 
 PCOD9533540
Probable space group: I B C A 
;
_chemical_formula_sum "Si O2"
_cell_formula_units_Z 72
_cell_length_a 30.891101
_cell_length_b 5.241763
_cell_length_c 19.286323
_cell_angle_alpha 90.000000
_cell_angle_beta 90.000000
_cell_angle_gamma 90.000000
_cell_volume 3122.915292
_symmetry_space_group_name_H-M "I B C A "
_symmetry_group_IT_number 73
_symmetry_cell_setting 'orthorhombic'
loop_
_space_group_symop_operation_xyz
x,y,z
-x,1/2-y,z
x,-y,1/2-z
1/2-x,y,-z
-x,-y,-z
x,1/2+y,-z
-x,y,1/2+z
1/2+x,-y,z
1/2+x,1/2+y,1/2+z
1/2-x,-y,1/2+z
1/2+x,1/2-y,-z
-x,1/2+y,1/2-z
1/2-x,1/2-y,1/2-z
1/2+x,y,1/2-z
1/2-x,1/2+y,z
x,1/2-y,1/2+z
loop_
_atom_site_type_symbol
_atom_site_label
_atom_site_fract_x
_atom_site_fract_y
_atom_site_fract_z
Si Si1 0.500000 0.750000 0.076373
Si Si2 0.771531 0.463839 0.166603
Si Si3 0.500000 0.250000 0.672955
Si Si4 0.593531 0.625779 0.533519
Si Si5 0.426239 0.500000 0.750000
Si Si6 0.870467 0.136985 0.675518
O O1 0.504065 0.502261 0.125887
O O2 0.457801 0.684287 0.031552
O O3 0.766096 0.500000 0.250000
O O4 0.760893 0.746054 0.139630
O O5 0.820102 0.364197 0.156158
O O6 0.458262 0.279932 0.722516
O O7 0.610919 0.408442 0.482497
O O8 0.604068 0.526150 0.610295
O O9 0.394451 0.596601 0.689984
O O10 0.872970 0.000000 0.750000
#
# Coordination Sequence:
#
# PCOD9533540 Si02
#       6
#     8  16   8  16   8  16
#     4  12  23  47  64  90 130 188 236 282 330 406
#     4   9  20  38  64 101 137 169 211 280 348 403
#     4  12  25  41  64  94 142 172 234 284 346 386
#     4  12  27  46  67  97 138 181 229 283 341 400
#     4  12  26  40  64 102 134 186 222 294 342 402
#     4  11  26  43  74 102 138 177 235 283 341 414
#
# _framework density 23.055381000000001
#
# number of rings (size 3 to 8) (size 9 to 14) (size 15 to 20)
#    0.000    0.889    2.222    4.000   12.444    0.000 
#    0.000    0.000    0.000    4.000    0.000    0.000 
#    0.000    0.000    0.000    0.000    0.000    0.000 
#
# Total GULP energy -201069.357166 kJ/mol
# GULP energy per Si atom -5585.259921 kJ/mol
# Density = 2.300291 g / cm^3
# Si number density = 23.055381 Si / 1000 Ang^3
#
#
#
# Elastic Constant Matrix: (Units=GPa)
#
#
# Indices 1 2 3 4 5 6 
#
# 1 114.4668 39.4448 0.5850 0.0000 0.0000 0.0000
# 2 39.4448 144.2102 22.6948 0.0000 0.0000 0.0000
# 3 0.5850 22.6948 61.5051 0.0000 0.0000 0.0000
# 4 0.0000 0.0000 0.0000 39.0805 0.0000 0.0000
# 5 0.0000 0.0000 0.0000 0.0000 5.5214 0.0000
# 6 0.0000 0.0000 0.0000 0.0000 0.0000 24.3755
#
#
#
# Elastic Compliance Matrix: (Units=1/GPa)
#
#
# Indices 1 2 3 4 5 6 
#
# 1 0.009696 -0.002800 0.000941 0.000000 0.000000 0.000000
# 2 -0.002800 0.008171 -0.002988 0.000000 0.000000 0.000000
# 3 0.000941 -0.002988 0.017352 0.000000 0.000000 0.000000
# 4 0.000000 0.000000 0.000000 0.025588 0.000000 0.000000
# 5 0.000000 0.000000 0.000000 0.000000 0.181114 0.000000
# 6 0.000000 0.000000 0.000000 0.000000 0.000000 0.041025
#
#
# Mechanical properties :
#
#
# Convention : Reuss Voigt Hill
#
# Bulk Modulus (GPa) = 39.17808 49.51458 44.34633
# Shear Modulus (GPa) = 16.60307 30.95932 23.78119
#
# Velocity S-wave (km/s) = 2.68645 3.66843 3.21515
# Velocity P-wave (km/s) = 5.16262 6.28221 5.74973
#
# Compressibility (1/GPa) = 0.02552448
#
# Stress axis : x y z
#
# Youngs Moduli (GPa) = 103.13211 122.39128 57.62862
#
# Poissons Ratio (x) = 0.34273 -0.05423
# Poissons Ratio (y) = 0.28880 0.17221
# Poissons Ratio (z) = -0.09705 0.36573
#
# Static dielectric constant tensor:
#      x y z
#    x 1.861710 0.000000 0.000000 
#    y 0.000000 1.957940 0.000000 
#    z 0.000000 0.000000 1.902230 
# 
# From -- ./inp_files/27750.got.cif
#   From: 2010.05.17/outbox.cif.g08.bks.cpg/sg73_14_cif.got.tgz:27750.got - 2010.06.03 17:35:07.
