data_PCOD9533266
_publ_section_title
;
Structure prediction by ZEFSAII (Michael W. Deem and Ramdas Pophale) SiO2 
 PCOD9533266
Probable space group: I B C A 
;
_chemical_formula_sum "Si O2"
_cell_formula_units_Z 72
_cell_length_a 14.917134
_cell_length_b 10.574287
_cell_length_c 17.818340
_cell_angle_alpha 90.000000
_cell_angle_beta 90.000000
_cell_angle_gamma 90.000000
_cell_volume 2810.630315
_symmetry_space_group_name_H-M "I B C A "
_symmetry_group_IT_number 73
_symmetry_cell_setting 'orthorhombic'
loop_
_space_group_symop_operation_xyz
x,y,z
-x,1/2-y,z
x,-y,1/2-z
1/2-x,y,-z
-x,-y,-z
x,1/2+y,-z
-x,y,1/2+z
1/2+x,-y,z
1/2+x,1/2+y,1/2+z
1/2-x,-y,1/2+z
1/2+x,1/2-y,-z
-x,1/2+y,1/2-z
1/2-x,1/2-y,1/2-z
1/2+x,y,1/2-z
1/2-x,1/2+y,z
x,1/2-y,1/2+z
loop_
_atom_site_type_symbol
_atom_site_label
_atom_site_fract_x
_atom_site_fract_y
_atom_site_fract_z
Si Si1 0.890122 0.223704 0.294267
Si Si2 0.250000 0.647112 0.000000
Si Si3 0.652920 0.743024 0.130601
Si Si4 0.905758 0.479700 0.917653
Si Si5 0.075021 0.019204 0.337141
O O1 0.841505 0.199565 0.216288
O O2 0.872961 0.103094 0.345878
O O3 0.861184 0.360210 0.327072
O O4 0.000000 0.250000 0.286423
O O5 0.269087 0.733340 0.071631
O O6 0.161650 0.564440 0.018040
O O7 0.596519 0.629746 0.093699
O O8 0.613079 0.882992 0.143016
O O9 0.010234 0.446074 0.907519
O O10 0.037421 0.000000 0.250000
#
# Coordination Sequence:
#
# PCOD9533266 Si02
#       5
#    16   8  16  16  16
#     4   9  19  40  73 102 118 149 212 280 326 361
#     4  12  30  40  52  90 142 184 208 238 306 388
#     4  11  22  42  67  93 127 167 213 261 314 376
#     4  11  22  42  67  93 127 167 213 261 314 376
#     4   9  19  40  73 102 118 149 212 280 326 361
#
# _framework density 25.617028000000001
#
# number of rings (size 3 to 8) (size 9 to 14) (size 15 to 20)
#    0.000    1.778    0.000    6.000    0.000    5.333 
#    0.000   15.556    0.000    0.000    0.000    0.000 
#    0.000    0.000    0.000    0.000    0.000    0.000 
#
# Total GULP energy -200596.603642 kJ/mol
# GULP energy per Si atom -5572.127879 kJ/mol
# Density = 2.555872 g / cm^3
# Si number density = 25.617028 Si / 1000 Ang^3
#
#
#
# Elastic Constant Matrix: (Units=GPa)
#
#
# Indices 1 2 3 4 5 6 
#
# 1 71.0266 1.4374 61.9688 0.0000 0.0000 0.0000
# 2 1.4374 123.3207 24.3829 0.0000 0.0000 0.0000
# 3 61.9688 24.3829 90.1054 0.0000 0.0000 0.0000
# 4 0.0000 0.0000 0.0000 29.7436 0.0000 0.0000
# 5 0.0000 0.0000 0.0000 0.0000 52.5501 0.0000
# 6 0.0000 0.0000 0.0000 0.0000 0.0000 25.8179
#
#
#
# Elastic Compliance Matrix: (Units=1/GPa)
#
#
# Indices 1 2 3 4 5 6 
#
# 1 0.037887 0.004976 -0.027403 0.000000 0.000000 0.000000
# 2 0.004976 0.009221 -0.005918 0.000000 0.000000 0.000000
# 3 -0.027403 -0.005918 0.031545 0.000000 0.000000 0.000000
# 4 0.000000 0.000000 0.000000 0.033621 0.000000 0.000000
# 5 0.000000 0.000000 0.000000 0.000000 0.019029 0.000000
# 6 0.000000 0.000000 0.000000 0.000000 0.000000 0.038733
#
#
# Mechanical properties :
#
#
# Convention : Reuss Voigt Hill
#
# Bulk Modulus (GPa) = 45.52693 51.11454 48.32073
# Shear Modulus (GPa) = 21.36336 34.73322 28.04829
#
# Velocity S-wave (km/s) = 2.89095 3.68620 3.31253
# Velocity P-wave (km/s) = 5.38091 6.17366 5.79087
#
# Compressibility (1/GPa) = 0.02196502
#
# Stress axis : x y z
#
# Youngs Moduli (GPa) = 26.39450 108.44832 31.70041
#
# Poissons Ratio (x) = -0.53969 0.86868
# Poissons Ratio (y) = -0.13135 0.18759
# Poissons Ratio (z) = 0.72328 0.64177
#
# Static dielectric constant tensor:
#      x y z
#    x 2.236970 0.000000 0.000000 
#    y 0.000000 2.001160 0.000000 
#    z 0.000000 0.000000 2.048420 
# 
# From -- ./inp_files/22343.got.cif
#   From: 2010.05.17/outbox.cif.g08.bks.cpg/sg73_12_cif.got.tgz:22343.got - 2010.06.03 17:35:07.
