data_PCOD9533104
_publ_section_title
;
Structure prediction by ZEFSAII (Michael W. Deem and Ramdas Pophale) SiO2 
 PCOD9533104
Probable space group: I B C A 
;
_chemical_formula_sum "Si O2"
_cell_formula_units_Z 64
_cell_length_a 21.726760
_cell_length_b 7.584651
_cell_length_c 17.942783
_cell_angle_alpha 90.000000
_cell_angle_beta 90.000000
_cell_angle_gamma 90.000000
_cell_volume 2956.789272
_symmetry_space_group_name_H-M "I B C A "
_symmetry_group_IT_number 73
_symmetry_cell_setting 'orthorhombic'
loop_
_space_group_symop_operation_xyz
x,y,z
-x,1/2-y,z
x,-y,1/2-z
1/2-x,y,-z
-x,-y,-z
x,1/2+y,-z
-x,y,1/2+z
1/2+x,-y,z
1/2+x,1/2+y,1/2+z
1/2-x,-y,1/2+z
1/2+x,1/2-y,-z
-x,1/2+y,1/2-z
1/2-x,1/2-y,1/2-z
1/2+x,y,1/2-z
1/2-x,1/2+y,z
x,1/2-y,1/2+z
loop_
_atom_site_type_symbol
_atom_site_label
_atom_site_fract_x
_atom_site_fract_y
_atom_site_fract_z
Si Si1 0.608706 0.114368 0.094644
Si Si2 0.432495 0.234609 0.819143
Si Si3 0.937354 0.515702 0.547763
Si Si4 0.182666 0.198114 0.276232
O O1 0.569456 0.290610 0.081173
O O2 0.669087 0.188789 0.136061
O O3 0.578540 0.963381 0.147746
O O4 0.614997 0.023156 0.014263
O O5 0.500000 0.250000 0.782488
O O6 0.434542 0.367926 0.888937
O O7 0.375779 0.285589 0.765516
O O8 0.000000 0.500000 0.500000
O O9 0.250000 0.250000 0.250000
O O10 0.178142 0.000000 0.250000
#
# Coordination Sequence:
#
# PCOD9533104 Si02
#       4
#    16  16  16  16
#     4  11  23  41  65  99 134 179 222 275 339 408
#     4  11  23  41  68 103 135 174 225 282 346 405
#     4  12  22  37  69 100 141 176 213 277 352 403
#     4  10  26  49  69  95 138 185 235 284 338 407
#
# _framework density 21.645101
#
# number of rings (size 3 to 8) (size 9 to 14) (size 15 to 20)
#    0.000    1.000    5.000    0.750    3.500    2.000 
#    4.500    1.250    0.000    0.000    0.000    0.000 
#    0.000    0.000    0.000    0.000    0.000    0.000 
#
# Total GULP energy -178620.937448 kJ/mol
# GULP energy per Si atom -5581.904295 kJ/mol
# Density = 2.159584 g / cm^3
# Si number density = 21.645101 Si / 1000 Ang^3
#
#
#
# Elastic Constant Matrix: (Units=GPa)
#
#
# Indices 1 2 3 4 5 6 
#
# 1 135.7091 25.6709 51.9157 0.0000 0.0000 0.0000
# 2 25.6709 139.5186 21.2996 0.0000 0.0000 0.0000
# 3 51.9157 21.2996 78.3314 0.0000 0.0000 0.0000
# 4 0.0000 0.0000 0.0000 31.2221 0.0000 0.0000
# 5 0.0000 0.0000 0.0000 0.0000 34.4607 0.0000
# 6 0.0000 0.0000 0.0000 0.0000 0.0000 23.6441
#
#
#
# Elastic Compliance Matrix: (Units=1/GPa)
#
#
# Indices 1 2 3 4 5 6 
#
# 1 0.009970 -0.000861 -0.006373 0.000000 0.000000 0.000000
# 2 -0.000861 0.007552 -0.001483 0.000000 0.000000 0.000000
# 3 -0.006373 -0.001483 0.017394 0.000000 0.000000 0.000000
# 4 0.000000 0.000000 0.000000 0.032029 0.000000 0.000000
# 5 0.000000 0.000000 0.000000 0.000000 0.029019 0.000000
# 6 0.000000 0.000000 0.000000 0.000000 0.000000 0.042294
#
#
# Mechanical properties :
#
#
# Convention : Reuss Voigt Hill
#
# Bulk Modulus (GPa) = 57.20620 61.25906 59.23263
# Shear Modulus (GPa) = 30.95614 34.84356 32.89985
#
# Velocity S-wave (km/s) = 3.78586 4.01654 3.90291
# Velocity P-wave (km/s) = 6.75254 7.06209 6.90905
#
# Compressibility (1/GPa) = 0.01748062
#
# Stress axis : x y z
#
# Youngs Moduli (GPa) = 100.30267 132.40901 57.49242
#
# Poissons Ratio (x) = 0.11406 0.36643
# Poissons Ratio (y) = 0.08640 0.08524
# Poissons Ratio (z) = 0.63928 0.19632
#
# Static dielectric constant tensor:
#      x y z
#    x -8.044950 0.000000 0.000000 
#    y 0.000000 1.804250 0.000000 
#    z 0.000000 0.000000 1.909860 
# 
# From -- ./inp_files/22942.got.cif
#   From: 2010.05.17/outbox.cif.g08.bks.cpg/sg73_12_cif.got.tgz:22942.got - 2010.06.03 17:35:07.
