data_PCOD9533765
_publ_section_title
;
Structure prediction by ZEFSAII (Michael W. Deem and Ramdas Pophale) SiO2 
 PCOD9533765
Probable space group: I B C A 
;
_chemical_formula_sum "Si O2"
_cell_formula_units_Z 48
_cell_length_a 15.000000
_cell_length_b 15.000000
_cell_length_c 21.000000
_cell_angle_alpha 90.000000
_cell_angle_beta 90.000000
_cell_angle_gamma 90.000000
_cell_volume 4725.000000
_symmetry_space_group_name_H-M "I B C A "
_symmetry_group_IT_number 73
_symmetry_cell_setting 'orthorhombic'
loop_
_space_group_symop_operation_xyz
x,y,z
-x,1/2-y,z
x,-y,1/2-z
1/2-x,y,-z
-x,-y,-z
x,1/2+y,-z
-x,y,1/2+z
1/2+x,-y,z
1/2+x,1/2+y,1/2+z
1/2-x,-y,1/2+z
1/2+x,1/2-y,-z
-x,1/2+y,1/2-z
1/2-x,1/2-y,1/2-z
1/2+x,y,1/2-z
1/2-x,1/2+y,z
x,1/2-y,1/2+z
loop_
_atom_site_type_symbol
_atom_site_label
_atom_site_fract_x
_atom_site_fract_y
_atom_site_fract_z
Si Si1 0.096726 0.271512 0.499388
Si Si2 0.357375 0.735298 0.732490
Si Si3 0.113006 0.884139 0.095930
Si Si4 0.988418 0.394964 0.273094
Si Si5 0.821648 0.856654 0.400401
Si Si6 0.643395 0.519454 0.486328
O O1 0.095916 0.212182 0.435574
O O2 0.167015 0.219489 0.544880
O O3 0.111540 0.376992 0.486407
O O4 0.000000 0.250000 0.529846
O O5 0.250000 0.750000 0.750000
O O6 0.414273 0.828793 0.737818
O O7 0.417919 0.661352 0.771008
O O8 0.358617 0.690418 0.662578
O O9 0.050473 0.898756 0.155756
O O10 0.218303 0.881057 0.111993
O O11 0.100231 0.962979 0.044249
O O12 0.995150 0.500000 0.250000
O O13 0.865387 0.949633 0.426614
O O14 0.750000 0.523229 0.500000
#
# Coordination Sequence:
#
# PCOD9533765 Si02
#       6
#    16  16  16  16  16  16
#     4  11  24  36  67 100 137 181 228 297 365 417
#     4  11  25  48  72 101 141 189 235 290 358 419
#     4  10  22  44  67  97 140 176 234 292 344 432
#     4  11  27  46  71 105 139 187 241 293 350 429
#     4  10  22  43  66 100 137 179 238 287 351 430
#     4   9  20  41  67  99 132 179 227 288 359 420
#
# _framework density 10.15873
#
# number of rings (size 3 to 8) (size 9 to 14) (size 15 to 20)
#    0.000    1.667    1.667    2.500    7.000    4.667 
#    0.000    0.000    0.000    0.000    0.000    0.000 
#    0.000    0.000    0.000    0.000    0.000    0.000 
#
# Total GULP energy -267782.047906 kJ/mol
# GULP energy per Si atom -5578.792665 kJ/mol
# Density = 1.013561 g / cm^3
# Si number density = 10.158730 Si / 1000 Ang^3
#
#
#
# Elastic Constant Matrix: (Units=GPa)
#
#
# Indices 1 2 3 4 5 6 
#
# 1 112.7807 42.9095 36.2112 0.0000 0.0000 0.0000
# 2 42.9095 230.2752 64.9473 0.0000 0.0000 0.0000
# 3 36.2112 64.9473 122.3457 0.0000 0.0000 0.0000
# 4 0.0000 0.0000 0.0000 30.7524 0.0000 0.0000
# 5 0.0000 0.0000 0.0000 0.0000 31.9671 0.0000
# 6 0.0000 0.0000 0.0000 0.0000 0.0000 39.3849
#
#
#
# Elastic Compliance Matrix: (Units=1/GPa)
#
#
# Indices 1 2 3 4 5 6 
#
# 1 0.010081 -0.001220 -0.002336 0.000000 0.000000 0.000000
# 2 -0.001220 0.005255 -0.002429 0.000000 0.000000 0.000000
# 3 -0.002336 -0.002429 0.010154 0.000000 0.000000 0.000000
# 4 0.000000 0.000000 0.000000 0.032518 0.000000 0.000000
# 5 0.000000 0.000000 0.000000 0.000000 0.031282 0.000000
# 6 0.000000 0.000000 0.000000 0.000000 0.000000 0.025390
#
#
# Mechanical properties :
#
#
# Convention : Reuss Voigt Hill
#
# Bulk Modulus (GPa) = 73.95817 83.72641 78.84229
# Shear Modulus (GPa) = 38.12245 41.84311 39.98278
#
# Velocity S-wave (km/s) = 4.33637 4.54306 4.44092
# Velocity P-wave (km/s) = 7.84554 8.29564 8.07373
#
# Compressibility (1/GPa) = 0.01352116
#
# Stress axis : x y z
#
# Youngs Moduli (GPa) = 99.19763 190.30059 98.48084
#
# Poissons Ratio (x) = 0.23208 0.23008
# Poissons Ratio (y) = 0.12098 0.23917
# Poissons Ratio (z) = 0.23175 0.46216
#
# Static dielectric constant tensor:
#      x y z
#    x 1.821830 0.000000 0.000000 
#    y 0.000000 1.695080 0.000000 
#    z 0.000000 0.000000 1.767230 
# 
# From -- ./inp_files/18629.got.cif
#   From: 2010.05.17/outbox.ucp.g08.bks.cvg/sg73_10_cif.got.tgz:18629.got - 2010.06.11 16:36:03.
