data_PCOD9533182
_publ_section_title
;
Structure prediction by ZEFSAII (Michael W. Deem and Ramdas Pophale) SiO2 
 PCOD9533182
Probable space group: I B C A 
;
_chemical_formula_sum "Si O2"
_cell_formula_units_Z 72
_cell_length_a 15.822338
_cell_length_b 14.933179
_cell_length_c 12.777210
_cell_angle_alpha 90.000000
_cell_angle_beta 90.000000
_cell_angle_gamma 90.000000
_cell_volume 3018.971140
_symmetry_space_group_name_H-M "I B C A "
_symmetry_group_IT_number 73
_symmetry_cell_setting 'orthorhombic'
loop_
_space_group_symop_operation_xyz
x,y,z
-x,1/2-y,z
x,-y,1/2-z
1/2-x,y,-z
-x,-y,-z
x,1/2+y,-z
-x,y,1/2+z
1/2+x,-y,z
1/2+x,1/2+y,1/2+z
1/2-x,-y,1/2+z
1/2+x,1/2-y,-z
-x,1/2+y,1/2-z
1/2-x,1/2-y,1/2-z
1/2+x,y,1/2-z
1/2-x,1/2+y,z
x,1/2-y,1/2+z
loop_
_atom_site_type_symbol
_atom_site_label
_atom_site_fract_x
_atom_site_fract_y
_atom_site_fract_z
Si Si1 0.957038 0.588703 0.820951
Si Si2 0.250000 0.252199 0.000000
Si Si3 0.639804 0.395530 0.924021
Si Si4 0.963274 0.657621 0.618940
Si Si5 0.631959 0.088962 0.045154
O O1 0.944361 0.500000 0.750000
O O2 0.933758 0.665704 0.737654
O O3 0.900554 0.585977 0.924840
O O4 0.054016 0.606208 0.856277
O O5 0.204182 0.186590 0.083380
O O6 0.186132 0.321465 0.944332
O O7 0.606019 0.381166 0.042493
O O8 0.675538 0.496425 0.919814
O O9 0.000000 0.750000 0.575238
O O10 0.045872 0.594986 0.611287
#
# Coordination Sequence:
#
# PCOD9533182 Si02
#       5
#    16   8  16  16  16
#     4  11  21  40  74  98 116 161 232 279 315 370
#     4  12  26  42  62  90 140 180 206 248 338 416
#     4  11  23  43  66  93 129 173 211 271 327 386
#     4  11  21  39  69  98 122 156 231 280 311 373
#     4  11  23  43  66  93 129 173 211 271 327 386
#
# _framework density 23.849184999999999
#
# number of rings (size 3 to 8) (size 9 to 14) (size 15 to 20)
#    0.000    0.889    6.667    2.000    3.111    0.000 
#    0.000    4.444    0.000    0.000    0.000    0.000 
#    0.000    0.000    0.000    0.000    0.000    0.000 
#
# Total GULP energy -201067.062617 kJ/mol
# GULP energy per Si atom -5585.196184 kJ/mol
# Density = 2.379490 g / cm^3
# Si number density = 23.849185 Si / 1000 Ang^3
#
#
#
# Elastic Constant Matrix: (Units=GPa)
#
#
# Indices 1 2 3 4 5 6 
#
# 1 68.3241 32.4777 1.2554 0.0000 0.0000 0.0000
# 2 32.4777 156.6063 1.3137 0.0000 0.0000 0.0000
# 3 1.2554 1.3137 89.7544 0.0000 0.0000 0.0000
# 4 0.0000 0.0000 0.0000 15.9926 0.0000 0.0000
# 5 0.0000 0.0000 0.0000 0.0000 4.1118 0.0000
# 6 0.0000 0.0000 0.0000 0.0000 0.0000 38.3118
#
#
#
# Elastic Compliance Matrix: (Units=1/GPa)
#
#
# Indices 1 2 3 4 5 6 
#
# 1 0.016240 -0.003366 -0.000178 0.000000 0.000000 0.000000
# 2 -0.003366 0.007084 -0.000057 0.000000 0.000000 0.000000
# 3 -0.000178 -0.000057 0.011145 0.000000 0.000000 0.000000
# 4 0.000000 0.000000 0.000000 0.062529 0.000000 0.000000
# 5 0.000000 0.000000 0.000000 0.000000 0.243205 0.000000
# 6 0.000000 0.000000 0.000000 0.000000 0.000000 0.026102
#
#
# Mechanical properties :
#
#
# Convention : Reuss Voigt Hill
#
# Bulk Modulus (GPa) = 36.67462 42.75315 39.71389
# Shear Modulus (GPa) = 13.06868 30.32576 21.69722
#
# Velocity S-wave (km/s) = 2.34342 3.56977 3.01951
# Velocity P-wave (km/s) = 4.76794 5.91239 5.37074
#
# Compressibility (1/GPa) = 0.02726681
#
# Stress axis : x y z
#
# Youngs Moduli (GPa) = 61.57797 141.16238 89.72768
#
# Poissons Ratio (x) = 0.47520 0.01596
# Poissons Ratio (y) = 0.20729 0.00508
# Poissons Ratio (z) = 0.01095 0.00799
#
# Static dielectric constant tensor:
#      x y z
#    x 2.012640 0.000000 0.000000 
#    y 0.000000 2.048600 0.000000 
#    z 0.000000 0.000000 1.874240 
# 
# From -- ./inp_files/16798.got.cif
#   From: 2010.05.17/outbox.cif.g08.bks.cpg/sg73_9_cif.got.tgz:16798.got - 2010.06.03 17:35:07.
