data_PCOD9533295
_publ_section_title
;
Structure prediction by ZEFSAII (Michael W. Deem and Ramdas Pophale) SiO2 
 PCOD9533295
Probable space group: I B C A 
;
_chemical_formula_sum "Si O2"
_cell_formula_units_Z 104
_cell_length_a 16.061810
_cell_length_b 24.216450
_cell_length_c 12.250985
_cell_angle_alpha 90.000000
_cell_angle_beta 90.000000
_cell_angle_gamma 90.000000
_cell_volume 4765.143356
_symmetry_space_group_name_H-M "I B C A "
_symmetry_group_IT_number 73
_symmetry_cell_setting 'orthorhombic'
loop_
_space_group_symop_operation_xyz
x,y,z
-x,1/2-y,z
x,-y,1/2-z
1/2-x,y,-z
-x,-y,-z
x,1/2+y,-z
-x,y,1/2+z
1/2+x,-y,z
1/2+x,1/2+y,1/2+z
1/2-x,-y,1/2+z
1/2+x,1/2-y,-z
-x,1/2+y,1/2-z
1/2-x,1/2-y,1/2-z
1/2+x,y,1/2-z
1/2-x,1/2+y,z
x,1/2-y,1/2+z
loop_
_atom_site_type_symbol
_atom_site_label
_atom_site_fract_x
_atom_site_fract_y
_atom_site_fract_z
Si Si1 0.500000 0.750000 0.473107
Si Si2 0.977768 0.634960 0.126158
Si Si3 0.877762 0.630217 0.799732
Si Si4 0.173035 0.244235 0.584952
Si Si5 0.516832 0.556312 0.065130
Si Si6 0.121067 0.558988 0.765330
Si Si7 0.234922 0.356145 0.629063
O O1 0.534438 0.801771 0.405121
O O2 0.584341 0.733123 0.537235
O O3 0.037736 0.637616 0.230609
O O4 0.899648 0.596420 0.160117
O O5 0.012618 0.604198 0.018727
O O6 0.852115 0.686209 0.861674
O O7 0.896139 0.580930 0.886064
O O8 0.809852 0.623490 0.705157
O O9 0.250000 0.234793 0.500000
O O10 0.206268 0.294149 0.660854
O O11 0.464120 0.545548 0.173342
O O12 0.500000 0.500000 0.000000
O O13 0.164559 0.500000 0.750000
O O14 0.166001 0.599018 0.848190
O O15 0.250000 0.353519 0.500000
#
# Coordination Sequence:
#
# PCOD9533295 Si02
#       7
#     8  16  16  16  16  16  16
#     4  12  24  42  74 110 144 194 242 308 392 454
#     4  11  24  42  69 102 135 179 242 296 357 448
#     4  11  25  42  73 106 137 200 239 302 391 447
#     4  11  25  44  72 108 154 191 246 317 383 461
#     4  11  22  46  71  98 143 182 243 302 358 438
#     4  11  24  43  67  99 133 186 237 291 356 431
#     4  11  25  47  67  98 149 187 241 303 378 443
#
# _framework density 21.825156
#
# number of rings (size 3 to 8) (size 9 to 14) (size 15 to 20)
#    0.000    0.923    3.077    4.154    6.462    0.000 
#    5.538    0.000    0.000    0.000    0.000    0.000 
#    0.000    0.000    0.000    0.000    0.000    0.000 
#
# Total GULP energy -289739.626016 kJ/mol
# GULP energy per Si atom -5571.915885 kJ/mol
# Density = 2.177548 g / cm^3
# Si number density = 21.825156 Si / 1000 Ang^3
#
#
#
# Elastic Constant Matrix: (Units=GPa)
#
#
# Indices 1 2 3 4 5 6 
#
# 1 68.6721 29.3949 26.9397 0.0000 0.0000 0.0000
# 2 29.3949 162.6868 55.9640 0.0001 0.0000 0.0000
# 3 26.9397 55.9640 86.9582 0.0004 0.0001 0.0003
# 4 0.0000 0.0001 0.0004 23.0142 0.0001 0.0003
# 5 0.0000 0.0000 0.0001 0.0001 33.5832 0.0000
# 6 0.0000 0.0000 0.0003 0.0003 0.0000 -9.2604
#
#
#
# Elastic Compliance Matrix: (Units=1/GPa)
#
#
# Indices 1 2 3 4 5 6 
#
# 1 0.016898 -0.001608 -0.004200 0.000000 0.000000 0.000000
# 2 -0.001608 0.008048 -0.004681 0.000000 0.000000 0.000000
# 3 -0.004200 -0.004681 0.015813 0.000000 0.000000 0.000001
# 4 0.000000 0.000000 0.000000 0.043451 0.000000 0.000001
# 5 0.000000 0.000000 0.000000 0.000000 0.029777 0.000000
# 6 0.000000 0.000000 0.000001 0.000001 0.000000 -0.107987
#
#
# Mechanical properties :
#
#
# Convention : Reuss Voigt Hill
#
# Bulk Modulus (GPa) = 50.55464 60.32381 55.43923
# Shear Modulus (GPa) = 148.93015 23.20197 86.06606
#
# Velocity S-wave (km/s) = 8.26958 3.26403 6.28649
# Velocity P-wave (km/s) = 10.69556 6.47339 8.84025
#
# Compressibility (1/GPa) = 0.01978058
#
# Stress axis : x y z
#
# Youngs Moduli (GPa) = 59.17852 124.26000 63.23736
#
# Poissons Ratio (x) = 0.19987 0.26559
# Poissons Ratio (y) = 0.09519 0.29601
# Poissons Ratio (z) = 0.24854 0.58166
#
# Static dielectric constant tensor:
#      x y z
#    x 1.954880 0.000000 0.000000 
#    y 0.000000 1.825210 0.000000 
#    z 0.000000 0.000000 1.775510 
# 
# From -- ./inp_files/18130.got.cif
#   From: 2010.05.17/outbox.cif.g08.bks.cpg/sg73_10_cif.got.tgz:18130.got - 2010.06.03 17:35:07.
