data_PCOD9533211
_publ_section_title
;
Structure prediction by ZEFSAII (Michael W. Deem and Ramdas Pophale) SiO2 
 PCOD9533211
Probable space group: I B C A 
;
_chemical_formula_sum "Si O2"
_cell_formula_units_Z 88
_cell_length_a 13.710712
_cell_length_b 18.894971
_cell_length_c 16.368619
_cell_angle_alpha 90.000000
_cell_angle_beta 90.000000
_cell_angle_gamma 90.000000
_cell_volume 4240.511820
_symmetry_space_group_name_H-M "I B C A "
_symmetry_group_IT_number 73
_symmetry_cell_setting 'orthorhombic'
loop_
_space_group_symop_operation_xyz
x,y,z
-x,1/2-y,z
x,-y,1/2-z
1/2-x,y,-z
-x,-y,-z
x,1/2+y,-z
-x,y,1/2+z
1/2+x,-y,z
1/2+x,1/2+y,1/2+z
1/2-x,-y,1/2+z
1/2+x,1/2-y,-z
-x,1/2+y,1/2-z
1/2-x,1/2-y,1/2-z
1/2+x,y,1/2-z
1/2-x,1/2+y,z
x,1/2-y,1/2+z
loop_
_atom_site_type_symbol
_atom_site_label
_atom_site_fract_x
_atom_site_fract_y
_atom_site_fract_z
Si Si1 0.599474 0.595909 0.390284
Si Si2 0.244902 0.800647 0.670304
Si Si3 0.250000 0.984291 0.500000
Si Si4 0.750000 0.277529 0.500000
Si Si5 0.322068 0.921799 0.767548
Si Si6 0.107566 0.606757 0.559604
Si Si7 0.368466 0.000000 0.250000
O O1 0.636945 0.666405 0.345319
O O2 0.693653 0.564506 0.435990
O O3 0.508180 0.604172 0.449438
O O4 0.574217 0.538165 0.321138
O O5 0.250000 0.750000 0.750000
O O6 0.268249 0.765325 0.583409
O O7 0.314655 0.867009 0.693525
O O8 0.166154 0.035784 0.464422
O O9 0.842137 0.328676 0.486016
O O10 0.371394 0.885233 0.844009
O O11 0.363744 0.000000 0.750000
O O12 0.208116 0.942220 0.786954
#
# Coordination Sequence:
#
# PCOD9533211 Si02
#       7
#    16  16   8   8  16  16   8
#     4  11  23  38  69  99 138 182 239 287 354 430
#     4  11  22  43  70  91 135 194 224 281 366 417
#     4  11  21  44  64 100 144 180 220 298 368 418
#     4  11  25  42  70  92 150 184 230 298 348 420
#     4   9  18  39  66  98 129 172 229 285 358 408
#     4  11  22  38  68 101 134 181 235 292 350 424
#     4   8  18  36  62  94 130 172 214 284 354 404
#
# _framework density 20.752212
#
# number of rings (size 3 to 8) (size 9 to 14) (size 15 to 20)
#    0.545    1.091    3.636    1.091    1.273    0.727 
#    0.000    0.000   12.000    0.000    0.000    0.000 
#    0.000    0.000    0.000    0.000    0.000    0.000 
#
# Total GULP energy -245324.326430 kJ/mol
# GULP energy per Si atom -5575.552873 kJ/mol
# Density = 2.070498 g / cm^3
# Si number density = 20.752212 Si / 1000 Ang^3
#
#
#
# Elastic Constant Matrix: (Units=GPa)
#
#
# Indices 1 2 3 4 5 6 
#
# 1 77.0471 46.8431 31.8493 0.0000 0.0000 0.0000
# 2 46.8431 117.6075 71.0637 0.0000 0.0000 0.0000
# 3 31.8493 71.0637 122.1271 -0.0001 0.0000 0.0000
# 4 0.0000 0.0000 -0.0001 52.0246 0.0000 0.0000
# 5 0.0000 0.0000 0.0000 0.0000 28.2004 0.0000
# 6 0.0000 0.0000 0.0000 0.0000 0.0000 5.5370
#
#
#
# Elastic Compliance Matrix: (Units=1/GPa)
#
#
# Indices 1 2 3 4 5 6 
#
# 1 0.017173 -0.006376 -0.000769 0.000000 0.000000 0.000000
# 2 -0.006376 0.015481 -0.007345 0.000000 0.000000 0.000000
# 3 -0.000769 -0.007345 0.012663 0.000000 0.000000 0.000000
# 4 0.000000 0.000000 0.000000 0.019222 0.000000 0.000000
# 5 0.000000 0.000000 0.000000 0.000000 0.035461 0.000000
# 6 0.000000 0.000000 0.000000 0.000000 0.000000 0.180602
#
#
# Mechanical properties :
#
#
# Convention : Reuss Voigt Hill
#
# Bulk Modulus (GPa) = 61.20927 68.47709 64.84318
# Shear Modulus (GPa) = 15.87176 28.28743 22.07960
#
# Velocity S-wave (km/s) = 2.76854 3.69603 3.26538
# Velocity P-wave (km/s) = 6.30707 7.16124 6.74768
#
# Compressibility (1/GPa) = 0.01633739
#
# Stress axis : x y z
#
# Youngs Moduli (GPa) = 58.23083 64.59726 78.97210
#
# Poissons Ratio (x) = 0.41184 0.06071
# Poissons Ratio (y) = 0.37125 0.58007
# Poissons Ratio (z) = 0.04476 0.47448
#
# Static dielectric constant tensor:
#      x y z
#    x 1.757460 0.000000 0.000000 
#    y 0.000000 1.805480 0.000000 
#    z 0.000000 0.000000 1.824350 
# 
# From -- ./inp_files/17000.got.cif
#   From: 2010.05.17/outbox.cif.g08.bks.cpg/sg73_9_cif.got.tgz:17000.got - 2010.06.03 17:35:07.
