data_PCOD9533782
_publ_section_title
;
Structure prediction by ZEFSAII (Michael W. Deem and Ramdas Pophale) SiO2 
 PCOD9533782
Probable space group: I B C A 
;
_chemical_formula_sum "Si O2"
_cell_formula_units_Z 52
_cell_length_a 15.000000
_cell_length_b 21.000000
_cell_length_c 18.000000
_cell_angle_alpha 90.000000
_cell_angle_beta 90.000000
_cell_angle_gamma 90.000000
_cell_volume 5670.000000
_symmetry_space_group_name_H-M "I B C A "
_symmetry_group_IT_number 73
_symmetry_cell_setting 'orthorhombic'
loop_
_space_group_symop_operation_xyz
x,y,z
-x,1/2-y,z
x,-y,1/2-z
1/2-x,y,-z
-x,-y,-z
x,1/2+y,-z
-x,y,1/2+z
1/2+x,-y,z
1/2+x,1/2+y,1/2+z
1/2-x,-y,1/2+z
1/2+x,1/2-y,-z
-x,1/2+y,1/2-z
1/2-x,1/2-y,1/2-z
1/2+x,y,1/2-z
1/2-x,1/2+y,z
x,1/2-y,1/2+z
loop_
_atom_site_type_symbol
_atom_site_label
_atom_site_fract_x
_atom_site_fract_y
_atom_site_fract_z
Si Si1 0.250000 0.234983 0.500000
Si Si2 0.884381 0.076935 0.773396
Si Si3 0.655330 0.519727 0.032059
Si Si4 0.712023 0.136436 0.863647
Si Si5 0.506331 0.675062 0.173894
Si Si6 0.937985 0.692901 0.495227
Si Si7 0.000595 0.068173 0.419712
O O1 0.255545 0.190783 0.424292
O O2 0.162374 0.279960 0.501232
O O3 0.792181 0.111627 0.806707
O O4 0.955702 0.074338 0.839832
O O5 0.938779 0.124026 0.714966
O O6 0.869090 0.000000 0.750000
O O7 0.688068 0.577183 0.083426
O O8 0.587415 0.476030 0.078938
O O9 0.750000 0.491943 0.000000
O O10 0.585478 0.543434 0.968769
O O11 0.613827 0.156669 0.828436
O O12 0.500000 0.750000 0.200609
O O13 0.469944 0.677140 0.088859
O O14 0.000000 0.750000 0.522275
O O15 0.962758 0.632593 0.544659
#
# Coordination Sequence:
#
# PCOD9533782 Si02
#       7
#     8  16  16  16  16  16  16
#     4  12  22  42  78 106 130 172 244 298 354 422
#     4  12  28  45  67 101 145 194 238 282 355 449
#     4  11  21  38  72  96 129 169 228 291 346 391
#     4  12  22  45  72  98 136 186 230 288 361 416
#     4  11  25  48  70  97 148 183 226 301 359 414
#     4  11  22  43  72 102 133 173 227 296 353 405
#     4  11  24  42  68 101 131 177 233 292 338 414
#
# _framework density 9.1710759999999993
#
# number of rings (size 3 to 8) (size 9 to 14) (size 15 to 20)
#    0.000    0.615    6.923    1.846    3.231    4.308 
#    2.769    0.000    0.000    0.000    0.000    0.000 
#    0.000    0.000    0.000    0.000    0.000    0.000 
#
# Total GULP energy -289609.312501 kJ/mol
# GULP energy per Si atom -5569.409856 kJ/mol
# Density = 0.915020 g / cm^3
# Si number density = 9.171076 Si / 1000 Ang^3
#
#
#
# Elastic Constant Matrix: (Units=GPa)
#
#
# Indices 1 2 3 4 5 6 
#
# 1 196.7166 48.9248 36.7614 0.0000 0.0000 0.0000
# 2 48.9248 73.8268 33.3601 0.0000 0.0000 0.0000
# 3 36.7614 33.3601 63.7072 0.0000 0.0000 0.0000
# 4 0.0000 0.0000 0.0000 -20.6565 0.0000 0.0000
# 5 0.0000 0.0000 0.0000 0.0000 37.9641 0.0000
# 6 0.0000 0.0000 0.0000 0.0000 0.0000 47.7897
#
#
#
# Elastic Compliance Matrix: (Units=1/GPa)
#
#
# Indices 1 2 3 4 5 6 
#
# 1 0.006255 -0.003293 -0.001885 0.000000 0.000000 0.000000
# 2 -0.003293 0.019478 -0.008299 0.000000 0.000000 0.000000
# 3 -0.001885 -0.008299 0.021130 0.000000 0.000000 0.000000
# 4 0.000000 0.000000 0.000000 -0.048411 0.000000 0.000000
# 5 0.000000 0.000000 0.000000 0.000000 0.026341 0.000000
# 6 0.000000 0.000000 0.000000 0.000000 0.000000 0.020925
#
#
# Mechanical properties :
#
#
# Convention : Reuss Voigt Hill
#
# Bulk Modulus (GPa) = 50.22996 63.59369 56.91182
# Shear Modulus (GPa) = 63.04542 27.36642 45.20592
#
# Velocity S-wave (km/s) = 5.86911 3.86683 4.96985
# Velocity P-wave (km/s) = 8.56581 7.39476 8.00174
#
# Compressibility (1/GPa) = 0.01990844
#
# Stress axis : x y z
#
# Youngs Moduli (GPa) = 159.87889 51.34037 47.32576
#
# Poissons Ratio (x) = 0.16908 0.08919
# Poissons Ratio (y) = 0.52654 0.39276
# Poissons Ratio (z) = 0.30131 0.42608
#
# Static dielectric constant tensor:
#      x y z
#    x 1.635950 0.000000 0.000000 
#    y 0.000000 1.698760 0.000000 
#    z 0.000000 0.000000 1.661170 
# 
# From -- ./inp_files/22067.got.cif
#   From: 2010.05.17/outbox.ucp.g08.bks.cvg/sg73_12_cif.got.tgz:22067.got - 2010.06.11 16:36:03.
