data_PCOD9533549
_publ_section_title
;
Structure prediction by ZEFSAII (Michael W. Deem and Ramdas Pophale) SiO2 
 PCOD9533549
Probable space group: I B C A 
;
_chemical_formula_sum "Si O2"
_cell_formula_units_Z 112
_cell_length_a 14.160038
_cell_length_b 13.778690
_cell_length_c 23.629506
_cell_angle_alpha 90.000000
_cell_angle_beta 90.000000
_cell_angle_gamma 90.000000
_cell_volume 4610.276687
_symmetry_space_group_name_H-M "I B C A "
_symmetry_group_IT_number 73
_symmetry_cell_setting 'orthorhombic'
loop_
_space_group_symop_operation_xyz
x,y,z
-x,1/2-y,z
x,-y,1/2-z
1/2-x,y,-z
-x,-y,-z
x,1/2+y,-z
-x,y,1/2+z
1/2+x,-y,z
1/2+x,1/2+y,1/2+z
1/2-x,-y,1/2+z
1/2+x,1/2-y,-z
-x,1/2+y,1/2-z
1/2-x,1/2-y,1/2-z
1/2+x,y,1/2-z
1/2-x,1/2+y,z
x,1/2-y,1/2+z
loop_
_atom_site_type_symbol
_atom_site_label
_atom_site_fract_x
_atom_site_fract_y
_atom_site_fract_z
Si Si1 0.104247 0.708658 0.766427
Si Si2 0.282714 0.236896 0.159978
Si Si3 0.535996 0.000000 0.250000
Si Si4 0.250000 0.295955 0.000000
Si Si5 0.666477 0.570491 0.427037
Si Si6 0.327578 0.078252 0.590468
Si Si7 0.003553 0.036437 0.624680
Si Si8 0.584476 0.322051 0.963829
O O1 0.177768 0.712138 0.818125
O O2 0.150721 0.768748 0.715441
O O3 0.096463 0.597973 0.744323
O O4 0.000000 0.750000 0.779379
O O5 0.327083 0.161424 0.115398
O O6 0.285208 0.346504 0.135902
O O7 0.482609 0.027372 0.307981
O O8 0.323464 0.361398 0.033086
O O9 0.184016 0.234932 0.042272
O O10 0.768126 0.518409 0.423795
O O11 0.601377 0.484555 0.404398
O O12 0.616570 0.606518 0.484813
O O13 0.431045 0.049540 0.609501
O O14 0.955796 0.127212 0.592688
O O15 0.500000 0.250000 0.982207
#
# Coordination Sequence:
#
# PCOD9533549 Si02
#       8
#    16  16   8   8  16  16  16  16
#     4  11  26  49  74 110 157 208 271 328 394 472
#     4  11  26  47  76 112 151 211 263 330 399 481
#     4  12  26  46  76 106 150 204 244 320 388 468
#     4  12  24  44  76 106 154 194 246 324 396 462
#     4  12  26  49  77 110 156 201 259 329 399 478
#     4  12  25  47  72 113 147 202 254 316 400 476
#     4  12  27  47  74 109 152 201 258 322 390 476
#     4  12  26  47  78 114 150 205 265 325 399 477
#
# _framework density 24.293551999999998
#
# number of rings (size 3 to 8) (size 9 to 14) (size 15 to 20)
#    0.000    0.286    2.857    5.571    4.000    0.571 
#    0.000    0.000    0.000    0.000    0.000    0.000 
#    0.000    0.000    0.000    0.000    0.000    0.000 
#
# Total GULP energy -313221.901213 kJ/mol
# GULP energy per Si atom -5593.248236 kJ/mol
# Density = 2.423826 g / cm^3
# Si number density = 24.293552 Si / 1000 Ang^3
#
#
#
# Elastic Constant Matrix: (Units=GPa)
#
#
# Indices 1 2 3 4 5 6 
#
# 1 104.4210 8.8537 12.0276 0.0000 0.0000 0.0000
# 2 8.8537 83.1712 12.0547 0.0000 0.0000 0.0000
# 3 12.0276 12.0547 107.5942 0.0000 0.0000 0.0000
# 4 0.0000 0.0000 0.0000 41.1373 0.0000 0.0000
# 5 0.0000 0.0000 0.0000 0.0000 20.6709 0.0000
# 6 0.0000 0.0000 0.0000 0.0000 0.0000 37.4521
#
#
#
# Elastic Compliance Matrix: (Units=1/GPa)
#
#
# Indices 1 2 3 4 5 6 
#
# 1 0.009767 -0.000896 -0.000991 0.000000 0.000000 0.000000
# 2 -0.000896 0.012304 -0.001278 0.000000 0.000000 0.000000
# 3 -0.000991 -0.001278 0.009548 0.000000 0.000000 0.000000
# 4 0.000000 0.000000 0.000000 0.024309 0.000000 0.000000
# 5 0.000000 0.000000 0.000000 0.000000 0.048377 0.000000
# 6 0.000000 0.000000 0.000000 0.000000 0.000000 0.026701
#
#
# Mechanical properties :
#
#
# Convention : Reuss Voigt Hill
#
# Bulk Modulus (GPa) = 39.54518 40.11759 39.83139
# Shear Modulus (GPa) = 34.30142 37.33542 35.81842
#
# Velocity S-wave (km/s) = 3.76168 3.92451 3.84396
# Velocity P-wave (km/s) = 5.93130 6.08977 6.01106
#
# Compressibility (1/GPa) = 0.02528753
#
# Stress axis : x y z
#
# Youngs Moduli (GPa) = 102.38786 81.27400 104.73141
#
# Poissons Ratio (x) = 0.07282 0.10383
# Poissons Ratio (y) = 0.09174 0.13389
# Poissons Ratio (z) = 0.10151 0.10390
#
# Static dielectric constant tensor:
#      x y z
#    x 1.874430 0.000000 0.000000 
#    y 0.000000 1.980510 0.000000 
#    z 0.000000 0.000000 1.999950 
# 
# From -- ./inp_files/29590.got.cif
#   From: 2010.05.17/outbox.cif.g08.bks.cpg/sg73_15_cif.got.tgz:29590.got - 2010.06.03 17:35:07.
