data_PCOD9533757
_publ_section_title
;
Structure prediction by ZEFSAII (Michael W. Deem and Ramdas Pophale) SiO2 
 PCOD9533757
Probable space group: I B C A 
;
_chemical_formula_sum "Si O2"
_cell_formula_units_Z 44
_cell_length_a 9.000000
_cell_length_b 24.000000
_cell_length_c 21.000000
_cell_angle_alpha 90.000000
_cell_angle_beta 90.000000
_cell_angle_gamma 90.000000
_cell_volume 4536.000000
_symmetry_space_group_name_H-M "I B C A "
_symmetry_group_IT_number 73
_symmetry_cell_setting 'orthorhombic'
loop_
_space_group_symop_operation_xyz
x,y,z
-x,1/2-y,z
x,-y,1/2-z
1/2-x,y,-z
-x,-y,-z
x,1/2+y,-z
-x,y,1/2+z
1/2+x,-y,z
1/2+x,1/2+y,1/2+z
1/2-x,-y,1/2+z
1/2+x,1/2-y,-z
-x,1/2+y,1/2-z
1/2-x,1/2-y,1/2-z
1/2+x,y,1/2-z
1/2-x,1/2+y,z
x,1/2-y,1/2+z
loop_
_atom_site_type_symbol
_atom_site_label
_atom_site_fract_x
_atom_site_fract_y
_atom_site_fract_z
Si Si1 0.250000 0.877573 0.500000
Si Si2 0.489914 0.568388 0.641132
Si Si3 0.254389 0.186050 0.769559
Si Si4 0.659787 0.954490 0.890752
Si Si5 0.511556 0.109838 0.218801
Si Si6 0.554391 0.685610 0.601517
O O1 0.348123 0.919466 0.456358
O O2 0.348652 0.836579 0.542884
O O3 0.388663 0.519252 0.611913
O O4 0.665015 0.554051 0.627077
O O5 0.483995 0.573273 0.717767
O O6 0.450918 0.630671 0.614533
O O7 0.250000 0.250000 0.750000
O O8 0.089447 0.164877 0.779571
O O9 0.327043 0.138390 0.724150
O O10 0.345402 0.184415 0.835030
O O11 0.547913 0.925088 0.840668
O O12 0.500000 0.750000 0.593819
#
# Coordination Sequence:
#
# PCOD9533757 Si02
#       6
#     8  16  16  16  16  16
#     4  10  22  46  62  88 134 166 216 254 318 366
#     4  10  23  39  64  91 126 163 207 264 324 368
#     4  11  21  37  63  93 128 164 211 259 323 379
#     4  11  23  41  63  93 128 169 207 265 314 382
#     4  11  20  38  59  94 126 162 202 267 321 367
#     4  10  21  44  62  87 127 169 204 268 313 366
#
# _framework density 9.7001760000000008
#
# number of rings (size 3 to 8) (size 9 to 14) (size 15 to 20)
#    0.000    1.455    5.455    3.273    2.545    4.364 
#    3.273    0.909    0.000    0.000    0.000    0.000 
#    0.000    0.000    0.000    0.000    0.000    0.000 
#
# Total GULP energy -245163.222391 kJ/mol
# GULP energy per Si atom -5571.891418 kJ/mol
# Density = 0.967810 g / cm^3
# Si number density = 9.700176 Si / 1000 Ang^3
#
#
#
# Elastic Constant Matrix: (Units=GPa)
#
#
# Indices 1 2 3 4 5 6 
#
# 1 43.4525 37.2410 22.7649 0.0000 0.0000 0.0000
# 2 37.2410 132.0059 59.6077 0.0000 0.0000 0.0000
# 3 22.7649 59.6077 98.6390 0.0000 0.0000 0.0000
# 4 0.0000 0.0000 0.0000 34.1938 0.0000 0.0000
# 5 0.0000 0.0000 0.0000 0.0000 31.8821 0.0000
# 6 0.0000 0.0000 0.0000 0.0000 0.0000 43.6113
#
#
#
# Elastic Compliance Matrix: (Units=1/GPa)
#
#
# Indices 1 2 3 4 5 6 
#
# 1 0.030814 -0.007539 -0.002556 0.000000 0.000000 0.000000
# 2 -0.007539 0.012263 -0.005671 0.000000 0.000000 0.000000
# 3 -0.002556 -0.005671 0.014155 0.000000 0.000000 0.000000
# 4 0.000000 0.000000 0.000000 0.029245 0.000000 0.000000
# 5 0.000000 0.000000 0.000000 0.000000 0.031366 0.000000
# 6 0.000000 0.000000 0.000000 0.000000 0.000000 0.022930
#
#
# Mechanical properties :
#
#
# Convention : Reuss Voigt Hill
#
# Bulk Modulus (GPa) = 38.90939 57.03607 47.97273
# Shear Modulus (GPa) = 27.64429 32.23636 29.94033
#
# Velocity S-wave (km/s) = 3.77893 4.08074 3.93273
# Velocity P-wave (km/s) = 6.25619 7.18795 6.73820
#
# Compressibility (1/GPa) = 0.02570074
#
# Stress axis : x y z
#
# Youngs Moduli (GPa) = 32.45289 81.54706 70.64887
#
# Poissons Ratio (x) = 0.61479 0.18055
# Poissons Ratio (y) = 0.24467 0.40062
# Poissons Ratio (z) = 0.08294 0.46241
#
# Static dielectric constant tensor:
#      x y z
#    x 1.760860 0.000000 0.000000 
#    y 0.000000 1.698490 0.000000 
#    z 0.000000 0.000000 1.715750 
# 
# From -- ./inp_files/6305.got.cif
#   From: 2010.05.17/outbox.ucp.g08.bks.cvg/sg73_4_cif.got.tgz:6305.got - 2010.06.11 16:36:03.
