data_PCOD9533778
_publ_section_title
;
Structure prediction by ZEFSAII (Michael W. Deem and Ramdas Pophale) SiO2 
 PCOD9533778
Probable space group: I B C A 
;
_chemical_formula_sum "Si O2"
_cell_formula_units_Z 60
_cell_length_a 24.000000
_cell_length_b 12.000000
_cell_length_c 21.000000
_cell_angle_alpha 90.000000
_cell_angle_beta 90.000000
_cell_angle_gamma 90.000000
_cell_volume 6048.000000
_symmetry_space_group_name_H-M "I B C A "
_symmetry_group_IT_number 73
_symmetry_cell_setting 'orthorhombic'
loop_
_space_group_symop_operation_xyz
x,y,z
-x,1/2-y,z
x,-y,1/2-z
1/2-x,y,-z
-x,-y,-z
x,1/2+y,-z
-x,y,1/2+z
1/2+x,-y,z
1/2+x,1/2+y,1/2+z
1/2-x,-y,1/2+z
1/2+x,1/2-y,-z
-x,1/2+y,1/2-z
1/2-x,1/2-y,1/2-z
1/2+x,y,1/2-z
1/2-x,1/2+y,z
x,1/2-y,1/2+z
loop_
_atom_site_type_symbol
_atom_site_label
_atom_site_fract_x
_atom_site_fract_y
_atom_site_fract_z
Si Si1 0.433182 0.242233 0.215578
Si Si2 0.025530 0.572263 0.555513
Si Si3 0.500000 0.250000 0.961519
Si Si4 0.321063 0.162730 0.060111
Si Si5 0.416473 0.465043 0.636467
Si Si6 0.906323 0.736223 0.861129
Si Si7 0.805464 0.881276 0.909774
Si Si8 0.136793 0.106774 0.385328
O O1 0.500000 0.250000 0.202486
O O2 0.414611 0.114749 0.198912
O O3 0.423462 0.268246 0.289516
O O4 0.394817 0.326432 0.172796
O O5 0.035119 0.683255 0.514663
O O6 0.084889 0.543217 0.582453
O O7 0.000000 0.500000 0.500000
O O8 0.977053 0.566541 0.607451
O O9 0.451524 0.215338 0.911858
O O10 0.368581 0.085961 0.091525
O O11 0.260820 0.142783 0.093201
O O12 0.337593 0.292275 0.072691
O O13 0.317576 0.129580 0.985804
O O14 0.410138 0.599570 0.637469
O O15 0.846149 0.789255 0.877406
O O16 0.819619 0.004106 0.880335
#
# Coordination Sequence:
#
# PCOD9533778 Si02
#       8
#    16  16   8  16  16  16  16  16
#     4  11  23  45  65  95 134 185 222 274 336 406
#     4  12  21  35  63  98 134 168 208 274 345 407
#     4  12  22  34  58 100 130 164 210 274 336 404
#     4  10  25  44  70  95 135 173 221 274 343 403
#     4  11  23  42  66  94 131 180 219 275 339 405
#     4  12  25  40  65  97 134 172 232 271 334 405
#     4  11  26  43  68 102 130 178 219 281 335 398
#     4  11  24  44  68  95 136 178 224 270 342 401
#
# _framework density 9.9206350000000008
#
# number of rings (size 3 to 8) (size 9 to 14) (size 15 to 20)
#    0.000    0.800    3.333    5.200    3.733    1.600 
#    2.400    2.667    5.867    0.000    0.000    0.000 
#    0.000    0.000    0.000    0.000    0.000    0.000 
#
# Total GULP energy -334379.804417 kJ/mol
# GULP energy per Si atom -5572.996740 kJ/mol
# Density = 0.989806 g / cm^3
# Si number density = 9.920635 Si / 1000 Ang^3
#
#
#
# Elastic Constant Matrix: (Units=GPa)
#
#
# Indices 1 2 3 4 5 6 
#
# 1 116.1505 35.2619 -6.9139 0.0000 0.0000 0.0000
# 2 35.2619 105.7380 21.3216 0.0000 0.0000 0.0000
# 3 -6.9139 21.3216 20.2891 0.0000 0.0000 0.0000
# 4 0.0000 0.0000 0.0000 19.2290 0.0000 0.0000
# 5 0.0000 0.0000 0.0000 0.0000 30.0633 0.0000
# 6 0.0000 0.0000 0.0000 0.0000 0.0000 32.9439
#
#
#
# Elastic Compliance Matrix: (Units=1/GPa)
#
#
# Indices 1 2 3 4 5 6 
#
# 1 0.010859 -0.005542 0.009524 0.000000 0.000000 0.000000
# 2 -0.005542 0.014828 -0.017472 0.000000 0.000000 0.000000
# 3 0.009524 -0.017472 0.070894 0.000000 0.000000 0.000000
# 4 0.000000 0.000000 0.000000 0.052005 0.000000 0.000000
# 5 0.000000 0.000000 0.000000 0.000000 0.033263 0.000000
# 6 0.000000 0.000000 0.000000 0.000000 0.000000 0.030355
#
#
# Mechanical properties :
#
#
# Convention : Reuss Voigt Hill
#
# Bulk Modulus (GPa) = 14.36726 37.94630 26.15678
# Shear Modulus (GPa) = 19.05613 29.28109 24.16861
#
# Velocity S-wave (km/s) = 3.10244 3.84574 3.49391
# Velocity P-wave (km/s) = 4.48222 6.23587 5.43030
#
# Compressibility (1/GPa) = 0.06960271
#
# Stress axis : x y z
#
# Youngs Moduli (GPa) = 92.09078 67.43783 14.10563
#
# Poissons Ratio (x) = 0.37372 -0.13434
# Poissons Ratio (y) = 0.51034 0.24645
# Poissons Ratio (z) = -0.87708 1.17824
#
# Static dielectric constant tensor:
#      x y z
#    x 1.718600 0.000000 0.000000 
#    y 0.000000 1.759300 0.000000 
#    z 0.000000 0.000000 1.761740 
# 
# From -- ./inp_files/27363.got.cif
#   From: 2010.05.17/outbox.ucp.g08.bks.cvg/sg73_14_cif.got.tgz:27363.got - 2010.06.11 16:36:03.
