data_PCOD9533200
_publ_section_title
;
Structure prediction by ZEFSAII (Michael W. Deem and Ramdas Pophale) SiO2 
 PCOD9533200
Probable space group: I B C A 
;
_chemical_formula_sum "Si O2"
_cell_formula_units_Z 96
_cell_length_a 21.443839
_cell_length_b 14.246032
_cell_length_c 14.353530
_cell_angle_alpha 90.000000
_cell_angle_beta 90.000000
_cell_angle_gamma 90.000000
_cell_volume 4384.854377
_symmetry_space_group_name_H-M "I B C A "
_symmetry_group_IT_number 73
_symmetry_cell_setting 'orthorhombic'
loop_
_space_group_symop_operation_xyz
x,y,z
-x,1/2-y,z
x,-y,1/2-z
1/2-x,y,-z
-x,-y,-z
x,1/2+y,-z
-x,y,1/2+z
1/2+x,-y,z
1/2+x,1/2+y,1/2+z
1/2-x,-y,1/2+z
1/2+x,1/2-y,-z
-x,1/2+y,1/2-z
1/2-x,1/2-y,1/2-z
1/2+x,y,1/2-z
1/2-x,1/2+y,z
x,1/2-y,1/2+z
loop_
_atom_site_type_symbol
_atom_site_label
_atom_site_fract_x
_atom_site_fract_y
_atom_site_fract_z
Si Si1 0.571181 0.759005 0.944524
Si Si2 0.750000 0.614200 0.500000
Si Si3 0.532860 0.000000 0.250000
Si Si4 0.331195 0.275265 0.908582
Si Si5 0.449570 0.031272 0.077206
Si Si6 0.318779 0.472492 0.859510
Si Si7 0.933543 0.203213 0.729717
O O1 0.500000 0.750000 0.978931
O O2 0.581157 0.870251 0.950123
O O3 0.573499 0.723672 0.839114
O O4 0.622907 0.707423 0.003956
O O5 0.791107 0.685561 0.438052
O O6 0.714341 0.547384 0.426611
O O7 0.490109 0.955903 0.329988
O O8 0.567870 0.908789 0.211012
O O9 0.293348 0.368037 0.880414
O O10 0.377355 0.250425 0.824515
O O11 0.391647 0.967863 0.108705
O O12 0.500000 0.000000 0.000000
O O13 0.315309 0.500000 0.750000
O O14 0.000000 0.250000 0.701952
#
# Coordination Sequence:
#
# PCOD9533200 Si02
#       7
#    16   8   8  16  16  16  16
#     4  11  21  42  66 105 148 179 223 293 360 434
#     4  12  30  52  72 108 138 194 262 300 362 436
#     4  12  22  38  66 108 150 188 224 292 366 438
#     4  12  26  47  74 102 142 189 244 306 358 434
#     4  12  22  40  70 105 147 185 230 288 362 443
#     4  12  27  52  77 104 145 199 246 304 377 437
#     4  11  23  41  67 108 145 185 235 289 368 439
#
# _framework density 21.893543000000001
#
# number of rings (size 3 to 8) (size 9 to 14) (size 15 to 20)
#    0.000    0.333    5.833    5.000    0.000    0.667 
#    4.500    0.000    0.000    0.000    0.000    0.000 
#    0.000    0.000    0.000    0.000    0.000    0.000 
#
# Total GULP energy -268345.066133 kJ/mol
# GULP energy per Si atom -5590.522211 kJ/mol
# Density = 2.184371 g / cm^3
# Si number density = 21.893543 Si / 1000 Ang^3
#
#
#
# Elastic Constant Matrix: (Units=GPa)
#
#
# Indices 1 2 3 4 5 6 
#
# 1 66.6237 37.9771 45.4914 0.0000 0.0000 0.0000
# 2 37.9771 168.3887 49.4316 0.0000 0.0000 0.0000
# 3 45.4914 49.4316 131.3460 0.0000 0.0000 0.0000
# 4 0.0000 0.0000 0.0000 31.4800 0.0000 0.0000
# 5 0.0000 0.0000 0.0000 0.0000 26.1050 0.0000
# 6 0.0000 0.0000 0.0000 0.0000 0.0000 33.4019
#
#
#
# Elastic Compliance Matrix: (Units=1/GPa)
#
#
# Indices 1 2 3 4 5 6 
#
# 1 0.020849 -0.002903 -0.006128 0.000000 0.000000 0.000000
# 2 -0.002903 0.007080 -0.001659 0.000000 0.000000 0.000000
# 3 -0.006128 -0.001659 0.010361 0.000000 0.000000 0.000000
# 4 0.000000 0.000000 0.000000 0.031766 0.000000 0.000000
# 5 0.000000 0.000000 0.000000 0.000000 0.038307 0.000000
# 6 0.000000 0.000000 0.000000 0.000000 0.000000 0.029938
#
#
# Mechanical properties :
#
#
# Convention : Reuss Voigt Hill
#
# Bulk Modulus (GPa) = 59.14191 70.23984 64.69088
# Shear Modulus (GPa) = 30.24452 33.76128 32.00290
#
# Velocity S-wave (km/s) = 3.72080 3.93117 3.82743
# Velocity P-wave (km/s) = 6.74768 7.26344 7.01031
#
# Compressibility (1/GPa) = 0.01690848
#
# Stress axis : x y z
#
# Youngs Moduli (GPa) = 47.96370 141.23385 96.52038
#
# Poissons Ratio (x) = 0.41001 0.59152
# Poissons Ratio (y) = 0.13924 0.16015
# Poissons Ratio (z) = 0.29394 0.23434
#
# Static dielectric constant tensor:
#      x y z
#    x 1.804690 0.000000 0.000000 
#    y 0.000000 1.938620 0.000000 
#    z 0.000000 0.000000 1.776280 
# 
# From -- ./inp_files/19355.got.cif
#   From: 2010.05.17/outbox.cif.g08.bks.cpg/sg73_10_cif.got.tgz:19355.got - 2010.06.03 17:35:07.
