data_PCOD9533390
_publ_section_title
;
Structure prediction by ZEFSAII (Michael W. Deem and Ramdas Pophale) SiO2 
 PCOD9533390
Probable space group: I B C A 
;
_chemical_formula_sum "Si O2"
_cell_formula_units_Z 80
_cell_length_a 13.278637
_cell_length_b 21.181950
_cell_length_c 14.232136
_cell_angle_alpha 90.000000
_cell_angle_beta 90.000000
_cell_angle_gamma 90.000000
_cell_volume 4003.036245
_symmetry_space_group_name_H-M "I B C A "
_symmetry_group_IT_number 73
_symmetry_cell_setting 'orthorhombic'
loop_
_space_group_symop_operation_xyz
x,y,z
-x,1/2-y,z
x,-y,1/2-z
1/2-x,y,-z
-x,-y,-z
x,1/2+y,-z
-x,y,1/2+z
1/2+x,-y,z
1/2+x,1/2+y,1/2+z
1/2-x,-y,1/2+z
1/2+x,1/2-y,-z
-x,1/2+y,1/2-z
1/2-x,1/2-y,1/2-z
1/2+x,y,1/2-z
1/2-x,1/2+y,z
x,1/2-y,1/2+z
loop_
_atom_site_type_symbol
_atom_site_label
_atom_site_fract_x
_atom_site_fract_y
_atom_site_fract_z
Si Si1 0.672631 0.500000 0.750000
Si Si2 0.156840 0.576892 0.161521
Si Si3 0.024477 0.151726 0.693003
Si Si4 0.750000 0.344175 0.000000
Si Si5 0.002839 0.981211 0.392926
Si Si6 0.337424 0.234399 0.825596
O O1 0.742293 0.441244 0.781293
O O2 0.597396 0.511004 0.837282
O O3 0.083423 0.622442 0.218997
O O4 0.098800 0.511390 0.147617
O O5 0.180446 0.609413 0.062094
O O6 0.997216 0.093148 0.626503
O O7 0.101903 0.201959 0.649087
O O8 0.922445 0.188456 0.718564
O O9 0.798957 0.300186 0.080409
O O10 0.000000 0.000000 0.500000
O O11 0.250000 0.250000 0.750000
#
# Coordination Sequence:
#
# PCOD9533390 Si02
#       6
#     8  16  16   8  16  16
#     4  12  22  42  72 102 146 184 220 286 372 420
#     4  12  23  44  73 104 143 185 230 298 365 425
#     4  11  23  47  68  99 145 181 239 289 352 423
#     4  12  26  48  74 106 142 186 250 294 354 434
#     4  12  25  43  69 108 141 186 232 297 365 429
#     4  11  25  47  72  98 139 195 236 296 352 412
#
# _framework density 19.984829999999999
#
# number of rings (size 3 to 8) (size 9 to 14) (size 15 to 20)
#    0.000    0.400    6.000    3.600    0.000    0.000 
#   14.400    0.000    0.000    0.000    0.000    0.000 
#    0.000    0.000    0.000    0.000    0.000    0.000 
#
# Total GULP energy -223441.305736 kJ/mol
# GULP energy per Si atom -5586.032643 kJ/mol
# Density = 1.993934 g / cm^3
# Si number density = 19.984830 Si / 1000 Ang^3
#
#
#
# Elastic Constant Matrix: (Units=GPa)
#
#
# Indices 1 2 3 4 5 6 
#
# 1 133.3087 57.8811 71.3246 -0.0001 0.0000 0.0000
# 2 57.8811 118.6970 42.9477 -0.0003 0.0001 -0.0001
# 3 71.3246 42.9477 151.7894 -0.0006 0.0002 -0.0001
# 4 -0.0001 -0.0003 -0.0006 37.2208 0.0001 -0.0001
# 5 0.0000 0.0001 0.0002 0.0001 22.4065 0.0000
# 6 0.0000 -0.0001 -0.0001 -0.0001 0.0000 46.2626
#
#
#
# Elastic Compliance Matrix: (Units=1/GPa)
#
#
# Indices 1 2 3 4 5 6 
#
# 1 0.011567 -0.004093 -0.004277 0.000000 0.000000 0.000000
# 2 -0.004093 0.010834 -0.001142 0.000000 0.000000 0.000000
# 3 -0.004277 -0.001142 0.008921 0.000000 0.000000 0.000000
# 4 0.000000 0.000000 0.000000 0.026867 0.000000 0.000000
# 5 0.000000 0.000000 0.000000 0.000000 0.044630 0.000000
# 6 0.000000 0.000000 0.000000 0.000000 0.000000 0.021616
#
#
# Mechanical properties :
#
#
# Convention : Reuss Voigt Hill
#
# Bulk Modulus (GPa) = 81.31745 83.12243 82.21994
# Shear Modulus (GPa) = 33.88507 36.62076 35.25291
#
# Velocity S-wave (km/s) = 4.12216 4.28533 4.20454
# Velocity P-wave (km/s) = 7.96456 8.13440 8.04993
#
# Compressibility (1/GPa) = 0.01229748
#
# Stress axis : x y z
#
# Youngs Moduli (GPa) = 86.45384 92.30273 112.09458
#
# Poissons Ratio (x) = 0.37778 0.47944
# Poissons Ratio (y) = 0.35384 0.12803
# Poissons Ratio (z) = 0.36977 0.10543
#
# Static dielectric constant tensor:
#      x y z
#    x 1.736950 0.000000 0.000000 
#    y 0.000000 1.729780 0.000000 
#    z 0.000000 0.000000 1.684510 
# 
# From -- ./inp_files/16884.got.cif
#   From: 2010.05.17/outbox.cif.g08.bks.cpg/sg73_9_cif.got.tgz:16884.got - 2010.06.03 17:35:07.
