data_PCOD9533899
_publ_section_title
;
Structure prediction by ZEFSAII (Michael W. Deem and Ramdas Pophale) SiO2 
 PCOD9533899
Probable space group: I M M A
;
_chemical_formula_sum "Si O2"
_cell_formula_units_Z 80
_cell_length_a 10.960077
_cell_length_b 28.393283
_cell_length_c 13.953610
_cell_angle_alpha 90.000000
_cell_angle_beta 90.000000
_cell_angle_gamma 90.000000
_cell_volume 4342.259728
_symmetry_space_group_name_H-M "I M M A"
_symmetry_group_IT_number 74
_symmetry_cell_setting 'orthorhombic'
loop_
_space_group_symop_operation_xyz
x,y,z
-x,1/2-y,z
x,-y,-z
-x,1/2+y,-z
-x,-y,-z
x,1/2+y,-z
-x,y,z
x,1/2-y,z
1/2+x,1/2+y,1/2+z
1/2-x,-y,1/2+z
1/2+x,1/2-y,1/2-z
1/2-x,y,1/2-z
1/2-x,1/2-y,1/2-z
1/2+x,y,1/2-z
1/2-x,1/2+y,1/2+z
1/2+x,-y,1/2+z
loop_
_atom_site_type_symbol
_atom_site_label
_atom_site_fract_x
_atom_site_fract_y
_atom_site_fract_z
Si Si1 0.500000 0.896758 0.179173
Si Si2 0.210728 0.303168 0.423431
Si Si3 0.000000 0.054467 0.474140
Si Si4 0.000000 0.300979 0.582941
Si Si5 0.857508 0.304722 0.901887
Si Si6 0.750000 0.123730 0.750000
Si Si7 0.637716 0.396083 0.185456
O O1 0.500000 0.840674 0.161642
O O2 0.628448 0.906597 0.229877
O O3 0.500000 0.918005 0.073412
O O4 0.209985 0.250000 0.383268
O O5 0.112402 0.304559 0.509858
O O6 0.332909 0.311899 0.484498
O O7 0.174457 0.343915 0.350806
O O8 0.886378 0.071581 0.408406
O O9 0.000000 0.000000 0.500000
O O10 0.000000 0.250000 0.629946
O O11 0.823387 0.250000 0.880971
O O12 0.782840 0.341864 0.838602
O O13 0.000000 0.310566 0.881946
O O14 0.500000 0.394338 0.230088
O O15 0.750000 0.413038 0.250000
#
# Coordination Sequence:
#
# PCOD9533899 Si02
#       7
#     8  16   8   8  16   8  16
#     4  12  22  38  56  87 112 156 197 235 302 344
#     4  10  18  32  54  78 115 163 202 235 286 353
#     4  10  22  46  70  85 114 160 188 233 310 376
#     4  10  16  28  52  72 102 151 200 222 260 341
#     4  10  20  30  43  72 114 161 205 245 285 326
#     4  12  21  32  50  80 116 144 200 252 283 336
#     4  10  21  39  63  94 119 151 197 245 294 351
#
# _framework density 18.423587999999999
#
# number of rings (size 3 to 8) (size 9 to 14) (size 15 to 20)
#    0.600    1.000    6.000    0.300    0.000    2.000 
#    1.800    0.000    0.000    0.600    0.000    0.000 
#    0.000    0.000    0.000    0.000    0.000    0.000 
#
# Total GULP energy -222864.677380 kJ/mol
# GULP energy per Si atom -5571.616934 kJ/mol
# Density = 1.838165 g / cm^3
# Si number density = 18.423588 Si / 1000 Ang^3
#
#
#
# Elastic Constant Matrix: (Units=GPa)
#
#
# Indices 1 2 3 4 5 6 
#
# 1 127.5948 24.0705 51.5691 0.0000 0.0000 0.0000
# 2 24.0705 64.2634 27.5335 0.0001 0.0000 0.0000
# 3 51.5691 27.5335 54.9273 0.0003 -0.0001 -0.0001
# 4 0.0000 0.0001 0.0003 -0.8233 0.0000 -0.0001
# 5 0.0000 0.0000 -0.0001 0.0000 35.5406 0.0000
# 6 0.0000 0.0000 -0.0001 -0.0001 0.0000 0.6050
#
#
#
# Elastic Compliance Matrix: (Units=1/GPa)
#
#
# Indices 1 2 3 4 5 6 
#
# 1 0.012640 0.000446 -0.012090 -0.000004 0.000000 -0.000001
# 2 0.000446 0.019833 -0.010360 -0.000003 0.000000 0.000000
# 3 -0.012090 -0.010360 0.034750 0.000012 0.000000 0.000003
# 4 -0.000004 -0.000003 0.000012 -1.214668 -0.000001 -0.000118
# 5 0.000000 0.000000 0.000000 -0.000001 0.028137 -0.000001
# 6 -0.000001 0.000000 0.000003 -0.000118 -0.000001 1.652804
#
#
# Mechanical properties :
#
#
# Convention : Reuss Voigt Hill
#
# Bulk Modulus (GPa) = 43.07874 50.34797 46.71335
# Shear Modulus (GPa) = 8.54346 16.63864 12.59105
#
# Velocity S-wave (km/s) = 2.15576 3.00845 2.61707
# Velocity P-wave (km/s) = 5.44330 6.28132 5.87727
#
# Compressibility (1/GPa) = 0.02321331
#
# Stress axis : x y z
#
# Youngs Moduli (GPa) = 79.11589 50.42166 28.77677
#
# Poissons Ratio (x) = -0.02248 0.34792
# Poissons Ratio (y) = -0.03527 0.29813
# Poissons Ratio (z) = 0.95654 0.52237
#
# Static dielectric constant tensor:
#      x y z
#    x 1.744320 0.000000 0.000000 
#    y 0.000000 1.631690 0.000000 
#    z 0.000000 0.000000 1.654930 
# 
# From -- ./inp_files/30945.got.cif
#   From: 2010.05.17/outbox.cif.g08.bks.cpg/sg74_16_cif.got.tgz:30945.got - 2010.06.03 17:57:02.
