data_PCOD9533021
_publ_section_title
;
Structure prediction by ZEFSAII (Michael W. Deem and Ramdas Pophale) SiO2 
 PCOD9533021
Probable space group: I B C A 
;
_chemical_formula_sum "Si O2"
_cell_formula_units_Z 112
_cell_length_a 11.393043
_cell_length_b 15.069153
_cell_length_c 30.970763
_cell_angle_alpha 90.000000
_cell_angle_beta 90.000000
_cell_angle_gamma 90.000000
_cell_volume 5317.169240
_symmetry_space_group_name_H-M "I B C A "
_symmetry_group_IT_number 73
_symmetry_cell_setting 'orthorhombic'
loop_
_space_group_symop_operation_xyz
x,y,z
-x,1/2-y,z
x,-y,1/2-z
1/2-x,y,-z
-x,-y,-z
x,1/2+y,-z
-x,y,1/2+z
1/2+x,-y,z
1/2+x,1/2+y,1/2+z
1/2-x,-y,1/2+z
1/2+x,1/2-y,-z
-x,1/2+y,1/2-z
1/2-x,1/2-y,1/2-z
1/2+x,y,1/2-z
1/2-x,1/2+y,z
x,1/2-y,1/2+z
loop_
_atom_site_type_symbol
_atom_site_label
_atom_site_fract_x
_atom_site_fract_y
_atom_site_fract_z
Si Si1 0.102388 0.930395 0.809913
Si Si2 0.766157 0.390599 0.051778
Si Si3 0.677139 0.698754 0.809711
Si Si4 0.134970 0.267832 0.903833
Si Si5 0.568290 0.874579 0.781470
Si Si6 0.733311 0.410494 0.448774
Si Si7 0.490488 0.852508 0.101068
O O1 0.222826 0.874885 0.803617
O O2 0.031439 0.896519 0.767785
O O3 0.040800 0.907826 0.855476
O O4 0.119558 0.035746 0.802636
O O5 0.688479 0.310232 0.068206
O O6 0.723076 0.487892 0.065382
O O7 0.894527 0.379717 0.073541
O O8 0.750000 0.389104 0.000000
O O9 0.698674 0.731838 0.858151
O O10 0.656590 0.790261 0.783126
O O11 0.550375 0.651694 0.806249
O O12 0.157830 0.361511 0.926594
O O13 0.000000 0.250000 0.896736
O O14 0.750000 0.405550 0.500000
O O15 0.618493 0.361060 0.431766
O O16 0.500000 0.750000 0.114513
#
# Coordination Sequence:
#
# PCOD9533021 Si02
#       7
#    16  16  16  16  16  16  16
#     4  11  25  45  71 103 137 185 234 289 349 410
#     4  11  28  46  71 103 137 185 227 286 347 409
#     4  11  23  46  67 101 138 182 233 283 351 415
#     4  12  25  44  71 100 137 183 226 282 348 416
#     4  10  25  45  69 101 137 187 233 286 352 419
#     4  11  27  45  70 104 137 182 228 288 349 413
#     4  12  26  46  71 105 141 180 234 287 346 411
#
# _framework density 21.063839999999999
#
# number of rings (size 3 to 8) (size 9 to 14) (size 15 to 20)
#    0.000    0.857    4.286    0.857   10.000    3.429 
#    5.143    0.000    0.000    0.000    0.000    0.000 
#    0.000    0.000    0.000    0.000    0.000    0.000 
#
# Total GULP energy -312708.015811 kJ/mol
# GULP energy per Si atom -5584.071711 kJ/mol
# Density = 2.101590 g / cm^3
# Si number density = 21.063840 Si / 1000 Ang^3
#
#
#
# Elastic Constant Matrix: (Units=GPa)
#
#
# Indices 1 2 3 4 5 6 
#
# 1 68.2633 29.7527 21.5597 0.0000 0.0000 0.0000
# 2 29.7527 143.0286 33.3744 0.0000 0.0000 0.0000
# 3 21.5597 33.3744 92.0940 0.0000 0.0000 0.0000
# 4 0.0000 0.0000 0.0000 36.8213 0.0000 0.0000
# 5 0.0000 0.0000 0.0000 0.0000 18.7160 0.0000
# 6 0.0000 0.0000 0.0000 0.0000 0.0000 22.6518
#
#
#
# Elastic Compliance Matrix: (Units=1/GPa)
#
#
# Indices 1 2 3 4 5 6 
#
# 1 0.016795 -0.002814 -0.002912 0.000000 0.000000 0.000000
# 2 -0.002814 0.008109 -0.002280 0.000000 0.000000 0.000000
# 3 -0.002912 -0.002280 0.012366 0.000000 0.000000 0.000000
# 4 0.000000 0.000000 0.000000 0.027158 0.000000 0.000000
# 5 0.000000 0.000000 0.000000 0.000000 0.053430 0.000000
# 6 0.000000 0.000000 0.000000 0.000000 0.000000 0.044147
#
#
# Mechanical properties :
#
#
# Convention : Reuss Voigt Hill
#
# Bulk Modulus (GPa) = 47.03982 52.52886 49.78434
# Shear Modulus (GPa) = 27.01181 30.21777 28.61479
#
# Velocity S-wave (km/s) = 3.58492 3.79169 3.68975
# Velocity P-wave (km/s) = 6.28618 6.64540 6.46828
#
# Compressibility (1/GPa) = 0.02125858
#
# Stress axis : x y z
#
# Youngs Moduli (GPa) = 59.53985 123.31959 80.86430
#
# Poissons Ratio (x) = 0.34706 0.23548
# Poissons Ratio (y) = 0.16756 0.18436
# Poissons Ratio (z) = 0.17338 0.28115
#
# Static dielectric constant tensor:
#      x y z
#    x 1.761430 0.000000 0.000000 
#    y 0.000000 1.755300 0.000000 
#    z 0.000000 0.000000 1.766880 
# 
# From -- ./inp_files/34028.got.cif
#   From: 2010.05.17/outbox.cif.g08.bks.cpg/sg73_18_cif.got.tgz:34028.got - 2010.06.03 17:35:07.
