data_PCOD9533472
_publ_section_title
;
Structure prediction by ZEFSAII (Michael W. Deem and Ramdas Pophale) SiO2 
 PCOD9533472
Probable space group: I B C A 
;
_chemical_formula_sum "Si O2"
_cell_formula_units_Z 120
_cell_length_a 22.283675
_cell_length_b 22.233389
_cell_length_c 11.923984
_cell_angle_alpha 90.000000
_cell_angle_beta 90.000000
_cell_angle_gamma 90.000000
_cell_volume 5907.637886
_symmetry_space_group_name_H-M "I B C A "
_symmetry_group_IT_number 73
_symmetry_cell_setting 'orthorhombic'
loop_
_space_group_symop_operation_xyz
x,y,z
-x,1/2-y,z
x,-y,1/2-z
1/2-x,y,-z
-x,-y,-z
x,1/2+y,-z
-x,y,1/2+z
1/2+x,-y,z
1/2+x,1/2+y,1/2+z
1/2-x,-y,1/2+z
1/2+x,1/2-y,-z
-x,1/2+y,1/2-z
1/2-x,1/2-y,1/2-z
1/2+x,y,1/2-z
1/2-x,1/2+y,z
x,1/2-y,1/2+z
loop_
_atom_site_type_symbol
_atom_site_label
_atom_site_fract_x
_atom_site_fract_y
_atom_site_fract_z
Si Si1 0.312350 0.212653 0.732029
Si Si2 0.185912 0.856535 0.454384
Si Si3 0.000000 0.250000 0.501337
Si Si4 0.347689 0.481998 0.373382
Si Si5 0.399912 0.313890 0.639261
Si Si6 0.926788 0.646410 0.881858
Si Si7 0.989294 0.969643 0.875748
Si Si8 0.817878 0.611860 0.041380
O O1 0.250000 0.250000 0.750000
O O2 0.331551 0.187155 0.852674
O O3 0.359764 0.257357 0.676813
O O4 0.312261 0.154476 0.650836
O O5 0.250000 0.835727 0.500000
O O6 0.189525 0.925272 0.415396
O O7 0.137773 0.852216 0.551738
O O8 0.959318 0.208877 0.421545
O O9 0.959069 0.293002 0.576773
O O10 0.327179 0.500000 0.250000
O O11 0.417316 0.461841 0.368908
O O12 0.340955 0.544001 0.439861
O O13 0.411726 0.349547 0.751725
O O14 0.972899 0.591172 0.889830
O O15 0.866268 0.639223 0.954878
O O16 0.004494 0.000000 0.750000
O O17 0.000000 0.000000 0.000000
O O18 0.750000 0.608659 0.000000
#
# Coordination Sequence:
#
# PCOD9533472 Si02
#       8
#    16  16   8  16  16  16  16  16
#     4  12  25  46  72 105 147 193 246 298 375 449
#     4  12  26  45  73 106 145 191 245 304 363 448
#     4  12  26  48  70 108 152 188 248 308 376 444
#     4  11  24  47  71 103 140 191 244 299 372 436
#     4  12  27  43  74 109 146 195 244 307 373 443
#     4  12  27  47  73 109 150 192 249 310 373 448
#     4  11  26  47  76 106 142 195 249 306 375 446
#     4  12  26  46  73 103 147 193 242 306 373 446
#
# _framework density 20.312685999999999
#
# number of rings (size 3 to 8) (size 9 to 14) (size 15 to 20)
#    0.000    0.267    5.333    3.200    5.600    1.067 
#    0.000    0.667    0.000    0.000    0.000    0.000 
#    0.000    0.000    0.000    0.000    0.000    0.000 
#
# Total GULP energy -335226.494206 kJ/mol
# GULP energy per Si atom -5587.108237 kJ/mol
# Density = 2.026645 g / cm^3
# Si number density = 20.312686 Si / 1000 Ang^3
#
#
#
# Elastic Constant Matrix: (Units=GPa)
#
#
# Indices 1 2 3 4 5 6 
#
# 1 80.4187 6.2313 21.3028 0.0000 0.0000 0.0000
# 2 6.2313 68.8224 26.4988 0.0000 0.0000 0.0000
# 3 21.3028 26.4988 133.7832 0.0000 0.0000 0.0000
# 4 0.0000 0.0000 0.0000 46.0222 0.0000 0.0000
# 5 0.0000 0.0000 0.0000 0.0000 22.9680 0.0000
# 6 0.0000 0.0000 0.0000 0.0000 0.0000 164.6824
#
#
#
# Elastic Compliance Matrix: (Units=1/GPa)
#
#
# Indices 1 2 3 4 5 6 
#
# 1 0.012993 -0.000411 -0.001988 0.000000 0.000000 0.000000
# 2 -0.000411 0.015743 -0.003053 0.000000 0.000000 0.000000
# 3 -0.001988 -0.003053 0.008396 0.000000 0.000000 0.000000
# 4 0.000000 0.000000 0.000000 0.021729 0.000000 0.000000
# 5 0.000000 0.000000 0.000000 0.000000 0.043539 0.000000
# 6 0.000000 0.000000 0.000000 0.000000 0.000000 0.006072
#
#
# Mechanical properties :
#
#
# Convention : Reuss Voigt Hill
#
# Bulk Modulus (GPa) = 38.12557 43.45444 40.79000
# Shear Modulus (GPa) = 39.02663 62.00060 50.51362
#
# Velocity S-wave (km/s) = 4.38801 5.53076 4.99219
# Velocity P-wave (km/s) = 6.66955 7.88828 7.30438
#
# Compressibility (1/GPa) = 0.02622912
#
# Stress axis : x y z
#
# Youngs Moduli (GPa) = 76.96288 63.52111 119.10533
#
# Poissons Ratio (x) = 0.02612 0.23673
# Poissons Ratio (y) = 0.03164 0.36360
# Poissons Ratio (z) = 0.15297 0.19391
#
# Static dielectric constant tensor:
#      x y z
#    x 0.822980 0.000000 0.000000 
#    y 0.000000 2.989490 0.000000 
#    z 0.000000 0.000000 1.712520 
# 
# From -- ./inp_files/13126.got.cif
#   From: 2010.05.17/outbox.cif.g08.bks.cpg/sg73_7_cif.got.tgz:13126.got - 2010.06.03 17:35:07.
