data_PCOD9533950
_publ_section_title
;
Structure prediction by ZEFSAII (Michael W. Deem and Ramdas Pophale) SiO2 
 PCOD9533950
Probable space group: I M M A
;
_chemical_formula_sum "Si O2"
_cell_formula_units_Z 72
_cell_length_a 8.283577
_cell_length_b 24.291985
_cell_length_c 23.962344
_cell_angle_alpha 90.000000
_cell_angle_beta 90.000000
_cell_angle_gamma 90.000000
_cell_volume 4821.811367
_symmetry_space_group_name_H-M "I M M A"
_symmetry_group_IT_number 74
_symmetry_cell_setting 'orthorhombic'
loop_
_space_group_symop_operation_xyz
x,y,z
-x,1/2-y,z
x,-y,-z
-x,1/2+y,-z
-x,-y,-z
x,1/2+y,-z
-x,y,z
x,1/2-y,z
1/2+x,1/2+y,1/2+z
1/2-x,-y,1/2+z
1/2+x,1/2-y,1/2-z
1/2-x,y,1/2-z
1/2-x,1/2-y,1/2-z
1/2+x,y,1/2-z
1/2-x,1/2+y,1/2+z
1/2+x,-y,1/2+z
loop_
_atom_site_type_symbol
_atom_site_label
_atom_site_fract_x
_atom_site_fract_y
_atom_site_fract_z
Si Si1 0.811720 0.585329 0.517384
Si Si2 0.312188 0.478353 0.579171
Si Si3 0.306569 0.475698 0.186943
Si Si4 0.197093 0.137956 0.372675
Si Si5 0.195387 0.250000 0.313821
O O1 0.724405 0.574749 0.458756
O O2 0.790297 0.528058 0.551700
O O3 0.750784 0.629234 0.563003
O O4 0.000000 0.594755 0.506507
O O5 0.500000 0.492255 0.573161
O O6 0.264392 0.479623 0.643767
O O7 0.500000 0.477644 0.184368
O O8 0.250000 0.482882 0.250000
O O9 0.253251 0.415369 0.163726
O O10 0.251164 0.194554 0.344841
O O11 0.000000 0.137548 0.373417
O O12 0.250000 0.250000 0.250000
O O13 0.000000 0.250000 0.314975
#
# Coordination Sequence:
#
# PCOD9533950 Si02
#       5
#    16  16  16  16   8
#     4   9  15  26  40  55  73  96 124 159 197 234
#     4  10  17  25  38  57  75  96 123 156 193 234
#     4  10  18  28  39  55  77 104 132 161 193 231
#     4   8  16  27  41  56  74 100 132 166 201 231
#     4  10  18  30  42  56  76 102 135 170 201 232
#
# _framework density 14.932148
#
# number of rings (size 3 to 8) (size 9 to 14) (size 15 to 20)
#    0.000    2.667    0.000    6.667    0.000    0.000 
#    0.000    5.556    0.000    0.000    0.000    0.000 
#    0.000    0.000    0.000    1.000    0.000   10.000 
#
# Total GULP energy -200423.093292 kJ/mol
# GULP energy per Si atom -5567.308147 kJ/mol
# Density = 1.489816 g / cm^3
# Si number density = 14.932148 Si / 1000 Ang^3
#
#
#
# Elastic Constant Matrix: (Units=GPa)
#
#
# Indices 1 2 3 4 5 6 
#
# 1 26.6670 6.7569 17.0787 0.0000 0.0000 0.0000
# 2 6.7569 49.5970 57.6273 0.0000 0.0000 0.0000
# 3 17.0787 57.6273 145.3098 0.0000 0.0000 0.0000
# 4 0.0000 0.0000 0.0000 26.7669 0.0000 0.0000
# 5 0.0000 0.0000 0.0000 0.0000 24.3011 0.0000
# 6 0.0000 0.0000 0.0000 0.0000 0.0000 6.1284
#
#
#
# Elastic Compliance Matrix: (Units=1/GPa)
#
#
# Indices 1 2 3 4 5 6 
#
# 1 0.040552 0.000025 -0.004776 0.000000 0.000000 0.000000
# 2 0.000025 0.037393 -0.014832 0.000000 0.000000 0.000000
# 3 -0.004776 -0.014832 0.013325 0.000000 0.000000 0.000000
# 4 0.000000 0.000000 0.000000 0.037360 0.000000 0.000000
# 5 0.000000 0.000000 0.000000 0.000000 0.041150 0.000000
# 6 0.000000 0.000000 0.000000 0.000000 0.000000 0.163174
#
#
# Mechanical properties :
#
#
# Convention : Reuss Voigt Hill
#
# Bulk Modulus (GPa) = 19.19274 42.72218 30.95746
# Shear Modulus (GPa) = 12.83731 20.78002 16.80867
#
# Velocity S-wave (km/s) = 2.93526 3.73450 3.35874
# Velocity P-wave (km/s) = 4.93649 6.87520 5.98486
#
# Compressibility (1/GPa) = 0.05210303
#
# Stress axis : x y z
#
# Youngs Moduli (GPa) = 24.65973 26.74301 75.04472
#
# Poissons Ratio (x) = -0.00066 0.35841
# Poissons Ratio (y) = -0.00061 1.11308
# Poissons Ratio (z) = 0.11777 0.39666
#
# Static dielectric constant tensor:
#      x y z
#    x 1.510530 0.000000 0.000000 
#    y 0.000000 1.491860 0.000000 
#    z 0.000000 0.000000 1.532030 
# 
# From -- ./inp_files/57119.got.cif
#   From: 2010.05.17/outbox.cif.g08.bks.cpg/sg74_29_cif.got.tgz:57119.got - 2010.06.03 17:57:02.
