data_PCOD9533439
_publ_section_title
;
Structure prediction by ZEFSAII (Michael W. Deem and Ramdas Pophale) SiO2 
 PCOD9533439
Probable space group: I B C A 
;
_chemical_formula_sum "Si O2"
_cell_formula_units_Z 88
_cell_length_a 14.036626
_cell_length_b 23.548702
_cell_length_c 11.891279
_cell_angle_alpha 90.000000
_cell_angle_beta 90.000000
_cell_angle_gamma 90.000000
_cell_volume 3930.594764
_symmetry_space_group_name_H-M "I B C A "
_symmetry_group_IT_number 73
_symmetry_cell_setting 'orthorhombic'
loop_
_space_group_symop_operation_xyz
x,y,z
-x,1/2-y,z
x,-y,1/2-z
1/2-x,y,-z
-x,-y,-z
x,1/2+y,-z
-x,y,1/2+z
1/2+x,-y,z
1/2+x,1/2+y,1/2+z
1/2-x,-y,1/2+z
1/2+x,1/2-y,-z
-x,1/2+y,1/2-z
1/2-x,1/2-y,1/2-z
1/2+x,y,1/2-z
1/2-x,1/2+y,z
x,1/2-y,1/2+z
loop_
_atom_site_type_symbol
_atom_site_label
_atom_site_fract_x
_atom_site_fract_y
_atom_site_fract_z
Si Si1 0.838149 0.050460 0.083657
Si Si2 0.489100 0.371094 0.484182
Si Si3 0.500000 0.250000 0.063807
Si Si4 0.815609 0.162683 0.667409
Si Si5 0.794467 0.276782 0.386767
Si Si6 0.150336 0.421591 0.348580
O O1 0.836613 0.068022 0.215538
O O2 0.847921 0.982101 0.089439
O O3 0.750000 0.062240 0.000000
O O4 0.930599 0.083436 0.040247
O O5 0.524002 0.306706 0.496254
O O6 0.411502 0.362647 0.384917
O O7 0.441448 0.389500 0.602312
O O8 0.603673 0.256835 0.121488
O O9 0.785139 0.227185 0.634061
O O10 0.810007 0.171414 0.801037
O O11 0.736093 0.120261 0.623766
O O12 0.750000 0.301720 0.500000
#
# Coordination Sequence:
#
# PCOD9533439 Si02
#       6
#    16  16   8  16  16  16
#     4  11  28  48  76 108 146 193 258 314 375 454
#     4  12  26  46  73 108 148 195 244 314 375 457
#     4  12  26  40  72 106 158 184 254 298 392 440
#     4  11  24  44  75  99 151 194 244 306 381 447
#     4  11  24  45  68 111 146 197 244 303 375 463
#     4  11  25  49  75 107 144 199 251 311 379 449
#
# _framework density 22.388470999999999
#
# number of rings (size 3 to 8) (size 9 to 14) (size 15 to 20)
#    0.000    0.727    3.636    2.182    7.636    0.727 
#    0.000    3.636    0.000    0.000    0.000    0.000 
#    0.000    0.000    0.000    0.000    0.000    0.000 
#
# Total GULP energy -245362.059610 kJ/mol
# GULP energy per Si atom -5576.410446 kJ/mol
# Density = 2.233751 g / cm^3
# Si number density = 22.388471 Si / 1000 Ang^3
#
#
#
# Elastic Constant Matrix: (Units=GPa)
#
#
# Indices 1 2 3 4 5 6 
#
# 1 132.8029 51.9948 42.5734 0.0000 0.0000 0.0000
# 2 51.9948 136.6793 36.5705 0.0000 0.0000 0.0000
# 3 42.5734 36.5705 96.6430 0.0002 -0.0001 0.0000
# 4 0.0000 0.0000 0.0002 15.2104 0.0000 0.0000
# 5 0.0000 0.0000 -0.0001 0.0000 13.0109 0.0000
# 6 0.0000 0.0000 0.0000 0.0000 0.0000 37.2180
#
#
#
# Elastic Compliance Matrix: (Units=1/GPa)
#
#
# Indices 1 2 3 4 5 6 
#
# 1 0.009656 -0.002821 -0.003186 0.000000 0.000000 0.000000
# 2 -0.002821 0.008965 -0.002150 0.000000 0.000000 0.000000
# 3 -0.003186 -0.002150 0.012564 0.000000 0.000000 0.000000
# 4 0.000000 0.000000 0.000000 0.065744 0.000000 0.000000
# 5 0.000000 0.000000 0.000000 0.000000 0.076858 0.000000
# 6 0.000000 0.000000 0.000000 0.000000 0.000000 0.026869
#
#
# Mechanical properties :
#
#
# Convention : Reuss Voigt Hill
#
# Bulk Modulus (GPa) = 67.24229 69.82252 68.53240
# Shear Modulus (GPa) = 22.52996 28.75364 25.64180
#
# Velocity S-wave (km/s) = 3.17570 3.58761 3.38792
# Velocity P-wave (km/s) = 6.59896 6.95814 6.78093
#
# Compressibility (1/GPa) = 0.01487159
#
# Stress axis : x y z
#
# Youngs Moduli (GPa) = 103.56557 111.54984 79.58982
#
# Poissons Ratio (x) = 0.31464 0.25359
# Poissons Ratio (y) = 0.29212 0.17110
# Poissons Ratio (z) = 0.32998 0.23980
#
# Static dielectric constant tensor:
#      x y z
#    x 1.953260 0.000000 0.000000 
#    y 0.000000 1.829010 0.000000 
#    z 0.000000 0.000000 1.995180 
# 
# From -- ./inp_files/10955.got.cif
#   From: 2010.05.17/outbox.cif.g08.bks.cpg/sg73_6_cif.got.tgz:10955.got - 2010.06.03 17:35:07.
