data_PCOD9533644
_publ_section_title
;
Structure prediction by ZEFSAII (Michael W. Deem and Ramdas Pophale) SiO2 
 PCOD9533644
Probable space group: I B C A 
;
_chemical_formula_sum "Si O2"
_cell_formula_units_Z 112
_cell_length_a 15.078201
_cell_length_b 15.096978
_cell_length_c 20.486577
_cell_angle_alpha 90.000000
_cell_angle_beta 90.000000
_cell_angle_gamma 90.000000
_cell_volume 4663.467462
_symmetry_space_group_name_H-M "I B C A "
_symmetry_group_IT_number 73
_symmetry_cell_setting 'orthorhombic'
loop_
_space_group_symop_operation_xyz
x,y,z
-x,1/2-y,z
x,-y,1/2-z
1/2-x,y,-z
-x,-y,-z
x,1/2+y,-z
-x,y,1/2+z
1/2+x,-y,z
1/2+x,1/2+y,1/2+z
1/2-x,-y,1/2+z
1/2+x,1/2-y,-z
-x,1/2+y,1/2-z
1/2-x,1/2-y,1/2-z
1/2+x,y,1/2-z
1/2-x,1/2+y,z
x,1/2-y,1/2+z
loop_
_atom_site_type_symbol
_atom_site_label
_atom_site_fract_x
_atom_site_fract_y
_atom_site_fract_z
Si Si1 0.318988 0.174763 0.721369
Si Si2 0.776757 0.633065 0.351515
Si Si3 0.416422 0.924713 0.302586
Si Si4 0.814006 0.705783 0.941425
Si Si5 0.488118 0.069151 0.560041
Si Si6 0.208571 0.446335 0.897143
Si Si7 0.500000 0.750000 0.502364
Si Si8 0.000000 0.750000 0.709441
O O1 0.250000 0.250000 0.750000
O O2 0.344439 0.131293 0.790809
O O3 0.285878 0.095285 0.675726
O O4 0.403848 0.215524 0.683650
O O5 0.679792 0.607676 0.325523
O O6 0.783882 0.729187 0.383606
O O7 0.795537 0.551786 0.399651
O O8 0.469516 0.952085 0.368813
O O9 0.464205 0.843328 0.265049
O O10 0.407535 0.000000 0.250000
O O11 0.791417 0.603031 0.929431
O O12 0.916143 0.721681 0.955189
O O13 0.750000 0.733848 0.000000
O O14 0.383263 0.083916 0.570685
O O15 0.526987 0.165009 0.540260
O O16 0.500000 0.000000 0.500000
#
# Coordination Sequence:
#
# PCOD9533644 Si02
#       8
#    16  16  16  16  16  16   8   8
#     4  12  24  47  74 111 145 202 248 315 387 464
#     4  12  28  48  76 111 158 197 255 324 396 473
#     4  12  27  48  80 115 152 208 264 327 397 476
#     4  12  26  50  78 112 152 211 261 323 399 476
#     4  12  28  51  79 116 156 207 265 326 399 476
#     4  12  26  48  77 108 158 199 258 322 395 469
#     4  12  27  51  78 114 159 204 269 326 401 478
#     4  12  25  45  76 108 157 198 255 312 389 466
#
# _framework density 24.016463999999999
#
# number of rings (size 3 to 8) (size 9 to 14) (size 15 to 20)
#    0.000    0.000    5.714    3.429    4.000    1.143 
#    0.000    0.000    0.000    0.000    0.000    0.000 
#    0.000    0.000    0.000    0.000    0.000    0.000 
#
# Total GULP energy -312528.145309 kJ/mol
# GULP energy per Si atom -5580.859738 kJ/mol
# Density = 2.396180 g / cm^3
# Si number density = 24.016464 Si / 1000 Ang^3
#
#
#
# Elastic Constant Matrix: (Units=GPa)
#
#
# Indices 1 2 3 4 5 6 
#
# 1 113.4541 -4.7851 17.1069 0.0000 0.0000 0.0000
# 2 -4.7851 88.5211 15.6632 0.0000 0.0000 0.0000
# 3 17.1069 15.6632 105.5836 0.0000 0.0000 0.0000
# 4 0.0000 0.0000 0.0000 22.4877 0.0000 0.0000
# 5 0.0000 0.0000 0.0000 0.0000 35.7875 0.0000
# 6 0.0000 0.0000 0.0000 0.0000 0.0000 29.0974
#
#
#
# Elastic Compliance Matrix: (Units=1/GPa)
#
#
# Indices 1 2 3 4 5 6 
#
# 1 0.009086 0.000772 -0.001587 0.000000 0.000000 0.000000
# 2 0.000772 0.011667 -0.001856 0.000000 0.000000 0.000000
# 3 -0.001587 -0.001856 0.010004 0.000000 0.000000 0.000000
# 4 0.000000 0.000000 0.000000 0.044469 0.000000 0.000000
# 5 0.000000 0.000000 0.000000 0.000000 0.027943 0.000000
# 6 0.000000 0.000000 0.000000 0.000000 0.000000 0.034367
#
#
# Mechanical properties :
#
#
# Convention : Reuss Voigt Hill
#
# Bulk Modulus (GPa) = 39.34654 40.39208 39.86931
# Shear Modulus (GPa) = 33.03646 36.11279 34.57463
#
# Velocity S-wave (km/s) = 3.71290 3.88192 3.79835
# Velocity P-wave (km/s) = 5.89911 6.07844 5.98945
#
# Compressibility (1/GPa) = 0.02541519
#
# Stress axis : x y z
#
# Youngs Moduli (GPa) = 110.06029 85.71299 99.96460
#
# Poissons Ratio (x) = -0.06616 0.15861
# Poissons Ratio (y) = -0.08495 0.18552
# Poissons Ratio (z) = 0.17463 0.15907
#
# Static dielectric constant tensor:
#      x y z
#    x 1.932070 0.000000 0.000000 
#    y 0.000000 2.050110 0.000000 
#    z 0.000000 0.000000 2.080400 
# 
# From -- ./inp_files/29573.got.cif
#   From: 2010.05.17/outbox.cif.g08.bks.cpg/sg73_15_cif.got.tgz:29573.got - 2010.06.03 17:35:07.
