data_PCOD9533682
_publ_section_title
;
Structure prediction by ZEFSAII (Michael W. Deem and Ramdas Pophale) SiO2 
 PCOD9533682
Probable space group: I B C A 
;
_chemical_formula_sum "Si O2"
_cell_formula_units_Z 72
_cell_length_a 7.249484
_cell_length_b 14.579569
_cell_length_c 27.875152
_cell_angle_alpha 90.000000
_cell_angle_beta 90.000000
_cell_angle_gamma 90.000000
_cell_volume 2946.246133
_symmetry_space_group_name_H-M "I B C A "
_symmetry_group_IT_number 73
_symmetry_cell_setting 'orthorhombic'
loop_
_space_group_symop_operation_xyz
x,y,z
-x,1/2-y,z
x,-y,1/2-z
1/2-x,y,-z
-x,-y,-z
x,1/2+y,-z
-x,y,1/2+z
1/2+x,-y,z
1/2+x,1/2+y,1/2+z
1/2-x,-y,1/2+z
1/2+x,1/2-y,-z
-x,1/2+y,1/2-z
1/2-x,1/2-y,1/2-z
1/2+x,y,1/2-z
1/2-x,1/2+y,z
x,1/2-y,1/2+z
loop_
_atom_site_type_symbol
_atom_site_label
_atom_site_fract_x
_atom_site_fract_y
_atom_site_fract_z
Si Si1 0.384626 0.935744 0.858225
Si Si2 0.640522 0.832610 0.795671
Si Si3 0.976156 0.114695 0.193664
Si Si4 0.117280 0.884952 0.036289
Si Si5 0.250000 0.208036 0.000000
O O1 0.562329 0.878484 0.843063
O O2 0.395271 0.941193 0.915121
O O3 0.198240 0.884481 0.841814
O O4 0.409796 0.026296 0.825927
O O5 0.500000 0.750000 0.788963
O O6 0.855130 0.812978 0.802788
O O7 0.611026 0.891197 0.746978
O O8 0.250000 0.937622 0.000000
O O9 0.226858 0.785770 0.042603
O O10 0.928645 0.854006 0.010026
#
# Coordination Sequence:
#
# PCOD9533682 Si02
#       5
#    16  16  16  16   8
#     4  12  26  43  75 107 144 202 244 302 385 452
#     4  12  27  45  72 105 145 199 260 310 364 442
#     4  12  26  47  69 102 152 199 244 309 369 444
#     4   9  20  42  69 104 138 187 240 295 383 427
#     4   8  18  42  72  96 148 180 222 320 354 440
#
# _framework density 24.437878000000001
#
# number of rings (size 3 to 8) (size 9 to 14) (size 15 to 20)
#    0.667    0.444    4.444    1.333    3.111    1.778 
#    4.000    1.111    0.000    0.000    0.000    0.000 
#    0.000    0.000    0.000    0.000    0.000    0.000 
#
# Total GULP energy -200645.965724 kJ/mol
# GULP energy per Si atom -5573.499048 kJ/mol
# Density = 2.438226 g / cm^3
# Si number density = 24.437878 Si / 1000 Ang^3
#
#
#
# Elastic Constant Matrix: (Units=GPa)
#
#
# Indices 1 2 3 4 5 6 
#
# 1 215.8950 20.2592 50.6774 0.0000 0.0000 0.0000
# 2 20.2592 45.4570 10.7296 0.0000 0.0000 0.0000
# 3 50.6774 10.7296 135.0223 0.0000 0.0000 0.0000
# 4 0.0000 0.0000 0.0000 -5.8937 0.0000 0.0000
# 5 0.0000 0.0000 0.0000 0.0000 30.0452 0.0000
# 6 0.0000 0.0000 0.0000 0.0000 0.0000 20.4976
#
#
#
# Elastic Compliance Matrix: (Units=1/GPa)
#
#
# Indices 1 2 3 4 5 6 
#
# 1 0.005236 -0.001906 -0.001814 0.000000 0.000000 0.000000
# 2 -0.001906 0.023113 -0.001121 0.000000 0.000000 0.000000
# 3 -0.001814 -0.001121 0.008176 0.000000 0.000000 0.000000
# 4 0.000000 0.000000 0.000000 -0.169672 0.000000 0.000000
# 5 0.000000 0.000000 0.000000 0.000000 0.033283 0.000000
# 6 0.000000 0.000000 0.000000 0.000000 0.000000 0.048786
#
#
# Mechanical properties :
#
#
# Convention : Reuss Voigt Hill
#
# Bulk Modulus (GPa) = 37.25314 62.18964 49.72139
# Shear Modulus (GPa) = -154.09375 29.91036 -62.09170
#
# Velocity S-wave (km/s) = -7.94935 3.50227 -5.04610
# Velocity P-wave (km/s) = 8.30537 6.46976 3.68248
#
# Compressibility (1/GPa) = 0.02684338
#
# Stress axis : x y z
#
# Youngs Moduli (GPa) = 190.96732 43.26602 122.30727
#
# Poissons Ratio (x) = 0.08245 0.22186
# Poissons Ratio (y) = 0.36391 0.13716
# Poissons Ratio (z) = 0.34641 0.04852
#
# Static dielectric constant tensor:
#      x y z
#    x 1.952720 0.000000 0.000000 
#    y 0.000000 2.192840 0.000000 
#    z 0.000000 0.000000 1.878980 
# 
# From -- ./inp_files/31087.got.cif
#   From: 2010.05.17/outbox.cif.g08.bks.cpg/sg73_16_cif.got.tgz:31087.got - 2010.06.03 17:35:07.
