data_PCOD9533988
_publ_section_title
;
Structure prediction by ZEFSAII (Michael W. Deem and Ramdas Pophale) SiO2 
 PCOD9533988
Probable space group: I M M A
;
_chemical_formula_sum "Si O2"
_cell_formula_units_Z 88
_cell_length_a 19.381658
_cell_length_b 13.748432
_cell_length_c 19.897497
_cell_angle_alpha 90.000000
_cell_angle_beta 90.000000
_cell_angle_gamma 90.000000
_cell_volume 5302.034433
_symmetry_space_group_name_H-M "I M M A"
_symmetry_group_IT_number 74
_symmetry_cell_setting 'orthorhombic'
loop_
_space_group_symop_operation_xyz
x,y,z
-x,1/2-y,z
x,-y,-z
-x,1/2+y,-z
-x,-y,-z
x,1/2+y,-z
-x,y,z
x,1/2-y,z
1/2+x,1/2+y,1/2+z
1/2-x,-y,1/2+z
1/2+x,1/2-y,1/2-z
1/2-x,y,1/2-z
1/2-x,1/2-y,1/2-z
1/2+x,y,1/2-z
1/2-x,1/2+y,1/2+z
1/2+x,-y,1/2+z
loop_
_atom_site_type_symbol
_atom_site_label
_atom_site_fract_x
_atom_site_fract_y
_atom_site_fract_z
Si Si1 0.500000 0.419258 0.082161
Si Si2 0.655386 0.145186 0.866723
Si Si3 0.851089 0.364558 0.216763
Si Si4 0.500000 0.132324 0.238264
Si Si5 0.278105 0.565692 0.851147
Si Si6 0.643111 0.388465 0.020635
Si Si7 0.000000 0.637875 0.386468
O O1 0.500000 0.409528 0.162905
O O2 0.568656 0.369532 0.053421
O O3 0.500000 0.537551 0.069970
O O4 0.678911 0.250000 0.838554
O O5 0.573880 0.131449 0.849301
O O6 0.697002 0.047040 0.850447
O O7 0.655981 0.155337 0.947936
O O8 0.847273 0.250000 0.200957
O O9 0.930424 0.395297 0.222862
O O10 0.802241 0.422386 0.165618
O O11 0.818570 0.381904 0.290553
O O12 0.500000 0.250000 0.231294
O O13 0.300705 0.617238 0.920454
O O14 0.641245 0.500000 0.000000
O O15 0.000000 0.750000 0.415028
#
# Coordination Sequence:
#
# PCOD9533988 Si02
#       7
#     8  16  16   8  16  16   8
#     4  12  16  30  47  66 102 137 167 193 226 285
#     4  10  20  30  43  68  99 130 165 198 232 282
#     4  10  20  34  50  69  92 120 161 205 243 285
#     4  10  20  32  49  73  94 121 162 203 243 288
#     4  10  18  31  48  67  94 129 159 195 240 280
#     4  10  18  27  45  66  97 133 163 188 228 278
#     4  10  17  27  41  62  96 138 167 190 224 265
#
# _framework density 16.597403
#
# number of rings (size 3 to 8) (size 9 to 14) (size 15 to 20)
#    0.000    1.818    5.455    1.909    0.000    2.182 
#    0.000    1.818    0.000    1.091    0.000    5.727 
#    0.000    0.000    0.000    0.000    0.000    0.000 
#
# Total GULP energy -244983.246114 kJ/mol
# GULP energy per Si atom -5567.801048 kJ/mol
# Density = 1.655963 g / cm^3
# Si number density = 16.597403 Si / 1000 Ang^3
#
#
#
# Elastic Constant Matrix: (Units=GPa)
#
#
# Indices 1 2 3 4 5 6 
#
# 1 126.3972 25.7545 44.0577 0.0000 0.0000 0.0000
# 2 25.7545 83.5838 2.0431 0.0000 0.0000 0.0000
# 3 44.0577 2.0431 47.0024 0.0000 0.0000 0.0000
# 4 0.0000 0.0000 0.0000 9.8424 0.0000 0.0000
# 5 0.0000 0.0000 0.0000 0.0000 28.4623 0.0000
# 6 0.0000 0.0000 0.0000 0.0000 0.0000 19.6757
#
#
#
# Elastic Compliance Matrix: (Units=1/GPa)
#
#
# Indices 1 2 3 4 5 6 
#
# 1 0.012773 -0.003647 -0.011814 0.000000 0.000000 0.000000
# 2 -0.003647 0.013018 0.002852 0.000000 0.000000 0.000000
# 3 -0.011814 0.002852 0.032225 0.000000 0.000000 0.000000
# 4 0.000000 0.000000 0.000000 0.101601 0.000000 0.000000
# 5 0.000000 0.000000 0.000000 0.000000 0.035134 0.000000
# 6 0.000000 0.000000 0.000000 0.000000 0.000000 0.050824
#
#
# Mechanical properties :
#
#
# Convention : Reuss Voigt Hill
#
# Bulk Modulus (GPa) = 30.48836 44.52154 37.50495
# Shear Modulus (GPa) = 17.74782 23.93796 20.84289
#
# Velocity S-wave (km/s) = 3.27358 3.80184 3.54756
# Velocity P-wave (km/s) = 5.71819 6.79372 6.27903
#
# Compressibility (1/GPa) = 0.03279940
#
# Stress axis : x y z
#
# Youngs Moduli (GPa) = 78.29319 76.81673 31.03169
#
# Poissons Ratio (x) = 0.28013 0.36660
# Poissons Ratio (y) = 0.28552 -0.08852
# Poissons Ratio (z) = 0.92494 -0.21912
#
# Static dielectric constant tensor:
#      x y z
#    x 1.587270 0.000000 0.000000 
#    y 0.000000 1.713740 0.000000 
#    z 0.000000 0.000000 1.571930 
# 
# From -- ./inp_files/45261.got.cif
#   From: 2010.05.17/outbox.cif.g08.bks.cpg/sg74_23_cif.got.tgz:45261.got - 2010.06.03 17:57:02.
