data_PCOD9533811
_publ_section_title
;
Structure prediction by ZEFSAII (Michael W. Deem and Ramdas Pophale) SiO2 
 PCOD9533811
Probable space group: I M M A
;
_chemical_formula_sum "Si O2"
_cell_formula_units_Z 104
_cell_length_a 21.384390
_cell_length_b 27.589505
_cell_length_c 7.022785
_cell_angle_alpha 90.000000
_cell_angle_beta 90.000000
_cell_angle_gamma 90.000000
_cell_volume 4143.335946
_symmetry_space_group_name_H-M "I M M A"
_symmetry_group_IT_number 74
_symmetry_cell_setting 'orthorhombic'
loop_
_space_group_symop_operation_xyz
x,y,z
-x,1/2-y,z
x,-y,-z
-x,1/2+y,-z
-x,-y,-z
x,1/2+y,-z
-x,y,z
x,1/2-y,z
1/2+x,1/2+y,1/2+z
1/2-x,-y,1/2+z
1/2+x,1/2-y,1/2-z
1/2-x,y,1/2-z
1/2-x,1/2-y,1/2-z
1/2+x,y,1/2-z
1/2-x,1/2+y,1/2+z
1/2+x,-y,1/2+z
loop_
_atom_site_type_symbol
_atom_site_label
_atom_site_fract_x
_atom_site_fract_y
_atom_site_fract_z
Si Si1 0.357339 0.591098 0.754216
Si Si2 0.117958 0.197299 0.784564
Si Si3 0.633772 0.488379 0.767645
Si Si4 0.682688 0.802762 0.650527
Si Si5 0.000000 0.538239 0.323775
Si Si6 0.500000 0.305668 0.433742
Si Si7 0.312166 0.610263 0.151716
Si Si8 0.000000 0.892074 0.639078
O O1 0.344121 0.537898 0.670482
O O2 0.349134 0.644744 0.672493
O O3 0.432023 0.586768 0.800101
O O4 0.310317 0.595416 0.933117
O O5 0.108238 0.250000 0.690144
O O6 0.133940 0.151359 0.656916
O O7 0.177614 0.201905 0.924136
O O8 0.059439 0.188304 0.925332
O O9 0.563293 0.472896 0.715346
O O10 0.671323 0.439234 0.741791
O O11 0.634094 0.500000 0.000000
O O12 0.655127 0.750000 0.719055
O O13 0.750000 0.805339 0.750000
O O14 0.000000 0.500000 0.500000
O O15 0.000000 0.592274 0.415531
O O16 0.500000 0.250000 0.369127
O O17 0.500000 0.340513 0.249529
O O18 0.250000 0.628077 0.250000
#
# Coordination Sequence:
#
# PCOD9533811 Si02
#       8
#    16  16  16  16   8   8  16   8
#     4  11  21  36  64  91 113 154 206 257 299 348
#     4  10  22  40  59  82 120 161 189 237 313 369
#     4   9  18  34  56  84 114 153 193 241 303 353
#     4  10  21  38  59  83 115 158 203 244 291 355
#     4  10  14  31  57  82 108 141 186 239 293 348
#     4  10  22  40  62  88 125 161 191 245 316 368
#     4  11  23  38  58  88 121 160 203 246 297 361
#     4  12  18  33  67  90 110 148 207 252 293 358
#
# _framework density 25.100548
#
# number of rings (size 3 to 8) (size 9 to 14) (size 15 to 20)
#    0.000    1.692    6.154    0.923    0.000    2.769 
#    0.000    2.308    0.000    0.923    0.000    0.000 
#    0.000    0.000    0.000    0.000    0.000    0.000 
#
# Total GULP energy -289744.422013 kJ/mol
# GULP energy per Si atom -5572.008116 kJ/mol
# Density = 2.504342 g / cm^3
# Si number density = 25.100548 Si / 1000 Ang^3
#
#
#
# Elastic Constant Matrix: (Units=GPa)
#
#
# Indices 1 2 3 4 5 6 
#
# 1 81.4445 48.9790 2.6801 0.0000 0.0000 0.0000
# 2 48.9790 247.4718 29.3390 0.0000 0.0000 0.0000
# 3 2.6801 29.3390 34.7800 0.0000 0.0000 0.0000
# 4 0.0000 0.0000 0.0000 23.4347 0.0000 0.0000
# 5 0.0000 0.0000 0.0000 0.0000 7.0069 0.0000
# 6 0.0000 0.0000 0.0000 0.0000 0.0000 9.6465
#
#
#
# Elastic Compliance Matrix: (Units=1/GPa)
#
#
# Indices 1 2 3 4 5 6 
#
# 1 0.013998 -0.002936 0.001398 0.000000 0.000000 0.000000
# 2 -0.002936 0.005106 -0.004081 0.000000 0.000000 0.000000
# 3 0.001398 -0.004081 0.032087 0.000000 0.000000 0.000000
# 4 0.000000 0.000000 0.000000 0.042672 0.000000 0.000000
# 5 0.000000 0.000000 0.000000 0.000000 0.142717 0.000000
# 6 0.000000 0.000000 0.000000 0.000000 0.000000 0.103665
#
#
# Mechanical properties :
#
#
# Convention : Reuss Voigt Hill
#
# Bulk Modulus (GPa) = 25.02933 58.41029 41.71981
# Shear Modulus (GPa) = 13.70615 26.86415 20.28515
#
# Velocity S-wave (km/s) = 2.33931 3.27503 2.84589
# Velocity P-wave (km/s) = 4.15809 6.13369 5.23984
#
# Compressibility (1/GPa) = 0.03995313
#
# Stress axis : x y z
#
# Youngs Moduli (GPa) = 71.43840 195.85585 31.16541
#
# Poissons Ratio (x) = 0.57508 -0.04358
# Poissons Ratio (y) = 0.20976 0.12718
# Poissons Ratio (z) = -0.09989 0.79925
#
# Static dielectric constant tensor:
#      x y z
#    x 2.012730 0.000000 0.000000 
#    y 0.000000 2.102370 0.000000 
#    z 0.000000 0.000000 2.070040 
# 
# From -- ./inp_files/12835.got.cif
#   From: 2010.05.17/outbox.cif.g08.bks.cpg/sg74_7_cif.got.tgz:12835.got - 2010.06.03 17:57:02.
