data_PCOD9533367
_publ_section_title
;
Structure prediction by ZEFSAII (Michael W. Deem and Ramdas Pophale) SiO2 
 PCOD9533367
Probable space group: I B C A 
;
_chemical_formula_sum "Si O2"
_cell_formula_units_Z 72
_cell_length_a 15.323214
_cell_length_b 19.792251
_cell_length_c 9.601756
_cell_angle_alpha 90.000000
_cell_angle_beta 90.000000
_cell_angle_gamma 90.000000
_cell_volume 2912.029178
_symmetry_space_group_name_H-M "I B C A "
_symmetry_group_IT_number 73
_symmetry_cell_setting 'orthorhombic'
loop_
_space_group_symop_operation_xyz
x,y,z
-x,1/2-y,z
x,-y,1/2-z
1/2-x,y,-z
-x,-y,-z
x,1/2+y,-z
-x,y,1/2+z
1/2+x,-y,z
1/2+x,1/2+y,1/2+z
1/2-x,-y,1/2+z
1/2+x,1/2-y,-z
-x,1/2+y,1/2-z
1/2-x,1/2-y,1/2-z
1/2+x,y,1/2-z
1/2-x,1/2+y,z
x,1/2-y,1/2+z
loop_
_atom_site_type_symbol
_atom_site_label
_atom_site_fract_x
_atom_site_fract_y
_atom_site_fract_z
Si Si1 0.159530 0.119876 0.423580
Si Si2 0.006547 0.934840 0.897171
Si Si3 0.684331 0.263978 0.128344
Si Si4 0.754331 0.500000 0.250000
Si Si5 0.394617 0.406364 0.624705
O O1 0.250000 0.134426 0.500000
O O2 0.092778 0.097902 0.540365
O O3 0.129454 0.194197 0.376139
O O4 0.184755 0.056758 0.323069
O O5 0.920947 0.900235 0.961309
O O6 0.027074 0.929720 0.732714
O O7 0.000000 0.000000 0.000000
O O8 0.750000 0.250000 0.250000
O O9 0.630871 0.330749 0.162685
O O10 0.750000 0.278376 0.000000
O O11 0.686051 0.541852 0.348794
#
# Coordination Sequence:
#
# PCOD9533367 Si02
#       5
#    16  16  16   8  16
#     4  11  23  44  72 101 141 186 241 301 363 436
#     4  12  25  45  71 102 149 186 236 311 363 434
#     4  11  24  47  74 104 144 191 243 307 360 446
#     4  12  22  42  76 106 134 184 252 298 366 450
#     4  12  25  46  71 109 144 189 244 292 379 440
#
# _framework density 24.725027000000001
#
# number of rings (size 3 to 8) (size 9 to 14) (size 15 to 20)
#    0.000    0.444    6.667    1.333    3.111    5.333 
#    0.000    2.222    0.000    0.000    0.000    0.000 
#    0.000    0.000    0.000    0.000    0.000    0.000 
#
# Total GULP energy -200787.120779 kJ/mol
# GULP energy per Si atom -5577.420022 kJ/mol
# Density = 2.466875 g / cm^3
# Si number density = 24.725027 Si / 1000 Ang^3
#
#
#
# Elastic Constant Matrix: (Units=GPa)
#
#
# Indices 1 2 3 4 5 6 
#
# 1 50.2422 14.3310 35.3962 0.0000 0.0000 0.0000
# 2 14.3310 177.4280 34.1899 0.0000 0.0000 0.0000
# 3 35.3962 34.1899 162.5609 0.0000 0.0000 0.0000
# 4 0.0000 0.0000 0.0000 29.7990 0.0000 0.0000
# 5 0.0000 0.0000 0.0000 0.0000 40.2894 0.0000
# 6 0.0000 0.0000 0.0000 0.0000 0.0000 -36.7776
#
#
#
# Elastic Compliance Matrix: (Units=1/GPa)
#
#
# Indices 1 2 3 4 5 6 
#
# 1 0.023665 -0.000957 -0.004952 0.000000 0.000000 0.000000
# 2 -0.000957 0.005913 -0.001035 0.000000 0.000000 0.000000
# 3 -0.004952 -0.001035 0.007447 0.000000 0.000000 0.000000
# 4 0.000000 0.000000 0.000000 0.033558 0.000000 0.000000
# 5 0.000000 0.000000 0.000000 0.000000 0.024820 0.000000
# 6 0.000000 0.000000 0.000000 0.000000 0.000000 -0.027190
#
#
# Mechanical properties :
#
#
# Convention : Reuss Voigt Hill
#
# Bulk Modulus (GPa) = 43.22009 62.00726 52.61367
# Shear Modulus (GPa) = 55.67071 27.08310 41.37691
#
# Velocity S-wave (km/s) = 4.75024 3.31323 4.09526
# Velocity P-wave (km/s) = 6.89961 6.30633 6.60963
#
# Compressibility (1/GPa) = 0.02313739
#
# Stress axis : x y z
#
# Youngs Moduli (GPa) = 42.25642 169.12227 134.27495
#
# Poissons Ratio (x) = 0.16190 0.66486
# Poissons Ratio (y) = 0.04045 0.13900
# Poissons Ratio (z) = 0.20923 0.17507
#
# Static dielectric constant tensor:
#      x y z
#    x 2.021110 0.000000 0.000000 
#    y 0.000000 2.085430 0.000000 
#    z 0.000000 0.000000 2.416950 
# 
# From -- ./inp_files/11684.got.cif
#   From: 2010.05.17/outbox.cif.g08.bks.cpg/sg73_6_cif.got.tgz:11684.got - 2010.06.03 17:35:07.
