data_PCOD9533201
_publ_section_title
;
Structure prediction by ZEFSAII (Michael W. Deem and Ramdas Pophale) SiO2 
 PCOD9533201
Probable space group: I B C A 
;
_chemical_formula_sum "Si O2"
_cell_formula_units_Z 96
_cell_length_a 14.943272
_cell_length_b 13.774914
_cell_length_c 21.448121
_cell_angle_alpha 90.000000
_cell_angle_beta 90.000000
_cell_angle_gamma 90.000000
_cell_volume 4414.930272
_symmetry_space_group_name_H-M "I B C A "
_symmetry_group_IT_number 73
_symmetry_cell_setting 'orthorhombic'
loop_
_space_group_symop_operation_xyz
x,y,z
-x,1/2-y,z
x,-y,1/2-z
1/2-x,y,-z
-x,-y,-z
x,1/2+y,-z
-x,y,1/2+z
1/2+x,-y,z
1/2+x,1/2+y,1/2+z
1/2-x,-y,1/2+z
1/2+x,1/2-y,-z
-x,1/2+y,1/2-z
1/2-x,1/2-y,1/2-z
1/2+x,y,1/2-z
1/2-x,1/2+y,z
x,1/2-y,1/2+z
loop_
_atom_site_type_symbol
_atom_site_label
_atom_site_fract_x
_atom_site_fract_y
_atom_site_fract_z
Si Si1 0.102681 0.764605 0.626884
Si Si2 0.906776 0.221644 0.607045
Si Si3 0.216890 0.414136 0.836288
Si Si4 0.640405 0.390127 0.005487
Si Si5 0.333724 0.901661 0.046104
Si Si6 0.763530 0.364158 0.194380
O O1 0.145878 0.656776 0.630175
O O2 0.109708 0.816535 0.559521
O O3 0.165058 0.834345 0.669984
O O4 0.000000 0.750000 0.645685
O O5 0.902013 0.129232 0.561836
O O6 0.889318 0.305257 0.555728
O O7 0.830241 0.207942 0.658108
O O8 0.000000 0.250000 0.637536
O O9 0.298546 0.418574 0.884029
O O10 0.201088 0.528213 0.824327
O O11 0.233390 0.366012 0.768888
O O12 0.620156 0.500403 0.024285
O O13 0.750000 0.382017 0.000000
O O14 0.250000 0.884306 0.000000
#
# Coordination Sequence:
#
# PCOD9533201 Si02
#       6
#    16  16  16  16  16  16
#     4  12  24  41  70 102 132 179 234 288 352 427
#     4  12  25  40  66 101 136 183 232 290 353 430
#     4  11  23  44  70  92 133 188 225 292 360 418
#     4  11  21  42  67  96 138 175 229 288 350 426
#     4  11  22  40  70  95 131 182 226 286 359 414
#     4  11  24  46  65  96 139 182 233 288 358 428
#
# _framework density 21.744398
#
# number of rings (size 3 to 8) (size 9 to 14) (size 15 to 20)
#    0.000    0.667    5.000    3.500    0.000    2.667 
#    0.000    1.667    0.000    0.000    0.000    0.000 
#    0.000    0.000    0.000    0.000    0.000    0.000 
#
# Total GULP energy -268029.407443 kJ/mol
# GULP energy per Si atom -5583.945988 kJ/mol
# Density = 2.169491 g / cm^3
# Si number density = 21.744398 Si / 1000 Ang^3
#
#
#
# Elastic Constant Matrix: (Units=GPa)
#
#
# Indices 1 2 3 4 5 6 
#
# 1 91.3947 35.0767 26.4443 0.0000 0.0000 0.0000
# 2 35.0767 130.7307 36.7976 0.0000 0.0000 0.0000
# 3 26.4443 36.7976 112.4405 0.0000 0.0000 0.0000
# 4 0.0000 0.0000 0.0000 37.8102 0.0000 0.0000
# 5 0.0000 0.0000 0.0000 0.0000 2.6761 0.0000
# 6 0.0000 0.0000 0.0000 0.0000 0.0000 0.0771
#
#
#
# Elastic Compliance Matrix: (Units=1/GPa)
#
#
# Indices 1 2 3 4 5 6 
#
# 1 0.012611 -0.002808 -0.002047 0.000000 0.000000 0.000000
# 2 -0.002808 0.009050 -0.002302 0.000000 0.000000 0.000000
# 3 -0.002047 -0.002302 0.010128 0.000000 0.000000 0.000000
# 4 0.000000 0.000000 0.000000 0.026448 0.000000 0.000000
# 5 0.000000 0.000000 0.000000 0.000000 0.373678 0.000000
# 6 0.000000 0.000000 0.000000 0.000000 0.000000 12.975513
#
#
# Mechanical properties :
#
#
# Convention : Reuss Voigt Hill
#
# Bulk Modulus (GPa) = 57.21654 59.02257 58.11956
# Shear Modulus (GPa) = 0.37237 23.86249 12.11743
#
# Velocity S-wave (km/s) = 0.41427 3.31631 2.36321
# Velocity P-wave (km/s) = 5.15744 6.47044 5.85089
#
# Compressibility (1/GPa) = 0.01747746
#
# Stress axis : x y z
#
# Youngs Moduli (GPa) = 79.29317 110.49161 98.73339
#
# Poissons Ratio (x) = 0.31021 0.20213
# Poissons Ratio (y) = 0.22262 0.22724
# Poissons Ratio (z) = 0.16233 0.25431
#
# Static dielectric constant tensor:
#      x y z
#    x 1.821540 0.000000 0.000000 
#    y 0.000000 1.925590 0.000000 
#    z 0.000000 0.000000 1.780890 
# 
# From -- ./inp_files/26000.got.cif
#   From: 2010.05.17/outbox.cif.g08.bks.cpg/sg73_13_cif.got.tgz:26000.got - 2010.06.03 17:35:07.
