data_PCOD9533872
_publ_section_title
;
Structure prediction by ZEFSAII (Michael W. Deem and Ramdas Pophale) SiO2 
 PCOD9533872
Probable space group: I M M A
;
_chemical_formula_sum "Si O2"
_cell_formula_units_Z 128
_cell_length_a 20.151540
_cell_length_b 19.013350
_cell_length_c 19.937923
_cell_angle_alpha 90.000000
_cell_angle_beta 90.000000
_cell_angle_gamma 90.000000
_cell_volume 7639.180965
_symmetry_space_group_name_H-M "I M M A"
_symmetry_group_IT_number 74
_symmetry_cell_setting 'orthorhombic'
loop_
_space_group_symop_operation_xyz
x,y,z
-x,1/2-y,z
x,-y,-z
-x,1/2+y,-z
-x,-y,-z
x,1/2+y,-z
-x,y,z
x,1/2-y,z
1/2+x,1/2+y,1/2+z
1/2-x,-y,1/2+z
1/2+x,1/2-y,1/2-z
1/2-x,y,1/2-z
1/2-x,1/2-y,1/2-z
1/2+x,y,1/2-z
1/2-x,1/2+y,1/2+z
1/2+x,-y,1/2+z
loop_
_atom_site_type_symbol
_atom_site_label
_atom_site_fract_x
_atom_site_fract_y
_atom_site_fract_z
Si Si1 0.759954 0.906118 0.439759
Si Si2 0.134007 0.830176 0.885757
Si Si3 0.795792 0.333378 0.809055
Si Si4 0.350524 0.957398 0.703901
Si Si5 0.389744 0.078466 0.511829
Si Si6 0.800384 0.968067 0.649157
Si Si7 0.425704 0.408307 0.659341
Si Si8 0.789759 0.329761 0.428209
O O1 0.737098 0.858492 0.377755
O O2 0.689559 0.928783 0.472910
O O3 0.795058 0.859457 0.496278
O O4 0.800864 0.971247 0.407921
O O5 0.110659 0.750000 0.877503
O O6 0.130315 0.878705 0.819408
O O7 0.211643 0.826626 0.907834
O O8 0.100725 0.872125 0.947561
O O9 0.797004 0.250000 0.806083
O O10 0.750000 0.362660 0.750000
O O11 0.869843 0.362452 0.804638
O O12 0.277208 0.969046 0.672046
O O13 0.342701 0.974227 0.782652
O O14 0.400914 0.011920 0.670180
O O15 0.420417 0.108016 0.580158
O O16 0.415563 0.000000 0.500000
O O17 0.817272 0.891961 0.618339
O O18 0.500000 0.397969 0.683304
O O19 0.815561 0.250000 0.421298
#
# Coordination Sequence:
#
# PCOD9533872 Si02
#       8
#    16  16  16  16  16  16  16  16
#     4  10  16  26  46  68  96 127 162 207 252 303
#     4   9  17  29  45  65  92 129 171 214 260 300
#     4  10  20  34  52  73  99 134 173 209 250 305
#     4  10  18  31  46  68  92 126 169 217 254 303
#     4  10  16  29  46  64  89 129 174 214 244 293
#     4  10  17  27  49  67  91 127 171 207 253 312
#     4  11  22  33  50  73 101 132 170 217 259 297
#     4   9  17  26  39  67 100 126 155 205 267 312
#
# _framework density 16.755723
#
# number of rings (size 3 to 8) (size 9 to 14) (size 15 to 20)
#    0.000    2.125    3.750    3.000    0.000    4.000 
#    0.000    2.500    0.000    1.125    0.000    0.000 
#    0.000    8.000    0.000    2.250    0.000    0.000 
#
# Total GULP energy -356587.020186 kJ/mol
# GULP energy per Si atom -5571.672190 kJ/mol
# Density = 1.671759 g / cm^3
# Si number density = 16.755723 Si / 1000 Ang^3
#
#
#
# Elastic Constant Matrix: (Units=GPa)
#
#
# Indices 1 2 3 4 5 6 
#
# 1 36.3530 13.7276 18.4348 0.0000 0.0000 0.0000
# 2 13.7276 101.8099 22.3332 0.0000 0.0000 0.0000
# 3 18.4348 22.3332 58.0103 0.0000 0.0000 0.0000
# 4 0.0000 0.0000 0.0000 23.2730 0.0000 0.0000
# 5 0.0000 0.0000 0.0000 0.0000 1.3810 0.0000
# 6 0.0000 0.0000 0.0000 0.0000 0.0000 0.8265
#
#
#
# Elastic Compliance Matrix: (Units=1/GPa)
#
#
# Indices 1 2 3 4 5 6 
#
# 1 0.033308 -0.002369 -0.009673 0.000000 0.000000 0.000000
# 2 -0.002369 0.010897 -0.003442 0.000000 0.000000 0.000000
# 3 -0.009673 -0.003442 0.021637 0.000000 0.000000 0.000000
# 4 0.000000 0.000000 0.000000 0.042968 0.000000 0.000000
# 5 0.000000 0.000000 0.000000 0.000000 0.724093 0.000000
# 6 0.000000 0.000000 0.000000 0.000000 0.000000 1.209889
#
#
# Mechanical properties :
#
#
# Convention : Reuss Voigt Hill
#
# Bulk Modulus (GPa) = 28.67484 33.90714 31.29099
# Shear Modulus (GPa) = 2.39764 14.54127 8.46945
#
# Velocity S-wave (km/s) = 1.19752 2.94911 2.25070
# Velocity P-wave (km/s) = 4.36608 5.64592 5.04673
#
# Compressibility (1/GPa) = 0.03487378
#
# Stress axis : x y z
#
# Youngs Moduli (GPa) = 30.02300 91.77025 46.21640
#
# Poissons Ratio (x) = 0.21743 0.44703
# Poissons Ratio (y) = 0.07113 0.15909
# Poissons Ratio (z) = 0.29040 0.31589
#
# Static dielectric constant tensor:
#      x y z
#    x 1.538890 0.000000 0.000000 
#    y 0.000000 1.601540 0.000000 
#    z 0.000000 0.000000 1.591220 
# 
# From -- ./inp_files/53450.got.cif
#   From: 2010.05.17/outbox.cif.g08.bks.cpg/sg74_27_cif.got.tgz:53450.got - 2010.06.03 17:57:02.
