data_PCOD9533714
_publ_section_title
;
Structure prediction by ZEFSAII (Michael W. Deem and Ramdas Pophale) SiO2 
 PCOD9533714
Probable space group: I B C A 
;
_chemical_formula_sum "Si O2"
_cell_formula_units_Z 64
_cell_length_a 9.395405
_cell_length_b 27.156118
_cell_length_c 9.530435
_cell_angle_alpha 90.000000
_cell_angle_beta 90.000000
_cell_angle_gamma 90.000000
_cell_volume 2431.621174
_symmetry_space_group_name_H-M "I B C A "
_symmetry_group_IT_number 73
_symmetry_cell_setting 'orthorhombic'
loop_
_space_group_symop_operation_xyz
x,y,z
-x,1/2-y,z
x,-y,1/2-z
1/2-x,y,-z
-x,-y,-z
x,1/2+y,-z
-x,y,1/2+z
1/2+x,-y,z
1/2+x,1/2+y,1/2+z
1/2-x,-y,1/2+z
1/2+x,1/2-y,-z
-x,1/2+y,1/2-z
1/2-x,1/2-y,1/2-z
1/2+x,y,1/2-z
1/2-x,1/2+y,z
x,1/2-y,1/2+z
loop_
_atom_site_type_symbol
_atom_site_label
_atom_site_fract_x
_atom_site_fract_y
_atom_site_fract_z
Si Si1 0.750000 0.981813 0.000000
Si Si2 0.571463 0.500000 0.750000
Si Si3 0.000000 0.250000 0.387557
Si Si4 0.110840 0.587952 0.238071
Si Si5 0.151960 0.152795 0.291580
Si Si6 0.250000 0.816614 0.500000
O O1 0.662199 0.014655 0.112624
O O2 0.822276 0.944751 0.112872
O O3 0.480158 0.544908 0.688219
O O4 0.893052 0.290303 0.316233
O O5 0.885786 0.217304 0.468123
O O6 0.208377 0.622200 0.339951
O O7 0.990254 0.623714 0.176937
O O8 0.198127 0.151371 0.129166
#
# Coordination Sequence:
#
# PCOD9533714 Si02
#       6
#     8   8   8  16  16   8
#     4  12  27  56  81 126 170 222 285 354 423 514
#     4  12  28  54  86 126 168 226 280 354 426 508
#     4  12  28  48  80 114 166 208 278 344 430 492
#     4  12  27  49  81 114 167 212 281 343 421 498
#     4  12  27  50  77 117 160 218 274 346 414 505
#     4  12  27  50  75 116 160 212 275 350 417 510
#
# _framework density 26.319890999999998
#
# number of rings (size 3 to 8) (size 9 to 14) (size 15 to 20)
#    0.000    0.000    5.000    3.750    3.500    0.000 
#    0.000    0.000    0.000    0.000    0.000    0.000 
#    0.000    0.000    0.000    0.000    0.000    0.000 
#
# Total GULP energy -178508.235728 kJ/mol
# GULP energy per Si atom -5578.382367 kJ/mol
# Density = 2.625999 g / cm^3
# Si number density = 26.319891 Si / 1000 Ang^3
#
#
#
# Elastic Constant Matrix: (Units=GPa)
#
#
# Indices 1 2 3 4 5 6 
#
# 1 123.7920 20.0639 13.6579 0.0009 0.0005 -0.0007
# 2 20.0639 127.0588 -4.4713 0.0013 0.0003 -0.0007
# 3 13.6579 -4.4713 89.0384 0.0053 0.0027 -0.0019
# 4 0.0009 0.0013 0.0053 12.5188 -0.0001 -0.0011
# 5 0.0005 0.0003 0.0027 -0.0001 30.9616 -0.0006
# 6 -0.0007 -0.0007 -0.0019 -0.0011 -0.0006 40.8798
#
#
#
# Elastic Compliance Matrix: (Units=1/GPa)
#
#
# Indices 1 2 3 4 5 6 
#
# 1 0.008453 -0.001383 -0.001366 0.000000 0.000000 0.000000
# 2 -0.001383 0.008111 0.000619 -0.000001 0.000000 0.000000
# 3 -0.001366 0.000619 0.011472 -0.000005 -0.000001 0.000001
# 4 0.000000 -0.000001 -0.000005 0.079880 0.000000 0.000002
# 5 0.000000 0.000000 -0.000001 0.000000 0.032298 0.000000
# 6 0.000000 0.000000 0.000001 0.000002 0.000000 0.024462
#
#
# Mechanical properties :
#
#
# Convention : Reuss Voigt Hill
#
# Bulk Modulus (GPa) = 42.05894 44.26558 43.16226
# Shear Modulus (GPa) = 28.27106 37.58129 32.92618
#
# Velocity S-wave (km/s) = 3.28095 3.78281 3.54078
# Velocity P-wave (km/s) = 5.51067 5.99453 5.75768
#
# Compressibility (1/GPa) = 0.02377616
#
# Stress axis : x y z
#
# Youngs Moduli (GPa) = 118.30241 123.29635 87.17063
#
# Poissons Ratio (x) = 0.17050 0.11908
# Poissons Ratio (y) = 0.16360 -0.05399
# Poissons Ratio (z) = 0.16161 -0.07637
#
# Static dielectric constant tensor:
#      x y z
#    x 1.674420 -0.000010 -0.000010 
#    y -0.000010 2.150350 0.000000 
#    z -0.000010 0.000000 2.021100 
# 
# From -- ./inp_files/4054.got.cif
#   From: 2010.05.17/outbox.cif.g08.bks.cpg/sg73_3_cif.got.tgz:4054.got - 2010.06.03 17:35:07.
