data_PCOD9533269
_publ_section_title
;
Structure prediction by ZEFSAII (Michael W. Deem and Ramdas Pophale) SiO2 
 PCOD9533269
Probable space group: I B C A 
;
_chemical_formula_sum "Si O2"
_cell_formula_units_Z 72
_cell_length_a 22.703757
_cell_length_b 14.291943
_cell_length_c 8.911317
_cell_angle_alpha 90.000000
_cell_angle_beta 90.000000
_cell_angle_gamma 90.000000
_cell_volume 2891.551277
_symmetry_space_group_name_H-M "I B C A "
_symmetry_group_IT_number 73
_symmetry_cell_setting 'orthorhombic'
loop_
_space_group_symop_operation_xyz
x,y,z
-x,1/2-y,z
x,-y,1/2-z
1/2-x,y,-z
-x,-y,-z
x,1/2+y,-z
-x,y,1/2+z
1/2+x,-y,z
1/2+x,1/2+y,1/2+z
1/2-x,-y,1/2+z
1/2+x,1/2-y,-z
-x,1/2+y,1/2-z
1/2-x,1/2-y,1/2-z
1/2+x,y,1/2-z
1/2-x,1/2+y,z
x,1/2-y,1/2+z
loop_
_atom_site_type_symbol
_atom_site_label
_atom_site_fract_x
_atom_site_fract_y
_atom_site_fract_z
Si Si1 0.250000 0.463764 0.000000
Si Si2 0.813604 0.681794 0.792991
Si Si3 0.832772 0.133559 0.555944
Si Si4 0.430798 0.401089 0.800946
Si Si5 0.032386 0.848255 0.475914
O O1 0.227153 0.395694 0.130671
O O2 0.301377 0.533119 0.058390
O O3 0.801597 0.788427 0.840040
O O4 0.824180 0.667840 0.616444
O O5 0.878153 0.660102 0.865575
O O6 0.902577 0.132634 0.590246
O O7 0.403759 0.500000 0.750000
O O8 0.483676 0.418579 0.913221
O O9 0.458035 0.354542 0.653229
O O10 0.000000 0.750000 0.440046
#
# Coordination Sequence:
#
# PCOD9533269 Si02
#       5
#     8  16  16  16  16
#     4  12  26  46  70  98 138 190 246 302 356 422
#     4  11  25  47  72 103 144 189 244 305 364 432
#     4  11  26  46  74 105 144 195 244 303 367 434
#     4  11  23  41  69 105 144 184 233 297 359 431
#     4  11  22  42  71 103 142 184 234 291 364 430
#
# _framework density 24.900127999999999
#
# number of rings (size 3 to 8) (size 9 to 14) (size 15 to 20)
#    0.000    0.889    2.222    5.333    3.111    5.333 
#    0.000    2.222    0.000    0.000    0.000    0.000 
#    0.000    0.000    0.000    0.000    0.000    0.000 
#
# Total GULP energy -201658.968928 kJ/mol
# GULP energy per Si atom -5601.638026 kJ/mol
# Density = 2.484345 g / cm^3
# Si number density = 24.900128 Si / 1000 Ang^3
#
#
#
# Elastic Constant Matrix: (Units=GPa)
#
#
# Indices 1 2 3 4 5 6 
#
# 1 143.3420 43.4607 21.4832 0.0000 0.0000 0.0000
# 2 43.4607 123.3092 30.3388 0.0000 0.0000 0.0000
# 3 21.4832 30.3388 68.3070 0.0000 0.0000 0.0000
# 4 0.0000 0.0000 0.0000 40.3545 0.0000 0.0000
# 5 0.0000 0.0000 0.0000 0.0000 34.7186 0.0000
# 6 0.0000 0.0000 0.0000 0.0000 0.0000 42.7394
#
#
#
# Elastic Compliance Matrix: (Units=1/GPa)
#
#
# Indices 1 2 3 4 5 6 
#
# 1 0.007930 -0.002449 -0.001406 0.000000 0.000000 0.000000
# 2 -0.002449 0.009861 -0.003610 0.000000 0.000000 0.000000
# 3 -0.001406 -0.003610 0.016685 0.000000 0.000000 0.000000
# 4 0.000000 0.000000 0.000000 0.024780 0.000000 0.000000
# 5 0.000000 0.000000 0.000000 0.000000 0.028803 0.000000
# 6 0.000000 0.000000 0.000000 0.000000 0.000000 0.023398
#
#
# Mechanical properties :
#
#
# Convention : Reuss Voigt Hill
#
# Bulk Modulus (GPa) = 51.16028 58.39152 54.77590
# Shear Modulus (GPa) = 37.62187 39.54088 38.58138
#
# Velocity S-wave (km/s) = 3.89126 3.98927 3.94057
# Velocity P-wave (km/s) = 6.38592 6.68732 6.53836
#
# Compressibility (1/GPa) = 0.01954641
#
# Stress axis : x y z
#
# Youngs Moduli (GPa) = 126.11049 101.41087 59.93304
#
# Poissons Ratio (x) = 0.24833 0.08428
# Poissons Ratio (y) = 0.30882 0.21633
# Poissons Ratio (z) = 0.17735 0.36605
#
# Static dielectric constant tensor:
#      x y z
#    x 2.033580 0.000000 0.000000 
#    y 0.000000 2.028230 0.000000 
#    z 0.000000 0.000000 1.933480 
# 
# From -- ./inp_files/6925.got.cif
#   From: 2010.05.17/outbox.cif.g08.bks.cpg/sg73_4_cif.got.tgz:6925.got - 2010.06.03 17:35:07.
