data_PCOD9533526
_publ_section_title
;
Structure prediction by ZEFSAII (Michael W. Deem and Ramdas Pophale) SiO2 
 PCOD9533526
Probable space group: I B C A 
;
_chemical_formula_sum "Si O2"
_cell_formula_units_Z 72
_cell_length_a 6.845710
_cell_length_b 16.455051
_cell_length_c 22.895893
_cell_angle_alpha 90.000000
_cell_angle_beta 90.000000
_cell_angle_gamma 90.000000
_cell_volume 2579.142375
_symmetry_space_group_name_H-M "I B C A "
_symmetry_group_IT_number 73
_symmetry_cell_setting 'orthorhombic'
loop_
_space_group_symop_operation_xyz
x,y,z
-x,1/2-y,z
x,-y,1/2-z
1/2-x,y,-z
-x,-y,-z
x,1/2+y,-z
-x,y,1/2+z
1/2+x,-y,z
1/2+x,1/2+y,1/2+z
1/2-x,-y,1/2+z
1/2+x,1/2-y,-z
-x,1/2+y,1/2-z
1/2-x,1/2-y,1/2-z
1/2+x,y,1/2-z
1/2-x,1/2+y,z
x,1/2-y,1/2+z
loop_
_atom_site_type_symbol
_atom_site_label
_atom_site_fract_x
_atom_site_fract_y
_atom_site_fract_z
Si Si1 0.463154 0.128008 0.999234
Si Si2 0.552801 0.987780 0.405669
Si Si3 0.718522 0.775131 0.316920
Si Si4 0.000000 0.750000 0.411395
Si Si5 0.697735 0.029860 0.816856
O O1 0.583503 0.183199 0.954857
O O2 0.429601 0.050423 0.958720
O O3 0.250000 0.168570 0.000000
O O4 0.529984 0.100453 0.062810
O O5 0.804233 0.991751 0.389860
O O6 0.551815 0.000593 0.331063
O O7 0.500000 0.750000 0.330130
O O8 0.750000 0.750000 0.250000
O O9 0.839378 0.723187 0.364267
O O10 0.777859 0.870776 0.319059
O O11 0.695768 0.000000 0.750000
#
# Coordination Sequence:
#
# PCOD9533526 Si02
#       5
#    16  16  16   8  16
#     4  11  25  47  75 106 156 207 254 331 388 473
#     4  11  25  48  74 111 151 196 266 326 397 471
#     4  12  30  50  78 116 168 211 263 335 410 489
#     4  12  28  52  80 116 164 216 276 322 418 484
#     4  12  28  47  81 114 152 207 268 328 414 484
#
# _framework density 27.916255
#
# number of rings (size 3 to 8) (size 9 to 14) (size 15 to 20)
#    0.000    0.444    5.556    0.667   12.444    1.778 
#    0.000    0.000    0.000    0.000    0.000    0.000 
#    0.000    0.000    0.000    0.000    0.000    0.000 
#
# Total GULP energy -200921.622973 kJ/mol
# GULP energy per Si atom -5581.156194 kJ/mol
# Density = 2.785272 g / cm^3
# Si number density = 27.916255 Si / 1000 Ang^3
#
#
#
# Elastic Constant Matrix: (Units=GPa)
#
#
# Indices 1 2 3 4 5 6 
#
# 1 223.7965 22.8590 100.9721 0.0000 0.0000 0.0000
# 2 22.8590 136.1862 69.6196 0.0000 0.0000 0.0000
# 3 100.9721 69.6196 277.3657 0.0000 0.0000 0.0000
# 4 0.0000 0.0000 0.0000 57.8615 0.0000 0.0000
# 5 0.0000 0.0000 0.0000 0.0000 81.7322 0.0000
# 6 0.0000 0.0000 0.0000 0.0000 0.0000 32.0126
#
#
#
# Elastic Compliance Matrix: (Units=1/GPa)
#
#
# Indices 1 2 3 4 5 6 
#
# 1 0.005348 0.000112 -0.001975 0.000000 0.000000 0.000000
# 2 0.000112 0.008426 -0.002156 0.000000 0.000000 0.000000
# 3 -0.001975 -0.002156 0.004865 0.000000 0.000000 0.000000
# 4 0.000000 0.000000 0.000000 0.017283 0.000000 0.000000
# 5 0.000000 0.000000 0.000000 0.000000 0.012235 0.000000
# 6 0.000000 0.000000 0.000000 0.000000 0.000000 0.031238
#
#
# Mechanical properties :
#
#
# Convention : Reuss Voigt Hill
#
# Bulk Modulus (GPa) = 94.32179 113.80554 104.06366
# Shear Modulus (GPa) = 54.96532 63.91446 59.43989
#
# Velocity S-wave (km/s) = 4.44208 4.79007 4.61935
# Velocity P-wave (km/s) = 7.75695 8.45271 8.11229
#
# Compressibility (1/GPa) = 0.01060200
#
# Stress axis : x y z
#
# Youngs Moduli (GPa) = 186.98663 118.67850 205.53235
#
# Poissons Ratio (x) = -0.01329 0.40592
# Poissons Ratio (y) = -0.02093 0.44307
# Poissons Ratio (z) = 0.36929 0.25584
#
# Static dielectric constant tensor:
#      x y z
#    x 2.894890 0.000000 0.000000 
#    y 0.000000 2.252620 0.000000 
#    z 0.000000 0.000000 1.933930 
# 
# From -- ./inp_files/5343.got.cif
#   From: 2010.05.17/outbox.cif.g08.bks.cpg/sg73_3_cif.got.tgz:5343.got - 2010.06.03 17:35:07.
