data_PCOD9533695
_publ_section_title
;
Structure prediction by ZEFSAII (Michael W. Deem and Ramdas Pophale) SiO2 
 PCOD9533695
Probable space group: I B C A 
;
_chemical_formula_sum "Si O2"
_cell_formula_units_Z 32
_cell_length_a 20.936561
_cell_length_b 4.884777
_cell_length_c 12.622559
_cell_angle_alpha 90.000000
_cell_angle_beta 90.000000
_cell_angle_gamma 90.000000
_cell_volume 1290.914557
_symmetry_space_group_name_H-M "I B C A "
_symmetry_group_IT_number 73
_symmetry_cell_setting 'orthorhombic'
loop_
_space_group_symop_operation_xyz
x,y,z
-x,1/2-y,z
x,-y,1/2-z
1/2-x,y,-z
-x,-y,-z
x,1/2+y,-z
-x,y,1/2+z
1/2+x,-y,z
1/2+x,1/2+y,1/2+z
1/2-x,-y,1/2+z
1/2+x,1/2-y,-z
-x,1/2+y,1/2-z
1/2-x,1/2-y,1/2-z
1/2+x,y,1/2-z
1/2-x,1/2+y,z
x,1/2-y,1/2+z
loop_
_atom_site_type_symbol
_atom_site_label
_atom_site_fract_x
_atom_site_fract_y
_atom_site_fract_z
Si Si1 0.655935 0.953927 0.922219
Si Si2 0.250000 0.750000 0.250000
Si Si3 0.547210 0.000000 0.750000
O O1 0.715370 0.989199 0.840094
O O2 0.593004 0.970464 0.851731
O O3 0.660515 0.681330 0.988751
O O4 0.307058 0.500000 0.250000
O O5 0.500000 0.750000 0.735428
#
# Coordination Sequence:
#
# PCOD9533695 Si02
#       3
#    16   8   8
#     4  12  28  50  79 113 156 205 256 317 398 462
#     4  12  26  48  76 114 156 196 256 318 388 472
#     4  12  28  52  80 112 158 204 272 330 374 462
#
# _framework density 24.788627000000002
#
# number of rings (size 3 to 8) (size 9 to 14) (size 15 to 20)
#    0.000    0.000    2.500    6.000    3.500   12.000 
#    0.000    0.000    0.000    0.000    0.000    0.000 
#    0.000    0.000    0.000    0.000    0.000    0.000 
#
# Total GULP energy -89395.538994 kJ/mol
# GULP energy per Si atom -5587.221187 kJ/mol
# Density = 2.473221 g / cm^3
# Si number density = 24.788627 Si / 1000 Ang^3
#
#
#
# Elastic Constant Matrix: (Units=GPa)
#
#
# Indices 1 2 3 4 5 6 
#
# 1 163.9862 9.3207 76.2368 0.0000 0.0000 0.0000
# 2 9.3207 176.3334 -14.3417 0.0000 0.0000 0.0000
# 3 76.2368 -14.3417 173.4280 0.0000 0.0000 0.0000
# 4 0.0000 0.0000 0.0000 51.4643 0.0000 0.0000
# 5 0.0000 0.0000 0.0000 0.0000 45.0318 0.0000
# 6 0.0000 0.0000 0.0000 0.0000 0.0000 43.0785
#
#
#
# Elastic Compliance Matrix: (Units=1/GPa)
#
#
# Indices 1 2 3 4 5 6 
#
# 1 0.007747 -0.000691 -0.003463 0.000000 0.000000 0.000000
# 2 -0.000691 0.005771 0.000781 0.000000 0.000000 0.000000
# 3 -0.003463 0.000781 0.007353 0.000000 0.000000 0.000000
# 4 0.000000 0.000000 0.000000 0.019431 0.000000 0.000000
# 5 0.000000 0.000000 0.000000 0.000000 0.022207 0.000000
# 6 0.000000 0.000000 0.000000 0.000000 0.000000 0.023213
#
#
# Mechanical properties :
#
#
# Convention : Reuss Voigt Hill
#
# Bulk Modulus (GPa) = 70.79364 72.90880 71.85122
# Shear Modulus (GPa) = 51.45295 57.41703 54.43499
#
# Velocity S-wave (km/s) = 4.56089 4.81798 4.69120
# Velocity P-wave (km/s) = 7.50710 7.77346 7.64144
#
# Compressibility (1/GPa) = 0.01412556
#
# Stress axis : x y z
#
# Youngs Moduli (GPa) = 129.07947 173.27616 136.00187
#
# Poissons Ratio (x) = 0.11976 0.47094
# Poissons Ratio (y) = 0.08921 -0.10623
# Poissons Ratio (z) = 0.44697 -0.13534
#
# Static dielectric constant tensor:
#      x y z
#    x 1.877710 0.000000 0.000000 
#    y 0.000000 2.270930 0.000000 
#    z 0.000000 0.000000 2.013240 
# 
# From -- ./inp_files/138.got.cif
#   From: 2010.05.17/outbox.cif.g08.bks.cpg/sg73_1_cif.got.tgz:138.got - 2010.06.03 17:35:07.
