data_PCOD9533356
_publ_section_title
;
Structure prediction by ZEFSAII (Michael W. Deem and Ramdas Pophale) SiO2 
 PCOD9533356
Probable space group: I B C A 
;
_chemical_formula_sum "Si O2"
_cell_formula_units_Z 96
_cell_length_a 19.588361
_cell_length_b 14.852535
_cell_length_c 15.071188
_cell_angle_alpha 90.000000
_cell_angle_beta 90.000000
_cell_angle_gamma 90.000000
_cell_volume 4384.763470
_symmetry_space_group_name_H-M "I B C A "
_symmetry_group_IT_number 73
_symmetry_cell_setting 'orthorhombic'
loop_
_space_group_symop_operation_xyz
x,y,z
-x,1/2-y,z
x,-y,1/2-z
1/2-x,y,-z
-x,-y,-z
x,1/2+y,-z
-x,y,1/2+z
1/2+x,-y,z
1/2+x,1/2+y,1/2+z
1/2-x,-y,1/2+z
1/2+x,1/2-y,-z
-x,1/2+y,1/2-z
1/2-x,1/2-y,1/2-z
1/2+x,y,1/2-z
1/2-x,1/2+y,z
x,1/2-y,1/2+z
loop_
_atom_site_type_symbol
_atom_site_label
_atom_site_fract_x
_atom_site_fract_y
_atom_site_fract_z
Si Si1 0.716638 0.723256 0.158926
Si Si2 0.175219 0.108164 0.041036
Si Si3 0.419775 0.884081 0.185845
Si Si4 0.431723 0.085879 0.117089
Si Si5 0.962049 0.658108 0.997604
Si Si6 0.183730 0.093023 0.440932
O O1 0.750000 0.750000 0.250000
O O2 0.680788 0.806996 0.107436
O O3 0.655459 0.655042 0.176310
O O4 0.780523 0.671050 0.115606
O O5 0.162246 0.009547 0.086445
O O6 0.250000 0.109493 0.000000
O O7 0.123987 0.116824 0.956495
O O8 0.440728 0.864712 0.287825
O O9 0.413567 0.987658 0.154331
O O10 0.469517 0.847678 0.108641
O O11 0.500232 0.085853 0.059520
O O12 0.882178 0.640765 0.016116
O O13 0.000000 0.750000 0.025954
O O14 0.250000 0.072024 0.500000
#
# Coordination Sequence:
#
# PCOD9533356 Si02
#       6
#    16  16  16  16  16  16
#     4  12  26  44  74 110 147 195 257 314 376 450
#     4  11  23  43  77 102 144 196 242 303 381 445
#     4  11  24  47  71 108 148 189 254 309 374 467
#     4  11  25  46  74 104 149 199 244 314 391 453
#     4  12  26  46  75 105 150 194 248 315 386 461
#     4  11  24  48  72 106 143 190 254 311 368 457
#
# _framework density 21.893996999999999
#
# number of rings (size 3 to 8) (size 9 to 14) (size 15 to 20)
#    0.000    0.667    3.333    4.000    4.667    2.667 
#    3.000    0.000    0.000    0.000    0.000    0.000 
#    0.000    0.000    0.000    0.000    0.000    0.000 
#
# Total GULP energy -267248.681539 kJ/mol
# GULP energy per Si atom -5567.680865 kJ/mol
# Density = 2.184417 g / cm^3
# Si number density = 21.893997 Si / 1000 Ang^3
#
#
#
# Elastic Constant Matrix: (Units=GPa)
#
#
# Indices 1 2 3 4 5 6 
#
# 1 108.9230 24.9354 65.3980 0.0000 0.0000 0.0000
# 2 24.9354 107.6686 57.8449 0.0000 0.0000 0.0000
# 3 65.3980 57.8449 162.8265 0.0000 0.0000 0.0000
# 4 0.0000 0.0000 0.0000 225.9783 0.0000 0.0000
# 5 0.0000 0.0000 0.0000 0.0000 38.2962 0.0000
# 6 0.0000 0.0000 0.0000 0.0000 0.0000 30.4251
#
#
#
# Elastic Compliance Matrix: (Units=1/GPa)
#
#
# Indices 1 2 3 4 5 6 
#
# 1 0.012103 -0.000237 -0.004777 0.000000 0.000000 0.000000
# 2 -0.000237 0.011483 -0.003984 0.000000 0.000000 0.000000
# 3 -0.004777 -0.003984 0.009476 0.000000 0.000000 0.000000
# 4 0.000000 0.000000 0.000000 0.004425 0.000000 0.000000
# 5 0.000000 0.000000 0.000000 0.000000 0.026112 0.000000
# 6 0.000000 0.000000 0.000000 0.000000 0.000000 0.032868
#
#
# Mechanical properties :
#
#
# Convention : Reuss Voigt Hill
#
# Bulk Modulus (GPa) = 66.37530 75.08609 70.73070
# Shear Modulus (GPa) = 41.84619 74.35590 58.10104
#
# Velocity S-wave (km/s) = 4.37659 5.83400 5.15704
# Velocity P-wave (km/s) = 7.47810 8.93031 8.23627
#
# Compressibility (1/GPa) = 0.01506584
#
# Stress axis : x y z
#
# Youngs Moduli (GPa) = 82.62314 87.08386 105.53312
#
# Poissons Ratio (x) = 0.02060 0.50414
# Poissons Ratio (y) = 0.01954 0.42049
# Poissons Ratio (z) = 0.39470 0.34698
#
# Static dielectric constant tensor:
#      x y z
#    x 1.794620 0.000000 0.000000 
#    y 0.000000 2.163680 0.000000 
#    z 0.000000 0.000000 1.764490 
# 
# From -- ./inp_files/18641.got.cif
#   From: 2010.05.17/outbox.cif.g08.bks.cpg/sg73_10_cif.got.tgz:18641.got - 2010.06.03 17:35:07.
