data_PCOD9533128
_publ_section_title
;
Structure prediction by ZEFSAII (Michael W. Deem and Ramdas Pophale) SiO2 
 PCOD9533128
Probable space group: I B C A 
;
_chemical_formula_sum "Si O2"
_cell_formula_units_Z 56
_cell_length_a 9.471162
_cell_length_b 9.875839
_cell_length_c 23.608650
_cell_angle_alpha 90.000000
_cell_angle_beta 90.000000
_cell_angle_gamma 90.000000
_cell_volume 2208.250920
_symmetry_space_group_name_H-M "I B C A "
_symmetry_group_IT_number 73
_symmetry_cell_setting 'orthorhombic'
loop_
_space_group_symop_operation_xyz
x,y,z
-x,1/2-y,z
x,-y,1/2-z
1/2-x,y,-z
-x,-y,-z
x,1/2+y,-z
-x,y,1/2+z
1/2+x,-y,z
1/2+x,1/2+y,1/2+z
1/2-x,-y,1/2+z
1/2+x,1/2-y,-z
-x,1/2+y,1/2-z
1/2-x,1/2-y,1/2-z
1/2+x,y,1/2-z
1/2-x,1/2+y,z
x,1/2-y,1/2+z
loop_
_atom_site_type_symbol
_atom_site_label
_atom_site_fract_x
_atom_site_fract_y
_atom_site_fract_z
Si Si1 0.000000 0.250000 0.174810
Si Si2 0.706565 0.300252 0.425915
Si Si3 0.500000 0.250000 0.626305
Si Si4 0.250000 0.450809 0.500000
Si Si5 0.856215 0.631751 0.732700
O O1 0.871962 0.223015 0.132687
O O2 0.982062 0.131699 0.220690
O O3 0.874575 0.307507 0.412569
O O4 0.671554 0.440562 0.458728
O O5 0.672649 0.162016 0.460828
O O6 0.419666 0.349870 0.670328
O O7 0.773594 0.500000 0.750000
O O8 0.750000 0.750000 0.750000
#
# Coordination Sequence:
#
# PCOD9533128 Si02
#       5
#     8  16   8   8  16
#     4  11  26  45  74 108 146 191 232 297 368 432
#     4  11  26  47  74 104 144 189 242 301 366 422
#     4  11  26  45  74 108 146 191 232 297 368 432
#     4  10  28  48  72 106 140 188 252 304 352 434
#     4  11  26  47  74 116 149 191 246 300 362 467
#
# _framework density 25.359437
#
# number of rings (size 3 to 8) (size 9 to 14) (size 15 to 20)
#    0.000    1.143    2.857    0.000    8.000   11.429 
#    0.000    0.000    0.000    0.000    0.000    0.000 
#    0.000    0.000    0.000    0.000    0.000    0.000 
#
# Total GULP energy -156015.967311 kJ/mol
# GULP energy per Si atom -5571.998833 kJ/mol
# Density = 2.530172 g / cm^3
# Si number density = 25.359437 Si / 1000 Ang^3
#
#
#
# Elastic Constant Matrix: (Units=GPa)
#
#
# Indices 1 2 3 4 5 6 
#
# 1 93.8884 19.5227 17.0432 0.0000 0.0000 0.0000
# 2 19.5227 205.8025 45.4704 0.0000 0.0000 0.0000
# 3 17.0432 45.4704 151.1060 0.0000 0.0000 0.0000
# 4 0.0000 0.0000 0.0000 5.3491 0.0000 0.0000
# 5 0.0000 0.0000 0.0000 0.0000 30.9531 0.0000
# 6 0.0000 0.0000 0.0000 0.0000 0.0000 20.2202
#
#
#
# Elastic Compliance Matrix: (Units=1/GPa)
#
#
# Indices 1 2 3 4 5 6 
#
# 1 0.011003 -0.000824 -0.000993 0.000000 0.000000 0.000000
# 2 -0.000824 0.005267 -0.001492 0.000000 0.000000 0.000000
# 3 -0.000993 -0.001492 0.007179 0.000000 0.000000 0.000000
# 4 0.000000 0.000000 0.000000 0.186949 0.000000 0.000000
# 5 0.000000 0.000000 0.000000 0.000000 0.032307 0.000000
# 6 0.000000 0.000000 0.000000 0.000000 0.000000 0.049455
#
#
# Mechanical properties :
#
#
# Convention : Reuss Voigt Hill
#
# Bulk Modulus (GPa) = 59.41804 68.31882 63.86843
# Shear Modulus (GPa) = 16.42641 35.88852 26.15746
#
# Velocity S-wave (km/s) = 2.54784 3.76599 3.21513
# Velocity P-wave (km/s) = 5.66891 6.77561 6.24682
#
# Compressibility (1/GPa) = 0.01682991
#
# Stress axis : x y z
#
# Youngs Moduli (GPa) = 90.88768 189.86676 139.29900
#
# Poissons Ratio (x) = 0.15651 0.13831
# Poissons Ratio (y) = 0.07492 0.20782
# Poissons Ratio (z) = 0.09024 0.28326
#
# Static dielectric constant tensor:
#      x y z
#    x 2.202110 0.000000 0.000000 
#    y 0.000000 0.115280 0.000000 
#    z 0.000000 0.000000 1.989670 
# 
# From -- ./inp_files/31561.got.cif
#   From: 2010.05.17/outbox.cif.g08.bks.cpg/sg73_16_cif.got.tgz:31561.got - 2010.06.03 17:35:07.
