data_PCOD9533447
_publ_section_title
;
Structure prediction by ZEFSAII (Michael W. Deem and Ramdas Pophale) SiO2 
 PCOD9533447
Probable space group: I B C A 
;
_chemical_formula_sum "Si O2"
_cell_formula_units_Z 64
_cell_length_a 12.572173
_cell_length_b 12.009116
_cell_length_c 16.255095
_cell_angle_alpha 90.000000
_cell_angle_beta 90.000000
_cell_angle_gamma 90.000000
_cell_volume 2454.205360
_symmetry_space_group_name_H-M "I B C A "
_symmetry_group_IT_number 73
_symmetry_cell_setting 'orthorhombic'
loop_
_space_group_symop_operation_xyz
x,y,z
-x,1/2-y,z
x,-y,1/2-z
1/2-x,y,-z
-x,-y,-z
x,1/2+y,-z
-x,y,1/2+z
1/2+x,-y,z
1/2+x,1/2+y,1/2+z
1/2-x,-y,1/2+z
1/2+x,1/2-y,-z
-x,1/2+y,1/2-z
1/2-x,1/2-y,1/2-z
1/2+x,y,1/2-z
1/2-x,1/2+y,z
x,1/2-y,1/2+z
loop_
_atom_site_type_symbol
_atom_site_label
_atom_site_fract_x
_atom_site_fract_y
_atom_site_fract_z
Si Si1 0.625556 0.724497 0.864872
Si Si2 0.368636 0.029819 0.495680
Si Si3 0.516984 0.120724 0.392645
Si Si4 0.778482 0.897136 0.794829
O O1 0.500000 0.750000 0.854278
O O2 0.632322 0.638896 0.942302
O O3 0.703158 0.833035 0.859887
O O4 0.673392 0.671111 0.781842
O O5 0.250000 0.990895 0.500000
O O6 0.401179 0.069370 0.404266
O O7 0.438399 0.920162 0.518727
O O8 0.500000 0.250000 0.378614
O O9 0.609465 0.069931 0.337968
O O10 0.723056 0.000000 0.750000
#
# Coordination Sequence:
#
# PCOD9533447 Si02
#       4
#    16  16  16  16
#     4  11  25  45  72 111 148 198 258 312 392 467
#     4  11  25  45  73 110 149 200 256 319 397 471
#     4  11  24  45  72 105 147 199 251 316 390 460
#     4  11  24  48  74 110 149 203 251 320 387 467
#
# _framework density 26.077687999999998
#
# number of rings (size 3 to 8) (size 9 to 14) (size 15 to 20)
#    0.000    1.000    2.500    3.000    0.000   10.000 
#    9.000    0.000    0.000    0.000    0.000    0.000 
#    0.000    0.000    0.000    0.000    0.000    0.000 
#
# Total GULP energy -178375.726575 kJ/mol
# GULP energy per Si atom -5574.241455 kJ/mol
# Density = 2.601833 g / cm^3
# Si number density = 26.077688 Si / 1000 Ang^3
#
#
#
# Elastic Constant Matrix: (Units=GPa)
#
#
# Indices 1 2 3 4 5 6 
#
# 1 118.0562 41.5935 53.2520 0.0000 0.0000 0.0000
# 2 41.5935 99.3766 44.3791 0.0000 0.0000 0.0000
# 3 53.2520 44.3791 103.6534 0.0000 0.0000 0.0000
# 4 0.0000 0.0000 0.0000 26.6386 0.0000 0.0000
# 5 0.0000 0.0000 0.0000 0.0000 112.5159 0.0000
# 6 0.0000 0.0000 0.0000 0.0000 0.0000 31.2188
#
#
#
# Elastic Compliance Matrix: (Units=1/GPa)
#
#
# Indices 1 2 3 4 5 6 
#
# 1 0.011587 -0.002709 -0.004793 0.000000 0.000000 0.000000
# 2 -0.002709 0.013075 -0.004206 0.000000 0.000000 0.000000
# 3 -0.004793 -0.004206 0.013911 0.000000 0.000000 0.000000
# 4 0.000000 0.000000 0.000000 0.037540 0.000000 0.000000
# 5 0.000000 0.000000 0.000000 0.000000 0.008888 0.000000
# 6 0.000000 0.000000 0.000000 0.000000 0.000000 0.032032
#
#
# Mechanical properties :
#
#
# Convention : Reuss Voigt Hill
#
# Bulk Modulus (GPa) = 65.97975 66.61503 66.29739
# Shear Modulus (GPa) = 34.36409 46.19875 40.28142
#
# Velocity S-wave (km/s) = 3.63403 4.21358 3.93449
# Velocity P-wave (km/s) = 6.55472 7.01945 6.79106
#
# Compressibility (1/GPa) = 0.01515617
#
# Stress axis : x y z
#
# Youngs Moduli (GPa) = 86.30350 76.48143 71.88692
#
# Poissons Ratio (x) = 0.20721 0.34454
# Poissons Ratio (y) = 0.23382 0.30237
# Poissons Ratio (z) = 0.41364 0.32169
#
# Static dielectric constant tensor:
#      x y z
#    x 2.288370 0.000000 0.000000 
#    y 0.000000 2.212850 0.000000 
#    z 0.000000 0.000000 2.103160 
# 
# From -- ./inp_files/9437.got.cif
#   From: 2010.05.17/outbox.cif.g08.bks.cpg/sg73_5_cif.got.tgz:9437.got - 2010.06.03 17:35:07.
