data_PCOD9533930
_publ_section_title
;
Structure prediction by ZEFSAII (Michael W. Deem and Ramdas Pophale) SiO2 
 PCOD9533930
Probable space group: I M M A
;
_chemical_formula_sum "Si O2"
_cell_formula_units_Z 76
_cell_length_a 12.196316
_cell_length_b 22.876122
_cell_length_c 14.080465
_cell_angle_alpha 90.000000
_cell_angle_beta 90.000000
_cell_angle_gamma 90.000000
_cell_volume 3928.511869
_symmetry_space_group_name_H-M "I M M A"
_symmetry_group_IT_number 74
_symmetry_cell_setting 'orthorhombic'
loop_
_space_group_symop_operation_xyz
x,y,z
-x,1/2-y,z
x,-y,-z
-x,1/2+y,-z
-x,-y,-z
x,1/2+y,-z
-x,y,z
x,1/2-y,z
1/2+x,1/2+y,1/2+z
1/2-x,-y,1/2+z
1/2+x,1/2-y,1/2-z
1/2-x,y,1/2-z
1/2-x,1/2-y,1/2-z
1/2+x,y,1/2-z
1/2-x,1/2+y,1/2+z
1/2+x,-y,1/2+z
loop_
_atom_site_type_symbol
_atom_site_label
_atom_site_fract_x
_atom_site_fract_y
_atom_site_fract_z
Si Si1 0.874622 0.021088 0.390712
Si Si2 0.760214 0.129907 0.055888
Si Si3 0.000000 0.379419 0.144666
Si Si4 0.500000 0.013387 0.614164
Si Si5 0.000000 0.750000 0.828830
Si Si6 0.757101 0.750000 0.864599
Si Si7 0.774625 0.416937 0.846843
O O1 0.803611 0.079381 0.387741
O O2 0.000000 0.030072 0.364770
O O3 0.872569 0.000000 0.500000
O O4 0.814404 0.968954 0.338171
O O5 0.711978 0.191332 0.090110
O O6 0.887477 0.126315 0.085715
O O7 0.752040 0.118298 0.943719
O O8 0.000000 0.449663 0.165920
O O9 0.000000 0.318900 0.210889
O O10 0.500000 0.000000 0.500000
O O11 0.392299 0.051558 0.638330
O O12 0.887264 0.750000 0.885843
O O13 0.750000 0.750000 0.750000
O O14 0.750000 0.381961 0.750000
#
# Coordination Sequence:
#
# PCOD9533930 Si02
#       7
#    16  16   8   8   4   8  16
#     4   9  18  34  53  77 115 152 181 221 280 342
#     4  10  19  38  57  81 113 149 186 242 294 334
#     4  10  16  34  62  78 108 150 193 245 286 324
#     4  12  18  36  60  85 114 155 204 239 286 345
#     4   8  20  36  56  84 112 132 184 244 288 324
#     4  10  22  40  61  83 105 142 195 242 288 342
#     4  11  22  33  55  87 119 149 189 236 289 352
#
# _framework density 19.345749000000001
#
# number of rings (size 3 to 8) (size 9 to 14) (size 15 to 20)
#    0.000    1.895    4.211    0.632    1.474    0.842 
#    1.895    0.526    0.000    0.000    0.000    0.000 
#    0.000    0.000    0.000    0.000    0.000    0.000 
#
# Total GULP energy -211587.604213 kJ/mol
# GULP energy per Si atom -5568.094848 kJ/mol
# Density = 1.930172 g / cm^3
# Si number density = 19.345749 Si / 1000 Ang^3
#
#
#
# Elastic Constant Matrix: (Units=GPa)
#
#
# Indices 1 2 3 4 5 6 
#
# 1 96.2649 13.3007 18.1028 0.0000 0.0000 0.0000
# 2 13.3007 130.1258 37.8219 -0.0001 0.0000 -0.0001
# 3 18.1028 37.8219 105.5897 -0.0001 0.0000 -0.0001
# 4 0.0000 -0.0001 -0.0001 11.7482 0.0000 0.0000
# 5 0.0000 0.0000 0.0000 0.0000 9.6923 0.0000
# 6 0.0000 -0.0001 -0.0001 0.0000 0.0000 2.8339
#
#
#
# Elastic Compliance Matrix: (Units=1/GPa)
#
#
# Indices 1 2 3 4 5 6 
#
# 1 0.010780 -0.000630 -0.001622 0.000000 0.000000 0.000000
# 2 -0.000630 0.008615 -0.002978 0.000000 0.000000 0.000000
# 3 -0.001622 -0.002978 0.010815 0.000000 0.000000 0.000000
# 4 0.000000 0.000000 0.000000 0.085119 0.000000 0.000001
# 5 0.000000 0.000000 0.000000 0.000000 0.103175 -0.000001
# 6 0.000000 0.000000 0.000000 0.000001 -0.000001 0.352867
#
#
# Mechanical properties :
#
#
# Convention : Reuss Voigt Hill
#
# Bulk Modulus (GPa) = 50.63441 52.27015 51.45228
# Shear Modulus (GPa) = 8.49740 22.37189 15.43465
#
# Velocity S-wave (km/s) = 2.09808 3.40431 2.82766
# Velocity P-wave (km/s) = 5.66564 6.52151 6.10858
#
# Compressibility (1/GPa) = 0.01974942
#
# Stress axis : x y z
#
# Youngs Moduli (GPa) = 92.76275 116.07945 92.46084
#
# Poissons Ratio (x) = 0.07317 0.15001
# Poissons Ratio (y) = 0.05847 0.27532
# Poissons Ratio (z) = 0.15050 0.34565
#
# Static dielectric constant tensor:
#      x y z
#    x 1.656160 0.000000 0.000000 
#    y 0.000000 1.735040 0.000000 
#    z 0.000000 0.000000 1.731960 
# 
# From -- ./inp_files/30781.got.cif
#   From: 2010.05.17/outbox.cif.g08.bks.cpg/sg74_16_cif.got.tgz:30781.got - 2010.06.03 17:57:02.
