data_PCOD9533377
_publ_section_title
;
Structure prediction by ZEFSAII (Michael W. Deem and Ramdas Pophale) SiO2 
 PCOD9533377
Probable space group: I B C A 
;
_chemical_formula_sum "Si O2"
_cell_formula_units_Z 120
_cell_length_a 8.759503
_cell_length_b 25.943385
_cell_length_c 21.900298
_cell_angle_alpha 90.000000
_cell_angle_beta 90.000000
_cell_angle_gamma 90.000000
_cell_volume 4976.868097
_symmetry_space_group_name_H-M "I B C A "
_symmetry_group_IT_number 73
_symmetry_cell_setting 'orthorhombic'
loop_
_space_group_symop_operation_xyz
x,y,z
-x,1/2-y,z
x,-y,1/2-z
1/2-x,y,-z
-x,-y,-z
x,1/2+y,-z
-x,y,1/2+z
1/2+x,-y,z
1/2+x,1/2+y,1/2+z
1/2-x,-y,1/2+z
1/2+x,1/2-y,-z
-x,1/2+y,1/2-z
1/2-x,1/2-y,1/2-z
1/2+x,y,1/2-z
1/2-x,1/2+y,z
x,1/2-y,1/2+z
loop_
_atom_site_type_symbol
_atom_site_label
_atom_site_fract_x
_atom_site_fract_y
_atom_site_fract_z
Si Si1 0.913354 0.070334 0.464653
Si Si2 0.594701 0.024628 0.882031
Si Si3 0.750000 0.615561 0.000000
Si Si4 0.312550 0.860500 0.126612
Si Si5 0.096093 0.798266 0.353548
Si Si6 0.311374 0.463755 0.305094
Si Si7 0.586108 0.801017 0.288765
Si Si8 0.842191 0.868270 0.157456
O O1 0.750000 0.080991 0.500000
O O2 0.908771 0.100638 0.399846
O O3 0.080288 0.086031 0.495106
O O4 0.903023 0.010692 0.442155
O O5 0.694148 0.076910 0.875295
O O6 0.421417 0.035052 0.863773
O O7 0.657208 0.990433 0.826873
O O8 0.744430 0.651159 0.059199
O O9 0.487521 0.846607 0.134716
O O10 0.228082 0.823139 0.173775
O O11 0.122485 0.789556 0.281347
O O12 0.258349 0.819389 0.373725
O O13 0.000000 0.750000 0.378079
O O14 0.366698 0.500000 0.250000
O O15 0.266624 0.403985 0.299778
O O16 0.500000 0.750000 0.312554
O O17 0.468015 0.847491 0.296707
#
# Coordination Sequence:
#
# PCOD9533377 Si02
#       8
#    16  16   8  16  16  16  16  16
#     4  11  26  49  75 106 148 200 258 310 375 449
#     4  11  26  43  64 105 139 189 250 298 357 454
#     4  12  26  48  78 106 150 206 250 318 378 450
#     4  12  25  45  72 106 141 190 251 301 382 447
#     4  11  24  44  76 108 142 194 245 311 386 455
#     4  11  25  41  64  99 147 192 228 287 379 450
#     4  11  25  46  75 109 147 190 246 314 382 459
#     4  11  23  45  68 106 150 182 245 316 363 456
#
# _framework density 24.111547999999999
#
# number of rings (size 3 to 8) (size 9 to 14) (size 15 to 20)
#    0.000    0.800    2.667    3.600    8.400    2.667 
#    0.000    0.667    2.933    0.000    0.000    0.000 
#    0.000    0.000    0.000    0.000    0.000    0.000 
#
# Total GULP energy -334602.143075 kJ/mol
# GULP energy per Si atom -5576.702385 kJ/mol
# Density = 2.405667 g / cm^3
# Si number density = 24.111548 Si / 1000 Ang^3
#
#
#
# Elastic Constant Matrix: (Units=GPa)
#
#
# Indices 1 2 3 4 5 6 
#
# 1 94.2940 11.4474 11.8627 0.0000 0.0000 0.0000
# 2 11.4474 93.9990 22.8961 0.0000 0.0000 0.0000
# 3 11.8627 22.8961 64.0316 0.0000 0.0000 0.0000
# 4 0.0000 0.0000 0.0000 17.2450 0.0000 0.0000
# 5 0.0000 0.0000 0.0000 0.0000 8.0039 0.0000
# 6 0.0000 0.0000 0.0000 0.0000 0.0000 33.2389
#
#
#
# Elastic Compliance Matrix: (Units=1/GPa)
#
#
# Indices 1 2 3 4 5 6 
#
# 1 0.010930 -0.000918 -0.001697 0.000000 0.000000 0.000000
# 2 -0.000918 0.011730 -0.004024 0.000000 0.000000 0.000000
# 3 -0.001697 -0.004024 0.017371 0.000000 0.000000 0.000000
# 4 0.000000 0.000000 0.000000 0.057988 0.000000 0.000000
# 5 0.000000 0.000000 0.000000 0.000000 0.124940 0.000000
# 6 0.000000 0.000000 0.000000 0.000000 0.000000 0.030085
#
#
# Mechanical properties :
#
#
# Convention : Reuss Voigt Hill
#
# Bulk Modulus (GPa) = 37.37885 38.30412 37.84148
# Shear Modulus (GPa) = 18.16599 25.43877 21.80238
#
# Velocity S-wave (km/s) = 2.74782 3.25167 3.01030
# Velocity P-wave (km/s) = 5.05999 5.47891 5.27361
#
# Compressibility (1/GPa) = 0.02675310
#
# Stress axis : x y z
#
# Youngs Moduli (GPa) = 91.49116 85.24814 57.56824
#
# Poissons Ratio (x) = 0.07824 0.09768
# Poissons Ratio (y) = 0.08397 0.23168
# Poissons Ratio (z) = 0.15524 0.34308
#
# Static dielectric constant tensor:
#      x y z
#    x 1.924910 0.000000 0.000000 
#    y 0.000000 2.017470 0.000000 
#    z 0.000000 0.000000 1.921560 
# 
# From -- ./inp_files/28528.got.cif
#   From: 2010.05.17/outbox.cif.g08.bks.cpg/sg73_15_cif.got.tgz:28528.got - 2010.06.03 17:35:07.
