data_PCOD9533887
_publ_section_title
;
Structure prediction by ZEFSAII (Michael W. Deem and Ramdas Pophale) SiO2 
 PCOD9533887
Probable space group: I M M A
;
_chemical_formula_sum "Si O2"
_cell_formula_units_Z 128
_cell_length_a 21.078701
_cell_length_b 17.574875
_cell_length_c 21.936745
_cell_angle_alpha 90.000000
_cell_angle_beta 90.000000
_cell_angle_gamma 90.000000
_cell_volume 8126.588610
_symmetry_space_group_name_H-M "I M M A"
_symmetry_group_IT_number 74
_symmetry_cell_setting 'orthorhombic'
loop_
_space_group_symop_operation_xyz
x,y,z
-x,1/2-y,z
x,-y,-z
-x,1/2+y,-z
-x,-y,-z
x,1/2+y,-z
-x,y,z
x,1/2-y,z
1/2+x,1/2+y,1/2+z
1/2-x,-y,1/2+z
1/2+x,1/2-y,1/2-z
1/2-x,y,1/2-z
1/2-x,1/2-y,1/2-z
1/2+x,y,1/2-z
1/2-x,1/2+y,1/2+z
1/2+x,-y,1/2+z
loop_
_atom_site_type_symbol
_atom_site_label
_atom_site_fract_x
_atom_site_fract_y
_atom_site_fract_z
Si Si1 0.198510 0.583112 0.470564
Si Si2 0.901503 0.338598 0.375451
Si Si3 0.133168 0.581249 0.870374
Si Si4 0.258383 0.836918 0.907630
Si Si5 0.926742 0.159297 0.012338
Si Si6 0.927131 0.838752 0.758679
Si Si7 0.333069 0.443676 0.559567
Si Si8 0.928203 0.842115 0.486774
O O1 0.186932 0.500000 0.500000
O O2 0.225350 0.637797 0.523889
O O3 0.259571 0.576167 0.426589
O O4 0.130552 0.618018 0.452392
O O5 0.921351 0.250000 0.376529
O O6 0.825379 0.342421 0.373774
O O7 0.925197 0.368252 0.310943
O O8 0.922512 0.368102 0.441796
O O9 0.204729 0.609879 0.881139
O O10 0.110792 0.608544 0.804820
O O11 0.134517 0.492413 0.887199
O O12 0.091447 0.623564 0.922179
O O13 0.236152 0.750000 0.906386
O O14 0.920641 0.250000 0.015466
O O15 0.877342 0.124360 0.963795
O O16 0.000000 0.139978 0.997841
O O17 0.903989 0.750000 0.759682
O O18 0.000000 0.837214 0.778783
O O19 0.329723 0.500000 0.500000
O O20 0.919320 0.750000 0.485790
O O21 0.000000 0.858542 0.465856
#
# Coordination Sequence:
#
# PCOD9533887 Si02
#       8
#    16  16  16  16  16  16  16  16
#     4  10  16  28  42  59  81 109 144 177 215 254
#     4   8  16  28  42  59  82 112 144 178 212 243
#     4  11  19  28  40  59  82 111 144 182 218 253
#     4  10  17  27  44  62  81 111 147 183 211 245
#     4  10  19  29  42  59  79 107 146 186 219 257
#     4  10  19  29  41  58  83 115 149 183 215 249
#     4   9  18  30  41  57  80 111 143 178 222 260
#     4   9  17  28  44  65  87 113 145 178 212 251
#
# _framework density 15.750766
#
# number of rings (size 3 to 8) (size 9 to 14) (size 15 to 20)
#    0.000    2.375    3.750    3.000    0.000    6.500 
#    0.000    1.875    0.000    0.000    0.000    0.000 
#    0.000    0.000    0.000   11.250    0.250   35.625 
#
# Total GULP energy -356292.913342 kJ/mol
# GULP energy per Si atom -5567.076771 kJ/mol
# Density = 1.571492 g / cm^3
# Si number density = 15.750766 Si / 1000 Ang^3
#
#
#
# Elastic Constant Matrix: (Units=GPa)
#
#
# Indices 1 2 3 4 5 6 
#
# 1 95.5586 30.5788 4.3953 0.0000 0.0000 0.0000
# 2 30.5788 38.7772 8.9517 0.0000 0.0000 0.0000
# 3 4.3953 8.9517 24.7341 0.0000 0.0000 0.0000
# 4 0.0000 0.0000 0.0000 5.2040 0.0000 0.0000
# 5 0.0000 0.0000 0.0000 0.0000 5.4501 0.0000
# 6 0.0000 0.0000 0.0000 0.0000 0.0000 19.4556
#
#
#
# Elastic Compliance Matrix: (Units=1/GPa)
#
#
# Indices 1 2 3 4 5 6 
#
# 1 0.014058 -0.011468 0.001652 0.000000 0.000000 0.000000
# 2 -0.011468 0.037494 -0.011532 0.000000 0.000000 0.000000
# 3 0.001652 -0.011532 0.044310 0.000000 0.000000 0.000000
# 4 0.000000 0.000000 0.000000 0.192159 0.000000 0.000000
# 5 0.000000 0.000000 0.000000 0.000000 0.183484 0.000000
# 6 0.000000 0.000000 0.000000 0.000000 0.000000 0.051399
#
#
# Mechanical properties :
#
#
# Convention : Reuss Voigt Hill
#
# Bulk Modulus (GPa) = 18.80849 27.43574 23.12212
# Shear Modulus (GPa) = 8.57160 13.69820 11.13490
#
# Velocity S-wave (km/s) = 2.33534 2.95224 2.66172
# Velocity P-wave (km/s) = 4.38623 5.39235 4.91510
#
# Compressibility (1/GPa) = 0.05316747
#
# Stress axis : x y z
#
# Youngs Moduli (GPa) = 71.13170 26.67125 22.56828
#
# Poissons Ratio (x) = 0.30585 -0.03728
# Poissons Ratio (y) = 0.81571 0.26025
# Poissons Ratio (z) = -0.11752 0.30757
#
# Static dielectric constant tensor:
#      x y z
#    x 1.581780 0.000000 0.000000 
#    y 0.000000 1.544490 0.000000 
#    z 0.000000 0.000000 1.519470 
# 
# From -- ./inp_files/61778.got.cif
#   From: 2010.05.17/outbox.cif.g08.bks.cpg/sg74_31_cif.got.tgz:61778.got - 2010.06.03 17:57:02.
