data_PCOD9533162
_publ_section_title
;
Structure prediction by ZEFSAII (Michael W. Deem and Ramdas Pophale) SiO2 
 PCOD9533162
Probable space group: I B C A 
;
_chemical_formula_sum "Si O2"
_cell_formula_units_Z 80
_cell_length_a 18.142241
_cell_length_b 21.345932
_cell_length_c 10.830883
_cell_angle_alpha 90.000000
_cell_angle_beta 90.000000
_cell_angle_gamma 90.000000
_cell_volume 4194.400706
_symmetry_space_group_name_H-M "I B C A "
_symmetry_group_IT_number 73
_symmetry_cell_setting 'orthorhombic'
loop_
_space_group_symop_operation_xyz
x,y,z
-x,1/2-y,z
x,-y,1/2-z
1/2-x,y,-z
-x,-y,-z
x,1/2+y,-z
-x,y,1/2+z
1/2+x,-y,z
1/2+x,1/2+y,1/2+z
1/2-x,-y,1/2+z
1/2+x,1/2-y,-z
-x,1/2+y,1/2-z
1/2-x,1/2-y,1/2-z
1/2+x,y,1/2-z
1/2-x,1/2+y,z
x,1/2-y,1/2+z
loop_
_atom_site_type_symbol
_atom_site_label
_atom_site_fract_x
_atom_site_fract_y
_atom_site_fract_z
Si Si1 0.500747 0.541973 0.374774
Si Si2 0.250000 0.524654 0.000000
Si Si3 0.856719 0.124066 0.391247
Si Si4 0.750000 0.780150 0.000000
Si Si5 0.707155 0.337184 0.351979
Si Si6 0.839002 0.911808 0.599482
O O1 0.514718 0.500000 0.250000
O O2 0.500000 0.500000 0.500000
O O3 0.563284 0.593892 0.399226
O O4 0.422090 0.576709 0.361236
O O5 0.300834 0.566234 0.912246
O O6 0.196709 0.479613 0.922704
O O7 0.821612 0.176671 0.479950
O O8 0.848410 0.155352 0.258310
O O9 0.770130 0.732257 0.890571
O O10 0.782953 0.373071 0.315090
O O11 0.671676 0.373583 0.470023
#
# Coordination Sequence:
#
# PCOD9533162 Si02
#       6
#    16   8  16   8  16  16
#     4  12  25  38  56  93 133 161 194 249 316 380
#     4   9  19  32  56  88 115 161 196 240 302 371
#     4  11  21  35  62  85 122 158 204 250 310 361
#     4   9  21  40  60  88 113 153 222 256 292 351
#     4   9  20  39  63  84 114 162 211 254 296 353
#     4   9  20  36  56  85 127 153 197 247 304 367
#
# _framework density 19.073046000000001
#
# number of rings (size 3 to 8) (size 9 to 14) (size 15 to 20)
#    0.000    2.400    2.000    1.800    5.600    0.000 
#    0.000    4.000    0.000    4.800    0.000    0.000 
#    0.000    0.000    0.000    0.000    0.000    0.000 
#
# Total GULP energy -222889.742510 kJ/mol
# GULP energy per Si atom -5572.243563 kJ/mol
# Density = 1.902963 g / cm^3
# Si number density = 19.073046 Si / 1000 Ang^3
#
#
#
# Elastic Constant Matrix: (Units=GPa)
#
#
# Indices 1 2 3 4 5 6 
#
# 1 129.1156 63.8266 12.2129 0.0000 0.0000 0.0000
# 2 63.8266 129.1279 28.5747 0.0000 0.0000 0.0000
# 3 12.2129 28.5747 51.1162 0.0000 0.0000 0.0000
# 4 0.0000 0.0000 0.0000 -2.2714 0.0000 0.0000
# 5 0.0000 0.0000 0.0000 0.0000 21.8993 0.0000
# 6 0.0000 0.0000 0.0000 0.0000 0.0000 22.4935
#
#
#
# Elastic Compliance Matrix: (Units=1/GPa)
#
#
# Indices 1 2 3 4 5 6 
#
# 1 0.010258 -0.005167 0.000438 0.000000 0.000000 0.000000
# 2 -0.005167 0.011440 -0.005161 0.000000 0.000000 0.000000
# 3 0.000438 -0.005161 0.022344 0.000000 0.000000 0.000000
# 4 0.000000 0.000000 0.000000 -0.440256 0.000000 0.000000
# 5 0.000000 0.000000 0.000000 0.000000 0.045664 0.000000
# 6 0.000000 0.000000 0.000000 0.000000 0.000000 0.044457
#
#
# Mechanical properties :
#
#
# Convention : Reuss Voigt Hill
#
# Bulk Modulus (GPa) = 41.21788 57.62093 49.41941
# Shear Modulus (GPa) = -17.97102 22.07399 2.05148
#
# Velocity S-wave (km/s) = -3.07289 3.40566 1.03823
# Velocity P-wave (km/s) = 3.01119 6.76320 5.23489
#
# Compressibility (1/GPa) = 0.02426131
#
# Stress axis : x y z
#
# Youngs Moduli (GPa) = 97.48526 87.40948 44.75550
#
# Poissons Ratio (x) = 0.45167 -0.01959
# Poissons Ratio (y) = 0.50373 0.23097
# Poissons Ratio (z) = -0.04267 0.45110
#
# Static dielectric constant tensor:
#      x y z
#    x 1.651750 0.000000 0.000000 
#    y 0.000000 1.668570 0.000000 
#    z 0.000000 0.000000 1.747140 
# 
# From -- ./inp_files/11823.got.cif
#   From: 2010.05.17/outbox.cif.g08.bks.cpg/sg73_6_cif.got.tgz:11823.got - 2010.06.03 17:35:07.
