data_PCOD9533651
_publ_section_title
;
Structure prediction by ZEFSAII (Michael W. Deem and Ramdas Pophale) SiO2 
 PCOD9533651
Probable space group: I B C A 
;
_chemical_formula_sum "Si O2"
_cell_formula_units_Z 64
_cell_length_a 9.824398
_cell_length_b 12.703890
_cell_length_c 17.141598
_cell_angle_alpha 90.000000
_cell_angle_beta 90.000000
_cell_angle_gamma 90.000000
_cell_volume 2139.409789
_symmetry_space_group_name_H-M "I B C A "
_symmetry_group_IT_number 73
_symmetry_cell_setting 'orthorhombic'
loop_
_space_group_symop_operation_xyz
x,y,z
-x,1/2-y,z
x,-y,1/2-z
1/2-x,y,-z
-x,-y,-z
x,1/2+y,-z
-x,y,1/2+z
1/2+x,-y,z
1/2+x,1/2+y,1/2+z
1/2-x,-y,1/2+z
1/2+x,1/2-y,-z
-x,1/2+y,1/2-z
1/2-x,1/2-y,1/2-z
1/2+x,y,1/2-z
1/2-x,1/2+y,z
x,1/2-y,1/2+z
loop_
_atom_site_type_symbol
_atom_site_label
_atom_site_fract_x
_atom_site_fract_y
_atom_site_fract_z
Si Si1 0.384922 0.840323 0.148766
Si Si2 0.343715 0.413946 0.427894
Si Si3 0.377850 0.406881 0.708594
Si Si4 0.404874 0.651215 0.413862
O O1 0.373768 0.797822 0.235589
O O2 0.252435 0.819262 0.098898
O O3 0.020890 0.148211 0.098592
O O4 0.379526 0.955615 0.195309
O O5 0.250000 0.379056 0.500000
O O6 0.250131 0.401787 0.351439
O O7 0.612129 0.466013 0.548525
O O8 0.520459 0.385562 0.664650
O O9 0.500000 0.750000 0.441013
#
# Coordination Sequence:
#
# PCOD9533651 Si02
#       4
#    16  16  16  16
#     4  12  27  49  84 126 166 218 289 356 423 510
#     4  12  28  54  86 123 169 224 283 353 431 501
#     4  12  24  49  84 117 160 222 283 350 416 501
#     4  12  26  47  78 118 166 217 280 348 421 501
#
# _framework density 29.914791999999998
#
# number of rings (size 3 to 8) (size 9 to 14) (size 15 to 20)
#    0.000    0.000    5.000    3.750    0.000    7.000 
#    0.000   11.250    0.000    0.000    0.000    0.000 
#    0.000    0.000    0.000    0.000    0.000    0.000 
#
# Total GULP energy -178331.821283 kJ/mol
# GULP energy per Si atom -5572.869415 kJ/mol
# Density = 2.984670 g / cm^3
# Si number density = 29.914792 Si / 1000 Ang^3
#
#
#
# Elastic Constant Matrix: (Units=GPa)
#
#
# Indices 1 2 3 4 5 6 
#
# 1 342.9607 90.1195 127.1624 0.0000 0.0000 0.0000
# 2 90.1195 169.9689 72.7728 0.0000 0.0000 0.0000
# 3 127.1624 72.7728 181.5273 0.0000 0.0000 0.0000
# 4 0.0000 0.0000 0.0000 31.1278 0.0000 0.0000
# 5 0.0000 0.0000 0.0000 0.0000 42.3040 0.0000
# 6 0.0000 0.0000 0.0000 0.0000 0.0000 51.8218
#
#
#
# Elastic Compliance Matrix: (Units=1/GPa)
#
#
# Indices 1 2 3 4 5 6 
#
# 1 0.004115 -0.001144 -0.002424 0.000000 0.000000 0.000000
# 2 -0.001144 0.007421 -0.002173 0.000000 0.000000 0.000000
# 3 -0.002424 -0.002173 0.008078 0.000000 0.000000 0.000000
# 4 0.000000 0.000000 0.000000 0.032126 0.000000 0.000000
# 5 0.000000 0.000000 0.000000 0.000000 0.023638 0.000000
# 6 0.000000 0.000000 0.000000 0.000000 0.000000 0.019297
#
#
# Mechanical properties :
#
#
# Convention : Reuss Voigt Hill
#
# Bulk Modulus (GPa) = 122.98837 141.61849 132.30343
# Shear Modulus (GPa) = 45.92699 52.01088 48.96894
#
# Velocity S-wave (km/s) = 3.92249 4.17422 4.05031
# Velocity P-wave (km/s) = 7.85600 8.40687 8.13610
#
# Compressibility (1/GPa) = 0.00813085
#
# Stress axis : x y z
#
# Youngs Moduli (GPa) = 243.00039 134.76047 123.78894
#
# Poissons Ratio (x) = 0.15417 0.30008
# Poissons Ratio (y) = 0.27800 0.26905
# Poissons Ratio (z) = 0.58907 0.29289
#
# Static dielectric constant tensor:
#      x y z
#    x 2.341080 0.000000 0.000000 
#    y 0.000000 2.643910 0.000000 
#    z 0.000000 0.000000 2.217650 
# 
# From -- ./inp_files/21042.got.cif
#   From: 2010.05.17/outbox.cif.g08.bks.cpg/sg73_11_cif.got.tgz:21042.got - 2010.06.03 17:35:07.
