data_PCOD9533665
_publ_section_title
;
Structure prediction by ZEFSAII (Michael W. Deem and Ramdas Pophale) SiO2 
 PCOD9533665
Probable space group: I B C A 
;
_chemical_formula_sum "Si O2"
_cell_formula_units_Z 120
_cell_length_a 17.485878
_cell_length_b 18.857388
_cell_length_c 16.330441
_cell_angle_alpha 90.000000
_cell_angle_beta 90.000000
_cell_angle_gamma 90.000000
_cell_volume 5384.766725
_symmetry_space_group_name_H-M "I B C A "
_symmetry_group_IT_number 73
_symmetry_cell_setting 'orthorhombic'
loop_
_space_group_symop_operation_xyz
x,y,z
-x,1/2-y,z
x,-y,1/2-z
1/2-x,y,-z
-x,-y,-z
x,1/2+y,-z
-x,y,1/2+z
1/2+x,-y,z
1/2+x,1/2+y,1/2+z
1/2-x,-y,1/2+z
1/2+x,1/2-y,-z
-x,1/2+y,1/2-z
1/2-x,1/2-y,1/2-z
1/2+x,y,1/2-z
1/2-x,1/2+y,z
x,1/2-y,1/2+z
loop_
_atom_site_type_symbol
_atom_site_label
_atom_site_fract_x
_atom_site_fract_y
_atom_site_fract_z
Si Si1 0.274531 0.595971 0.832197
Si Si2 0.560218 0.000000 0.250000
Si Si3 0.282861 0.875500 0.147710
Si Si4 0.462532 0.673685 0.002611
Si Si5 0.925026 0.551736 0.934660
Si Si6 0.301182 0.775534 0.576633
Si Si7 0.045717 0.586695 0.157082
Si Si8 0.169428 0.020975 0.404983
O O1 0.252274 0.601906 0.737198
O O2 0.247863 0.667532 0.874365
O O3 0.365007 0.588420 0.825144
O O4 0.237490 0.535009 0.888537
O O5 0.506889 0.929686 0.264009
O O6 0.615267 0.996242 0.328253
O O7 0.358757 0.918221 0.123653
O O8 0.307200 0.794223 0.133276
O O9 0.211194 0.902464 0.093800
O O10 0.500000 0.750000 0.012150
O O11 0.466254 0.650754 0.906523
O O12 0.514648 0.613549 0.045104
O O13 0.377971 0.685468 0.042064
O O14 0.965921 0.485430 0.893867
O O15 0.880387 0.520230 0.013428
O O16 0.250000 0.752401 0.500000
#
# Coordination Sequence:
#
# PCOD9533665 Si02
#       8
#    16   8  16  16  16  16  16  16
#     4  12  26  47  71 107 146 185 248 315 372 443
#     4  12  26  44  70 108 146 188 238 314 390 442
#     4  12  25  45  72 107 146 191 245 311 371 452
#     4  12  26  46  70 108 150 193 255 311 375 466
#     4  12  25  45  76 106 146 195 251 307 377 454
#     4  12  26  46  74 104 144 202 251 296 374 456
#     4  12  26  46  74 106 144 192 245 315 383 445
#     4  12  25  45  73 109 140 191 250 309 374 450
#
# _framework density 22.285087999999998
#
# number of rings (size 3 to 8) (size 9 to 14) (size 15 to 20)
#    0.000    0.000    6.667    3.600    1.867    0.000 
#    0.000    0.000    0.000    0.000    0.000    0.000 
#    0.000    0.000    0.000    0.000    0.000    0.000 
#
# Total GULP energy -335261.119627 kJ/mol
# GULP energy per Si atom -5587.685327 kJ/mol
# Density = 2.223437 g / cm^3
# Si number density = 22.285088 Si / 1000 Ang^3
#
#
#
# Elastic Constant Matrix: (Units=GPa)
#
#
# Indices 1 2 3 4 5 6 
#
# 1 90.2601 22.9815 16.9610 0.0000 0.0000 0.0000
# 2 22.9815 101.4079 31.9463 0.0000 0.0000 0.0000
# 3 16.9610 31.9463 78.6094 0.0000 0.0000 0.0000
# 4 0.0000 0.0000 0.0000 -4.8927 0.0000 0.0000
# 5 0.0000 0.0000 0.0000 0.0000 42.6430 0.0000
# 6 0.0000 0.0000 0.0000 0.0000 0.0000 -435.0261
#
#
#
# Elastic Compliance Matrix: (Units=1/GPa)
#
#
# Indices 1 2 3 4 5 6 
#
# 1 0.011951 -0.002174 -0.001695 0.000000 0.000000 0.000000
# 2 -0.002174 0.011705 -0.004288 0.000000 0.000000 0.000000
# 3 -0.001695 -0.004288 0.014829 0.000000 0.000000 0.000000
# 4 0.000000 0.000000 0.000000 -0.204386 0.000000 0.000000
# 5 0.000000 0.000000 0.000000 0.000000 0.023451 0.000000
# 6 0.000000 0.000000 0.000000 0.000000 0.000000 -0.002299
#
#
# Mechanical properties :
#
#
# Convention : Reuss Voigt Hill
#
# Bulk Modulus (GPa) = 45.10345 46.00612 45.55478
# Shear Modulus (GPa) = -41.30698 -66.22925 -53.76811
#
# Velocity S-wave (km/s) = -4.30998 -5.45744 -4.91729
# Velocity P-wave (km/s) = 2.11771 4.36146 3.42834
#
# Compressibility (1/GPa) = 0.02217126
#
# Stress axis : x y z
#
# Youngs Moduli (GPa) = 83.67332 85.43623 67.43433
#
# Poissons Ratio (x) = 0.18578 0.11430
# Poissons Ratio (y) = 0.18195 0.28913
# Poissons Ratio (z) = 0.14182 0.36631
#
# Static dielectric constant tensor:
#      x y z
#    x 1.873570 0.000000 0.000000 
#    y 0.000000 1.817750 0.000000 
#    z 0.000000 0.000000 1.915580 
# 
# From -- ./inp_files/22677.got.cif
#   From: 2010.05.17/outbox.cif.g08.bks.cpg/sg73_12_cif.got.tgz:22677.got - 2010.06.03 17:35:07.
