data_PCOD9533477
_publ_section_title
;
Structure prediction by ZEFSAII (Michael W. Deem and Ramdas Pophale) SiO2 
 PCOD9533477
Probable space group: I B C A 
;
_chemical_formula_sum "Si O2"
_cell_formula_units_Z 88
_cell_length_a 10.656014
_cell_length_b 19.535889
_cell_length_c 18.904352
_cell_angle_alpha 90.000000
_cell_angle_beta 90.000000
_cell_angle_gamma 90.000000
_cell_volume 3935.407933
_symmetry_space_group_name_H-M "I B C A "
_symmetry_group_IT_number 73
_symmetry_cell_setting 'orthorhombic'
loop_
_space_group_symop_operation_xyz
x,y,z
-x,1/2-y,z
x,-y,1/2-z
1/2-x,y,-z
-x,-y,-z
x,1/2+y,-z
-x,y,1/2+z
1/2+x,-y,z
1/2+x,1/2+y,1/2+z
1/2-x,-y,1/2+z
1/2+x,1/2-y,-z
-x,1/2+y,1/2-z
1/2-x,1/2-y,1/2-z
1/2+x,y,1/2-z
1/2-x,1/2+y,z
x,1/2-y,1/2+z
loop_
_atom_site_type_symbol
_atom_site_label
_atom_site_fract_x
_atom_site_fract_y
_atom_site_fract_z
Si Si1 0.394758 0.852193 0.977588
Si Si2 0.823420 0.988350 0.573163
Si Si3 0.655615 0.565484 0.203811
Si Si4 0.727548 0.815234 0.798585
Si Si5 0.945109 0.868116 0.885934
Si Si6 0.000000 0.750000 0.630272
O O1 0.420326 0.926978 0.943736
O O2 0.411517 0.794825 0.919397
O O3 0.250000 0.854237 0.000000
O O4 0.482886 0.841188 0.045028
O O5 0.750000 0.000679 0.500000
O O6 0.732258 0.961745 0.635701
O O7 0.887206 0.058211 0.595285
O O8 0.612939 0.500000 0.250000
O O9 0.736961 0.614715 0.254182
O O10 0.545760 0.614264 0.174731
O O11 0.750000 0.750000 0.750000
O O12 0.833736 0.820062 0.858672
O O13 0.587962 0.802665 0.827937
#
# Coordination Sequence:
#
# PCOD9533477 Si02
#       6
#    16  16  16  16  16   8
#     4  11  26  48  74 109 152 198 253 318 382 448
#     4  11  24  47  73 114 151 193 253 316 380 446
#     4  12  26  46  74 115 155 202 254 319 388 466
#     4  12  29  51  74 111 153 202 257 312 392 465
#     4  12  27  44  83 107 153 201 255 318 385 471
#     4  12  30  48  80 104 154 200 256 316 374 474
#
# _framework density 22.361086
#
# number of rings (size 3 to 8) (size 9 to 14) (size 15 to 20)
#    0.000    0.364    5.455    2.727   10.182    0.000 
#    0.000    0.000    0.000    0.000    0.000    0.000 
#    0.000    0.000    0.000    0.000    0.000    0.000 
#
# Total GULP energy -246371.308512 kJ/mol
# GULP energy per Si atom -5599.347921 kJ/mol
# Density = 2.231019 g / cm^3
# Si number density = 22.361086 Si / 1000 Ang^3
#
#
#
# Elastic Constant Matrix: (Units=GPa)
#
#
# Indices 1 2 3 4 5 6 
#
# 1 79.5467 0.9838 38.1673 0.0000 0.0000 0.0000
# 2 0.9838 69.0065 19.5153 0.0000 0.0000 0.0000
# 3 38.1673 19.5153 110.0754 0.0000 0.0000 0.0000
# 4 0.0000 0.0000 0.0000 22.2500 0.0000 0.0000
# 5 0.0000 0.0000 0.0000 0.0000 38.6355 0.0000
# 6 0.0000 0.0000 0.0000 0.0000 0.0000 38.8266
#
#
#
# Elastic Compliance Matrix: (Units=1/GPa)
#
#
# Indices 1 2 3 4 5 6 
#
# 1 0.015197 0.001341 -0.005507 0.000000 0.000000 0.000000
# 2 0.001341 0.015375 -0.003191 0.000000 0.000000 0.000000
# 3 -0.005507 -0.003191 0.011560 0.000000 0.000000 0.000000
# 4 0.000000 0.000000 0.000000 0.044944 0.000000 0.000000
# 5 0.000000 0.000000 0.000000 0.000000 0.025883 0.000000
# 6 0.000000 0.000000 0.000000 0.000000 0.000000 0.025756
#
#
# Mechanical properties :
#
#
# Convention : Reuss Voigt Hill
#
# Bulk Modulus (GPa) = 36.47304 41.77350 39.12327
# Shear Modulus (GPa) = 30.75655 33.27322 32.01489
#
# Velocity S-wave (km/s) = 3.71273 3.86164 3.78792
# Velocity P-wave (km/s) = 5.89283 6.21329 6.05518
#
# Compressibility (1/GPa) = 0.02741752
#
# Stress axis : x y z
#
# Youngs Moduli (GPa) = 65.80247 65.04235 86.50618
#
# Poissons Ratio (x) = -0.08721 0.47640
# Poissons Ratio (y) = -0.08823 0.27601
# Poissons Ratio (z) = 0.36238 0.20753
#
# Static dielectric constant tensor:
#      x y z
#    x 1.972100 0.000000 0.000000 
#    y 0.000000 1.752740 0.000000 
#    z 0.000000 0.000000 1.827930 
# 
# From -- ./inp_files/21286.got.cif
#   From: 2010.05.17/outbox.cif.g08.bks.cpg/sg73_11_cif.got.tgz:21286.got - 2010.06.03 17:35:07.
