data_PCOD9533638
_publ_section_title
;
Structure prediction by ZEFSAII (Michael W. Deem and Ramdas Pophale) SiO2 
 PCOD9533638
Probable space group: I B C A 
;
_chemical_formula_sum "Si O2"
_cell_formula_units_Z 56
_cell_length_a 24.082779
_cell_length_b 17.901135
_cell_length_c 4.866805
_cell_angle_alpha 90.000000
_cell_angle_beta 90.000000
_cell_angle_gamma 90.000000
_cell_volume 2098.123817
_symmetry_space_group_name_H-M "I B C A "
_symmetry_group_IT_number 73
_symmetry_cell_setting 'orthorhombic'
loop_
_space_group_symop_operation_xyz
x,y,z
-x,1/2-y,z
x,-y,1/2-z
1/2-x,y,-z
-x,-y,-z
x,1/2+y,-z
-x,y,1/2+z
1/2+x,-y,z
1/2+x,1/2+y,1/2+z
1/2-x,-y,1/2+z
1/2+x,1/2-y,-z
-x,1/2+y,1/2-z
1/2-x,1/2-y,1/2-z
1/2+x,y,1/2-z
1/2-x,1/2+y,z
x,1/2-y,1/2+z
loop_
_atom_site_type_symbol
_atom_site_label
_atom_site_fract_x
_atom_site_fract_y
_atom_site_fract_z
Si Si1 0.107542 0.000000 0.750000
Si Si2 0.036940 0.618800 0.935526
Si Si3 0.194426 0.581069 0.631837
Si Si4 0.355235 0.703195 0.975510
O O1 0.069362 0.954971 0.536370
O O2 0.145663 0.058616 0.581984
O O3 0.981984 0.621417 0.122188
O O4 0.079473 0.685176 0.998714
O O5 0.210456 0.500000 0.750000
O O6 0.250000 0.612773 0.500000
O O7 0.174377 0.633798 0.878049
O O8 0.341799 0.774623 0.166396
#
# Coordination Sequence:
#
# PCOD9533638 Si02
#       4
#     8  16  16  16
#     4  12  24  46  74 116 162 198 268 342 402 466
#     4  12  26  45  76 111 153 205 259 319 389 469
#     4  12  26  48  81 114 154 210 271 331 407 483
#     4  12  28  50  75 112 160 205 257 325 395 474
#
# _framework density 26.690511999999998
#
# number of rings (size 3 to 8) (size 9 to 14) (size 15 to 20)
#    0.000    0.000    4.286    6.000    0.000    4.571 
#    0.000    0.000    0.000    0.000    0.000    0.000 
#    0.000    0.000    0.000    0.000    0.000    0.000 
#
# Total GULP energy -157325.737729 kJ/mol
# GULP energy per Si atom -5618.776347 kJ/mol
# Density = 2.662976 g / cm^3
# Si number density = 26.690512 Si / 1000 Ang^3
#
#
#
# Elastic Constant Matrix: (Units=GPa)
#
#
# Indices 1 2 3 4 5 6 
#
# 1 108.9262 20.5992 18.9985 0.0000 0.0000 0.0000
# 2 20.5992 109.7989 15.0027 0.0000 0.0000 0.0000
# 3 18.9985 15.0027 95.5963 0.0000 0.0000 0.0000
# 4 0.0000 0.0000 0.0000 50.4566 0.0000 0.0000
# 5 0.0000 0.0000 0.0000 0.0000 55.3390 0.0000
# 6 0.0000 0.0000 0.0000 0.0000 0.0000 36.3794
#
#
#
# Elastic Compliance Matrix: (Units=1/GPa)
#
#
# Indices 1 2 3 4 5 6 
#
# 1 0.009779 -0.001603 -0.001692 0.000000 0.000000 0.000000
# 2 -0.001603 0.009570 -0.001183 0.000000 0.000000 0.000000
# 3 -0.001692 -0.001183 0.010983 0.000000 0.000000 0.000000
# 4 0.000000 0.000000 0.000000 0.019819 0.000000 0.000000
# 5 0.000000 0.000000 0.000000 0.000000 0.018070 0.000000
# 6 0.000000 0.000000 0.000000 0.000000 0.000000 0.027488
#
#
# Mechanical properties :
#
#
# Convention : Reuss Voigt Hill
#
# Bulk Modulus (GPa) = 46.78460 47.05802 46.92131
# Shear Modulus (GPa) = 44.72641 45.74972 45.23807
#
# Velocity S-wave (km/s) = 4.09802 4.14464 4.12140
# Velocity P-wave (km/s) = 6.32126 6.36972 6.34554
#
# Compressibility (1/GPa) = 0.02137455
#
# Stress axis : x y z
#
# Youngs Moduli (GPa) = 102.26175 104.49264 91.05336
#
# Poissons Ratio (x) = 0.16755 0.15404
# Poissons Ratio (y) = 0.16397 0.10774
# Poissons Ratio (z) = 0.17300 0.12364
#
# Static dielectric constant tensor:
#      x y z
#    x 2.040340 0.000000 0.000000 
#    y 0.000000 2.127340 0.000000 
#    z 0.000000 0.000000 2.050050 
# 
# From -- ./inp_files/1433.got.cif
#   From: 2010.05.17/outbox.cif.g08.bks.cpg/sg73_1_cif.got.tgz:1433.got - 2010.06.03 17:35:07.
