data_PCOD9533427
_publ_section_title
;
Structure prediction by ZEFSAII (Michael W. Deem and Ramdas Pophale) SiO2 
 PCOD9533427
Probable space group: I B C A 
;
_chemical_formula_sum "Si O2"
_cell_formula_units_Z 88
_cell_length_a 23.118921
_cell_length_b 14.354380
_cell_length_c 10.858041
_cell_angle_alpha 90.000000
_cell_angle_beta 90.000000
_cell_angle_gamma 90.000000
_cell_volume 3603.325351
_symmetry_space_group_name_H-M "I B C A "
_symmetry_group_IT_number 73
_symmetry_cell_setting 'orthorhombic'
loop_
_space_group_symop_operation_xyz
x,y,z
-x,1/2-y,z
x,-y,1/2-z
1/2-x,y,-z
-x,-y,-z
x,1/2+y,-z
-x,y,1/2+z
1/2+x,-y,z
1/2+x,1/2+y,1/2+z
1/2-x,-y,1/2+z
1/2+x,1/2-y,-z
-x,1/2+y,1/2-z
1/2-x,1/2-y,1/2-z
1/2+x,y,1/2-z
1/2-x,1/2+y,z
x,1/2-y,1/2+z
loop_
_atom_site_type_symbol
_atom_site_label
_atom_site_fract_x
_atom_site_fract_y
_atom_site_fract_z
Si Si1 0.798227 0.899367 0.310725
Si Si2 0.818388 0.647365 0.088091
Si Si3 0.500000 0.750000 0.321655
Si Si4 0.481304 0.574934 0.661045
Si Si5 0.092563 0.480723 0.952776
Si Si6 0.878744 0.831929 0.097443
O O1 0.735331 0.850360 0.319379
O O2 0.809974 0.905033 0.456901
O O3 0.849345 0.852242 0.231393
O O4 0.790050 0.000000 0.250000
O O5 0.837259 0.750376 0.049300
O O6 0.868955 0.581126 0.138575
O O7 0.493649 0.662745 0.230828
O O8 0.557319 0.714994 0.393671
O O9 0.450496 0.500000 0.750000
O O10 0.435398 0.590568 0.553355
O O11 0.535724 0.519654 0.610902
O O12 0.118915 0.573117 0.018861
#
# Coordination Sequence:
#
# PCOD9533427 Si02
#       6
#    16  16   8  16  16  16
#     4  11  25  52  76 103 148 197 245 317 383 442
#     4  11  26  47  74 109 138 195 260 297 380 455
#     4  12  26  40  76 104 142 200 236 290 386 440
#     4  11  24  44  65 107 150 192 241 297 367 446
#     4  11  25  44  72 104 151 190 244 305 376 446
#     4  12  26  47  74 109 150 194 245 318 372 451
#
# _framework density 24.421887000000002
#
# number of rings (size 3 to 8) (size 9 to 14) (size 15 to 20)
#    0.000    0.727    3.636    2.727    7.636    2.182 
#    6.545    0.000    0.000    0.000    0.000    0.000 
#    0.000    0.000    0.000    0.000    0.000    0.000 
#
# Total GULP energy -245703.052350 kJ/mol
# GULP energy per Si atom -5584.160281 kJ/mol
# Density = 2.436630 g / cm^3
# Si number density = 24.421887 Si / 1000 Ang^3
#
#
#
# Elastic Constant Matrix: (Units=GPa)
#
#
# Indices 1 2 3 4 5 6 
#
# 1 113.0115 33.1948 1.2349 0.0000 0.0000 0.0000
# 2 33.1948 131.6688 21.0340 0.0000 0.0000 0.0000
# 3 1.2349 21.0340 46.0478 0.0000 0.0000 0.0000
# 4 0.0000 0.0000 0.0000 44.1126 0.0000 0.0000
# 5 0.0000 0.0000 0.0000 0.0000 18.4930 0.0000
# 6 0.0000 0.0000 0.0000 0.0000 0.0000 23.5636
#
#
#
# Elastic Compliance Matrix: (Units=1/GPa)
#
#
# Indices 1 2 3 4 5 6 
#
# 1 0.009592 -0.002564 0.000914 0.000000 0.000000 0.000000
# 2 -0.002564 0.008878 -0.003987 0.000000 0.000000 0.000000
# 3 0.000914 -0.003987 0.023513 0.000000 0.000000 0.000000
# 4 0.000000 0.000000 0.000000 0.022669 0.000000 0.000000
# 5 0.000000 0.000000 0.000000 0.000000 0.054075 0.000000
# 6 0.000000 0.000000 0.000000 0.000000 0.000000 0.042438
#
#
# Mechanical properties :
#
#
# Convention : Reuss Voigt Hill
#
# Bulk Modulus (GPa) = 32.56322 44.62840 38.59581
# Shear Modulus (GPa) = 27.37096 32.91813 30.14455
#
# Velocity S-wave (km/s) = 3.35140 3.67535 3.51711
# Velocity P-wave (km/s) = 5.32338 6.02699 5.68608
#
# Compressibility (1/GPa) = 0.03070950
#
# Stress axis : x y z
#
# Youngs Moduli (GPa) = 104.25519 112.63622 42.52948
#
# Poissons Ratio (x) = 0.28882 -0.03887
# Poissons Ratio (y) = 0.26733 0.16955
# Poissons Ratio (z) = -0.09530 0.44904
#
# Static dielectric constant tensor:
#      x y z
#    x 2.177980 0.000000 0.000000 
#    y 0.000000 1.934750 0.000000 
#    z 0.000000 0.000000 2.043570 
# 
# From -- ./inp_files/13496.got.cif
#   From: 2010.05.17/outbox.cif.g08.bks.cpg/sg73_7_cif.got.tgz:13496.got - 2010.06.03 17:35:07.
