data_PCOD9533793
_publ_section_title
;
Structure prediction by ZEFSAII (Michael W. Deem and Ramdas Pophale) SiO2 
 PCOD9533793
Probable space group: I M M A
;
_chemical_formula_sum "Si O2"
_cell_formula_units_Z 80
_cell_length_a 14.630297
_cell_length_b 18.934552
_cell_length_c 18.342062
_cell_angle_alpha 90.000000
_cell_angle_beta 90.000000
_cell_angle_gamma 90.000000
_cell_volume 5081.083520
_symmetry_space_group_name_H-M "I M M A"
_symmetry_group_IT_number 74
_symmetry_cell_setting 'orthorhombic'
loop_
_space_group_symop_operation_xyz
x,y,z
-x,1/2-y,z
x,-y,-z
-x,1/2+y,-z
-x,-y,-z
x,1/2+y,-z
-x,y,z
x,1/2-y,z
1/2+x,1/2+y,1/2+z
1/2-x,-y,1/2+z
1/2+x,1/2-y,1/2-z
1/2-x,y,1/2-z
1/2-x,1/2-y,1/2-z
1/2+x,y,1/2-z
1/2-x,1/2+y,1/2+z
1/2+x,-y,1/2+z
loop_
_atom_site_type_symbol
_atom_site_label
_atom_site_fract_x
_atom_site_fract_y
_atom_site_fract_z
Si Si1 0.302769 0.473771 0.584758
Si Si2 0.297317 0.829829 0.477443
Si Si3 0.760653 0.384654 0.365585
Si Si4 0.500000 0.016864 0.413337
Si Si5 0.500000 0.671535 0.539812
Si Si6 0.605438 0.165367 0.254950
O O1 0.305595 0.500000 0.500000
O O2 0.275988 0.392169 0.579302
O O3 0.239906 0.530752 0.624627
O O4 0.405598 0.484719 0.614942
O O5 0.274223 0.750000 0.456134
O O6 0.251210 0.849146 0.555172
O O7 0.406881 0.832912 0.493370
O O8 0.671033 0.363797 0.318608
O O9 0.846759 0.357993 0.320287
O O10 0.500000 0.101852 0.410990
O O11 0.500000 0.000000 0.500000
O O12 0.500000 0.750000 0.575812
O O13 0.500000 0.143056 0.257527
O O14 0.609210 0.250000 0.259710
#
# Coordination Sequence:
#
# PCOD9533793 Si02
#       6
#    16  16  16   8   8  16
#     4   9  16  24  40  60  85 114 140 176 211 256
#     4  10  17  25  40  64  91 116 141 172 215 263
#     4  10  18  30  45  63  87 117 147 172 207 254
#     4  10  12  24  30  52  86 112 142 164 196 244
#     4  10  16  20  32  56  86 118 144 162 200 256
#     4  10  21  33  44  62  86 114 149 183 208 239
#
# _framework density 15.744673000000001
#
# number of rings (size 3 to 8) (size 9 to 14) (size 15 to 20)
#    0.000    2.200    6.000    2.400    2.800    0.000 
#    0.000    0.000    0.000    5.400    0.000    2.800 
#    0.000    1.600    0.000    0.000    0.000    0.000 
#
# Total GULP energy -222862.631118 kJ/mol
# GULP energy per Si atom -5571.565778 kJ/mol
# Density = 1.570884 g / cm^3
# Si number density = 15.744673 Si / 1000 Ang^3
#
#
#
# Elastic Constant Matrix: (Units=GPa)
#
#
# Indices 1 2 3 4 5 6 
#
# 1 54.5055 22.6649 17.9446 0.0000 0.0000 0.0000
# 2 22.6649 142.1596 25.2512 0.0000 0.0000 0.0000
# 3 17.9446 25.2512 23.6825 0.0000 0.0000 0.0000
# 4 0.0000 0.0000 0.0000 21.4460 0.0000 0.0000
# 5 0.0000 0.0000 0.0000 0.0000 8.8891 0.0000
# 6 0.0000 0.0000 0.0000 0.0000 0.0000 17.6278
#
#
#
# Elastic Compliance Matrix: (Units=1/GPa)
#
#
# Indices 1 2 3 4 5 6 
#
# 1 0.024510 -0.000751 -0.017770 0.000000 0.000000 0.000000
# 2 -0.000751 0.008701 -0.008708 0.000000 0.000000 0.000000
# 3 -0.017770 -0.008708 0.064975 0.000000 0.000000 0.000000
# 4 0.000000 0.000000 0.000000 0.046629 0.000000 0.000000
# 5 0.000000 0.000000 0.000000 0.000000 0.112497 0.000000
# 6 0.000000 0.000000 0.000000 0.000000 0.000000 0.056729
#
#
# Mechanical properties :
#
#
# Convention : Reuss Voigt Hill
#
# Bulk Modulus (GPa) = 22.86949 39.11878 30.99414
# Shear Modulus (GPa) = 13.05228 19.89169 16.47198
#
# Velocity S-wave (km/s) = 2.88235 3.55828 3.23800
# Velocity P-wave (km/s) = 5.06301 6.46386 5.80584
#
# Compressibility (1/GPa) = 0.04372637
#
# Stress axis : x y z
#
# Youngs Moduli (GPa) = 40.80039 114.93073 15.39050
#
# Poissons Ratio (x) = 0.08633 0.27349
# Poissons Ratio (y) = 0.03065 0.13402
# Poissons Ratio (z) = 0.72504 1.00083
#
# Static dielectric constant tensor:
#      x y z
#    x 1.540300 0.000000 0.000000 
#    y 0.000000 1.576670 0.000000 
#    z 0.000000 0.000000 1.546930 
# 
# From -- ./inp_files/60225.got.cif
#   From: 2010.05.17/outbox.cif.g08.bks.cpg/sg74_31_cif.got.tgz:60225.got - 2010.06.03 17:57:02.
