data_PCOD9533705
_publ_section_title
;
Structure prediction by ZEFSAII (Michael W. Deem and Ramdas Pophale) SiO2 
 PCOD9533705
Probable space group: I B C A 
;
_chemical_formula_sum "Si O2"
_cell_formula_units_Z 48
_cell_length_a 18.939363
_cell_length_b 9.247434
_cell_length_c 10.130543
_cell_angle_alpha 90.000000
_cell_angle_beta 90.000000
_cell_angle_gamma 90.000000
_cell_volume 1774.268461
_symmetry_space_group_name_H-M "I B C A "
_symmetry_group_IT_number 73
_symmetry_cell_setting 'orthorhombic'
loop_
_space_group_symop_operation_xyz
x,y,z
-x,1/2-y,z
x,-y,1/2-z
1/2-x,y,-z
-x,-y,-z
x,1/2+y,-z
-x,y,1/2+z
1/2+x,-y,z
1/2+x,1/2+y,1/2+z
1/2-x,-y,1/2+z
1/2+x,1/2-y,-z
-x,1/2+y,1/2-z
1/2-x,1/2-y,1/2-z
1/2+x,y,1/2-z
1/2-x,1/2+y,z
x,1/2-y,1/2+z
loop_
_atom_site_type_symbol
_atom_site_label
_atom_site_fract_x
_atom_site_fract_y
_atom_site_fract_z
Si Si1 0.500000 0.250000 0.220903
Si Si2 0.380076 0.206286 0.407443
Si Si3 0.250000 0.356321 0.500000
Si Si4 0.284137 0.000000 0.250000
Si Si5 0.000000 0.000000 0.000000
O O1 0.439088 0.300547 0.328010
O O2 0.480369 0.116592 0.126677
O O3 0.323533 0.272157 0.507487
O O4 0.331765 0.131523 0.297997
O O5 0.426637 0.086167 0.478125
O O6 0.238760 0.452448 0.627417
#
# Coordination Sequence:
#
# PCOD9533705 Si02
#       5
#     8  16   8   8   8
#     4  12  26  50  86 124 172 226 292 368 448 530
#     4  12  27  52  82 128 171 230 297 372 451 537
#     4  12  30  54  88 128 176 234 304 376 452 542
#     4  12  26  54  80 126 172 228 298 362 458 536
#     4  12  26  50  84 124 174 222 292 362 442 534
#
# _framework density 27.053401999999998
#
# number of rings (size 3 to 8) (size 9 to 14) (size 15 to 20)
#    0.000    0.000    3.333    5.000    4.667    2.667 
#    0.000    0.000    0.000    0.000    0.000    0.000 
#    0.000    0.000    0.000    0.000    0.000    0.000 
#
# Total GULP energy -133623.470435 kJ/mol
# GULP energy per Si atom -5567.644601 kJ/mol
# Density = 2.699183 g / cm^3
# Si number density = 27.053402 Si / 1000 Ang^3
#
#
#
# Elastic Constant Matrix: (Units=GPa)
#
#
# Indices 1 2 3 4 5 6 
#
# 1 152.3092 74.9735 40.2165 0.0000 0.0000 0.0000
# 2 74.9735 75.3433 51.0444 0.0000 0.0000 0.0000
# 3 40.2165 51.0444 123.2635 0.0000 0.0000 0.0000
# 4 0.0000 0.0000 0.0000 20.1531 0.0000 0.0000
# 5 0.0000 0.0000 0.0000 0.0000 50.4546 0.0000
# 6 0.0000 0.0000 0.0000 0.0000 0.0000 47.8405
#
#
#
# Elastic Compliance Matrix: (Units=1/GPa)
#
#
# Indices 1 2 3 4 5 6 
#
# 1 0.013082 -0.014075 0.001560 0.000000 0.000000 0.000000
# 2 -0.014075 0.033591 -0.009318 0.000000 0.000000 0.000000
# 3 0.001560 -0.009318 0.011462 0.000000 0.000000 0.000000
# 4 0.000000 0.000000 0.000000 0.049620 0.000000 0.000000
# 5 0.000000 0.000000 0.000000 0.000000 0.019820 0.000000
# 6 0.000000 0.000000 0.000000 0.000000 0.000000 0.020903
#
#
# Mechanical properties :
#
#
# Convention : Reuss Voigt Hill
#
# Bulk Modulus (GPa) = 69.10819 75.93166 72.51993
# Shear Modulus (GPa) = 25.38495 36.00175 30.69335
#
# Velocity S-wave (km/s) = 3.06654 3.65192 3.37196
# Velocity P-wave (km/s) = 6.17566 6.77572 6.48263
#
# Compressibility (1/GPa) = 0.01447006
#
# Stress axis : x y z
#
# Youngs Moduli (GPa) = 76.44203 29.76959 87.24151
#
# Poissons Ratio (x) = 0.41900 -0.13613
# Poissons Ratio (y) = 1.07590 0.81295
# Poissons Ratio (z) = -0.11927 0.27740
#
# Static dielectric constant tensor:
#      x y z
#    x 1.994690 0.000000 0.000000 
#    y 0.000000 2.482210 0.000000 
#    z 0.000000 0.000000 2.339010 
# 
# From -- ./inp_files/11413.got.cif
#   From: 2010.05.17/outbox.cif.g08.bks.cpg/sg73_6_cif.got.tgz:11413.got - 2010.06.03 17:35:07.
