data_PCOD9533354
_publ_section_title
;
Structure prediction by ZEFSAII (Michael W. Deem and Ramdas Pophale) SiO2 
 PCOD9533354
Probable space group: I B C A 
;
_chemical_formula_sum "Si O2"
_cell_formula_units_Z 64
_cell_length_a 18.979474
_cell_length_b 11.537370
_cell_length_c 11.844083
_cell_angle_alpha 90.000000
_cell_angle_beta 90.000000
_cell_angle_gamma 90.000000
_cell_volume 2593.536921
_symmetry_space_group_name_H-M "I B C A "
_symmetry_group_IT_number 73
_symmetry_cell_setting 'orthorhombic'
loop_
_space_group_symop_operation_xyz
x,y,z
-x,1/2-y,z
x,-y,1/2-z
1/2-x,y,-z
-x,-y,-z
x,1/2+y,-z
-x,y,1/2+z
1/2+x,-y,z
1/2+x,1/2+y,1/2+z
1/2-x,-y,1/2+z
1/2+x,1/2-y,-z
-x,1/2+y,1/2-z
1/2-x,1/2-y,1/2-z
1/2+x,y,1/2-z
1/2-x,1/2+y,z
x,1/2-y,1/2+z
loop_
_atom_site_type_symbol
_atom_site_label
_atom_site_fract_x
_atom_site_fract_y
_atom_site_fract_z
Si Si1 0.900229 0.578241 0.355931
Si Si2 0.827747 0.693103 0.757765
Si Si3 0.828073 0.592727 0.983799
Si Si4 0.428842 0.793730 0.435872
O O1 0.925297 0.500000 0.250000
O O2 0.871718 0.695815 0.302039
O O3 0.838814 0.511092 0.426787
O O4 0.948592 0.620576 0.460557
O O5 0.750000 0.750000 0.750000
O O6 0.830640 0.591055 0.848933
O O7 0.869185 0.656010 0.645727
O O8 0.750000 0.643726 0.000000
O O9 0.889364 0.680924 0.017287
O O10 0.500000 0.750000 0.377636
#
# Coordination Sequence:
#
# PCOD9533354 Si02
#       4
#    16  16  16  16
#     4  11  24  45  72 104 146 188 246 299 362 436
#     4  11  23  45  71 103 147 193 240 306 362 430
#     4  11  23  43  72 108 140 189 247 297 365 436
#     4  11  26  46  74 105 149 194 240 308 369 432
#
# _framework density 24.676727
#
# number of rings (size 3 to 8) (size 9 to 14) (size 15 to 20)
#    0.000    1.000    5.000    0.000    3.500    6.000 
#    0.000    0.000    0.000    0.000    0.000    0.000 
#    0.000    0.000    0.000    0.000    0.000    0.000 
#
# Total GULP energy -178459.655508 kJ/mol
# GULP energy per Si atom -5576.864235 kJ/mol
# Density = 2.462056 g / cm^3
# Si number density = 24.676727 Si / 1000 Ang^3
#
#
#
# Elastic Constant Matrix: (Units=GPa)
#
#
# Indices 1 2 3 4 5 6 
#
# 1 118.2873 19.2265 23.6960 0.0000 0.0000 0.0000
# 2 19.2265 93.1313 39.3291 0.0000 0.0000 0.0000
# 3 23.6960 39.3291 159.9442 0.0000 0.0000 0.0000
# 4 0.0000 0.0000 0.0000 46.0916 0.0000 0.0000
# 5 0.0000 0.0000 0.0000 0.0000 19.4126 0.0000
# 6 0.0000 0.0000 0.0000 0.0000 0.0000 13.3720
#
#
#
# Elastic Compliance Matrix: (Units=1/GPa)
#
#
# Indices 1 2 3 4 5 6 
#
# 1 0.008879 -0.001426 -0.000965 0.000000 0.000000 0.000000
# 2 -0.001426 0.012211 -0.002791 0.000000 0.000000 0.000000
# 3 -0.000965 -0.002791 0.007081 0.000000 0.000000 0.000000
# 4 0.000000 0.000000 0.000000 0.021696 0.000000 0.000000
# 5 0.000000 0.000000 0.000000 0.000000 0.051513 0.000000
# 6 0.000000 0.000000 0.000000 0.000000 0.000000 0.074783
#
#
# Mechanical properties :
#
#
# Convention : Reuss Voigt Hill
#
# Bulk Modulus (GPa) = 56.15590 59.54069 57.84830
# Shear Modulus (GPa) = 25.97912 35.04932 30.51422
#
# Velocity S-wave (km/s) = 3.24817 3.77283 3.52029
# Velocity P-wave (km/s) = 6.07236 6.56960 6.32587
#
# Compressibility (1/GPa) = 0.01780757
#
# Stress axis : x y z
#
# Youngs Moduli (GPa) = 112.62530 81.89622 141.21323
#
# Poissons Ratio (x) = 0.11675 0.13626
# Poissons Ratio (y) = 0.16055 0.39417
# Poissons Ratio (z) = 0.10867 0.22860
#
# Static dielectric constant tensor:
#      x y z
#    x 1.911160 0.000000 0.000000 
#    y 0.000000 1.978800 0.000000 
#    z 0.000000 0.000000 2.094540 
# 
# From -- ./inp_files/12459.got.cif
#   From: 2010.05.17/outbox.cif.g08.bks.cpg/sg73_7_cif.got.tgz:12459.got - 2010.06.03 17:35:07.
