data_PCOD9533482
_publ_section_title
;
Structure prediction by ZEFSAII (Michael W. Deem and Ramdas Pophale) SiO2 
 PCOD9533482
Probable space group: I B C A 
;
_chemical_formula_sum "Si O2"
_cell_formula_units_Z 56
_cell_length_a 9.099148
_cell_length_b 19.136646
_cell_length_c 14.226570
_cell_angle_alpha 90.000000
_cell_angle_beta 90.000000
_cell_angle_gamma 90.000000
_cell_volume 2477.232432
_symmetry_space_group_name_H-M "I B C A "
_symmetry_group_IT_number 73
_symmetry_cell_setting 'orthorhombic'
loop_
_space_group_symop_operation_xyz
x,y,z
-x,1/2-y,z
x,-y,1/2-z
1/2-x,y,-z
-x,-y,-z
x,1/2+y,-z
-x,y,1/2+z
1/2+x,-y,z
1/2+x,1/2+y,1/2+z
1/2-x,-y,1/2+z
1/2+x,1/2-y,-z
-x,1/2+y,1/2-z
1/2-x,1/2-y,1/2-z
1/2+x,y,1/2-z
1/2-x,1/2+y,z
x,1/2-y,1/2+z
loop_
_atom_site_type_symbol
_atom_site_label
_atom_site_fract_x
_atom_site_fract_y
_atom_site_fract_z
Si Si1 0.723915 0.918303 0.835688
Si Si2 0.750000 0.651493 0.000000
Si Si3 0.835195 0.737335 0.655265
Si Si4 0.429032 0.942315 0.134099
O O1 0.696391 0.841591 0.876836
O O2 0.664334 0.918876 0.727301
O O3 0.897501 0.936308 0.843437
O O4 0.625479 0.978527 0.883121
O O5 0.802875 0.703731 0.079963
O O6 0.623723 0.604210 0.046850
O O7 0.750000 0.750000 0.750000
O O8 0.000000 0.750000 0.683271
#
# Coordination Sequence:
#
# PCOD9533482 Si02
#       4
#    16   8  16  16
#     4  11  24  47  78 104 151 203 243 309 374 438
#     4  12  30  44  74 116 148 188 260 308 368 458
#     4  12  28  48  79 108 152 196 249 309 383 443
#     4  11  25  46  77 109 147 197 258 301 372 448
#
# _framework density 22.605872000000002
#
# number of rings (size 3 to 8) (size 9 to 14) (size 15 to 20)
#    0.000    0.571    2.857    5.143    8.000    2.286 
#    0.000    0.000    0.000    0.000    0.000    0.000 
#    0.000    0.000    0.000    0.000    0.000    0.000 
#
# Total GULP energy -156766.932410 kJ/mol
# GULP energy per Si atom -5598.819015 kJ/mol
# Density = 2.255442 g / cm^3
# Si number density = 22.605872 Si / 1000 Ang^3
#
#
#
# Elastic Constant Matrix: (Units=GPa)
#
#
# Indices 1 2 3 4 5 6 
#
# 1 240.1223 84.4614 63.6569 0.0000 0.0000 0.0000
# 2 84.4614 210.2405 56.8043 0.0000 0.0000 0.0000
# 3 63.6569 56.8043 104.0839 0.0001 0.0000 0.0000
# 4 0.0000 0.0000 0.0001 54.9267 0.0000 0.0000
# 5 0.0000 0.0000 0.0000 0.0000 5.3854 0.0000
# 6 0.0000 0.0000 0.0000 0.0000 0.0000 26.3438
#
#
#
# Elastic Compliance Matrix: (Units=1/GPa)
#
#
# Indices 1 2 3 4 5 6 
#
# 1 0.005336 -0.001480 -0.002456 0.000000 0.000000 0.000000
# 2 -0.001480 0.005990 -0.002364 0.000000 0.000000 0.000000
# 3 -0.002456 -0.002364 0.012400 0.000000 0.000000 0.000000
# 4 0.000000 0.000000 0.000000 0.018206 0.000000 0.000000
# 5 0.000000 0.000000 0.000000 0.000000 0.185688 0.000000
# 6 0.000000 0.000000 0.000000 0.000000 0.000000 0.037960
#
#
# Mechanical properties :
#
#
# Convention : Reuss Voigt Hill
#
# Bulk Modulus (GPa) = 89.87752 107.14354 98.51053
# Shear Modulus (GPa) = 17.73757 40.63277 29.18517
#
# Velocity S-wave (km/s) = 2.80419 4.24423 3.59701
# Velocity P-wave (km/s) = 7.09432 8.45678 7.80534
#
# Compressibility (1/GPa) = 0.01112625
#
# Stress axis : x y z
#
# Youngs Moduli (GPa) = 187.39802 166.95182 80.64834
#
# Poissons Ratio (x) = 0.24713 0.19805
# Poissons Ratio (y) = 0.27740 0.19062
# Poissons Ratio (z) = 0.46020 0.39461
#
# Static dielectric constant tensor:
#      x y z
#    x 1.801430 0.000000 0.000000 
#    y 0.000000 1.873160 0.000000 
#    z 0.000000 0.000000 5.144360 
# 
# From -- ./inp_files/5853.got.cif
#   From: 2010.05.17/outbox.cif.g08.bks.cpg/sg73_3_cif.got.tgz:5853.got - 2010.06.03 17:35:07.
