data_PCOD9533230
_publ_section_title
;
Structure prediction by ZEFSAII (Michael W. Deem and Ramdas Pophale) SiO2 
 PCOD9533230
Probable space group: I B C A 
;
_chemical_formula_sum "Si O2"
_cell_formula_units_Z 88
_cell_length_a 21.964320
_cell_length_b 9.287583
_cell_length_c 21.593399
_cell_angle_alpha 90.000000
_cell_angle_beta 90.000000
_cell_angle_gamma 90.000000
_cell_volume 4404.955039
_symmetry_space_group_name_H-M "I B C A "
_symmetry_group_IT_number 73
_symmetry_cell_setting 'orthorhombic'
loop_
_space_group_symop_operation_xyz
x,y,z
-x,1/2-y,z
x,-y,1/2-z
1/2-x,y,-z
-x,-y,-z
x,1/2+y,-z
-x,y,1/2+z
1/2+x,-y,z
1/2+x,1/2+y,1/2+z
1/2-x,-y,1/2+z
1/2+x,1/2-y,-z
-x,1/2+y,1/2-z
1/2-x,1/2-y,1/2-z
1/2+x,y,1/2-z
1/2-x,1/2+y,z
x,1/2-y,1/2+z
loop_
_atom_site_type_symbol
_atom_site_label
_atom_site_fract_x
_atom_site_fract_y
_atom_site_fract_z
Si Si1 0.170486 0.031755 0.822465
Si Si2 0.250000 0.338687 0.000000
Si Si3 0.457476 0.867657 0.517155
Si Si4 0.278194 0.225474 0.869928
Si Si5 0.430350 0.281488 0.621458
Si Si6 0.351608 0.983221 0.909524
O O1 0.215810 0.164222 0.840681
O O2 0.104979 0.082947 0.848943
O O3 0.166863 0.000000 0.750000
O O4 0.197739 0.881943 0.849700
O O5 0.274997 0.241040 0.944522
O O6 0.197265 0.424634 0.961304
O O7 0.500000 0.750000 0.549625
O O8 0.434396 0.804156 0.452502
O O9 0.500000 0.000000 0.500000
O O10 0.401927 0.924055 0.555686
O O11 0.321780 0.089961 0.860057
O O12 0.500000 0.250000 0.642564
O O13 0.386891 0.143404 0.625739
#
# Coordination Sequence:
#
# PCOD9533230 Si02
#       6
#    16   8  16  16  16  16
#     4  12  26  48  69  96 131 185 234 282 335 401
#     4  12  22  40  66 102 144 164 210 276 354 412
#     4  11  22  38  62  97 140 181 211 265 340 420
#     4  12  25  41  69 101 137 172 219 281 347 411
#     4  11  23  44  64  92 134 175 227 281 333 399
#     4  12  23  39  62 102 136 176 212 268 343 419
#
# _framework density 19.977501
#
# number of rings (size 3 to 8) (size 9 to 14) (size 15 to 20)
#    0.000    0.364    7.273    3.273    2.545    0.000 
#    0.000    1.818    0.000    0.000    0.000    0.000 
#    0.000    0.000    0.000    0.000    0.000    0.000 
#
# Total GULP energy -245389.095693 kJ/mol
# GULP energy per Si atom -5577.024902 kJ/mol
# Density = 1.993203 g / cm^3
# Si number density = 19.977501 Si / 1000 Ang^3
#
#
#
# Elastic Constant Matrix: (Units=GPa)
#
#
# Indices 1 2 3 4 5 6 
#
# 1 139.6471 65.5774 11.0651 0.0000 0.0000 0.0000
# 2 65.5774 125.5282 13.0625 0.0000 0.0000 0.0000
# 3 11.0651 13.0625 51.3590 0.0000 0.0000 0.0000
# 4 0.0000 0.0000 0.0000 11.4525 0.0000 0.0000
# 5 0.0000 0.0000 0.0000 0.0000 12.7237 0.0000
# 6 0.0000 0.0000 0.0000 0.0000 0.0000 61.5998
#
#
#
# Elastic Compliance Matrix: (Units=1/GPa)
#
#
# Indices 1 2 3 4 5 6 
#
# 1 0.009521 -0.004890 -0.000808 0.000000 0.000000 0.000000
# 2 -0.004890 0.010694 -0.001666 0.000000 0.000000 0.000000
# 3 -0.000808 -0.001666 0.020069 0.000000 0.000000 0.000000
# 4 0.000000 0.000000 0.000000 0.087317 0.000000 0.000000
# 5 0.000000 0.000000 0.000000 0.000000 0.078594 0.000000
# 6 0.000000 0.000000 0.000000 0.000000 0.000000 0.016234
#
#
# Mechanical properties :
#
#
# Convention : Reuss Voigt Hill
#
# Bulk Modulus (GPa) = 39.12955 55.10493 47.11724
# Shear Modulus (GPa) = 20.35206 32.27714 26.31460
#
# Velocity S-wave (km/s) = 3.19525 4.02391 3.63328
# Velocity P-wave (km/s) = 5.76560 7.01659 6.42163
#
# Compressibility (1/GPa) = 0.02555613
#
# Stress axis : x y z
#
# Youngs Moduli (GPa) = 105.02891 93.50765 49.82903
#
# Poissons Ratio (x) = 0.45725 0.04024
# Poissons Ratio (y) = 0.51359 0.08304
# Poissons Ratio (z) = 0.08482 0.15583
#
# Static dielectric constant tensor:
#      x y z
#    x 1.780620 0.000000 0.000000 
#    y 0.000000 1.753990 0.000000 
#    z 0.000000 0.000000 1.643970 
# 
# From -- ./inp_files/27194.got.cif
#   From: 2010.05.17/outbox.cif.g08.bks.cpg/sg73_14_cif.got.tgz:27194.got - 2010.06.03 17:35:07.
