data_PCOD9533341
_publ_section_title
;
Structure prediction by ZEFSAII (Michael W. Deem and Ramdas Pophale) SiO2 
 PCOD9533341
Probable space group: I B C A 
;
_chemical_formula_sum "Si O2"
_cell_formula_units_Z 96
_cell_length_a 21.461612
_cell_length_b 16.762955
_cell_length_c 11.271082
_cell_angle_alpha 90.000000
_cell_angle_beta 90.000000
_cell_angle_gamma 90.000000
_cell_volume 4054.884868
_symmetry_space_group_name_H-M "I B C A "
_symmetry_group_IT_number 73
_symmetry_cell_setting 'orthorhombic'
loop_
_space_group_symop_operation_xyz
x,y,z
-x,1/2-y,z
x,-y,1/2-z
1/2-x,y,-z
-x,-y,-z
x,1/2+y,-z
-x,y,1/2+z
1/2+x,-y,z
1/2+x,1/2+y,1/2+z
1/2-x,-y,1/2+z
1/2+x,1/2-y,-z
-x,1/2+y,1/2-z
1/2-x,1/2-y,1/2-z
1/2+x,y,1/2-z
1/2-x,1/2+y,z
x,1/2-y,1/2+z
loop_
_atom_site_type_symbol
_atom_site_label
_atom_site_fract_x
_atom_site_fract_y
_atom_site_fract_z
Si Si1 0.611739 0.285165 0.487759
Si Si2 0.892138 0.049791 0.406946
Si Si3 0.165112 0.609070 0.303946
Si Si4 0.988597 0.154554 0.840894
Si Si5 0.789421 0.322127 0.308903
Si Si6 0.103442 0.376430 0.634490
O O1 0.631122 0.314923 0.358083
O O2 0.556825 0.336790 0.545501
O O3 0.669453 0.294248 0.578877
O O4 0.592961 0.194702 0.461598
O O5 0.840163 0.102612 0.337460
O O6 0.889514 0.048830 0.548444
O O7 0.956004 0.092222 0.365312
O O8 0.874416 0.962844 0.359616
O O9 0.236585 0.613493 0.342331
O O10 0.952256 0.121985 0.726757
O O11 0.000000 0.250000 0.814998
O O12 0.750000 0.250000 0.250000
O O13 0.835563 0.358201 0.211181
#
# Coordination Sequence:
#
# PCOD9533341 Si02
#       6
#    16  16  16  16  16  16
#     4  11  23  42  72 107 142 188 243 308 366 420
#     4  11  26  46  67 102 144 193 236 292 372 432
#     4  11  25  46  66 101 146 187 239 295 368 433
#     4  11  24  41  71 107 142 184 247 307 354 437
#     4  11  23  43  73 106 141 182 249 306 354 430
#     4  11  24  43  73 105 139 188 246 297 365 428
#
# _framework density 23.675149000000001
#
# number of rings (size 3 to 8) (size 9 to 14) (size 15 to 20)
#    0.000    1.000    3.333    2.500    4.667    2.667 
#   15.000    1.667    0.000    0.000    0.000    0.000 
#    0.000    0.000    0.000    0.000    0.000    0.000 
#
# Total GULP energy -268309.188999 kJ/mol
# GULP energy per Si atom -5589.774771 kJ/mol
# Density = 2.362126 g / cm^3
# Si number density = 23.675149 Si / 1000 Ang^3
#
#
#
# Elastic Constant Matrix: (Units=GPa)
#
#
# Indices 1 2 3 4 5 6 
#
# 1 118.0847 41.4053 16.0234 0.0000 0.0000 0.0000
# 2 41.4053 58.1776 2.9729 0.0000 0.0000 0.0000
# 3 16.0234 2.9729 71.8327 0.0000 0.0000 0.0000
# 4 0.0000 0.0000 0.0000 33.4720 0.0000 0.0000
# 5 0.0000 0.0000 0.0000 0.0000 20.1082 0.0000
# 6 0.0000 0.0000 0.0000 0.0000 0.0000 28.4709
#
#
#
# Elastic Compliance Matrix: (Units=1/GPa)
#
#
# Indices 1 2 3 4 5 6 
#
# 1 0.011639 -0.008168 -0.002258 0.000000 0.000000 0.000000
# 2 -0.008168 0.022957 0.000872 0.000000 0.000000 0.000000
# 3 -0.002258 0.000872 0.014389 0.000000 0.000000 0.000000
# 4 0.000000 0.000000 0.000000 0.029876 0.000000 0.000000
# 5 0.000000 0.000000 0.000000 0.000000 0.049731 0.000000
# 6 0.000000 0.000000 0.000000 0.000000 0.000000 0.035124
#
#
# Mechanical properties :
#
#
# Convention : Reuss Voigt Hill
#
# Bulk Modulus (GPa) = 33.47117 40.98870 37.22994
# Shear Modulus (GPa) = 25.93586 28.92312 27.42949
#
# Velocity S-wave (km/s) = 3.31341 3.49903 3.40748
# Velocity P-wave (km/s) = 5.36718 5.80300 5.58934
#
# Compressibility (1/GPa) = 0.02987645
#
# Stress axis : x y z
#
# Youngs Moduli (GPa) = 85.91798 43.55877 69.49813
#
# Poissons Ratio (x) = 0.35579 0.15694
# Poissons Ratio (y) = 0.70179 -0.06059
# Poissons Ratio (z) = 0.19402 -0.03798
#
# Static dielectric constant tensor:
#      x y z
#    x 1.918740 0.000000 0.000000 
#    y 0.000000 1.976930 0.000000 
#    z 0.000000 0.000000 1.921800 
# 
# From -- ./inp_files/13620.got.cif
#   From: 2010.05.17/outbox.cif.g08.bks.cpg/sg73_7_cif.got.tgz:13620.got - 2010.06.03 17:35:07.
