data_PCOD9533814
_publ_section_title
;
Structure prediction by ZEFSAII (Michael W. Deem and Ramdas Pophale) SiO2 
 PCOD9533814
Probable space group: I M M A
;
_chemical_formula_sum "Si O2"
_cell_formula_units_Z 96
_cell_length_a 28.266723
_cell_length_b 20.028559
_cell_length_c 7.255596
_cell_angle_alpha 90.000000
_cell_angle_beta 90.000000
_cell_angle_gamma 90.000000
_cell_volume 4107.695667
_symmetry_space_group_name_H-M "I M M A"
_symmetry_group_IT_number 74
_symmetry_cell_setting 'orthorhombic'
loop_
_space_group_symop_operation_xyz
x,y,z
-x,1/2-y,z
x,-y,-z
-x,1/2+y,-z
-x,-y,-z
x,1/2+y,-z
-x,y,z
x,1/2-y,z
1/2+x,1/2+y,1/2+z
1/2-x,-y,1/2+z
1/2+x,1/2-y,1/2-z
1/2-x,y,1/2-z
1/2-x,1/2-y,1/2-z
1/2+x,y,1/2-z
1/2-x,1/2+y,1/2+z
1/2+x,-y,1/2+z
loop_
_atom_site_type_symbol
_atom_site_label
_atom_site_fract_x
_atom_site_fract_y
_atom_site_fract_z
Si Si1 0.054078 0.985079 0.777062
Si Si2 0.626402 0.250000 0.824189
Si Si3 0.365492 0.895822 0.635918
Si Si4 0.881927 0.395728 0.691982
Si Si5 0.276157 0.883454 0.078765
Si Si6 0.769373 0.250000 0.486872
Si Si7 0.342242 0.750000 0.583611
Si Si8 0.796417 0.500000 0.000000
O O1 0.087933 0.921141 0.761514
O O2 0.000000 0.975601 0.722368
O O3 0.079226 0.046990 0.674491
O O4 0.054373 0.000000 0.000000
O O5 0.604456 0.321404 0.875303
O O6 0.681565 0.250000 0.888273
O O7 0.627367 0.250000 0.602692
O O8 0.372466 0.893605 0.413357
O O9 0.353264 0.819782 0.683847
O O10 0.328667 0.958675 0.646331
O O11 0.829375 0.407657 0.610217
O O12 0.250000 0.844167 0.250000
O O13 0.275689 0.827219 0.923840
O O14 0.239316 0.942514 0.059795
O O15 0.712047 0.250000 0.479625
#
# Coordination Sequence:
#
# PCOD9533814 Si02
#       8
#    16   8  16  16  16   8   8   8
#     4   9  16  27  42  57  78 110 143 176 210 251
#     4   8  15  20  35  56  79 107 132 166 199 255
#     4  10  16  26  37  57  81 107 139 170 208 253
#     4   9  15  26  38  56  83 108 137 168 206 252
#     4  11  17  25  39  61  87 114 142 175 210 263
#     4  10  15  22  38  58  82 112 143 170 215 262
#     4  10  15  22  35  52  79 109 134 168 211 247
#     4  12  18  24  39  62  89 114 140 172 212 258
#
# _framework density 23.370768000000002
#
# number of rings (size 3 to 8) (size 9 to 14) (size 15 to 20)
#    0.000    2.167    5.833    2.500    0.000    0.000 
#    0.000    0.833    0.000    5.000    0.000   11.083 
#    0.000    0.000    0.000    0.000    0.000    0.000 
#
# Total GULP energy -267315.852905 kJ/mol
# GULP energy per Si atom -5569.080269 kJ/mol
# Density = 2.331757 g / cm^3
# Si number density = 23.370768 Si / 1000 Ang^3
#
#
#
# Elastic Constant Matrix: (Units=GPa)
#
#
# Indices 1 2 3 4 5 6 
#
# 1 178.0486 113.5541 20.0188 0.0000 0.0000 0.0000
# 2 113.5541 244.1418 23.7736 0.0000 0.0000 0.0000
# 3 20.0188 23.7736 57.6694 0.0000 0.0000 0.0000
# 4 0.0000 0.0000 0.0000 -6.7487 0.0000 0.0000
# 5 0.0000 0.0000 0.0000 0.0000 17.9500 0.0000
# 6 0.0000 0.0000 0.0000 0.0000 0.0000 30.6928
#
#
#
# Elastic Compliance Matrix: (Units=1/GPa)
#
#
# Indices 1 2 3 4 5 6 
#
# 1 0.008079 -0.003630 -0.001308 0.000000 0.000000 0.000000
# 2 -0.003630 0.005899 -0.001171 0.000000 0.000000 0.000000
# 3 -0.001308 -0.001171 0.018277 0.000000 0.000000 0.000000
# 4 0.000000 0.000000 0.000000 -0.148178 0.000000 0.000000
# 5 0.000000 0.000000 0.000000 0.000000 0.055710 0.000000
# 6 0.000000 0.000000 0.000000 0.000000 0.000000 0.032581
#
#
# Mechanical properties :
#
#
# Convention : Reuss Voigt Hill
#
# Bulk Modulus (GPa) = 49.91174 88.28367 69.09771
# Shear Modulus (GPa) = -572.42594 29.87971 -271.27311
#
# Velocity S-wave (km/s) = -15.66730 3.57950 -10.78544
# Velocity P-wave (km/s) = 17.48950 7.41222 11.20138
#
# Compressibility (1/GPa) = 0.02003536
#
# Stress axis : x y z
#
# Youngs Moduli (GPa) = 123.78209 169.53451 54.71315
#
# Poissons Ratio (x) = 0.61544 0.07156
# Poissons Ratio (y) = 0.44935 0.06409
# Poissons Ratio (z) = 0.16189 0.19860
#
# Static dielectric constant tensor:
#      x y z
#    x 1.824020 0.000000 0.000000 
#    y 0.000000 1.937940 0.000000 
#    z 0.000000 0.000000 2.291770 
# 
# From -- ./inp_files/25344.got.cif
#   From: 2010.05.17/outbox.cif.g08.bks.cpg/sg74_13_cif.got.tgz:25344.got - 2010.06.03 17:57:02.
