data_PCOD9533577
_publ_section_title
;
Structure prediction by ZEFSAII (Michael W. Deem and Ramdas Pophale) SiO2 
 PCOD9533577
Probable space group: I B C A 
;
_chemical_formula_sum "Si O2"
_cell_formula_units_Z 104
_cell_length_a 17.463020
_cell_length_b 19.503312
_cell_length_c 13.324305
_cell_angle_alpha 90.000000
_cell_angle_beta 90.000000
_cell_angle_gamma 90.000000
_cell_volume 4538.081436
_symmetry_space_group_name_H-M "I B C A "
_symmetry_group_IT_number 73
_symmetry_cell_setting 'orthorhombic'
loop_
_space_group_symop_operation_xyz
x,y,z
-x,1/2-y,z
x,-y,1/2-z
1/2-x,y,-z
-x,-y,-z
x,1/2+y,-z
-x,y,1/2+z
1/2+x,-y,z
1/2+x,1/2+y,1/2+z
1/2-x,-y,1/2+z
1/2+x,1/2-y,-z
-x,1/2+y,1/2-z
1/2-x,1/2-y,1/2-z
1/2+x,y,1/2-z
1/2-x,1/2+y,z
x,1/2-y,1/2+z
loop_
_atom_site_type_symbol
_atom_site_label
_atom_site_fract_x
_atom_site_fract_y
_atom_site_fract_z
Si Si1 0.452882 0.135367 0.500454
Si Si2 0.663125 0.000000 0.750000
Si Si3 0.102787 0.396136 0.399868
Si Si4 0.750000 0.858804 0.000000
Si Si5 0.299835 0.252201 0.328552
Si Si6 0.500000 0.750000 0.660206
Si Si7 0.598015 0.260331 0.677541
Si Si8 0.192920 0.598429 0.409729
O O1 0.524171 0.094642 0.543678
O O2 0.483232 0.185707 0.412797
O O3 0.414464 0.181790 0.590317
O O4 0.391191 0.084952 0.452771
O O5 0.611267 0.056018 0.695516
O O6 0.713421 0.043752 0.826172
O O7 0.179626 0.404481 0.463669
O O8 0.103829 0.316244 0.368395
O O9 0.718699 0.809695 0.088897
O O10 0.400349 0.267827 0.306871
O O11 0.301596 0.264891 0.203703
O O12 0.311572 0.175058 0.366940
O O13 0.500000 0.250000 0.711875
O O14 0.250000 0.597643 0.500000
#
# Coordination Sequence:
#
# PCOD9533577 Si02
#       8
#    16   8  16   8  16   8  16  16
#     4  12  24  42  71 108 139 178 230 288 363 407
#     4  12  28  50  72  90 140 196 238 278 350 408
#     4  12  24  44  68  99 138 185 227 280 337 418
#     4  12  24  42  70 108 140 170 226 288 356 410
#     4  12  21  37  69 104 138 172 219 283 355 411
#     4  12  18  34  66 100 142 180 196 276 358 424
#     4  12  21  37  65 106 137 173 224 278 352 411
#     4  12  26  46  72  98 138 186 234 290 341 417
#
# _framework density 22.917172000000001
#
# number of rings (size 3 to 8) (size 9 to 14) (size 15 to 20)
#    0.000    0.000    8.462    2.769    1.077    0.615 
#    0.000    0.769    0.000    0.000    0.000    0.000 
#    0.000    0.000    0.000    0.000    0.000    0.000 
#
# Total GULP energy -290424.762752 kJ/mol
# GULP energy per Si atom -5585.091591 kJ/mol
# Density = 2.286501 g / cm^3
# Si number density = 22.917172 Si / 1000 Ang^3
#
#
#
# Elastic Constant Matrix: (Units=GPa)
#
#
# Indices 1 2 3 4 5 6 
#
# 1 158.0664 11.9818 48.1756 0.0000 0.0000 0.0000
# 2 11.9818 36.4086 16.7635 0.0000 0.0000 0.0000
# 3 48.1756 16.7635 111.9325 0.0000 0.0000 0.0000
# 4 0.0000 0.0000 0.0000 31.8048 0.0000 0.0000
# 5 0.0000 0.0000 0.0000 0.0000 62.0140 0.0000
# 6 0.0000 0.0000 0.0000 0.0000 0.0000 -4.5155
#
#
#
# Elastic Compliance Matrix: (Units=1/GPa)
#
#
# Indices 1 2 3 4 5 6 
#
# 1 0.007317 -0.001029 -0.002995 0.000000 0.000000 0.000000
# 2 -0.001029 0.029645 -0.003997 0.000000 0.000000 0.000000
# 3 -0.002995 -0.003997 0.010822 0.000000 0.000000 0.000000
# 4 0.000000 0.000000 0.000000 0.031442 0.000000 0.000000
# 5 0.000000 0.000000 0.000000 0.000000 0.016125 0.000000
# 6 0.000000 0.000000 0.000000 0.000000 0.000000 -0.221458
#
#
# Mechanical properties :
#
#
# Convention : Reuss Voigt Hill
#
# Bulk Modulus (GPa) = 31.50426 51.13883 41.32155
# Shear Modulus (GPa) = -50.25956 33.15976 -8.54990
#
# Velocity S-wave (km/s) = -4.68813 3.80799 -1.93362
# Velocity P-wave (km/s) = 3.94055 6.45736 3.61729
#
# Compressibility (1/GPa) = 0.03174174
#
# Stress axis : x y z
#
# Youngs Moduli (GPa) = 136.66131 33.73251 92.40683
#
# Poissons Ratio (x) = 0.03471 0.27678
# Poissons Ratio (y) = 0.14062 0.36934
# Poissons Ratio (z) = 0.40934 0.13483
#
# Static dielectric constant tensor:
#      x y z
#    x 2.499690 0.000000 0.000000 
#    y 0.000000 1.724680 0.000000 
#    z 0.000000 0.000000 1.841120 
# 
# From -- ./inp_files/18166.got.cif
#   From: 2010.05.17/outbox.cif.g08.bks.cpg/sg73_10_cif.got.tgz:18166.got - 2010.06.03 17:35:07.
