data_PCOD9533216
_publ_section_title
;
Structure prediction by ZEFSAII (Michael W. Deem and Ramdas Pophale) SiO2 
 PCOD9533216
Probable space group: I B C A 
;
_chemical_formula_sum "Si O2"
_cell_formula_units_Z 112
_cell_length_a 14.847125
_cell_length_b 13.704725
_cell_length_c 24.304329
_cell_angle_alpha 90.000000
_cell_angle_beta 90.000000
_cell_angle_gamma 90.000000
_cell_volume 4945.341940
_symmetry_space_group_name_H-M "I B C A "
_symmetry_group_IT_number 73
_symmetry_cell_setting 'orthorhombic'
loop_
_space_group_symop_operation_xyz
x,y,z
-x,1/2-y,z
x,-y,1/2-z
1/2-x,y,-z
-x,-y,-z
x,1/2+y,-z
-x,y,1/2+z
1/2+x,-y,z
1/2+x,1/2+y,1/2+z
1/2-x,-y,1/2+z
1/2+x,1/2-y,-z
-x,1/2+y,1/2-z
1/2-x,1/2-y,1/2-z
1/2+x,y,1/2-z
1/2-x,1/2+y,z
x,1/2-y,1/2+z
loop_
_atom_site_type_symbol
_atom_site_label
_atom_site_fract_x
_atom_site_fract_y
_atom_site_fract_z
Si Si1 0.652862 0.859149 0.164168
Si Si2 0.899921 0.720376 0.220091
Si Si3 0.166682 0.565723 0.199186
Si Si4 0.341047 0.181527 0.029881
Si Si5 0.646611 0.521434 0.086885
Si Si6 0.525721 0.144717 0.430756
Si Si7 0.284116 0.685042 0.377806
O O1 0.601708 0.825928 0.219375
O O2 0.728879 0.934991 0.182400
O O3 0.591800 0.899491 0.115090
O O4 0.708399 0.765643 0.139946
O O5 0.850096 0.824417 0.218478
O O6 0.843792 0.659020 0.175425
O O7 0.000000 0.750000 0.202844
O O8 0.143917 0.500000 0.250000
O O9 0.116869 0.524503 0.145638
O O10 0.349668 0.258157 0.079615
O O11 0.325015 0.073054 0.052870
O O12 0.250000 0.214687 0.000000
O O13 0.421142 0.170526 0.986429
O O14 0.562453 0.579517 0.061269
O O15 0.728257 0.596620 0.096287
O O16 0.500000 0.250000 0.405771
#
# Coordination Sequence:
#
# PCOD9533216 Si02
#       7
#    16  16  16  16  16  16  16
#     4  11  21  45  70  95 140 184 232 281 349 434
#     4  11  24  43  70 106 141 183 228 293 359 429
#     4  11  23  43  67 104 140 179 235 288 351 426
#     4  12  24  48  67 103 140 180 244 293 348 425
#     4  12  24  45  72 102 138 188 235 294 356 421
#     4  12  25  43  72 101 139 189 234 294 356 419
#     4  11  23  47  73  97 141 188 231 288 362 417
#
# _framework density 22.647573000000001
#
# number of rings (size 3 to 8) (size 9 to 14) (size 15 to 20)
#    0.000    0.571    5.714    4.286    2.000    2.286 
#    7.714    0.000    0.000    0.000    0.000    0.000 
#    0.000    0.000    0.000    0.000    0.000    0.000 
#
# Total GULP energy -313207.619865 kJ/mol
# GULP energy per Si atom -5592.993212 kJ/mol
# Density = 2.259603 g / cm^3
# Si number density = 22.647573 Si / 1000 Ang^3
#
#
#
# Elastic Constant Matrix: (Units=GPa)
#
#
# Indices 1 2 3 4 5 6 
#
# 1 66.9380 -2.2122 26.3701 0.0000 0.0000 0.0000
# 2 -2.2122 42.2350 13.3276 0.0000 0.0000 0.0000
# 3 26.3701 13.3276 107.5798 0.0000 0.0000 0.0000
# 4 0.0000 0.0000 0.0000 -40.6271 0.0000 0.0000
# 5 0.0000 0.0000 0.0000 0.0000 -31.8907 0.0000
# 6 0.0000 0.0000 0.0000 0.0000 0.0000 20.5774
#
#
#
# Elastic Compliance Matrix: (Units=1/GPa)
#
#
# Indices 1 2 3 4 5 6 
#
# 1 0.016741 0.002260 -0.004384 0.000000 0.000000 0.000000
# 2 0.002260 0.024945 -0.003644 0.000000 0.000000 0.000000
# 3 -0.004384 -0.003644 0.010821 0.000000 0.000000 0.000000
# 4 0.000000 0.000000 0.000000 -0.024614 0.000000 0.000000
# 5 0.000000 0.000000 0.000000 0.000000 -0.031357 0.000000
# 6 0.000000 0.000000 0.000000 0.000000 0.000000 0.048597
#
#
# Mechanical properties :
#
#
# Convention : Reuss Voigt Hill
#
# Bulk Modulus (GPa) = 24.40688 32.41375 28.41032
# Shear Modulus (GPa) = 71.09709 1.56307 36.33008
#
# Velocity S-wave (km/s) = 5.60901 0.83167 4.00953
# Velocity P-wave (km/s) = 7.26279 3.90711 5.83154
#
# Compressibility (1/GPa) = 0.04097205
#
# Stress axis : x y z
#
# Youngs Moduli (GPa) = 59.73441 40.08746 92.40946
#
# Poissons Ratio (x) = -0.09060 0.40508
# Poissons Ratio (y) = -0.13501 0.33678
# Poissons Ratio (z) = 0.26185 0.14609
#
# Static dielectric constant tensor:
#      x y z
#    x 1.908820 0.000000 0.000000 
#    y 0.000000 2.296260 0.000000 
#    z 0.000000 0.000000 1.847330 
# 
# From -- ./inp_files/29520.got.cif
#   From: 2010.05.17/outbox.cif.g08.bks.cpg/sg73_15_cif.got.tgz:29520.got - 2010.06.03 17:35:07.
