data_PCOD9533489
_publ_section_title
;
Structure prediction by ZEFSAII (Michael W. Deem and Ramdas Pophale) SiO2 
 PCOD9533489
Probable space group: I B C A 
;
_chemical_formula_sum "Si O2"
_cell_formula_units_Z 112
_cell_length_a 23.549868
_cell_length_b 14.764799
_cell_length_c 14.689426
_cell_angle_alpha 90.000000
_cell_angle_beta 90.000000
_cell_angle_gamma 90.000000
_cell_volume 5107.646617
_symmetry_space_group_name_H-M "I B C A "
_symmetry_group_IT_number 73
_symmetry_cell_setting 'orthorhombic'
loop_
_space_group_symop_operation_xyz
x,y,z
-x,1/2-y,z
x,-y,1/2-z
1/2-x,y,-z
-x,-y,-z
x,1/2+y,-z
-x,y,1/2+z
1/2+x,-y,z
1/2+x,1/2+y,1/2+z
1/2-x,-y,1/2+z
1/2+x,1/2-y,-z
-x,1/2+y,1/2-z
1/2-x,1/2-y,1/2-z
1/2+x,y,1/2-z
1/2-x,1/2+y,z
x,1/2-y,1/2+z
loop_
_atom_site_type_symbol
_atom_site_label
_atom_site_fract_x
_atom_site_fract_y
_atom_site_fract_z
Si Si1 0.390939 0.257290 0.305463
Si Si2 0.020387 0.645834 0.055026
Si Si3 0.362231 0.057587 0.011635
Si Si4 0.174915 0.096809 0.795798
Si Si5 0.307364 0.421306 0.317981
Si Si6 0.511191 0.600624 0.745077
Si Si7 0.426068 0.889980 0.075406
O O1 0.363928 0.174505 0.248261
O O2 0.342401 0.330680 0.307096
O O3 0.445621 0.315501 0.271680
O O4 0.404196 0.210572 0.402545
O O5 0.000000 0.750000 0.047113
O O6 0.021702 0.619837 0.160932
O O7 0.077058 0.610459 0.004340
O O8 0.966904 0.597281 0.010009
O O9 0.323722 0.051304 0.921948
O O10 0.332507 0.105333 0.096080
O O11 0.376255 0.958967 0.053659
O O12 0.242978 0.099975 0.787660
O O13 0.157816 0.000000 0.750000
O O14 0.327070 0.500000 0.250000
O O15 0.538484 0.500000 0.750000
O O16 0.466400 0.593882 0.662776
#
# Coordination Sequence:
#
# PCOD9533489 Si02
#       7
#    16  16  16  16  16  16  16
#     4  12  25  44  74 105 146 188 235 305 365 435
#     4  12  25  41  66 101 142 187 233 288 357 439
#     4  12  24  45  74 101 142 193 239 297 371 431
#     4  11  24  49  76 102 139 186 247 305 367 435
#     4  11  27  48  74 105 141 186 247 315 372 429
#     4  12  25  42  68 104 151 191 238 289 359 446
#     4  12  25  43  67 105 143 187 242 287 353 445
#
# _framework density 21.927907999999999
#
# number of rings (size 3 to 8) (size 9 to 14) (size 15 to 20)
#    0.000    0.286    2.857    7.286    4.000    0.000 
#    0.000    0.000    3.143    0.000    0.000    0.000 
#    0.000    0.000    0.000    0.000    0.000    0.000 
#
# Total GULP energy -312686.876135 kJ/mol
# GULP energy per Si atom -5583.694217 kJ/mol
# Density = 2.187800 g / cm^3
# Si number density = 21.927908 Si / 1000 Ang^3
#
#
#
# Elastic Constant Matrix: (Units=GPa)
#
#
# Indices 1 2 3 4 5 6 
#
# 1 80.1069 51.1100 10.3115 0.0000 0.0000 0.0000
# 2 51.1100 159.2375 37.2124 0.0000 0.0000 0.0000
# 3 10.3115 37.2124 96.1144 0.0000 0.0000 0.0000
# 4 0.0000 0.0000 0.0000 28.1850 0.0000 0.0000
# 5 0.0000 0.0000 0.0000 0.0000 29.0361 0.0000
# 6 0.0000 0.0000 0.0000 0.0000 0.0000 49.1756
#
#
#
# Elastic Compliance Matrix: (Units=1/GPa)
#
#
# Indices 1 2 3 4 5 6 
#
# 1 0.015706 -0.005109 0.000293 0.000000 0.000000 0.000000
# 2 -0.005109 0.008567 -0.002769 0.000000 0.000000 0.000000
# 3 0.000293 -0.002769 0.011445 0.000000 0.000000 0.000000
# 4 0.000000 0.000000 0.000000 0.035480 0.000000 0.000000
# 5 0.000000 0.000000 0.000000 0.000000 0.034440 0.000000
# 6 0.000000 0.000000 0.000000 0.000000 0.000000 0.020335
#
#
# Mechanical properties :
#
#
# Convention : Reuss Voigt Hill
#
# Bulk Modulus (GPa) = 48.66787 59.19183 53.92985
# Shear Modulus (GPa) = 33.78579 37.06765 35.42672
#
# Velocity S-wave (km/s) = 3.92952 4.11595 4.02381
# Velocity P-wave (km/s) = 6.54453 7.04560 6.79968
#
# Compressibility (1/GPa) = 0.02054744
#
# Stress axis : x y z
#
# Youngs Moduli (GPa) = 63.67183 116.72803 87.37642
#
# Poissons Ratio (x) = 0.59642 -0.02563
# Poissons Ratio (y) = 0.32533 0.24192
# Poissons Ratio (z) = -0.01867 0.32318
#
# Static dielectric constant tensor:
#      x y z
#    x 1.846610 0.000000 0.000000 
#    y 0.000000 1.861610 0.000000 
#    z 0.000000 0.000000 1.862120 
# 
# From -- ./inp_files/19424.got.cif
#   From: 2010.05.17/outbox.cif.g08.bks.cpg/sg73_10_cif.got.tgz:19424.got - 2010.06.03 17:35:07.
