data_PCOD9533654
_publ_section_title
;
Structure prediction by ZEFSAII (Michael W. Deem and Ramdas Pophale) SiO2 
 PCOD9533654
Probable space group: I B C A 
;
_chemical_formula_sum "Si O2"
_cell_formula_units_Z 40
_cell_length_a 12.329122
_cell_length_b 13.710220
_cell_length_c 8.660432
_cell_angle_alpha 90.000000
_cell_angle_beta 90.000000
_cell_angle_gamma 90.000000
_cell_volume 1463.915907
_symmetry_space_group_name_H-M "I B C A "
_symmetry_group_IT_number 73
_symmetry_cell_setting 'orthorhombic'
loop_
_space_group_symop_operation_xyz
x,y,z
-x,1/2-y,z
x,-y,1/2-z
1/2-x,y,-z
-x,-y,-z
x,1/2+y,-z
-x,y,1/2+z
1/2+x,-y,z
1/2+x,1/2+y,1/2+z
1/2-x,-y,1/2+z
1/2+x,1/2-y,-z
-x,1/2+y,1/2-z
1/2-x,1/2-y,1/2-z
1/2+x,y,1/2-z
1/2-x,1/2+y,z
x,1/2-y,1/2+z
loop_
_atom_site_type_symbol
_atom_site_label
_atom_site_fract_x
_atom_site_fract_y
_atom_site_fract_z
Si Si1 0.962353 0.610401 0.470175
Si Si2 0.338746 0.833548 0.216170
Si Si3 0.192591 0.500000 0.750000
O O1 0.901538 0.648104 0.622091
O O2 0.877761 0.582549 0.335385
O O3 0.000000 0.500000 0.500000
O O4 0.065499 0.672512 0.410608
O O5 0.250000 0.750000 0.250000
O O6 0.275580 0.930153 0.161819
#
# Coordination Sequence:
#
# PCOD9533654 Si02
#       3
#    16  16   8
#     4  12  24  56  87 119 178 231 296 364 441 537
#     4  12  29  54  88 133 173 235 299 369 446 533
#     4  12  24  52  88 124 174 232 290 372 450 522
#
# _framework density 27.323974
#
# number of rings (size 3 to 8) (size 9 to 14) (size 15 to 20)
#    0.000    0.000    8.000    1.200    0.000    1.600 
#   21.600    2.000    0.000    0.000    0.000    0.000 
#    0.000    0.000    0.000    0.000    0.000    0.000 
#
# Total GULP energy -111888.218756 kJ/mol
# GULP energy per Si atom -5594.410938 kJ/mol
# Density = 2.726178 g / cm^3
# Si number density = 27.323974 Si / 1000 Ang^3
#
#
#
# Elastic Constant Matrix: (Units=GPa)
#
#
# Indices 1 2 3 4 5 6 
#
# 1 205.8153 89.2796 91.6700 0.0000 0.0000 0.0000
# 2 89.2796 131.9948 33.5785 0.0000 0.0000 0.0000
# 3 91.6700 33.5785 156.2601 0.0000 0.0000 0.0000
# 4 0.0000 0.0000 0.0000 37.1715 0.0000 0.0000
# 5 0.0000 0.0000 0.0000 0.0000 37.3280 0.0000
# 6 0.0000 0.0000 0.0000 0.0000 0.0000 98.2652
#
#
#
# Elastic Compliance Matrix: (Units=1/GPa)
#
#
# Indices 1 2 3 4 5 6 
#
# 1 0.008831 -0.004924 -0.004123 0.000000 0.000000 0.000000
# 2 -0.004924 0.010760 0.000577 0.000000 0.000000 0.000000
# 3 -0.004123 0.000577 0.008694 0.000000 0.000000 0.000000
# 4 0.000000 0.000000 0.000000 0.026902 0.000000 0.000000
# 5 0.000000 0.000000 0.000000 0.000000 0.026790 0.000000
# 6 0.000000 0.000000 0.000000 0.000000 0.000000 0.010177
#
#
# Mechanical properties :
#
#
# Convention : Reuss Voigt Hill
#
# Bulk Modulus (GPa) = 88.14615 102.56960 95.35787
# Shear Modulus (GPa) = 44.29638 53.18908 48.74273
#
# Velocity S-wave (km/s) = 4.03072 4.41682 4.22818
# Velocity P-wave (km/s) = 7.34792 7.97690 7.66886
#
# Compressibility (1/GPa) = 0.01134480
#
# Stress axis : x y z
#
# Youngs Moduli (GPa) = 113.23666 92.93505 115.01993
#
# Poissons Ratio (x) = 0.45766 0.47417
# Poissons Ratio (y) = 0.55763 -0.06633
# Poissons Ratio (z) = 0.46682 -0.05360
#
# Static dielectric constant tensor:
#      x y z
#    x 2.822110 0.000000 0.000000 
#    y 0.000000 2.438890 0.000000 
#    z 0.000000 0.000000 1.947360 
# 
# From -- ./inp_files/3648.got.cif
#   From: 2010.05.17/outbox.cif.g08.bks.cpg/sg73_2_cif.got.tgz:3648.got - 2010.06.03 17:35:07.
