data_PCOD9533155
_publ_section_title
;
Structure prediction by ZEFSAII (Michael W. Deem and Ramdas Pophale) SiO2 
 PCOD9533155
Probable space group: I B C A 
;
_chemical_formula_sum "Si O2"
_cell_formula_units_Z 104
_cell_length_a 18.895465
_cell_length_b 16.334731
_cell_length_c 15.040806
_cell_angle_alpha 90.000000
_cell_angle_beta 90.000000
_cell_angle_gamma 90.000000
_cell_volume 4642.379936
_symmetry_space_group_name_H-M "I B C A "
_symmetry_group_IT_number 73
_symmetry_cell_setting 'orthorhombic'
loop_
_space_group_symop_operation_xyz
x,y,z
-x,1/2-y,z
x,-y,1/2-z
1/2-x,y,-z
-x,-y,-z
x,1/2+y,-z
-x,y,1/2+z
1/2+x,-y,z
1/2+x,1/2+y,1/2+z
1/2-x,-y,1/2+z
1/2+x,1/2-y,-z
-x,1/2+y,1/2-z
1/2-x,1/2-y,1/2-z
1/2+x,y,1/2-z
1/2-x,1/2+y,z
x,1/2-y,1/2+z
loop_
_atom_site_type_symbol
_atom_site_label
_atom_site_fract_x
_atom_site_fract_y
_atom_site_fract_z
Si Si1 0.774300 0.349068 0.102756
Si Si2 0.062004 0.612936 0.680438
Si Si3 0.750000 0.414573 0.500000
Si Si4 0.672683 0.522426 0.349255
Si Si5 0.071135 0.074531 0.126282
Si Si6 0.329977 0.283504 0.098745
Si Si7 0.063659 0.863710 0.556830
O O1 0.726334 0.402890 0.166945
O O2 0.852933 0.380717 0.115460
O O3 0.746045 0.257608 0.118584
O O4 0.750000 0.366466 0.000000
O O5 0.037433 0.601441 0.781140
O O6 0.079260 0.523447 0.637994
O O7 0.129557 0.672473 0.678549
O O8 0.000991 0.652027 0.621680
O O9 0.718509 0.464152 0.415239
O O10 0.686390 0.356316 0.531368
O O11 0.649131 0.500000 0.250000
O O12 0.607389 0.558766 0.404907
O O13 0.033750 0.107467 0.038149
O O14 0.381730 0.212928 0.059258
#
# Coordination Sequence:
#
# PCOD9533155 Si02
#       7
#    16  16   8  16  16  16  16
#     4  11  20  44  66  96 142 172 212 282 353 393
#     4  11  26  41  71 100 133 175 244 270 329 417
#     4  12  22  42  68 110 134 172 236 282 346 418
#     4  11  24  39  72 100 135 175 227 286 335 402
#     4  11  23  44  72  98 130 182 223 289 340 388
#     4  11  23  43  67  98 140 178 217 283 341 416
#     4  11  23  50  64  93 146 179 221 280 338 403
#
# _framework density 22.402303
#
# number of rings (size 3 to 8) (size 9 to 14) (size 15 to 20)
#    0.000    0.923    4.615    2.769    6.462    0.615 
#    8.308    1.538    0.000    0.000    0.000    0.000 
#    0.000    0.000    0.000    0.000    0.000    0.000 
#
# Total GULP energy -290189.178479 kJ/mol
# GULP energy per Si atom -5580.561125 kJ/mol
# Density = 2.235131 g / cm^3
# Si number density = 22.402303 Si / 1000 Ang^3
#
#
#
# Elastic Constant Matrix: (Units=GPa)
#
#
# Indices 1 2 3 4 5 6 
#
# 1 59.1199 10.9432 18.1617 0.0000 0.0000 0.0000
# 2 10.9432 94.1348 49.9200 0.0000 0.0000 0.0000
# 3 18.1617 49.9200 129.8175 0.0000 0.0000 0.0000
# 4 0.0000 0.0000 0.0000 -4.5005 0.0000 0.0000
# 5 0.0000 0.0000 0.0000 0.0000 15.2966 0.0000
# 6 0.0000 0.0000 0.0000 0.0000 0.0000 -5.1425
#
#
#
# Elastic Compliance Matrix: (Units=1/GPa)
#
#
# Indices 1 2 3 4 5 6 
#
# 1 0.017740 -0.000937 -0.002121 0.000000 0.000000 0.000000
# 2 -0.000937 0.013394 -0.005019 0.000000 0.000000 0.000000
# 3 -0.002121 -0.005019 0.009930 0.000000 0.000000 0.000000
# 4 0.000000 0.000000 0.000000 -0.222198 0.000000 0.000000
# 5 0.000000 0.000000 0.000000 0.000000 0.065374 0.000000
# 6 0.000000 0.000000 0.000000 0.000000 0.000000 -0.194458
#
#
# Mechanical properties :
#
#
# Convention : Reuss Voigt Hill
#
# Bulk Modulus (GPa) = 40.14814 49.01355 44.58084
# Shear Modulus (GPa) = -17.49725 14.73387 -1.38169
#
# Velocity S-wave (km/s) = -2.79775 2.56734 -0.78619
# Velocity P-wave (km/s) = 2.74295 5.54207 4.37255
#
# Compressibility (1/GPa) = 0.02490776
#
# Stress axis : x y z
#
# Youngs Moduli (GPa) = 56.36984 74.66147 100.70447
#
# Poissons Ratio (x) = 0.06998 0.21364
# Poissons Ratio (y) = 0.05283 0.50547
# Poissons Ratio (z) = 0.11958 0.37475
#
# Static dielectric constant tensor:
#      x y z
#    x 1.859190 0.000000 0.000000 
#    y 0.000000 1.852560 0.000000 
#    z 0.000000 0.000000 1.879030 
# 
# From -- ./inp_files/18821.got.cif
#   From: 2010.05.17/outbox.cif.g08.bks.cpg/sg73_10_cif.got.tgz:18821.got - 2010.06.03 17:35:07.
