data_PCOD9533839
_publ_section_title
;
Structure prediction by ZEFSAII (Michael W. Deem and Ramdas Pophale) SiO2 
 PCOD9533839
Probable space group: I M M A
;
_chemical_formula_sum "Si O2"
_cell_formula_units_Z 68
_cell_length_a 14.661319
_cell_length_b 9.970339
_cell_length_c 27.730997
_cell_angle_alpha 90.000000
_cell_angle_beta 90.000000
_cell_angle_gamma 90.000000
_cell_volume 4053.670570
_symmetry_space_group_name_H-M "I M M A"
_symmetry_group_IT_number 74
_symmetry_cell_setting 'orthorhombic'
loop_
_space_group_symop_operation_xyz
x,y,z
-x,1/2-y,z
x,-y,-z
-x,1/2+y,-z
-x,-y,-z
x,1/2+y,-z
-x,y,z
x,1/2-y,z
1/2+x,1/2+y,1/2+z
1/2-x,-y,1/2+z
1/2+x,1/2-y,1/2-z
1/2-x,y,1/2-z
1/2-x,1/2-y,1/2-z
1/2+x,y,1/2-z
1/2-x,1/2+y,1/2+z
1/2+x,-y,1/2+z
loop_
_atom_site_type_symbol
_atom_site_label
_atom_site_fract_x
_atom_site_fract_y
_atom_site_fract_z
Si Si1 0.704978 0.750000 0.160117
Si Si2 0.301452 0.489610 0.296368
Si Si3 0.608338 0.250000 0.473207
Si Si4 0.848812 0.250000 0.917925
Si Si5 0.000000 0.750000 0.324391
Si Si6 0.500000 0.098619 0.730991
Si Si7 0.104459 0.547174 0.889609
O O1 0.741463 0.879029 0.189782
O O2 0.752484 0.750000 0.108582
O O3 0.597586 0.750000 0.151679
O O4 0.250000 0.427052 0.250000
O O5 0.404711 0.531634 0.282224
O O6 0.323721 0.418046 0.347348
O O7 0.500000 0.250000 0.484137
O O8 0.655606 0.250000 0.524622
O O9 0.627324 0.377362 0.439188
O O10 0.894148 0.112357 0.899319
O O11 0.000000 0.876430 0.288075
O O12 0.500000 0.250000 0.709392
O O13 0.000000 0.585593 0.876713
#
# Coordination Sequence:
#
# PCOD9533839 Si02
#       7
#     8  16   8   8   4   8  16
#     4  10  18  26  42  70 101 127 158 195 245 291
#     4  11  17  27  41  70  97 130 161 191 231 289
#     4  10  20  36  47  68  99 128 158 202 249 291
#     4  10  20  30  51  73  93 123 162 199 238 298
#     4  10  16  26  40  68 102 136 146 198 246 284
#     4  10  16  22  44  61  99 139 148 188 241 279
#     4  10  20  30  49  71  98 128 160 196 241 289
#
# _framework density 16.774919000000001
#
# number of rings (size 3 to 8) (size 9 to 14) (size 15 to 20)
#    0.353    1.412    4.706    2.118    0.000    1.882 
#    0.000    0.588    0.000    0.000    0.000   14.824 
#    0.000    0.000    0.000    0.000    0.000    0.000 
#
# Total GULP energy -189319.134142 kJ/mol
# GULP energy per Si atom -5568.209828 kJ/mol
# Density = 1.673674 g / cm^3
# Si number density = 16.774919 Si / 1000 Ang^3
#
#
#
# Elastic Constant Matrix: (Units=GPa)
#
#
# Indices 1 2 3 4 5 6 
#
# 1 117.3136 10.9092 46.0677 0.0000 0.0000 0.0000
# 2 10.9092 50.4087 16.7226 0.0000 0.0000 0.0000
# 3 46.0677 16.7226 131.6756 0.0000 0.0000 0.0000
# 4 0.0000 0.0000 0.0000 43.6649 0.0000 0.0000
# 5 0.0000 0.0000 0.0000 0.0000 25.0166 0.0000
# 6 0.0000 0.0000 0.0000 0.0000 0.0000 2.5572
#
#
#
# Elastic Compliance Matrix: (Units=1/GPa)
#
#
# Indices 1 2 3 4 5 6 
#
# 1 0.009934 -0.001041 -0.003343 0.000000 0.000000 0.000000
# 2 -0.001041 0.020819 -0.002280 0.000000 0.000000 0.000000
# 3 -0.003343 -0.002280 0.009054 0.000000 0.000000 0.000000
# 4 0.000000 0.000000 0.000000 0.022902 0.000000 0.000000
# 5 0.000000 0.000000 0.000000 0.000000 0.039974 0.000000
# 6 0.000000 0.000000 0.000000 0.000000 0.000000 0.391058
#
#
# Mechanical properties :
#
#
# Convention : Reuss Voigt Hill
#
# Bulk Modulus (GPa) = 37.76573 49.64410 43.70492
# Shear Modulus (GPa) = 9.69191 29.29428 19.49309
#
# Velocity S-wave (km/s) = 2.40628 4.18343 3.41257
# Velocity P-wave (km/s) = 5.50294 7.27964 6.45273
#
# Compressibility (1/GPa) = 0.02647903
#
# Stress axis : x y z
#
# Youngs Moduli (GPa) = 100.66651 48.03210 110.45298
#
# Poissons Ratio (x) = 0.04999 0.36927
# Poissons Ratio (y) = 0.10477 0.25182
# Poissons Ratio (z) = 0.33655 0.10951
#
# Static dielectric constant tensor:
#      x y z
#    x 1.549920 0.000000 0.000000 
#    y 0.000000 1.619930 0.000000 
#    z 0.000000 0.000000 1.607910 
# 
# From -- ./inp_files/66869.got.cif
#   From: 2010.05.17/outbox.cif.g08.bks.cpg/sg74_34_cif.got.tgz:66869.got - 2010.06.03 17:57:02.
