data_PCOD9533204
_publ_section_title
;
Structure prediction by ZEFSAII (Michael W. Deem and Ramdas Pophale) SiO2 
 PCOD9533204
Probable space group: I B C A 
;
_chemical_formula_sum "Si O2"
_cell_formula_units_Z 64
_cell_length_a 12.141837
_cell_length_b 12.145111
_cell_length_c 18.012682
_cell_angle_alpha 90.000000
_cell_angle_beta 90.000000
_cell_angle_gamma 90.000000
_cell_volume 2656.221384
_symmetry_space_group_name_H-M "I B C A "
_symmetry_group_IT_number 73
_symmetry_cell_setting 'orthorhombic'
loop_
_space_group_symop_operation_xyz
x,y,z
-x,1/2-y,z
x,-y,1/2-z
1/2-x,y,-z
-x,-y,-z
x,1/2+y,-z
-x,y,1/2+z
1/2+x,-y,z
1/2+x,1/2+y,1/2+z
1/2-x,-y,1/2+z
1/2+x,1/2-y,-z
-x,1/2+y,1/2-z
1/2-x,1/2-y,1/2-z
1/2+x,y,1/2-z
1/2-x,1/2+y,z
x,1/2-y,1/2+z
loop_
_atom_site_type_symbol
_atom_site_label
_atom_site_fract_x
_atom_site_fract_y
_atom_site_fract_z
Si Si1 0.500000 0.250000 0.478065
Si Si2 0.689962 0.253198 0.102649
Si Si3 0.000000 0.250000 0.779421
Si Si4 0.750000 0.419440 0.500000
Si Si5 0.878372 0.068173 0.596311
Si Si6 0.038229 0.500000 0.750000
O O1 0.396037 0.256879 0.533805
O O2 0.521186 0.146631 0.425250
O O3 0.612515 0.241374 0.173041
O O4 0.765038 0.151982 0.074852
O O5 0.769948 0.356845 0.108580
O O6 0.987241 0.374604 0.745603
O O7 0.851836 0.494036 0.475233
O O8 0.899658 0.000587 0.670858
#
# Coordination Sequence:
#
# PCOD9533204 Si02
#       6
#     8  16   8   8  16   8
#     4  11  21  42  72 108 145 187 258 316 372 436
#     4  11  24  45  73 109 147 192 254 324 370 439
#     4  11  27  50  74 110 155 205 252 304 386 460
#     4  12  20  46  74 106 144 190 264 308 382 430
#     4  12  25  45  73 109 153 199 249 316 378 457
#     4  12  28  50  72 114 156 210 248 300 390 464
#
# _framework density 24.094377000000001
#
# number of rings (size 3 to 8) (size 9 to 14) (size 15 to 20)
#    0.000    0.500    7.500    0.750    0.000    5.000 
#    4.500    0.000    0.000    0.000    0.000    0.000 
#    0.000    0.000    0.000    0.000    0.000    0.000 
#
# Total GULP energy -178342.557386 kJ/mol
# GULP energy per Si atom -5573.204918 kJ/mol
# Density = 2.403954 g / cm^3
# Si number density = 24.094377 Si / 1000 Ang^3
#
#
#
# Elastic Constant Matrix: (Units=GPa)
#
#
# Indices 1 2 3 4 5 6 
#
# 1 93.8842 45.1140 33.6740 0.0000 0.0000 0.0000
# 2 45.1140 188.5292 58.7539 0.0000 0.0000 0.0000
# 3 33.6740 58.7539 96.7675 0.0000 0.0000 0.0000
# 4 0.0000 0.0000 0.0000 22.8446 0.0000 0.0000
# 5 0.0000 0.0000 0.0000 0.0000 26.9641 0.0000
# 6 0.0000 0.0000 0.0000 0.0000 0.0000 28.9334
#
#
#
# Elastic Compliance Matrix: (Units=1/GPa)
#
#
# Indices 1 2 3 4 5 6 
#
# 1 0.012790 -0.002064 -0.003198 0.000000 0.000000 0.000000
# 2 -0.002064 0.006875 -0.003456 0.000000 0.000000 0.000000
# 3 -0.003198 -0.003456 0.013545 0.000000 0.000000 0.000000
# 4 0.000000 0.000000 0.000000 0.043774 0.000000 0.000000
# 5 0.000000 0.000000 0.000000 0.000000 0.037086 0.000000
# 6 0.000000 0.000000 0.000000 0.000000 0.000000 0.034562
#
#
# Mechanical properties :
#
#
# Convention : Reuss Voigt Hill
#
# Bulk Modulus (GPa) = 63.39148 72.69609 68.04379
# Shear Modulus (GPa) = 29.18395 31.85769 30.52082
#
# Velocity S-wave (km/s) = 3.48406 3.64016 3.56296
# Velocity P-wave (km/s) = 6.52316 6.92131 6.72518
#
# Compressibility (1/GPa) = 0.01577499
#
# Stress axis : x y z
#
# Youngs Moduli (GPa) = 78.18494 145.44980 73.82687
#
# Poissons Ratio (x) = 0.30022 0.23607
# Poissons Ratio (y) = 0.16138 0.25515
# Poissons Ratio (z) = 0.25000 0.50269
#
# Static dielectric constant tensor:
#      x y z
#    x 2.003450 0.000000 0.000000 
#    y 0.000000 2.150930 0.000000 
#    z 0.000000 0.000000 1.891760 
# 
# From -- ./inp_files/9521.got.cif
#   From: 2010.05.17/outbox.cif.g08.bks.cpg/sg73_5_cif.got.tgz:9521.got - 2010.06.03 17:35:07.
