data_PCOD9533181
_publ_section_title
;
Structure prediction by ZEFSAII (Michael W. Deem and Ramdas Pophale) SiO2 
 PCOD9533181
Probable space group: I B C A 
;
_chemical_formula_sum "Si O2"
_cell_formula_units_Z 96
_cell_length_a 31.596929
_cell_length_b 29.709697
_cell_length_c 4.962557
_cell_angle_alpha 90.000000
_cell_angle_beta 90.000000
_cell_angle_gamma 90.000000
_cell_volume 4658.526872
_symmetry_space_group_name_H-M "I B C A "
_symmetry_group_IT_number 73
_symmetry_cell_setting 'orthorhombic'
loop_
_space_group_symop_operation_xyz
x,y,z
-x,1/2-y,z
x,-y,1/2-z
1/2-x,y,-z
-x,-y,-z
x,1/2+y,-z
-x,y,1/2+z
1/2+x,-y,z
1/2+x,1/2+y,1/2+z
1/2-x,-y,1/2+z
1/2+x,1/2-y,-z
-x,1/2+y,1/2-z
1/2-x,1/2-y,1/2-z
1/2+x,y,1/2-z
1/2-x,1/2+y,z
x,1/2-y,1/2+z
loop_
_atom_site_type_symbol
_atom_site_label
_atom_site_fract_x
_atom_site_fract_y
_atom_site_fract_z
Si Si1 0.279025 0.916455 0.749053
Si Si2 0.584715 0.901934 0.861965
Si Si3 0.898789 0.500000 0.750000
Si Si4 0.527237 0.817986 0.920151
Si Si5 0.837390 0.500000 0.250000
Si Si6 0.114643 0.723431 0.939361
Si Si7 0.636767 0.869615 0.342866
O O1 0.250000 0.901155 0.500000
O O2 0.306601 0.959521 0.665865
O O3 0.313923 0.881212 0.855405
O O4 0.250000 0.929282 0.000000
O O5 0.545846 0.868886 0.930349
O O6 0.611344 0.878092 0.619870
O O7 0.575429 0.953871 0.796318
O O8 0.614573 0.901972 0.123310
O O9 0.867693 0.489354 0.500698
O O10 0.512491 0.811280 0.615352
O O11 0.564556 0.786145 0.025855
O O12 0.126993 0.764377 0.743170
O O13 0.131397 0.679073 0.793165
#
# Coordination Sequence:
#
# PCOD9533181 Si02
#       7
#    16  16   8  16   8  16  16
#     4  12  23  37  58  89 128 163 199 255 318 366
#     4  11  21  39  61  85 119 170 212 245 295 361
#     4  12  20  37  62  85 118 166 220 256 282 351
#     4  11  23  39  60  90 126 153 185 245 309 363
#     4  12  22  37  56  91 126 158 206 268 302 355
#     4  11  23  40  65  92 114 151 197 246 302 369
#     4  11  22  41  61  85 123 162 207 250 304 375
#
# _framework density 20.607372000000002
#
# number of rings (size 3 to 8) (size 9 to 14) (size 15 to 20)
#    0.000    0.667    3.333    7.500    0.000    2.000 
#    0.000    0.833    0.000    3.000    0.000    0.000 
#    0.000    0.000    0.000    0.000    0.000    0.000 
#
# Total GULP energy -268143.299910 kJ/mol
# GULP energy per Si atom -5586.318748 kJ/mol
# Density = 2.056047 g / cm^3
# Si number density = 20.607372 Si / 1000 Ang^3
#
#
#
# Elastic Constant Matrix: (Units=GPa)
#
#
# Indices 1 2 3 4 5 6 
#
# 1 31.4498 6.0598 0.9523 0.0000 0.0000 0.0000
# 2 6.0598 84.3937 3.4069 0.0000 0.0000 0.0000
# 3 0.9523 3.4069 96.8358 0.0000 0.0000 0.0000
# 4 0.0000 0.0000 0.0000 26.8715 0.0000 0.0000
# 5 0.0000 0.0000 0.0000 0.0000 16.5452 0.0000
# 6 0.0000 0.0000 0.0000 0.0000 0.0000 15.7178
#
#
#
# Elastic Compliance Matrix: (Units=1/GPa)
#
#
# Indices 1 2 3 4 5 6 
#
# 1 0.032248 -0.002306 -0.000236 0.000000 0.000000 0.000000
# 2 -0.002306 0.012031 -0.000401 0.000000 0.000000 0.000000
# 3 -0.000236 -0.000401 0.010343 0.000000 0.000000 0.000000
# 4 0.000000 0.000000 0.000000 0.037214 0.000000 0.000000
# 5 0.000000 0.000000 0.000000 0.000000 0.060441 0.000000
# 6 0.000000 0.000000 0.000000 0.000000 0.000000 0.063622
#
#
# Mechanical properties :
#
#
# Convention : Reuss Voigt Hill
#
# Bulk Modulus (GPa) = 20.51823 25.94636 23.23229
# Shear Modulus (GPa) = 21.00575 25.31093 23.15834
#
# Velocity S-wave (km/s) = 3.19616 3.50844 3.35593
# Velocity P-wave (km/s) = 4.85788 5.38798 5.12978
#
# Compressibility (1/GPa) = 0.04873715
#
# Stress axis : x y z
#
# Youngs Moduli (GPa) = 31.00948 83.11877 96.68213
#
# Poissons Ratio (x) = 0.19167 0.02282
# Poissons Ratio (y) = 0.07151 0.03873
# Poissons Ratio (z) = 0.00732 0.03330
#
# Static dielectric constant tensor:
#      x y z
#    x 1.705460 0.000000 0.000000 
#    y 0.000000 1.812670 0.000000 
#    z 0.000000 0.000000 1.714740 
# 
# From -- ./inp_files/3222.got.cif
#   From: 2010.05.17/outbox.cif.g08.bks.cpg/sg73_2_cif.got.tgz:3222.got - 2010.06.03 17:35:07.
