data_PCOD9533800
_publ_section_title
;
Structure prediction by ZEFSAII (Michael W. Deem and Ramdas Pophale) SiO2 
 PCOD9533800
Probable space group: I M M A
;
_chemical_formula_sum "Si O2"
_cell_formula_units_Z 84
_cell_length_a 21.586238
_cell_length_b 23.994625
_cell_length_c 7.017149
_cell_angle_alpha 90.000000
_cell_angle_beta 90.000000
_cell_angle_gamma 90.000000
_cell_volume 3634.558190
_symmetry_space_group_name_H-M "I M M A"
_symmetry_group_IT_number 74
_symmetry_cell_setting 'orthorhombic'
loop_
_space_group_symop_operation_xyz
x,y,z
-x,1/2-y,z
x,-y,-z
-x,1/2+y,-z
-x,-y,-z
x,1/2+y,-z
-x,y,z
x,1/2-y,z
1/2+x,1/2+y,1/2+z
1/2-x,-y,1/2+z
1/2+x,1/2-y,1/2-z
1/2-x,y,1/2-z
1/2-x,1/2-y,1/2-z
1/2+x,y,1/2-z
1/2-x,1/2+y,1/2+z
1/2+x,-y,1/2+z
loop_
_atom_site_type_symbol
_atom_site_label
_atom_site_fract_x
_atom_site_fract_y
_atom_site_fract_z
Si Si1 0.500000 0.857983 0.630996
Si Si2 0.000000 0.750000 0.590023
Si Si3 0.365790 0.637810 0.567804
Si Si4 0.000000 0.067926 0.492504
Si Si5 0.743199 0.065279 0.473933
Si Si6 0.684521 0.750000 0.647574
Si Si7 0.127418 0.750000 0.446633
Si Si8 0.132168 0.124227 0.530830
O O1 0.500000 0.804157 0.772884
O O2 0.562914 0.857544 0.510606
O O3 0.500000 0.911542 0.771195
O O4 0.054936 0.750000 0.441451
O O5 0.324041 0.590105 0.478187
O O6 0.328151 0.694491 0.534056
O O7 0.369776 0.630217 0.798402
O O8 0.065287 0.094620 0.573763
O O9 0.000000 0.000000 0.500000
O O10 0.750000 0.079035 0.250000
O O11 0.805167 0.089631 0.568463
O O12 0.742904 0.000000 0.500000
O O13 0.750000 0.750000 0.750000
O O14 0.638234 0.750000 0.824577
O O15 0.145045 0.813059 0.388791
#
# Coordination Sequence:
#
# PCOD9533800 Si02
#       8
#     8   4  16   8  16   8   8  16
#     4  10  16  26  39  60  87 122 150 185 236 288
#     4  12  12  24  40  62  96 122 140 176 254 296
#     4   9  16  26  41  62  88 117 152 187 235 282
#     4  10  16  22  34  55  87 123 152 176 213 274
#     4  10  20  33  47  65  92 125 159 193 233 279
#     4  10  14  20  36  62  88 112 140 183 235 287
#     4  10  14  22  38  60  88 114 142 178 235 286
#     4   9  16  26  40  63  89 117 150 187 234 278
#
# _framework density 23.111474999999999
#
# number of rings (size 3 to 8) (size 9 to 14) (size 15 to 20)
#    0.000    2.286    5.714    3.429    0.000    0.000 
#    0.000    0.476    0.000    0.000    0.000    2.667 
#    0.000    0.000    0.000    5.524    0.000    0.000 
#
# Total GULP energy -234106.585215 kJ/mol
# GULP energy per Si atom -5573.966315 kJ/mol
# Density = 2.305887 g / cm^3
# Si number density = 23.111475 Si / 1000 Ang^3
#
#
#
# Elastic Constant Matrix: (Units=GPa)
#
#
# Indices 1 2 3 4 5 6 
#
# 1 200.2929 106.4380 -2.9874 0.0000 0.0000 0.0000
# 2 106.4380 225.2652 -0.9539 0.0000 0.0000 0.0000
# 3 -2.9874 -0.9539 76.2286 0.0000 0.0000 0.0000
# 4 0.0000 0.0000 0.0000 8.6468 0.0000 0.0000
# 5 0.0000 0.0000 0.0000 0.0000 4.5974 0.0000
# 6 0.0000 0.0000 0.0000 0.0000 0.0000 25.0819
#
#
#
# Elastic Compliance Matrix: (Units=1/GPa)
#
#
# Indices 1 2 3 4 5 6 
#
# 1 0.006670 -0.003151 0.000222 0.000000 0.000000 0.000000
# 2 -0.003151 0.005928 -0.000049 0.000000 0.000000 0.000000
# 3 0.000222 -0.000049 0.013127 0.000000 0.000000 0.000000
# 4 0.000000 0.000000 0.000000 0.115649 0.000000 0.000000
# 5 0.000000 0.000000 0.000000 0.000000 0.217516 0.000000
# 6 0.000000 0.000000 0.000000 0.000000 0.000000 0.039869
#
#
# Mechanical properties :
#
#
# Convention : Reuss Voigt Hill
#
# Bulk Modulus (GPa) = 50.58580 78.53112 64.55846
# Shear Modulus (GPa) = 12.15642 34.28456 23.22049
#
# Velocity S-wave (km/s) = 2.29594 3.85573 3.17317
# Velocity P-wave (km/s) = 5.38179 7.33997 6.43579
#
# Compressibility (1/GPa) = 0.01976840
#
# Stress axis : x y z
#
# Youngs Moduli (GPa) = 149.91646 168.69759 76.18163
#
# Poissons Ratio (x) = 0.53154 -0.01691
# Poissons Ratio (y) = 0.47236 0.00376
# Poissons Ratio (z) = -0.03328 0.00832
#
# Static dielectric constant tensor:
#      x y z
#    x 1.839320 0.000000 0.000000 
#    y 0.000000 1.877080 0.000000 
#    z 0.000000 0.000000 1.962240 
# 
# From -- ./inp_files/13869.got.cif
#   From: 2010.05.17/outbox.cif.g08.bks.cpg/sg74_7_cif.got.tgz:13869.got - 2010.06.03 17:57:02.
