data_PCOD9533184
_publ_section_title
;
Structure prediction by ZEFSAII (Michael W. Deem and Ramdas Pophale) SiO2 
 PCOD9533184
Probable space group: I B C A 
;
_chemical_formula_sum "Si O2"
_cell_formula_units_Z 120
_cell_length_a 19.272966
_cell_length_b 13.465391
_cell_length_c 22.286911
_cell_angle_alpha 90.000000
_cell_angle_beta 90.000000
_cell_angle_gamma 90.000000
_cell_volume 5783.855080
_symmetry_space_group_name_H-M "I B C A "
_symmetry_group_IT_number 73
_symmetry_cell_setting 'orthorhombic'
loop_
_space_group_symop_operation_xyz
x,y,z
-x,1/2-y,z
x,-y,1/2-z
1/2-x,y,-z
-x,-y,-z
x,1/2+y,-z
-x,y,1/2+z
1/2+x,-y,z
1/2+x,1/2+y,1/2+z
1/2-x,-y,1/2+z
1/2+x,1/2-y,-z
-x,1/2+y,1/2-z
1/2-x,1/2-y,1/2-z
1/2+x,y,1/2-z
1/2-x,1/2+y,z
x,1/2-y,1/2+z
loop_
_atom_site_type_symbol
_atom_site_label
_atom_site_fract_x
_atom_site_fract_y
_atom_site_fract_z
Si Si1 0.125440 0.849605 0.212816
Si Si2 0.336499 0.867595 0.323613
Si Si3 0.229722 0.000000 0.250000
Si Si4 0.485182 0.054735 0.167715
Si Si5 0.435517 0.011147 0.456994
Si Si6 0.922520 0.259957 0.540624
Si Si7 0.677407 0.633498 0.466728
Si Si8 0.053382 0.837934 0.332734
O O1 0.156506 0.748760 0.188524
O O2 0.178919 0.939702 0.205486
O O3 0.049826 0.875678 0.185191
O O4 0.113861 0.837374 0.284188
O O5 0.278189 0.923192 0.285446
O O6 0.411690 0.913726 0.303892
O O7 0.319115 0.875049 0.394647
O O8 0.461431 0.053825 0.098922
O O9 0.513943 0.942724 0.176211
O O10 0.368263 0.961599 0.485488
O O11 0.500000 0.000000 0.500000
O O12 0.418255 0.124731 0.440085
O O13 0.866734 0.226783 0.491892
O O14 0.921816 0.188561 0.599636
O O15 0.000000 0.250000 0.514421
O O16 0.750000 0.634373 0.500000
O O17 0.000000 0.750000 0.317785
#
# Coordination Sequence:
#
# PCOD9533184 Si02
#       8
#    16  16   8  16  16  16  16  16
#     4  12  26  45  73 102 137 187 235 299 355 422
#     4  11  29  47  69 105 142 188 232 299 351 426
#     4  12  28  48  68  96 146 190 236 278 364 436
#     4  11  22  43  70 106 133 177 237 287 351 409
#     4  11  22  41  73 105 137 180 234 294 348 422
#     4  11  22  42  72 105 135 186 237 294 350 432
#     4  11  27  47  68 101 146 185 235 295 361 424
#     4  11  21  39  73 106 133 178 235 293 352 417
#
# _framework density 20.747408
#
# number of rings (size 3 to 8) (size 9 to 14) (size 15 to 20)
#    0.000    0.800    5.333    1.600    7.467    1.600 
#    4.800    0.000    0.000    0.000    0.000    0.000 
#    0.000    0.000    0.000    0.000    0.000    0.000 
#
# Total GULP energy -335002.203493 kJ/mol
# GULP energy per Si atom -5583.370058 kJ/mol
# Density = 2.070019 g / cm^3
# Si number density = 20.747408 Si / 1000 Ang^3
#
#
#
# Elastic Constant Matrix: (Units=GPa)
#
#
# Indices 1 2 3 4 5 6 
#
# 1 142.0516 31.7431 42.4387 0.0000 0.0000 0.0000
# 2 31.7431 87.1620 22.5443 0.0000 0.0000 0.0000
# 3 42.4387 22.5443 51.5925 0.0000 0.0000 0.0000
# 4 0.0000 0.0000 0.0000 28.0866 0.0000 0.0000
# 5 0.0000 0.0000 0.0000 0.0000 27.4943 0.0000
# 6 0.0000 0.0000 0.0000 0.0000 0.0000 35.0372
#
#
#
# Elastic Compliance Matrix: (Units=1/GPa)
#
#
# Indices 1 2 3 4 5 6 
#
# 1 0.009534 -0.001628 -0.007131 0.000000 0.000000 0.000000
# 2 -0.001628 0.013213 -0.004435 0.000000 0.000000 0.000000
# 3 -0.007131 -0.004435 0.027186 0.000000 0.000000 0.000000
# 4 0.000000 0.000000 0.000000 0.035604 0.000000 0.000000
# 5 0.000000 0.000000 0.000000 0.000000 0.036371 0.000000
# 6 0.000000 0.000000 0.000000 0.000000 0.000000 0.028541
#
#
# Mechanical properties :
#
#
# Convention : Reuss Voigt Hill
#
# Bulk Modulus (GPa) = 42.46991 52.69534 47.58263
# Shear Modulus (GPa) = 27.07315 30.39562 28.73439
#
# Velocity S-wave (km/s) = 3.61625 3.83173 3.72555
# Velocity P-wave (km/s) = 6.16042 6.71043 6.44130
#
# Compressibility (1/GPa) = 0.02354608
#
# Stress axis : x y z
#
# Youngs Moduli (GPa) = 104.88929 75.68491 36.78318
#
# Poissons Ratio (x) = 0.12319 0.26230
# Poissons Ratio (y) = 0.17072 0.16312
# Poissons Ratio (z) = 0.74797 0.33564
#
# Static dielectric constant tensor:
#      x y z
#    x 1.760090 0.000000 0.000000 
#    y 0.000000 1.781490 0.000000 
#    z 0.000000 0.000000 1.777020 
# 
# From -- ./inp_files/32466.got.cif
#   From: 2010.05.17/outbox.cif.g08.bks.cpg/sg73_17_cif.got.tgz:32466.got - 2010.06.03 17:35:07.
