data_PCOD9533163
_publ_section_title
;
Structure prediction by ZEFSAII (Michael W. Deem and Ramdas Pophale) SiO2 
 PCOD9533163
Probable space group: I B C A 
;
_chemical_formula_sum "Si O2"
_cell_formula_units_Z 120
_cell_length_a 8.650397
_cell_length_b 25.572249
_cell_length_c 26.155579
_cell_angle_alpha 90.000000
_cell_angle_beta 90.000000
_cell_angle_gamma 90.000000
_cell_volume 5785.878404
_symmetry_space_group_name_H-M "I B C A "
_symmetry_group_IT_number 73
_symmetry_cell_setting 'orthorhombic'
loop_
_space_group_symop_operation_xyz
x,y,z
-x,1/2-y,z
x,-y,1/2-z
1/2-x,y,-z
-x,-y,-z
x,1/2+y,-z
-x,y,1/2+z
1/2+x,-y,z
1/2+x,1/2+y,1/2+z
1/2-x,-y,1/2+z
1/2+x,1/2-y,-z
-x,1/2+y,1/2-z
1/2-x,1/2-y,1/2-z
1/2+x,y,1/2-z
1/2-x,1/2+y,z
x,1/2-y,1/2+z
loop_
_atom_site_type_symbol
_atom_site_label
_atom_site_fract_x
_atom_site_fract_y
_atom_site_fract_z
Si Si1 0.682822 0.862586 0.146175
Si Si2 0.913968 0.006894 0.936817
Si Si3 0.910943 0.390695 0.030959
Si Si4 0.261597 0.544023 0.715725
Si Si5 0.514621 0.614332 0.753266
Si Si6 0.750000 0.093442 0.000000
Si Si7 0.350431 0.218169 0.207411
Si Si8 0.323329 0.533491 0.868084
O O1 0.610736 0.869229 0.089333
O O2 0.580434 0.878263 0.195577
O O3 0.746550 0.805409 0.161675
O O4 0.819131 0.906076 0.146639
O O5 0.075628 0.029690 0.918873
O O6 0.922991 0.954735 0.970819
O O7 0.849082 0.981789 0.884815
O O8 0.801693 0.052973 0.955237
O O9 0.087497 0.376604 0.012424
O O10 0.750000 0.377328 0.000000
O O11 0.178909 0.500000 0.750000
O O12 0.391530 0.568911 0.750308
O O13 0.145552 0.592628 0.707940
O O14 0.347211 0.513511 0.670933
O O15 0.428150 0.667480 0.766619
O O16 0.500000 0.250000 0.189173
O O17 0.250000 0.250000 0.250000
#
# Coordination Sequence:
#
# PCOD9533163 Si02
#       8
#    16  16  16  16  16   8  16  16
#     4  11  24  42  62  99 136 176 230 289 350 412
#     4  11  21  36  55  86 130 192 240 271 317 388
#     4  11  23  41  63  96 146 185 239 298 332 410
#     4  12  23  35  54  87 137 185 218 253 321 415
#     4  12  23  40  61  91 132 176 224 277 336 420
#     4  12  20  38  62  88 130 202 248 274 340 398
#     4  12  24  47  73  97 127 171 231 303 371 427
#     4  11  23  35  55  87 139 183 224 269 322 403
#
# _framework density 20.740151000000001
#
# number of rings (size 3 to 8) (size 9 to 14) (size 15 to 20)
#    0.000    0.533    6.000    4.000    3.733    0.000 
#    0.000    1.333    0.000    0.000    3.467    0.000 
#    0.000    0.000    0.000    0.000    0.000    0.000 
#
# Total GULP energy -334041.264175 kJ/mol
# GULP energy per Si atom -5567.354403 kJ/mol
# Density = 2.069295 g / cm^3
# Si number density = 20.740151 Si / 1000 Ang^3
#
#
#
# Elastic Constant Matrix: (Units=GPa)
#
#
# Indices 1 2 3 4 5 6 
#
# 1 118.0423 33.6382 38.8009 0.0000 0.0000 0.0000
# 2 33.6382 82.3958 38.0483 0.0000 0.0000 0.0000
# 3 38.8009 38.0483 88.2400 0.0000 0.0000 0.0000
# 4 0.0000 0.0000 0.0000 26.7075 0.0000 0.0000
# 5 0.0000 0.0000 0.0000 0.0000 32.6230 0.0000
# 6 0.0000 0.0000 0.0000 0.0000 0.0000 40.1979
#
#
#
# Elastic Compliance Matrix: (Units=1/GPa)
#
#
# Indices 1 2 3 4 5 6 
#
# 1 0.010347 -0.002651 -0.003407 0.000000 0.000000 0.000000
# 2 -0.002651 0.015833 -0.005661 0.000000 0.000000 0.000000
# 3 -0.003407 -0.005661 0.015272 0.000000 0.000000 0.000000
# 4 0.000000 0.000000 0.000000 0.037443 0.000000 0.000000
# 5 0.000000 0.000000 0.000000 0.000000 0.030653 0.000000
# 6 0.000000 0.000000 0.000000 0.000000 0.000000 0.024877
#
#
# Mechanical properties :
#
#
# Convention : Reuss Voigt Hill
#
# Bulk Modulus (GPa) = 55.51326 56.62808 56.07067
# Shear Modulus (GPa) = 30.51255 31.78506 31.14880
#
# Velocity S-wave (km/s) = 3.83976 3.91901 3.87959
# Velocity P-wave (km/s) = 6.81781 6.91672 6.86745
#
# Compressibility (1/GPa) = 0.01801371
#
# Stress axis : x y z
#
# Youngs Moduli (GPa) = 96.64877 63.15879 65.48011
#
# Poissons Ratio (x) = 0.16743 0.22306
# Poissons Ratio (y) = 0.25622 0.37071
# Poissons Ratio (z) = 0.32924 0.35757
#
# Static dielectric constant tensor:
#      x y z
#    x 1.822180 0.000000 0.000000 
#    y 0.000000 1.779730 0.000000 
#    z 0.000000 0.000000 1.910700 
# 
# From -- ./inp_files/33706.got.cif
#   From: 2010.05.17/outbox.cif.g08.bks.cpg/sg73_17_cif.got.tgz:33706.got - 2010.06.03 17:35:07.
