data_PCOD9533586
_publ_section_title
;
Structure prediction by ZEFSAII (Michael W. Deem and Ramdas Pophale) SiO2 
 PCOD9533586
Probable space group: I B C A 
;
_chemical_formula_sum "Si O2"
_cell_formula_units_Z 72
_cell_length_a 13.962405
_cell_length_b 12.716569
_cell_length_c 16.975513
_cell_angle_alpha 90.000000
_cell_angle_beta 90.000000
_cell_angle_gamma 90.000000
_cell_volume 3014.068310
_symmetry_space_group_name_H-M "I B C A "
_symmetry_group_IT_number 73
_symmetry_cell_setting 'orthorhombic'
loop_
_space_group_symop_operation_xyz
x,y,z
-x,1/2-y,z
x,-y,1/2-z
1/2-x,y,-z
-x,-y,-z
x,1/2+y,-z
-x,y,1/2+z
1/2+x,-y,z
1/2+x,1/2+y,1/2+z
1/2-x,-y,1/2+z
1/2+x,1/2-y,-z
-x,1/2+y,1/2-z
1/2-x,1/2-y,1/2-z
1/2+x,y,1/2-z
1/2-x,1/2+y,z
x,1/2-y,1/2+z
loop_
_atom_site_type_symbol
_atom_site_label
_atom_site_fract_x
_atom_site_fract_y
_atom_site_fract_z
Si Si1 0.295683 0.192838 0.359768
Si Si2 0.601017 0.622723 0.563953
Si Si3 0.936180 0.530765 0.830127
Si Si4 0.250000 0.544751 0.500000
Si Si5 0.400487 0.698818 0.886495
O O1 0.354211 0.298900 0.372464
O O2 0.354761 0.114778 0.304142
O O3 0.298537 0.121578 0.438046
O O4 0.186294 0.230469 0.353675
O O5 0.504366 0.578350 0.602237
O O6 0.673445 0.528035 0.544468
O O7 0.596214 0.688314 0.482226
O O8 0.991756 0.500000 0.750000
O O9 0.892675 0.422760 0.862569
O O10 0.500000 0.750000 0.860381
#
# Coordination Sequence:
#
# PCOD9533586 Si02
#       5
#    16  16  16   8  16
#     4  12  23  44  74 109 144 191 254 314 381 442
#     4  12  23  43  76 110 145 188 256 324 372 447
#     4  12  29  47  69 107 156 207 243 298 392 480
#     4  12  20  42  74 114 142 180 248 318 386 426
#     4  12  24  43  74 111 139 192 258 326 374 435
#
# _framework density 23.887978
#
# number of rings (size 3 to 8) (size 9 to 14) (size 15 to 20)
#    0.000    0.000    6.667    4.000    0.000    2.667 
#    0.000    7.778    0.000    0.000    0.000    0.000 
#    0.000    0.000    0.000    0.000    0.000    0.000 
#
# Total GULP energy -201364.556853 kJ/mol
# GULP energy per Si atom -5593.459913 kJ/mol
# Density = 2.383361 g / cm^3
# Si number density = 23.887978 Si / 1000 Ang^3
#
#
#
# Elastic Constant Matrix: (Units=GPa)
#
#
# Indices 1 2 3 4 5 6 
#
# 1 183.1138 93.9889 23.0363 0.0000 0.0000 0.0000
# 2 93.9889 152.3339 -5.5140 0.0000 0.0000 0.0000
# 3 23.0363 -5.5140 26.3587 0.0000 0.0000 0.0000
# 4 0.0000 0.0000 0.0000 3.8223 0.0000 0.0000
# 5 0.0000 0.0000 0.0000 0.0000 9.4892 0.0000
# 6 0.0000 0.0000 0.0000 0.0000 0.0000 57.6642
#
#
#
# Elastic Compliance Matrix: (Units=1/GPa)
#
#
# Indices 1 2 3 4 5 6 
#
# 1 0.010162 -0.006642 -0.010271 0.000000 0.000000 0.000000
# 2 -0.006642 0.010956 0.008096 0.000000 0.000000 0.000000
# 3 -0.010271 0.008096 0.048608 0.000000 0.000000 0.000000
# 4 0.000000 0.000000 0.000000 0.261626 0.000000 0.000000
# 5 0.000000 0.000000 0.000000 0.000000 0.105382 0.000000
# 6 0.000000 0.000000 0.000000 0.000000 0.000000 0.017342
#
#
# Mechanical properties :
#
#
# Convention : Reuss Voigt Hill
#
# Bulk Modulus (GPa) = 19.19619 64.98098 42.08859
# Shear Modulus (GPa) = 10.22342 30.88148 20.55245
#
# Velocity S-wave (km/s) = 2.07100 3.59940 2.93639
# Velocity P-wave (km/s) = 3.71107 6.67351 5.39943
#
# Compressibility (1/GPa) = 0.05209366
#
# Stress axis : x y z
#
# Youngs Moduli (GPa) = 98.40263 91.27774 20.57268
#
# Poissons Ratio (x) = 0.60625 0.21130
# Poissons Ratio (y) = 0.65358 -0.16657
# Poissons Ratio (z) = 1.01068 -0.73903
#
# Static dielectric constant tensor:
#      x y z
#    x 1.955350 0.000000 0.000000 
#    y 0.000000 1.875470 0.000000 
#    z 0.000000 0.000000 2.101400 
# 
# From -- ./inp_files/25852.got.cif
#   From: 2010.05.17/outbox.cif.g08.bks.cpg/sg73_13_cif.got.tgz:25852.got - 2010.06.03 17:35:07.
