data_PCOD9533465
_publ_section_title
;
Structure prediction by ZEFSAII (Michael W. Deem and Ramdas Pophale) SiO2 
 PCOD9533465
Probable space group: I B C A 
;
_chemical_formula_sum "Si O2"
_cell_formula_units_Z 104
_cell_length_a 8.382411
_cell_length_b 26.321172
_cell_length_c 20.678256
_cell_angle_alpha 90.000000
_cell_angle_beta 90.000000
_cell_angle_gamma 90.000000
_cell_volume 4562.344566
_symmetry_space_group_name_H-M "I B C A "
_symmetry_group_IT_number 73
_symmetry_cell_setting 'orthorhombic'
loop_
_space_group_symop_operation_xyz
x,y,z
-x,1/2-y,z
x,-y,1/2-z
1/2-x,y,-z
-x,-y,-z
x,1/2+y,-z
-x,y,1/2+z
1/2+x,-y,z
1/2+x,1/2+y,1/2+z
1/2-x,-y,1/2+z
1/2+x,1/2-y,-z
-x,1/2+y,1/2-z
1/2-x,1/2-y,1/2-z
1/2+x,y,1/2-z
1/2-x,1/2+y,z
x,1/2-y,1/2+z
loop_
_atom_site_type_symbol
_atom_site_label
_atom_site_fract_x
_atom_site_fract_y
_atom_site_fract_z
Si Si1 0.250000 0.544644 0.500000
Si Si2 0.763360 0.439180 0.840181
Si Si3 0.563506 0.306094 0.681010
Si Si4 0.592151 0.961247 0.636622
Si Si5 0.829072 0.130846 0.229186
Si Si6 0.431815 0.194994 0.525141
Si Si7 0.588606 0.595755 0.467128
O O1 0.325260 0.525948 0.568050
O O2 0.414776 0.570678 0.474687
O O3 0.596249 0.456617 0.869885
O O4 0.862534 0.489303 0.822219
O O5 0.730143 0.404675 0.778422
O O6 0.863476 0.407375 0.892363
O O7 0.500000 0.250000 0.696348
O O8 0.464835 0.346464 0.723904
O O9 0.742022 0.319693 0.701701
O O10 0.560924 0.310344 0.603113
O O11 0.639821 0.907841 0.669558
O O12 0.500000 0.250000 0.506756
O O13 0.250000 0.188190 0.500000
O O14 0.552174 0.150933 0.502155
O O15 0.750000 0.574040 0.500000
#
# Coordination Sequence:
#
# PCOD9533465 Si02
#       7
#     8  16  16  16  16  16  16
#     4  12  26  46  74 106 152 198 254 320 390 458
#     4  12  27  46  72 109 149 201 255 321 384 462
#     4  11  25  46  76 107 147 194 248 313 382 461
#     4  12  28  45  75 107 150 202 257 321 387 464
#     4  12  25  48  73 108 146 197 252 314 383 456
#     4  11  24  46  74 112 152 197 253 321 390 463
#     4  12  24  43  73 105 150 201 252 314 384 463
#
# _framework density 22.795296
#
# number of rings (size 3 to 8) (size 9 to 14) (size 15 to 20)
#    0.000    0.308    5.385    3.231    3.231    2.462 
#    0.000    0.769    0.000    0.000    0.000    0.000 
#    0.000    0.000    0.000    0.000    0.000    0.000 
#
# Total GULP energy -290053.781776 kJ/mol
# GULP energy per Si atom -5577.957342 kJ/mol
# Density = 2.274341 g / cm^3
# Si number density = 22.795296 Si / 1000 Ang^3
#
#
#
# Elastic Constant Matrix: (Units=GPa)
#
#
# Indices 1 2 3 4 5 6 
#
# 1 135.0290 46.8219 26.7992 0.0000 0.0000 0.0000
# 2 46.8219 96.6943 41.3913 0.0000 0.0000 0.0000
# 3 26.7992 41.3913 74.1384 0.0001 -0.0002 0.0000
# 4 0.0000 0.0000 0.0001 25.4193 -0.0001 0.0000
# 5 0.0000 0.0000 -0.0002 -0.0001 -67.8501 0.0000
# 6 0.0000 0.0000 0.0000 0.0000 0.0000 40.3452
#
#
#
# Elastic Compliance Matrix: (Units=1/GPa)
#
#
# Indices 1 2 3 4 5 6 
#
# 1 0.008965 -0.003881 -0.001074 0.000000 0.000000 0.000000
# 2 -0.003881 0.015270 -0.007122 0.000000 0.000000 0.000000
# 3 -0.001074 -0.007122 0.017853 0.000000 0.000000 0.000000
# 4 0.000000 0.000000 0.000000 0.039340 0.000000 0.000000
# 5 0.000000 0.000000 0.000000 0.000000 -0.014738 0.000000
# 6 0.000000 0.000000 0.000000 0.000000 0.000000 0.024786
#
#
# Mechanical properties :
#
#
# Convention : Reuss Voigt Hill
#
# Bulk Modulus (GPa) = 55.76267 59.54296 57.65282
# Shear Modulus (GPa) = 41.11580 12.30615 26.71098
#
# Velocity S-wave (km/s) = 4.25160 2.32600 3.42683
# Velocity P-wave (km/s) = 6.97259 5.77850 6.40344
#
# Compressibility (1/GPa) = 0.01793314
#
# Stress axis : x y z
#
# Youngs Moduli (GPa) = 111.54754 65.48735 56.01401
#
# Poissons Ratio (x) = 0.25418 0.06013
# Poissons Ratio (y) = 0.43296 0.39894
# Poissons Ratio (z) = 0.11975 0.46642
#
# Static dielectric constant tensor:
#      x y z
#    x 1.867920 0.000000 0.000000 
#    y 0.000000 1.877880 0.000000 
#    z 0.000000 0.000000 1.870380 
# 
# From -- ./inp_files/24979.got.cif
#   From: 2010.05.17/outbox.cif.g08.bks.cpg/sg73_13_cif.got.tgz:24979.got - 2010.06.03 17:35:07.
