data_PCOD9533490
_publ_section_title
;
Structure prediction by ZEFSAII (Michael W. Deem and Ramdas Pophale) SiO2 
 PCOD9533490
Probable space group: I B C A 
;
_chemical_formula_sum "Si O2"
_cell_formula_units_Z 72
_cell_length_a 21.479096
_cell_length_b 8.791987
_cell_length_c 16.539351
_cell_angle_alpha 90.000000
_cell_angle_beta 90.000000
_cell_angle_gamma 90.000000
_cell_volume 3123.356089
_symmetry_space_group_name_H-M "I B C A "
_symmetry_group_IT_number 73
_symmetry_cell_setting 'orthorhombic'
loop_
_space_group_symop_operation_xyz
x,y,z
-x,1/2-y,z
x,-y,1/2-z
1/2-x,y,-z
-x,-y,-z
x,1/2+y,-z
-x,y,1/2+z
1/2+x,-y,z
1/2+x,1/2+y,1/2+z
1/2-x,-y,1/2+z
1/2+x,1/2-y,-z
-x,1/2+y,1/2-z
1/2-x,1/2-y,1/2-z
1/2+x,y,1/2-z
1/2-x,1/2+y,z
x,1/2-y,1/2+z
loop_
_atom_site_type_symbol
_atom_site_label
_atom_site_fract_x
_atom_site_fract_y
_atom_site_fract_z
Si Si1 0.266463 0.202490 0.342145
Si Si2 0.047518 0.136172 0.007700
Si Si3 0.429677 0.263305 0.171938
Si Si4 0.850972 0.000000 0.250000
Si Si5 0.843197 0.999847 0.609230
O O1 0.250000 0.250000 0.250000
O O2 0.310779 0.057711 0.326151
O O3 0.303325 0.349483 0.371933
O O4 0.208058 0.137805 0.393617
O O5 0.110764 0.063985 0.041032
O O6 0.000000 0.250000 0.055617
O O7 0.065278 0.213462 0.922496
O O8 0.000000 0.000000 0.000000
O O9 0.500000 0.250000 0.202884
O O10 0.390543 0.142402 0.221625
O O11 0.393702 0.423797 0.170462
#
# Coordination Sequence:
#
# PCOD9533490 Si02
#       5
#    16  16  16   8  16
#     4  12  24  45  73 101 147 198 238 304 359 433
#     4  11  24  49  77 104 148 189 242 312 373 434
#     4  11  25  46  71 109 148 193 250 302 368 442
#     4  12  26  44  70 104 150 186 252 300 362 432
#     4  12  24  46  78 103 147 195 246 296 378 434
#
# _framework density 23.052125
#
# number of rings (size 3 to 8) (size 9 to 14) (size 15 to 20)
#    0.000    0.444    8.889    0.000    3.111    1.778 
#    0.000    8.889    0.000    0.000    0.000    0.000 
#    0.000    0.000    0.000    0.000    0.000    0.000 
#
# Total GULP energy -200615.298990 kJ/mol
# GULP energy per Si atom -5572.647194 kJ/mol
# Density = 2.299966 g / cm^3
# Si number density = 23.052125 Si / 1000 Ang^3
#
#
#
# Elastic Constant Matrix: (Units=GPa)
#
#
# Indices 1 2 3 4 5 6 
#
# 1 179.2537 61.7723 40.0452 0.0000 0.0000 0.0000
# 2 61.7723 120.0592 17.5037 0.0000 0.0000 0.0000
# 3 40.0452 17.5037 50.0467 0.0000 0.0000 0.0000
# 4 0.0000 0.0000 0.0000 33.0986 0.0000 0.0000
# 5 0.0000 0.0000 0.0000 0.0000 -86.3948 0.0000
# 6 0.0000 0.0000 0.0000 0.0000 0.0000 42.1344
#
#
#
# Elastic Compliance Matrix: (Units=1/GPa)
#
#
# Indices 1 2 3 4 5 6 
#
# 1 0.007863 -0.003296 -0.005138 0.000000 0.000000 0.000000
# 2 -0.003296 0.010159 -0.000915 0.000000 0.000000 0.000000
# 3 -0.005138 -0.000915 0.024413 0.000000 0.000000 0.000000
# 4 0.000000 0.000000 0.000000 0.030213 0.000000 0.000000
# 5 0.000000 0.000000 0.000000 0.000000 -0.011575 0.000000
# 6 0.000000 0.000000 0.000000 0.000000 0.000000 0.023734
#
#
# Mechanical properties :
#
#
# Convention : Reuss Voigt Hill
#
# Bulk Modulus (GPa) = 42.13357 65.33355 53.73356
# Shear Modulus (GPa) = 44.87633 13.10353 28.98993
#
# Velocity S-wave (km/s) = 4.41697 2.38676 3.55009
# Velocity P-wave (km/s) = 6.65808 5.99989 6.33753
#
# Compressibility (1/GPa) = 0.02373405
#
# Stress axis : x y z
#
# Youngs Moduli (GPa) = 127.18571 98.43818 40.96170
#
# Poissons Ratio (x) = 0.32448 0.21048
# Poissons Ratio (y) = 0.41924 0.03750
# Poissons Ratio (z) = 0.65353 0.09011
#
# Static dielectric constant tensor:
#      x y z
#    x 1.977320 0.000000 0.000000 
#    y 0.000000 2.007430 0.000000 
#    z 0.000000 0.000000 1.884710 
# 
# From -- ./inp_files/5370.got.cif
#   From: 2010.05.17/outbox.cif.g08.bks.cpg/sg73_3_cif.got.tgz:5370.got - 2010.06.03 17:35:07.
