data_PCOD9533466
_publ_section_title
;
Structure prediction by ZEFSAII (Michael W. Deem and Ramdas Pophale) SiO2 
 PCOD9533466
Probable space group: I B C A 
;
_chemical_formula_sum "Si O2"
_cell_formula_units_Z 112
_cell_length_a 13.481216
_cell_length_b 12.483683
_cell_length_c 28.850580
_cell_angle_alpha 90.000000
_cell_angle_beta 90.000000
_cell_angle_gamma 90.000000
_cell_volume 4855.414910
_symmetry_space_group_name_H-M "I B C A "
_symmetry_group_IT_number 73
_symmetry_cell_setting 'orthorhombic'
loop_
_space_group_symop_operation_xyz
x,y,z
-x,1/2-y,z
x,-y,1/2-z
1/2-x,y,-z
-x,-y,-z
x,1/2+y,-z
-x,y,1/2+z
1/2+x,-y,z
1/2+x,1/2+y,1/2+z
1/2-x,-y,1/2+z
1/2+x,1/2-y,-z
-x,1/2+y,1/2-z
1/2-x,1/2-y,1/2-z
1/2+x,y,1/2-z
1/2-x,1/2+y,z
x,1/2-y,1/2+z
loop_
_atom_site_type_symbol
_atom_site_label
_atom_site_fract_x
_atom_site_fract_y
_atom_site_fract_z
Si Si1 0.899787 0.955474 0.107909
Si Si2 0.504441 0.134403 0.451001
Si Si3 0.380569 0.377247 0.326430
Si Si4 0.694493 0.553761 0.572707
Si Si5 0.000000 0.750000 0.603994
Si Si6 0.156733 0.672591 0.529843
Si Si7 0.882580 0.127821 0.183455
Si Si8 0.250049 0.500000 0.250000
O O1 0.806784 0.911466 0.079168
O O2 0.964526 0.858658 0.129241
O O3 0.967338 0.029582 0.075516
O O4 0.855953 0.039787 0.144546
O O5 0.500000 0.250000 0.424907
O O6 0.619245 0.114315 0.461674
O O7 0.430820 0.146747 0.493487
O O8 0.355575 0.426167 0.376845
O O9 0.497693 0.381738 0.314229
O O10 0.355224 0.250363 0.327842
O O11 0.318413 0.442188 0.288318
O O12 0.699227 0.433930 0.554094
O O13 0.093191 0.724100 0.571217
O O14 0.250000 0.716087 0.500000
O O15 0.822183 0.089174 0.227933
#
# Coordination Sequence:
#
# PCOD9533466 Si02
#       8
#    16  16  16  16   8  16  16   8
#     4  12  26  47  73 103 144 191 244 298 365 431
#     4  12  25  46  72 100 140 193 243 298 353 433
#     4  11  24  46  76 104 146 190 234 293 360 443
#     4  12  25  45  73 100 139 192 241 291 359 435
#     4  12  28  46  66 108 146 182 250 312 362 418
#     4  12  26  44  69 101 141 193 243 302 365 424
#     4  11  24  48  72 107 142 189 234 289 368 435
#     4  12  24  46  74 116 140 176 238 306 354 434
#
# _framework density 23.067029999999999
#
# number of rings (size 3 to 8) (size 9 to 14) (size 15 to 20)
#    0.000    0.286    6.429    2.143    2.000    1.143 
#    2.571    1.429    0.000    0.000    0.000    0.000 
#    0.000    0.000    0.000    0.000    0.000    0.000 
#
# Total GULP energy -312922.065100 kJ/mol
# GULP energy per Si atom -5587.894020 kJ/mol
# Density = 2.301453 g / cm^3
# Si number density = 23.067030 Si / 1000 Ang^3
#
#
#
# Elastic Constant Matrix: (Units=GPa)
#
#
# Indices 1 2 3 4 5 6 
#
# 1 134.6959 47.8003 24.0035 0.0000 0.0000 0.0000
# 2 47.8003 58.3960 13.6508 0.0000 0.0000 0.0000
# 3 24.0035 13.6508 66.0818 0.0000 0.0000 0.0000
# 4 0.0000 0.0000 0.0000 -195.1055 0.0000 0.0000
# 5 0.0000 0.0000 0.0000 0.0000 71.1053 0.0000
# 6 0.0000 0.0000 0.0000 0.0000 0.0000 32.2973
#
#
#
# Elastic Compliance Matrix: (Units=1/GPa)
#
#
# Indices 1 2 3 4 5 6 
#
# 1 0.010758 -0.008293 -0.002195 0.000000 0.000000 0.000000
# 2 -0.008293 0.024386 -0.002025 0.000000 0.000000 0.000000
# 3 -0.002195 -0.002025 0.016348 0.000000 0.000000 0.000000
# 4 0.000000 0.000000 0.000000 -0.005125 0.000000 0.000000
# 5 0.000000 0.000000 0.000000 0.000000 0.014064 0.000000
# 6 0.000000 0.000000 0.000000 0.000000 0.000000 0.030962
#
#
# Mechanical properties :
#
#
# Convention : Reuss Voigt Hill
#
# Bulk Modulus (GPa) = 37.78316 47.78698 42.78507
# Shear Modulus (GPa) = 39.92277 -6.75931 16.58173
#
# Velocity S-wave (km/s) = 4.16472 -1.71367 2.68405
# Velocity P-wave (km/s) = 6.28822 4.10439 5.30979
#
# Compressibility (1/GPa) = 0.02646681
#
# Stress axis : x y z
#
# Youngs Moduli (GPa) = 92.95153 41.00663 61.16849
#
# Poissons Ratio (x) = 0.34008 0.13424
# Poissons Ratio (y) = 0.77087 0.12388
# Poissons Ratio (z) = 0.20400 0.08304
#
# Static dielectric constant tensor:
#      x y z
#    x 1.897140 0.000000 0.000000 
#    y 0.000000 1.913980 0.000000 
#    z 0.000000 0.000000 1.895850 
# 
# From -- ./inp_files/34348.got.cif
#   From: 2010.05.17/outbox.cif.g08.bks.cpg/sg73_18_cif.got.tgz:34348.got - 2010.06.03 17:35:07.
