data_PCOD9533685
_publ_section_title
;
Structure prediction by ZEFSAII (Michael W. Deem and Ramdas Pophale) SiO2 
 PCOD9533685
Probable space group: I B C A 
;
_chemical_formula_sum "Si O2"
_cell_formula_units_Z 80
_cell_length_a 14.195982
_cell_length_b 23.865270
_cell_length_c 9.802410
_cell_angle_alpha 90.000000
_cell_angle_beta 90.000000
_cell_angle_gamma 90.000000
_cell_volume 3320.967731
_symmetry_space_group_name_H-M "I B C A "
_symmetry_group_IT_number 73
_symmetry_cell_setting 'orthorhombic'
loop_
_space_group_symop_operation_xyz
x,y,z
-x,1/2-y,z
x,-y,1/2-z
1/2-x,y,-z
-x,-y,-z
x,1/2+y,-z
-x,y,1/2+z
1/2+x,-y,z
1/2+x,1/2+y,1/2+z
1/2-x,-y,1/2+z
1/2+x,1/2-y,-z
-x,1/2+y,1/2-z
1/2-x,1/2-y,1/2-z
1/2+x,y,1/2-z
1/2-x,1/2+y,z
x,1/2-y,1/2+z
loop_
_atom_site_type_symbol
_atom_site_label
_atom_site_fract_x
_atom_site_fract_y
_atom_site_fract_z
Si Si1 0.315686 0.194332 0.741521
Si Si2 0.065636 0.554310 0.996716
Si Si3 0.297782 0.593926 0.767221
Si Si4 0.827947 0.500000 0.250000
Si Si5 0.906306 0.353531 0.517214
Si Si6 0.500000 0.750000 0.642595
O O1 0.250000 0.250000 0.750000
O O2 0.356196 0.063002 0.113548
O O3 0.265247 0.145069 0.827748
O O4 0.420421 0.214666 0.778773
O O5 0.115548 0.540180 0.852696
O O6 0.993991 0.606106 0.016344
O O7 0.000000 0.500000 0.000000
O O8 0.239731 0.546551 0.685008
O O9 0.168795 0.660058 0.600537
O O10 0.365933 0.622283 0.657796
O O11 0.944883 0.292773 0.550133
#
# Coordination Sequence:
#
# PCOD9533685 Si02
#       6
#    16  16  16   8  16   8
#     4  12  27  49  74 117 162 218 281 346 421 503
#     4  12  26  49  80 116 164 211 273 342 427 509
#     4  12  26  48  78 116 161 215 279 345 419 506
#     4  12  26  48  76 120 156 212 270 340 424 504
#     4  12  26  47  77 112 162 215 278 344 414 500
#     4  12  26  46  74 110 162 216 278 340 420 492
#
# _framework density 24.089364
#
# number of rings (size 3 to 8) (size 9 to 14) (size 15 to 20)
#    0.000    0.000    2.000    7.800    2.800    1.600 
#    0.000    0.000    0.000    0.000    0.000    0.000 
#    0.000    0.000    0.000    0.000    0.000    0.000 
#
# Total GULP energy -223502.120326 kJ/mol
# GULP energy per Si atom -5587.553008 kJ/mol
# Density = 2.403454 g / cm^3
# Si number density = 24.089364 Si / 1000 Ang^3
#
#
#
# Elastic Constant Matrix: (Units=GPa)
#
#
# Indices 1 2 3 4 5 6 
#
# 1 100.6442 33.7260 42.8538 0.0000 0.0001 0.0001
# 2 33.7260 148.5690 35.7788 0.0002 0.0002 0.0001
# 3 42.8538 35.7788 107.7269 0.0026 0.0019 0.0001
# 4 0.0000 0.0002 0.0026 42.3366 0.0007 -0.0004
# 5 0.0001 0.0002 0.0019 0.0007 20.6559 -0.0002
# 6 0.0001 0.0001 0.0001 -0.0004 -0.0002 83.2770
#
#
#
# Elastic Compliance Matrix: (Units=1/GPa)
#
#
# Indices 1 2 3 4 5 6 
#
# 1 0.012374 -0.001765 -0.004336 0.000000 0.000000 0.000000
# 2 -0.001765 0.007568 -0.001811 0.000000 0.000000 0.000000
# 3 -0.004336 -0.001811 0.011609 -0.000001 -0.000001 0.000000
# 4 0.000000 0.000000 -0.000001 0.023620 -0.000001 0.000000
# 5 0.000000 0.000000 -0.000001 -0.000001 0.048412 0.000000
# 6 0.000000 0.000000 0.000000 0.000000 0.000000 0.012008
#
#
# Mechanical properties :
#
#
# Convention : Reuss Voigt Hill
#
# Bulk Modulus (GPa) = 63.58842 64.62858 64.10850
# Shear Modulus (GPa) = 36.58774 45.55935 41.07354
#
# Velocity S-wave (km/s) = 3.90145 4.35358 4.13370
# Velocity P-wave (km/s) = 6.83734 7.22209 7.03235
#
# Compressibility (1/GPa) = 0.01572613
#
# Stress axis : x y z
#
# Youngs Moduli (GPa) = 80.81702 132.14054 86.13793
#
# Poissons Ratio (x) = 0.23318 0.37351
# Poissons Ratio (y) = 0.14261 0.15603
# Poissons Ratio (z) = 0.35043 0.23937
#
# Static dielectric constant tensor:
#      x y z
#    x 1.898550 -0.000010 0.000010 
#    y -0.000010 1.886510 0.000000 
#    z 0.000010 0.000000 2.113350 
# 
# From -- ./inp_files/16875.got.cif
#   From: 2010.05.17/outbox.cif.g08.bks.cpg/sg73_9_cif.got.tgz:16875.got - 2010.06.03 17:35:07.
