data_PCOD9533522
_publ_section_title
;
Structure prediction by ZEFSAII (Michael W. Deem and Ramdas Pophale) SiO2 
 PCOD9533522
Probable space group: I B C A 
;
_chemical_formula_sum "Si O2"
_cell_formula_units_Z 88
_cell_length_a 9.416248
_cell_length_b 18.747248
_cell_length_c 19.205201
_cell_angle_alpha 90.000000
_cell_angle_beta 90.000000
_cell_angle_gamma 90.000000
_cell_volume 3390.269866
_symmetry_space_group_name_H-M "I B C A "
_symmetry_group_IT_number 73
_symmetry_cell_setting 'orthorhombic'
loop_
_space_group_symop_operation_xyz
x,y,z
-x,1/2-y,z
x,-y,1/2-z
1/2-x,y,-z
-x,-y,-z
x,1/2+y,-z
-x,y,1/2+z
1/2+x,-y,z
1/2+x,1/2+y,1/2+z
1/2-x,-y,1/2+z
1/2+x,1/2-y,-z
-x,1/2+y,1/2-z
1/2-x,1/2-y,1/2-z
1/2+x,y,1/2-z
1/2-x,1/2+y,z
x,1/2-y,1/2+z
loop_
_atom_site_type_symbol
_atom_site_label
_atom_site_fract_x
_atom_site_fract_y
_atom_site_fract_z
Si Si1 0.250000 0.343019 0.000000
Si Si2 0.282707 0.269394 0.396765
Si Si3 0.205743 0.436258 0.116516
Si Si4 0.148060 0.000000 0.250000
Si Si5 0.500000 0.500000 0.000000
Si Si6 0.500000 0.750000 0.825210
Si Si7 0.994174 0.353053 0.204251
Si Si8 0.750000 0.608139 0.500000
O O1 0.342397 0.286231 0.955642
O O2 0.189998 0.400791 0.942972
O O3 0.385310 0.301600 0.337638
O O4 0.223554 0.338963 0.436046
O O5 0.140558 0.232775 0.367611
O O6 0.269732 0.480628 0.179186
O O7 0.095614 0.481353 0.071232
O O8 0.124805 0.371998 0.154993
O O9 0.065675 0.928808 0.271269
O O10 0.385466 0.561989 0.019742
O O11 0.540462 0.814221 0.774282
#
# Coordination Sequence:
#
# PCOD9533522 Si02
#       8
#     8  16  16   8   8   8  16   8
#     4  11  27  46  78 108 157 211 270 340 412 488
#     4  11  25  47  71 112 149 206 267 337 397 495
#     4  12  27  48  76 112 158 208 273 334 418 491
#     4  12  28  50  76 118 160 218 266 344 418 514
#     4  12  26  48  78 114 154 218 258 356 404 498
#     4  12  26  44  80 106 158 212 268 330 420 496
#     4  12  25  49  76 110 158 211 272 336 414 502
#     4  11  25  48  76 106 163 195 272 328 420 472
#
# _framework density 25.956636
#
# number of rings (size 3 to 8) (size 9 to 14) (size 15 to 20)
#    0.000    0.364    1.818    6.000    5.091    1.455 
#    0.000    0.000    0.000    0.000    0.000    0.000 
#    0.000    0.000    0.000    0.000    0.000    0.000 
#
# Total GULP energy -245408.163314 kJ/mol
# GULP energy per Si atom -5577.458257 kJ/mol
# Density = 2.589756 g / cm^3
# Si number density = 25.956636 Si / 1000 Ang^3
#
#
#
# Elastic Constant Matrix: (Units=GPa)
#
#
# Indices 1 2 3 4 5 6 
#
# 1 62.4884 21.7351 52.1279 0.0000 0.0000 0.0000
# 2 21.7351 122.4529 64.7232 0.0000 0.0000 0.0000
# 3 52.1279 64.7232 155.4111 0.0000 0.0000 0.0000
# 4 0.0000 0.0000 0.0000 59.1861 0.0000 0.0000
# 5 0.0000 0.0000 0.0000 0.0000 49.9438 0.0000
# 6 0.0000 0.0000 0.0000 0.0000 0.0000 15.5071
#
#
#
# Elastic Compliance Matrix: (Units=1/GPa)
#
#
# Indices 1 2 3 4 5 6 
#
# 1 0.022220 -0.000006 -0.007451 0.000000 0.000000 0.000000
# 2 -0.000006 0.010471 -0.004359 0.000000 0.000000 0.000000
# 3 -0.007451 -0.004359 0.010749 0.000000 0.000000 0.000000
# 4 0.000000 0.000000 0.000000 0.016896 0.000000 0.000000
# 5 0.000000 0.000000 0.000000 0.000000 0.020023 0.000000
# 6 0.000000 0.000000 0.000000 0.000000 0.000000 0.064486
#
#
# Mechanical properties :
#
#
# Convention : Reuss Voigt Hill
#
# Bulk Modulus (GPa) = 50.48058 68.61387 59.54723
# Shear Modulus (GPa) = 28.55836 38.37848 33.46842
#
# Velocity S-wave (km/s) = 3.32057 3.84938 3.59471
# Velocity P-wave (km/s) = 5.84738 6.80062 6.34193
#
# Compressibility (1/GPa) = 0.01980960
#
# Stress axis : x y z
#
# Youngs Moduli (GPa) = 45.00371 95.49796 93.03185
#
# Poissons Ratio (x) = 0.00057 0.69315
# Poissons Ratio (y) = 0.00027 0.40552
# Poissons Ratio (z) = 0.33531 0.41627
#
# Static dielectric constant tensor:
#      x y z
#    x 2.027750 0.000000 0.000000 
#    y 0.000000 2.286010 0.000000 
#    z 0.000000 0.000000 2.085890 
# 
# From -- ./inp_files/25395.got.cif
#   From: 2010.05.17/outbox.cif.g08.bks.cpg/sg73_13_cif.got.tgz:25395.got - 2010.06.03 17:35:07.
