data_PCOD9533380
_publ_section_title
;
Structure prediction by ZEFSAII (Michael W. Deem and Ramdas Pophale) SiO2 
 PCOD9533380
Probable space group: I B C A 
;
_chemical_formula_sum "Si O2"
_cell_formula_units_Z 112
_cell_length_a 12.034503
_cell_length_b 31.797387
_cell_length_c 13.644979
_cell_angle_alpha 90.000000
_cell_angle_beta 90.000000
_cell_angle_gamma 90.000000
_cell_volume 5221.466112
_symmetry_space_group_name_H-M "I B C A "
_symmetry_group_IT_number 73
_symmetry_cell_setting 'orthorhombic'
loop_
_space_group_symop_operation_xyz
x,y,z
-x,1/2-y,z
x,-y,1/2-z
1/2-x,y,-z
-x,-y,-z
x,1/2+y,-z
-x,y,1/2+z
1/2+x,-y,z
1/2+x,1/2+y,1/2+z
1/2-x,-y,1/2+z
1/2+x,1/2-y,-z
-x,1/2+y,1/2-z
1/2-x,1/2-y,1/2-z
1/2+x,y,1/2-z
1/2-x,1/2+y,z
x,1/2-y,1/2+z
loop_
_atom_site_type_symbol
_atom_site_label
_atom_site_fract_x
_atom_site_fract_y
_atom_site_fract_z
Si Si1 0.125626 0.065401 0.030903
Si Si2 0.865654 0.301547 0.611055
Si Si3 0.557908 0.385509 0.363739
Si Si4 0.662692 0.517422 0.843985
Si Si5 0.503377 0.912898 0.832380
Si Si6 0.109537 0.820853 0.119107
Si Si7 0.500000 0.750000 0.246684
Si Si8 0.250000 0.918108 0.000000
O O1 0.059503 0.095993 0.103100
O O2 0.127386 0.020010 0.083206
O O3 0.250000 0.076939 0.000000
O O4 0.058052 0.069172 0.930376
O O5 0.951052 0.336322 0.649477
O O6 0.742016 0.317375 0.639382
O O7 0.888632 0.303623 0.494251
O O8 0.898569 0.260789 0.672383
O O9 0.586419 0.403680 0.257186
O O10 0.648685 0.393063 0.449851
O O11 0.728296 0.500000 0.750000
O O12 0.568052 0.546896 0.797336
O O13 0.720230 0.551120 0.912296
O O14 0.437524 0.868718 0.858860
O O15 0.039245 0.787855 0.182699
#
# Coordination Sequence:
#
# PCOD9533380 Si02
#       8
#    16  16  16  16  16  16   8   8
#     4  12  27  46  66 102 145 179 235 298 347 412
#     4  11  23  45  73 102 141 184 228 293 347 429
#     4  12  25  46  74 101 136 189 240 286 356 424
#     4  12  25  43  68  99 138 188 237 292 353 412
#     4  12  25  45  72  99 140 186 238 291 347 429
#     4  11  24  46  72 104 140 183 236 283 358 425
#     4  12  24  44  72 110 142 176 232 294 356 418
#     4  12  26  44  72  98 138 188 240 292 354 416
#
# _framework density 21.449915000000001
#
# number of rings (size 3 to 8) (size 9 to 14) (size 15 to 20)
#    0.000    0.286    6.429    3.000    2.000    1.143 
#    0.000    0.000    0.000    0.000    0.000    0.000 
#    0.000    0.000    0.000    0.000    0.000    0.000 
#
# Total GULP energy -312038.191042 kJ/mol
# GULP energy per Si atom -5572.110554 kJ/mol
# Density = 2.140109 g / cm^3
# Si number density = 21.449915 Si / 1000 Ang^3
#
#
#
# Elastic Constant Matrix: (Units=GPa)
#
#
# Indices 1 2 3 4 5 6 
#
# 1 72.5231 32.9049 26.7899 -0.0002 0.0000 -0.0001
# 2 32.9049 83.5693 33.5733 -0.0002 0.0000 0.0002
# 3 26.7899 33.5733 136.4490 -0.0006 -0.0004 0.0000
# 4 -0.0002 -0.0002 -0.0006 29.0178 -0.0003 -0.0002
# 5 0.0000 0.0000 -0.0004 -0.0003 16.0327 -0.0001
# 6 -0.0001 0.0002 0.0000 -0.0002 -0.0001 -38.2990
#
#
#
# Elastic Compliance Matrix: (Units=1/GPa)
#
#
# Indices 1 2 3 4 5 6 
#
# 1 0.017221 -0.006017 -0.001901 0.000000 0.000000 0.000000
# 2 -0.006017 0.015381 -0.002603 0.000000 0.000000 0.000000
# 3 -0.001901 -0.002603 0.008342 0.000000 0.000000 0.000000
# 4 0.000000 0.000000 0.000000 0.034462 0.000001 0.000000
# 5 0.000000 0.000000 0.000000 0.000001 0.062373 0.000000
# 6 0.000000 0.000000 0.000000 0.000000 0.000000 -0.026110
#
#
# Mechanical properties :
#
#
# Convention : Reuss Voigt Hill
#
# Bulk Modulus (GPa) = 50.24432 53.23084 51.73758
# Shear Modulus (GPa) = 35.88243 14.63519 25.25881
#
# Velocity S-wave (km/s) = 4.09448 2.61491 3.43530
# Velocity P-wave (km/s) = 6.76963 5.82986 6.31724
#
# Compressibility (1/GPa) = 0.01990275
#
# Stress axis : x y z
#
# Youngs Moduli (GPa) = 58.06928 65.01494 119.86955
#
# Poissons Ratio (x) = 0.39120 0.22782
# Poissons Ratio (y) = 0.34941 0.31204
# Poissons Ratio (z) = 0.11037 0.16924
#
# Static dielectric constant tensor:
#      x y z
#    x 2.529920 0.000000 -0.000010 
#    y 0.000000 1.777920 0.000000 
#    z -0.000010 0.000000 1.839250 
# 
# From -- ./inp_files/16398.got.cif
#   From: 2010.05.17/outbox.cif.g08.bks.cpg/sg73_9_cif.got.tgz:16398.got - 2010.06.03 17:35:07.
