data_PCOD9533616
_publ_section_title
;
Structure prediction by ZEFSAII (Michael W. Deem and Ramdas Pophale) SiO2 
 PCOD9533616
Probable space group: I B C A 
;
_chemical_formula_sum "Si O2"
_cell_formula_units_Z 72
_cell_length_a 14.624341
_cell_length_b 18.460121
_cell_length_c 12.305898
_cell_angle_alpha 90.000000
_cell_angle_beta 90.000000
_cell_angle_gamma 90.000000
_cell_volume 3322.187650
_symmetry_space_group_name_H-M "I B C A "
_symmetry_group_IT_number 73
_symmetry_cell_setting 'orthorhombic'
loop_
_space_group_symop_operation_xyz
x,y,z
-x,1/2-y,z
x,-y,1/2-z
1/2-x,y,-z
-x,-y,-z
x,1/2+y,-z
-x,y,1/2+z
1/2+x,-y,z
1/2+x,1/2+y,1/2+z
1/2-x,-y,1/2+z
1/2+x,1/2-y,-z
-x,1/2+y,1/2-z
1/2-x,1/2-y,1/2-z
1/2+x,y,1/2-z
1/2-x,1/2+y,z
x,1/2-y,1/2+z
loop_
_atom_site_type_symbol
_atom_site_label
_atom_site_fract_x
_atom_site_fract_y
_atom_site_fract_z
Si Si1 0.598830 0.478322 0.046979
Si Si2 0.250000 0.095818 0.500000
Si Si3 0.341430 0.328724 0.442492
Si Si4 0.500000 0.250000 0.070706
Si Si5 0.371354 0.857741 0.799008
Si Si6 0.991298 0.500000 0.250000
O O1 0.667246 0.545007 0.039741
O O2 0.567122 0.465597 0.168310
O O3 0.500000 0.500000 0.000000
O O4 0.641123 0.411212 0.983197
O O5 0.294156 0.133195 0.607088
O O6 0.250000 0.302155 0.500000
O O7 0.426098 0.285864 0.491746
O O8 0.334597 0.323966 0.313001
O O9 0.550684 0.191446 0.145936
O O10 0.418706 0.932825 0.756936
#
# Coordination Sequence:
#
# PCOD9533616 Si02
#       6
#    16   8  16   8  16   8
#     4  12  23  44  74 109 149 189 244 313 376 435
#     4  12  26  44  76 116 144 194 256 312 380 440
#     4  12  27  49  74 110 150 198 254 309 378 450
#     4  12  28  54  74 108 150 210 248 310 384 456
#     4  12  27  48  78 109 154 197 253 311 377 456
#     4  12  24  44  76 110 146 200 246 312 376 432
#
# _framework density 21.672466
#
# number of rings (size 3 to 8) (size 9 to 14) (size 15 to 20)
#    0.000    0.000    7.778    0.667    4.667    0.889 
#    0.000    0.000    0.000    0.000    0.000    0.000 
#    0.000    0.000    0.000    0.000    0.000    0.000 
#
# Total GULP energy -200744.742288 kJ/mol
# GULP energy per Si atom -5576.242841 kJ/mol
# Density = 2.162314 g / cm^3
# Si number density = 21.672466 Si / 1000 Ang^3
#
#
#
# Elastic Constant Matrix: (Units=GPa)
#
#
# Indices 1 2 3 4 5 6 
#
# 1 169.2560 46.6363 76.9400 0.0000 0.0000 0.0000
# 2 46.6363 87.5871 53.0580 0.0000 0.0000 0.0000
# 3 76.9400 53.0580 162.9284 0.0000 0.0000 0.0000
# 4 0.0000 0.0000 0.0000 76.4468 0.0000 0.0000
# 5 0.0000 0.0000 0.0000 0.0000 30.8411 0.0000
# 6 0.0000 0.0000 0.0000 0.0000 0.0000 70.9457
#
#
#
# Elastic Compliance Matrix: (Units=1/GPa)
#
#
# Indices 1 2 3 4 5 6 
#
# 1 0.007918 -0.002430 -0.002948 0.000000 0.000000 0.000000
# 2 -0.002430 0.014969 -0.003727 0.000000 0.000000 0.000000
# 3 -0.002948 -0.003727 0.008743 0.000000 0.000000 0.000000
# 4 0.000000 0.000000 0.000000 0.013081 0.000000 0.000000
# 5 0.000000 0.000000 0.000000 0.000000 0.032424 0.000000
# 6 0.000000 0.000000 0.000000 0.000000 0.000000 0.014095
#
#
# Mechanical properties :
#
#
# Convention : Reuss Voigt Hill
#
# Bulk Modulus (GPa) = 74.51424 85.89335 80.20380
# Shear Modulus (GPa) = 43.89286 51.85587 47.87436
#
# Velocity S-wave (km/s) = 4.50520 4.89684 4.70509
# Velocity P-wave (km/s) = 7.84341 8.46703 8.16117
#
# Compressibility (1/GPa) = 0.01342025
#
# Stress axis : x y z
#
# Youngs Moduli (GPa) = 126.29843 66.80494 114.37305
#
# Poissons Ratio (x) = 0.16236 0.33712
# Poissons Ratio (y) = 0.30694 0.42627
# Poissons Ratio (z) = 0.37228 0.24898
#
# Static dielectric constant tensor:
#      x y z
#    x 1.748430 0.000000 0.000000 
#    y 0.000000 1.879240 0.000000 
#    z 0.000000 0.000000 2.342210 
# 
# From -- ./inp_files/10689.got.cif
#   From: 2010.05.17/outbox.cif.g08.bks.cpg/sg73_6_cif.got.tgz:10689.got - 2010.06.03 17:35:07.
