data_PCOD9533161
_publ_section_title
;
Structure prediction by ZEFSAII (Michael W. Deem and Ramdas Pophale) SiO2 
 PCOD9533161
Probable space group: I B C A 
;
_chemical_formula_sum "Si O2"
_cell_formula_units_Z 112
_cell_length_a 20.314316
_cell_length_b 21.110223
_cell_length_c 13.051697
_cell_angle_alpha 90.000000
_cell_angle_beta 90.000000
_cell_angle_gamma 90.000000
_cell_volume 5597.086359
_symmetry_space_group_name_H-M "I B C A "
_symmetry_group_IT_number 73
_symmetry_cell_setting 'orthorhombic'
loop_
_space_group_symop_operation_xyz
x,y,z
-x,1/2-y,z
x,-y,1/2-z
1/2-x,y,-z
-x,-y,-z
x,1/2+y,-z
-x,y,1/2+z
1/2+x,-y,z
1/2+x,1/2+y,1/2+z
1/2-x,-y,1/2+z
1/2+x,1/2-y,-z
-x,1/2+y,1/2-z
1/2-x,1/2-y,1/2-z
1/2+x,y,1/2-z
1/2-x,1/2+y,z
x,1/2-y,1/2+z
loop_
_atom_site_type_symbol
_atom_site_label
_atom_site_fract_x
_atom_site_fract_y
_atom_site_fract_z
Si Si1 0.437921 0.151977 0.682462
Si Si2 0.496924 0.574013 0.501851
Si Si3 0.563269 0.656000 0.175093
Si Si4 0.143725 0.617310 0.993873
Si Si5 0.317449 0.926087 0.723794
Si Si6 0.580998 0.746809 0.996440
Si Si7 0.330665 0.572065 0.783203
O O1 0.473818 0.103337 0.605084
O O2 0.495473 0.171220 0.763203
O O3 0.375600 0.116753 0.730635
O O4 0.410959 0.207389 0.608629
O O5 0.500000 0.500000 0.500000
O O6 0.452609 0.602289 0.591010
O O7 0.569662 0.595659 0.526284
O O8 0.592114 0.712352 0.105513
O O9 0.617065 0.624201 0.246910
O O10 0.183297 0.593908 0.895444
O O11 0.128888 0.692432 0.007775
O O12 0.168838 0.581755 0.094702
O O13 0.242494 0.915540 0.761024
O O14 0.332243 0.000000 0.750000
O O15 0.500000 0.750000 0.997964
O O16 0.348889 0.500000 0.750000
#
# Coordination Sequence:
#
# PCOD9533161 Si02
#       7
#    16  16  16  16  16  16  16
#     4  11  22  39  64  96 130 169 219 264 317 382
#     4  11  21  35  61  96 127 160 213 273 317 366
#     4  11  22  39  64  96 130 169 219 264 317 382
#     4  12  22  43  65  93 128 166 216 264 320 382
#     4  11  25  44  66  94 130 171 213 265 328 385
#     4  11  22  41  61  98 134 170 210 269 323 374
#     4  11  25  44  66  94 130 171 213 265 328 385
#
# _framework density 20.010411000000001
#
# number of rings (size 3 to 8) (size 9 to 14) (size 15 to 20)
#    0.000    0.857    5.714    2.143    0.000    5.143 
#    0.000   10.000    0.000    0.000    0.000    0.000 
#    0.000    0.000    0.000    0.000    0.000    0.000 
#
# Total GULP energy -312390.842190 kJ/mol
# GULP energy per Si atom -5578.407896 kJ/mol
# Density = 1.996487 g / cm^3
# Si number density = 20.010411 Si / 1000 Ang^3
#
#
#
# Elastic Constant Matrix: (Units=GPa)
#
#
# Indices 1 2 3 4 5 6 
#
# 1 63.8445 12.6394 5.0009 0.0000 0.0000 0.0000
# 2 12.6394 124.3009 45.7023 0.0000 0.0000 0.0000
# 3 5.0009 45.7023 87.6390 0.0000 0.0000 0.0000
# 4 0.0000 0.0000 0.0000 18.3078 0.0000 0.0000
# 5 0.0000 0.0000 0.0000 0.0000 26.4686 0.0000
# 6 0.0000 0.0000 0.0000 0.0000 0.0000 25.4770
#
#
#
# Elastic Compliance Matrix: (Units=1/GPa)
#
#
# Indices 1 2 3 4 5 6 
#
# 1 0.015985 -0.001596 -0.000080 0.000000 0.000000 0.000000
# 2 -0.001596 0.010113 -0.005183 0.000000 0.000000 0.000000
# 3 -0.000080 -0.005183 0.014118 0.000000 0.000000 0.000000
# 4 0.000000 0.000000 0.000000 0.054622 0.000000 0.000000
# 5 0.000000 0.000000 0.000000 0.000000 0.037781 0.000000
# 6 0.000000 0.000000 0.000000 0.000000 0.000000 0.039251
#
#
# Mechanical properties :
#
#
# Convention : Reuss Voigt Hill
#
# Bulk Modulus (GPa) = 37.73768 44.71885 41.22827
# Shear Modulus (GPa) = 25.71764 28.21345 26.96555
#
# Velocity S-wave (km/s) = 3.58888 3.75899 3.67492
# Velocity P-wave (km/s) = 6.00611 6.42155 6.21730
#
# Compressibility (1/GPa) = 0.02649871
#
# Stress axis : x y z
#
# Youngs Moduli (GPa) = 62.55754 98.88464 70.83344
#
# Poissons Ratio (x) = 0.15783 0.00565
# Poissons Ratio (y) = 0.09985 0.36710
# Poissons Ratio (z) = 0.00499 0.51248
#
# Static dielectric constant tensor:
#      x y z
#    x 1.686430 0.000000 0.000000 
#    y 0.000000 1.716120 0.000000 
#    z 0.000000 0.000000 1.727650 
# 
# From -- ./inp_files/13044.got.cif
#   From: 2010.05.17/outbox.cif.g08.bks.cpg/sg73_7_cif.got.tgz:13044.got - 2010.06.03 17:35:07.
