data_PCOD9533007
_publ_section_title
;
Structure prediction by ZEFSAII (Michael W. Deem and Ramdas Pophale) SiO2 
 PCOD9533007
Probable space group: I B C A 
;
_chemical_formula_sum "Si O2"
_cell_formula_units_Z 80
_cell_length_a 8.357630
_cell_length_b 21.564101
_cell_length_c 20.251283
_cell_angle_alpha 90.000000
_cell_angle_beta 90.000000
_cell_angle_gamma 90.000000
_cell_volume 3649.782972
_symmetry_space_group_name_H-M "I B C A "
_symmetry_group_IT_number 73
_symmetry_cell_setting 'orthorhombic'
loop_
_space_group_symop_operation_xyz
x,y,z
-x,1/2-y,z
x,-y,1/2-z
1/2-x,y,-z
-x,-y,-z
x,1/2+y,-z
-x,y,1/2+z
1/2+x,-y,z
1/2+x,1/2+y,1/2+z
1/2-x,-y,1/2+z
1/2+x,1/2-y,-z
-x,1/2+y,1/2-z
1/2-x,1/2-y,1/2-z
1/2+x,y,1/2-z
1/2-x,1/2+y,z
x,1/2-y,1/2+z
loop_
_atom_site_type_symbol
_atom_site_label
_atom_site_fract_x
_atom_site_fract_y
_atom_site_fract_z
Si Si1 0.907411 0.622259 0.044797
Si Si2 0.750000 0.611695 0.500000
Si Si3 0.164066 0.041213 0.691715
Si Si4 0.599475 0.484047 0.902779
Si Si5 0.790861 0.828809 0.684598
Si Si6 0.000000 0.750000 0.784297
O O1 0.923588 0.547079 0.055163
O O2 0.873767 0.652148 0.116190
O O3 0.080566 0.644292 0.017144
O O4 0.750000 0.633260 0.000000
O O5 0.704091 0.566341 0.560123
O O6 0.215692 0.108645 0.714719
O O7 0.061669 0.046758 0.624267
O O8 0.094529 0.000000 0.750000
O O9 0.315360 0.004470 0.664227
O O10 0.914014 0.799042 0.735842
O O11 0.642121 0.782029 0.675078
#
# Coordination Sequence:
#
# PCOD9533007 Si02
#       6
#    16   8  16  16  16   8
#     4  11  23  42  65 104 142 180 234 277 340 431
#     4  12  20  38  66  98 144 194 214 260 352 436
#     4  11  24  37  62 105 141 169 217 283 348 421
#     4  11  21  37  59  95 146 185 210 261 345 436
#     4  10  25  46  70  99 130 181 245 285 346 422
#     4  10  24  52  74  88 132 192 236 302 348 390
#
# _framework density 21.919111000000001
#
# number of rings (size 3 to 8) (size 9 to 14) (size 15 to 20)
#    0.000    1.200    3.000    3.600    8.400    0.000 
#   10.800    1.000    0.000    0.000    0.000    0.000 
#    0.000    0.000    0.000    0.000    0.000    0.000 
#
# Total GULP energy -223442.689219 kJ/mol
# GULP energy per Si atom -5586.067230 kJ/mol
# Density = 2.186922 g / cm^3
# Si number density = 21.919111 Si / 1000 Ang^3
#
#
#
# Elastic Constant Matrix: (Units=GPa)
#
#
# Indices 1 2 3 4 5 6 
#
# 1 149.2197 29.4583 37.9471 0.0000 0.0000 0.0000
# 2 29.4583 64.7495 30.6701 0.0000 0.0000 0.0000
# 3 37.9471 30.6701 53.8395 0.0000 0.0000 0.0000
# 4 0.0000 0.0000 0.0000 14.6333 0.0000 0.0000
# 5 0.0000 0.0000 0.0000 0.0000 -190.9970 0.0000
# 6 0.0000 0.0000 0.0000 0.0000 0.0000 20.8679
#
#
#
# Elastic Compliance Matrix: (Units=1/GPa)
#
#
# Indices 1 2 3 4 5 6 
#
# 1 0.008253 -0.001369 -0.005037 0.000000 0.000000 0.000000
# 2 -0.001369 0.021379 -0.011214 0.000000 0.000000 0.000000
# 3 -0.005037 -0.011214 0.028512 0.000000 0.000000 0.000000
# 4 0.000000 0.000000 0.000000 0.068337 0.000000 0.000000
# 5 0.000000 0.000000 0.000000 0.000000 -0.005236 0.000000
# 6 0.000000 0.000000 0.000000 0.000000 0.000000 0.047920
#
#
# Mechanical properties :
#
#
# Convention : Reuss Voigt Hill
#
# Bulk Modulus (GPa) = 43.66009 51.55108 47.60559
# Shear Modulus (GPa) = 23.58062 -19.78363 1.89850
#
# Velocity S-wave (km/s) = 3.28350 -3.00755 0.93167
# Velocity P-wave (km/s) = 5.85979 3.39255 4.78782
#
# Compressibility (1/GPa) = 0.02290421
#
# Stress axis : x y z
#
# Youngs Moduli (GPa) = 121.17322 46.77590 35.07314
#
# Poissons Ratio (x) = 0.06402 0.17666
# Poissons Ratio (y) = 0.16586 0.39330
# Poissons Ratio (z) = 0.61034 0.52453
#
# Static dielectric constant tensor:
#      x y z
#    x 1.888510 0.000000 0.000000 
#    y 0.000000 1.811070 0.000000 
#    z 0.000000 0.000000 1.774870 
# 
# From -- ./inp_files/6207.got.cif
#   From: 2010.05.17/outbox.cif.g08.bks.cpg/sg73_4_cif.got.tgz:6207.got - 2010.06.03 17:35:07.
