data_PCOD9533621
_publ_section_title
;
Structure prediction by ZEFSAII (Michael W. Deem and Ramdas Pophale) SiO2 
 PCOD9533621
Probable space group: I B C A 
;
_chemical_formula_sum "Si O2"
_cell_formula_units_Z 88
_cell_length_a 20.964655
_cell_length_b 8.066287
_cell_length_c 24.932103
_cell_angle_alpha 90.000000
_cell_angle_beta 90.000000
_cell_angle_gamma 90.000000
_cell_volume 4216.191249
_symmetry_space_group_name_H-M "I B C A "
_symmetry_group_IT_number 73
_symmetry_cell_setting 'orthorhombic'
loop_
_space_group_symop_operation_xyz
x,y,z
-x,1/2-y,z
x,-y,1/2-z
1/2-x,y,-z
-x,-y,-z
x,1/2+y,-z
-x,y,1/2+z
1/2+x,-y,z
1/2+x,1/2+y,1/2+z
1/2-x,-y,1/2+z
1/2+x,1/2-y,-z
-x,1/2+y,1/2-z
1/2-x,1/2-y,1/2-z
1/2+x,y,1/2-z
1/2-x,1/2+y,z
x,1/2-y,1/2+z
loop_
_atom_site_type_symbol
_atom_site_label
_atom_site_fract_x
_atom_site_fract_y
_atom_site_fract_z
Si Si1 0.436151 0.159268 0.967282
Si Si2 0.400627 0.301581 0.071553
Si Si3 0.048275 0.909802 0.802419
Si Si4 0.156143 0.346691 0.106072
Si Si5 0.000000 0.750000 0.658045
Si Si6 0.729710 0.168420 0.563483
O O1 0.500000 0.250000 0.950989
O O2 0.382538 0.276862 0.944097
O O3 0.429784 0.976757 0.945392
O O4 0.427340 0.164210 0.030616
O O5 0.432625 0.254084 0.126862
O O6 0.324782 0.310793 0.066013
O O7 0.104988 0.864686 0.845167
O O8 0.000000 0.750000 0.794767
O O9 0.079419 0.000000 0.750000
O O10 0.003089 0.065099 0.818105
O O11 0.214352 0.214569 0.105217
O O12 0.190570 0.514170 0.087294
O O13 0.750000 0.148594 0.500000
#
# Coordination Sequence:
#
# PCOD9533621 Si02
#       6
#    16  16  16  16   8  16
#     4  12  24  39  62 101 147 184 236 290 351 421
#     4  12  24  39  65 101 142 196 230 284 346 422
#     4  12  27  52  80 109 136 176 240 312 378 427
#     4  12  25  44  68 101 141 193 238 286 349 424
#     4  12  24  46  76 106 142 182 238 300 372 428
#     4  12  25  41  65  99 148 196 233 271 334 426
#
# _framework density 20.871918000000001
#
# number of rings (size 3 to 8) (size 9 to 14) (size 15 to 20)
#    0.000    0.000    5.455    6.000    0.000    0.000 
#    0.000    0.909    0.000    0.000    0.000    0.000 
#    0.000    0.000    0.000    0.000    0.000    0.000 
#
# Total GULP energy -245263.426609 kJ/mol
# GULP energy per Si atom -5574.168787 kJ/mol
# Density = 2.082441 g / cm^3
# Si number density = 20.871918 Si / 1000 Ang^3
#
#
#
# Elastic Constant Matrix: (Units=GPa)
#
#
# Indices 1 2 3 4 5 6 
#
# 1 123.7776 31.3562 21.3116 0.0000 0.0000 0.0000
# 2 31.3562 125.8558 24.0565 0.0000 0.0000 0.0000
# 3 21.3116 24.0565 64.6856 0.0000 0.0000 0.0000
# 4 0.0000 0.0000 0.0000 23.7091 0.0000 0.0000
# 5 0.0000 0.0000 0.0000 0.0000 -3.5541 0.0000
# 6 0.0000 0.0000 0.0000 0.0000 0.0000 44.4534
#
#
#
# Elastic Compliance Matrix: (Units=1/GPa)
#
#
# Indices 1 2 3 4 5 6 
#
# 1 0.008924 -0.001788 -0.002275 0.000000 0.000000 0.000000
# 2 -0.001788 0.008912 -0.002725 0.000000 0.000000 0.000000
# 3 -0.002275 -0.002725 0.017222 0.000000 0.000000 0.000000
# 4 0.000000 0.000000 0.000000 0.042178 0.000000 0.000000
# 5 0.000000 0.000000 0.000000 0.000000 -0.281368 0.000000
# 6 0.000000 0.000000 0.000000 0.000000 0.000000 0.022495
#
#
# Mechanical properties :
#
#
# Convention : Reuss Voigt Hill
#
# Bulk Modulus (GPa) = 46.55252 51.97418 49.26335
# Shear Modulus (GPa) = -31.07548 28.76132 -1.15708
#
# Velocity S-wave (km/s) = -3.86277 3.71616 -0.74537
# Velocity P-wave (km/s) = 1.56770 6.58549 4.78677
#
# Compressibility (1/GPa) = 0.02148111
#
# Stress axis : x y z
#
# Youngs Moduli (GPa) = 112.06034 112.20720 58.06401
#
# Poissons Ratio (x) = 0.20068 0.13209
# Poissons Ratio (y) = 0.20042 0.15823
# Poissons Ratio (z) = 0.25493 0.30578
#
# Static dielectric constant tensor:
#      x y z
#    x 1.861460 0.000000 0.000000 
#    y 0.000000 2.281430 0.000000 
#    z 0.000000 0.000000 1.819630 
# 
# From -- ./inp_files/7046.got.cif
#   From: 2010.05.17/outbox.cif.g08.bks.cpg/sg73_4_cif.got.tgz:7046.got - 2010.06.03 17:35:07.
