data_PCOD9533043
_publ_section_title
;
Structure prediction by ZEFSAII (Michael W. Deem and Ramdas Pophale) SiO2 
 PCOD9533043
Probable space group: I B C A 
;
_chemical_formula_sum "Si O2"
_cell_formula_units_Z 64
_cell_length_a 10.550533
_cell_length_b 27.898519
_cell_length_c 8.684572
_cell_angle_alpha 90.000000
_cell_angle_beta 90.000000
_cell_angle_gamma 90.000000
_cell_volume 2556.253792
_symmetry_space_group_name_H-M "I B C A "
_symmetry_group_IT_number 73
_symmetry_cell_setting 'orthorhombic'
loop_
_space_group_symop_operation_xyz
x,y,z
-x,1/2-y,z
x,-y,1/2-z
1/2-x,y,-z
-x,-y,-z
x,1/2+y,-z
-x,y,1/2+z
1/2+x,-y,z
1/2+x,1/2+y,1/2+z
1/2-x,-y,1/2+z
1/2+x,1/2-y,-z
-x,1/2+y,1/2-z
1/2-x,1/2-y,1/2-z
1/2+x,y,1/2-z
1/2-x,1/2+y,z
x,1/2-y,1/2+z
loop_
_atom_site_type_symbol
_atom_site_label
_atom_site_fract_x
_atom_site_fract_y
_atom_site_fract_z
Si Si1 0.250000 0.524156 0.500000
Si Si2 0.624406 0.217476 0.264946
Si Si3 0.905512 0.910687 0.288362
Si Si4 0.073906 0.500000 0.750000
Si Si5 0.969013 0.343584 0.961174
O O1 0.206135 0.559502 0.364638
O O2 0.149756 0.492299 0.591058
O O3 0.500000 0.250000 0.251468
O O4 0.750000 0.250000 0.250000
O O5 0.590710 0.179121 0.129723
O O6 0.607128 0.193285 0.432175
O O7 0.880200 0.869756 0.163537
O O8 0.977259 0.883331 0.424226
O O9 0.992604 0.952606 0.220393
#
# Coordination Sequence:
#
# PCOD9533043 Si02
#       5
#     8  16  16   8  16
#     4  12  26  42  76 108 146 224 256 322 394 460
#     4  11  26  51  78 114 153 203 261 330 415 489
#     4  11  24  50  69 113 157 201 265 322 384 472
#     4  12  26  46  74 110 168 202 270 316 396 472
#     4  10  25  48  77 113 152 199 259 338 393 482
#
# _framework density 25.036638
#
# number of rings (size 3 to 8) (size 9 to 14) (size 15 to 20)
#    0.000    1.000    2.500    2.250    3.500    8.000 
#    4.500    3.750    0.000    0.000    0.000    0.000 
#    0.000    0.000    0.000    0.000    0.000    0.000 
#
# Total GULP energy -179162.671671 kJ/mol
# GULP energy per Si atom -5598.833490 kJ/mol
# Density = 2.497965 g / cm^3
# Si number density = 25.036638 Si / 1000 Ang^3
#
#
#
# Elastic Constant Matrix: (Units=GPa)
#
#
# Indices 1 2 3 4 5 6 
#
# 1 101.5337 34.5331 44.6410 -0.0002 0.0014 0.0018
# 2 34.5331 96.6102 60.1694 -0.0005 0.0008 0.0006
# 3 44.6410 60.1694 161.1029 0.0001 0.0062 0.0044
# 4 -0.0002 -0.0005 0.0001 102.8507 0.0021 0.0011
# 5 0.0014 0.0008 0.0062 0.0021 37.0549 0.0005
# 6 0.0018 0.0006 0.0044 0.0011 0.0005 23.5379
#
#
#
# Elastic Compliance Matrix: (Units=1/GPa)
#
#
# Indices 1 2 3 4 5 6 
#
# 1 0.011784 -0.002839 -0.002205 0.000000 0.000000 0.000000
# 2 -0.002839 0.014172 -0.004506 0.000000 0.000001 0.000001
# 3 -0.002205 -0.004506 0.008501 0.000000 -0.000001 -0.000001
# 4 0.000000 0.000000 0.000000 0.009723 -0.000001 0.000000
# 5 0.000000 0.000001 -0.000001 -0.000001 0.026987 -0.000001
# 6 0.000000 0.000001 -0.000001 0.000000 -0.000001 0.042485
#
#
# Mechanical properties :
#
#
# Convention : Reuss Voigt Hill
#
# Bulk Modulus (GPa) = 65.11757 70.88152 67.99955
# Shear Modulus (GPa) = 36.26559 47.34891 41.80725
#
# Velocity S-wave (km/s) = 3.81005 4.35349 4.09080
# Velocity P-wave (km/s) = 6.73948 7.32415 7.03789
#
# Compressibility (1/GPa) = 0.01535684
#
# Stress axis : x y z
#
# Youngs Moduli (GPa) = 84.86117 70.56022 117.62884
#
# Poissons Ratio (x) = 0.20031 0.25937
# Poissons Ratio (y) = 0.24091 0.53009
# Poissons Ratio (z) = 0.18712 0.31798
#
# Static dielectric constant tensor:
#      x y z
#    x 2.078000 0.000020 0.000000 
#    y 0.000020 2.522200 0.000020 
#    z 0.000000 0.000020 1.983300 
# 
# From -- ./inp_files/4016.got.cif
#   From: 2010.05.17/outbox.cif.g08.bks.cpg/sg73_3_cif.got.tgz:4016.got - 2010.06.03 17:35:07.
