data_PCOD9533688
_publ_section_title
;
Structure prediction by ZEFSAII (Michael W. Deem and Ramdas Pophale) SiO2 
 PCOD9533688
Probable space group: I B C A 
;
_chemical_formula_sum "Si O2"
_cell_formula_units_Z 48
_cell_length_a 8.393030
_cell_length_b 17.263659
_cell_length_c 13.540669
_cell_angle_alpha 90.000000
_cell_angle_beta 90.000000
_cell_angle_gamma 90.000000
_cell_volume 1961.967217
_symmetry_space_group_name_H-M "I B C A "
_symmetry_group_IT_number 73
_symmetry_cell_setting 'orthorhombic'
loop_
_space_group_symop_operation_xyz
x,y,z
-x,1/2-y,z
x,-y,1/2-z
1/2-x,y,-z
-x,-y,-z
x,1/2+y,-z
-x,y,1/2+z
1/2+x,-y,z
1/2+x,1/2+y,1/2+z
1/2-x,-y,1/2+z
1/2+x,1/2-y,-z
-x,1/2+y,1/2-z
1/2-x,1/2-y,1/2-z
1/2+x,y,1/2-z
1/2-x,1/2+y,z
x,1/2-y,1/2+z
loop_
_atom_site_type_symbol
_atom_site_label
_atom_site_fract_x
_atom_site_fract_y
_atom_site_fract_z
Si Si1 0.047147 0.335805 0.822821
Si Si2 0.250000 0.873989 0.000000
Si Si3 0.761032 0.563937 0.329793
Si Si4 0.000000 0.500000 0.000000
O O1 0.900524 0.390820 0.862576
O O2 0.000000 0.250000 0.793178
O O3 0.127947 0.378427 0.731378
O O4 0.175461 0.326973 0.909918
O O5 0.395064 0.926355 0.037020
O O6 0.708188 0.500000 0.250000
O O7 0.859295 0.522714 0.415902
#
# Coordination Sequence:
#
# PCOD9533688 Si02
#       4
#    16   8  16   8
#     4  12  28  51  81 120 171 217 269 345 422 495
#     4  12  26  46  76 118 154 216 268 338 404 482
#     4  12  26  51  81 120 159 215 275 341 410 491
#     4  12  26  46  84 116 156 204 280 340 400 484
#
# _framework density 24.465239
#
# number of rings (size 3 to 8) (size 9 to 14) (size 15 to 20)
#    0.000    0.000    3.333    6.000    0.000    2.667 
#    0.000    1.667    0.000    0.000    0.000    0.000 
#    0.000    0.000    0.000    0.000    0.000    0.000 
#
# Total GULP energy -133601.124499 kJ/mol
# GULP energy per Si atom -5566.713521 kJ/mol
# Density = 2.440955 g / cm^3
# Si number density = 24.465239 Si / 1000 Ang^3
#
#
#
# Elastic Constant Matrix: (Units=GPa)
#
#
# Indices 1 2 3 4 5 6 
#
# 1 103.4808 41.7518 70.7479 0.0000 0.0000 0.0000
# 2 41.7518 113.1970 35.1083 0.0000 0.0000 0.0000
# 3 70.7479 35.1083 146.7988 0.0001 0.0000 0.0000
# 4 0.0000 0.0000 0.0001 -4.2518 0.0000 0.0000
# 5 0.0000 0.0000 0.0000 0.0000 55.9338 0.0000
# 6 0.0000 0.0000 0.0000 0.0000 0.0000 33.5620
#
#
#
# Elastic Compliance Matrix: (Units=1/GPa)
#
#
# Indices 1 2 3 4 5 6 
#
# 1 0.015748 -0.003731 -0.006697 0.000000 0.000000 0.000000
# 2 -0.003731 0.010426 -0.000695 0.000000 0.000000 0.000000
# 3 -0.006697 -0.000695 0.010206 0.000000 0.000000 0.000000
# 4 0.000000 0.000000 0.000000 -0.235195 0.000000 0.000000
# 5 0.000000 0.000000 0.000000 0.000000 0.017878 0.000000
# 6 0.000000 0.000000 0.000000 0.000000 0.000000 0.029796
#
#
# Mechanical properties :
#
#
# Convention : Reuss Voigt Hill
#
# Bulk Modulus (GPa) = 70.75897 73.18805 71.97351
# Shear Modulus (GPa) = -40.26293 31.44004 -4.41144
#
# Velocity S-wave (km/s) = -4.06115 3.58870 -1.34427
# Velocity P-wave (km/s) = 2.64471 6.86672 5.20318
#
# Compressibility (1/GPa) = 0.01413248
#
# Stress axis : x y z
#
# Youngs Moduli (GPa) = 63.50103 95.91366 97.98276
#
# Poissons Ratio (x) = 0.35789 0.65620
# Poissons Ratio (y) = 0.23694 0.06812
# Poissons Ratio (z) = 0.42527 0.06668
#
# Static dielectric constant tensor:
#      x y z
#    x 1.954250 0.000000 0.000000 
#    y 0.000000 1.934870 0.000000 
#    z 0.000000 0.000000 1.970870 
# 
# From -- ./inp_files/15339.got.cif
#   From: 2010.05.17/outbox.cif.g08.bks.cpg/sg73_8_cif.got.tgz:15339.got - 2010.06.03 17:35:07.
