data_PCOD9533753
_publ_section_title
;
Structure prediction by ZEFSAII (Michael W. Deem and Ramdas Pophale) SiO2 
 PCOD9533753
Probable space group: I B C A 
;
_chemical_formula_sum "Si O2"
_cell_formula_units_Z 60
_cell_length_a 27.000000
_cell_length_b 9.000000
_cell_length_c 24.000000
_cell_angle_alpha 90.000000
_cell_angle_beta 90.000000
_cell_angle_gamma 90.000000
_cell_volume 5832.000000
_symmetry_space_group_name_H-M "I B C A "
_symmetry_group_IT_number 73
_symmetry_cell_setting 'orthorhombic'
loop_
_space_group_symop_operation_xyz
x,y,z
-x,1/2-y,z
x,-y,1/2-z
1/2-x,y,-z
-x,-y,-z
x,1/2+y,-z
-x,y,1/2+z
1/2+x,-y,z
1/2+x,1/2+y,1/2+z
1/2-x,-y,1/2+z
1/2+x,1/2-y,-z
-x,1/2+y,1/2-z
1/2-x,1/2-y,1/2-z
1/2+x,y,1/2-z
1/2-x,1/2+y,z
x,1/2-y,1/2+z
loop_
_atom_site_type_symbol
_atom_site_label
_atom_site_fract_x
_atom_site_fract_y
_atom_site_fract_z
Si Si1 0.040158 0.421623 0.695865
Si Si2 0.146930 0.573653 0.565040
Si Si3 0.383636 0.656467 0.725231
Si Si4 0.000000 0.750000 0.405360
Si Si5 0.682161 0.128884 0.887217
Si Si6 0.758420 0.902707 0.938059
Si Si7 0.859330 0.401615 0.303930
Si Si8 0.897022 0.252557 0.031934
O O1 0.014492 0.500000 0.750000
O O2 0.929623 0.233278 0.708972
O O3 0.010981 0.384999 0.638948
O O4 0.084804 0.537433 0.687385
O O5 0.202195 0.532668 0.546177
O O6 0.156835 0.593658 0.631713
O O7 0.116888 0.422010 0.549383
O O8 0.119218 0.705814 0.531172
O O9 0.399853 0.500000 0.750000
O O10 0.345211 0.638546 0.673287
O O11 0.357821 0.740117 0.777127
O O12 0.952742 0.771881 0.445666
O O13 0.714052 0.983492 0.904322
O O14 0.715949 0.276106 0.899410
O O15 0.637590 0.146294 0.930973
O O16 0.750000 0.836321 0.000000
O O17 0.839763 0.500000 0.250000
#
# Coordination Sequence:
#
# PCOD9533753 Si02
#       8
#    16  16  16   8  16  16  16  16
#     4   9  19  38  67  93 125 179 229 266 332 401
#     4  11  23  42  64  98 129 179 218 279 340 409
#     4  10  21  40  67  96 133 170 223 278 338 393
#     4  12  20  42  68  98 136 182 216 284 346 398
#     4  11  23  43  61 105 128 171 219 282 326 402
#     4  11  22  38  68  93 130 166 226 268 336 394
#     4   9  18  41  66  89 129 181 215 267 342 401
#     4  11  24  40  67  93 140 170 222 276 343 394
#
# _framework density 10.288066000000001
#
# number of rings (size 3 to 8) (size 9 to 14) (size 15 to 20)
#    0.000    1.867    4.000    2.800    1.867    3.200 
#    0.000    3.333    0.000    0.000    0.000    0.000 
#    0.000    0.000    0.000    0.000    0.000    0.000 
#
# Total GULP energy -334210.360436 kJ/mol
# GULP energy per Si atom -5570.172674 kJ/mol
# Density = 1.026465 g / cm^3
# Si number density = 10.288066 Si / 1000 Ang^3
#
#
#
# Elastic Constant Matrix: (Units=GPa)
#
#
# Indices 1 2 3 4 5 6 
#
# 1 97.4225 28.8810 29.6785 0.0000 0.0000 0.0000
# 2 28.8810 75.1323 31.4978 0.0000 0.0000 0.0000
# 3 29.6785 31.4978 145.1082 0.0000 0.0000 0.0000
# 4 0.0000 0.0000 0.0000 30.2922 0.0000 0.0000
# 5 0.0000 0.0000 0.0000 0.0000 29.3407 0.0000
# 6 0.0000 0.0000 0.0000 0.0000 0.0000 20.8980
#
#
#
# Elastic Compliance Matrix: (Units=1/GPa)
#
#
# Indices 1 2 3 4 5 6 
#
# 1 0.011908 -0.003912 -0.001586 0.000000 0.000000 0.000000
# 2 -0.003912 0.015928 -0.002657 0.000000 0.000000 0.000000
# 3 -0.001586 -0.002657 0.007793 0.000000 0.000000 0.000000
# 4 0.000000 0.000000 0.000000 0.033012 0.000000 0.000000
# 5 0.000000 0.000000 0.000000 0.000000 0.034082 0.000000
# 6 0.000000 0.000000 0.000000 0.000000 0.000000 0.047852
#
#
# Mechanical properties :
#
#
# Convention : Reuss Voigt Hill
#
# Bulk Modulus (GPa) = 51.76906 55.30863 53.53885
# Shear Modulus (GPa) = 28.84775 31.27990 30.06383
#
# Velocity S-wave (km/s) = 3.74839 3.90321 3.82658
# Velocity P-wave (km/s) = 6.62935 6.87399 6.75278
#
# Compressibility (1/GPa) = 0.01931656
#
# Stress axis : x y z
#
# Youngs Moduli (GPa) = 83.97999 62.78366 128.32685
#
# Poissons Ratio (x) = 0.24563 0.20355
# Poissons Ratio (y) = 0.32856 0.34098
# Poissons Ratio (z) = 0.13321 0.16683
#
# Static dielectric constant tensor:
#      x y z
#    x 1.793330 0.000000 0.000000 
#    y 0.000000 1.780360 0.000000 
#    z 0.000000 0.000000 1.804510 
# 
# From -- ./inp_files/30517.got.cif
#   From: 2010.05.17/outbox.ucp.g08.bks.cvg/sg73_16_cif.got.tgz:30517.got - 2010.06.11 16:36:03.
