data_PCOD9533905
_publ_section_title
;
Structure prediction by ZEFSAII (Michael W. Deem and Ramdas Pophale) SiO2 
 PCOD9533905
Probable space group: I M M A
;
_chemical_formula_sum "Si O2"
_cell_formula_units_Z 72
_cell_length_a 14.240607
_cell_length_b 23.270908
_cell_length_c 13.905119
_cell_angle_alpha 90.000000
_cell_angle_beta 90.000000
_cell_angle_gamma 90.000000
_cell_volume 4608.043184
_symmetry_space_group_name_H-M "I M M A"
_symmetry_group_IT_number 74
_symmetry_cell_setting 'orthorhombic'
loop_
_space_group_symop_operation_xyz
x,y,z
-x,1/2-y,z
x,-y,-z
-x,1/2+y,-z
-x,-y,-z
x,1/2+y,-z
-x,y,z
x,1/2-y,z
1/2+x,1/2+y,1/2+z
1/2-x,-y,1/2+z
1/2+x,1/2-y,1/2-z
1/2-x,y,1/2-z
1/2-x,1/2-y,1/2-z
1/2+x,y,1/2-z
1/2-x,1/2+y,1/2+z
1/2+x,-y,1/2+z
loop_
_atom_site_type_symbol
_atom_site_label
_atom_site_fract_x
_atom_site_fract_y
_atom_site_fract_z
Si Si1 0.210600 0.588717 0.527930
Si Si2 0.500000 0.888681 0.759183
Si Si3 0.000000 0.985576 0.885977
Si Si4 0.175438 0.185647 0.334140
Si Si5 0.500000 0.561812 0.956133
Si Si6 0.289655 0.478787 0.644690
O O1 0.224223 0.649032 0.580993
O O2 0.098304 0.588626 0.511555
O O3 0.241237 0.536875 0.600548
O O4 0.263673 0.571636 0.430486
O O5 0.500000 0.919751 0.655686
O O6 0.410285 0.850442 0.787886
O O7 0.500000 0.938633 0.840241
O O8 0.901177 0.011230 0.850698
O O9 0.000000 0.000000 0.000000
O O10 0.146020 0.250000 0.364040
O O11 0.250000 0.190353 0.250000
O O12 0.500000 0.500000 0.000000
O O13 0.250000 0.468390 0.750000
#
# Coordination Sequence:
#
# PCOD9533905 Si02
#       6
#    16   8   8  16   8  16
#     4  10  19  31  49  72 106 135 177 225 265 320
#     4  10  21  32  52  71 112 130 175 216 259 319
#     4  12  22  33  49  79 106 151 167 214 271 332
#     4  10  20  34  53  74 100 140 181 222 269 314
#     4  10  16  29  47  72  96 140 164 210 264 317
#     4  11  21  32  50  75 108 142 179 212 275 329
#
# _framework density 15.624853999999999
#
# number of rings (size 3 to 8) (size 9 to 14) (size 15 to 20)
#    0.000    1.556    4.444    5.000    0.000    0.000 
#    0.000    0.000    0.000    0.667    0.000    0.000 
#    0.000    0.000    0.000    0.000    0.000    0.000 
#
# Total GULP energy -200408.885974 kJ/mol
# GULP energy per Si atom -5566.913499 kJ/mol
# Density = 1.558929 g / cm^3
# Si number density = 15.624854 Si / 1000 Ang^3
#
#
#
# Elastic Constant Matrix: (Units=GPa)
#
#
# Indices 1 2 3 4 5 6 
#
# 1 112.0936 22.7263 31.2394 0.0000 0.0000 0.0000
# 2 22.7263 97.0481 59.8832 -0.0001 0.0000 0.0000
# 3 31.2394 59.8832 104.8214 -0.0002 0.0000 0.0000
# 4 0.0000 -0.0001 -0.0002 22.2845 0.0000 0.0000
# 5 0.0000 0.0000 0.0000 0.0000 25.5048 0.0000
# 6 0.0000 0.0000 0.0000 0.0000 0.0000 17.2500
#
#
#
# Elastic Compliance Matrix: (Units=1/GPa)
#
#
# Indices 1 2 3 4 5 6 
#
# 1 0.009765 -0.000758 -0.002477 0.000000 0.000000 0.000000
# 2 -0.000758 0.015973 -0.008899 0.000000 0.000000 0.000000
# 3 -0.002477 -0.008899 0.015362 0.000000 0.000000 0.000000
# 4 0.000000 0.000000 0.000000 0.044874 0.000000 0.000000
# 5 0.000000 0.000000 0.000000 0.000000 0.039208 0.000000
# 6 0.000000 0.000000 0.000000 0.000000 0.000000 0.057971
#
#
# Mechanical properties :
#
#
# Convention : Reuss Voigt Hill
#
# Bulk Modulus (GPa) = 59.41302 60.18455 59.79878
# Shear Modulus (GPa) = 23.47050 26.34880 24.90965
#
# Velocity S-wave (km/s) = 3.87993 4.11096 3.99712
# Velocity P-wave (km/s) = 7.62752 7.81891 7.72381
#
# Compressibility (1/GPa) = 0.01683133
#
# Stress axis : x y z
#
# Youngs Moduli (GPa) = 102.40454 62.60595 65.09473
#
# Poissons Ratio (x) = 0.04747 0.16124
# Poissons Ratio (y) = 0.07765 0.57929
# Poissons Ratio (z) = 0.25366 0.55714
#
# Static dielectric constant tensor:
#      x y z
#    x 1.520600 0.000000 0.000000 
#    y 0.000000 1.548710 0.000000 
#    z 0.000000 0.000000 1.527160 
# 
# From -- ./inp_files/30634.got.cif
#   From: 2010.05.17/outbox.cif.g08.bks.cpg/sg74_16_cif.got.tgz:30634.got - 2010.06.03 17:57:02.
