data_PCOD9533559
_publ_section_title
;
Structure prediction by ZEFSAII (Michael W. Deem and Ramdas Pophale) SiO2 
 PCOD9533559
Probable space group: I B C A 
;
_chemical_formula_sum "Si O2"
_cell_formula_units_Z 112
_cell_length_a 11.017139
_cell_length_b 31.467723
_cell_length_c 13.797284
_cell_angle_alpha 90.000000
_cell_angle_beta 90.000000
_cell_angle_gamma 90.000000
_cell_volume 4783.301446
_symmetry_space_group_name_H-M "I B C A "
_symmetry_group_IT_number 73
_symmetry_cell_setting 'orthorhombic'
loop_
_space_group_symop_operation_xyz
x,y,z
-x,1/2-y,z
x,-y,1/2-z
1/2-x,y,-z
-x,-y,-z
x,1/2+y,-z
-x,y,1/2+z
1/2+x,-y,z
1/2+x,1/2+y,1/2+z
1/2-x,-y,1/2+z
1/2+x,1/2-y,-z
-x,1/2+y,1/2-z
1/2-x,1/2-y,1/2-z
1/2+x,y,1/2-z
1/2-x,1/2+y,z
x,1/2-y,1/2+z
loop_
_atom_site_type_symbol
_atom_site_label
_atom_site_fract_x
_atom_site_fract_y
_atom_site_fract_z
Si Si1 0.348279 0.958717 0.681719
Si Si2 0.692924 0.888239 0.711030
Si Si3 0.250000 0.334584 0.500000
Si Si4 0.866699 0.737187 0.375201
Si Si5 0.332711 0.302766 0.170111
Si Si6 0.968274 0.630789 0.617957
Si Si7 0.932125 0.067910 0.039844
Si Si8 0.750000 0.003871 0.500000
O O1 0.288740 0.921237 0.744075
O O2 0.461339 0.944310 0.615340
O O3 0.372277 0.000000 0.750000
O O4 0.249475 0.970614 0.599491
O O5 0.750990 0.841841 0.707255
O O6 0.570973 0.884709 0.775679
O O7 0.659857 0.904406 0.604552
O O8 0.171874 0.304759 0.569138
O O9 0.159009 0.360650 0.434517
O O10 0.874833 0.725215 0.261516
O O11 0.760286 0.772213 0.387364
O O12 0.000000 0.750000 0.409324
O O13 0.447665 0.326860 0.122319
O O14 0.029368 0.595255 0.552229
O O15 0.866891 0.026029 0.001810
#
# Coordination Sequence:
#
# PCOD9533559 Si02
#       8
#    16  16   8  16  16  16  16   8
#     4  12  27  46  75 107 151 197 245 311 378 448
#     4  12  25  50  74 110 150 200 251 303 382 452
#     4  12  28  47  73 116 146 194 252 312 387 449
#     4  11  27  47  76 109 150 195 247 314 379 452
#     4  11  26  49  76 109 148 199 251 309 379 458
#     4  12  27  47  78 110 154 196 257 317 376 456
#     4  12  28  45  78 109 148 195 252 310 377 451
#     4  12  26  51  69 114 146 188 258 306 379 455
#
# _framework density 23.41479
#
# number of rings (size 3 to 8) (size 9 to 14) (size 15 to 20)
#    0.000    0.286    2.857    4.714   12.000    0.000 
#    0.000    0.000    0.000    0.000    0.000    0.000 
#    0.000    0.000    0.000    0.000    0.000    0.000 
#
# Total GULP energy -313794.047509 kJ/mol
# GULP energy per Si atom -5603.465134 kJ/mol
# Density = 2.336150 g / cm^3
# Si number density = 23.414790 Si / 1000 Ang^3
#
#
#
# Elastic Constant Matrix: (Units=GPa)
#
#
# Indices 1 2 3 4 5 6 
#
# 1 78.4776 6.0462 11.6803 0.0002 0.0000 0.0000
# 2 6.0462 67.8663 12.4123 0.0001 0.0000 0.0001
# 3 11.6803 12.4123 79.4424 -0.0003 0.0000 0.0003
# 4 0.0002 0.0001 -0.0003 23.4088 0.0000 0.0003
# 5 0.0000 0.0000 0.0000 0.0000 43.8327 -0.0001
# 6 0.0000 0.0001 0.0003 0.0003 -0.0001 93.6982
#
#
#
# Elastic Compliance Matrix: (Units=1/GPa)
#
#
# Indices 1 2 3 4 5 6 
#
# 1 0.013074 -0.000837 -0.001791 0.000000 0.000000 0.000000
# 2 -0.000837 0.015222 -0.002255 0.000000 0.000000 0.000000
# 3 -0.001791 -0.002255 0.013203 0.000000 0.000000 0.000000
# 4 0.000000 0.000000 0.000000 0.042719 0.000000 0.000000
# 5 0.000000 0.000000 0.000000 0.000000 0.022814 0.000000
# 6 0.000000 0.000000 0.000000 0.000000 0.000000 0.010673
#
#
# Mechanical properties :
#
#
# Convention : Reuss Voigt Hill
#
# Bulk Modulus (GPa) = 31.51440 31.78488 31.64964
# Shear Modulus (GPa) = 36.21897 45.23110 40.72503
#
# Velocity S-wave (km/s) = 3.93726 4.39992 4.17500
# Velocity P-wave (km/s) = 5.84446 6.27826 6.06524
#
# Compressibility (1/GPa) = 0.03173153
#
# Stress axis : x y z
#
# Youngs Moduli (GPa) = 76.49000 65.69477 75.73757
#
# Poissons Ratio (x) = 0.05499 0.13568
# Poissons Ratio (y) = 0.06403 0.17081
# Poissons Ratio (z) = 0.13702 0.14816
#
# Static dielectric constant tensor:
#      x y z
#    x 1.869610 0.000000 0.000000 
#    y 0.000000 1.823560 0.000000 
#    z 0.000000 0.000000 1.713610 
# 
# From -- ./inp_files/16374.got.cif
#   From: 2010.05.17/outbox.cif.g08.bks.cpg/sg73_9_cif.got.tgz:16374.got - 2010.06.03 17:35:07.
