data_PCOD9533569
_publ_section_title
;
Structure prediction by ZEFSAII (Michael W. Deem and Ramdas Pophale) SiO2 
 PCOD9533569
Probable space group: I B C A 
;
_chemical_formula_sum "Si O2"
_cell_formula_units_Z 48
_cell_length_a 8.108060
_cell_length_b 9.689439
_cell_length_c 25.397563
_cell_angle_alpha 90.000000
_cell_angle_beta 90.000000
_cell_angle_gamma 90.000000
_cell_volume 1995.297384
_symmetry_space_group_name_H-M "I B C A "
_symmetry_group_IT_number 73
_symmetry_cell_setting 'orthorhombic'
loop_
_space_group_symop_operation_xyz
x,y,z
-x,1/2-y,z
x,-y,1/2-z
1/2-x,y,-z
-x,-y,-z
x,1/2+y,-z
-x,y,1/2+z
1/2+x,-y,z
1/2+x,1/2+y,1/2+z
1/2-x,-y,1/2+z
1/2+x,1/2-y,-z
-x,1/2+y,1/2-z
1/2-x,1/2-y,1/2-z
1/2+x,y,1/2-z
1/2-x,1/2+y,z
x,1/2-y,1/2+z
loop_
_atom_site_type_symbol
_atom_site_label
_atom_site_fract_x
_atom_site_fract_y
_atom_site_fract_z
Si Si1 0.738781 0.297904 0.309980
Si Si2 0.593783 0.107855 0.036304
Si Si3 0.086994 0.539462 0.851452
O O1 0.750000 0.250000 0.250000
O O2 0.885996 0.405069 0.316217
O O3 0.725169 0.158246 0.343689
O O4 0.580160 0.385594 0.331648
O O5 0.500000 0.250000 0.047483
O O6 0.611454 0.022887 0.090426
O O7 0.750000 0.145901 0.000000
O O8 0.500000 0.000000 0.000000
#
# Coordination Sequence:
#
# PCOD9533569 Si02
#       3
#    16  16  16
#     4  11  27  50  78 111 163 212 273 329 414 485
#     4  12  29  51  84 118 164 218 281 351 430 504
#     4  11  28  50  77 117 160 211 274 342 405 501
#
# _framework density 24.056566
#
# number of rings (size 3 to 8) (size 9 to 14) (size 15 to 20)
#    0.000    0.667    0.000    4.000   18.667   10.667 
#    0.000    0.000    0.000    0.000    0.000    0.000 
#    0.000    0.000    0.000    0.000    0.000    0.000 
#
# Total GULP energy -134202.699347 kJ/mol
# GULP energy per Si atom -5591.779139 kJ/mol
# Density = 2.400181 g / cm^3
# Si number density = 24.056566 Si / 1000 Ang^3
#
#
#
# Elastic Constant Matrix: (Units=GPa)
#
#
# Indices 1 2 3 4 5 6 
#
# 1 82.6541 55.7786 45.6213 0.0000 0.0000 0.0000
# 2 55.7786 248.9920 127.1969 0.0000 0.0000 0.0000
# 3 45.6213 127.1969 208.5662 0.0000 0.0000 0.0000
# 4 0.0000 0.0000 0.0000 63.4205 0.0000 0.0000
# 5 0.0000 0.0000 0.0000 0.0000 35.0057 0.0000
# 6 0.0000 0.0000 0.0000 0.0000 0.0000 59.1391
#
#
#
# Elastic Compliance Matrix: (Units=1/GPa)
#
#
# Indices 1 2 3 4 5 6 
#
# 1 0.014681 -0.002394 -0.001751 0.000000 0.000000 0.000000
# 2 -0.002394 0.006224 -0.003272 0.000000 0.000000 0.000000
# 3 -0.001751 -0.003272 0.007173 0.000000 0.000000 0.000000
# 4 0.000000 0.000000 0.000000 0.015768 0.000000 0.000000
# 5 0.000000 0.000000 0.000000 0.000000 0.028567 0.000000
# 6 0.000000 0.000000 0.000000 0.000000 0.000000 0.016909
#
#
# Mechanical properties :
#
#
# Convention : Reuss Voigt Hill
#
# Bulk Modulus (GPa) = 75.51014 110.82285 93.16649
# Shear Modulus (GPa) = 46.05263 52.28744 49.17004
#
# Velocity S-wave (km/s) = 4.38007 4.66716 4.52589
# Velocity P-wave (km/s) = 7.55227 8.67242 8.13165
#
# Compressibility (1/GPa) = 0.01324325
#
# Stress axis : x y z
#
# Youngs Moduli (GPa) = 68.11586 160.66553 139.40708
#
# Poissons Ratio (x) = 0.38467 0.24412
# Poissons Ratio (y) = 0.16308 0.45616
# Poissons Ratio (z) = 0.11928 0.52572
#
# Static dielectric constant tensor:
#      x y z
#    x 1.971620 0.000000 0.000000 
#    y 0.000000 1.845990 0.000000 
#    z 0.000000 0.000000 1.590300 
# 
# From -- ./inp_files/3458.got.cif
#   From: 2010.05.17/outbox.cif.g08.bks.cpg/sg73_2_cif.got.tgz:3458.got - 2010.06.03 17:35:07.
