data_PCOD9533566
_publ_section_title
;
Structure prediction by ZEFSAII (Michael W. Deem and Ramdas Pophale) SiO2 
 PCOD9533566
Probable space group: I B C A 
;
_chemical_formula_sum "Si O2"
_cell_formula_units_Z 112
_cell_length_a 11.284943
_cell_length_b 22.033168
_cell_length_c 22.145466
_cell_angle_alpha 90.000000
_cell_angle_beta 90.000000
_cell_angle_gamma 90.000000
_cell_volume 5506.316099
_symmetry_space_group_name_H-M "I B C A "
_symmetry_group_IT_number 73
_symmetry_cell_setting 'orthorhombic'
loop_
_space_group_symop_operation_xyz
x,y,z
-x,1/2-y,z
x,-y,1/2-z
1/2-x,y,-z
-x,-y,-z
x,1/2+y,-z
-x,y,1/2+z
1/2+x,-y,z
1/2+x,1/2+y,1/2+z
1/2-x,-y,1/2+z
1/2+x,1/2-y,-z
-x,1/2+y,1/2-z
1/2-x,1/2-y,1/2-z
1/2+x,y,1/2-z
1/2-x,1/2+y,z
x,1/2-y,1/2+z
loop_
_atom_site_type_symbol
_atom_site_label
_atom_site_fract_x
_atom_site_fract_y
_atom_site_fract_z
Si Si1 0.215588 0.500000 0.750000
Si Si2 0.250000 0.135032 0.500000
Si Si3 0.099142 0.172008 0.849509
Si Si4 0.441756 0.069429 0.846532
Si Si5 0.903870 0.026130 0.047316
Si Si6 0.324552 0.195362 0.625760
Si Si7 0.847524 0.875777 0.282558
Si Si8 0.264648 0.409137 0.566675
O O1 0.132643 0.473808 0.697204
O O2 0.293039 0.443280 0.773314
O O3 0.146849 0.089941 0.523993
O O4 0.295880 0.173021 0.557740
O O5 0.171170 0.231801 0.869823
O O6 0.142443 0.154317 0.782982
O O7 0.128906 0.119782 0.896909
O O8 0.957996 0.179607 0.852824
O O9 0.531725 0.033378 0.888995
O O10 0.520500 0.115923 0.808613
O O11 0.350554 0.099790 0.892860
O O12 0.796028 0.979885 0.058342
O O13 0.000000 0.000000 0.000000
O O14 0.232990 0.162763 0.671375
O O15 0.250000 0.382967 0.500000
#
# Coordination Sequence:
#
# PCOD9533566 Si02
#       8
#     8   8  16  16  16  16  16  16
#     4  12  26  42  68 106 140 174 230 294 360 422
#     4  12  24  46  70 108 140 186 238 292 360 434
#     4  11  27  48  71 100 137 192 240 298 357 415
#     4  12  25  41  65 107 141 185 227 291 360 430
#     4  12  23  41  68 103 143 187 228 285 367 431
#     4  11  27  48  74  97 140 191 243 298 352 425
#     4  12  25  46  71 101 142 186 238 293 359 434
#     4  12  25  43  68 102 140 181 231 294 354 426
#
# _framework density 20.340278000000001
#
# number of rings (size 3 to 8) (size 9 to 14) (size 15 to 20)
#    0.000    0.286    5.000    3.429    7.000    0.000 
#    0.000    0.000    0.000    0.000    0.000    0.000 
#    0.000    0.000    0.000    0.000    0.000    0.000 
#
# Total GULP energy -313192.253296 kJ/mol
# GULP energy per Si atom -5592.718809 kJ/mol
# Density = 2.029398 g / cm^3
# Si number density = 20.340278 Si / 1000 Ang^3
#
#
#
# Elastic Constant Matrix: (Units=GPa)
#
#
# Indices 1 2 3 4 5 6 
#
# 1 76.2940 28.4317 41.8212 0.0000 0.0000 0.0000
# 2 28.4317 88.4055 49.5561 0.0000 0.0000 0.0000
# 3 41.8212 49.5561 163.0696 0.0000 0.0000 0.0000
# 4 0.0000 0.0000 0.0000 17.0761 0.0000 0.0000
# 5 0.0000 0.0000 0.0000 0.0000 52.4537 0.0000
# 6 0.0000 0.0000 0.0000 0.0000 0.0000 43.0962
#
#
#
# Elastic Compliance Matrix: (Units=1/GPa)
#
#
# Indices 1 2 3 4 5 6 
#
# 1 0.016078 -0.003446 -0.003076 0.000000 0.000000 0.000000
# 2 -0.003446 0.014373 -0.003484 0.000000 0.000000 0.000000
# 3 -0.003076 -0.003484 0.007980 0.000000 0.000000 0.000000
# 4 0.000000 0.000000 0.000000 0.058562 0.000000 0.000000
# 5 0.000000 0.000000 0.000000 0.000000 0.019064 0.000000
# 6 0.000000 0.000000 0.000000 0.000000 0.000000 0.023204
#
#
# Mechanical properties :
#
#
# Convention : Reuss Voigt Hill
#
# Bulk Modulus (GPa) = 54.29535 63.04303 58.66919
# Shear Modulus (GPa) = 30.22750 36.38919 33.30835
#
# Velocity S-wave (km/s) = 3.85917 4.23427 4.05106
# Velocity P-wave (km/s) = 6.82708 7.41396 7.12657
#
# Compressibility (1/GPa) = 0.01841778
#
# Stress axis : x y z
#
# Youngs Moduli (GPa) = 62.19817 69.57563 125.31353
#
# Poissons Ratio (x) = 0.23979 0.38546
# Poissons Ratio (y) = 0.21436 0.43659
# Poissons Ratio (z) = 0.19132 0.24240
#
# Static dielectric constant tensor:
#      x y z
#    x 1.806460 0.000000 0.000000 
#    y 0.000000 1.728470 0.000000 
#    z 0.000000 0.000000 1.836590 
# 
# From -- ./inp_files/25604.got.cif
#   From: 2010.05.17/outbox.cif.g08.bks.cpg/sg73_13_cif.got.tgz:25604.got - 2010.06.03 17:35:07.
