data_PCOD9533075
_publ_section_title
;
Structure prediction by ZEFSAII (Michael W. Deem and Ramdas Pophale) SiO2 
 PCOD9533075
Probable space group: I B C A 
;
_chemical_formula_sum "Si O2"
_cell_formula_units_Z 104
_cell_length_a 10.969197
_cell_length_b 26.741188
_cell_length_c 16.605454
_cell_angle_alpha 90.000000
_cell_angle_beta 90.000000
_cell_angle_gamma 90.000000
_cell_volume 4870.867181
_symmetry_space_group_name_H-M "I B C A "
_symmetry_group_IT_number 73
_symmetry_cell_setting 'orthorhombic'
loop_
_space_group_symop_operation_xyz
x,y,z
-x,1/2-y,z
x,-y,1/2-z
1/2-x,y,-z
-x,-y,-z
x,1/2+y,-z
-x,y,1/2+z
1/2+x,-y,z
1/2+x,1/2+y,1/2+z
1/2-x,-y,1/2+z
1/2+x,1/2-y,-z
-x,1/2+y,1/2-z
1/2-x,1/2-y,1/2-z
1/2+x,y,1/2-z
1/2-x,1/2+y,z
x,1/2-y,1/2+z
loop_
_atom_site_type_symbol
_atom_site_label
_atom_site_fract_x
_atom_site_fract_y
_atom_site_fract_z
Si Si1 0.348893 0.954088 0.403553
Si Si2 0.109436 0.089290 0.163023
Si Si3 0.479629 0.000000 0.250000
Si Si4 0.750000 0.457036 0.500000
Si Si5 0.059485 0.381501 0.939044
Si Si6 0.850015 0.330154 0.296771
Si Si7 0.000000 0.750000 0.286956
Si Si8 0.901307 0.339808 0.607311
O O1 0.217203 0.928168 0.395396
O O2 0.440493 0.915750 0.445998
O O3 0.399521 0.970237 0.315813
O O4 0.336696 0.005995 0.451042
O O5 0.162637 0.132418 0.221604
O O6 0.983358 0.112025 0.129120
O O7 0.067321 0.040290 0.209454
O O8 0.829514 0.421414 0.442792
O O9 0.046302 0.353042 0.854617
O O10 0.088959 0.342387 0.010692
O O11 0.893550 0.275456 0.267355
O O12 0.732386 0.336001 0.353793
O O13 0.962871 0.794026 0.346817
#
# Coordination Sequence:
#
# PCOD9533075 Si02
#       8
#    16  16   8   8  16  16   8  16
#     4  12  25  39  64  99 141 189 238 280 332 410
#     4  11  24  39  65  98 138 183 234 283 333 403
#     4  12  22  38  62 100 136 190 238 280 338 402
#     4  12  24  42  62  98 142 188 234 272 346 406
#     4  12  24  43  68  97 138 185 222 285 343 409
#     4  11  23  45  69 101 131 174 226 282 351 414
#     4  10  26  44  76 102 124 168 224 294 354 420
#     4  11  23  46  69  96 134 173 222 285 353 418
#
# _framework density 21.351434999999999
#
# number of rings (size 3 to 8) (size 9 to 14) (size 15 to 20)
#    0.000    0.615    3.077    5.077    4.308    0.615 
#    0.000    0.000    0.000    0.000    0.000    0.000 
#    0.000    0.000    0.000    0.000    0.000    0.000 
#
# Total GULP energy -290422.026283 kJ/mol
# GULP energy per Si atom -5585.038967 kJ/mol
# Density = 2.130284 g / cm^3
# Si number density = 21.351435 Si / 1000 Ang^3
#
#
#
# Elastic Constant Matrix: (Units=GPa)
#
#
# Indices 1 2 3 4 5 6 
#
# 1 75.3867 35.5550 3.6483 0.0000 0.0000 0.0000
# 2 35.5550 109.2516 24.8602 0.0001 0.0000 -0.0002
# 3 3.6483 24.8602 57.6626 0.0002 0.0002 -0.0016
# 4 0.0000 0.0001 0.0002 18.5485 0.0001 -0.0006
# 5 0.0000 0.0000 0.0002 0.0001 23.7528 0.0003
# 6 0.0000 -0.0002 -0.0016 -0.0006 0.0003 117.6616
#
#
#
# Elastic Compliance Matrix: (Units=1/GPa)
#
#
# Indices 1 2 3 4 5 6 
#
# 1 0.015764 -0.005437 0.001347 0.000000 0.000000 0.000000
# 2 -0.005437 0.012024 -0.004840 0.000000 0.000000 0.000000
# 3 0.001347 -0.004840 0.019344 0.000000 0.000000 0.000000
# 4 0.000000 0.000000 0.000000 0.053913 0.000000 0.000000
# 5 0.000000 0.000000 0.000000 0.000000 0.042100 0.000000
# 6 0.000000 0.000000 0.000000 0.000000 0.000000 0.008499
#
#
# Mechanical properties :
#
#
# Convention : Reuss Voigt Hill
#
# Bulk Modulus (GPa) = 34.16299 41.15865 37.66082
# Shear Modulus (GPa) = 27.89236 43.87506 35.88371
#
# Velocity S-wave (km/s) = 3.61826 4.53802 4.10399
# Velocity P-wave (km/s) = 5.78713 6.83935 6.33512
#
# Compressibility (1/GPa) = 0.02927144
#
# Stress axis : x y z
#
# Youngs Moduli (GPa) = 63.43619 83.16835 51.69641
#
# Poissons Ratio (x) = 0.45216 -0.06961
# Poissons Ratio (y) = 0.34488 0.25020
# Poissons Ratio (z) = -0.08542 0.40252
#
# Static dielectric constant tensor:
#      x y z
#    x 1.837850 0.000000 0.000000 
#    y 0.000000 1.740990 0.000000 
#    z 0.000000 0.000000 1.918550 
# 
# From -- ./inp_files/21485.got.cif
#   From: 2010.05.17/outbox.cif.g08.bks.cpg/sg73_11_cif.got.tgz:21485.got - 2010.06.03 17:35:07.
