data_PCOD9533770
_publ_section_title
;
Structure prediction by ZEFSAII (Michael W. Deem and Ramdas Pophale) SiO2 
 PCOD9533770
Probable space group: I B C A 
;
_chemical_formula_sum "Si O2"
_cell_formula_units_Z 52
_cell_length_a 27.000000
_cell_length_b 9.000000
_cell_length_c 21.000000
_cell_angle_alpha 90.000000
_cell_angle_beta 90.000000
_cell_angle_gamma 90.000000
_cell_volume 5103.000000
_symmetry_space_group_name_H-M "I B C A "
_symmetry_group_IT_number 73
_symmetry_cell_setting 'orthorhombic'
loop_
_space_group_symop_operation_xyz
x,y,z
-x,1/2-y,z
x,-y,1/2-z
1/2-x,y,-z
-x,-y,-z
x,1/2+y,-z
-x,y,1/2+z
1/2+x,-y,z
1/2+x,1/2+y,1/2+z
1/2-x,-y,1/2+z
1/2+x,1/2-y,-z
-x,1/2+y,1/2-z
1/2-x,1/2-y,1/2-z
1/2+x,y,1/2-z
1/2-x,1/2+y,z
x,1/2-y,1/2+z
loop_
_atom_site_type_symbol
_atom_site_label
_atom_site_fract_x
_atom_site_fract_y
_atom_site_fract_z
Si Si1 0.500000 0.250000 0.203334
Si Si2 0.964450 0.963682 0.594185
Si Si3 0.750000 0.298711 0.000000
Si Si4 0.223746 0.559583 0.594127
Si Si5 0.605088 0.676204 0.251620
Si Si6 0.500000 0.750000 0.013367
Si Si7 0.870508 0.437624 0.322396
Si Si8 0.289517 0.349341 0.791062
O O1 0.496123 0.390396 0.153568
O O2 0.548723 0.260446 0.248050
O O3 0.912437 0.990594 0.629223
O O4 0.964451 0.838861 0.537431
O O5 0.981186 0.116487 0.559572
O O6 0.784960 0.187629 0.959060
O O7 0.729457 0.410014 0.946413
O O8 0.181883 0.534181 0.646518
O O9 0.269720 0.612088 0.638483
O O10 0.599271 0.500000 0.250000
O O11 0.623807 0.758128 0.315793
O O12 0.653262 0.708647 0.206760
O O13 0.876103 0.500000 0.250000
O O14 0.292376 0.500000 0.750000
O O15 0.250000 0.250000 0.750000
#
# Coordination Sequence:
#
# PCOD9533770 Si02
#       8
#     8  16   8  16  16   8  16  16
#     4   9  20  40  57  92 145 162 219 284 322 417
#     4   9  20  38  66  94 130 171 229 278 331 406
#     4  10  26  42  64  90 128 192 222 278 330 390
#     4  11  23  43  64  94 137 174 228 281 333 416
#     4  10  23  39  62  99 129 181 212 266 356 400
#     4   9  18  40  69  92 119 192 221 278 332 389
#     4  11  24  40  63 102 134 174 222 285 354 405
#     4  11  21  37  68 100 132 172 219 280 343 418
#
# _framework density 10.190084000000001
#
# number of rings (size 3 to 8) (size 9 to 14) (size 15 to 20)
#    0.000    1.846    1.538    1.385    4.308    4.923 
#    0.000    1.538    0.000    0.000    0.000    0.000 
#    0.000    1.231    0.000    0.000    0.000    0.000 
#
# Total GULP energy -289509.871338 kJ/mol
# GULP energy per Si atom -5567.497526 kJ/mol
# Density = 1.016689 g / cm^3
# Si number density = 10.190084 Si / 1000 Ang^3
#
#
#
# Elastic Constant Matrix: (Units=GPa)
#
#
# Indices 1 2 3 4 5 6 
#
# 1 140.9136 31.1130 62.6848 0.0000 0.0000 0.0000
# 2 31.1130 131.6701 45.6328 0.0000 0.0000 0.0000
# 3 62.6848 45.6328 118.8488 0.0000 0.0000 0.0000
# 4 0.0000 0.0000 0.0000 48.0034 0.0000 0.0000
# 5 0.0000 0.0000 0.0000 0.0000 38.4783 0.0000
# 6 0.0000 0.0000 0.0000 0.0000 0.0000 13.5808
#
#
#
# Elastic Compliance Matrix: (Units=1/GPa)
#
#
# Indices 1 2 3 4 5 6 
#
# 1 0.009310 -0.000575 -0.004690 0.000000 0.000000 0.000000
# 2 -0.000575 0.008796 -0.003074 0.000000 0.000000 0.000000
# 3 -0.004690 -0.003074 0.012068 0.000000 0.000000 0.000000
# 4 0.000000 0.000000 0.000000 0.020832 0.000000 0.000000
# 5 0.000000 0.000000 0.000000 0.000000 0.025989 0.000000
# 6 0.000000 0.000000 0.000000 0.000000 0.000000 0.073633
#
#
# Mechanical properties :
#
#
# Convention : Reuss Voigt Hill
#
# Bulk Modulus (GPa) = 74.09239 74.47710 74.28475
# Shear Modulus (GPa) = 29.10312 36.81262 32.95787
#
# Velocity S-wave (km/s) = 3.78300 4.25467 4.02575
# Velocity P-wave (km/s) = 7.45088 7.79484 7.62480
#
# Compressibility (1/GPa) = 0.01349666
#
# Stress axis : x y z
#
# Youngs Moduli (GPa) = 107.41677 113.68887 82.86477
#
# Poissons Ratio (x) = 0.06532 0.38860
# Poissons Ratio (y) = 0.06172 0.25475
# Poissons Ratio (z) = 0.50374 0.34951
#
# Static dielectric constant tensor:
#      x y z
#    x 1.788180 0.000000 0.000000 
#    y 0.000000 1.826920 0.000000 
#    z 0.000000 0.000000 1.693570 
# 
# From -- ./inp_files/27624.got.cif
#   From: 2010.05.17/outbox.ucp.g08.bks.cvg/sg73_14_cif.got.tgz:27624.got - 2010.06.11 16:36:03.
