data_PCOD9533167
_publ_section_title
;
Structure prediction by ZEFSAII (Michael W. Deem and Ramdas Pophale) SiO2 
 PCOD9533167
Probable space group: I B C A 
;
_chemical_formula_sum "Si O2"
_cell_formula_units_Z 96
_cell_length_a 13.838801
_cell_length_b 15.016939
_cell_length_c 22.058198
_cell_angle_alpha 90.000000
_cell_angle_beta 90.000000
_cell_angle_gamma 90.000000
_cell_volume 4584.055971
_symmetry_space_group_name_H-M "I B C A "
_symmetry_group_IT_number 73
_symmetry_cell_setting 'orthorhombic'
loop_
_space_group_symop_operation_xyz
x,y,z
-x,1/2-y,z
x,-y,1/2-z
1/2-x,y,-z
-x,-y,-z
x,1/2+y,-z
-x,y,1/2+z
1/2+x,-y,z
1/2+x,1/2+y,1/2+z
1/2-x,-y,1/2+z
1/2+x,1/2-y,-z
-x,1/2+y,1/2-z
1/2-x,1/2-y,1/2-z
1/2+x,y,1/2-z
1/2-x,1/2+y,z
x,1/2-y,1/2+z
loop_
_atom_site_type_symbol
_atom_site_label
_atom_site_fract_x
_atom_site_fract_y
_atom_site_fract_z
Si Si1 0.294421 0.302414 0.095497
Si Si2 0.390017 0.743880 0.021241
Si Si3 0.385589 0.755078 0.281079
Si Si4 0.395288 0.540222 0.991081
Si Si5 0.760554 0.599443 0.276701
Si Si6 0.754306 0.499814 0.102174
O O1 0.194143 0.259941 0.070569
O O2 0.349046 0.252958 0.149381
O O3 0.271329 0.399391 0.122690
O O4 0.362030 0.307947 0.035311
O O5 0.500000 0.750000 0.044327
O O6 0.386683 0.646545 0.991382
O O7 0.500000 0.750000 0.277597
O O8 0.338760 0.848741 0.260063
O O9 0.339901 0.671905 0.244115
O O10 0.329421 0.514175 0.047948
O O11 0.500000 0.500000 0.000000
O O12 0.350003 0.505055 0.928993
O O13 0.768487 0.500000 0.250000
O O14 0.766229 0.575444 0.347754
#
# Coordination Sequence:
#
# PCOD9533167 Si02
#       6
#    16  16  16  16  16  16
#     4  11  21  39  65  93 134 182 222 293 348 412
#     4  11  21  36  60  96 136 179 232 284 351 416
#     4  11  25  46  72 101 135 180 239 287 352 421
#     4  11  22  39  62  99 130 173 222 274 342 413
#     4  11  24  48  70  99 138 183 231 290 348 410
#     4  11  22  41  65  93 134 175 218 279 342 408
#
# _framework density 20.942152
#
# number of rings (size 3 to 8) (size 9 to 14) (size 15 to 20)
#    0.000    1.000    1.667    8.500    0.000    2.000 
#    3.000    5.833    0.000    0.000    0.000    0.000 
#    0.000    0.000    0.000    0.000    0.000    0.000 
#
# Total GULP energy -268096.322083 kJ/mol
# GULP energy per Si atom -5585.340043 kJ/mol
# Density = 2.089449 g / cm^3
# Si number density = 20.942152 Si / 1000 Ang^3
#
#
#
# Elastic Constant Matrix: (Units=GPa)
#
#
# Indices 1 2 3 4 5 6 
#
# 1 161.3402 32.3736 43.4696 0.0000 0.0000 0.0000
# 2 32.3736 131.3694 21.7660 0.0000 0.0000 0.0000
# 3 43.4696 21.7660 84.0678 0.0000 0.0000 0.0000
# 4 0.0000 0.0000 0.0000 28.5152 0.0000 0.0000
# 5 0.0000 0.0000 0.0000 0.0000 20.9609 0.0000
# 6 0.0000 0.0000 0.0000 0.0000 0.0000 23.2457
#
#
#
# Elastic Compliance Matrix: (Units=1/GPa)
#
#
# Indices 1 2 3 4 5 6 
#
# 1 0.007390 -0.001241 -0.003500 0.000000 0.000000 0.000000
# 2 -0.001241 0.008162 -0.001471 0.000000 0.000000 0.000000
# 3 -0.003500 -0.001471 0.014086 0.000000 0.000000 0.000000
# 4 0.000000 0.000000 0.000000 0.035069 0.000000 0.000000
# 5 0.000000 0.000000 0.000000 0.000000 0.047708 0.000000
# 6 0.000000 0.000000 0.000000 0.000000 0.000000 0.043019
#
#
# Mechanical properties :
#
#
# Convention : Reuss Voigt Hill
#
# Bulk Modulus (GPa) = 58.09656 63.55511 60.82584
# Shear Modulus (GPa) = 28.80252 33.15557 30.97904
#
# Velocity S-wave (km/s) = 3.71258 3.98326 3.85030
# Velocity P-wave (km/s) = 6.79554 7.18115 6.99100
#
# Compressibility (1/GPa) = 0.01721272
#
# Stress axis : x y z
#
# Youngs Moduli (GPa) = 135.31578 122.52210 70.99342
#
# Poissons Ratio (x) = 0.15208 0.24847
# Poissons Ratio (y) = 0.16797 0.10446
# Poissons Ratio (z) = 0.47359 0.18027
#
# Static dielectric constant tensor:
#      x y z
#    x 1.731500 0.000000 0.000000 
#    y 0.000000 1.806700 0.000000 
#    z 0.000000 0.000000 1.787440 
# 
# From -- ./inp_files/25994.got.cif
#   From: 2010.05.17/outbox.cif.g08.bks.cpg/sg73_13_cif.got.tgz:25994.got - 2010.06.03 17:35:07.
