data_PCOD9533289
_publ_section_title
;
Structure prediction by ZEFSAII (Michael W. Deem and Ramdas Pophale) SiO2 
 PCOD9533289
Probable space group: I B C A 
;
_chemical_formula_sum "Si O2"
_cell_formula_units_Z 112
_cell_length_a 29.919602
_cell_length_b 10.782253
_cell_length_c 15.795829
_cell_angle_alpha 90.000000
_cell_angle_beta 90.000000
_cell_angle_gamma 90.000000
_cell_volume 5095.745783
_symmetry_space_group_name_H-M "I B C A "
_symmetry_group_IT_number 73
_symmetry_cell_setting 'orthorhombic'
loop_
_space_group_symop_operation_xyz
x,y,z
-x,1/2-y,z
x,-y,1/2-z
1/2-x,y,-z
-x,-y,-z
x,1/2+y,-z
-x,y,1/2+z
1/2+x,-y,z
1/2+x,1/2+y,1/2+z
1/2-x,-y,1/2+z
1/2+x,1/2-y,-z
-x,1/2+y,1/2-z
1/2-x,1/2-y,1/2-z
1/2+x,y,1/2-z
1/2-x,1/2+y,z
x,1/2-y,1/2+z
loop_
_atom_site_type_symbol
_atom_site_label
_atom_site_fract_x
_atom_site_fract_y
_atom_site_fract_z
Si Si1 0.825062 0.009295 0.979916
Si Si2 0.395176 0.500000 0.750000
Si Si3 0.742604 0.658902 0.861236
Si Si4 0.912383 0.044810 0.065155
Si Si5 0.113748 0.907705 0.330258
Si Si6 0.949993 0.805620 0.961898
Si Si7 0.250000 0.339267 0.500000
Si Si8 0.676283 0.693691 0.240373
O O1 0.785808 0.079503 0.928185
O O2 0.859738 0.974915 0.906060
O O3 0.795065 0.907037 0.025386
O O4 0.858831 0.052146 0.051960
O O5 0.421538 0.542335 0.666152
O O6 0.361466 0.392341 0.719362
O O7 0.764730 0.763512 0.918855
O O8 0.785346 0.614169 0.808572
O O9 0.706202 0.719878 0.800575
O O10 0.925132 0.175163 0.021463
O O11 0.936287 0.921199 0.024509
O O12 0.067725 0.857523 0.371262
O O13 0.145779 0.791993 0.310000
O O14 0.108870 0.000000 0.250000
O O15 0.000000 0.750000 0.961911
#
# Coordination Sequence:
#
# PCOD9533289 Si02
#       8
#    16   8  16  16  16  16   8  16
#     4  11  25  38  64  94 137 193 247 292 363 425
#     4  12  26  42  70 102 140 188 240 290 368 438
#     4  11  25  37  61  90 140 186 250 298 349 404
#     4  11  27  48  79 106 151 190 243 308 381 454
#     4  11  22  45  68  99 144 191 239 294 370 449
#     4  11  26  52  81 114 143 185 242 306 384 466
#     4  12  24  36  56  94 130 190 248 300 334 418
#     4  11  24  41  60  95 141 191 238 298 347 414
#
# _framework density 21.979118
#
# number of rings (size 3 to 8) (size 9 to 14) (size 15 to 20)
#    0.000    0.857    4.286    1.714   12.000    0.000 
#    1.286    0.714    0.000    0.000    0.000    0.000 
#    0.000    0.000    0.000    0.000    0.000    0.000 
#
# Total GULP energy -311792.677589 kJ/mol
# GULP energy per Si atom -5567.726386 kJ/mol
# Density = 2.192909 g / cm^3
# Si number density = 21.979118 Si / 1000 Ang^3
#
#
#
# Elastic Constant Matrix: (Units=GPa)
#
#
# Indices 1 2 3 4 5 6 
#
# 1 78.7433 27.9895 15.3866 0.0000 0.0000 0.0000
# 2 27.9895 87.3291 26.3628 0.0000 0.0000 0.0000
# 3 15.3866 26.3628 82.1441 0.0000 0.0000 0.0000
# 4 0.0000 0.0000 0.0000 16.2639 0.0000 0.0000
# 5 0.0000 0.0000 0.0000 0.0000 17.2245 0.0000
# 6 0.0000 0.0000 0.0000 0.0000 0.0000 34.6572
#
#
#
# Elastic Compliance Matrix: (Units=1/GPa)
#
#
# Indices 1 2 3 4 5 6 
#
# 1 0.014467 -0.004228 -0.001353 0.000000 0.000000 0.000000
# 2 -0.004228 0.013915 -0.003674 0.000000 0.000000 0.000000
# 3 -0.001353 -0.003674 0.013606 0.000000 0.000000 0.000000
# 4 0.000000 0.000000 0.000000 0.061486 0.000000 0.000000
# 5 0.000000 0.000000 0.000000 0.000000 0.058057 0.000000
# 6 0.000000 0.000000 0.000000 0.000000 0.000000 0.028854
#
#
# Mechanical properties :
#
#
# Convention : Reuss Voigt Hill
#
# Bulk Modulus (GPa) = 42.59258 43.07714 42.83486
# Shear Modulus (GPa) = 23.07114 25.52763 24.29939
#
# Velocity S-wave (km/s) = 3.24340 3.41170 3.32861
# Velocity P-wave (km/s) = 5.78333 5.92969 5.85697
#
# Compressibility (1/GPa) = 0.02347827
#
# Stress axis : x y z
#
# Youngs Moduli (GPa) = 69.12379 71.86392 73.49597
#
# Poissons Ratio (x) = 0.30386 0.09943
# Poissons Ratio (y) = 0.29228 0.27001
# Poissons Ratio (z) = 0.09351 0.26402
#
# Static dielectric constant tensor:
#      x y z
#    x 1.934490 0.000000 0.000000 
#    y 0.000000 1.972600 0.000000 
#    z 0.000000 0.000000 1.868490 
# 
# From -- ./inp_files/20088.got.cif
#   From: 2010.05.17/outbox.cif.g08.bks.cpg/sg73_11_cif.got.tgz:20088.got - 2010.06.03 17:35:07.
