data_PCOD9533207
_publ_section_title
;
Structure prediction by ZEFSAII (Michael W. Deem and Ramdas Pophale) SiO2 
 PCOD9533207
Probable space group: I B C A 
;
_chemical_formula_sum "Si O2"
_cell_formula_units_Z 96
_cell_length_a 9.796393
_cell_length_b 23.222952
_cell_length_c 19.178279
_cell_angle_alpha 90.000000
_cell_angle_beta 90.000000
_cell_angle_gamma 90.000000
_cell_volume 4363.080804
_symmetry_space_group_name_H-M "I B C A "
_symmetry_group_IT_number 73
_symmetry_cell_setting 'orthorhombic'
loop_
_space_group_symop_operation_xyz
x,y,z
-x,1/2-y,z
x,-y,1/2-z
1/2-x,y,-z
-x,-y,-z
x,1/2+y,-z
-x,y,1/2+z
1/2+x,-y,z
1/2+x,1/2+y,1/2+z
1/2-x,-y,1/2+z
1/2+x,1/2-y,-z
-x,1/2+y,1/2-z
1/2-x,1/2-y,1/2-z
1/2+x,y,1/2-z
1/2-x,1/2+y,z
x,1/2-y,1/2+z
loop_
_atom_site_type_symbol
_atom_site_label
_atom_site_fract_x
_atom_site_fract_y
_atom_site_fract_z
Si Si1 0.715577 0.411701 0.918174
Si Si2 0.779934 0.954067 0.582989
Si Si3 0.112977 0.210442 0.745642
Si Si4 0.496378 0.358174 0.622138
Si Si5 0.074872 0.378180 0.130288
Si Si6 0.393563 0.792576 0.012364
O O1 0.683284 0.479217 0.909728
O O2 0.853507 0.391375 0.882542
O O3 0.585910 0.379084 0.885379
O O4 0.750000 0.401119 0.000000
O O5 0.750000 0.946298 0.500000
O O6 0.639224 0.941015 0.623294
O O7 0.889477 0.909059 0.615553
O O8 0.250000 0.250000 0.750000
O O9 0.033338 0.185727 0.814010
O O10 0.129006 0.154341 0.697859
O O11 0.000000 0.250000 0.709099
O O12 0.535354 0.318167 0.556171
O O13 0.138127 0.343445 0.065299
O O14 0.500000 0.750000 0.046200
O O15 0.250000 0.761804 0.000000
#
# Coordination Sequence:
#
# PCOD9533207 Si02
#       6
#    16  16  16  16  16  16
#     4  11  23  39  70 104 135 174 223 290 358 413
#     4  11  21  43  70 100 134 176 225 289 360 409
#     4  12  28  47  68  95 140 193 228 279 352 420
#     4  12  23  45  66  98 133 182 226 283 351 410
#     4  12  23  45  64 100 135 177 233 286 340 418
#     4  12  26  41  69  99 134 176 239 298 341 406
#
# _framework density 22.002801000000002
#
# number of rings (size 3 to 8) (size 9 to 14) (size 15 to 20)
#    0.000    0.333    5.000    4.000    4.667    2.667 
#    0.000    5.000    0.000    0.000    0.000    0.000 
#    0.000    0.000    0.000    0.000    0.000    0.000 
#
# Total GULP energy -267802.371677 kJ/mol
# GULP energy per Si atom -5579.216077 kJ/mol
# Density = 2.195272 g / cm^3
# Si number density = 22.002801 Si / 1000 Ang^3
#
#
#
# Elastic Constant Matrix: (Units=GPa)
#
#
# Indices 1 2 3 4 5 6 
#
# 1 166.4469 30.6116 9.3877 0.0000 0.0000 0.0000
# 2 30.6116 87.6361 27.4703 0.0000 0.0000 0.0000
# 3 9.3877 27.4703 101.6367 0.0000 0.0000 0.0000
# 4 0.0000 0.0000 0.0000 8.6004 0.0000 0.0000
# 5 0.0000 0.0000 0.0000 0.0000 18.2456 0.0000
# 6 0.0000 0.0000 0.0000 0.0000 0.0000 49.0471
#
#
#
# Elastic Compliance Matrix: (Units=1/GPa)
#
#
# Indices 1 2 3 4 5 6 
#
# 1 0.006420 -0.002247 0.000014 0.000000 0.000000 0.000000
# 2 -0.002247 0.013254 -0.003375 0.000000 0.000000 0.000000
# 3 0.000014 -0.003375 0.010750 0.000000 0.000000 0.000000
# 4 0.000000 0.000000 0.000000 0.116274 0.000000 0.000000
# 5 0.000000 0.000000 0.000000 0.000000 0.054808 0.000000
# 6 0.000000 0.000000 0.000000 0.000000 0.000000 0.020389
#
#
# Mechanical properties :
#
#
# Convention : Reuss Voigt Hill
#
# Bulk Modulus (GPa) = 52.05938 54.51765 53.28852
# Shear Modulus (GPa) = 20.87583 34.39529 27.63556
#
# Velocity S-wave (km/s) = 3.08357 3.95805 3.54786
# Velocity P-wave (km/s) = 6.03238 6.76163 6.40739
#
# Compressibility (1/GPa) = 0.01920883
#
# Stress axis : x y z
#
# Youngs Moduli (GPa) = 155.75370 75.45136 93.02560
#
# Poissons Ratio (x) = 0.16955 -0.00133
# Poissons Ratio (y) = 0.35000 0.31392
# Poissons Ratio (z) = -0.00223 0.25462
#
# Static dielectric constant tensor:
#      x y z
#    x 1.939780 0.000000 0.000000 
#    y 0.000000 -6.100880 0.000000 
#    z 0.000000 0.000000 1.862150 
# 
# From -- ./inp_files/24873.got.cif
#   From: 2010.05.17/outbox.cif.g08.bks.cpg/sg73_13_cif.got.tgz:24873.got - 2010.06.03 17:35:07.
