data_PCOD9533362
_publ_section_title
;
Structure prediction by ZEFSAII (Michael W. Deem and Ramdas Pophale) SiO2 
 PCOD9533362
Probable space group: I B C A 
;
_chemical_formula_sum "Si O2"
_cell_formula_units_Z 88
_cell_length_a 11.171387
_cell_length_b 30.703096
_cell_length_c 10.914195
_cell_angle_alpha 90.000000
_cell_angle_beta 90.000000
_cell_angle_gamma 90.000000
_cell_volume 3743.527057
_symmetry_space_group_name_H-M "I B C A "
_symmetry_group_IT_number 73
_symmetry_cell_setting 'orthorhombic'
loop_
_space_group_symop_operation_xyz
x,y,z
-x,1/2-y,z
x,-y,1/2-z
1/2-x,y,-z
-x,-y,-z
x,1/2+y,-z
-x,y,1/2+z
1/2+x,-y,z
1/2+x,1/2+y,1/2+z
1/2-x,-y,1/2+z
1/2+x,1/2-y,-z
-x,1/2+y,1/2-z
1/2-x,1/2-y,1/2-z
1/2+x,y,1/2-z
1/2-x,1/2+y,z
x,1/2-y,1/2+z
loop_
_atom_site_type_symbol
_atom_site_label
_atom_site_fract_x
_atom_site_fract_y
_atom_site_fract_z
Si Si1 0.126445 0.899139 0.177505
Si Si2 0.872573 0.117778 0.309787
Si Si3 0.411627 0.993606 0.887324
Si Si4 0.366659 0.209977 0.084355
Si Si5 0.750000 0.563085 0.500000
Si Si6 0.877720 0.196162 0.936031
O O1 0.251466 0.895753 0.244933
O O2 0.115857 0.852891 0.110563
O O3 0.997177 0.898807 0.246701
O O4 0.130974 0.943873 0.103979
O O5 0.869120 0.170059 0.321406
O O6 0.852166 0.094095 0.441725
O O7 0.308513 0.029819 0.902824
O O8 0.463049 0.000000 0.750000
O O9 0.500000 0.000000 0.000000
O O10 0.489636 0.202956 0.006137
O O11 0.370293 0.258534 0.141968
O O12 0.250000 0.205627 0.000000
O O13 0.750000 0.197923 0.000000
#
# Coordination Sequence:
#
# PCOD9533362 Si02
#       6
#    16  16  16  16   8  16
#     4  11  25  44  67 102 143 186 241 303 371 448
#     4  11  23  44  68 100 138 189 238 303 371 447
#     4  12  27  48  75 108 149 199 250 315 375 451
#     4   9  18  36  66  91 134 184 235 297 365 445
#     4  12  24  44  72 100 140 192 248 300 380 440
#     4   9  20  38  59  99 137 179 236 298 369 442
#
# _framework density 23.507242999999999
#
# number of rings (size 3 to 8) (size 9 to 14) (size 15 to 20)
#    0.000    1.455    4.545    0.000    1.273    4.364 
#    0.000    0.000    0.000    0.000    0.000    0.000 
#    0.000    0.000    0.000    0.000    0.000    0.000 
#
# Total GULP energy -245083.157185 kJ/mol
# GULP energy per Si atom -5570.071754 kJ/mol
# Density = 2.345374 g / cm^3
# Si number density = 23.507243 Si / 1000 Ang^3
#
#
#
# Elastic Constant Matrix: (Units=GPa)
#
#
# Indices 1 2 3 4 5 6 
#
# 1 171.0714 28.4305 21.7868 0.0000 -0.0001 -0.0004
# 2 28.4305 221.8311 24.1778 -0.0001 -0.0001 -0.0005
# 3 21.7868 24.1778 45.5764 -0.0004 0.0000 0.0015
# 4 0.0000 -0.0001 -0.0004 10.6820 -0.0001 0.0001
# 5 -0.0001 -0.0001 0.0000 -0.0001 35.1121 -0.0002
# 6 -0.0004 -0.0005 0.0015 0.0001 -0.0002 25.4776
#
#
#
# Elastic Compliance Matrix: (Units=1/GPa)
#
#
# Indices 1 2 3 4 5 6 
#
# 1 0.006278 -0.000507 -0.002732 0.000000 0.000000 0.000000
# 2 -0.000507 0.004825 -0.002318 0.000000 0.000000 0.000000
# 3 -0.002732 -0.002318 0.024477 0.000001 0.000000 -0.000002
# 4 0.000000 0.000000 0.000001 0.093616 0.000000 0.000000
# 5 0.000000 0.000000 0.000000 0.000000 0.028480 0.000000
# 6 0.000000 0.000000 -0.000002 0.000000 0.000000 0.039250
#
#
# Mechanical properties :
#
#
# Convention : Reuss Voigt Hill
#
# Bulk Modulus (GPa) = 40.87158 65.25213 53.06186
# Shear Modulus (GPa) = 23.12735 38.52659 30.82697
#
# Velocity S-wave (km/s) = 3.14002 4.05275 3.62523
# Velocity P-wave (km/s) = 5.52909 7.05112 6.33598
#
# Compressibility (1/GPa) = 0.02446688
#
# Stress axis : x y z
#
# Youngs Moduli (GPa) = 159.29450 207.23295 40.85528
#
# Poissons Ratio (x) = 0.10502 0.11162
# Poissons Ratio (y) = 0.08073 0.09469
# Poissons Ratio (z) = 0.43520 0.48029
#
# Static dielectric constant tensor:
#      x y z
#    x 1.990420 0.000000 0.000000 
#    y 0.000000 1.925140 0.000000 
#    z 0.000000 0.000000 1.979380 
# 
# From -- ./inp_files/9901.got.cif
#   From: 2010.05.17/outbox.cif.g08.bks.cpg/sg73_5_cif.got.tgz:9901.got - 2010.06.03 17:35:07.
