data_PCOD9533474
_publ_section_title
;
Structure prediction by ZEFSAII (Michael W. Deem and Ramdas Pophale) SiO2 
 PCOD9533474
Probable space group: I B C A 
;
_chemical_formula_sum "Si O2"
_cell_formula_units_Z 56
_cell_length_a 13.349411
_cell_length_b 12.681659
_cell_length_c 13.913848
_cell_angle_alpha 90.000000
_cell_angle_beta 90.000000
_cell_angle_gamma 90.000000
_cell_volume 2355.512591
_symmetry_space_group_name_H-M "I B C A "
_symmetry_group_IT_number 73
_symmetry_cell_setting 'orthorhombic'
loop_
_space_group_symop_operation_xyz
x,y,z
-x,1/2-y,z
x,-y,1/2-z
1/2-x,y,-z
-x,-y,-z
x,1/2+y,-z
-x,y,1/2+z
1/2+x,-y,z
1/2+x,1/2+y,1/2+z
1/2-x,-y,1/2+z
1/2+x,1/2-y,-z
-x,1/2+y,1/2-z
1/2-x,1/2-y,1/2-z
1/2+x,y,1/2-z
1/2-x,1/2+y,z
x,1/2-y,1/2+z
loop_
_atom_site_type_symbol
_atom_site_label
_atom_site_fract_x
_atom_site_fract_y
_atom_site_fract_z
Si Si1 0.975358 0.597284 0.882892
Si Si2 0.551649 0.638591 0.906233
Si Si3 0.171786 0.000000 0.750000
Si Si4 0.321959 0.345747 0.279025
O O1 0.991340 0.471169 0.898592
O O2 0.078819 0.652234 0.847186
O O3 0.895984 0.589885 0.797797
O O4 0.928218 0.644114 0.979679
O O5 0.500000 0.750000 0.881334
O O6 0.635315 0.623844 0.825970
O O7 0.246064 0.065330 0.818879
O O8 0.250000 0.250000 0.250000
#
# Coordination Sequence:
#
# PCOD9533474 Si02
#       4
#    16  16   8  16
#     4  11  25  48  71 107 152 190 247 319 378 449
#     4  11  24  47  73 105 147 193 244 311 385 441
#     4  12  22  46  74  98 150 194 246 310 368 448
#     4  12  26  46  76 111 146 202 254 303 386 462
#
# _framework density 23.774018999999999
#
# number of rings (size 3 to 8) (size 9 to 14) (size 15 to 20)
#    0.000    0.571    5.714    1.714    4.000    1.143 
#    0.000    2.857    0.000    0.000    0.000    0.000 
#    0.000    0.000    0.000    0.000    0.000    0.000 
#
# Total GULP energy -156008.520923 kJ/mol
# GULP energy per Si atom -5571.732890 kJ/mol
# Density = 2.371991 g / cm^3
# Si number density = 23.774019 Si / 1000 Ang^3
#
#
#
# Elastic Constant Matrix: (Units=GPa)
#
#
# Indices 1 2 3 4 5 6 
#
# 1 62.6209 2.7406 20.1221 0.0000 0.0000 0.0000
# 2 2.7406 102.6060 -8.2942 0.0000 0.0000 0.0000
# 3 20.1221 -8.2942 112.9020 0.0000 0.0000 0.0000
# 4 0.0000 0.0000 0.0000 46.2812 0.0000 0.0000
# 5 0.0000 0.0000 0.0000 0.0000 8.2687 0.0000
# 6 0.0000 0.0000 0.0000 0.0000 0.0000 57.8004
#
#
#
# Elastic Compliance Matrix: (Units=1/GPa)
#
#
# Indices 1 2 3 4 5 6 
#
# 1 0.016989 -0.000703 -0.003080 0.000000 0.000000 0.000000
# 2 -0.000703 0.009833 0.000848 0.000000 0.000000 0.000000
# 3 -0.003080 0.000848 0.009468 0.000000 0.000000 0.000000
# 4 0.000000 0.000000 0.000000 0.021607 0.000000 0.000000
# 5 0.000000 0.000000 0.000000 0.000000 0.120938 0.000000
# 6 0.000000 0.000000 0.000000 0.000000 0.000000 0.017301
#
#
# Mechanical properties :
#
#
# Convention : Reuss Voigt Hill
#
# Bulk Modulus (GPa) = 32.87120 34.14064 33.50592
# Shear Modulus (GPa) = 23.56855 40.04076 31.80466
#
# Velocity S-wave (km/s) = 3.15200 4.10838 3.66155
# Velocity P-wave (km/s) = 5.20609 6.07427 5.65686
#
# Compressibility (1/GPa) = 0.03042177
#
# Stress axis : x y z
#
# Youngs Moduli (GPa) = 58.86013 101.69514 105.61475
#
# Poissons Ratio (x) = 0.07146 0.32525
# Poissons Ratio (y) = 0.04136 -0.08952
# Poissons Ratio (z) = 0.18126 -0.08620
#
# Static dielectric constant tensor:
#      x y z
#    x 2.079150 0.000000 0.000000 
#    y 0.000000 2.521020 0.000000 
#    z 0.000000 0.000000 1.969740 
# 
# From -- ./inp_files/10217.got.cif
#   From: 2010.05.17/outbox.cif.g08.bks.cpg/sg73_6_cif.got.tgz:10217.got - 2010.06.03 17:35:07.
