data_PCOD9533445
_publ_section_title
;
Structure prediction by ZEFSAII (Michael W. Deem and Ramdas Pophale) SiO2 
 PCOD9533445
Probable space group: I B C A 
;
_chemical_formula_sum "Si O2"
_cell_formula_units_Z 64
_cell_length_a 19.531914
_cell_length_b 9.612516
_cell_length_c 15.285280
_cell_angle_alpha 90.000000
_cell_angle_beta 90.000000
_cell_angle_gamma 90.000000
_cell_volume 2869.824096
_symmetry_space_group_name_H-M "I B C A "
_symmetry_group_IT_number 73
_symmetry_cell_setting 'orthorhombic'
loop_
_space_group_symop_operation_xyz
x,y,z
-x,1/2-y,z
x,-y,1/2-z
1/2-x,y,-z
-x,-y,-z
x,1/2+y,-z
-x,y,1/2+z
1/2+x,-y,z
1/2+x,1/2+y,1/2+z
1/2-x,-y,1/2+z
1/2+x,1/2-y,-z
-x,1/2+y,1/2-z
1/2-x,1/2-y,1/2-z
1/2+x,y,1/2-z
1/2-x,1/2+y,z
x,1/2-y,1/2+z
loop_
_atom_site_type_symbol
_atom_site_label
_atom_site_fract_x
_atom_site_fract_y
_atom_site_fract_z
Si Si1 0.331900 0.190988 0.010848
Si Si2 0.425716 0.439235 0.031360
Si Si3 0.062178 0.159756 0.274616
Si Si4 0.313993 0.658811 0.780981
O O1 0.379035 0.322440 0.983214
O O2 0.331390 0.158729 0.115399
O O3 0.250000 0.212597 0.000000
O O4 0.370190 0.063867 0.962367
O O5 0.441302 0.358017 0.120789
O O6 0.500000 0.500000 0.000000
O O7 0.125253 0.249336 0.242402
O O8 0.000000 0.250000 0.241029
O O9 0.063594 0.000000 0.250000
O O10 0.309035 0.500000 0.750000
O O11 0.250000 0.750000 0.750000
#
# Coordination Sequence:
#
# PCOD9533445 Si02
#       4
#    16  16  16  16
#     4  11  26  42  70 102 139 183 236 289 353 421
#     4  11  24  45  69  98 139 183 235 289 354 424
#     4  11  25  45  69 104 139 186 236 291 361 425
#     4  11  26  44  70  99 143 186 233 292 355 419
#
# _framework density 22.301019
#
# number of rings (size 3 to 8) (size 9 to 14) (size 15 to 20)
#    0.000    1.000    0.000    6.000   14.000    2.000 
#    0.000    0.000    0.000    0.000    0.000    0.000 
#    0.000    0.000    0.000    0.000    0.000    0.000 
#
# Total GULP energy -178261.969792 kJ/mol
# GULP energy per Si atom -5570.686556 kJ/mol
# Density = 2.225026 g / cm^3
# Si number density = 22.301019 Si / 1000 Ang^3
#
#
#
# Elastic Constant Matrix: (Units=GPa)
#
#
# Indices 1 2 3 4 5 6 
#
# 1 223.6710 99.5421 13.0233 0.0000 0.0000 0.0000
# 2 99.5421 229.2713 7.9351 0.0000 0.0000 0.0000
# 3 13.0233 7.9351 40.3632 0.0000 0.0000 0.0000
# 4 0.0000 0.0000 0.0000 33.9156 0.0000 0.0000
# 5 0.0000 0.0000 0.0000 0.0000 21.7485 0.0000
# 6 0.0000 0.0000 0.0000 0.0000 0.0000 51.0802
#
#
#
# Elastic Compliance Matrix: (Units=1/GPa)
#
#
# Indices 1 2 3 4 5 6 
#
# 1 0.005613 -0.002390 -0.001341 0.000000 0.000000 0.000000
# 2 -0.002390 0.005410 -0.000292 0.000000 0.000000 0.000000
# 3 -0.001341 -0.000292 0.025265 0.000000 0.000000 0.000000
# 4 0.000000 0.000000 0.000000 0.029485 0.000000 0.000000
# 5 0.000000 0.000000 0.000000 0.000000 0.045980 0.000000
# 6 0.000000 0.000000 0.000000 0.000000 0.000000 0.019577
#
#
# Mechanical properties :
#
#
# Convention : Reuss Voigt Hill
#
# Bulk Modulus (GPa) = 35.41057 81.58960 58.50009
# Shear Modulus (GPa) = 33.60425 46.20250 39.90338
#
# Velocity S-wave (km/s) = 3.88603 4.55660 4.23461
# Velocity P-wave (km/s) = 6.00399 8.02175 7.08507
#
# Compressibility (1/GPa) = 0.02824016
#
# Stress axis : x y z
#
# Youngs Moduli (GPa) = 178.16457 184.85573 39.58021
#
# Poissons Ratio (x) = 0.44189 0.05308
# Poissons Ratio (y) = 0.42590 0.01156
# Poissons Ratio (z) = 0.23893 0.05401
#
# Static dielectric constant tensor:
#      x y z
#    x 1.813500 0.000000 0.000000 
#    y 0.000000 1.800160 0.000000 
#    z 0.000000 0.000000 1.907890 
# 
# From -- ./inp_files/5212.got.cif
#   From: 2010.05.17/outbox.cif.g08.bks.cpg/sg73_3_cif.got.tgz:5212.got - 2010.06.03 17:35:07.
