data_PCOD9533588
_publ_section_title
;
Structure prediction by ZEFSAII (Michael W. Deem and Ramdas Pophale) SiO2 
 PCOD9533588
Probable space group: I B C A 
;
_chemical_formula_sum "Si O2"
_cell_formula_units_Z 64
_cell_length_a 17.994120
_cell_length_b 9.842631
_cell_length_c 16.163742
_cell_angle_alpha 90.000000
_cell_angle_beta 90.000000
_cell_angle_gamma 90.000000
_cell_volume 2862.751994
_symmetry_space_group_name_H-M "I B C A "
_symmetry_group_IT_number 73
_symmetry_cell_setting 'orthorhombic'
loop_
_space_group_symop_operation_xyz
x,y,z
-x,1/2-y,z
x,-y,1/2-z
1/2-x,y,-z
-x,-y,-z
x,1/2+y,-z
-x,y,1/2+z
1/2+x,-y,z
1/2+x,1/2+y,1/2+z
1/2-x,-y,1/2+z
1/2+x,1/2-y,-z
-x,1/2+y,1/2-z
1/2-x,1/2-y,1/2-z
1/2+x,y,1/2-z
1/2-x,1/2+y,z
x,1/2-y,1/2+z
loop_
_atom_site_type_symbol
_atom_site_label
_atom_site_fract_x
_atom_site_fract_y
_atom_site_fract_z
Si Si1 0.434349 0.336751 0.280113
Si Si2 0.576025 0.058836 0.839945
Si Si3 0.789730 0.660938 0.179460
Si Si4 0.294159 0.428777 0.583839
O O1 0.500000 0.250000 0.234088
O O2 0.403592 0.219115 0.341335
O O3 0.485910 0.439835 0.332774
O O4 0.370329 0.371925 0.217081
O O5 0.600447 0.000000 0.750000
O O6 0.620714 0.980397 0.909471
O O7 0.750000 0.750000 0.250000
O O8 0.748245 0.525080 0.150768
O O9 0.794393 0.770116 0.105867
O O10 0.250000 0.451139 0.500000
#
# Coordination Sequence:
#
# PCOD9533588 Si02
#       4
#    16  16  16  16
#     4   8  18  32  62  86 113 163 227 281 306 371
#     4   9  16  37  60  90 122 168 227 280 323 392
#     4  12  21  41  65  95 122 178 238 281 325 409
#     4  12  24  39  62  98 145 172 212 288 361 414
#
# _framework density 22.356110000000001
#
# number of rings (size 3 to 8) (size 9 to 14) (size 15 to 20)
#    1.500    0.000    5.000    1.500    0.000    2.000 
#    0.000    0.000    5.500    7.500    0.000    0.000 
#    0.000    0.000    0.000    0.000    0.000    0.000 
#
# Total GULP energy -178216.146188 kJ/mol
# GULP energy per Si atom -5569.254568 kJ/mol
# Density = 2.230523 g / cm^3
# Si number density = 22.356110 Si / 1000 Ang^3
#
#
#
# Elastic Constant Matrix: (Units=GPa)
#
#
# Indices 1 2 3 4 5 6 
#
# 1 139.8346 37.3583 33.0936 0.0000 0.0000 0.0000
# 2 37.3583 113.4193 17.6123 0.0000 0.0000 0.0000
# 3 33.0936 17.6123 67.1947 0.0000 0.0000 0.0000
# 4 0.0000 0.0000 0.0000 24.3325 0.0000 0.0000
# 5 0.0000 0.0000 0.0000 0.0000 14.4916 0.0000
# 6 0.0000 0.0000 0.0000 0.0000 0.0000 28.8230
#
#
#
# Elastic Compliance Matrix: (Units=1/GPa)
#
#
# Indices 1 2 3 4 5 6 
#
# 1 0.008623 -0.002273 -0.003651 0.000000 0.000000 0.000000
# 2 -0.002273 0.009790 -0.001447 0.000000 0.000000 0.000000
# 3 -0.003651 -0.001447 0.017059 0.000000 0.000000 0.000000
# 4 0.000000 0.000000 0.000000 0.041097 0.000000 0.000000
# 5 0.000000 0.000000 0.000000 0.000000 0.069005 0.000000
# 6 0.000000 0.000000 0.000000 0.000000 0.000000 0.034694
#
#
# Mechanical properties :
#
#
# Convention : Reuss Voigt Hill
#
# Bulk Modulus (GPa) = 48.23696 55.17522 51.70609
# Shear Modulus (GPa) = 24.76220 29.02174 26.89197
#
# Velocity S-wave (km/s) = 3.33171 3.60690 3.47204
# Velocity P-wave (km/s) = 6.03522 6.48692 6.26514
#
# Compressibility (1/GPa) = 0.02073099
#
# Stress axis : x y z
#
# Youngs Moduli (GPa) = 115.97378 102.14271 58.61898
#
# Poissons Ratio (x) = 0.23219 0.21401
# Poissons Ratio (y) = 0.26363 0.08479
# Poissons Ratio (z) = 0.42340 0.14775
#
# Static dielectric constant tensor:
#      x y z
#    x 1.901950 0.000000 0.000000 
#    y 0.000000 2.001340 0.000000 
#    z 0.000000 0.000000 1.814230 
# 
# From -- ./inp_files/17631.got.cif
#   From: 2010.05.17/outbox.cif.g08.bks.cpg/sg73_9_cif.got.tgz:17631.got - 2010.06.03 17:35:07.
