data_PCOD9533073
_publ_section_title
;
Structure prediction by ZEFSAII (Michael W. Deem and Ramdas Pophale) SiO2 
 PCOD9533073
Probable space group: I B C A 
;
_chemical_formula_sum "Si O2"
_cell_formula_units_Z 80
_cell_length_a 25.939708
_cell_length_b 17.000064
_cell_length_c 8.664990
_cell_angle_alpha 90.000000
_cell_angle_beta 90.000000
_cell_angle_gamma 90.000000
_cell_volume 3821.058662
_symmetry_space_group_name_H-M "I B C A "
_symmetry_group_IT_number 73
_symmetry_cell_setting 'orthorhombic'
loop_
_space_group_symop_operation_xyz
x,y,z
-x,1/2-y,z
x,-y,1/2-z
1/2-x,y,-z
-x,-y,-z
x,1/2+y,-z
-x,y,1/2+z
1/2+x,-y,z
1/2+x,1/2+y,1/2+z
1/2-x,-y,1/2+z
1/2+x,1/2-y,-z
-x,1/2+y,1/2-z
1/2-x,1/2-y,1/2-z
1/2+x,y,1/2-z
1/2-x,1/2+y,z
x,1/2-y,1/2+z
loop_
_atom_site_type_symbol
_atom_site_label
_atom_site_fract_x
_atom_site_fract_y
_atom_site_fract_z
Si Si1 0.022593 0.164907 0.932836
Si Si2 0.873957 0.336400 0.753256
Si Si3 0.431482 0.592406 0.241720
Si Si4 0.750000 0.580563 0.000000
Si Si5 0.341116 0.316115 0.100109
Si Si6 0.178405 0.500000 0.250000
O O1 0.048304 0.121561 0.076821
O O2 0.000000 0.250000 0.976774
O O3 0.067299 0.176568 0.805214
O O4 0.976325 0.114340 0.862646
O O5 0.839442 0.273783 0.846261
O O6 0.864673 0.321695 0.572262
O O7 0.856730 0.425059 0.789947
O O8 0.421359 0.500000 0.250000
O O9 0.380587 0.639970 0.287035
O O10 0.787408 0.637817 0.096767
O O11 0.714390 0.527891 0.109575
#
# Coordination Sequence:
#
# PCOD9533073 Si02
#       6
#    16  16  16   8  16   8
#     4  12  25  44  69 105 143 190 231 282 351 423
#     4  11  25  45  71 102 143 182 234 288 350 422
#     4  12  27  42  70 104 143 188 235 286 345 420
#     4  10  26  46  72 104 140 180 244 288 356 408
#     4  11  25  46  69 104 137 188 238 288 354 416
#     4  10  26  44  74 104 138 184 230 306 342 414
#
# _framework density 20.936606999999999
#
# number of rings (size 3 to 8) (size 9 to 14) (size 15 to 20)
#    0.000    0.800    2.000    3.600    8.400    5.600 
#    0.000    0.000    0.000    0.000    0.000    0.000 
#    0.000    0.000    0.000    0.000    0.000    0.000 
#
# Total GULP energy -224034.272548 kJ/mol
# GULP energy per Si atom -5600.856814 kJ/mol
# Density = 2.088895 g / cm^3
# Si number density = 20.936607 Si / 1000 Ang^3
#
#
#
# Elastic Constant Matrix: (Units=GPa)
#
#
# Indices 1 2 3 4 5 6 
#
# 1 42.7990 5.6462 1.1117 0.0000 0.0000 0.0000
# 2 5.6462 156.2712 22.7801 0.0000 0.0000 0.0000
# 3 1.1117 22.7801 48.6546 0.0000 0.0000 0.0000
# 4 0.0000 0.0000 0.0000 28.1733 0.0000 0.0000
# 5 0.0000 0.0000 0.0000 0.0000 -42.5075 0.0000
# 6 0.0000 0.0000 0.0000 0.0000 0.0000 -8.9612
#
#
#
# Elastic Compliance Matrix: (Units=1/GPa)
#
#
# Indices 1 2 3 4 5 6 
#
# 1 0.023478 -0.000826 -0.000149 0.000000 0.000000 0.000000
# 2 -0.000826 0.006897 -0.003210 0.000000 0.000000 0.000000
# 3 -0.000149 -0.003210 0.022060 0.000000 0.000000 0.000000
# 4 0.000000 0.000000 0.000000 0.035495 0.000000 0.000000
# 5 0.000000 0.000000 0.000000 0.000000 -0.023525 0.000000
# 6 0.000000 0.000000 0.000000 0.000000 0.000000 -0.111592
#
#
# Mechanical properties :
#
#
# Convention : Reuss Voigt Hill
#
# Bulk Modulus (GPa) = 22.69535 34.08898 28.39217
# Shear Modulus (GPa) = -207.22429 9.88670 -98.66880
#
# Velocity S-wave (km/s) = -9.95951 2.17542 -6.87239
# Velocity P-wave (km/s) = 11.01782 4.75682 7.02727
#
# Compressibility (1/GPa) = 0.04406190
#
# Stress axis : x y z
#
# Youngs Moduli (GPa) = 42.59317 144.99130 45.33193
#
# Poissons Ratio (x) = 0.11983 0.00678
# Poissons Ratio (y) = 0.03520 0.14553
# Poissons Ratio (z) = 0.00637 0.46546
#
# Static dielectric constant tensor:
#      x y z
#    x 1.725200 0.000000 0.000000 
#    y 0.000000 1.731140 0.000000 
#    z 0.000000 0.000000 1.744730 
# 
# From -- ./inp_files/7744.got.cif
#   From: 2010.05.17/outbox.cif.g08.bks.cpg/sg73_4_cif.got.tgz:7744.got - 2010.06.03 17:35:07.
