data_PCOD9533798
_publ_section_title
;
Structure prediction by ZEFSAII (Michael W. Deem and Ramdas Pophale) SiO2 
 PCOD9533798
Probable space group: I M M A
;
_chemical_formula_sum "Si O2"
_cell_formula_units_Z 96
_cell_length_a 23.341364
_cell_length_b 23.068766
_cell_length_c 7.257070
_cell_angle_alpha 90.000000
_cell_angle_beta 90.000000
_cell_angle_gamma 90.000000
_cell_volume 3907.616253
_symmetry_space_group_name_H-M "I M M A"
_symmetry_group_IT_number 74
_symmetry_cell_setting 'orthorhombic'
loop_
_space_group_symop_operation_xyz
x,y,z
-x,1/2-y,z
x,-y,-z
-x,1/2+y,-z
-x,-y,-z
x,1/2+y,-z
-x,y,z
x,1/2-y,z
1/2+x,1/2+y,1/2+z
1/2-x,-y,1/2+z
1/2+x,1/2-y,1/2-z
1/2-x,y,1/2-z
1/2-x,1/2-y,1/2-z
1/2+x,y,1/2-z
1/2-x,1/2+y,1/2+z
1/2+x,-y,1/2+z
loop_
_atom_site_type_symbol
_atom_site_label
_atom_site_fract_x
_atom_site_fract_y
_atom_site_fract_z
Si Si1 0.718195 0.816707 0.553166
Si Si2 0.125145 0.388822 0.220470
Si Si3 0.629093 0.486026 0.781657
Si Si4 0.675820 0.365414 0.873130
Si Si5 0.500000 0.172104 0.775600
Si Si6 0.000000 0.543544 0.296047
Si Si7 0.500000 0.383838 0.156804
Si Si8 0.110984 0.750000 0.244040
O O1 0.714604 0.750000 0.496389
O O2 0.750000 0.816472 0.750000
O O3 0.656069 0.842793 0.591733
O O4 0.758059 0.857554 0.431547
O O5 0.147439 0.454302 0.182934
O O6 0.142167 0.373549 0.431846
O O7 0.056978 0.384291 0.224066
O O8 0.659117 0.423617 0.760893
O O9 0.561243 0.481612 0.743622
O O10 0.635510 0.500000 0.000000
O O11 0.655599 0.303235 0.797467
O O12 0.500000 0.107040 0.707223
O O13 0.558838 0.201421 0.720115
O O14 0.500000 0.167497 0.002852
O O15 0.000000 0.439339 0.483591
#
# Coordination Sequence:
#
# PCOD9533798 Si02
#       8
#    16  16  16  16   8   8   8   8
#     4   9  18  27  35  47  70 103 132 153 186 228
#     4  10  18  24  33  49  70  98 127 163 184 219
#     4  10  15  23  34  49  67  94 130 162 186 209
#     4  10  16  24  37  47  67 100 131 162 181 221
#     4   9  16  18  29  48  75  91 123 158 176 206
#     4  10  13  23  31  48  66  95 128 153 183 208
#     4  10  14  24  31  46  65  95 131 151 185 207
#     4  11  14  22  31  50  70  96 131 154 181 213
#
# _framework density 24.567406999999999
#
# number of rings (size 3 to 8) (size 9 to 14) (size 15 to 20)
#    0.500    1.667    7.500    0.750    1.167    0.000 
#    0.000    0.000    0.000    0.000    0.000    0.000 
#    0.000    0.000    2.833   53.083    0.000    7.167 
#
# Total GULP energy -267292.744261 kJ/mol
# GULP energy per Si atom -5568.598839 kJ/mol
# Density = 2.451149 g / cm^3
# Si number density = 24.567407 Si / 1000 Ang^3
#
#
#
# Elastic Constant Matrix: (Units=GPa)
#
#
# Indices 1 2 3 4 5 6 
#
# 1 144.9464 56.4651 34.5888 0.0000 0.0000 0.0000
# 2 56.4651 135.1749 34.7514 0.0000 0.0000 0.0000
# 3 34.5888 34.7514 70.0965 0.0000 0.0000 0.0000
# 4 0.0000 0.0000 0.0000 22.4632 0.0000 0.0000
# 5 0.0000 0.0000 0.0000 0.0000 -9.9535 0.0000
# 6 0.0000 0.0000 0.0000 0.0000 0.0000 38.8577
#
#
#
# Elastic Compliance Matrix: (Units=1/GPa)
#
#
# Indices 1 2 3 4 5 6 
#
# 1 0.008713 -0.002904 -0.002859 0.000000 0.000000 0.000000
# 2 -0.002904 0.009447 -0.003250 0.000000 0.000000 0.000000
# 3 -0.002859 -0.003250 0.017288 0.000000 0.000000 0.000000
# 4 0.000000 0.000000 0.000000 0.044517 0.000000 0.000000
# 5 0.000000 0.000000 0.000000 0.000000 -0.100468 0.000000
# 6 0.000000 0.000000 0.000000 0.000000 0.000000 0.025735
#
#
# Mechanical properties :
#
#
# Convention : Reuss Voigt Hill
#
# Bulk Modulus (GPa) = 57.40570 66.86981 62.13776
# Shear Modulus (GPa) = 172.01610 25.23433 98.62521
#
# Velocity S-wave (km/s) = 8.37675 3.20839 6.34286
# Velocity P-wave (km/s) = 10.81561 6.40336 8.88764
#
# Compressibility (1/GPa) = 0.01741987
#
# Stress axis : x y z
#
# Youngs Moduli (GPa) = 114.77239 105.85802 57.84252
#
# Poissons Ratio (x) = 0.30746 0.16540
# Poissons Ratio (y) = 0.33335 0.18800
# Poissons Ratio (z) = 0.32818 0.34405
#
# Static dielectric constant tensor:
#      x y z
#    x 1.925280 0.000000 0.000000 
#    y 0.000000 1.958120 0.000000 
#    z 0.000000 0.000000 2.123810 
# 
# From -- ./inp_files/25350.got.cif
#   From: 2010.05.17/outbox.cif.g08.bks.cpg/sg74_13_cif.got.tgz:25350.got - 2010.06.03 17:57:02.
