data_PCOD9533210
_publ_section_title
;
Structure prediction by ZEFSAII (Michael W. Deem and Ramdas Pophale) SiO2 
 PCOD9533210
Probable space group: I B C A 
;
_chemical_formula_sum "Si O2"
_cell_formula_units_Z 72
_cell_length_a 16.848002
_cell_length_b 15.369320
_cell_length_c 13.142223
_cell_angle_alpha 90.000000
_cell_angle_beta 90.000000
_cell_angle_gamma 90.000000
_cell_volume 3403.077899
_symmetry_space_group_name_H-M "I B C A "
_symmetry_group_IT_number 73
_symmetry_cell_setting 'orthorhombic'
loop_
_space_group_symop_operation_xyz
x,y,z
-x,1/2-y,z
x,-y,1/2-z
1/2-x,y,-z
-x,-y,-z
x,1/2+y,-z
-x,y,1/2+z
1/2+x,-y,z
1/2+x,1/2+y,1/2+z
1/2-x,-y,1/2+z
1/2+x,1/2-y,-z
-x,1/2+y,1/2-z
1/2-x,1/2-y,1/2-z
1/2+x,y,1/2-z
1/2-x,1/2+y,z
x,1/2-y,1/2+z
loop_
_atom_site_type_symbol
_atom_site_label
_atom_site_fract_x
_atom_site_fract_y
_atom_site_fract_z
Si Si1 0.104634 0.198068 0.608236
Si Si2 0.542892 0.596829 0.296988
Si Si3 0.750000 0.875161 0.500000
Si Si4 0.049379 0.381170 0.528213
Si Si5 0.877693 0.459100 0.352193
O O1 0.080600 0.166650 0.720641
O O2 0.193462 0.178287 0.575306
O O3 0.087608 0.297731 0.582291
O O4 0.044159 0.140430 0.538639
O O5 0.557812 0.500000 0.250000
O O6 0.574316 0.608533 0.411308
O O7 0.447082 0.605225 0.310521
O O8 0.809586 0.927249 0.573139
O O9 0.072108 0.467240 0.588482
O O10 0.841022 0.500000 0.250000
#
# Coordination Sequence:
#
# PCOD9533210 Si02
#       5
#    16  16   8  16  16
#     4  11  25  42  71 102 144 179 239 288 365 404
#     4  11  21  43  75 102 133 192 247 278 336 447
#     4  12  26  44  66 110 144 180 228 318 350 416
#     4  11  23  44  73 100 137 196 238 288 344 447
#     4  11  23  43  69  98 141 179 248 283 352 426
#
# _framework density 21.157316999999999
#
# number of rings (size 3 to 8) (size 9 to 14) (size 15 to 20)
#    0.000    0.889    6.667    2.000    0.000    8.889 
#    0.000    2.222    0.000    0.000    0.000    0.000 
#    0.000    0.000    0.000    0.000    0.000    0.000 
#
# Total GULP energy -201152.325362 kJ/mol
# GULP energy per Si atom -5587.564593 kJ/mol
# Density = 2.110916 g / cm^3
# Si number density = 21.157317 Si / 1000 Ang^3
#
#
#
# Elastic Constant Matrix: (Units=GPa)
#
#
# Indices 1 2 3 4 5 6 
#
# 1 108.8035 44.5764 22.5095 0.0000 0.0000 0.0000
# 2 44.5764 83.3382 41.8002 0.0000 0.0000 0.0000
# 3 22.5095 41.8002 178.1782 0.0000 0.0000 0.0000
# 4 0.0000 0.0000 0.0000 28.0719 0.0000 0.0000
# 5 0.0000 0.0000 0.0000 0.0000 36.8893 0.0000
# 6 0.0000 0.0000 0.0000 0.0000 0.0000 13.7887
#
#
#
# Elastic Compliance Matrix: (Units=1/GPa)
#
#
# Indices 1 2 3 4 5 6 
#
# 1 0.011770 -0.006290 -0.000011 0.000000 0.000000 0.000000
# 2 -0.006290 0.016961 -0.003184 0.000000 0.000000 0.000000
# 3 -0.000011 -0.003184 0.006361 0.000000 0.000000 0.000000
# 4 0.000000 0.000000 0.000000 0.035623 0.000000 0.000000
# 5 0.000000 0.000000 0.000000 0.000000 0.027108 0.000000
# 6 0.000000 0.000000 0.000000 0.000000 0.000000 0.072523
#
#
# Mechanical properties :
#
#
# Convention : Reuss Voigt Hill
#
# Bulk Modulus (GPa) = 62.03266 65.34357 63.68812
# Shear Modulus (GPa) = 25.68168 33.17889 29.43029
#
# Velocity S-wave (km/s) = 3.48781 3.96435 3.73369
# Velocity P-wave (km/s) = 6.75301 7.20461 6.98246
#
# Compressibility (1/GPa) = 0.01612054
#
# Stress axis : x y z
#
# Youngs Moduli (GPa) = 84.96004 58.95898 157.21208
#
# Poissons Ratio (x) = 0.37085 0.00178
# Poissons Ratio (y) = 0.53440 0.50062
# Poissons Ratio (z) = 0.00096 0.18775
#
# Static dielectric constant tensor:
#      x y z
#    x 1.782700 0.000000 0.000000 
#    y 0.000000 1.767320 0.000000 
#    z 0.000000 0.000000 1.820150 
# 
# From -- ./inp_files/11634.got.cif
#   From: 2010.05.17/outbox.cif.g08.bks.cpg/sg73_6_cif.got.tgz:11634.got - 2010.06.03 17:35:07.
