data_PCOD9533882
_publ_section_title
;
Structure prediction by ZEFSAII (Michael W. Deem and Ramdas Pophale) SiO2 
 PCOD9533882
Probable space group: I M M A
;
_chemical_formula_sum "Si O2"
_cell_formula_units_Z 84
_cell_length_a 7.555239
_cell_length_b 25.411949
_cell_length_c 25.298277
_cell_angle_alpha 90.000000
_cell_angle_beta 90.000000
_cell_angle_gamma 90.000000
_cell_volume 4857.100904
_symmetry_space_group_name_H-M "I M M A"
_symmetry_group_IT_number 74
_symmetry_cell_setting 'orthorhombic'
loop_
_space_group_symop_operation_xyz
x,y,z
-x,1/2-y,z
x,-y,-z
-x,1/2+y,-z
-x,-y,-z
x,1/2+y,-z
-x,y,z
x,1/2-y,z
1/2+x,1/2+y,1/2+z
1/2-x,-y,1/2+z
1/2+x,1/2-y,1/2-z
1/2-x,y,1/2-z
1/2-x,1/2-y,1/2-z
1/2+x,y,1/2-z
1/2-x,1/2+y,1/2+z
1/2+x,-y,1/2+z
loop_
_atom_site_type_symbol
_atom_site_label
_atom_site_fract_x
_atom_site_fract_y
_atom_site_fract_z
Si Si1 0.715451 0.190471 0.551591
Si Si2 0.790622 0.502129 0.918337
Si Si3 0.500000 0.250000 0.704396
Si Si4 0.792589 0.664596 0.327304
Si Si5 0.207976 0.045010 0.691112
Si Si6 0.216191 0.914096 0.999131
O O1 0.500000 0.190103 0.554836
O O2 0.769567 0.250000 0.538590
O O3 0.782202 0.175527 0.609861
O O4 0.773377 0.145143 0.511127
O O5 0.764672 0.492202 0.856771
O O6 0.725503 0.451968 0.952376
O O7 0.000000 0.502482 0.927324
O O8 0.724265 0.555479 0.946231
O O9 0.656184 0.295386 0.698545
O O10 0.727750 0.605025 0.316496
O O11 0.000000 0.671886 0.311365
O O12 0.250000 0.026331 0.750000
O O13 0.000000 0.049596 0.686111
O O14 0.000000 0.912379 0.999104
#
# Coordination Sequence:
#
# PCOD9533882 Si02
#       6
#    16  16   4  16  16  16
#     4  10  16  27  48  72 101 139 171 205 252 296
#     4   9  16  30  51  71  97 129 165 208 250 306
#     4  12  22  36  58  66  96 144 162 224 264 294
#     4  11  22  35  52  74  96 127 178 215 254 307
#     4  11  24  37  54  72  95 127 167 216 264 310
#     4   8  15  26  47  75  99 131 168 200 249 305
#
# _framework density 17.294267999999999
#
# number of rings (size 3 to 8) (size 9 to 14) (size 15 to 20)
#    0.000    2.095    3.810    2.000    2.667    0.000 
#    0.000    3.333    0.000    0.000    0.000    0.000 
#    0.000    0.762    0.000    1.333    0.000    1.905 
#
# Total GULP energy -233880.367724 kJ/mol
# GULP energy per Si atom -5568.580184 kJ/mol
# Density = 1.725491 g / cm^3
# Si number density = 17.294268 Si / 1000 Ang^3
#
#
#
# Elastic Constant Matrix: (Units=GPa)
#
#
# Indices 1 2 3 4 5 6 
#
# 1 58.9289 12.1789 9.8214 0.0000 0.0000 0.0000
# 2 12.1789 112.5718 83.8893 0.0000 0.0000 0.0000
# 3 9.8214 83.8893 118.6401 0.0000 0.0000 0.0000
# 4 0.0000 0.0000 0.0000 8.1526 0.0000 0.0000
# 5 0.0000 0.0000 0.0000 0.0000 16.3450 0.0000
# 6 0.0000 0.0000 0.0000 0.0000 0.0000 1.3553
#
#
#
# Elastic Compliance Matrix: (Units=1/GPa)
#
#
# Indices 1 2 3 4 5 6 
#
# 1 0.017361 -0.001706 -0.000231 0.000000 0.000000 0.000000
# 2 -0.001706 0.018945 -0.013255 0.000000 0.000000 0.000000
# 3 -0.000231 -0.013255 0.017820 0.000000 0.000000 0.000000
# 4 0.000000 0.000000 0.000000 0.122660 0.000000 0.000000
# 5 0.000000 0.000000 0.000000 0.000000 0.061181 0.000000
# 6 0.000000 0.000000 0.000000 0.000000 0.000000 0.737824
#
#
# Mechanical properties :
#
#
# Convention : Reuss Voigt Hill
#
# Bulk Modulus (GPa) = 42.11808 55.76887 48.94348
# Shear Modulus (GPa) = 4.93053 17.45402 11.19227
#
# Velocity S-wave (km/s) = 1.69031 3.18030 2.54671
# Velocity P-wave (km/s) = 5.31189 6.76777 6.08354
#
# Compressibility (1/GPa) = 0.02374277
#
# Stress axis : x y z
#
# Youngs Moduli (GPa) = 57.60137 52.78302 56.11555
#
# Poissons Ratio (x) = 0.09007 0.01294
# Poissons Ratio (y) = 0.09829 0.74381
# Poissons Ratio (z) = 0.01328 0.69963
#
# Static dielectric constant tensor:
#      x y z
#    x 1.648160 0.000000 0.000000 
#    y 0.000000 1.612640 0.000000 
#    z 0.000000 0.000000 1.577780 
# 
# From -- ./inp_files/64629.got.cif
#   From: 2010.05.17/outbox.cif.g08.bks.cpg/sg74_33_cif.got.tgz:64629.got - 2010.06.03 17:57:02.
