data_PCOD9533027
_publ_section_title
;
Structure prediction by ZEFSAII (Michael W. Deem and Ramdas Pophale) SiO2 
 PCOD9533027
Probable space group: I B C A 
;
_chemical_formula_sum "Si O2"
_cell_formula_units_Z 88
_cell_length_a 21.963134
_cell_length_b 8.168882
_cell_length_c 19.677382
_cell_angle_alpha 90.000000
_cell_angle_beta 90.000000
_cell_angle_gamma 90.000000
_cell_volume 3530.402733
_symmetry_space_group_name_H-M "I B C A "
_symmetry_group_IT_number 73
_symmetry_cell_setting 'orthorhombic'
loop_
_space_group_symop_operation_xyz
x,y,z
-x,1/2-y,z
x,-y,1/2-z
1/2-x,y,-z
-x,-y,-z
x,1/2+y,-z
-x,y,1/2+z
1/2+x,-y,z
1/2+x,1/2+y,1/2+z
1/2-x,-y,1/2+z
1/2+x,1/2-y,-z
-x,1/2+y,1/2-z
1/2-x,1/2-y,1/2-z
1/2+x,y,1/2-z
1/2-x,1/2+y,z
x,1/2-y,1/2+z
loop_
_atom_site_type_symbol
_atom_site_label
_atom_site_fract_x
_atom_site_fract_y
_atom_site_fract_z
Si Si1 0.410362 0.260441 0.470264
Si Si2 0.534631 0.909590 0.654456
Si Si3 0.070961 0.103403 0.395055
Si Si4 0.210155 0.072951 0.566256
Si Si5 0.190847 0.243727 0.849203
Si Si6 0.354184 0.500000 0.750000
O O1 0.449385 0.140781 0.422325
O O2 0.432397 0.242330 0.547209
O O3 0.415538 0.440051 0.439046
O O4 0.342256 0.194702 0.458636
O O5 0.500000 0.750000 0.684200
O O6 0.597667 0.943451 0.692321
O O7 0.487285 0.058882 0.650469
O O8 0.130628 0.145436 0.352053
O O9 0.250000 0.038617 0.500000
O O10 0.251201 0.153894 0.625627
O O11 0.186001 0.902261 0.595227
O O12 0.187073 0.146355 0.778543
#
# Coordination Sequence:
#
# PCOD9533027 Si02
#       6
#    16  16  16  16  16   8
#     4  11  22  45  71 115 149 185 245 305 391 468
#     4  10  25  46  71 106 147 196 246 316 380 455
#     4  11  24  43  75 113 150 191 237 314 395 454
#     4  12  24  44  73 109 149 193 247 313 392 450
#     4  12  27  45  73 106 150 205 253 316 372 463
#     4  12  28  50  70 106 142 204 274 306 372 458
#
# _framework density 24.926334000000001
#
# number of rings (size 3 to 8) (size 9 to 14) (size 15 to 20)
#    0.000    0.727    3.636    3.273    2.545    0.727 
#    0.000    0.000    0.000    0.000    0.000    0.000 
#    0.000    0.000    0.000    0.000    0.000    0.000 
#
# Total GULP energy -246604.449616 kJ/mol
# GULP energy per Si atom -5604.646582 kJ/mol
# Density = 2.486960 g / cm^3
# Si number density = 24.926334 Si / 1000 Ang^3
#
#
#
# Elastic Constant Matrix: (Units=GPa)
#
#
# Indices 1 2 3 4 5 6 
#
# 1 129.9149 35.5888 34.5487 0.0000 0.0000 0.0000
# 2 35.5888 118.2776 17.0679 0.0000 0.0000 0.0000
# 3 34.5487 17.0679 69.0591 0.0000 0.0000 0.0000
# 4 0.0000 0.0000 0.0000 34.1026 0.0000 0.0000
# 5 0.0000 0.0000 0.0000 0.0000 40.8236 0.0000
# 6 0.0000 0.0000 0.0000 0.0000 0.0000 45.7202
#
#
#
# Elastic Compliance Matrix: (Units=1/GPa)
#
#
# Indices 1 2 3 4 5 6 
#
# 1 0.009415 -0.002233 -0.004158 0.000000 0.000000 0.000000
# 2 -0.002233 0.009297 -0.001181 0.000000 0.000000 0.000000
# 3 -0.004158 -0.001181 0.016852 0.000000 0.000000 0.000000
# 4 0.000000 0.000000 0.000000 0.029323 0.000000 0.000000
# 5 0.000000 0.000000 0.000000 0.000000 0.024496 0.000000
# 6 0.000000 0.000000 0.000000 0.000000 0.000000 0.021872
#
#
# Mechanical properties :
#
#
# Convention : Reuss Voigt Hill
#
# Bulk Modulus (GPa) = 48.96980 54.62914 51.79947
# Shear Modulus (GPa) = 37.53602 39.46571 38.50086
#
# Velocity S-wave (km/s) = 3.88477 3.98338 3.93439
# Velocity P-wave (km/s) = 6.30955 6.56660 6.43936
#
# Compressibility (1/GPa) = 0.02042075
#
# Stress axis : x y z
#
# Youngs Moduli (GPa) = 106.21576 107.56282 59.33874
#
# Poissons Ratio (x) = 0.24017 0.24674
# Poissons Ratio (y) = 0.23716 0.07006
# Poissons Ratio (z) = 0.44166 0.12700
#
# Static dielectric constant tensor:
#      x y z
#    x 1.992340 0.000000 0.000000 
#    y 0.000000 1.978290 0.000000 
#    z 0.000000 0.000000 1.998390 
# 
# From -- ./inp_files/30053.got.cif
#   From: 2010.05.17/outbox.cif.g08.bks.cpg/sg73_16_cif.got.tgz:30053.got - 2010.06.03 17:35:07.
