data_PCOD9533009
_publ_section_title
;
Structure prediction by ZEFSAII (Michael W. Deem and Ramdas Pophale) SiO2 
 PCOD9533009
Probable space group: I B C A 
;
_chemical_formula_sum "Si O2"
_cell_formula_units_Z 88
_cell_length_a 9.746855
_cell_length_b 13.910744
_cell_length_c 23.545269
_cell_angle_alpha 90.000000
_cell_angle_beta 90.000000
_cell_angle_gamma 90.000000
_cell_volume 3192.408954
_symmetry_space_group_name_H-M "I B C A "
_symmetry_group_IT_number 73
_symmetry_cell_setting 'orthorhombic'
loop_
_space_group_symop_operation_xyz
x,y,z
-x,1/2-y,z
x,-y,1/2-z
1/2-x,y,-z
-x,-y,-z
x,1/2+y,-z
-x,y,1/2+z
1/2+x,-y,z
1/2+x,1/2+y,1/2+z
1/2-x,-y,1/2+z
1/2+x,1/2-y,-z
-x,1/2+y,1/2-z
1/2-x,1/2-y,1/2-z
1/2+x,y,1/2-z
1/2-x,1/2+y,z
x,1/2-y,1/2+z
loop_
_atom_site_type_symbol
_atom_site_label
_atom_site_fract_x
_atom_site_fract_y
_atom_site_fract_z
Si Si1 0.750000 0.425059 0.500000
Si Si2 0.393207 0.605710 0.733715
Si Si3 0.332876 0.920814 0.845280
Si Si4 0.600283 0.961774 0.908559
Si Si5 0.277884 0.239539 0.065381
Si Si6 0.000000 0.750000 0.360836
Si Si7 0.000000 0.750000 0.672573
O O1 0.865972 0.487068 0.531414
O O2 0.689021 0.350877 0.545966
O O3 0.425000 0.671790 0.787718
O O4 0.539924 0.474739 0.625532
O O5 0.464727 0.661972 0.681546
O O6 0.231388 0.596119 0.718144
O O7 0.210378 0.984830 0.869300
O O8 0.375917 0.808694 0.856544
O O9 0.554731 0.000000 0.750000
O O10 0.627033 0.848225 0.913221
O O11 0.132522 0.237015 0.099123
O O12 0.250000 0.202130 0.000000
#
# Coordination Sequence:
#
# PCOD9533009 Si02
#       7
#     8  16  16  16  16   8   8
#     4  10  24  52  76 124 170 228 282 374 436 542
#     4  11  27  56  87 124 180 233 298 384 448 540
#     4  12  30  51  83 125 173 229 306 366 453 540
#     4  12  28  51  81 123 170 232 292 372 454 540
#     4  10  26  48  83 122 173 229 287 370 446 543
#     4  11  26  52  91 132 174 240 301 368 457 546
#     4  11  28  52  89 128 168 234 295 386 455 534
#
# _framework density 27.565387999999999
#
# number of rings (size 3 to 8) (size 9 to 14) (size 15 to 20)
#    0.545    0.364    0.909    2.727   12.727    4.364 
#    3.273    0.000    0.000    0.000    0.000    0.000 
#    0.000    0.000    0.000    0.000    0.000    0.000 
#
# Total GULP energy -245875.055667 kJ/mol
# GULP energy per Si atom -5588.069447 kJ/mol
# Density = 2.750265 g / cm^3
# Si number density = 27.565388 Si / 1000 Ang^3
#
#
#
# Elastic Constant Matrix: (Units=GPa)
#
#
# Indices 1 2 3 4 5 6 
#
# 1 215.3839 56.9044 59.5436 0.0000 0.0000 0.0000
# 2 56.9044 200.9322 54.7450 0.0000 0.0000 0.0000
# 3 59.5436 54.7450 114.8379 0.0000 0.0000 0.0000
# 4 0.0000 0.0000 0.0000 115.0999 0.0000 0.0000
# 5 0.0000 0.0000 0.0000 0.0000 46.5358 0.0000
# 6 0.0000 0.0000 0.0000 0.0000 0.0000 55.7014
#
#
#
# Elastic Compliance Matrix: (Units=1/GPa)
#
#
# Indices 1 2 3 4 5 6 
#
# 1 0.005560 -0.000907 -0.002450 0.000000 0.000000 0.000000
# 2 -0.000907 0.005868 -0.002327 0.000000 0.000000 0.000000
# 3 -0.002450 -0.002327 0.011088 0.000000 0.000000 0.000000
# 4 0.000000 0.000000 0.000000 0.008688 0.000000 0.000000
# 5 0.000000 0.000000 0.000000 0.000000 0.021489 0.000000
# 6 0.000000 0.000000 0.000000 0.000000 0.000000 0.017953
#
#
# Mechanical properties :
#
#
# Convention : Reuss Voigt Hill
#
# Bulk Modulus (GPa) = 89.71315 97.05998 93.38657
# Shear Modulus (GPa) = 58.32302 67.46481 62.89392
#
# Velocity S-wave (km/s) = 4.60478 4.95253 4.78182
# Velocity P-wave (km/s) = 7.80309 8.24565 8.02742
#
# Compressibility (1/GPa) = 0.01114664
#
# Stress axis : x y z
#
# Youngs Moduli (GPa) = 179.85845 170.42633 90.18933
#
# Poissons Ratio (x) = 0.15457 0.22101
# Poissons Ratio (y) = 0.16312 0.20987
# Poissons Ratio (z) = 0.44074 0.39657
#
# Static dielectric constant tensor:
#      x y z
#    x 1.995890 0.000000 0.000000 
#    y 0.000000 2.131390 0.000000 
#    z 0.000000 0.000000 2.574080 
# 
# From -- ./inp_files/29477.got.cif
#   From: 2010.05.17/outbox.cif.g08.bks.cpg/sg73_15_cif.got.tgz:29477.got - 2010.06.03 17:35:07.
