data_PCOD9533998
_publ_section_title
;
Structure prediction by ZEFSAII (Michael W. Deem and Ramdas Pophale) SiO2 
 PCOD9533998
Probable space group: I M M A
;
_chemical_formula_sum "Si O2"
_cell_formula_units_Z 112
_cell_length_a 16.167535
_cell_length_b 15.980111
_cell_length_c 26.993018
_cell_angle_alpha 90.000000
_cell_angle_beta 90.000000
_cell_angle_gamma 90.000000
_cell_volume 6973.889243
_symmetry_space_group_name_H-M "I M M A"
_symmetry_group_IT_number 74
_symmetry_cell_setting 'orthorhombic'
loop_
_space_group_symop_operation_xyz
x,y,z
-x,1/2-y,z
x,-y,-z
-x,1/2+y,-z
-x,-y,-z
x,1/2+y,-z
-x,y,z
x,1/2-y,z
1/2+x,1/2+y,1/2+z
1/2-x,-y,1/2+z
1/2+x,1/2-y,1/2-z
1/2-x,y,1/2-z
1/2-x,1/2-y,1/2-z
1/2+x,y,1/2-z
1/2-x,1/2+y,1/2+z
1/2+x,-y,1/2+z
loop_
_atom_site_type_symbol
_atom_site_label
_atom_site_fract_x
_atom_site_fract_y
_atom_site_fract_z
Si Si1 0.598235 0.843569 0.744677
Si Si2 0.600151 0.156123 0.771624
Si Si3 0.838873 0.930318 0.849011
Si Si4 0.095371 0.607326 0.162917
Si Si5 0.687626 0.991781 0.796887
Si Si6 0.094680 0.649459 0.056703
Si Si7 0.599873 0.349466 0.448386
O O1 0.500000 0.848733 0.736735
O O2 0.618499 0.750000 0.762516
O O3 0.643424 0.860117 0.692283
O O4 0.627275 0.916224 0.781703
O O5 0.500000 0.147021 0.772144
O O6 0.620763 0.250000 0.788369
O O7 0.628182 0.145679 0.713916
O O8 0.641056 0.079771 0.801028
O O9 0.746398 0.965049 0.841852
O O10 0.860444 0.899224 0.903351
O O11 0.897903 0.007566 0.833421
O O12 0.134595 0.628244 0.109567
O O13 0.000000 0.635886 0.160345
O O14 0.750000 0.999517 0.750000
O O15 0.090006 0.750000 0.054250
O O16 0.000000 0.616032 0.058429
O O17 0.128945 0.622646 0.003325
O O18 0.500000 0.359738 0.446643
O O19 0.615948 0.250000 0.442705
#
# Coordination Sequence:
#
# PCOD9533998 Si02
#       7
#    16  16  16  16  16  16  16
#     4  10  19  31  47  62  81 113 151 191 230 267
#     4  10  19  32  50  66  84 118 158 193 227 266
#     4  11  20  28  40  62  88 118 154 188 223 265
#     4  10  17  27  43  63  88 117 154 193 221 257
#     4  10  20  32  42  63  90 115 150 193 229 269
#     4   8  15  27  41  60  85 113 152 197 229 253
#     4   9  17  29  44  61  85 120 160 196 226 260
#
# _framework density 16.059906000000002
#
# number of rings (size 3 to 8) (size 9 to 14) (size 15 to 20)
#    0.000    2.286    2.857    3.429    0.000    6.857 
#    0.000    2.143    0.000    0.000    0.000    0.000 
#    0.000    0.000    0.000   10.286    0.000   37.143 
#
# Total GULP energy -311927.221111 kJ/mol
# GULP energy per Si atom -5570.128948 kJ/mol
# Density = 1.602335 g / cm^3
# Si number density = 16.059906 Si / 1000 Ang^3
#
#
#
# Elastic Constant Matrix: (Units=GPa)
#
#
# Indices 1 2 3 4 5 6 
#
# 1 38.5890 31.6904 20.3961 0.0000 0.0000 0.0000
# 2 31.6904 92.8386 15.3236 0.0000 0.0000 0.0000
# 3 20.3961 15.3236 49.1846 0.0000 0.0000 0.0000
# 4 0.0000 0.0000 0.0000 18.7354 0.0000 0.0000
# 5 0.0000 0.0000 0.0000 0.0000 6.7598 0.0000
# 6 0.0000 0.0000 0.0000 0.0000 0.0000 13.7849
#
#
#
# Elastic Compliance Matrix: (Units=1/GPa)
#
#
# Indices 1 2 3 4 5 6 
#
# 1 0.043779 -0.012595 -0.014230 0.000000 0.000000 0.000000
# 2 -0.012595 0.014979 0.000556 0.000000 0.000000 0.000000
# 3 -0.014230 0.000556 0.026059 0.000000 0.000000 0.000000
# 4 0.000000 0.000000 0.000000 0.053375 0.000000 0.000000
# 5 0.000000 0.000000 0.000000 0.000000 0.147933 0.000000
# 6 0.000000 0.000000 0.000000 0.000000 0.000000 0.072543
#
#
# Mechanical properties :
#
#
# Convention : Reuss Voigt Hill
#
# Bulk Modulus (GPa) = 30.98010 35.04803 33.01407
# Shear Modulus (GPa) = 11.84929 15.40284 13.62606
#
# Velocity S-wave (km/s) = 2.71923 3.10027 2.91598
# Velocity P-wave (km/s) = 5.40288 5.88951 5.65143
#
# Compressibility (1/GPa) = 0.03227878
#
# Stress axis : x y z
#
# Youngs Moduli (GPa) = 22.84198 66.76056 38.37390
#
# Poissons Ratio (x) = 0.84086 0.54608
# Poissons Ratio (y) = 0.28770 -0.02135
# Poissons Ratio (z) = 0.32505 -0.03714
#
# Static dielectric constant tensor:
#      x y z
#    x 1.553920 0.000000 0.000000 
#    y 0.000000 1.586220 0.000000 
#    z 0.000000 0.000000 1.560590 
# 
# From -- ./inp_files/72671.got.cif
#   From: 2010.05.17/outbox.cif.g08.bks.cpg/sg74_37_cif.got.tgz:72671.got - 2010.06.03 17:57:02.
