data_PCOD9533133
_publ_section_title
;
Structure prediction by ZEFSAII (Michael W. Deem and Ramdas Pophale) SiO2 
 PCOD9533133
Probable space group: I B C A 
;
_chemical_formula_sum "Si O2"
_cell_formula_units_Z 128
_cell_length_a 22.727639
_cell_length_b 17.390005
_cell_length_c 16.587369
_cell_angle_alpha 90.000000
_cell_angle_beta 90.000000
_cell_angle_gamma 90.000000
_cell_volume 6555.888150
_symmetry_space_group_name_H-M "I B C A "
_symmetry_group_IT_number 73
_symmetry_cell_setting 'orthorhombic'
loop_
_space_group_symop_operation_xyz
x,y,z
-x,1/2-y,z
x,-y,1/2-z
1/2-x,y,-z
-x,-y,-z
x,1/2+y,-z
-x,y,1/2+z
1/2+x,-y,z
1/2+x,1/2+y,1/2+z
1/2-x,-y,1/2+z
1/2+x,1/2-y,-z
-x,1/2+y,1/2-z
1/2-x,1/2-y,1/2-z
1/2+x,y,1/2-z
1/2-x,1/2+y,z
x,1/2-y,1/2+z
loop_
_atom_site_type_symbol
_atom_site_label
_atom_site_fract_x
_atom_site_fract_y
_atom_site_fract_z
Si Si1 0.140904 0.361979 0.077340
Si Si2 0.226444 0.733267 0.923220
Si Si3 0.192682 0.407340 0.247279
Si Si4 0.328910 0.124433 0.711215
Si Si5 0.148714 0.278352 0.358361
Si Si6 0.368849 0.381793 0.377116
Si Si7 0.314610 0.471214 0.043605
Si Si8 0.934344 0.729366 0.483922
O O1 0.196103 0.310629 0.046583
O O2 0.157899 0.383451 0.167152
O O3 0.087062 0.305179 0.064407
O O4 0.140667 0.435465 0.021073
O O5 0.284340 0.747857 0.874970
O O6 0.176542 0.689849 0.875590
O O7 0.250000 0.686552 0.000000
O O8 0.194549 0.500000 0.250000
O O9 0.260388 0.377766 0.242190
O O10 0.158444 0.361604 0.317920
O O11 0.365207 0.204534 0.696870
O O12 0.367180 0.088506 0.785239
O O13 0.321318 0.079404 0.625817
O O14 0.108396 0.281001 0.438004
O O15 0.337080 0.445322 0.431346
O O16 0.423975 0.343858 0.424398
O O17 0.250000 0.472519 0.000000
O O18 0.000000 0.750000 0.509777
#
# Coordination Sequence:
#
# PCOD9533133 Si02
#       8
#    16  16  16  16  16  16  16  16
#     4  11  22  40  62  91 132 169 207 262 327 399
#     4  11  17  32  55  91 122 160 202 248 322 392
#     4  12  25  34  60 104 145 164 195 260 342 421
#     4  12  22  38  58 102 139 170 206 255 339 417
#     4  12  21  38  63  90 128 169 214 267 326 398
#     4  11  24  35  63  95 135 165 212 274 321 394
#     4  12  22  35  62 103 142 172 196 252 344 417
#     4  11  26  47  68  89 117 180 246 278 312 377
#
# _framework density 19.524432999999998
#
# number of rings (size 3 to 8) (size 9 to 14) (size 15 to 20)
#    0.000    0.500    7.500    3.750    1.750    0.000 
#    0.000    3.125    0.000    0.000    0.000    0.000 
#    0.000    0.000    0.000    0.000    0.000    0.000 
#
# Total GULP energy -356317.685487 kJ/mol
# GULP energy per Si atom -5567.463836 kJ/mol
# Density = 1.947999 g / cm^3
# Si number density = 19.524433 Si / 1000 Ang^3
#
#
#
# Elastic Constant Matrix: (Units=GPa)
#
#
# Indices 1 2 3 4 5 6 
#
# 1 56.5823 19.5855 15.9429 0.0000 0.0000 0.0000
# 2 19.5855 89.8306 31.6595 0.0000 0.0000 0.0000
# 3 15.9429 31.6595 86.4411 0.0000 0.0000 0.0000
# 4 0.0000 0.0000 0.0000 32.3521 0.0000 0.0000
# 5 0.0000 0.0000 0.0000 0.0000 10.0898 0.0000
# 6 0.0000 0.0000 0.0000 0.0000 0.0000 10.5708
#
#
#
# Elastic Compliance Matrix: (Units=1/GPa)
#
#
# Indices 1 2 3 4 5 6 
#
# 1 0.019521 -0.003430 -0.002344 0.000000 0.000000 0.000000
# 2 -0.003430 0.013385 -0.004270 0.000000 0.000000 0.000000
# 3 -0.002344 -0.004270 0.013565 0.000000 0.000000 0.000000
# 4 0.000000 0.000000 0.000000 0.030910 0.000000 0.000000
# 5 0.000000 0.000000 0.000000 0.000000 0.099110 0.000000
# 6 0.000000 0.000000 0.000000 0.000000 0.000000 0.094600
#
#
# Mechanical properties :
#
#
# Convention : Reuss Voigt Hill
#
# Bulk Modulus (GPa) = 37.90317 40.80331 39.35324
# Shear Modulus (GPa) = 16.66823 21.64695 19.15759
#
# Velocity S-wave (km/s) = 2.92500 3.33334 3.13583
# Velocity P-wave (km/s) = 5.55544 5.97987 5.77156
#
# Compressibility (1/GPa) = 0.02638302
#
# Stress axis : x y z
#
# Youngs Moduli (GPa) = 51.22649 74.71248 73.72092
#
# Poissons Ratio (x) = 0.25626 0.17281
# Poissons Ratio (y) = 0.17571 0.31476
# Poissons Ratio (z) = 0.12008 0.31899
#
# Static dielectric constant tensor:
#      x y z
#    x 1.695320 0.000000 0.000000 
#    y 0.000000 1.764730 0.000000 
#    z 0.000000 0.000000 1.802480 
# 
# From -- ./inp_files/23700.got.cif
#   From: 2010.05.17/outbox.cif.g08.bks.cpg/sg73_12_cif.got.tgz:23700.got - 2010.06.03 17:35:07.
