data_PCOD9533533
_publ_section_title
;
Structure prediction by ZEFSAII (Michael W. Deem and Ramdas Pophale) SiO2 
 PCOD9533533
Probable space group: I B C A 
;
_chemical_formula_sum "Si O2"
_cell_formula_units_Z 88
_cell_length_a 24.623167
_cell_length_b 12.939212
_cell_length_c 12.635135
_cell_angle_alpha 90.000000
_cell_angle_beta 90.000000
_cell_angle_gamma 90.000000
_cell_volume 4025.609327
_symmetry_space_group_name_H-M "I B C A "
_symmetry_group_IT_number 73
_symmetry_cell_setting 'orthorhombic'
loop_
_space_group_symop_operation_xyz
x,y,z
-x,1/2-y,z
x,-y,1/2-z
1/2-x,y,-z
-x,-y,-z
x,1/2+y,-z
-x,y,1/2+z
1/2+x,-y,z
1/2+x,1/2+y,1/2+z
1/2-x,-y,1/2+z
1/2+x,1/2-y,-z
-x,1/2+y,1/2-z
1/2-x,1/2-y,1/2-z
1/2+x,y,1/2-z
1/2-x,1/2+y,z
x,1/2-y,1/2+z
loop_
_atom_site_type_symbol
_atom_site_label
_atom_site_fract_x
_atom_site_fract_y
_atom_site_fract_z
Si Si1 0.843990 0.229385 0.313674
Si Si2 0.676026 0.517861 0.422576
Si Si3 0.084079 0.377901 0.141882
Si Si4 0.210631 0.562665 0.650924
Si Si5 0.548596 0.168495 0.093051
Si Si6 0.507611 0.000000 0.250000
O O1 0.870257 0.190392 0.202484
O O2 0.799215 0.318729 0.319893
O O3 0.896418 0.282930 0.363843
O O4 0.822179 0.136409 0.387041
O O5 0.617624 0.481272 0.383691
O O6 0.725701 0.460354 0.364693
O O7 0.683316 0.482447 0.544146
O O8 0.032131 0.409471 0.209582
O O9 0.059898 0.339542 0.031784
O O10 0.188562 0.500000 0.750000
O O11 0.500000 0.250000 0.110495
O O12 0.538833 0.058599 0.153976
#
# Coordination Sequence:
#
# PCOD9533533 Si02
#       6
#    16  16  16  16  16   8
#     4  12  26  47  75 106 150 197 245 310 377 442
#     4  11  25  49  72 105 150 194 242 313 380 442
#     4  12  24  47  74 104 150 192 251 303 372 446
#     4  11  27  45  74 112 143 193 257 304 377 455
#     4  12  27  46  73 109 142 197 246 303 372 438
#     4  12  26  48  72 104 146 194 244 312 370 442
#
# _framework density 21.860043999999998
#
# number of rings (size 3 to 8) (size 9 to 14) (size 15 to 20)
#    0.000    0.364    5.455    1.636    6.364    5.818 
#    0.000    0.000    0.000    0.000    0.000    0.000 
#    0.000    0.000    0.000    0.000    0.000    0.000 
#
# Total GULP energy -245690.103539 kJ/mol
# GULP energy per Si atom -5583.865990 kJ/mol
# Density = 2.181029 g / cm^3
# Si number density = 21.860044 Si / 1000 Ang^3
#
#
#
# Elastic Constant Matrix: (Units=GPa)
#
#
# Indices 1 2 3 4 5 6 
#
# 1 69.0968 40.1651 14.1241 0.0000 0.0000 0.0000
# 2 40.1651 146.9604 57.3713 0.0000 0.0000 0.0000
# 3 14.1241 57.3713 151.2320 0.0000 0.0000 0.0000
# 4 0.0000 0.0000 0.0000 29.4315 0.0000 0.0000
# 5 0.0000 0.0000 0.0000 0.0000 29.2368 0.0000
# 6 0.0000 0.0000 0.0000 0.0000 0.0000 12.2970
#
#
#
# Elastic Compliance Matrix: (Units=1/GPa)
#
#
# Indices 1 2 3 4 5 6 
#
# 1 0.017212 -0.004785 0.000208 0.000000 0.000000 0.000000
# 2 -0.004785 0.009318 -0.003088 0.000000 0.000000 0.000000
# 3 0.000208 -0.003088 0.007764 0.000000 0.000000 0.000000
# 4 0.000000 0.000000 0.000000 0.033977 0.000000 0.000000
# 5 0.000000 0.000000 0.000000 0.000000 0.034204 0.000000
# 6 0.000000 0.000000 0.000000 0.000000 0.000000 0.081321
#
#
# Mechanical properties :
#
#
# Convention : Reuss Voigt Hill
#
# Bulk Modulus (GPa) = 52.73341 65.62337 59.17839
# Shear Modulus (GPa) = 24.33720 31.23495 27.78607
#
# Velocity S-wave (km/s) = 3.34026 3.78413 3.56910
# Velocity P-wave (km/s) = 6.24916 7.01269 6.64191
#
# Compressibility (1/GPa) = 0.01896331
#
# Stress axis : x y z
#
# Youngs Moduli (GPa) = 58.10062 107.32102 128.79339
#
# Poissons Ratio (x) = 0.51355 -0.02677
# Poissons Ratio (y) = 0.27802 0.39770
# Poissons Ratio (z) = -0.01208 0.33140
#
# Static dielectric constant tensor:
#      x y z
#    x 1.826720 0.000000 0.000000 
#    y 0.000000 1.903230 0.000000 
#    z 0.000000 0.000000 -1.409390 
# 
# From -- ./inp_files/19256.got.cif
#   From: 2010.05.17/outbox.cif.g08.bks.cpg/sg73_10_cif.got.tgz:19256.got - 2010.06.03 17:35:07.
