data_PCOD9533097
_publ_section_title
;
Structure prediction by ZEFSAII (Michael W. Deem and Ramdas Pophale) SiO2 
 PCOD9533097
Probable space group: I B C A 
;
_chemical_formula_sum "Si O2"
_cell_formula_units_Z 88
_cell_length_a 20.386808
_cell_length_b 22.543109
_cell_length_c 9.408806
_cell_angle_alpha 90.000000
_cell_angle_beta 90.000000
_cell_angle_gamma 90.000000
_cell_volume 4324.118208
_symmetry_space_group_name_H-M "I B C A "
_symmetry_group_IT_number 73
_symmetry_cell_setting 'orthorhombic'
loop_
_space_group_symop_operation_xyz
x,y,z
-x,1/2-y,z
x,-y,1/2-z
1/2-x,y,-z
-x,-y,-z
x,1/2+y,-z
-x,y,1/2+z
1/2+x,-y,z
1/2+x,1/2+y,1/2+z
1/2-x,-y,1/2+z
1/2+x,1/2-y,-z
-x,1/2+y,1/2-z
1/2-x,1/2-y,1/2-z
1/2+x,y,1/2-z
1/2-x,1/2+y,z
x,1/2-y,1/2+z
loop_
_atom_site_type_symbol
_atom_site_label
_atom_site_fract_x
_atom_site_fract_y
_atom_site_fract_z
Si Si1 0.349416 0.500000 0.250000
Si Si2 0.000000 0.250000 0.858694
Si Si3 0.633543 0.500000 0.250000
Si Si4 0.930651 0.819284 0.894060
Si Si5 0.057655 0.951638 0.493956
Si Si6 0.240143 0.589711 0.345647
Si Si7 0.774786 0.304857 0.157059
O O1 0.392812 0.473905 0.374251
O O2 0.303373 0.550184 0.314170
O O3 0.031103 0.297534 0.748025
O O4 0.053088 0.222743 0.969613
O O5 0.591509 0.458317 0.147142
O O6 0.679707 0.455772 0.339694
O O7 0.853364 0.816286 0.853415
O O8 0.955357 0.884032 0.946970
O O9 0.000000 0.000000 0.500000
O O10 0.250000 0.618018 0.500000
O O11 0.238648 0.638079 0.223333
O O12 0.750000 0.250000 0.250000
O O13 0.750000 0.294942 0.000000
#
# Coordination Sequence:
#
# PCOD9533097 Si02
#       7
#     8   8   8  16  16  16  16
#     4  11  23  44  64  98 139 173 226 286 350 421
#     4  10  26  48  72  98 138 200 236 294 364 394
#     4  11  25  42  66 102 133 179 224 276 358 417
#     4  11  25  48  71 101 143 183 246 298 346 437
#     4  12  26  43  69 102 141 183 233 290 354 426
#     4  11  23  42  68  96 137 179 219 286 354 420
#     4  12  25  44  71 103 136 178 235 296 359 420
#
# _framework density 20.35097
#
# number of rings (size 3 to 8) (size 9 to 14) (size 15 to 20)
#    0.000    0.727    3.636    3.273    5.091    0.000 
#    3.273    0.000    0.000    0.000    0.000    0.000 
#    0.000    0.000    0.000    0.000    0.000    0.000 
#
# Total GULP energy -245735.925408 kJ/mol
# GULP energy per Si atom -5584.907396 kJ/mol
# Density = 2.030465 g / cm^3
# Si number density = 20.350970 Si / 1000 Ang^3
#
#
#
# Elastic Constant Matrix: (Units=GPa)
#
#
# Indices 1 2 3 4 5 6 
#
# 1 70.0223 19.9569 12.1246 0.0000 0.0000 0.0000
# 2 19.9569 116.2578 38.4378 0.0000 0.0000 0.0000
# 3 12.1246 38.4378 137.8697 0.0000 0.0000 0.0000
# 4 0.0000 0.0000 0.0000 41.5571 0.0000 0.0000
# 5 0.0000 0.0000 0.0000 0.0000 6.4960 0.0000
# 6 0.0000 0.0000 0.0000 0.0000 0.0000 92.1223
#
#
#
# Elastic Compliance Matrix: (Units=1/GPa)
#
#
# Indices 1 2 3 4 5 6 
#
# 1 0.015071 -0.002367 -0.000665 0.000000 0.000000 0.000000
# 2 -0.002367 0.009847 -0.002537 0.000000 0.000000 0.000000
# 3 -0.000665 -0.002537 0.008019 0.000000 0.000000 0.000000
# 4 0.000000 0.000000 0.000000 0.024063 0.000000 0.000000
# 5 0.000000 0.000000 0.000000 0.000000 0.153941 0.000000
# 6 0.000000 0.000000 0.000000 0.000000 0.000000 0.010855
#
#
# Mechanical properties :
#
#
# Convention : Reuss Voigt Hill
#
# Bulk Modulus (GPa) = 45.87659 51.68759 48.78209
# Shear Modulus (GPa) = 20.81585 44.94378 32.87982
#
# Velocity S-wave (km/s) = 3.20166 4.70450 4.02386
# Velocity P-wave (km/s) = 6.02156 7.41370 6.75360
#
# Compressibility (1/GPa) = 0.02179761
#
# Stress axis : x y z
#
# Youngs Moduli (GPa) = 66.35250 101.55647 124.70257
#
# Poissons Ratio (x) = 0.24039 0.08298
# Poissons Ratio (y) = 0.15706 0.31638
# Poissons Ratio (z) = 0.04415 0.25766
#
# Static dielectric constant tensor:
#      x y z
#    x 1.729550 0.000000 0.000000 
#    y 0.000000 1.756540 0.000000 
#    z 0.000000 0.000000 1.704110 
# 
# From -- ./inp_files/6330.got.cif
#   From: 2010.05.17/outbox.cif.g08.bks.cpg/sg73_4_cif.got.tgz:6330.got - 2010.06.03 17:35:07.
