data_PCOD9533119
_publ_section_title
;
Structure prediction by ZEFSAII (Michael W. Deem and Ramdas Pophale) SiO2 
 PCOD9533119
Probable space group: I B C A 
;
_chemical_formula_sum "Si O2"
_cell_formula_units_Z 40
_cell_length_a 17.984829
_cell_length_b 8.768621
_cell_length_c 9.749076
_cell_angle_alpha 90.000000
_cell_angle_beta 90.000000
_cell_angle_gamma 90.000000
_cell_volume 1537.450238
_symmetry_space_group_name_H-M "I B C A "
_symmetry_group_IT_number 73
_symmetry_cell_setting 'orthorhombic'
loop_
_space_group_symop_operation_xyz
x,y,z
-x,1/2-y,z
x,-y,1/2-z
1/2-x,y,-z
-x,-y,-z
x,1/2+y,-z
-x,y,1/2+z
1/2+x,-y,z
1/2+x,1/2+y,1/2+z
1/2-x,-y,1/2+z
1/2+x,1/2-y,-z
-x,1/2+y,1/2-z
1/2-x,1/2-y,1/2-z
1/2+x,y,1/2-z
1/2-x,1/2+y,z
x,1/2-y,1/2+z
loop_
_atom_site_type_symbol
_atom_site_label
_atom_site_fract_x
_atom_site_fract_y
_atom_site_fract_z
Si Si1 0.680669 0.727919 0.577542
Si Si2 0.454577 0.598618 0.889004
Si Si3 0.220234 0.000000 0.750000
O O1 0.750000 0.801683 0.500000
O O2 0.618101 0.662662 0.475613
O O3 0.721864 0.591004 0.654874
O O4 0.668008 0.867405 0.682927
O O5 0.500000 0.750000 0.853948
O O6 0.456646 0.500000 0.750000
O O7 0.500000 0.500000 0.000000
#
# Coordination Sequence:
#
# PCOD9533119 Si02
#       3
#    16  16   8
#     4  11  27  51  85 125 172 230 294 373 455 537
#     4  12  32  59  85 127 179 243 306 377 461 546
#     4  10  26  50  86 128 170 222 300 372 460 540
#
# _framework density 26.017099999999999
#
# number of rings (size 3 to 8) (size 9 to 14) (size 15 to 20)
#    0.000    0.800    0.000    2.400   16.800    6.400 
#    0.000    0.000    0.000    0.000    0.000    0.000 
#    0.000    0.000    0.000    0.000    0.000    0.000 
#
# Total GULP energy -111683.672063 kJ/mol
# GULP energy per Si atom -5584.183603 kJ/mol
# Density = 2.595788 g / cm^3
# Si number density = 26.017100 Si / 1000 Ang^3
#
#
#
# Elastic Constant Matrix: (Units=GPa)
#
#
# Indices 1 2 3 4 5 6 
#
# 1 176.1867 104.7047 112.2036 0.0000 0.0000 0.0000
# 2 104.7047 269.5551 145.3715 0.0000 0.0000 0.0000
# 3 112.2036 145.3715 233.8258 0.0000 0.0000 0.0000
# 4 0.0000 0.0000 0.0000 75.0576 0.0000 0.0000
# 5 0.0000 0.0000 0.0000 0.0000 8.8863 0.0000
# 6 0.0000 0.0000 0.0000 0.0000 0.0000 -0.6800
#
#
#
# Elastic Compliance Matrix: (Units=1/GPa)
#
#
# Indices 1 2 3 4 5 6 
#
# 1 0.008656 -0.001688 -0.003104 0.000000 0.000000 0.000000
# 2 -0.001688 0.005910 -0.002864 0.000000 0.000000 0.000000
# 3 -0.003104 -0.002864 0.007547 0.000000 0.000000 0.000000
# 4 0.000000 0.000000 0.000000 0.013323 0.000000 0.000000
# 5 0.000000 0.000000 0.000000 0.000000 0.112533 0.000000
# 6 0.000000 0.000000 0.000000 0.000000 0.000000 -1.470487
#
#
# Mechanical properties :
#
#
# Convention : Reuss Voigt Hill
#
# Bulk Modulus (GPa) = 147.06056 156.01416 151.53736
# Shear Modulus (GPa) = -3.83160 37.80528 16.98684
#
# Velocity S-wave (km/s) = -1.21487 3.81608 2.55798
# Velocity P-wave (km/s) = 7.39455 8.91700 8.19122
#
# Compressibility (1/GPa) = 0.00679992
#
# Stress axis : x y z
#
# Youngs Moduli (GPa) = 115.52857 169.19412 132.50301
#
# Poissons Ratio (x) = 0.28564 0.41129
# Poissons Ratio (y) = 0.19504 0.37954
# Poissons Ratio (z) = 0.35860 0.48464
#
# Static dielectric constant tensor:
#      x y z
#    x 3.664990 0.000000 0.000000 
#    y 0.000000 2.021930 0.000000 
#    z 0.000000 0.000000 2.241010 
# 
# From -- ./inp_files/4956.got.cif
#   From: 2010.05.17/outbox.cif.g08.bks.cpg/sg73_3_cif.got.tgz:4956.got - 2010.06.03 17:35:07.
