data_PCOD9533115
_publ_section_title
;
Structure prediction by ZEFSAII (Michael W. Deem and Ramdas Pophale) SiO2 
 PCOD9533115
Probable space group: I B C A 
;
_chemical_formula_sum "Si O2"
_cell_formula_units_Z 72
_cell_length_a 16.025848
_cell_length_b 18.760997
_cell_length_c 9.651105
_cell_angle_alpha 90.000000
_cell_angle_beta 90.000000
_cell_angle_gamma 90.000000
_cell_volume 2901.709783
_symmetry_space_group_name_H-M "I B C A "
_symmetry_group_IT_number 73
_symmetry_cell_setting 'orthorhombic'
loop_
_space_group_symop_operation_xyz
x,y,z
-x,1/2-y,z
x,-y,1/2-z
1/2-x,y,-z
-x,-y,-z
x,1/2+y,-z
-x,y,1/2+z
1/2+x,-y,z
1/2+x,1/2+y,1/2+z
1/2-x,-y,1/2+z
1/2+x,1/2-y,-z
-x,1/2+y,1/2-z
1/2-x,1/2-y,1/2-z
1/2+x,y,1/2-z
1/2-x,1/2+y,z
x,1/2-y,1/2+z
loop_
_atom_site_type_symbol
_atom_site_label
_atom_site_fract_x
_atom_site_fract_y
_atom_site_fract_z
Si Si1 0.824334 0.195320 0.724157
Si Si2 0.106131 0.932890 0.187842
Si Si3 0.330814 0.000000 0.250000
Si Si4 0.961463 0.594829 0.906996
Si Si5 0.750000 0.592523 0.500000
Si Si6 0.000000 0.250000 0.637800
O O1 0.750000 0.250000 0.750000
O O2 0.831800 0.132395 0.837263
O O3 0.808314 0.148413 0.585180
O O4 0.915013 0.232121 0.720935
O O5 0.040982 0.918626 0.310700
O O6 0.154300 0.000000 0.250000
O O7 0.051323 0.943026 0.053008
O O8 0.385205 0.935117 0.183575
O O9 0.294042 0.958692 0.387082
O O10 0.972159 0.678766 0.941600
#
# Coordination Sequence:
#
# PCOD9533115 Si02
#       6
#    16  16   8  16   8   8
#     4  11  27  51  82 118 166 214 277 342 420 507
#     4  11  24  45  80 118 157 206 268 343 412 492
#     4  12  28  50  78 118 162 220 280 352 416 500
#     4  11  25  44  81 113 162 203 276 330 422 493
#     4  12  30  50  80 116 172 218 290 348 426 498
#     4  10  26  50  78 118 160 214 262 342 418 500
#
# _framework density 24.812957000000001
#
# number of rings (size 3 to 8) (size 9 to 14) (size 15 to 20)
#    0.000    0.889    1.111    3.333   14.000    3.556 
#    0.000    0.000    0.000    0.000    0.000    0.000 
#    0.000    0.000    0.000    0.000    0.000    0.000 
#
# Total GULP energy -200876.121842 kJ/mol
# GULP energy per Si atom -5579.892273 kJ/mol
# Density = 2.475648 g / cm^3
# Si number density = 24.812957 Si / 1000 Ang^3
#
#
#
# Elastic Constant Matrix: (Units=GPa)
#
#
# Indices 1 2 3 4 5 6 
#
# 1 140.0377 80.6607 63.0771 0.0000 0.0000 0.0000
# 2 80.6607 155.5539 65.8414 0.0000 0.0000 0.0000
# 3 63.0771 65.8414 125.9597 0.0000 0.0000 0.0000
# 4 0.0000 0.0000 0.0000 19.2063 0.0000 0.0000
# 5 0.0000 0.0000 0.0000 0.0000 38.7834 0.0000
# 6 0.0000 0.0000 0.0000 0.0000 0.0000 41.0519
#
#
#
# Elastic Compliance Matrix: (Units=1/GPa)
#
#
# Indices 1 2 3 4 5 6 
#
# 1 0.011151 -0.004390 -0.003289 0.000000 0.000000 0.000000
# 2 -0.004390 0.009983 -0.003020 0.000000 0.000000 0.000000
# 3 -0.003289 -0.003020 0.011165 0.000000 0.000000 0.000000
# 4 0.000000 0.000000 0.000000 0.052066 0.000000 0.000000
# 5 0.000000 0.000000 0.000000 0.000000 0.025784 0.000000
# 6 0.000000 0.000000 0.000000 0.000000 0.000000 0.024359
#
#
# Mechanical properties :
#
#
# Convention : Reuss Voigt Hill
#
# Bulk Modulus (GPa) = 91.73972 93.41219 92.57595
# Shear Modulus (GPa) = 31.33971 33.93979 32.63975
#
# Velocity S-wave (km/s) = 3.55778 3.70242 3.63082
# Velocity P-wave (km/s) = 7.34369 7.48368 7.41402
#
# Compressibility (1/GPa) = 0.01090040
#
# Stress axis : x y z
#
# Youngs Moduli (GPa) = 89.67625 100.16691 89.56579
#
# Poissons Ratio (x) = 0.43973 0.29463
# Poissons Ratio (y) = 0.39368 0.27050
# Poissons Ratio (z) = 0.29499 0.30251
#
# Static dielectric constant tensor:
#      x y z
#    x 2.060660 0.000000 0.000000 
#    y 0.000000 2.131300 0.000000 
#    z 0.000000 0.000000 1.988910 
# 
# From -- ./inp_files/5391.got.cif
#   From: 2010.05.17/outbox.cif.g08.bks.cpg/sg73_3_cif.got.tgz:5391.got - 2010.06.03 17:35:07.
