data_PCOD9533864
_publ_section_title
;
Structure prediction by ZEFSAII (Michael W. Deem and Ramdas Pophale) SiO2 
 PCOD9533864
Probable space group: I M M A
;
_chemical_formula_sum "Si O2"
_cell_formula_units_Z 128
_cell_length_a 19.530870
_cell_length_b 22.887491
_cell_length_c 19.482486
_cell_angle_alpha 90.000000
_cell_angle_beta 90.000000
_cell_angle_gamma 90.000000
_cell_volume 8708.916942
_symmetry_space_group_name_H-M "I M M A"
_symmetry_group_IT_number 74
_symmetry_cell_setting 'orthorhombic'
loop_
_space_group_symop_operation_xyz
x,y,z
-x,1/2-y,z
x,-y,-z
-x,1/2+y,-z
-x,-y,-z
x,1/2+y,-z
-x,y,z
x,1/2-y,z
1/2+x,1/2+y,1/2+z
1/2-x,-y,1/2+z
1/2+x,1/2-y,1/2-z
1/2-x,y,1/2-z
1/2-x,1/2-y,1/2-z
1/2+x,y,1/2-z
1/2-x,1/2+y,1/2+z
1/2+x,-y,1/2+z
loop_
_atom_site_type_symbol
_atom_site_label
_atom_site_fract_x
_atom_site_fract_y
_atom_site_fract_z
Si Si1 0.696234 0.087581 0.049894
Si Si2 0.079203 0.109870 0.349591
Si Si3 0.077935 0.932530 0.025606
Si Si4 0.580776 0.524142 0.201915
Si Si5 0.841384 0.103645 0.104953
Si Si6 0.580726 0.819345 0.714915
Si Si7 0.695019 0.952436 0.100568
Si Si8 0.159591 0.468815 0.844252
O O1 0.628749 0.112891 0.085350
O O2 0.763519 0.115674 0.083297
O O3 0.697485 0.019201 0.072474
O O4 0.699254 0.087228 0.967421
O O5 0.097222 0.155940 0.290408
O O6 0.000000 0.117490 0.369183
O O7 0.085486 0.045384 0.315017
O O8 0.119922 0.934276 0.095828
O O9 0.000000 0.913665 0.035803
O O10 0.114542 0.897785 0.964817
O O11 0.077149 0.000000 0.000000
O O12 0.500000 0.538752 0.204673
O O13 0.624565 0.554686 0.141825
O O14 0.620222 0.537025 0.272684
O O15 0.873550 0.147470 0.159388
O O16 0.843147 0.037888 0.136319
O O17 0.500000 0.833307 0.702709
O O18 0.589274 0.750000 0.711595
O O19 0.761345 0.948747 0.149989
#
# Coordination Sequence:
#
# PCOD9533864 Si02
#       8
#    16  16  16  16  16  16  16  16
#     4   9  17  29  44  59  79 108 146 186 222 262
#     4   9  18  31  44  59  79 112 152 188 225 261
#     4   9  16  23  37  60  81 108 142 177 213 253
#     4  10  18  26  40  61  86 116 150 182 212 256
#     4  10  17  28  44  59  84 112 147 185 222 262
#     4  10  20  33  47  64  88 117 151 192 233 265
#     4   9  17  28  40  59  84 112 144 178 222 263
#     4  10  16  26  41  60  87 115 143 182 214 264
#
# _framework density 14.69758
#
# number of rings (size 3 to 8) (size 9 to 14) (size 15 to 20)
#    0.000    2.500    2.500    1.125    0.000    2.000 
#    0.000    3.750    0.000    0.000    0.000    0.000 
#    0.000    0.000    0.000    3.375    0.000   14.500 
#
# Total GULP energy -356443.996750 kJ/mol
# GULP energy per Si atom -5569.437449 kJ/mol
# Density = 1.466413 g / cm^3
# Si number density = 14.697580 Si / 1000 Ang^3
#
#
#
# Elastic Constant Matrix: (Units=GPa)
#
#
# Indices 1 2 3 4 5 6 
#
# 1 115.7885 24.7008 64.6633 0.0000 0.0000 0.0000
# 2 24.7008 25.7483 20.7839 0.0000 0.0000 0.0000
# 3 64.6633 20.7839 81.4590 0.0000 0.0000 0.0000
# 4 0.0000 0.0000 0.0000 8.7433 0.0000 0.0000
# 5 0.0000 0.0000 0.0000 0.0000 28.1503 0.0000
# 6 0.0000 0.0000 0.0000 0.0000 0.0000 10.2342
#
#
#
# Elastic Compliance Matrix: (Units=1/GPa)
#
#
# Indices 1 2 3 4 5 6 
#
# 1 0.016349 -0.006559 -0.011304 0.000000 0.000000 0.000000
# 2 -0.006559 0.051542 -0.007944 0.000000 0.000000 0.000000
# 3 -0.011304 -0.007944 0.023277 0.000000 0.000000 0.000000
# 4 0.000000 0.000000 0.000000 0.114373 0.000000 0.000000
# 5 0.000000 0.000000 0.000000 0.000000 0.035524 0.000000
# 6 0.000000 0.000000 0.000000 0.000000 0.000000 0.097712
#
#
# Mechanical properties :
#
#
# Convention : Reuss Voigt Hill
#
# Bulk Modulus (GPa) = 25.28280 49.25464 37.26872
# Shear Modulus (GPa) = 12.38928 16.94875 14.66902
#
# Velocity S-wave (km/s) = 2.90651 3.39951 3.16263
# Velocity P-wave (km/s) = 5.33883 6.99955 6.22482
#
# Compressibility (1/GPa) = 0.03955258
#
# Stress axis : x y z
#
# Youngs Moduli (GPa) = 61.16725 19.40161 42.96154
#
# Poissons Ratio (x) = 0.12725 0.48565
# Poissons Ratio (y) = 0.40118 0.34130
# Poissons Ratio (z) = 0.69146 0.15413
#
# Static dielectric constant tensor:
#      x y z
#    x 1.509190 0.000000 0.000000 
#    y 0.000000 1.448480 0.000000 
#    z 0.000000 0.000000 1.482730 
# 
# From -- ./inp_files/45609.got.cif
#   From: 2010.05.17/outbox.cif.g08.bks.cpg/sg74_23_cif.got.tgz:45609.got - 2010.06.03 17:57:02.
