data_PCOD9533677
_publ_section_title
;
Structure prediction by ZEFSAII (Michael W. Deem and Ramdas Pophale) SiO2 
 PCOD9533677
Probable space group: I B C A 
;
_chemical_formula_sum "Si O2"
_cell_formula_units_Z 56
_cell_length_a 22.430675
_cell_length_b 4.966959
_cell_length_c 19.690086
_cell_angle_alpha 90.000000
_cell_angle_beta 90.000000
_cell_angle_gamma 90.000000
_cell_volume 2193.716647
_symmetry_space_group_name_H-M "I B C A "
_symmetry_group_IT_number 73
_symmetry_cell_setting 'orthorhombic'
loop_
_space_group_symop_operation_xyz
x,y,z
-x,1/2-y,z
x,-y,1/2-z
1/2-x,y,-z
-x,-y,-z
x,1/2+y,-z
-x,y,1/2+z
1/2+x,-y,z
1/2+x,1/2+y,1/2+z
1/2-x,-y,1/2+z
1/2+x,1/2-y,-z
-x,1/2+y,1/2-z
1/2-x,1/2-y,1/2-z
1/2+x,y,1/2-z
1/2-x,1/2+y,z
x,1/2-y,1/2+z
loop_
_atom_site_type_symbol
_atom_site_label
_atom_site_fract_x
_atom_site_fract_y
_atom_site_fract_z
Si Si1 0.087629 0.500000 0.250000
Si Si2 0.828527 0.500000 0.250000
Si Si3 0.000000 0.750000 0.359423
Si Si4 0.413015 0.435898 0.043506
Si Si5 0.214446 0.600992 0.897891
O O1 0.129425 0.250384 0.269514
O O2 0.045893 0.591543 0.311391
O O3 0.791978 0.415616 0.183766
O O4 0.961366 0.545260 0.404052
O O5 0.347621 0.502266 0.071919
O O6 0.419778 0.126451 0.022922
O O7 0.267510 0.400313 0.918184
#
# Coordination Sequence:
#
# PCOD9533677 Si02
#       5
#     8   8   8  16  16
#     4  12  27  45  80 110 152 191 237 314 380 450
#     4  12  25  49  74 114 154 187 245 310 388 438
#     4  12  28  50  78 114 152 190 250 306 380 442
#     4  12  29  49  75 107 149 202 249 302 362 437
#     4  12  26  48  77 108 147 193 249 309 369 440
#
# _framework density 25.527453999999999
#
# number of rings (size 3 to 8) (size 9 to 14) (size 15 to 20)
#    0.000    0.000    2.857    6.000    4.000    5.714 
#    0.000    0.000    0.000    0.000    0.000    0.000 
#    0.000    0.000    0.000    0.000    0.000    0.000 
#
# Total GULP energy -157490.911038 kJ/mol
# GULP energy per Si atom -5624.675394 kJ/mol
# Density = 2.546935 g / cm^3
# Si number density = 25.527454 Si / 1000 Ang^3
#
#
#
# Elastic Constant Matrix: (Units=GPa)
#
#
# Indices 1 2 3 4 5 6 
#
# 1 99.2815 20.7942 18.9684 0.0000 0.0000 0.0000
# 2 20.7942 100.9084 -8.3684 0.0000 0.0000 0.0000
# 3 18.9684 -8.3684 87.9724 0.0000 0.0000 0.0000
# 4 0.0000 0.0000 0.0000 19.4910 0.0000 0.0000
# 5 0.0000 0.0000 0.0000 0.0000 42.8939 0.0000
# 6 0.0000 0.0000 0.0000 0.0000 0.0000 53.0947
#
#
#
# Elastic Compliance Matrix: (Units=1/GPa)
#
#
# Indices 1 2 3 4 5 6 
#
# 1 0.011100 -0.002506 -0.002632 0.000000 0.000000 0.000000
# 2 -0.002506 0.010554 0.001544 0.000000 0.000000 0.000000
# 3 -0.002632 0.001544 0.012082 0.000000 0.000000 0.000000
# 4 0.000000 0.000000 0.000000 0.051306 0.000000 0.000000
# 5 0.000000 0.000000 0.000000 0.000000 0.023313 0.000000
# 6 0.000000 0.000000 0.000000 0.000000 0.000000 0.018834
#
#
# Mechanical properties :
#
#
# Convention : Reuss Voigt Hill
#
# Bulk Modulus (GPa) = 37.66514 38.99450 38.32982
# Shear Modulus (GPa) = 34.91007 40.21381 37.56194
#
# Velocity S-wave (km/s) = 3.70205 3.97333 3.84009
# Velocity P-wave (km/s) = 5.74982 6.02980 5.89147
#
# Compressibility (1/GPa) = 0.02654975
#
# Stress axis : x y z
#
# Youngs Moduli (GPa) = 90.09044 94.74741 82.77094
#
# Poissons Ratio (x) = 0.23740 0.21783
# Poissons Ratio (y) = 0.22573 -0.12782
# Poissons Ratio (z) = 0.23709 -0.14631
#
# Static dielectric constant tensor:
#      x y z
#    x 1.940710 0.000000 0.000000 
#    y 0.000000 1.926430 0.000000 
#    z 0.000000 0.000000 2.015910 
# 
# From -- ./inp_files/1452.got.cif
#   From: 2010.05.17/outbox.cif.g08.bks.cpg/sg73_1_cif.got.tgz:1452.got - 2010.06.03 17:35:07.
