data_PCOD9533589
_publ_section_title
;
Structure prediction by ZEFSAII (Michael W. Deem and Ramdas Pophale) SiO2 
 PCOD9533589
Probable space group: I B C A 
;
_chemical_formula_sum "Si O2"
_cell_formula_units_Z 64
_cell_length_a 17.026118
_cell_length_b 10.939496
_cell_length_c 15.409225
_cell_angle_alpha 90.000000
_cell_angle_beta 90.000000
_cell_angle_gamma 90.000000
_cell_volume 2870.078328
_symmetry_space_group_name_H-M "I B C A "
_symmetry_group_IT_number 73
_symmetry_cell_setting 'orthorhombic'
loop_
_space_group_symop_operation_xyz
x,y,z
-x,1/2-y,z
x,-y,1/2-z
1/2-x,y,-z
-x,-y,-z
x,1/2+y,-z
-x,y,1/2+z
1/2+x,-y,z
1/2+x,1/2+y,1/2+z
1/2-x,-y,1/2+z
1/2+x,1/2-y,-z
-x,1/2+y,1/2-z
1/2-x,1/2-y,1/2-z
1/2+x,y,1/2-z
1/2-x,1/2+y,z
x,1/2-y,1/2+z
loop_
_atom_site_type_symbol
_atom_site_label
_atom_site_fract_x
_atom_site_fract_y
_atom_site_fract_z
Si Si1 0.419784 0.865059 0.145103
Si Si2 0.090495 0.143771 0.839060
Si Si3 0.430547 0.010246 0.651074
Si Si4 0.839313 0.666962 0.028868
O O1 0.401279 0.812562 0.239641
O O2 0.382363 0.002650 0.150497
O O3 0.512948 0.893631 0.137016
O O4 0.387843 0.808753 0.058290
O O5 0.138812 0.227620 0.903106
O O6 0.996637 0.119399 0.853689
O O7 0.368663 0.043237 0.577638
O O8 0.400703 0.000000 0.750000
O O9 0.750000 0.661281 0.000000
#
# Coordination Sequence:
#
# PCOD9533589 Si02
#       4
#    16  16  16  16
#     4   8  19  41  64  79 121 175 213 262 305 375
#     4   8  19  41  63  79 122 169 222 258 304 380
#     4   8  18  42  61  82 120 170 220 251 302 378
#     4  12  22  34  61 102 127 154 207 265 338 385
#
# _framework density 22.299042
#
# number of rings (size 3 to 8) (size 9 to 14) (size 15 to 20)
#    1.500    1.500    0.000    1.500    0.000    2.000 
#    9.000    2.500    0.000    0.000    0.000    0.000 
#    0.000    0.000    0.000    0.000    0.000    0.000 
#
# Total GULP energy -178416.835821 kJ/mol
# GULP energy per Si atom -5575.526119 kJ/mol
# Density = 2.224829 g / cm^3
# Si number density = 22.299042 Si / 1000 Ang^3
#
#
#
# Elastic Constant Matrix: (Units=GPa)
#
#
# Indices 1 2 3 4 5 6 
#
# 1 95.3354 27.2738 110.6885 0.0000 0.0000 0.0000
# 2 27.2738 48.4645 48.4370 0.0000 0.0000 0.0000
# 3 110.6885 48.4370 215.5019 0.0000 0.0000 0.0000
# 4 0.0000 0.0000 0.0000 61.0589 0.0000 0.0000
# 5 0.0000 0.0000 0.0000 0.0000 -17.3371 0.0000
# 6 0.0000 0.0000 0.0000 0.0000 0.0000 12.9866
#
#
#
# Elastic Compliance Matrix: (Units=1/GPa)
#
#
# Indices 1 2 3 4 5 6 
#
# 1 0.026089 -0.001663 -0.013027 0.000000 0.000000 0.000000
# 2 -0.001663 0.026718 -0.005151 0.000000 0.000000 0.000000
# 3 -0.013027 -0.005151 0.012489 0.000000 0.000000 0.000000
# 4 0.000000 0.000000 0.000000 0.016378 0.000000 0.000000
# 5 0.000000 0.000000 0.000000 0.000000 -0.057680 0.000000
# 6 0.000000 0.000000 0.000000 0.000000 0.000000 0.077003
#
#
# Mechanical properties :
#
#
# Convention : Reuss Voigt Hill
#
# Bulk Modulus (GPa) = 39.03968 81.34450 60.19209
# Shear Modulus (GPa) = 33.50853 22.86850 28.18851
#
# Velocity S-wave (km/s) = 3.88066 3.20588 3.55929
# Velocity P-wave (km/s) = 6.13390 7.08954 6.62896
#
# Compressibility (1/GPa) = 0.02561496
#
# Stress axis : x y z
#
# Youngs Moduli (GPa) = 38.32972 37.42858 80.07072
#
# Poissons Ratio (x) = 0.06224 1.04305
# Poissons Ratio (y) = 0.06374 0.41245
# Poissons Ratio (z) = 0.49931 0.19280
#
# Static dielectric constant tensor:
#      x y z
#    x 1.806340 0.000000 0.000000 
#    y 0.000000 1.994860 0.000000 
#    z 0.000000 0.000000 1.774790 
# 
# From -- ./inp_files/17713.got.cif
#   From: 2010.05.17/outbox.cif.g08.bks.cpg/sg73_9_cif.got.tgz:17713.got - 2010.06.03 17:35:07.
