data_PCOD9533716
_publ_section_title
;
Structure prediction by ZEFSAII (Michael W. Deem and Ramdas Pophale) SiO2 
 PCOD9533716
Probable space group: I B C A 
;
_chemical_formula_sum "Si O2"
_cell_formula_units_Z 72
_cell_length_a 14.175244
_cell_length_b 10.705398
_cell_length_c 20.914364
_cell_angle_alpha 90.000000
_cell_angle_beta 90.000000
_cell_angle_gamma 90.000000
_cell_volume 3173.788802
_symmetry_space_group_name_H-M "I B C A "
_symmetry_group_IT_number 73
_symmetry_cell_setting 'orthorhombic'
loop_
_space_group_symop_operation_xyz
x,y,z
-x,1/2-y,z
x,-y,1/2-z
1/2-x,y,-z
-x,-y,-z
x,1/2+y,-z
-x,y,1/2+z
1/2+x,-y,z
1/2+x,1/2+y,1/2+z
1/2-x,-y,1/2+z
1/2+x,1/2-y,-z
-x,1/2+y,1/2-z
1/2-x,1/2-y,1/2-z
1/2+x,y,1/2-z
1/2-x,1/2+y,z
x,1/2-y,1/2+z
loop_
_atom_site_type_symbol
_atom_site_label
_atom_site_fract_x
_atom_site_fract_y
_atom_site_fract_z
Si Si1 0.500000 0.250000 0.485373
Si Si2 0.258791 0.310524 0.680167
Si Si3 0.596835 0.054895 0.392760
Si Si4 0.033027 0.394322 0.304226
Si Si5 0.682698 0.663897 0.943387
O O1 0.533170 0.141948 0.436870
O O2 0.584161 0.283293 0.532534
O O3 0.250000 0.250000 0.750000
O O4 0.160954 0.376873 0.660494
O O5 0.355024 0.391641 0.680802
O O6 0.279140 0.211535 0.624105
O O7 0.531377 0.949290 0.360731
O O8 0.671277 0.984214 0.437545
O O9 0.019614 0.500000 0.250000
O O10 0.000000 0.250000 0.289654
O O11 0.750000 0.701705 0.000000
#
# Coordination Sequence:
#
# PCOD9533716 Si02
#       5
#     8  16  16  16  16
#     4  12  28  52  78 118 158 214 270 342 412 490
#     4  12  29  52  80 122 163 213 272 342 412 494
#     4  12  29  49  83 116 163 210 277 337 417 487
#     4  12  28  50  82 116 166 212 272 337 412 493
#     4  12  27  50  80 117 161 211 273 332 410 486
#
# _framework density 22.68582
#
# number of rings (size 3 to 8) (size 9 to 14) (size 15 to 20)
#    0.000    0.000    4.444    3.333   14.000    0.000 
#    0.000    0.000    0.000    0.000    0.000    0.000 
#    0.000    0.000    0.000    0.000    0.000    0.000 
#
# Total GULP energy -201372.662956 kJ/mol
# GULP energy per Si atom -5593.685082 kJ/mol
# Density = 2.263419 g / cm^3
# Si number density = 22.685820 Si / 1000 Ang^3
#
#
#
# Elastic Constant Matrix: (Units=GPa)
#
#
# Indices 1 2 3 4 5 6 
#
# 1 118.4156 23.4353 54.5369 0.0000 0.0000 0.0000
# 2 23.4353 112.7897 53.6856 0.0000 0.0000 0.0000
# 3 54.5369 53.6856 140.3845 0.0000 0.0000 0.0000
# 4 0.0000 0.0000 0.0000 100.9823 0.0000 0.0000
# 5 0.0000 0.0000 0.0000 0.0000 105.1769 0.0000
# 6 0.0000 0.0000 0.0000 0.0000 0.0000 38.4546
#
#
#
# Elastic Compliance Matrix: (Units=1/GPa)
#
#
# Indices 1 2 3 4 5 6 
#
# 1 0.010293 -0.000288 -0.003888 0.000000 0.000000 0.000000
# 2 -0.000288 0.010847 -0.004036 0.000000 0.000000 0.000000
# 3 -0.003888 -0.004036 0.010177 0.000000 0.000000 0.000000
# 4 0.000000 0.000000 0.000000 0.009903 0.000000 0.000000
# 5 0.000000 0.000000 0.000000 0.000000 0.009508 0.000000
# 6 0.000000 0.000000 0.000000 0.000000 0.000000 0.026005
#
#
# Mechanical properties :
#
#
# Convention : Reuss Voigt Hill
#
# Bulk Modulus (GPa) = 67.14992 70.54507 68.84750
# Shear Modulus (GPa) = 50.95724 64.91822 57.93773
#
# Velocity S-wave (km/s) = 4.74457 5.35522 5.05911
# Velocity P-wave (km/s) = 7.72520 8.33078 8.03370
#
# Compressibility (1/GPa) = 0.01489205
#
# Stress axis : x y z
#
# Youngs Moduli (GPa) = 97.15685 92.19088 98.25637
#
# Poissons Ratio (x) = 0.02653 0.38207
# Poissons Ratio (y) = 0.02796 0.39659
# Poissons Ratio (z) = 0.37779 0.37211
#
# Static dielectric constant tensor:
#      x y z
#    x 1.832320 0.000000 0.000000 
#    y 0.000000 1.879660 0.000000 
#    z 0.000000 0.000000 1.886770 
# 
# From -- ./inp_files/25866.got.cif
#   From: 2010.05.17/outbox.cif.g08.bks.cpg/sg73_13_cif.got.tgz:25866.got - 2010.06.03 17:35:07.
