data_PCOD9533738
_publ_section_title
;
Structure prediction by ZEFSAII (Michael W. Deem and Ramdas Pophale) SiO2 
 PCOD9533738
Probable space group: I B C A 
;
_chemical_formula_sum "Si O2"
_cell_formula_units_Z 64
_cell_length_a 12.000000
_cell_length_b 24.000000
_cell_length_c 24.000000
_cell_angle_alpha 90.000000
_cell_angle_beta 90.000000
_cell_angle_gamma 90.000000
_cell_volume 6912.000000
_symmetry_space_group_name_H-M "I B C A "
_symmetry_group_IT_number 73
_symmetry_cell_setting 'orthorhombic'
loop_
_space_group_symop_operation_xyz
x,y,z
-x,1/2-y,z
x,-y,1/2-z
1/2-x,y,-z
-x,-y,-z
x,1/2+y,-z
-x,y,1/2+z
1/2+x,-y,z
1/2+x,1/2+y,1/2+z
1/2-x,-y,1/2+z
1/2+x,1/2-y,-z
-x,1/2+y,1/2-z
1/2-x,1/2-y,1/2-z
1/2+x,y,1/2-z
1/2-x,1/2+y,z
x,1/2-y,1/2+z
loop_
_atom_site_type_symbol
_atom_site_label
_atom_site_fract_x
_atom_site_fract_y
_atom_site_fract_z
Si Si1 0.859696 0.130148 0.531461
Si Si2 0.965003 0.042521 0.452761
Si Si3 0.283000 0.139440 0.309961
Si Si4 0.925033 0.306614 0.256111
Si Si5 0.236861 0.949066 0.616882
Si Si6 0.615744 0.544853 0.846344
Si Si7 0.080197 0.598390 0.206283
Si Si8 0.995003 0.815986 0.866580
O O1 0.750000 0.156653 0.500000
O O2 0.808778 0.081894 0.570639
O O3 0.936629 0.162125 0.576737
O O4 0.930261 0.100110 0.482834
O O5 0.060544 0.049681 0.407178
O O6 0.858295 0.019311 0.418497
O O7 0.000000 0.000000 0.500000
O O8 0.200488 0.186411 0.281440
O O9 0.200733 0.095413 0.337937
O O10 0.348406 0.104855 0.262087
O O11 0.380054 0.162446 0.350718
O O12 0.925548 0.327150 0.191233
O O13 0.000000 0.250000 0.255575
O O14 0.002494 0.347291 0.292743
O O15 0.166835 0.907333 0.655824
O O16 0.313972 0.988190 0.654350
O O17 0.512316 0.550022 0.803135
O O18 0.000000 0.750000 0.872359
#
# Coordination Sequence:
#
# PCOD9533738 Si02
#       8
#    16  16  16  16  16  16  16  16
#     4  10  21  38  58  81 111 151 194 250 298 340
#     4  10  20  36  56  82 109 144 200 245 286 341
#     4  10  21  38  57  86 121 156 190 238 296 354
#     4   9  19  37  63  89 117 152 193 244 298 364
#     4  10  20  34  57  82 112 153 189 234 290 349
#     4  10  21  36  55  84 116 150 196 236 290 351
#     4   9  20  36  53  83 121 148 191 233 285 359
#     4  10  22  38  60  88 114 152 200 240 295 358
#
# _framework density 9.2592590000000001
#
# number of rings (size 3 to 8) (size 9 to 14) (size 15 to 20)
#    0.000    2.250    1.250    0.750    1.750    6.000 
#    0.000    6.250    0.000    5.250    0.000    0.875 
#    0.000    0.000    0.000    0.000    0.000    0.000 
#
# Total GULP energy -356303.805649 kJ/mol
# GULP energy per Si atom -5567.246963 kJ/mol
# Density = 0.923818 g / cm^3
# Si number density = 9.259259 Si / 1000 Ang^3
#
#
#
# Elastic Constant Matrix: (Units=GPa)
#
#
# Indices 1 2 3 4 5 6 
#
# 1 122.3430 35.0595 57.9005 0.0000 0.0000 0.0000
# 2 35.0595 39.6784 36.6041 0.0000 0.0000 0.0000
# 3 57.9005 36.6041 82.2542 0.0000 0.0000 0.0000
# 4 0.0000 0.0000 0.0000 31.5863 0.0000 0.0000
# 5 0.0000 0.0000 0.0000 0.0000 41.7264 0.0000
# 6 0.0000 0.0000 0.0000 0.0000 0.0000 21.6069
#
#
#
# Elastic Compliance Matrix: (Units=1/GPa)
#
#
# Indices 1 2 3 4 5 6 
#
# 1 0.012838 -0.005101 -0.006767 0.000000 0.000000 0.000000
# 2 -0.005101 0.044782 -0.016338 0.000000 0.000000 0.000000
# 3 -0.006767 -0.016338 0.024191 0.000000 0.000000 0.000000
# 4 0.000000 0.000000 0.000000 0.031659 0.000000 0.000000
# 5 0.000000 0.000000 0.000000 0.000000 0.023966 0.000000
# 6 0.000000 0.000000 0.000000 0.000000 0.000000 0.046282
#
#
# Mechanical properties :
#
#
# Convention : Reuss Voigt Hill
#
# Bulk Modulus (GPa) = 39.37044 55.93376 47.65210
# Shear Modulus (GPa) = 20.11301 26.63136 23.37218
#
# Velocity S-wave (km/s) = 3.29918 3.79633 3.55646
# Velocity P-wave (km/s) = 5.98490 7.03463 6.53089
#
# Compressibility (1/GPa) = 0.02539977
#
# Stress axis : x y z
#
# Youngs Moduli (GPa) = 77.89321 22.33060 41.33711
#
# Poissons Ratio (x) = 0.11391 0.27973
# Poissons Ratio (y) = 0.39733 0.67535
# Poissons Ratio (z) = 0.52711 0.36483
#
# Static dielectric constant tensor:
#      x y z
#    x 1.709630 0.000000 0.000000 
#    y 0.000000 1.672680 0.000000 
#    z 0.000000 0.000000 1.646070 
# 
# From -- ./inp_files/29146.got.cif
#   From: 2010.05.17/outbox.ucp.g08.bks.cvg/sg73_15_cif.got.tgz:29146.got - 2010.06.11 16:36:03.
