data_PCOD9533836
_publ_section_title
;
Structure prediction by ZEFSAII (Michael W. Deem and Ramdas Pophale) SiO2 
 PCOD9533836
Probable space group: I M M A
;
_chemical_formula_sum "Si O2"
_cell_formula_units_Z 88
_cell_length_a 8.812635
_cell_length_b 18.394816
_cell_length_c 26.100981
_cell_angle_alpha 90.000000
_cell_angle_beta 90.000000
_cell_angle_gamma 90.000000
_cell_volume 4231.146489
_symmetry_space_group_name_H-M "I M M A"
_symmetry_group_IT_number 74
_symmetry_cell_setting 'orthorhombic'
loop_
_space_group_symop_operation_xyz
x,y,z
-x,1/2-y,z
x,-y,-z
-x,1/2+y,-z
-x,-y,-z
x,1/2+y,-z
-x,y,z
x,1/2-y,z
1/2+x,1/2+y,1/2+z
1/2-x,-y,1/2+z
1/2+x,1/2-y,1/2-z
1/2-x,y,1/2-z
1/2-x,1/2-y,1/2-z
1/2+x,y,1/2-z
1/2-x,1/2+y,1/2+z
1/2+x,-y,1/2+z
loop_
_atom_site_type_symbol
_atom_site_label
_atom_site_fract_x
_atom_site_fract_y
_atom_site_fract_z
Si Si1 0.318628 0.833200 0.515496
Si Si2 0.169596 0.029322 0.442398
Si Si3 0.180949 0.395915 0.306906
Si Si4 0.820351 0.437278 0.693711
Si Si5 0.676574 0.889842 0.404726
Si Si6 0.818317 0.250000 0.191716
O O1 0.500000 0.848257 0.518016
O O2 0.292184 0.750000 0.529505
O O3 0.230155 0.889535 0.551130
O O4 0.273272 0.845721 0.455472
O O5 0.000000 0.025831 0.418570
O O6 0.152850 0.000000 0.500000
O O7 0.291136 0.973342 0.420249
O O8 0.250000 0.396382 0.250000
O O9 0.213185 0.478681 0.323468
O O10 0.258128 0.325407 0.332476
O O11 0.000000 0.384986 0.305590
O O12 0.750000 0.425860 0.750000
O O13 0.761411 0.383575 0.649421
O O14 0.000000 0.431533 0.698419
O O15 0.500000 0.875475 0.396929
O O16 0.750000 0.250000 0.250000
O O17 0.000000 0.250000 0.193706
#
# Coordination Sequence:
#
# PCOD9533836 Si02
#       6
#    16  16  16  16  16   8
#     4   9  18  33  54  81 111 141 173 211 259 318
#     4   9  17  30  50  77 107 137 170 209 255 310
#     4   9  16  26  40  58  81 111 149 195 245 292
#     4  10  20  33  50  72  99 133 176 225 268 310
#     4  10  19  32  53  78 106 141 177 216 263 314
#     4  10  16  22  36  56  78 104 138 184 236 288
#
# _framework density 20.798145999999999
#
# number of rings (size 3 to 8) (size 9 to 14) (size 15 to 20)
#    0.000    2.545    0.000    4.091    0.000    5.455 
#    0.000    0.000    2.000    0.545    0.000    0.000 
#    0.000    0.000    0.000    0.000    0.000    0.000 
#
# Total GULP energy -245266.245964 kJ/mol
# GULP energy per Si atom -5574.232863 kJ/mol
# Density = 2.075081 g / cm^3
# Si number density = 20.798146 Si / 1000 Ang^3
#
#
#
# Elastic Constant Matrix: (Units=GPa)
#
#
# Indices 1 2 3 4 5 6 
#
# 1 42.5275 -0.6540 -8.4632 0.0000 0.0000 0.0000
# 2 -0.6540 34.8339 -13.4369 0.0000 0.0000 0.0000
# 3 -8.4632 -13.4369 27.6080 0.0000 0.0000 0.0000
# 4 0.0000 0.0000 0.0000 36.0959 0.0000 0.0000
# 5 0.0000 0.0000 0.0000 0.0000 23.6490 0.0000
# 6 0.0000 0.0000 0.0000 0.0000 0.0000 17.0191
#
#
#
# Elastic Compliance Matrix: (Units=1/GPa)
#
#
# Indices 1 2 3 4 5 6 
#
# 1 0.025557 0.004311 0.009933 0.000000 0.000000 0.000000
# 2 0.004311 0.036070 0.018877 0.000000 0.000000 0.000000
# 3 0.009933 0.018877 0.048454 0.000000 0.000000 0.000000
# 4 0.000000 0.000000 0.000000 0.027704 0.000000 0.000000
# 5 0.000000 0.000000 0.000000 0.000000 0.042285 0.000000
# 6 0.000000 0.000000 0.000000 0.000000 0.000000 0.058758
#
#
# Mechanical properties :
#
#
# Convention : Reuss Voigt Hill
#
# Bulk Modulus (GPa) = 5.67138 6.65126 6.16132
# Shear Modulus (GPa) = 21.61135 23.85437 22.73286
#
# Velocity S-wave (km/s) = 3.22700 3.39033 3.30968
# Velocity P-wave (km/s) = 4.07646 4.30474 4.19215
#
# Compressibility (1/GPa) = 0.17632379
#
# Stress axis : x y z
#
# Youngs Moduli (GPa) = 39.12795 27.72362 20.63824
#
# Poissons Ratio (x) = -0.11953 -0.20500
# Poissons Ratio (y) = -0.16869 -0.38959
# Poissons Ratio (z) = -0.38865 -0.52334
#
# Static dielectric constant tensor:
#      x y z
#    x 1.709700 0.000000 0.000000 
#    y 0.000000 1.763810 0.000000 
#    z 0.000000 0.000000 1.814960 
# 
# From -- ./inp_files/70269.got.cif
#   From: 2010.05.17/outbox.cif.g08.bks.cpg/sg74_36_cif.got.tgz:70269.got - 2010.06.03 17:57:02.
