data_PCOD9533719
_publ_section_title
;
Structure prediction by ZEFSAII (Michael W. Deem and Ramdas Pophale) SiO2 
 PCOD9533719
Probable space group: I B C A 
;
_chemical_formula_sum "Si O2"
_cell_formula_units_Z 64
_cell_length_a 25.946989
_cell_length_b 10.480177
_cell_length_c 9.421524
_cell_angle_alpha 90.000000
_cell_angle_beta 90.000000
_cell_angle_gamma 90.000000
_cell_volume 2561.985952
_symmetry_space_group_name_H-M "I B C A "
_symmetry_group_IT_number 73
_symmetry_cell_setting 'orthorhombic'
loop_
_space_group_symop_operation_xyz
x,y,z
-x,1/2-y,z
x,-y,1/2-z
1/2-x,y,-z
-x,-y,-z
x,1/2+y,-z
-x,y,1/2+z
1/2+x,-y,z
1/2+x,1/2+y,1/2+z
1/2-x,-y,1/2+z
1/2+x,1/2-y,-z
-x,1/2+y,1/2-z
1/2-x,1/2-y,1/2-z
1/2+x,y,1/2-z
1/2-x,1/2+y,z
x,1/2-y,1/2+z
loop_
_atom_site_type_symbol
_atom_site_label
_atom_site_fract_x
_atom_site_fract_y
_atom_site_fract_z
Si Si1 0.691980 0.000000 0.250000
Si Si2 0.414315 0.174373 0.119447
Si Si3 0.152955 0.742011 0.868670
Si Si4 0.250000 0.394351 0.000000
Si Si5 0.009702 0.000000 0.750000
Si Si6 0.000000 0.250000 0.567540
O O1 0.661705 0.870040 0.244359
O O2 0.725802 0.988352 0.387124
O O3 0.389356 0.180763 0.276879
O O4 0.453431 0.057898 0.129146
O O5 0.368370 0.171307 0.007699
O O6 0.452026 0.276631 0.039781
O O7 0.205073 0.814014 0.918297
O O8 0.986488 0.127999 0.671402
#
# Coordination Sequence:
#
# PCOD9533719 Si02
#       6
#     8  16  16   8   8   8
#     4  12  28  46  82 104 160 210 258 340 412 486
#     4  12  28  50  80 115 162 210 277 337 412 488
#     4  12  28  50  76 118 159 211 271 338 405 493
#     4  12  28  52  76 118 160 208 272 338 416 490
#     4  12  28  52  88 116 168 220 278 344 420 494
#     4  12  28  56  82 124 164 220 274 350 414 500
#
# _framework density 24.980623000000001
#
# number of rings (size 3 to 8) (size 9 to 14) (size 15 to 20)
#    0.000    0.000    5.000    3.000   10.500    1.000 
#    0.000    0.000    0.000    0.000    0.000    0.000 
#    0.000    0.000    0.000    0.000    0.000    0.000 
#
# Total GULP energy -178352.615603 kJ/mol
# GULP energy per Si atom -5573.519238 kJ/mol
# Density = 2.492377 g / cm^3
# Si number density = 24.980623 Si / 1000 Ang^3
#
#
#
# Elastic Constant Matrix: (Units=GPa)
#
#
# Indices 1 2 3 4 5 6 
#
# 1 77.3018 8.3827 15.3213 0.0000 0.0000 0.0000
# 2 8.3827 65.0806 12.8908 0.0000 0.0000 0.0000
# 3 15.3213 12.8908 121.2763 0.0000 0.0000 0.0000
# 4 0.0000 0.0000 0.0000 36.4422 0.0000 0.0000
# 5 0.0000 0.0000 0.0000 0.0000 71.3680 0.0000
# 6 0.0000 0.0000 0.0000 0.0000 0.0000 47.0260
#
#
#
# Elastic Compliance Matrix: (Units=1/GPa)
#
#
# Indices 1 2 3 4 5 6 
#
# 1 0.013396 -0.001420 -0.001541 0.000000 0.000000 0.000000
# 2 -0.001420 0.015847 -0.001505 0.000000 0.000000 0.000000
# 3 -0.001541 -0.001505 0.008600 0.000000 0.000000 0.000000
# 4 0.000000 0.000000 0.000000 0.027441 0.000000 0.000000
# 5 0.000000 0.000000 0.000000 0.000000 0.014012 0.000000
# 6 0.000000 0.000000 0.000000 0.000000 0.000000 0.021265
#
#
# Mechanical properties :
#
#
# Convention : Reuss Voigt Hill
#
# Bulk Modulus (GPa) = 34.59041 37.42758 36.00899
# Shear Modulus (GPa) = 41.97105 46.10483 44.03794
#
# Velocity S-wave (km/s) = 4.10340 4.30073 4.20323
# Velocity P-wave (km/s) = 6.02723 6.29896 6.16459
#
# Compressibility (1/GPa) = 0.02890975
#
# Stress axis : x y z
#
# Youngs Moduli (GPa) = 74.65015 63.10511 116.27461
#
# Poissons Ratio (x) = 0.08962 0.17923
# Poissons Ratio (y) = 0.10601 0.17499
# Poissons Ratio (z) = 0.11507 0.09497
#
# Static dielectric constant tensor:
#      x y z
#    x 2.208720 0.000000 0.000000 
#    y 0.000000 2.103890 0.000000 
#    z 0.000000 0.000000 1.914880 
# 
# From -- ./inp_files/4050.got.cif
#   From: 2010.05.17/outbox.cif.g08.bks.cpg/sg73_3_cif.got.tgz:4050.got - 2010.06.03 17:35:07.
