data_PCOD9533171
_publ_section_title
;
Structure prediction by ZEFSAII (Michael W. Deem and Ramdas Pophale) SiO2 
 PCOD9533171
Probable space group: I B C A 
;
_chemical_formula_sum "Si O2"
_cell_formula_units_Z 96
_cell_length_a 22.731244
_cell_length_b 7.272633
_cell_length_c 25.713138
_cell_angle_alpha 90.000000
_cell_angle_beta 90.000000
_cell_angle_gamma 90.000000
_cell_volume 4250.792999
_symmetry_space_group_name_H-M "I B C A "
_symmetry_group_IT_number 73
_symmetry_cell_setting 'orthorhombic'
loop_
_space_group_symop_operation_xyz
x,y,z
-x,1/2-y,z
x,-y,1/2-z
1/2-x,y,-z
-x,-y,-z
x,1/2+y,-z
-x,y,1/2+z
1/2+x,-y,z
1/2+x,1/2+y,1/2+z
1/2-x,-y,1/2+z
1/2+x,1/2-y,-z
-x,1/2+y,1/2-z
1/2-x,1/2-y,1/2-z
1/2+x,y,1/2-z
1/2-x,1/2+y,z
x,1/2-y,1/2+z
loop_
_atom_site_type_symbol
_atom_site_label
_atom_site_fract_x
_atom_site_fract_y
_atom_site_fract_z
Si Si1 0.561136 0.221944 0.636932
Si Si2 0.160792 0.368450 0.923986
Si Si3 0.170015 0.944108 0.959039
Si Si4 0.672265 0.461569 0.189340
Si Si5 0.965452 0.424851 0.550686
Si Si6 0.716184 0.700939 0.630198
O O1 0.500000 0.250000 0.667202
O O2 0.594220 0.370298 0.599379
O O3 0.612454 0.141685 0.673341
O O4 0.539521 0.075934 0.594446
O O5 0.192701 0.498818 0.882649
O O6 0.171204 0.148369 0.933688
O O7 0.178865 0.454106 0.979484
O O8 0.102639 0.871167 0.958925
O O9 0.212082 0.811031 0.925606
O O10 0.678895 0.500000 0.250000
O O11 0.726175 0.342831 0.164924
O O12 0.674786 0.662367 0.162622
O O13 0.000000 0.250000 0.569827
O O14 0.000000 0.500000 0.500000
#
# Coordination Sequence:
#
# PCOD9533171 Si02
#       6
#    16  16  16  16  16  16
#     4  11  25  45  73 108 151 193 258 320 385 482
#     4  11  22  43  75 113 158 205 246 301 392 472
#     4  11  22  41  72 115 159 206 252 303 386 485
#     4  12  28  54  80 107 142 206 270 341 399 455
#     4  11  21  36  66 103 148 203 244 293 374 473
#     4  12  26  49  79 108 153 199 258 323 389 469
#
# _framework density 22.584019999999999
#
# number of rings (size 3 to 8) (size 9 to 14) (size 15 to 20)
#    0.000    0.667    5.000    5.000    2.333    0.000 
#    0.000    9.167    0.000    0.000    0.000    0.000 
#    0.000    0.000    0.000    0.000    0.000    0.000 
#
# Total GULP energy -267914.013456 kJ/mol
# GULP energy per Si atom -5581.541947 kJ/mol
# Density = 2.253262 g / cm^3
# Si number density = 22.584020 Si / 1000 Ang^3
#
#
#
# Elastic Constant Matrix: (Units=GPa)
#
#
# Indices 1 2 3 4 5 6 
#
# 1 173.3439 46.9093 52.1504 0.0000 0.0000 0.0000
# 2 46.9093 92.7949 28.1063 0.0000 0.0000 0.0000
# 3 52.1504 28.1063 118.3109 0.0000 0.0000 0.0000
# 4 0.0000 0.0000 0.0000 20.6577 0.0000 0.0000
# 5 0.0000 0.0000 0.0000 0.0000 22.8797 0.0000
# 6 0.0000 0.0000 0.0000 0.0000 0.0000 41.2267
#
#
#
# Elastic Compliance Matrix: (Units=1/GPa)
#
#
# Indices 1 2 3 4 5 6 
#
# 1 0.007325 -0.002936 -0.002531 0.000000 0.000000 0.000000
# 2 -0.002936 0.012789 -0.001744 0.000000 0.000000 0.000000
# 3 -0.002531 -0.001744 0.009982 0.000000 0.000000 0.000000
# 4 0.000000 0.000000 0.000000 0.048408 0.000000 0.000000
# 5 0.000000 0.000000 0.000000 0.000000 0.043707 0.000000
# 6 0.000000 0.000000 0.000000 0.000000 0.000000 0.024256
#
#
# Mechanical properties :
#
#
# Convention : Reuss Voigt Hill
#
# Bulk Modulus (GPa) = 63.80190 70.97574 67.38882
# Shear Modulus (GPa) = 30.09966 34.10506 32.10236
#
# Velocity S-wave (km/s) = 3.65469 3.89027 3.77432
# Velocity P-wave (km/s) = 6.79127 7.18850 6.99271
#
# Compressibility (1/GPa) = 0.01567351
#
# Stress axis : x y z
#
# Youngs Moduli (GPa) = 136.51900 78.19235 100.17678
#
# Poissons Ratio (x) = 0.22959 0.25357
# Poissons Ratio (y) = 0.40085 0.17470
# Poissons Ratio (z) = 0.34556 0.13636
#
# Static dielectric constant tensor:
#      x y z
#    x 2.066150 0.000000 0.000000 
#    y 0.000000 1.878330 0.000000 
#    z 0.000000 0.000000 2.284860 
# 
# From -- ./inp_files/32837.got.cif
#   From: 2010.05.17/outbox.cif.g08.bks.cpg/sg73_17_cif.got.tgz:32837.got - 2010.06.03 17:35:07.
