data_PCOD9533694
_publ_section_title
;
Structure prediction by ZEFSAII (Michael W. Deem and Ramdas Pophale) SiO2 
 PCOD9533694
Probable space group: I B C A 
;
_chemical_formula_sum "Si O2"
_cell_formula_units_Z 64
_cell_length_a 18.064305
_cell_length_b 9.062120
_cell_length_c 17.746026
_cell_angle_alpha 90.000000
_cell_angle_beta 90.000000
_cell_angle_gamma 90.000000
_cell_volume 2905.040421
_symmetry_space_group_name_H-M "I B C A "
_symmetry_group_IT_number 73
_symmetry_cell_setting 'orthorhombic'
loop_
_space_group_symop_operation_xyz
x,y,z
-x,1/2-y,z
x,-y,1/2-z
1/2-x,y,-z
-x,-y,-z
x,1/2+y,-z
-x,y,1/2+z
1/2+x,-y,z
1/2+x,1/2+y,1/2+z
1/2-x,-y,1/2+z
1/2+x,1/2-y,-z
-x,1/2+y,1/2-z
1/2-x,1/2-y,1/2-z
1/2+x,y,1/2-z
1/2-x,1/2+y,z
x,1/2-y,1/2+z
loop_
_atom_site_type_symbol
_atom_site_label
_atom_site_fract_x
_atom_site_fract_y
_atom_site_fract_z
Si Si1 0.055998 0.373913 0.805571
Si Si2 0.176593 0.330082 0.222575
Si Si3 0.174820 0.807085 0.955869
Si Si4 0.920196 0.469597 0.037470
O O1 0.023859 0.500000 0.750000
O O2 0.113051 0.276635 0.756321
O O3 0.103956 0.300510 0.536626
O O4 0.084160 0.539006 0.621209
O O5 0.169476 0.500000 0.250000
O O6 0.250000 0.250000 0.250000
O O7 0.183888 0.327685 0.132749
O O8 0.250000 0.761872 0.000000
O O9 0.146040 0.957035 0.991305
O O10 0.000000 0.750000 0.165795
O O11 0.000000 0.500000 0.000000
#
# Coordination Sequence:
#
# PCOD9533694 Si02
#       4
#    16  16  16  16
#     4  12  26  48  76 110 153 198 253 311 381 454
#     4  12  29  48  78 111 150 198 255 315 381 459
#     4  12  28  48  78 109 152 200 253 313 388 454
#     4  12  28  49  75 113 152 199 253 317 379 458
#
# _framework density 22.030674000000001
#
# number of rings (size 3 to 8) (size 9 to 14) (size 15 to 20)
#    0.000    0.000    2.500    6.000   17.500    0.000 
#    0.000    0.000    0.000    0.000    0.000    0.000 
#    0.000    0.000    0.000    0.000    0.000    0.000 
#
# Total GULP energy -178893.326989 kJ/mol
# GULP energy per Si atom -5590.416468 kJ/mol
# Density = 2.198053 g / cm^3
# Si number density = 22.030674 Si / 1000 Ang^3
#
#
#
# Elastic Constant Matrix: (Units=GPa)
#
#
# Indices 1 2 3 4 5 6 
#
# 1 79.0102 13.1771 21.9778 0.0000 0.0000 0.0000
# 2 13.1771 92.2075 0.8994 0.0000 0.0000 0.0000
# 3 21.9778 0.8994 149.5271 0.0000 0.0000 0.0000
# 4 0.0000 0.0000 0.0000 28.3173 0.0000 0.0000
# 5 0.0000 0.0000 0.0000 0.0000 23.2873 0.0000
# 6 0.0000 0.0000 0.0000 0.0000 0.0000 58.5764
#
#
#
# Elastic Compliance Matrix: (Units=1/GPa)
#
#
# Indices 1 2 3 4 5 6 
#
# 1 0.013526 -0.001914 -0.001976 0.000000 0.000000 0.000000
# 2 -0.001914 0.011116 0.000214 0.000000 0.000000 0.000000
# 3 -0.001976 0.000214 0.006977 0.000000 0.000000 0.000000
# 4 0.000000 0.000000 0.000000 0.035314 0.000000 0.000000
# 5 0.000000 0.000000 0.000000 0.000000 0.042942 0.000000
# 6 0.000000 0.000000 0.000000 0.000000 0.000000 0.017072
#
#
# Mechanical properties :
#
#
# Convention : Reuss Voigt Hill
#
# Bulk Modulus (GPa) = 41.20729 43.65040 42.42884
# Shear Modulus (GPa) = 35.11550 41.01558 38.06554
#
# Velocity S-wave (km/s) = 3.99674 4.31948 4.16124
# Velocity P-wave (km/s) = 6.32801 6.68832 6.51066
#
# Compressibility (1/GPa) = 0.02426755
#
# Stress axis : x y z
#
# Youngs Moduli (GPa) = 73.93429 89.95655 143.32872
#
# Poissons Ratio (x) = 0.17214 0.28329
# Poissons Ratio (y) = 0.14148 -0.03073
# Poissons Ratio (z) = 0.14613 -0.01929
#
# Static dielectric constant tensor:
#      x y z
#    x 1.852510 0.000000 0.000000 
#    y 0.000000 1.737690 0.000000 
#    z 0.000000 0.000000 1.848130 
# 
# From -- ./inp_files/22941.got.cif
#   From: 2010.05.17/outbox.cif.g08.bks.cpg/sg73_12_cif.got.tgz:22941.got - 2010.06.03 17:35:07.
