data_PCOD9533278
_publ_section_title
;
Structure prediction by ZEFSAII (Michael W. Deem and Ramdas Pophale) SiO2 
 PCOD9533278
Probable space group: I B C A 
;
_chemical_formula_sum "Si O2"
_cell_formula_units_Z 72
_cell_length_a 11.273606
_cell_length_b 18.392913
_cell_length_c 14.974731
_cell_angle_alpha 90.000000
_cell_angle_beta 90.000000
_cell_angle_gamma 90.000000
_cell_volume 3105.077176
_symmetry_space_group_name_H-M "I B C A "
_symmetry_group_IT_number 73
_symmetry_cell_setting 'orthorhombic'
loop_
_space_group_symop_operation_xyz
x,y,z
-x,1/2-y,z
x,-y,1/2-z
1/2-x,y,-z
-x,-y,-z
x,1/2+y,-z
-x,y,1/2+z
1/2+x,-y,z
1/2+x,1/2+y,1/2+z
1/2-x,-y,1/2+z
1/2+x,1/2-y,-z
-x,1/2+y,1/2-z
1/2-x,1/2-y,1/2-z
1/2+x,y,1/2-z
1/2-x,1/2+y,z
x,1/2-y,1/2+z
loop_
_atom_site_type_symbol
_atom_site_label
_atom_site_fract_x
_atom_site_fract_y
_atom_site_fract_z
Si Si1 0.566658 0.425767 0.109886
Si Si2 0.083638 0.691477 0.691394
Si Si3 0.657203 0.724762 0.129023
Si Si4 0.121762 0.077557 0.550512
Si Si5 0.750000 0.664800 0.500000
O O1 0.493140 0.382515 0.186341
O O2 0.608156 0.509117 0.117484
O O3 0.473897 0.426788 0.028283
O O4 0.681875 0.381909 0.074828
O O5 0.210268 0.692425 0.644375
O O6 0.115652 0.729681 0.785484
O O7 0.000000 0.750000 0.642807
O O8 0.592425 0.651400 0.102594
O O9 0.660252 0.781473 0.049173
O O10 0.250000 0.076254 0.500000
#
# Coordination Sequence:
#
# PCOD9533278 Si02
#       5
#    16  16  16  16   8
#     4  11  24  41  71 102 145 178 242 302 368 442
#     4  11  23  43  66 100 143 186 231 301 366 444
#     4  11  24  40  72  99 141 181 244 299 367 444
#     4  11  22  43  70 106 139 190 240 303 368 438
#     4  12  22  40  72 110 130 194 244 306 360 458
#
# _framework density 23.187830000000002
#
# number of rings (size 3 to 8) (size 9 to 14) (size 15 to 20)
#    0.000    0.889    6.667    0.000    3.111    0.000 
#    0.000    1.111    4.889    0.000    0.000    0.000 
#    0.000    0.000    0.000    0.000    0.000    0.000 
#
# Total GULP energy -200994.164907 kJ/mol
# GULP energy per Si atom -5583.171247 kJ/mol
# Density = 2.313505 g / cm^3
# Si number density = 23.187830 Si / 1000 Ang^3
#
#
#
# Elastic Constant Matrix: (Units=GPa)
#
#
# Indices 1 2 3 4 5 6 
#
# 1 88.5804 32.4372 20.6339 0.0000 0.0000 0.0000
# 2 32.4372 182.6078 54.3257 0.0000 0.0000 0.0000
# 3 20.6339 54.3257 57.6046 0.0000 0.0000 0.0000
# 4 0.0000 0.0000 0.0000 27.0190 0.0000 0.0000
# 5 0.0000 0.0000 0.0000 0.0000 26.6577 0.0000
# 6 0.0000 0.0000 0.0000 0.0000 0.0000 34.5269
#
#
#
# Elastic Compliance Matrix: (Units=1/GPa)
#
#
# Indices 1 2 3 4 5 6 
#
# 1 0.012514 -0.001236 -0.003317 0.000000 0.000000 0.000000
# 2 -0.001236 0.007734 -0.006851 0.000000 0.000000 0.000000
# 3 -0.003317 -0.006851 0.025009 0.000000 0.000000 0.000000
# 4 0.000000 0.000000 0.000000 0.037011 0.000000 0.000000
# 5 0.000000 0.000000 0.000000 0.000000 0.037513 0.000000
# 6 0.000000 0.000000 0.000000 0.000000 0.000000 0.028963
#
#
# Mechanical properties :
#
#
# Convention : Reuss Voigt Hill
#
# Bulk Modulus (GPa) = 44.54483 60.39849 52.47166
# Shear Modulus (GPa) = 27.92754 32.40044 30.16399
#
# Velocity S-wave (km/s) = 3.47422 3.74211 3.61065
# Velocity P-wave (km/s) = 5.94523 6.69143 6.32933
#
# Compressibility (1/GPa) = 0.02244929
#
# Stress axis : x y z
#
# Youngs Moduli (GPa) = 79.90737 129.29993 39.98603
#
# Poissons Ratio (x) = 0.15985 0.13263
# Poissons Ratio (y) = 0.09879 0.27394
# Poissons Ratio (z) = 0.26504 0.88582
#
# Static dielectric constant tensor:
#      x y z
#    x 1.987030 0.000000 0.000000 
#    y 0.000000 1.898080 0.000000 
#    z 0.000000 0.000000 1.898570 
# 
# From -- ./inp_files/21165.got.cif
#   From: 2010.05.17/outbox.cif.g08.bks.cpg/sg73_11_cif.got.tgz:21165.got - 2010.06.03 17:35:07.
