data_PCOD9533856
_publ_section_title
;
Structure prediction by ZEFSAII (Michael W. Deem and Ramdas Pophale) SiO2 
 PCOD9533856
Probable space group: I M M A
;
_chemical_formula_sum "Si O2"
_cell_formula_units_Z 44
_cell_length_a 8.339445
_cell_length_b 23.014934
_cell_length_c 9.356310
_cell_angle_alpha 90.000000
_cell_angle_beta 90.000000
_cell_angle_gamma 90.000000
_cell_volume 1795.773198
_symmetry_space_group_name_H-M "I M M A"
_symmetry_group_IT_number 74
_symmetry_cell_setting 'orthorhombic'
loop_
_space_group_symop_operation_xyz
x,y,z
-x,1/2-y,z
x,-y,-z
-x,1/2+y,-z
-x,-y,-z
x,1/2+y,-z
-x,y,z
x,1/2-y,z
1/2+x,1/2+y,1/2+z
1/2-x,-y,1/2+z
1/2+x,1/2-y,1/2-z
1/2-x,y,1/2-z
1/2-x,1/2-y,1/2-z
1/2+x,y,1/2-z
1/2-x,1/2+y,1/2+z
1/2+x,-y,1/2+z
loop_
_atom_site_type_symbol
_atom_site_label
_atom_site_fract_x
_atom_site_fract_y
_atom_site_fract_z
Si Si1 0.500000 0.250000 0.217771
Si Si2 0.321340 0.622710 0.434813
Si Si3 0.000000 0.931903 0.476166
Si Si4 0.000000 0.121278 0.205446
Si Si5 0.815672 0.250000 0.560566
O O1 0.500000 0.309056 0.300355
O O2 0.350385 0.250000 0.109017
O O3 0.500000 0.611900 0.376462
O O4 0.162507 0.587623 0.396858
O O5 0.350195 0.606186 0.603287
O O6 0.276300 0.690340 0.410013
O O7 0.000000 0.899878 0.632464
O O8 0.000000 0.000000 0.500000
O O9 0.000000 0.250000 0.620944
#
# Coordination Sequence:
#
# PCOD9533856 Si02
#       5
#     4  16   8   8   8
#     4  10  16  24  50  74 100 122 148 186 234 276
#     4  10  21  32  49  67  96 125 163 191 236 277
#     4  12  22  34  44  61  93 135 169 200 225 261
#     4  10  20  32  49  72  95 127 162 194 232 279
#     4  10  16  27  47  73 100 121 147 189 233 278
#
# _framework density 24.50198
#
# number of rings (size 3 to 8) (size 9 to 14) (size 15 to 20)
#    1.636    0.000    5.455    2.727    0.000    2.182 
#    0.000    0.000    0.000    0.000    0.000    0.000 
#    0.000    0.000    0.000   58.909    0.000    0.727 
#
# Total GULP energy -122775.026007 kJ/mol
# GULP energy per Si atom -5580.683000 kJ/mol
# Density = 2.444621 g / cm^3
# Si number density = 24.501980 Si / 1000 Ang^3
#
#
#
# Elastic Constant Matrix: (Units=GPa)
#
#
# Indices 1 2 3 4 5 6 
#
# 1 269.8411 87.1769 50.5314 0.0001 0.0000 -0.0001
# 2 87.1769 127.4467 -15.7416 -0.0001 0.0000 -0.0004
# 3 50.5314 -15.7416 94.1424 0.0016 -0.0010 0.0023
# 4 0.0001 -0.0001 0.0016 -27.6897 0.0003 0.0004
# 5 0.0000 0.0000 -0.0010 0.0003 40.4504 -0.0001
# 6 -0.0001 -0.0004 0.0023 0.0004 -0.0001 -62.3366
#
#
#
# Elastic Compliance Matrix: (Units=1/GPa)
#
#
# Indices 1 2 3 4 5 6 
#
# 1 0.005901 -0.004521 -0.003924 0.000000 0.000000 0.000000
# 2 -0.004521 0.011476 0.004346 0.000000 0.000000 0.000000
# 3 -0.003924 0.004346 0.013455 0.000001 0.000000 0.000000
# 4 0.000000 0.000000 0.000001 -0.036115 0.000000 0.000000
# 5 0.000000 0.000000 0.000000 0.000000 0.024722 0.000000
# 6 0.000000 0.000000 0.000000 0.000000 0.000000 -0.016042
#
#
# Mechanical properties :
#
#
# Convention : Reuss Voigt Hill
#
# Bulk Modulus (GPa) = 44.18181 81.70706 62.94444
# Shear Modulus (GPa) = 261.23330 14.71572 137.97451
#
# Velocity S-wave (km/s) = 10.33676 2.45336 7.51224
# Velocity P-wave (km/s) = 12.67028 6.43776 10.04940
#
# Compressibility (1/GPa) = 0.02263375
#
# Stress axis : x y z
#
# Youngs Moduli (GPa) = 169.45427 87.13955 74.32266
#
# Poissons Ratio (x) = 0.39398 0.29161
# Poissons Ratio (y) = 0.76615 -0.32298
# Poissons Ratio (z) = 0.66486 -0.37868
#
# Static dielectric constant tensor:
#      x y z
#    x 1.989350 0.000000 0.000000 
#    y 0.000000 1.845950 0.000000 
#    z 0.000000 0.000000 2.048830 
# 
# From -- ./inp_files/17037.got.cif
#   From: 2010.05.17/outbox.cif.g08.bks.cpg/sg74_9_cif.got.tgz:17037.got - 2010.06.03 17:57:02.
