data_PCOD9533094
_publ_section_title
;
Structure prediction by ZEFSAII (Michael W. Deem and Ramdas Pophale) SiO2 
 PCOD9533094
Probable space group: I B C A 
;
_chemical_formula_sum "Si O2"
_cell_formula_units_Z 104
_cell_length_a 21.769158
_cell_length_b 25.325398
_cell_length_c 9.398117
_cell_angle_alpha 90.000000
_cell_angle_beta 90.000000
_cell_angle_gamma 90.000000
_cell_volume 5181.300229
_symmetry_space_group_name_H-M "I B C A "
_symmetry_group_IT_number 73
_symmetry_cell_setting 'orthorhombic'
loop_
_space_group_symop_operation_xyz
x,y,z
-x,1/2-y,z
x,-y,1/2-z
1/2-x,y,-z
-x,-y,-z
x,1/2+y,-z
-x,y,1/2+z
1/2+x,-y,z
1/2+x,1/2+y,1/2+z
1/2-x,-y,1/2+z
1/2+x,1/2-y,-z
-x,1/2+y,1/2-z
1/2-x,1/2-y,1/2-z
1/2+x,y,1/2-z
1/2-x,1/2+y,z
x,1/2-y,1/2+z
loop_
_atom_site_type_symbol
_atom_site_label
_atom_site_fract_x
_atom_site_fract_y
_atom_site_fract_z
Si Si1 0.750000 0.385361 0.500000
Si Si2 0.148463 0.951474 0.143289
Si Si3 0.437647 0.359760 0.137608
Si Si4 0.422751 0.370331 0.590280
Si Si5 0.567518 0.223383 0.362640
Si Si6 0.866196 0.330076 0.630490
Si Si7 0.565772 0.509281 0.421228
O O1 0.712157 0.423058 0.606216
O O2 0.800735 0.348746 0.574191
O O3 0.103329 0.906091 0.203313
O O4 0.154266 0.000000 0.250000
O O5 0.115305 0.971894 0.998739
O O6 0.508624 0.371739 0.155189
O O7 0.426764 0.303093 0.208037
O O8 0.417020 0.356041 0.974170
O O9 0.425343 0.325563 0.469726
O O10 0.377111 0.350966 0.711831
O O11 0.412296 0.430819 0.549850
O O12 0.500000 0.250000 0.377934
O O13 0.618590 0.268235 0.377758
O O14 0.561014 0.500000 0.250000
O O15 0.500000 0.500000 0.500000
#
# Coordination Sequence:
#
# PCOD9533094 Si02
#       7
#     8  16  16  16  16  16  16
#     4  10  26  48  68  92 136 194 232 264 332 414
#     4  11  24  45  70  94 135 184 229 284 335 400
#     4  11  21  38  62  97 135 169 211 277 343 401
#     4  12  23  37  64 101 138 168 221 273 344 406
#     4  12  23  37  64  99 137 171 214 277 348 403
#     4  11  24  42  65  93 132 180 225 271 328 403
#     4  12  25  39  65 102 142 176 218 280 353 406
#
# _framework density 20.072182000000002
#
# number of rings (size 3 to 8) (size 9 to 14) (size 15 to 20)
#    0.000    0.615    4.615    4.154    2.154    1.846 
#    0.000    6.923    0.000    0.923    0.000    0.000 
#    0.000    0.000    0.000    0.000    0.000    0.000 
#
# Total GULP energy -290687.836945 kJ/mol
# GULP energy per Si atom -5590.150710 kJ/mol
# Density = 2.002650 g / cm^3
# Si number density = 20.072182 Si / 1000 Ang^3
#
#
#
# Elastic Constant Matrix: (Units=GPa)
#
#
# Indices 1 2 3 4 5 6 
#
# 1 84.4916 23.4064 16.5738 0.0000 0.0000 0.0000
# 2 23.4064 145.7786 29.9627 0.0000 0.0000 0.0000
# 3 16.5738 29.9627 92.9977 0.0000 0.0000 0.0000
# 4 0.0000 0.0000 0.0000 36.5113 0.0000 0.0000
# 5 0.0000 0.0000 0.0000 0.0000 10.6232 0.0000
# 6 0.0000 0.0000 0.0000 0.0000 0.0000 33.4067
#
#
#
# Elastic Compliance Matrix: (Units=1/GPa)
#
#
# Indices 1 2 3 4 5 6 
#
# 1 0.012636 -0.001677 -0.001712 0.000000 0.000000 0.000000
# 2 -0.001677 0.007569 -0.002140 0.000000 0.000000 0.000000
# 3 -0.001712 -0.002140 0.011747 0.000000 0.000000 0.000000
# 4 0.000000 0.000000 0.000000 0.027389 0.000000 0.000000
# 5 0.000000 0.000000 0.000000 0.000000 0.094134 0.000000
# 6 0.000000 0.000000 0.000000 0.000000 0.000000 0.029934
#
#
# Mechanical properties :
#
#
# Convention : Reuss Voigt Hill
#
# Bulk Modulus (GPa) = 47.85761 51.46153 49.65957
# Shear Modulus (GPa) = 24.82247 32.99657 28.90952
#
# Velocity S-wave (km/s) = 3.52043 4.05890 3.79922
# Velocity P-wave (km/s) = 6.35760 6.90363 6.63623
#
# Compressibility (1/GPa) = 0.02089532
#
# Stress axis : x y z
#
# Youngs Moduli (GPa) = 79.14008 132.12189 85.12543
#
# Poissons Ratio (x) = 0.22157 0.14570
# Poissons Ratio (y) = 0.13272 0.18214
# Poissons Ratio (z) = 0.13546 0.28270
#
# Static dielectric constant tensor:
#      x y z
#    x 1.664310 0.000000 0.000000 
#    y 0.000000 1.791200 0.000000 
#    z 0.000000 0.000000 1.747440 
# 
# From -- ./inp_files/6561.got.cif
#   From: 2010.05.17/outbox.cif.g08.bks.cpg/sg73_4_cif.got.tgz:6561.got - 2010.06.03 17:35:07.
