data_PCOD9533668
_publ_section_title
;
Structure prediction by ZEFSAII (Michael W. Deem and Ramdas Pophale) SiO2 
 PCOD9533668
Probable space group: I B C A 
;
_chemical_formula_sum "Si O2"
_cell_formula_units_Z 64
_cell_length_a 7.600898
_cell_length_b 21.594248
_cell_length_c 16.479204
_cell_angle_alpha 90.000000
_cell_angle_beta 90.000000
_cell_angle_gamma 90.000000
_cell_volume 2704.825296
_symmetry_space_group_name_H-M "I B C A "
_symmetry_group_IT_number 73
_symmetry_cell_setting 'orthorhombic'
loop_
_space_group_symop_operation_xyz
x,y,z
-x,1/2-y,z
x,-y,1/2-z
1/2-x,y,-z
-x,-y,-z
x,1/2+y,-z
-x,y,1/2+z
1/2+x,-y,z
1/2+x,1/2+y,1/2+z
1/2-x,-y,1/2+z
1/2+x,1/2-y,-z
-x,1/2+y,1/2-z
1/2-x,1/2-y,1/2-z
1/2+x,y,1/2-z
1/2-x,1/2+y,z
x,1/2-y,1/2+z
loop_
_atom_site_type_symbol
_atom_site_label
_atom_site_fract_x
_atom_site_fract_y
_atom_site_fract_z
Si Si1 0.000000 0.250000 0.113352
Si Si2 0.613690 0.963878 0.566027
Si Si3 0.680031 0.632483 0.181567
Si Si4 0.250000 0.830832 0.500000
Si Si5 0.079966 0.092083 0.858045
O O1 0.877144 0.202866 0.164513
O O2 0.873612 0.288834 0.055246
O O3 0.750000 0.936747 0.500000
O O4 0.643675 0.021059 0.628595
O O5 0.500000 0.000000 0.500000
O O6 0.552063 0.908973 0.624025
O O7 0.663363 0.618382 0.275998
O O8 0.871687 0.606445 0.154734
O O9 0.138728 0.872643 0.561329
#
# Coordination Sequence:
#
# PCOD9533668 Si02
#       5
#     8  16  16   8  16
#     4  12  28  48  74 108 146 202 252 306 372 456
#     4  12  25  45  78 110 146 189 244 306 376 447
#     4  12  29  47  73 109 152 195 250 307 379 450
#     4  12  26  46  76 102 146 194 252 310 370 452
#     4  12  27  48  75 109 147 194 250 314 380 444
#
# _framework density 23.661417
#
# number of rings (size 3 to 8) (size 9 to 14) (size 15 to 20)
#    0.000    0.000    3.750    5.250    5.250    7.000 
#    0.000    0.000    0.000    0.000    0.000    0.000 
#    0.000    0.000    0.000    0.000    0.000    0.000 
#
# Total GULP energy -178795.846554 kJ/mol
# GULP energy per Si atom -5587.370205 kJ/mol
# Density = 2.360756 g / cm^3
# Si number density = 23.661417 Si / 1000 Ang^3
#
#
#
# Elastic Constant Matrix: (Units=GPa)
#
#
# Indices 1 2 3 4 5 6 
#
# 1 60.1498 18.6189 36.3672 0.0000 0.0000 0.0000
# 2 18.6189 160.7079 74.8833 0.0000 0.0000 0.0000
# 3 36.3672 74.8833 198.2146 0.0000 0.0000 0.0000
# 4 0.0000 0.0000 0.0000 49.9326 0.0000 0.0000
# 5 0.0000 0.0000 0.0000 0.0000 40.4304 0.0000
# 6 0.0000 0.0000 0.0000 0.0000 0.0000 25.9219
#
#
#
# Elastic Compliance Matrix: (Units=1/GPa)
#
#
# Indices 1 2 3 4 5 6 
#
# 1 0.018763 -0.000691 -0.003181 0.000000 0.000000 0.000000
# 2 -0.000691 0.007577 -0.002736 0.000000 0.000000 0.000000
# 3 -0.003181 -0.002736 0.006662 0.000000 0.000000 0.000000
# 4 0.000000 0.000000 0.000000 0.020027 0.000000 0.000000
# 5 0.000000 0.000000 0.000000 0.000000 0.024734 0.000000
# 6 0.000000 0.000000 0.000000 0.000000 0.000000 0.038577
#
#
# Mechanical properties :
#
#
# Convention : Reuss Voigt Hill
#
# Bulk Modulus (GPa) = 50.54252 75.42345 62.98298
# Shear Modulus (GPa) = 36.72354 42.53717 39.63036
#
# Velocity S-wave (km/s) = 3.94387 4.24458 4.09699
# Velocity P-wave (km/s) = 6.49199 7.48113 7.00404
#
# Compressibility (1/GPa) = 0.01978532
#
# Stress axis : x y z
#
# Youngs Moduli (GPa) = 53.29752 131.97257 150.09931
#
# Poissons Ratio (x) = 0.09125 0.47750
# Poissons Ratio (y) = 0.03685 0.41064
# Poissons Ratio (z) = 0.16955 0.36105
#
# Static dielectric constant tensor:
#      x y z
#    x 2.098530 0.000000 0.000000 
#    y 0.000000 1.973790 0.000000 
#    z 0.000000 0.000000 1.833300 
# 
# From -- ./inp_files/15461.got.cif
#   From: 2010.05.17/outbox.cif.g08.bks.cpg/sg73_8_cif.got.tgz:15461.got - 2010.06.03 17:35:07.
