data_PCOD9533503
_publ_section_title
;
Structure prediction by ZEFSAII (Michael W. Deem and Ramdas Pophale) SiO2 
 PCOD9533503
Probable space group: I B C A 
;
_chemical_formula_sum "Si O2"
_cell_formula_units_Z 48
_cell_length_a 14.790791
_cell_length_b 7.454507
_cell_length_c 17.132907
_cell_angle_alpha 90.000000
_cell_angle_beta 90.000000
_cell_angle_gamma 90.000000
_cell_volume 1889.041003
_symmetry_space_group_name_H-M "I B C A "
_symmetry_group_IT_number 73
_symmetry_cell_setting 'orthorhombic'
loop_
_space_group_symop_operation_xyz
x,y,z
-x,1/2-y,z
x,-y,1/2-z
1/2-x,y,-z
-x,-y,-z
x,1/2+y,-z
-x,y,1/2+z
1/2+x,-y,z
1/2+x,1/2+y,1/2+z
1/2-x,-y,1/2+z
1/2+x,1/2-y,-z
-x,1/2+y,1/2-z
1/2-x,1/2-y,1/2-z
1/2+x,y,1/2-z
1/2-x,1/2+y,z
x,1/2-y,1/2+z
loop_
_atom_site_type_symbol
_atom_site_label
_atom_site_fract_x
_atom_site_fract_y
_atom_site_fract_z
Si Si1 0.376497 0.415450 0.833161
Si Si2 0.340769 0.805822 0.453617
Si Si3 0.582227 0.553924 0.608629
O O1 0.358005 0.500000 0.750000
O O2 0.323404 0.524377 0.898733
O O3 0.481518 0.452207 0.857065
O O4 0.365600 0.201414 0.838930
O O5 0.250000 0.762391 0.500000
O O6 0.411539 0.862936 0.521157
O O7 0.377352 0.643080 0.401687
#
# Coordination Sequence:
#
# PCOD9533503 Si02
#       3
#    16  16  16
#     4  11  27  46  73 113 148 193 250 321 380 435
#     4  12  25  45  75 108 149 201 253 303 374 461
#     4  11  25  43  76 107 144 197 256 311 365 451
#
# _framework density 25.409718000000002
#
# number of rings (size 3 to 8) (size 9 to 14) (size 15 to 20)
#    0.000    0.667    3.333    3.000   14.000    1.333 
#    0.000    3.333    0.000    0.000    0.000    0.000 
#    0.000    0.000    0.000    0.000    0.000    0.000 
#
# Total GULP energy -134617.263433 kJ/mol
# GULP energy per Si atom -5609.052643 kJ/mol
# Density = 2.535188 g / cm^3
# Si number density = 25.409718 Si / 1000 Ang^3
#
#
#
# Elastic Constant Matrix: (Units=GPa)
#
#
# Indices 1 2 3 4 5 6 
#
# 1 65.7769 10.6988 -4.8688 0.0000 0.0000 0.0000
# 2 10.6988 137.0772 16.0263 0.0000 0.0000 0.0000
# 3 -4.8688 16.0263 123.1168 0.0000 0.0000 0.0000
# 4 0.0000 0.0000 0.0000 22.0485 0.0000 0.0000
# 5 0.0000 0.0000 0.0000 0.0000 3.2835 0.0000
# 6 0.0000 0.0000 0.0000 0.0000 0.0000 32.1470
#
#
#
# Elastic Compliance Matrix: (Units=1/GPa)
#
#
# Indices 1 2 3 4 5 6 
#
# 1 0.015472 -0.001299 0.000781 0.000000 0.000000 0.000000
# 2 -0.001299 0.007517 -0.001030 0.000000 0.000000 0.000000
# 3 0.000781 -0.001030 0.008287 0.000000 0.000000 0.000000
# 4 0.000000 0.000000 0.000000 0.045354 0.000000 0.000000
# 5 0.000000 0.000000 0.000000 0.000000 0.304550 0.000000
# 6 0.000000 0.000000 0.000000 0.000000 0.000000 0.031107
#
#
# Mechanical properties :
#
#
# Convention : Reuss Voigt Hill
#
# Bulk Modulus (GPa) = 35.48536 41.07594 38.28065
# Shear Modulus (GPa) = 11.77089 31.77012 21.77051
#
# Velocity S-wave (km/s) = 2.15464 3.53981 2.93025
# Velocity P-wave (km/s) = 4.49284 5.73651 5.15234
#
# Compressibility (1/GPa) = 0.02818063
#
# Stress axis : x y z
#
# Youngs Moduli (GPa) = 64.63293 133.03281 120.66645
#
# Poissons Ratio (x) = 0.17279 -0.09423
# Poissons Ratio (y) = 0.08395 0.12427
# Poissons Ratio (z) = -0.05047 0.13700
#
# Static dielectric constant tensor:
#      x y z
#    x 2.053490 0.000000 0.000000 
#    y 0.000000 2.005080 0.000000 
#    z 0.000000 0.000000 1.936350 
# 
# From -- ./inp_files/4299.got.cif
#   From: 2010.05.17/outbox.cif.g08.bks.cpg/sg73_3_cif.got.tgz:4299.got - 2010.06.03 17:35:07.
