data_PCOD9533605
_publ_section_title
;
Structure prediction by ZEFSAII (Michael W. Deem and Ramdas Pophale) SiO2 
 PCOD9533605
Probable space group: I B C A 
;
_chemical_formula_sum "Si O2"
_cell_formula_units_Z 88
_cell_length_a 16.561456
_cell_length_b 17.808273
_cell_length_c 14.943306
_cell_angle_alpha 90.000000
_cell_angle_beta 90.000000
_cell_angle_gamma 90.000000
_cell_volume 4407.243132
_symmetry_space_group_name_H-M "I B C A "
_symmetry_group_IT_number 73
_symmetry_cell_setting 'orthorhombic'
loop_
_space_group_symop_operation_xyz
x,y,z
-x,1/2-y,z
x,-y,1/2-z
1/2-x,y,-z
-x,-y,-z
x,1/2+y,-z
-x,y,1/2+z
1/2+x,-y,z
1/2+x,1/2+y,1/2+z
1/2-x,-y,1/2+z
1/2+x,1/2-y,-z
-x,1/2+y,1/2-z
1/2-x,1/2-y,1/2-z
1/2+x,y,1/2-z
1/2-x,1/2+y,z
x,1/2-y,1/2+z
loop_
_atom_site_type_symbol
_atom_site_label
_atom_site_fract_x
_atom_site_fract_y
_atom_site_fract_z
Si Si1 0.306313 0.684239 0.215124
Si Si2 0.309509 0.953979 0.339826
Si Si3 0.539916 0.427078 0.047712
Si Si4 0.750000 0.440797 0.500000
Si Si5 0.844659 0.191794 0.523395
Si Si6 0.382535 0.164620 0.593236
O O1 0.250000 0.750000 0.250000
O O2 0.248634 0.617029 0.179437
O O3 0.351079 0.715342 0.126900
O O4 0.360047 0.663152 0.301393
O O5 0.402416 0.939750 0.366826
O O6 0.307124 0.000000 0.250000
O O7 0.277487 0.005455 0.420181
O O8 0.468869 0.371308 0.075079
O O9 0.500000 0.500000 0.000000
O O10 0.602926 0.383590 0.983830
O O11 0.681091 0.386986 0.539388
O O12 0.750000 0.180739 0.500000
O O13 0.875587 0.253203 0.452040
#
# Coordination Sequence:
#
# PCOD9533605 Si02
#       6
#    16  16  16   8  16  16
#     4  12  24  44  77 107 135 191 250 297 357 444
#     4  12  25  43  71 105 144 190 245 293 364 444
#     4  12  27  45  69 105 154 187 238 309 371 428
#     4  12  22  46  76 100 144 202 236 302 368 444
#     4  12  24  46  77 101 142 192 244 298 367 440
#     4  12  25  47  73 106 144 189 245 304 367 431
#
# _framework density 19.967130999999998
#
# number of rings (size 3 to 8) (size 9 to 14) (size 15 to 20)
#    0.000    0.000    8.182    1.636    0.000    1.455 
#    0.000    3.636    0.000    0.000    0.000    0.000 
#    0.000    0.000    0.000    0.000    0.000    0.000 
#
# Total GULP energy -245836.596869 kJ/mol
# GULP energy per Si atom -5587.195383 kJ/mol
# Density = 1.992169 g / cm^3
# Si number density = 19.967131 Si / 1000 Ang^3
#
#
#
# Elastic Constant Matrix: (Units=GPa)
#
#
# Indices 1 2 3 4 5 6 
#
# 1 102.5267 34.8895 27.4470 0.0000 0.0000 0.0000
# 2 34.8895 83.1778 33.9495 0.0000 0.0000 0.0000
# 3 27.4470 33.9495 160.1842 0.0000 0.0000 0.0000
# 4 0.0000 0.0000 0.0000 36.8372 0.0000 0.0000
# 5 0.0000 0.0000 0.0000 0.0000 32.3573 0.0000
# 6 0.0000 0.0000 0.0000 0.0000 0.0000 49.0404
#
#
#
# Elastic Compliance Matrix: (Units=1/GPa)
#
#
# Indices 1 2 3 4 5 6 
#
# 1 0.011534 -0.004413 -0.001041 0.000000 0.000000 0.000000
# 2 -0.004413 0.014849 -0.002391 0.000000 0.000000 0.000000
# 3 -0.001041 -0.002391 0.006928 0.000000 0.000000 0.000000
# 4 0.000000 0.000000 0.000000 0.027147 0.000000 0.000000
# 5 0.000000 0.000000 0.000000 0.000000 0.030905 0.000000
# 6 0.000000 0.000000 0.000000 0.000000 0.000000 0.020391
#
#
# Mechanical properties :
#
#
# Convention : Reuss Voigt Hill
#
# Bulk Modulus (GPa) = 56.75007 59.82894 58.28950
# Shear Modulus (GPa) = 37.50427 40.28717 38.89572
#
# Velocity S-wave (km/s) = 4.33864 4.49673 4.41839
# Velocity P-wave (km/s) = 7.31996 7.54914 7.43543
#
# Compressibility (1/GPa) = 0.01762112
#
# Stress axis : x y z
#
# Youngs Moduli (GPa) = 86.70018 67.34246 144.34311
#
# Poissons Ratio (x) = 0.29719 0.15026
# Poissons Ratio (y) = 0.38262 0.34513
# Poissons Ratio (z) = 0.09025 0.16102
#
# Static dielectric constant tensor:
#      x y z
#    x 1.708530 0.000000 0.000000 
#    y 0.000000 1.729670 0.000000 
#    z 0.000000 0.000000 1.712510 
# 
# From -- ./inp_files/16955.got.cif
#   From: 2010.05.17/outbox.cif.g08.bks.cpg/sg73_9_cif.got.tgz:16955.got - 2010.06.03 17:35:07.
