data_PCOD9533284
_publ_section_title
;
Structure prediction by ZEFSAII (Michael W. Deem and Ramdas Pophale) SiO2 
 PCOD9533284
Probable space group: I B C A 
;
_chemical_formula_sum "Si O2"
_cell_formula_units_Z 80
_cell_length_a 10.054628
_cell_length_b 12.849825
_cell_length_c 26.262107
_cell_angle_alpha 90.000000
_cell_angle_beta 90.000000
_cell_angle_gamma 90.000000
_cell_volume 3393.069746
_symmetry_space_group_name_H-M "I B C A "
_symmetry_group_IT_number 73
_symmetry_cell_setting 'orthorhombic'
loop_
_space_group_symop_operation_xyz
x,y,z
-x,1/2-y,z
x,-y,1/2-z
1/2-x,y,-z
-x,-y,-z
x,1/2+y,-z
-x,y,1/2+z
1/2+x,-y,z
1/2+x,1/2+y,1/2+z
1/2-x,-y,1/2+z
1/2+x,1/2-y,-z
-x,1/2+y,1/2-z
1/2-x,1/2-y,1/2-z
1/2+x,y,1/2-z
1/2-x,1/2+y,z
x,1/2-y,1/2+z
loop_
_atom_site_type_symbol
_atom_site_label
_atom_site_fract_x
_atom_site_fract_y
_atom_site_fract_z
Si Si1 0.241877 0.772592 0.136040
Si Si2 0.071113 0.439063 0.095849
Si Si3 0.564221 0.445594 0.675445
Si Si4 0.729147 0.096515 0.443358
Si Si5 0.614755 0.334459 0.782293
O O1 0.373951 0.829385 0.115133
O O2 0.135510 0.864746 0.138224
O O3 0.217232 0.680979 0.096853
O O4 0.260214 0.729649 0.194118
O O5 0.178355 0.494321 0.060175
O O6 0.064534 0.512018 0.146590
O O7 0.924752 0.428299 0.071154
O O8 0.568318 0.384164 0.728492
O O9 0.630294 0.557945 0.685950
O O10 0.750000 0.139106 0.500000
O O11 0.500000 0.250000 0.792468
#
# Coordination Sequence:
#
# PCOD9533284 Si02
#       5
#    16  16  16  16  16
#     4  12  23  49  75 104 158 196 245 314 375 443
#     4  12  24  52  75 105 155 193 250 314 374 448
#     4  11  25  43  71 113 143 200 247 297 365 459
#     4  12  28  49  78 110 145 199 255 316 384 440
#     4  11  22  44  71 105 153 197 241 301 371 440
#
# _framework density 23.577472
#
# number of rings (size 3 to 8) (size 9 to 14) (size 15 to 20)
#    0.000    0.400    6.000    1.800    2.800    0.800 
#   14.400    0.000    0.000    0.000    0.000    0.000 
#    0.000    0.000    0.000    0.000    0.000    0.000 
#
# Total GULP energy -222944.150423 kJ/mol
# GULP energy per Si atom -5573.603761 kJ/mol
# Density = 2.352381 g / cm^3
# Si number density = 23.577472 Si / 1000 Ang^3
#
#
#
# Elastic Constant Matrix: (Units=GPa)
#
#
# Indices 1 2 3 4 5 6 
#
# 1 21.8907 15.6676 -21.4874 0.0000 0.0000 0.0000
# 2 15.6676 125.8547 -0.9016 0.0000 0.0000 0.0000
# 3 -21.4874 -0.9016 81.2537 0.0000 0.0000 0.0000
# 4 0.0000 0.0000 0.0000 29.4330 0.0000 0.0000
# 5 0.0000 0.0000 0.0000 0.0000 6.0521 0.0000
# 6 0.0000 0.0000 0.0000 0.0000 0.0000 52.0681
#
#
#
# Elastic Compliance Matrix: (Units=1/GPa)
#
#
# Indices 1 2 3 4 5 6 
#
# 1 0.069849 -0.008564 0.018376 0.000000 0.000000 0.000000
# 2 -0.008564 0.008996 -0.002165 0.000000 0.000000 0.000000
# 3 0.018376 -0.002165 0.017143 0.000000 0.000000 0.000000
# 4 0.000000 0.000000 0.000000 0.033975 0.000000 0.000000
# 5 0.000000 0.000000 0.000000 0.000000 0.165233 0.000000
# 6 0.000000 0.000000 0.000000 0.000000 0.000000 0.019206
#
#
# Mechanical properties :
#
#
# Convention : Reuss Voigt Hill
#
# Bulk Modulus (GPa) = 8.98610 23.95068 16.46839
# Shear Modulus (GPa) = 14.87210 33.22534 24.04872
#
# Velocity S-wave (km/s) = 2.51425 3.75800 3.19719
# Velocity P-wave (km/s) = 3.49974 5.38613 4.54195
#
# Compressibility (1/GPa) = 0.11128294
#
# Stress axis : x y z
#
# Youngs Moduli (GPa) = 14.31669 111.15729 58.33387
#
# Poissons Ratio (x) = 0.95192 -1.07196
# Poissons Ratio (y) = 0.12260 0.12628
# Poissons Ratio (z) = -0.26309 0.24064
#
# Static dielectric constant tensor:
#      x y z
#    x 1.928100 0.000000 0.000000 
#    y 0.000000 1.855290 0.000000 
#    z 0.000000 0.000000 1.979080 
# 
# From -- ./inp_files/33825.got.cif
#   From: 2010.05.17/outbox.cif.g08.bks.cpg/sg73_17_cif.got.tgz:33825.got - 2010.06.03 17:35:07.
