data_PCOD9533488
_publ_section_title
;
Structure prediction by ZEFSAII (Michael W. Deem and Ramdas Pophale) SiO2 
 PCOD9533488
Probable space group: I B C A 
;
_chemical_formula_sum "Si O2"
_cell_formula_units_Z 104
_cell_length_a 19.501715
_cell_length_b 24.971558
_cell_length_c 9.301461
_cell_angle_alpha 90.000000
_cell_angle_beta 90.000000
_cell_angle_gamma 90.000000
_cell_volume 4529.701817
_symmetry_space_group_name_H-M "I B C A "
_symmetry_group_IT_number 73
_symmetry_cell_setting 'orthorhombic'
loop_
_space_group_symop_operation_xyz
x,y,z
-x,1/2-y,z
x,-y,1/2-z
1/2-x,y,-z
-x,-y,-z
x,1/2+y,-z
-x,y,1/2+z
1/2+x,-y,z
1/2+x,1/2+y,1/2+z
1/2-x,-y,1/2+z
1/2+x,1/2-y,-z
-x,1/2+y,1/2-z
1/2-x,1/2-y,1/2-z
1/2+x,y,1/2-z
1/2-x,1/2+y,z
x,1/2-y,1/2+z
loop_
_atom_site_type_symbol
_atom_site_label
_atom_site_fract_x
_atom_site_fract_y
_atom_site_fract_z
Si Si1 0.292632 0.713720 0.143616
Si Si2 0.902999 0.365702 0.853965
Si Si3 0.872003 0.954198 0.348927
Si Si4 0.942537 0.388441 0.413860
Si Si5 0.428108 0.782342 0.112286
Si Si6 0.838876 0.105398 0.657053
Si Si7 0.250000 0.517099 0.000000
O O1 0.250000 0.750000 0.250000
O O2 0.364661 0.741745 0.103676
O O3 0.297403 0.655781 0.217125
O O4 0.250000 0.706694 0.000000
O O5 0.857412 0.403775 0.753090
O O6 0.916165 0.311129 0.767124
O O7 0.978823 0.389708 0.870011
O O8 0.871005 0.369673 0.011016
O O9 0.922891 0.932173 0.468220
O O10 0.804692 0.980094 0.418600
O O11 0.903883 0.000000 0.250000
O O12 0.928897 0.329866 0.490946
O O13 0.897296 0.402413 0.274785
O O14 0.500000 0.750000 0.107709
O O15 0.793378 0.055242 0.608171
#
# Coordination Sequence:
#
# PCOD9533488 Si02
#       7
#    16  16  16  16  16  16   8
#     4  12  25  43  67 108 149 194 244 305 367 433
#     4  11  24  49  72 110 143 184 249 310 366 446
#     4  11  26  49  73 102 140 194 239 305 368 444
#     4  11  26  45  75 110 143 186 251 305 374 447
#     4  11  25  48  78 104 153 205 247 299 378 459
#     4  12  25  44  72 104 146 194 239 309 368 443
#     4  12  28  50  72 100 148 198 250 296 382 456
#
# _framework density 22.959568000000001
#
# number of rings (size 3 to 8) (size 9 to 14) (size 15 to 20)
#    0.000    0.615    2.308    5.538    2.154    3.692 
#    8.308    0.769    0.000    0.000    0.000    0.000 
#    0.000    0.000    0.000    0.000    0.000    0.000 
#
# Total GULP energy -291094.491850 kJ/mol
# GULP energy per Si atom -5597.970997 kJ/mol
# Density = 2.290731 g / cm^3
# Si number density = 22.959568 Si / 1000 Ang^3
#
#
#
# Elastic Constant Matrix: (Units=GPa)
#
#
# Indices 1 2 3 4 5 6 
#
# 1 129.4727 74.3983 27.0324 0.0000 0.0000 0.0000
# 2 74.3983 123.7976 35.9584 0.0000 0.0000 0.0000
# 3 27.0324 35.9584 82.1063 0.0000 0.0000 0.0000
# 4 0.0000 0.0000 0.0000 28.2106 0.0000 0.0000
# 5 0.0000 0.0000 0.0000 0.0000 23.9885 0.0000
# 6 0.0000 0.0000 0.0000 0.0000 0.0000 41.5340
#
#
#
# Elastic Compliance Matrix: (Units=1/GPa)
#
#
# Indices 1 2 3 4 5 6 
#
# 1 0.011855 -0.006864 -0.000897 0.000000 0.000000 0.000000
# 2 -0.006864 0.013229 -0.003534 0.000000 0.000000 0.000000
# 3 -0.000897 -0.003534 0.014022 0.000000 0.000000 0.000000
# 4 0.000000 0.000000 0.000000 0.035448 0.000000 0.000000
# 5 0.000000 0.000000 0.000000 0.000000 0.041687 0.000000
# 6 0.000000 0.000000 0.000000 0.000000 0.000000 0.024077
#
#
# Mechanical properties :
#
#
# Convention : Reuss Voigt Hill
#
# Bulk Modulus (GPa) = 60.54419 67.79497 64.16958
# Shear Modulus (GPa) = 29.68892 31.94579 30.81735
#
# Velocity S-wave (km/s) = 3.59986 3.73419 3.66764
# Velocity P-wave (km/s) = 6.61104 6.94149 6.77828
#
# Compressibility (1/GPa) = 0.01651686
#
# Stress axis : x y z
#
# Youngs Moduli (GPa) = 84.35146 75.59050 71.31491
#
# Poissons Ratio (x) = 0.51885 0.06398
# Poissons Ratio (y) = 0.57899 0.25201
# Poissons Ratio (z) = 0.07567 0.26712
#
# Static dielectric constant tensor:
#      x y z
#    x 1.851540 0.000000 0.000000 
#    y 0.000000 1.848040 0.000000 
#    z 0.000000 0.000000 1.854250 
# 
# From -- ./inp_files/6548.got.cif
#   From: 2010.05.17/outbox.cif.g08.bks.cpg/sg73_4_cif.got.tgz:6548.got - 2010.06.03 17:35:07.
