data_PCOD9533611
_publ_section_title
;
Structure prediction by ZEFSAII (Michael W. Deem and Ramdas Pophale) SiO2 
 PCOD9533611
Probable space group: I B C A 
;
_chemical_formula_sum "Si O2"
_cell_formula_units_Z 88
_cell_length_a 14.497821
_cell_length_b 11.380258
_cell_length_c 21.885209
_cell_angle_alpha 90.000000
_cell_angle_beta 90.000000
_cell_angle_gamma 90.000000
_cell_volume 3610.817509
_symmetry_space_group_name_H-M "I B C A "
_symmetry_group_IT_number 73
_symmetry_cell_setting 'orthorhombic'
loop_
_space_group_symop_operation_xyz
x,y,z
-x,1/2-y,z
x,-y,1/2-z
1/2-x,y,-z
-x,-y,-z
x,1/2+y,-z
-x,y,1/2+z
1/2+x,-y,z
1/2+x,1/2+y,1/2+z
1/2-x,-y,1/2+z
1/2+x,1/2-y,-z
-x,1/2+y,1/2-z
1/2-x,1/2-y,1/2-z
1/2+x,y,1/2-z
1/2-x,1/2+y,z
x,1/2-y,1/2+z
loop_
_atom_site_type_symbol
_atom_site_label
_atom_site_fract_x
_atom_site_fract_y
_atom_site_fract_z
Si Si1 0.439078 0.473554 0.061340
Si Si2 0.400355 0.421856 0.863981
Si Si3 0.000000 0.250000 0.724412
Si Si4 0.222372 0.054333 0.138025
Si Si5 0.179755 0.745586 0.945255
Si Si6 0.000000 0.750000 0.509956
Si Si7 0.589101 0.000000 0.250000
O O1 0.505072 0.517564 0.116256
O O2 0.333141 0.501970 0.078557
O O3 0.500000 0.500000 0.000000
O O4 0.442802 0.333161 0.054230
O O5 0.424584 0.311846 0.820592
O O6 0.322682 0.510640 0.842022
O O7 0.352424 0.374030 0.925654
O O8 0.035768 0.371929 0.757057
O O9 0.224758 0.187521 0.114383
O O10 0.155157 0.025281 0.193065
O O11 0.079042 0.694593 0.965650
O O12 0.250000 0.736519 0.000000
#
# Coordination Sequence:
#
# PCOD9533611 Si02
#       7
#    16  16   8  16  16   8   8
#     4  12  23  42  71 110 156 205 256 324 404 496
#     4  12  25  47  77 108 163 206 269 334 419 489
#     4  12  27  59  84 112 158 225 269 362 416 488
#     4  12  27  46  73 114 149 208 273 332 396 496
#     4  12  23  41  69 109 159 206 254 323 402 491
#     4  12  23  37  70 104 160 205 249 316 406 480
#     4  12  28  56  86 112 160 212 290 332 422 484
#
# _framework density 24.371212
#
# number of rings (size 3 to 8) (size 9 to 14) (size 15 to 20)
#    0.000    0.000    7.273    2.727    0.000    2.182 
#    3.273    0.000    0.000    0.000    0.000    0.000 
#    0.000    0.000    0.000    0.000    0.000    0.000 
#
# Total GULP energy -245137.783959 kJ/mol
# GULP energy per Si atom -5571.313272 kJ/mol
# Density = 2.431574 g / cm^3
# Si number density = 24.371212 Si / 1000 Ang^3
#
#
#
# Elastic Constant Matrix: (Units=GPa)
#
#
# Indices 1 2 3 4 5 6 
#
# 1 148.5617 29.2641 29.7196 0.0000 0.0000 0.0000
# 2 29.2641 55.2957 22.2653 0.0000 0.0000 0.0000
# 3 29.7196 22.2653 78.2446 0.0000 0.0000 0.0000
# 4 0.0000 0.0000 0.0000 33.5907 0.0000 0.0000
# 5 0.0000 0.0000 0.0000 0.0000 107.7541 0.0000
# 6 0.0000 0.0000 0.0000 0.0000 0.0000 44.3046
#
#
#
# Elastic Compliance Matrix: (Units=1/GPa)
#
#
# Indices 1 2 3 4 5 6 
#
# 1 0.007786 -0.003309 -0.002016 0.000000 0.000000 0.000000
# 2 -0.003309 0.021831 -0.004955 0.000000 0.000000 0.000000
# 3 -0.002016 -0.004955 0.014956 0.000000 0.000000 0.000000
# 4 0.000000 0.000000 0.000000 0.029770 0.000000 0.000000
# 5 0.000000 0.000000 0.000000 0.000000 0.009280 0.000000
# 6 0.000000 0.000000 0.000000 0.000000 0.000000 0.022571
#
#
# Mechanical properties :
#
#
# Convention : Reuss Voigt Hill
#
# Bulk Modulus (GPa) = 41.64394 49.40001 45.52197
# Shear Modulus (GPa) = 37.10296 50.52009 43.81153
#
# Velocity S-wave (km/s) = 3.90604 4.55790 4.24450
# Velocity P-wave (km/s) = 6.12105 6.92914 6.53760
#
# Compressibility (1/GPa) = 0.02401310
#
# Stress axis : x y z
#
# Youngs Moduli (GPa) = 128.43072 45.80610 66.86183
#
# Poissons Ratio (x) = 0.15157 0.13478
# Poissons Ratio (y) = 0.42498 0.33133
# Poissons Ratio (z) = 0.25890 0.22699
#
# Static dielectric constant tensor:
#      x y z
#    x 1.884200 0.000000 0.000000 
#    y 0.000000 2.433180 0.000000 
#    z 0.000000 0.000000 1.980790 
# 
# From -- ./inp_files/10996.got.cif
#   From: 2010.05.17/outbox.cif.g08.bks.cpg/sg73_6_cif.got.tgz:10996.got - 2010.06.03 17:35:07.
