data_PCOD9533975
_publ_section_title
;
Structure prediction by ZEFSAII (Michael W. Deem and Ramdas Pophale) SiO2 
 PCOD9533975
Probable space group: I M M A
;
_chemical_formula_sum "Si O2"
_cell_formula_units_Z 116
_cell_length_a 17.759120
_cell_length_b 9.250156
_cell_length_c 36.703478
_cell_angle_alpha 90.000000
_cell_angle_beta 90.000000
_cell_angle_gamma 90.000000
_cell_volume 6029.450284
_symmetry_space_group_name_H-M "I M M A"
_symmetry_group_IT_number 74
_symmetry_cell_setting 'orthorhombic'
loop_
_space_group_symop_operation_xyz
x,y,z
-x,1/2-y,z
x,-y,-z
-x,1/2+y,-z
-x,-y,-z
x,1/2+y,-z
-x,y,z
x,1/2-y,z
1/2+x,1/2+y,1/2+z
1/2-x,-y,1/2+z
1/2+x,1/2-y,1/2-z
1/2-x,y,1/2-z
1/2-x,1/2-y,1/2-z
1/2+x,y,1/2-z
1/2-x,1/2+y,1/2+z
1/2+x,-y,1/2+z
loop_
_atom_site_type_symbol
_atom_site_label
_atom_site_fract_x
_atom_site_fract_y
_atom_site_fract_z
Si Si1 0.648530 0.910159 0.897188
Si Si2 0.907824 0.417083 0.819492
Si Si3 0.115838 0.913569 0.035026
Si Si4 0.091660 0.083413 0.253408
Si Si5 0.090654 0.422005 0.672016
Si Si6 0.500000 0.750000 0.916746
Si Si7 0.204430 0.086749 0.535124
Si Si8 0.090008 0.413666 0.109186
O O1 0.682792 0.750000 0.890243
O O2 0.566499 0.872931 0.913623
O O3 0.634683 0.998544 0.860328
O O4 0.690845 0.000911 0.927696
O O5 0.884086 0.250000 0.818821
O O6 0.883799 0.502889 0.783372
O O7 0.880927 0.497897 0.855928
O O8 0.000000 0.416980 0.819721
O O9 0.086646 0.750000 0.037161
O O10 0.205843 0.903163 0.030514
O O11 0.101978 0.000693 0.071926
O O12 0.086580 0.000000 0.000000
O O13 0.116979 0.250000 0.254948
O O14 0.000000 0.086029 0.252499
O O15 0.112011 0.994282 0.289487
O O16 0.103281 0.250000 0.672253
O O17 0.000000 0.445932 0.667091
O O18 0.173682 0.250000 0.536590
O O19 0.174167 0.000000 0.500000
O O20 0.119738 0.250000 0.107291
O O21 0.000000 0.403683 0.114280
#
# Coordination Sequence:
#
# PCOD9533975 Si02
#       8
#    16  16  16  16  16   4  16  16
#     4  10  18  33  51  70 101 131 165 203 253 299
#     4   9  16  27  42  64  95 131 169 204 246 297
#     4  10  21  37  56  78 101 127 168 211 251 296
#     4   9  16  24  38  60  91 129 168 206 246 294
#     4  10  17  26  42  65  95 129 165 206 252 298
#     4   8  20  32  52  72 106 132 166 208 254 304
#     4  10  21  37  57  77  97 128 168 212 250 295
#     4  10  20  33  51  75 106 138 167 203 252 304
#
# _framework density 19.238900999999998
#
# number of rings (size 3 to 8) (size 9 to 14) (size 15 to 20)
#    0.414    1.931    0.690    2.897    0.000    6.621 
#    0.000    0.345    0.000    0.000    0.000    0.966 
#    0.000    7.724    0.000    0.000    0.000    0.000 
#
# Total GULP energy -322883.603915 kJ/mol
# GULP energy per Si atom -5566.958688 kJ/mol
# Density = 1.919511 g / cm^3
# Si number density = 19.238901 Si / 1000 Ang^3
#
#
#
# Elastic Constant Matrix: (Units=GPa)
#
#
# Indices 1 2 3 4 5 6 
#
# 1 14.3265 9.6544 5.0134 0.0000 0.0000 0.0000
# 2 9.6544 219.1309 130.5824 0.0000 0.0000 0.0000
# 3 5.0134 130.5824 198.5952 0.0000 0.0000 0.0000
# 4 0.0000 0.0000 0.0000 36.4766 0.0000 0.0000
# 5 0.0000 0.0000 0.0000 0.0000 34.3375 0.0000
# 6 0.0000 0.0000 0.0000 0.0000 0.0000 15.1023
#
#
#
# Elastic Compliance Matrix: (Units=1/GPa)
#
#
# Indices 1 2 3 4 5 6 
#
# 1 0.071960 -0.003433 0.000441 0.000000 0.000000 0.000000
# 2 -0.003433 0.007667 -0.004955 0.000000 0.000000 0.000000
# 3 0.000441 -0.004955 0.008282 0.000000 0.000000 0.000000
# 4 0.000000 0.000000 0.000000 0.027415 0.000000 0.000000
# 5 0.000000 0.000000 0.000000 0.000000 0.029123 0.000000
# 6 0.000000 0.000000 0.000000 0.000000 0.000000 0.066215
#
#
# Mechanical properties :
#
#
# Convention : Reuss Voigt Hill
#
# Bulk Modulus (GPa) = 13.88597 80.28367 47.08482
# Shear Modulus (GPa) = 19.95518 36.30345 28.12932
#
# Velocity S-wave (km/s) = 3.22410 4.34865 3.82790
# Velocity P-wave (km/s) = 4.59272 8.18748 6.63807
#
# Compressibility (1/GPa) = 0.07201515
#
# Stress axis : x y z
#
# Youngs Moduli (GPa) = 13.89664 130.42228 120.74043
#
# Poissons Ratio (x) = 0.44774 -0.05322
# Poissons Ratio (y) = 0.04771 0.59826
# Poissons Ratio (z) = -0.00613 0.64623
#
# Static dielectric constant tensor:
#      x y z
#    x 1.673610 0.000000 0.000000 
#    y 0.000000 1.677730 0.000000 
#    z 0.000000 0.000000 1.641740 
# 
# From -- ./inp_files/73750.got.cif
#   From: 2010.05.17/outbox.cif.g08.bks.cpg/sg74_37_cif.got.tgz:73750.got - 2010.06.03 17:57:02.
