data_PCOD9533139
_publ_section_title
;
Structure prediction by ZEFSAII (Michael W. Deem and Ramdas Pophale) SiO2 
 PCOD9533139
Probable space group: I B C A 
;
_chemical_formula_sum "Si O2"
_cell_formula_units_Z 112
_cell_length_a 14.052133
_cell_length_b 14.641750
_cell_length_c 27.298539
_cell_angle_alpha 90.000000
_cell_angle_beta 90.000000
_cell_angle_gamma 90.000000
_cell_volume 5616.614843
_symmetry_space_group_name_H-M "I B C A "
_symmetry_group_IT_number 73
_symmetry_cell_setting 'orthorhombic'
loop_
_space_group_symop_operation_xyz
x,y,z
-x,1/2-y,z
x,-y,1/2-z
1/2-x,y,-z
-x,-y,-z
x,1/2+y,-z
-x,y,1/2+z
1/2+x,-y,z
1/2+x,1/2+y,1/2+z
1/2-x,-y,1/2+z
1/2+x,1/2-y,-z
-x,1/2+y,1/2-z
1/2-x,1/2-y,1/2-z
1/2+x,y,1/2-z
1/2-x,1/2+y,z
x,1/2-y,1/2+z
loop_
_atom_site_type_symbol
_atom_site_label
_atom_site_fract_x
_atom_site_fract_y
_atom_site_fract_z
Si Si1 0.644656 0.243497 0.729062
Si Si2 0.702026 0.402557 0.947941
Si Si3 0.928763 0.836091 0.367737
Si Si4 0.986026 0.357707 0.527665
Si Si5 0.676745 0.607923 0.957532
Si Si6 0.725776 0.747566 0.875345
Si Si7 0.499654 0.398034 0.268029
O O1 0.750000 0.250000 0.750000
O O2 0.656113 0.242373 0.670498
O O3 0.584191 0.328003 0.751911
O O4 0.591783 0.150814 0.744577
O O5 0.590566 0.389639 0.958034
O O6 0.713651 0.510200 0.938755
O O7 0.741348 0.338727 0.904578
O O8 0.750000 0.379244 0.000000
O O9 0.925838 0.873713 0.422727
O O10 0.823477 0.799911 0.356347
O O11 0.000000 0.750000 0.370222
O O12 0.975884 0.897699 0.325918
O O13 0.926724 0.399756 0.483085
O O14 0.000000 0.250000 0.517460
O O15 0.678352 0.681599 0.915098
O O16 0.750000 0.638883 0.000000
O O17 0.482014 0.500000 0.250000
#
# Coordination Sequence:
#
# PCOD9533139 Si02
#       7
#    16  16  16  16  16  16  16
#     4  11  24  46  69  99 134 175 228 284 334 410
#     4  11  24  40  61  95 129 173 222 273 325 401
#     4  11  19  39  72  88 122 178 222 260 327 414
#     4  11  20  38  67  90 123 178 218 262 332 395
#     4  11  23  40  62  95 135 166 222 273 328 399
#     4  12  22  42  67  92 132 180 219 279 340 391
#     4  11  25  46  69 100 137 171 221 284 349 412
#
# _framework density 19.940836999999998
#
# number of rings (size 3 to 8) (size 9 to 14) (size 15 to 20)
#    0.000    0.857    7.143    1.714    0.000    2.857 
#    7.714    0.000    0.000    0.000    0.000    0.000 
#    0.000    0.000    0.000    0.000    0.000    0.000 
#
# Total GULP energy -312718.571110 kJ/mol
# GULP energy per Si atom -5584.260198 kJ/mol
# Density = 1.989545 g / cm^3
# Si number density = 19.940837 Si / 1000 Ang^3
#
#
#
# Elastic Constant Matrix: (Units=GPa)
#
#
# Indices 1 2 3 4 5 6 
#
# 1 66.2219 7.1423 17.3799 0.0000 0.0000 0.0000
# 2 7.1423 96.6116 48.8908 0.0000 0.0000 0.0000
# 3 17.3799 48.8908 106.2215 0.0000 0.0000 0.0000
# 4 0.0000 0.0000 0.0000 132.2964 0.0000 0.0000
# 5 0.0000 0.0000 0.0000 0.0000 33.8124 0.0000
# 6 0.0000 0.0000 0.0000 0.0000 0.0000 16.6924
#
#
#
# Elastic Compliance Matrix: (Units=1/GPa)
#
#
# Indices 1 2 3 4 5 6 
#
# 1 0.015781 0.000183 -0.002666 0.000000 0.000000 0.000000
# 2 0.000183 0.013496 -0.006242 0.000000 0.000000 0.000000
# 3 -0.002666 -0.006242 0.012723 0.000000 0.000000 0.000000
# 4 0.000000 0.000000 0.000000 0.007559 0.000000 0.000000
# 5 0.000000 0.000000 0.000000 0.000000 0.029575 0.000000
# 6 0.000000 0.000000 0.000000 0.000000 0.000000 0.059908
#
#
# Mechanical properties :
#
#
# Convention : Reuss Voigt Hill
#
# Bulk Modulus (GPa) = 40.73376 46.20899 43.47137
# Shear Modulus (GPa) = 30.36287 49.60305 39.98296
#
# Velocity S-wave (km/s) = 3.90635 4.99291 4.48267
# Velocity P-wave (km/s) = 6.38887 7.51413 6.97423
#
# Compressibility (1/GPa) = 0.02454966
#
# Stress axis : x y z
#
# Youngs Moduli (GPa) = 63.36835 74.09698 78.59565
#
# Poissons Ratio (x) = -0.01353 0.20954
# Poissons Ratio (y) = -0.01157 0.49056
# Poissons Ratio (z) = 0.16894 0.46249
#
# Static dielectric constant tensor:
#      x y z
#    x 1.572660 0.000000 0.000000 
#    y 0.000000 1.707290 0.000000 
#    z 0.000000 0.000000 1.760940 
# 
# From -- ./inp_files/32157.got.cif
#   From: 2010.05.17/outbox.cif.g08.bks.cpg/sg73_17_cif.got.tgz:32157.got - 2010.06.03 17:35:07.
