data_PCOD9533741
_publ_section_title
;
Structure prediction by ZEFSAII (Michael W. Deem and Ramdas Pophale) SiO2 
 PCOD9533741
Probable space group: I B C A 
;
_chemical_formula_sum "Si O2"
_cell_formula_units_Z 32
_cell_length_a 18.000000
_cell_length_b 30.000000
_cell_length_c 6.000000
_cell_angle_alpha 90.000000
_cell_angle_beta 90.000000
_cell_angle_gamma 90.000000
_cell_volume 3240.000000
_symmetry_space_group_name_H-M "I B C A "
_symmetry_group_IT_number 73
_symmetry_cell_setting 'orthorhombic'
loop_
_space_group_symop_operation_xyz
x,y,z
-x,1/2-y,z
x,-y,1/2-z
1/2-x,y,-z
-x,-y,-z
x,1/2+y,-z
-x,y,1/2+z
1/2+x,-y,z
1/2+x,1/2+y,1/2+z
1/2-x,-y,1/2+z
1/2+x,1/2-y,-z
-x,1/2+y,1/2-z
1/2-x,1/2-y,1/2-z
1/2+x,y,1/2-z
1/2-x,1/2+y,z
x,1/2-y,1/2+z
loop_
_atom_site_type_symbol
_atom_site_label
_atom_site_fract_x
_atom_site_fract_y
_atom_site_fract_z
Si Si1 0.674581 0.630868 0.856298
Si Si2 0.639459 0.500000 0.250000
Si Si3 0.457265 0.070799 0.473301
Si Si4 0.750000 0.932657 0.000000
Si Si5 0.163632 0.766152 0.247531
O O1 0.698317 0.597793 0.657152
O O2 0.657017 0.680301 0.766882
O O3 0.750000 0.635014 0.000000
O O4 0.606332 0.609042 0.995105
O O5 0.587977 0.475632 0.435862
O O6 0.693955 0.536540 0.358507
O O7 0.500843 0.073515 0.721090
O O8 0.250000 0.750000 0.250000
O O9 0.134937 0.751036 0.498576
#
# Coordination Sequence:
#
# PCOD9533741 Si02
#       5
#    16   8  16   8  16
#     4  12  24  43  72 102 138 177 232 297 349 411
#     4  12  24  44  70  96 140 186 248 298 360 412
#     4  12  28  48  67  98 141 193 234 282 353 429
#     4  12  24  42  68 112 134 176 242 322 354 400
#     4  10  20  36  65 106 132 165 214 284 343 413
#
# _framework density 9.8765429999999999
#
# number of rings (size 3 to 8) (size 9 to 14) (size 15 to 20)
#    0.000    0.500    5.000    5.250    0.000    2.000 
#    0.000    0.000    0.000    4.500    0.000    0.000 
#    0.000    0.000    0.000    0.000    0.000    0.000 
#
# Total GULP energy -178414.223722 kJ/mol
# GULP energy per Si atom -5575.444491 kJ/mol
# Density = 0.985406 g / cm^3
# Si number density = 9.876543 Si / 1000 Ang^3
#
#
#
# Elastic Constant Matrix: (Units=GPa)
#
#
# Indices 1 2 3 4 5 6 
#
# 1 80.4633 42.3779 46.5738 -0.0005 -0.0004 0.0002
# 2 42.3779 168.6958 71.4966 -0.0007 0.0004 -0.0003
# 3 46.5738 71.4966 187.6206 0.0010 0.0081 -0.0032
# 4 -0.0005 -0.0007 0.0010 51.6424 -0.0005 -0.0002
# 5 -0.0004 0.0004 0.0081 -0.0005 51.2679 -0.0002
# 6 0.0002 -0.0003 -0.0032 -0.0002 -0.0002 18.5379
#
#
#
# Elastic Compliance Matrix: (Units=1/GPa)
#
#
# Indices 1 2 3 4 5 6 
#
# 1 0.015477 -0.002695 -0.002815 0.000000 0.000001 -0.000001
# 2 -0.002695 0.007539 -0.002204 0.000000 0.000000 0.000000
# 3 -0.002815 -0.002204 0.006868 0.000000 -0.000001 0.000001
# 4 0.000000 0.000000 0.000000 0.019364 0.000000 0.000000
# 5 0.000001 0.000000 -0.000001 0.000000 0.019505 0.000000
# 6 -0.000001 0.000000 0.000001 0.000000 0.000000 0.053944
#
#
# Mechanical properties :
#
#
# Convention : Reuss Voigt Hill
#
# Bulk Modulus (GPa) = 69.17197 84.18626 76.67912
# Shear Modulus (GPa) = 34.97894 42.71173 38.84533
#
# Velocity S-wave (km/s) = 4.21266 4.65508 4.43939
# Velocity P-wave (km/s) = 7.66527 8.46196 8.07345
#
# Compressibility (1/GPa) = 0.01445672
#
# Stress axis : x y z
#
# Youngs Moduli (GPa) = 64.61341 132.64624 145.59239
#
# Poissons Ratio (x) = 0.35746 0.40983
# Poissons Ratio (y) = 0.17412 0.32087
# Poissons Ratio (z) = 0.18188 0.29234
#
# Static dielectric constant tensor:
#      x y z
#    x 1.714690 0.000000 0.000000 
#    y 0.000000 1.698430 0.000000 
#    z 0.000000 0.000000 1.770180 
# 
# From -- ./inp_files/1160.got.cif
#   From: 2010.05.17/outbox.ucp.g08.bks.cvg/sg73_1_cif.got.tgz:1160.got - 2010.06.11 16:36:03.
