data_PCOD9533502
_publ_section_title
;
Structure prediction by ZEFSAII (Michael W. Deem and Ramdas Pophale) SiO2 
 PCOD9533502
Probable space group: I B C A 
;
_chemical_formula_sum "Si O2"
_cell_formula_units_Z 64
_cell_length_a 10.088359
_cell_length_b 15.326103
_cell_length_c 17.705718
_cell_angle_alpha 90.000000
_cell_angle_beta 90.000000
_cell_angle_gamma 90.000000
_cell_volume 2737.573646
_symmetry_space_group_name_H-M "I B C A "
_symmetry_group_IT_number 73
_symmetry_cell_setting 'orthorhombic'
loop_
_space_group_symop_operation_xyz
x,y,z
-x,1/2-y,z
x,-y,1/2-z
1/2-x,y,-z
-x,-y,-z
x,1/2+y,-z
-x,y,1/2+z
1/2+x,-y,z
1/2+x,1/2+y,1/2+z
1/2-x,-y,1/2+z
1/2+x,1/2-y,-z
-x,1/2+y,1/2-z
1/2-x,1/2-y,1/2-z
1/2+x,y,1/2-z
1/2-x,1/2+y,z
x,1/2-y,1/2+z
loop_
_atom_site_type_symbol
_atom_site_label
_atom_site_fract_x
_atom_site_fract_y
_atom_site_fract_z
Si Si1 0.648159 0.655425 0.822657
Si Si2 0.376449 0.403488 0.717278
Si Si3 0.400135 0.927153 0.967044
Si Si4 0.856035 0.178078 0.433863
O O1 0.512268 0.650438 0.777211
O O2 0.768843 0.644429 0.767790
O O3 0.631119 0.571191 0.877724
O O4 0.659444 0.738374 0.878252
O O5 0.392582 0.500000 0.750000
O O6 0.337982 0.399175 0.628412
O O7 0.500380 0.843397 0.971575
O O8 0.250000 0.921884 0.000000
O O9 0.500000 0.000000 0.000000
O O10 0.750000 0.179546 0.500000
#
# Coordination Sequence:
#
# PCOD9533502 Si02
#       4
#    16  16  16  16
#     4  11  26  48  76 112 153 209 260 319 399 472
#     4  11  25  46  76 112 157 204 266 323 393 475
#     4  11  25  43  74 108 154 197 251 324 389 467
#     4  11  26  51  77 113 154 203 265 325 397 474
#
# _framework density 23.378364999999999
#
# number of rings (size 3 to 8) (size 9 to 14) (size 15 to 20)
#    0.000    1.000    0.000    6.000   10.500    2.000 
#    0.000    6.250    0.000    0.000    0.000    0.000 
#    0.000    0.000    0.000    0.000    0.000    0.000 
#
# Total GULP energy -178445.308277 kJ/mol
# GULP energy per Si atom -5576.415884 kJ/mol
# Density = 2.332516 g / cm^3
# Si number density = 23.378365 Si / 1000 Ang^3
#
#
#
# Elastic Constant Matrix: (Units=GPa)
#
#
# Indices 1 2 3 4 5 6 
#
# 1 271.4451 66.8601 128.0824 0.0000 0.0000 0.0000
# 2 66.8601 144.0166 70.1934 0.0000 0.0000 0.0000
# 3 128.0824 70.1934 128.8553 0.0000 0.0000 0.0000
# 4 0.0000 0.0000 0.0000 44.4291 0.0000 0.0000
# 5 0.0000 0.0000 0.0000 0.0000 68.8415 0.0000
# 6 0.0000 0.0000 0.0000 0.0000 0.0000 29.4001
#
#
#
# Elastic Compliance Matrix: (Units=1/GPa)
#
#
# Indices 1 2 3 4 5 6 
#
# 1 0.006942 0.000191 -0.007004 0.000000 0.000000 0.000000
# 2 0.000191 0.009459 -0.005343 0.000000 0.000000 0.000000
# 3 -0.007004 -0.005343 0.017634 0.000000 0.000000 0.000000
# 4 0.000000 0.000000 0.000000 0.022508 0.000000 0.000000
# 5 0.000000 0.000000 0.000000 0.000000 0.014526 0.000000
# 6 0.000000 0.000000 0.000000 0.000000 0.000000 0.034014
#
#
# Mechanical properties :
#
#
# Convention : Reuss Voigt Hill
#
# Bulk Modulus (GPa) = 102.85570 119.39876 111.12723
# Shear Modulus (GPa) = 37.69750 47.14620 42.42185
#
# Velocity S-wave (km/s) = 4.01994 4.49559 4.26441
# Velocity P-wave (km/s) = 8.10174 8.83914 8.47846
#
# Compressibility (1/GPa) = 0.00972236
#
# Stress axis : x y z
#
# Youngs Moduli (GPa) = 144.05075 105.72011 56.71013
#
# Poissons Ratio (x) = -0.02021 0.39722
# Poissons Ratio (y) = -0.02753 0.30299
# Poissons Ratio (z) = 1.00900 0.56483
#
# Static dielectric constant tensor:
#      x y z
#    x 1.940870 0.000000 0.000000 
#    y 0.000000 2.083020 0.000000 
#    z 0.000000 0.000000 1.881260 
# 
# From -- ./inp_files/21046.got.cif
#   From: 2010.05.17/outbox.cif.g08.bks.cpg/sg73_11_cif.got.tgz:21046.got - 2010.06.03 17:35:07.
