data_PCOD9533948
_publ_section_title
;
Structure prediction by ZEFSAII (Michael W. Deem and Ramdas Pophale) SiO2 
 PCOD9533948
Probable space group: I M M A
;
_chemical_formula_sum "Si O2"
_cell_formula_units_Z 72
_cell_length_a 23.957524
_cell_length_b 8.438089
_cell_length_c 24.089007
_cell_angle_alpha 90.000000
_cell_angle_beta 90.000000
_cell_angle_gamma 90.000000
_cell_volume 4869.730548
_symmetry_space_group_name_H-M "I M M A"
_symmetry_group_IT_number 74
_symmetry_cell_setting 'orthorhombic'
loop_
_space_group_symop_operation_xyz
x,y,z
-x,1/2-y,z
x,-y,-z
-x,1/2+y,-z
-x,-y,-z
x,1/2+y,-z
-x,y,z
x,1/2-y,z
1/2+x,1/2+y,1/2+z
1/2-x,-y,1/2+z
1/2+x,1/2-y,1/2-z
1/2-x,y,1/2-z
1/2-x,1/2-y,1/2-z
1/2+x,y,1/2-z
1/2-x,1/2+y,1/2+z
1/2+x,-y,1/2+z
loop_
_atom_site_type_symbol
_atom_site_label
_atom_site_fract_x
_atom_site_fract_y
_atom_site_fract_z
Si Si1 0.596982 0.559846 0.358378
Si Si2 0.292536 0.563688 0.678954
Si Si3 0.561883 0.056922 0.766994
Si Si4 0.678903 0.437227 0.800614
Si Si5 0.000000 0.561128 0.937306
O O1 0.600070 0.750000 0.359229
O O2 0.659098 0.488499 0.363022
O O3 0.573428 0.511721 0.297292
O O4 0.554144 0.501428 0.404404
O O5 0.296729 0.750000 0.690365
O O6 0.306951 0.468983 0.735609
O O7 0.228420 0.521398 0.665857
O O8 0.500000 0.003306 0.783364
O O9 0.562352 0.250000 0.767865
O O10 0.614745 0.005762 0.804098
O O11 0.681493 0.250000 0.811285
O O12 0.000000 0.750000 0.936567
O O13 0.000000 0.500000 0.000000
#
# Coordination Sequence:
#
# PCOD9533948 Si02
#       5
#    16  16  16  16   8
#     4  10  18  31  47  59  74  98 130 165 204 245
#     4  10  17  25  37  54  76  97 124 162 201 238
#     4   8  13  22  38  57  75  99 132 165 196 233
#     4   9  15  23  36  53  74 101 131 161 196 236
#     4  12  24  36  48  64  82 102 130 166 210 250
#
# _framework density 14.785212
#
# number of rings (size 3 to 8) (size 9 to 14) (size 15 to 20)
#    0.000    2.444    1.111    7.000    0.000    0.000 
#    0.000    0.000    0.000    0.000    0.000    0.000 
#    0.000    0.000    0.000    0.000    0.000    1.111 
#
# Total GULP energy -200404.269838 kJ/mol
# GULP energy per Si atom -5566.785273 kJ/mol
# Density = 1.475156 g / cm^3
# Si number density = 14.785212 Si / 1000 Ang^3
#
#
#
# Elastic Constant Matrix: (Units=GPa)
#
#
# Indices 1 2 3 4 5 6 
#
# 1 168.5570 19.5387 35.7524 0.0000 0.0000 0.0000
# 2 19.5387 36.7934 8.8799 0.0000 0.0000 0.0000
# 3 35.7524 8.8799 27.9618 0.0000 0.0000 0.0000
# 4 0.0000 0.0000 0.0000 10.7383 0.0000 0.0000
# 5 0.0000 0.0000 0.0000 0.0000 10.1446 0.0000
# 6 0.0000 0.0000 0.0000 0.0000 0.0000 18.0262
#
#
#
# Elastic Compliance Matrix: (Units=1/GPa)
#
#
# Indices 1 2 3 4 5 6 
#
# 1 0.008273 -0.001993 -0.009945 0.000000 0.000000 0.000000
# 2 -0.001993 0.029915 -0.006952 0.000000 0.000000 0.000000
# 3 -0.009945 -0.006952 0.050687 0.000000 0.000000 0.000000
# 4 0.000000 0.000000 0.000000 0.093124 0.000000 0.000000
# 5 0.000000 0.000000 0.000000 0.000000 0.098575 0.000000
# 6 0.000000 0.000000 0.000000 0.000000 0.000000 0.055475
#
#
# Mechanical properties :
#
#
# Convention : Reuss Voigt Hill
#
# Bulk Modulus (GPa) = 19.57144 40.18381 29.87763
# Shear Modulus (GPa) = 12.79226 19.05789 15.92508
#
# Velocity S-wave (km/s) = 2.94463 3.59414 3.28547
# Velocity P-wave (km/s) = 4.98267 6.66792 5.88592
#
# Compressibility (1/GPa) = 0.05109485
#
# Stress axis : x y z
#
# Youngs Moduli (GPa) = 120.87155 33.42803 19.72892
#
# Poissons Ratio (x) = 0.06663 0.19621
# Poissons Ratio (y) = 0.24092 0.13715
# Poissons Ratio (z) = 1.20211 0.23238
#
# Static dielectric constant tensor:
#      x y z
#    x 1.578650 0.000000 0.000000 
#    y 0.000000 1.493260 0.000000 
#    z 0.000000 0.000000 1.437760 
# 
# From -- ./inp_files/57132.got.cif
#   From: 2010.05.17/outbox.cif.g08.bks.cpg/sg74_29_cif.got.tgz:57132.got - 2010.06.03 17:57:02.
