data_PCOD9533847
_publ_section_title
;
Structure prediction by ZEFSAII (Michael W. Deem and Ramdas Pophale) SiO2 
 PCOD9533847
Probable space group: I M M A
;
_chemical_formula_sum "Si O2"
_cell_formula_units_Z 128
_cell_length_a 21.164243
_cell_length_b 25.047997
_cell_length_c 18.507683
_cell_angle_alpha 90.000000
_cell_angle_beta 90.000000
_cell_angle_gamma 90.000000
_cell_volume 9811.327987
_symmetry_space_group_name_H-M "I M M A"
_symmetry_group_IT_number 74
_symmetry_cell_setting 'orthorhombic'
loop_
_space_group_symop_operation_xyz
x,y,z
-x,1/2-y,z
x,-y,-z
-x,1/2+y,-z
-x,-y,-z
x,1/2+y,-z
-x,y,z
x,1/2-y,z
1/2+x,1/2+y,1/2+z
1/2-x,-y,1/2+z
1/2+x,1/2-y,1/2-z
1/2-x,y,1/2-z
1/2-x,1/2-y,1/2-z
1/2+x,y,1/2-z
1/2-x,1/2+y,1/2+z
1/2+x,-y,1/2+z
loop_
_atom_site_type_symbol
_atom_site_label
_atom_site_fract_x
_atom_site_fract_y
_atom_site_fract_z
Si Si1 0.804291 0.687632 0.690313
Si Si2 0.890140 0.310526 0.070657
Si Si3 0.429394 0.458473 0.335570
Si Si4 0.069390 0.085173 0.000262
Si Si5 0.204336 0.446003 0.953506
Si Si6 0.764297 0.880393 0.915929
Si Si7 0.069221 0.660899 0.774054
Si Si8 0.708956 0.012433 0.322209
O O1 0.796386 0.750000 0.672526
O O2 0.750000 0.674321 0.750000
O O3 0.792945 0.650333 0.621349
O O4 0.872165 0.677889 0.725640
O O5 0.884505 0.250000 0.044677
O O6 0.925450 0.351950 0.018382
O O7 0.822565 0.338804 0.084832
O O8 0.924057 0.311276 0.148085
O O9 0.500000 0.481207 0.324244
O O10 0.423980 0.443822 0.421241
O O11 0.426929 0.401959 0.293437
O O12 0.366999 0.489896 0.311901
O O13 0.000000 0.071802 0.971201
O O14 0.130055 0.069428 0.953933
O O15 0.226870 0.463196 0.874669
O O16 0.208636 0.500000 0.000000
O O17 0.239902 0.401971 0.002081
O O18 0.780068 0.931805 0.865815
O O19 0.000000 0.672461 0.743065
O O20 0.750000 0.013245 0.250000
#
# Coordination Sequence:
#
# PCOD9533847 Si02
#       8
#    16  16  16  16  16  16  16  16
#     4  11  19  26  38  56  77 107 140 163 190 225
#     4  10  16  24  36  52  79 113 140 155 175 215
#     4   9  15  25  39  56  78 108 136 159 192 233
#     4   9  16  25  37  54  80 108 134 159 185 226
#     4   9  17  28  38  56  74  99 133 167 201 241
#     4  10  17  28  40  54  77 104 135 169 191 228
#     4  10  18  26  34  52  81 110 138 166 189 216
#     4  11  18  28  43  58  78 101 133 175 212 236
#
# _framework density 13.046144
#
# number of rings (size 3 to 8) (size 9 to 14) (size 15 to 20)
#    0.000    2.125    6.250    3.000    0.000    2.500 
#    0.000    0.000    0.000    0.000    0.000    0.875 
#    0.000   17.500    0.000    0.000    0.000    0.750 
#
# Total GULP energy -356435.224372 kJ/mol
# GULP energy per Si atom -5569.300381 kJ/mol
# Density = 1.301645 g / cm^3
# Si number density = 13.046144 Si / 1000 Ang^3
#
#
#
# Elastic Constant Matrix: (Units=GPa)
#
#
# Indices 1 2 3 4 5 6 
#
# 1 57.7577 19.7617 23.4932 0.0000 0.0000 0.0000
# 2 19.7617 45.5855 23.9168 0.0000 0.0000 0.0000
# 3 23.4932 23.9168 40.7112 0.0000 0.0000 0.0000
# 4 0.0000 0.0000 0.0000 12.0806 0.0000 0.0000
# 5 0.0000 0.0000 0.0000 0.0000 8.4519 0.0000
# 6 0.0000 0.0000 0.0000 0.0000 0.0000 -0.6791
#
#
#
# Elastic Compliance Matrix: (Units=1/GPa)
#
#
# Indices 1 2 3 4 5 6 
#
# 1 0.023216 -0.004388 -0.010819 0.000000 0.000000 0.000000
# 2 -0.004388 0.032540 -0.016584 0.000000 0.000000 0.000000
# 3 -0.010819 -0.016584 0.040550 0.000000 0.000000 0.000000
# 4 0.000000 0.000000 0.000000 0.082778 0.000000 0.000000
# 5 0.000000 0.000000 0.000000 0.000000 0.118316 0.000000
# 6 0.000000 0.000000 0.000000 0.000000 0.000000 -1.472448
#
#
# Mechanical properties :
#
#
# Convention : Reuss Voigt Hill
#
# Bulk Modulus (GPa) = 30.56012 30.93311 30.74661
# Shear Modulus (GPa) = -4.54315 9.09618 2.27651
#
# Velocity S-wave (km/s) = -1.86814 2.64338 1.32241
# Velocity P-wave (km/s) = 4.33846 5.75140 5.09416
#
# Compressibility (1/GPa) = 0.03272238
#
# Stress axis : x y z
#
# Youngs Moduli (GPa) = 43.07403 30.73129 24.66102
#
# Poissons Ratio (x) = 0.13484 0.26682
# Poissons Ratio (y) = 0.18900 0.40899
# Poissons Ratio (z) = 0.46604 0.50966
#
# Static dielectric constant tensor:
#      x y z
#    x 1.453800 0.000000 0.000000 
#    y 0.000000 1.453770 0.000000 
#    z 0.000000 0.000000 1.414340 
# 
# From -- ./inp_files/53481.got.cif
#   From: 2010.05.17/outbox.cif.g08.bks.cpg/sg74_27_cif.got.tgz:53481.got - 2010.06.03 17:57:02.
