data_PCOD9533597
_publ_section_title
;
Structure prediction by ZEFSAII (Michael W. Deem and Ramdas Pophale) SiO2 
 PCOD9533597
Probable space group: I B C A 
;
_chemical_formula_sum "Si O2"
_cell_formula_units_Z 72
_cell_length_a 16.453247
_cell_length_b 17.827259
_cell_length_c 9.015005
_cell_angle_alpha 90.000000
_cell_angle_beta 90.000000
_cell_angle_gamma 90.000000
_cell_volume 2644.247872
_symmetry_space_group_name_H-M "I B C A "
_symmetry_group_IT_number 73
_symmetry_cell_setting 'orthorhombic'
loop_
_space_group_symop_operation_xyz
x,y,z
-x,1/2-y,z
x,-y,1/2-z
1/2-x,y,-z
-x,-y,-z
x,1/2+y,-z
-x,y,1/2+z
1/2+x,-y,z
1/2+x,1/2+y,1/2+z
1/2-x,-y,1/2+z
1/2+x,1/2-y,-z
-x,1/2+y,1/2-z
1/2-x,1/2-y,1/2-z
1/2+x,y,1/2-z
1/2-x,1/2+y,z
x,1/2-y,1/2+z
loop_
_atom_site_type_symbol
_atom_site_label
_atom_site_fract_x
_atom_site_fract_y
_atom_site_fract_z
Si Si1 0.938124 0.110695 0.281158
Si Si2 0.416013 0.953537 0.964132
Si Si3 0.682940 0.424982 0.786516
Si Si4 0.331590 0.207176 0.008312
Si Si5 0.000000 0.750000 0.877318
O O1 0.911124 0.064749 0.136403
O O2 0.863643 0.154731 0.356498
O O3 0.995110 0.065592 0.397049
O O4 0.996935 0.175429 0.218743
O O5 0.616724 0.968598 0.107567
O O6 0.353961 0.901452 0.870573
O O7 0.737894 0.500000 0.750000
O O8 0.697063 0.351496 0.879852
O O9 0.415455 0.247944 0.965319
O O10 0.250000 0.257187 0.000000
#
# Coordination Sequence:
#
# PCOD9533597 Si02
#       5
#    16  16  16  16   8
#     4  12  22  41  72 102 137 190 246 298 365 425
#     4   9  20  38  68 105 134 185 245 291 357 444
#     4   8  20  43  66 102 146 183 244 295 361 444
#     4  12  27  47  71 108 149 188 246 306 361 435
#     4  12  24  48  74 100 140 200 248 298 368 426
#
# _framework density 27.228914
#
# number of rings (size 3 to 8) (size 9 to 14) (size 15 to 20)
#    1.333    0.000    4.444    0.667    0.000    9.778 
#    4.000    1.111    0.000    0.000    0.000    0.000 
#    0.000    0.000    0.000    0.000    0.000    0.000 
#
# Total GULP energy -200746.414433 kJ/mol
# GULP energy per Si atom -5576.289290 kJ/mol
# Density = 2.716694 g / cm^3
# Si number density = 27.228914 Si / 1000 Ang^3
#
#
#
# Elastic Constant Matrix: (Units=GPa)
#
#
# Indices 1 2 3 4 5 6 
#
# 1 176.0486 24.5211 39.5297 0.0000 0.0000 0.0000
# 2 24.5211 67.7409 10.0874 0.0000 0.0000 0.0000
# 3 39.5297 10.0874 120.2812 0.0000 0.0000 0.0000
# 4 0.0000 0.0000 0.0000 27.4249 0.0000 0.0000
# 5 0.0000 0.0000 0.0000 0.0000 3.6647 0.0000
# 6 0.0000 0.0000 0.0000 0.0000 0.0000 8.2710
#
#
#
# Elastic Compliance Matrix: (Units=1/GPa)
#
#
# Indices 1 2 3 4 5 6 
#
# 1 0.006397 -0.002028 -0.001932 0.000000 0.000000 0.000000
# 2 -0.002028 0.015592 -0.000641 0.000000 0.000000 0.000000
# 3 -0.001932 -0.000641 0.009003 0.000000 0.000000 0.000000
# 4 0.000000 0.000000 0.000000 0.036463 0.000000 0.000000
# 5 0.000000 0.000000 0.000000 0.000000 0.272871 0.000000
# 6 0.000000 0.000000 0.000000 0.000000 0.000000 0.120904
#
#
# Mechanical properties :
#
#
# Convention : Reuss Voigt Hill
#
# Bulk Modulus (GPa) = 45.89543 56.92745 51.41144
# Shear Modulus (GPa) = 10.46696 27.20095 18.83396
#
# Velocity S-wave (km/s) = 1.96276 3.16408 2.63285
# Velocity P-wave (km/s) = 4.69346 5.85670 5.30705
#
# Compressibility (1/GPa) = 0.02178866
#
# Stress axis : x y z
#
# Youngs Moduli (GPa) = 156.33504 64.13702 111.07892
#
# Poissons Ratio (x) = 0.13005 0.21462
# Poissons Ratio (y) = 0.31700 0.07122
# Poissons Ratio (z) = 0.30206 0.04112
#
# Static dielectric constant tensor:
#      x y z
#    x 2.217750 0.000000 0.000000 
#    y 0.000000 2.258780 0.000000 
#    z 0.000000 0.000000 2.180590 
# 
# From -- ./inp_files/5529.got.cif
#   From: 2010.05.17/outbox.cif.g08.bks.cpg/sg73_3_cif.got.tgz:5529.got - 2010.06.03 17:35:07.
