data_PCOD9533358
_publ_section_title
;
Structure prediction by ZEFSAII (Michael W. Deem and Ramdas Pophale) SiO2 
 PCOD9533358
Probable space group: I B C A 
;
_chemical_formula_sum "Si O2"
_cell_formula_units_Z 96
_cell_length_a 21.635806
_cell_length_b 9.241348
_cell_length_c 24.298951
_cell_angle_alpha 90.000000
_cell_angle_beta 90.000000
_cell_angle_gamma 90.000000
_cell_volume 4858.429763
_symmetry_space_group_name_H-M "I B C A "
_symmetry_group_IT_number 73
_symmetry_cell_setting 'orthorhombic'
loop_
_space_group_symop_operation_xyz
x,y,z
-x,1/2-y,z
x,-y,1/2-z
1/2-x,y,-z
-x,-y,-z
x,1/2+y,-z
-x,y,1/2+z
1/2+x,-y,z
1/2+x,1/2+y,1/2+z
1/2-x,-y,1/2+z
1/2+x,1/2-y,-z
-x,1/2+y,1/2-z
1/2-x,1/2-y,1/2-z
1/2+x,y,1/2-z
1/2-x,1/2+y,z
x,1/2-y,1/2+z
loop_
_atom_site_type_symbol
_atom_site_label
_atom_site_fract_x
_atom_site_fract_y
_atom_site_fract_z
Si Si1 0.819446 0.936639 0.189128
Si Si2 0.765978 0.774870 0.364446
Si Si3 0.562105 0.843435 0.876574
Si Si4 0.837257 0.202992 0.956084
Si Si5 0.993296 0.579550 0.441974
Si Si6 0.145753 0.115329 0.064800
O O1 0.774121 0.798924 0.183362
O O2 0.887247 0.883423 0.169537
O O3 0.821789 0.000000 0.250000
O O4 0.790605 0.065088 0.150269
O O5 0.721154 0.756165 0.417953
O O6 0.823325 0.674848 0.380519
O O7 0.500000 0.750000 0.863022
O O8 0.602124 0.756184 0.922378
O O9 0.539472 0.995921 0.902021
O O10 0.828103 0.032024 0.960000
O O11 0.846070 0.267993 0.016452
O O12 0.923656 0.570408 0.421520
O O13 0.000000 0.750000 0.449732
O O14 0.000000 0.500000 0.500000
#
# Coordination Sequence:
#
# PCOD9533358 Si02
#       6
#    16  16  16  16  16  16
#     4  11  25  47  72  95 125 172 227 288 343 387
#     4  11  24  43  65  96 133 169 220 276 333 397
#     4  11  23  44  65  93 133 174 220 272 334 394
#     4  11  24  37  61  94 136 179 207 261 319 402
#     4  12  22  36  58  93 135 177 217 258 316 400
#     4  12  23  37  61  96 135 175 214 253 323 395
#
# _framework density 19.75947
#
# number of rings (size 3 to 8) (size 9 to 14) (size 15 to 20)
#    0.000    0.667    5.000    3.500    4.667    1.333 
#    0.000    2.500    0.000    0.000    0.000    0.000 
#    0.000    0.000    0.000    0.000    0.000    0.000 
#
# Total GULP energy -267893.124799 kJ/mol
# GULP energy per Si atom -5581.106767 kJ/mol
# Density = 1.971450 g / cm^3
# Si number density = 19.759470 Si / 1000 Ang^3
#
#
#
# Elastic Constant Matrix: (Units=GPa)
#
#
# Indices 1 2 3 4 5 6 
#
# 1 118.8755 16.6683 22.1593 0.0000 0.0000 0.0000
# 2 16.6683 110.6608 -4.9695 0.0000 0.0000 0.0000
# 3 22.1593 -4.9695 38.6534 0.0000 0.0000 0.0000
# 4 0.0000 0.0000 0.0000 25.3375 0.0000 0.0000
# 5 0.0000 0.0000 0.0000 0.0000 25.8487 0.0000
# 6 0.0000 0.0000 0.0000 0.0000 0.0000 38.6218
#
#
#
# Elastic Compliance Matrix: (Units=1/GPa)
#
#
# Indices 1 2 3 4 5 6 
#
# 1 0.009736 -0.001727 -0.005804 0.000000 0.000000 0.000000
# 2 -0.001727 0.009395 0.002198 0.000000 0.000000 0.000000
# 3 -0.005804 0.002198 0.029481 0.000000 0.000000 0.000000
# 4 0.000000 0.000000 0.000000 0.039467 0.000000 0.000000
# 5 0.000000 0.000000 0.000000 0.000000 0.038687 0.000000
# 6 0.000000 0.000000 0.000000 0.000000 0.000000 0.025892
#
#
# Mechanical properties :
#
#
# Convention : Reuss Voigt Hill
#
# Bulk Modulus (GPa) = 26.35260 37.32289 31.83774
# Shear Modulus (GPa) = 28.41351 33.58371 30.99861
#
# Velocity S-wave (km/s) = 3.79617 4.12712 3.96510
# Velocity P-wave (km/s) = 5.70791 6.45294 6.09183
#
# Compressibility (1/GPa) = 0.03794693
#
# Stress axis : x y z
#
# Youngs Moduli (GPa) = 102.70966 106.43411 33.92055
#
# Poissons Ratio (x) = 0.18383 0.19686
# Poissons Ratio (y) = 0.17739 -0.07456
# Poissons Ratio (z) = 0.59609 -0.23395
#
# Static dielectric constant tensor:
#      x y z
#    x 1.786010 0.000000 0.000000 
#    y 0.000000 1.699440 0.000000 
#    z 0.000000 0.000000 1.680010 
# 
# From -- ./inp_files/7821.got.cif
#   From: 2010.05.17/outbox.cif.g08.bks.cpg/sg73_4_cif.got.tgz:7821.got - 2010.06.03 17:35:07.
